
 OpenBabel03272505143D

 38 41  0  0  0  0  0  0  0  0999 V2000
   36.3050   27.7040   34.7830 Cl  0  0  0  0  0  0  0  0  0  0  0  0
   36.2910   28.4620   33.2190 C   0  0  0  0  0  0  0  0  0  0  0  0
   35.7820   29.7340   33.1270 C   0  0  0  0  0  0  0  0  0  0  0  0
   35.7700   30.3400   31.8840 C   0  0  0  0  0  0  0  0  0  0  0  0
   36.2560   29.6760   30.7910 C   0  0  0  0  0  0  0  0  0  0  0  0
   36.7560   28.3910   30.9530 C   0  0  0  0  0  0  0  0  0  0  0  0
   36.8020   27.7240   32.1490 C   0  0  0  0  0  0  0  0  0  0  0  0
   35.3640   31.3440   31.8340 H   0  0  0  0  0  0  0  0  0  0  0  0
   36.2520   30.1370   29.8150 H   0  0  0  0  0  0  0  0  0  0  0  0
   37.1360   27.8830   30.0700 H   0  0  0  0  0  0  0  0  0  0  0  0
   33.4320   30.8410   35.6910 C   0  0  0  0  0  0  0  0  0  0  0  0
   34.2190   31.6270   36.5710 C   0  0  0  0  0  0  0  0  0  0  0  0
   35.5750   31.7640   36.2560 C   0  0  0  0  0  0  0  0  0  0  0  0
   36.0580   31.1420   35.1390 N   0  0  0  0  0  0  0  0  0  0  0  0
   35.2680   30.4100   34.3410 C   0  0  0  0  0  0  0  0  0  0  0  0
   33.9680   30.2620   34.6180 N   0  0  0  0  0  0  0  0  0  0  0  0
   32.3990   30.7220   35.9110 H   0  0  0  0  0  0  0  0  0  0  0  0
   33.8130   32.0960   37.4330 H   0  0  0  0  0  0  0  0  0  0  0  0
   36.2560   32.3420   36.8660 H   0  0  0  0  0  0  0  0  0  0  0  0
   37.4390   26.0840   32.3690 S   0  0  0  0  0  0  0  0  0  0  0  0
   38.0650   23.6380   34.2330 Cl  0  0  0  0  0  0  0  0  0  0  0  0
   39.1770   24.9670   34.0950 C   0  0  0  0  0  0  0  0  0  0  0  0
   38.9750   26.0910   33.2930 C   0  0  0  0  0  0  0  0  0  0  0  0
   39.9270   27.0920   33.2610 C   0  0  0  0  0  0  0  0  0  0  0  0
   41.0710   26.9880   34.0140 C   0  0  0  0  0  0  0  0  0  0  0  0
   41.3250   25.8960   34.8290 C   0  0  0  0  0  0  0  0  0  0  0  0
   40.3470   24.9130   34.8330 C   0  0  0  0  0  0  0  0  0  0  0  0
   39.6930   27.9310   32.6130 H   0  0  0  0  0  0  0  0  0  0  0  0
   41.7790   27.8040   33.9490 H   0  0  0  0  0  0  0  0  0  0  0  0
   42.2130   25.8170   35.4120 H   0  0  0  0  0  0  0  0  0  0  0  0
   40.6000   23.7490   35.6890 C   0  0  0  0  0  0  0  0  0  0  0  0
   41.5100   22.7530   35.5490 C   0  0  0  0  0  0  0  0  0  0  0  0
   42.2100   22.7170   34.7020 H   0  0  0  0  0  0  0  0  0  0  0  0
   41.4410   21.8280   36.5710 C   0  0  0  0  0  0  0  0  0  0  0  0
   42.0270   20.9340   36.7350 H   0  0  0  0  0  0  0  0  0  0  0  0
   40.4110   22.3510   37.3420 C   0  0  0  0  0  0  0  0  0  0  0  0
   40.0230   21.9130   38.2750 H   0  0  0  0  0  0  0  0  0  0  0  0
   39.9620   23.4510   36.7960 O   0  0  0  0  0  0  0  0  0  0  0  0
  2  1  1  0  0  0  0
  3  2  1  0  0  0  0
  3 15  1  0  0  0  0
  4  3  2  0  0  0  0
  5  6  2  0  0  0  0
  5  4  1  0  0  0  0
  6  7  1  0  0  0  0
  7 20  1  0  0  0  0
  7  2  2  0  0  0  0
  8  4  1  0  0  0  0
  9  5  1  0  0  0  0
 10  6  1  0  0  0  0
 11 17  1  0  0  0  0
 11 12  1  0  0  0  0
 12 18  1  0  0  0  0
 13 12  2  0  0  0  0
 13 19  1  0  0  0  0
 14 13  1  0  0  0  0
 15 16  1  0  0  0  0
 15 14  2  0  0  0  0
 16 11  2  0  0  0  0
 20 23  1  0  0  0  0
 22 21  1  0  0  0  0
 22 27  1  0  0  0  0
 23 22  2  0  0  0  0
 24 23  1  0  0  0  0
 24 25  2  0  0  0  0
 25 26  1  0  0  0  0
 26 27  2  0  0  0  0
 26 30  1  0  0  0  0
 27 31  1  0  0  0  0
 28 24  1  0  0  0  0
 29 25  1  0  0  0  0
 31 38  1  0  0  0  0
 32 31  2  0  0  0  0
 32 34  1  0  0  0  0
 33 32  1  0  0  0  0
 34 35  1  0  0  0  0
 34 36  2  0  0  0  0
 36 37  1  0  0  0  0
 38 36  1  0  0  0  0
M  END
>  <minimizedAffinity>
-5.81830692

$$$$

 OpenBabel03272505143D

 38 41  0  0  0  0  0  0  0  0999 V2000
   38.2600   23.6390   34.2020 Cl  0  0  0  0  0  0  0  0  0  0  0  0
   39.3470   24.9920   34.1110 C   0  0  0  0  0  0  0  0  0  0  0  0
   40.5180   24.9240   34.8230 C   0  0  0  0  0  0  0  0  0  0  0  0
   41.3850   26.0000   34.7520 C   0  0  0  0  0  0  0  0  0  0  0  0
   41.0660   27.0890   33.9890 C   0  0  0  0  0  0  0  0  0  0  0  0
   39.8660   27.0940   33.2930 C   0  0  0  0  0  0  0  0  0  0  0  0
   38.9560   26.0700   33.3120 C   0  0  0  0  0  0  0  0  0  0  0  0
   42.3040   25.9250   35.3230 H   0  0  0  0  0  0  0  0  0  0  0  0
   41.7340   27.9360   33.9250 H   0  0  0  0  0  0  0  0  0  0  0  0
   39.6340   27.9720   32.6940 H   0  0  0  0  0  0  0  0  0  0  0  0
   42.1070   21.8080   35.8660 C   0  0  0  0  0  0  0  0  0  0  0  0
   41.4440   21.4640   37.0720 C   0  0  0  0  0  0  0  0  0  0  0  0
   40.4390   22.3320   37.5120 C   0  0  0  0  0  0  0  0  0  0  0  0
   40.1580   23.4440   36.7690 N   0  0  0  0  0  0  0  0  0  0  0  0
   40.8160   23.7220   35.6350 C   0  0  0  0  0  0  0  0  0  0  0  0
   41.7820   22.9090   35.1910 N   0  0  0  0  0  0  0  0  0  0  0  0
   42.8750   21.1640   35.5130 H   0  0  0  0  0  0  0  0  0  0  0  0
   41.6880   20.5920   37.6270 H   0  0  0  0  0  0  0  0  0  0  0  0
   39.8780   22.1560   38.4190 H   0  0  0  0  0  0  0  0  0  0  0  0
   37.4190   26.0650   32.4280 S   0  0  0  0  0  0  0  0  0  0  0  0
   36.3560   27.6740   34.9040 Cl  0  0  0  0  0  0  0  0  0  0  0  0
   36.3550   28.3740   33.3120 C   0  0  0  0  0  0  0  0  0  0  0  0
   36.8060   27.7280   32.1610 C   0  0  0  0  0  0  0  0  0  0  0  0
   36.7560   28.3800   30.9430 C   0  0  0  0  0  0  0  0  0  0  0  0
   36.2650   29.6590   30.8590 C   0  0  0  0  0  0  0  0  0  0  0  0
   35.8020   30.3500   31.9690 C   0  0  0  0  0  0  0  0  0  0  0  0
   35.8700   29.6630   33.1710 C   0  0  0  0  0  0  0  0  0  0  0  0
   37.1250   27.8070   30.0980 H   0  0  0  0  0  0  0  0  0  0  0  0
   36.2500   30.1180   29.8780 H   0  0  0  0  0  0  0  0  0  0  0  0
   35.4220   31.3430   31.9010 H   0  0  0  0  0  0  0  0  0  0  0  0
   35.3860   30.3800   34.3560 C   0  0  0  0  0  0  0  0  0  0  0  0
   36.0490   31.2150   35.1930 C   0  0  0  0  0  0  0  0  0  0  0  0
   37.1130   31.4580   35.0530 H   0  0  0  0  0  0  0  0  0  0  0  0
   35.2430   31.6980   36.2040 C   0  0  0  0  0  0  0  0  0  0  0  0
   35.4810   32.3740   37.0140 H   0  0  0  0  0  0  0  0  0  0  0  0
   34.0340   31.0830   35.9050 C   0  0  0  0  0  0  0  0  0  0  0  0
   33.0990   31.1990   36.4750 H   0  0  0  0  0  0  0  0  0  0  0  0
   34.1660   30.3390   34.8380 O   0  0  0  0  0  0  0  0  0  0  0  0
  2  1  1  0  0  0  0
  2  3  1  0  0  0  0
  3 15  1  0  0  0  0
  4  3  2  0  0  0  0
  4  8  1  0  0  0  0
  5  4  1  0  0  0  0
  6  7  1  0  0  0  0
  6  5  2  0  0  0  0
  7  2  2  0  0  0  0
  9  5  1  0  0  0  0
 10  6  1  0  0  0  0
 11 12  1  0  0  0  0
 12 13  2  0  0  0  0
 12 18  1  0  0  0  0
 13 19  1  0  0  0  0
 14 13  1  0  0  0  0
 15 14  2  0  0  0  0
 16 15  1  0  0  0  0
 16 11  2  0  0  0  0
 17 11  1  0  0  0  0
 20  7  1  0  0  0  0
 22 21  1  0  0  0  0
 23 20  1  0  0  0  0
 23 22  2  0  0  0  0
 24 23  1  0  0  0  0
 25 24  2  0  0  0  0
 25 26  1  0  0  0  0
 26 27  2  0  0  0  0
 27 22  1  0  0  0  0
 27 31  1  0  0  0  0
 28 24  1  0  0  0  0
 29 25  1  0  0  0  0
 30 26  1  0  0  0  0
 31 38  1  0  0  0  0
 31 32  2  0  0  0  0
 32 34  1  0  0  0  0
 33 32  1  0  0  0  0
 34 35  1  0  0  0  0
 36 34  2  0  0  0  0
 36 37  1  0  0  0  0
 38 36  1  0  0  0  0
M  END
>  <minimizedAffinity>
-5.80073214

$$$$

 OpenBabel03272505143D

 38 41  0  0  0  0  0  0  0  0999 V2000
   37.0610   27.8790   34.2090 Cl  0  0  0  0  0  0  0  0  0  0  0  0
   36.9940   28.3550   32.5390 C   0  0  0  0  0  0  0  0  0  0  0  0
   35.9570   29.1610   32.1430 C   0  0  0  0  0  0  0  0  0  0  0  0
   35.9010   29.5420   30.8140 C   0  0  0  0  0  0  0  0  0  0  0  0
   36.8600   29.1180   29.9370 C   0  0  0  0  0  0  0  0  0  0  0  0
   37.8830   28.3030   30.4030 C   0  0  0  0  0  0  0  0  0  0  0  0
   38.0080   27.8830   31.7010 C   0  0  0  0  0  0  0  0  0  0  0  0
   35.0720   30.1790   30.5240 H   0  0  0  0  0  0  0  0  0  0  0  0
   36.8290   29.4070   28.8980 H   0  0  0  0  0  0  0  0  0  0  0  0
   38.6340   27.9780   29.6870 H   0  0  0  0  0  0  0  0  0  0  0  0
   32.7610   29.3840   33.8930 C   0  0  0  0  0  0  0  0  0  0  0  0
   32.9910   30.3320   34.9220 C   0  0  0  0  0  0  0  0  0  0  0  0
   34.2720   30.8890   34.9950 C   0  0  0  0  0  0  0  0  0  0  0  0
   35.2140   30.4950   34.0870 N   0  0  0  0  0  0  0  0  0  0  0  0
   34.9420   29.5940   33.1320 C   0  0  0  0  0  0  0  0  0  0  0  0
   33.7260   29.0450   33.0400 N   0  0  0  0  0  0  0  0  0  0  0  0
   31.7950   28.9460   33.8180 H   0  0  0  0  0  0  0  0  0  0  0  0
   32.2370   30.6160   35.6130 H   0  0  0  0  0  0  0  0  0  0  0  0
   34.5440   31.6190   35.7440 H   0  0  0  0  0  0  0  0  0  0  0  0
   39.3090   26.8430   32.3080 S   0  0  0  0  0  0  0  0  0  0  0  0
   39.9880   26.0680   35.2720 Cl  0  0  0  0  0  0  0  0  0  0  0  0
   39.0170   25.0270   34.2730 C   0  0  0  0  0  0  0  0  0  0  0  0
   38.6720   25.2940   32.9480 C   0  0  0  0  0  0  0  0  0  0  0  0
   37.8960   24.3930   32.2450 C   0  0  0  0  0  0  0  0  0  0  0  0
   37.4620   23.2350   32.8420 C   0  0  0  0  0  0  0  0  0  0  0  0
   37.7740   22.9160   34.1550 C   0  0  0  0  0  0  0  0  0  0  0  0
   38.5530   23.8460   34.8270 C   0  0  0  0  0  0  0  0  0  0  0  0
   37.6730   24.6760   31.2210 H   0  0  0  0  0  0  0  0  0  0  0  0
   36.8580   22.5670   32.2410 H   0  0  0  0  0  0  0  0  0  0  0  0
   37.4360   22.0180   34.6160 H   0  0  0  0  0  0  0  0  0  0  0  0
   38.8920   23.5250   36.2170 C   0  0  0  0  0  0  0  0  0  0  0  0
   38.2460   23.8540   37.3630 C   0  0  0  0  0  0  0  0  0  0  0  0
   37.3210   24.4480   37.3620 H   0  0  0  0  0  0  0  0  0  0  0  0
   38.8810   23.3630   38.4860 C   0  0  0  0  0  0  0  0  0  0  0  0
   38.6120   23.4580   39.5290 H   0  0  0  0  0  0  0  0  0  0  0  0
   39.9660   22.7070   37.9200 C   0  0  0  0  0  0  0  0  0  0  0  0
   40.7480   22.1640   38.4750 H   0  0  0  0  0  0  0  0  0  0  0  0
   39.9290   22.8280   36.6180 O   0  0  0  0  0  0  0  0  0  0  0  0
  2  1  1  0  0  0  0
  3  2  1  0  0  0  0
  3 15  1  0  0  0  0
  4  3  2  0  0  0  0
  5  6  2  0  0  0  0
  5  4  1  0  0  0  0
  6  7  1  0  0  0  0
  7 20  1  0  0  0  0
  7  2  2  0  0  0  0
  8  4  1  0  0  0  0
  9  5  1  0  0  0  0
 10  6  1  0  0  0  0
 11 12  1  0  0  0  0
 12 13  2  0  0  0  0
 12 18  1  0  0  0  0
 13 19  1  0  0  0  0
 14 13  1  0  0  0  0
 15 14  2  0  0  0  0
 16 15  1  0  0  0  0
 16 11  2  0  0  0  0
 17 11  1  0  0  0  0
 20 23  1  0  0  0  0
 22 27  1  0  0  0  0
 22 21  1  0  0  0  0
 23 22  2  0  0  0  0
 24 25  2  0  0  0  0
 24 23  1  0  0  0  0
 25 26  1  0  0  0  0
 26 30  1  0  0  0  0
 26 27  2  0  0  0  0
 27 31  1  0  0  0  0
 28 24  1  0  0  0  0
 29 25  1  0  0  0  0
 31 38  1  0  0  0  0
 31 32  2  0  0  0  0
 32 34  1  0  0  0  0
 33 32  1  0  0  0  0
 34 35  1  0  0  0  0
 36 37  1  0  0  0  0
 36 34  2  0  0  0  0
 38 36  1  0  0  0  0
M  END
>  <minimizedAffinity>
-5.66068888

$$$$

 OpenBabel03272505143D

 38 41  0  0  0  0  0  0  0  0999 V2000
   39.9320   26.0260   34.9690 Cl  0  0  0  0  0  0  0  0  0  0  0  0
   39.0690   24.8900   33.9770 C   0  0  0  0  0  0  0  0  0  0  0  0
   38.5190   23.7920   34.5890 C   0  0  0  0  0  0  0  0  0  0  0  0
   37.8320   22.8850   33.8030 C   0  0  0  0  0  0  0  0  0  0  0  0
   37.7150   23.0950   32.4560 C   0  0  0  0  0  0  0  0  0  0  0  0
   38.2950   24.2260   31.8990 C   0  0  0  0  0  0  0  0  0  0  0  0
   38.9900   25.1680   32.6100 C   0  0  0  0  0  0  0  0  0  0  0  0
   37.4050   22.0250   34.3080 H   0  0  0  0  0  0  0  0  0  0  0  0
   37.1810   22.3960   31.8300 H   0  0  0  0  0  0  0  0  0  0  0  0
   38.1890   24.3710   30.8270 H   0  0  0  0  0  0  0  0  0  0  0  0
   39.9660   22.7460   37.7730 C   0  0  0  0  0  0  0  0  0  0  0  0
   39.0510   23.2220   38.7470 C   0  0  0  0  0  0  0  0  0  0  0  0
   37.9270   23.9090   38.2760 C   0  0  0  0  0  0  0  0  0  0  0  0
   37.7770   24.0820   36.9290 N   0  0  0  0  0  0  0  0  0  0  0  0
   38.6740   23.6100   36.0520 C   0  0  0  0  0  0  0  0  0  0  0  0
   39.7580   22.9500   36.4740 N   0  0  0  0  0  0  0  0  0  0  0  0
   40.8280   22.2220   38.1070 H   0  0  0  0  0  0  0  0  0  0  0  0
   39.1980   23.0720   39.7880 H   0  0  0  0  0  0  0  0  0  0  0  0
   37.1740   24.3100   38.9400 H   0  0  0  0  0  0  0  0  0  0  0  0
   39.7360   26.6170   31.9110 S   0  0  0  0  0  0  0  0  0  0  0  0
   37.4180   27.7590   33.6920 Cl  0  0  0  0  0  0  0  0  0  0  0  0
   37.5230   28.1460   32.0000 C   0  0  0  0  0  0  0  0  0  0  0  0
   38.5160   27.6800   31.1390 C   0  0  0  0  0  0  0  0  0  0  0  0
   38.5000   28.0500   29.8070 C   0  0  0  0  0  0  0  0  0  0  0  0
   37.5130   28.8730   29.3270 C   0  0  0  0  0  0  0  0  0  0  0  0
   36.5000   29.3670   30.1350 C   0  0  0  0  0  0  0  0  0  0  0  0
   36.5510   28.9740   31.4640 C   0  0  0  0  0  0  0  0  0  0  0  0
   39.3080   27.6440   29.2070 H   0  0  0  0  0  0  0  0  0  0  0  0
   37.5520   29.1280   28.2750 H   0  0  0  0  0  0  0  0  0  0  0  0
   35.7340   30.0060   29.7600 H   0  0  0  0  0  0  0  0  0  0  0  0
   35.4870   29.4870   32.3330 C   0  0  0  0  0  0  0  0  0  0  0  0
   35.4680   30.5930   33.1170 C   0  0  0  0  0  0  0  0  0  0  0  0
   36.3290   31.2760   33.1840 H   0  0  0  0  0  0  0  0  0  0  0  0
   34.2750   30.7410   33.7930 C   0  0  0  0  0  0  0  0  0  0  0  0
   33.9620   31.5120   34.4840 H   0  0  0  0  0  0  0  0  0  0  0  0
   33.5720   29.6280   33.3500 C   0  0  0  0  0  0  0  0  0  0  0  0
   32.5480   29.3560   33.6500 H   0  0  0  0  0  0  0  0  0  0  0  0
   34.3080   28.9410   32.5160 O   0  0  0  0  0  0  0  0  0  0  0  0
  2  3  1  0  0  0  0
  2  1  1  0  0  0  0
  3 15  1  0  0  0  0
  4  8  1  0  0  0  0
  4  3  2  0  0  0  0
  5  4  1  0  0  0  0
  6  5  2  0  0  0  0
  6  7  1  0  0  0  0
  7  2  2  0  0  0  0
  9  5  1  0  0  0  0
 10  6  1  0  0  0  0
 11 17  1  0  0  0  0
 11 12  1  0  0  0  0
 12 18  1  0  0  0  0
 13 12  2  0  0  0  0
 13 19  1  0  0  0  0
 14 13  1  0  0  0  0
 15 16  1  0  0  0  0
 15 14  2  0  0  0  0
 16 11  2  0  0  0  0
 20  7  1  0  0  0  0
 22 21  1  0  0  0  0
 23 20  1  0  0  0  0
 23 22  2  0  0  0  0
 24 23  1  0  0  0  0
 25 24  2  0  0  0  0
 25 26  1  0  0  0  0
 26 27  2  0  0  0  0
 27 22  1  0  0  0  0
 27 31  1  0  0  0  0
 28 24  1  0  0  0  0
 29 25  1  0  0  0  0
 30 26  1  0  0  0  0
 31 38  1  0  0  0  0
 31 32  2  0  0  0  0
 32 33  1  0  0  0  0
 32 34  1  0  0  0  0
 34 35  1  0  0  0  0
 36 37  1  0  0  0  0
 36 34  2  0  0  0  0
 38 36  1  0  0  0  0
M  END
>  <minimizedAffinity>
-5.65477133

$$$$

 OpenBabel03272505143D

 38 41  0  0  0  0  0  0  0  0999 V2000
   37.4820   27.8850   35.3190 Cl  0  0  0  0  0  0  0  0  0  0  0  0
   37.0300   27.7870   33.6430 C   0  0  0  0  0  0  0  0  0  0  0  0
   35.9940   28.5760   33.2110 C   0  0  0  0  0  0  0  0  0  0  0  0
   35.6320   28.5000   31.8780 C   0  0  0  0  0  0  0  0  0  0  0  0
   36.3000   27.6580   31.0320 C   0  0  0  0  0  0  0  0  0  0  0  0
   37.3390   26.8860   31.5340 C   0  0  0  0  0  0  0  0  0  0  0  0
   37.7560   26.9050   32.8380 C   0  0  0  0  0  0  0  0  0  0  0  0
   34.8110   29.1330   31.5580 H   0  0  0  0  0  0  0  0  0  0  0  0
   36.0280   27.5890   29.9900 H   0  0  0  0  0  0  0  0  0  0  0  0
   37.8540   26.2240   30.8420 H   0  0  0  0  0  0  0  0  0  0  0  0
   33.3220   29.9890   35.2570 C   0  0  0  0  0  0  0  0  0  0  0  0
   33.9330   31.0790   35.9270 C   0  0  0  0  0  0  0  0  0  0  0  0
   35.2850   31.3120   35.6540 C   0  0  0  0  0  0  0  0  0  0  0  0
   35.9300   30.4900   34.7740 N   0  0  0  0  0  0  0  0  0  0  0  0
   35.3030   29.4720   34.1670 C   0  0  0  0  0  0  0  0  0  0  0  0
   34.0110   29.2260   34.4100 N   0  0  0  0  0  0  0  0  0  0  0  0
   32.2950   29.7920   35.4490 H   0  0  0  0  0  0  0  0  0  0  0  0
   33.4030   31.6990   36.6070 H   0  0  0  0  0  0  0  0  0  0  0  0
   35.8380   32.1180   36.1160 H   0  0  0  0  0  0  0  0  0  0  0  0
   39.0810   25.9240   33.4910 S   0  0  0  0  0  0  0  0  0  0  0  0
   37.9090   23.5160   31.8550 Cl  0  0  0  0  0  0  0  0  0  0  0  0
   37.9660   23.4760   33.5930 C   0  0  0  0  0  0  0  0  0  0  0  0
   38.4670   24.5020   34.3940 C   0  0  0  0  0  0  0  0  0  0  0  0
   38.4610   24.3650   35.7690 C   0  0  0  0  0  0  0  0  0  0  0  0
   37.9650   23.2250   36.3520 C   0  0  0  0  0  0  0  0  0  0  0  0
   37.4540   22.1740   35.6060 C   0  0  0  0  0  0  0  0  0  0  0  0
   37.4780   22.3490   34.2310 C   0  0  0  0  0  0  0  0  0  0  0  0
   38.8680   25.2080   36.3180 H   0  0  0  0  0  0  0  0  0  0  0  0
   37.9860   23.1750   37.4330 H   0  0  0  0  0  0  0  0  0  0  0  0
   37.0690   21.2900   36.0600 H   0  0  0  0  0  0  0  0  0  0  0  0
   36.9420   21.2460   33.4270 C   0  0  0  0  0  0  0  0  0  0  0  0
   35.6700   20.7850   33.3290 C   0  0  0  0  0  0  0  0  0  0  0  0
   34.8410   21.2350   33.8950 H   0  0  0  0  0  0  0  0  0  0  0  0
   35.5610   19.7190   32.4590 C   0  0  0  0  0  0  0  0  0  0  0  0
   34.6890   19.1450   32.1760 H   0  0  0  0  0  0  0  0  0  0  0  0
   36.8770   19.5750   32.0390 C   0  0  0  0  0  0  0  0  0  0  0  0
   37.2420   18.8210   31.3240 H   0  0  0  0  0  0  0  0  0  0  0  0
   37.6300   20.4720   32.6210 O   0  0  0  0  0  0  0  0  0  0  0  0
  2  1  1  0  0  0  0
  3  2  1  0  0  0  0
  3 15  1  0  0  0  0
  4  3  2  0  0  0  0
  5  6  2  0  0  0  0
  5  4  1  0  0  0  0
  6  7  1  0  0  0  0
  7 20  1  0  0  0  0
  7  2  2  0  0  0  0
  8  4  1  0  0  0  0
  9  5  1  0  0  0  0
 10  6  1  0  0  0  0
 11 17  1  0  0  0  0
 11 12  1  0  0  0  0
 12 18  1  0  0  0  0
 13 12  2  0  0  0  0
 13 19  1  0  0  0  0
 14 13  1  0  0  0  0
 15 16  1  0  0  0  0
 15 14  2  0  0  0  0
 16 11  2  0  0  0  0
 20 23  1  0  0  0  0
 21 22  1  0  0  0  0
 22 27  2  0  0  0  0
 22 23  1  0  0  0  0
 23 24  2  0  0  0  0
 24 28  1  0  0  0  0
 24 25  1  0  0  0  0
 25 29  1  0  0  0  0
 26 30  1  0  0  0  0
 26 25  2  0  0  0  0
 27 26  1  0  0  0  0
 31 27  1  0  0  0  0
 32 31  2  0  0  0  0
 32 33  1  0  0  0  0
 34 32  1  0  0  0  0
 35 34  1  0  0  0  0
 36 34  2  0  0  0  0
 36 38  1  0  0  0  0
 37 36  1  0  0  0  0
 38 31  1  0  0  0  0
M  END
>  <minimizedAffinity>
-5.64656782

$$$$

 OpenBabel03272505143D

 38 41  0  0  0  0  0  0  0  0999 V2000
   38.8300   27.0010   31.4910 Cl  0  0  0  0  0  0  0  0  0  0  0  0
   37.4100   26.0270   31.2550 C   0  0  0  0  0  0  0  0  0  0  0  0
   36.1940   26.6630   31.2260 C   0  0  0  0  0  0  0  0  0  0  0  0
   35.0610   25.8910   31.0390 C   0  0  0  0  0  0  0  0  0  0  0  0
   35.1710   24.5360   30.8880 C   0  0  0  0  0  0  0  0  0  0  0  0
   36.4310   23.9550   30.9280 C   0  0  0  0  0  0  0  0  0  0  0  0
   37.5970   24.6500   31.1100 C   0  0  0  0  0  0  0  0  0  0  0  0
   34.1110   26.4140   31.0190 H   0  0  0  0  0  0  0  0  0  0  0  0
   34.2960   23.9210   30.7410 H   0  0  0  0  0  0  0  0  0  0  0  0
   36.4930   22.8770   30.8070 H   0  0  0  0  0  0  0  0  0  0  0  0
   35.7870   29.9070   32.8490 C   0  0  0  0  0  0  0  0  0  0  0  0
   35.9860   30.8480   31.8070 C   0  0  0  0  0  0  0  0  0  0  0  0
   36.2620   30.3340   30.5350 C   0  0  0  0  0  0  0  0  0  0  0  0
   36.3250   28.9790   30.3720 N   0  0  0  0  0  0  0  0  0  0  0  0
   36.1280   28.1330   31.3940 C   0  0  0  0  0  0  0  0  0  0  0  0
   35.8630   28.5970   32.6200 N   0  0  0  0  0  0  0  0  0  0  0  0
   35.5760   30.2740   33.8240 H   0  0  0  0  0  0  0  0  0  0  0  0
   35.9310   31.8960   31.9680 H   0  0  0  0  0  0  0  0  0  0  0  0
   36.4300   30.9700   29.6780 H   0  0  0  0  0  0  0  0  0  0  0  0
   39.2130   23.9200   31.1620 S   0  0  0  0  0  0  0  0  0  0  0  0
   37.8300   23.3400   33.9190 Cl  0  0  0  0  0  0  0  0  0  0  0  0
   39.4060   24.0710   33.8430 C   0  0  0  0  0  0  0  0  0  0  0  0
   40.0890   24.3640   32.6630 C   0  0  0  0  0  0  0  0  0  0  0  0
   41.3390   24.9490   32.7190 C   0  0  0  0  0  0  0  0  0  0  0  0
   41.9140   25.2440   33.9300 C   0  0  0  0  0  0  0  0  0  0  0  0
   41.2830   24.9760   35.1350 C   0  0  0  0  0  0  0  0  0  0  0  0
   40.0320   24.3880   35.0370 C   0  0  0  0  0  0  0  0  0  0  0  0
   41.8010   25.1450   31.7570 H   0  0  0  0  0  0  0  0  0  0  0  0
   42.8950   25.7030   33.9110 H   0  0  0  0  0  0  0  0  0  0  0  0
   41.7320   25.2060   36.0740 H   0  0  0  0  0  0  0  0  0  0  0  0
   39.3500   24.0970   36.3020 C   0  0  0  0  0  0  0  0  0  0  0  0
   38.3200   24.7460   36.9000 C   0  0  0  0  0  0  0  0  0  0  0  0
   37.8540   25.6360   36.4530 H   0  0  0  0  0  0  0  0  0  0  0  0
   37.9530   24.1640   38.0960 C   0  0  0  0  0  0  0  0  0  0  0  0
   37.1770   24.4490   38.7930 H   0  0  0  0  0  0  0  0  0  0  0  0
   38.8490   23.1060   38.1700 C   0  0  0  0  0  0  0  0  0  0  0  0
   38.9030   22.3690   38.9870 H   0  0  0  0  0  0  0  0  0  0  0  0
   39.6280   23.1100   37.1200 O   0  0  0  0  0  0  0  0  0  0  0  0
  2  1  1  0  0  0  0
  3  2  1  0  0  0  0
  3 15  1  0  0  0  0
  4  3  2  0  0  0  0
  5  6  2  0  0  0  0
  5  4  1  0  0  0  0
  6  7  1  0  0  0  0
  7 20  1  0  0  0  0
  7  2  2  0  0  0  0
  8  4  1  0  0  0  0
  9  5  1  0  0  0  0
 10  6  1  0  0  0  0
 11 17  1  0  0  0  0
 12 18  1  0  0  0  0
 12 11  2  0  0  0  0
 13 12  1  0  0  0  0
 14 13  2  0  0  0  0
 14 15  1  0  0  0  0
 15 16  2  0  0  0  0
 16 11  1  0  0  0  0
 19 13  1  0  0  0  0
 20 23  1  0  0  0  0
 22 21  1  0  0  0  0
 22 27  1  0  0  0  0
 23 24  1  0  0  0  0
 23 22  2  0  0  0  0
 24 25  2  0  0  0  0
 25 26  1  0  0  0  0
 26 30  1  0  0  0  0
 27 26  2  0  0  0  0
 27 31  1  0  0  0  0
 28 24  1  0  0  0  0
 29 25  1  0  0  0  0
 31 32  2  0  0  0  0
 31 38  1  0  0  0  0
 32 34  1  0  0  0  0
 33 32  1  0  0  0  0
 34 36  2  0  0  0  0
 34 35  1  0  0  0  0
 36 37  1  0  0  0  0
 38 36  1  0  0  0  0
M  END
>  <minimizedAffinity>
-5.57189083

$$$$

 OpenBabel03272505143D

 38 41  0  0  0  0  0  0  0  0999 V2000
   37.5950   24.5580   33.4030 Cl  0  0  0  0  0  0  0  0  0  0  0  0
   38.9890   25.5950   33.4610 C   0  0  0  0  0  0  0  0  0  0  0  0
   39.7060   25.6420   34.6300 C   0  0  0  0  0  0  0  0  0  0  0  0
   40.8150   26.4660   34.6800 C   0  0  0  0  0  0  0  0  0  0  0  0
   41.1720   27.2040   33.5850 C   0  0  0  0  0  0  0  0  0  0  0  0
   40.4030   27.1110   32.4330 C   0  0  0  0  0  0  0  0  0  0  0  0
   39.2930   26.3200   32.3060 C   0  0  0  0  0  0  0  0  0  0  0  0
   41.3670   26.4870   35.6140 H   0  0  0  0  0  0  0  0  0  0  0  0
   42.0350   27.8520   33.6100 H   0  0  0  0  0  0  0  0  0  0  0  0
   40.7060   27.7080   31.5760 H   0  0  0  0  0  0  0  0  0  0  0  0
   39.6440   22.9140   37.0560 C   0  0  0  0  0  0  0  0  0  0  0  0
   38.5620   23.2340   37.9150 C   0  0  0  0  0  0  0  0  0  0  0  0
   37.8580   24.4100   37.6350 C   0  0  0  0  0  0  0  0  0  0  0  0
   38.2460   25.1720   36.5690 N   0  0  0  0  0  0  0  0  0  0  0  0
   39.2780   24.8220   35.7880 C   0  0  0  0  0  0  0  0  0  0  0  0
   39.9690   23.7040   36.0330 N   0  0  0  0  0  0  0  0  0  0  0  0
   40.1950   22.0260   37.2500 H   0  0  0  0  0  0  0  0  0  0  0  0
   38.2860   22.6210   38.7360 H   0  0  0  0  0  0  0  0  0  0  0  0
   37.0190   24.7390   38.2320 H   0  0  0  0  0  0  0  0  0  0  0  0
   38.3030   26.1920   30.8390 S   0  0  0  0  0  0  0  0  0  0  0  0
   36.3770   28.0500   32.4780 Cl  0  0  0  0  0  0  0  0  0  0  0  0
   37.0460   28.5700   30.9600 C   0  0  0  0  0  0  0  0  0  0  0  0
   37.9060   27.8070   30.1690 C   0  0  0  0  0  0  0  0  0  0  0  0
   38.3770   28.3190   28.9750 C   0  0  0  0  0  0  0  0  0  0  0  0
   38.0040   29.5740   28.5620 C   0  0  0  0  0  0  0  0  0  0  0  0
   37.1530   30.3770   29.3060 C   0  0  0  0  0  0  0  0  0  0  0  0
   36.7030   29.8290   30.4970 C   0  0  0  0  0  0  0  0  0  0  0  0
   39.0400   27.6620   28.4210 H   0  0  0  0  0  0  0  0  0  0  0  0
   38.4050   29.9210   27.6180 H   0  0  0  0  0  0  0  0  0  0  0  0
   36.8650   31.3510   28.9830 H   0  0  0  0  0  0  0  0  0  0  0  0
   35.8010   30.6650   31.2960 C   0  0  0  0  0  0  0  0  0  0  0  0
   36.0930   31.6410   32.1910 C   0  0  0  0  0  0  0  0  0  0  0  0
   37.1290   31.9260   32.4270 H   0  0  0  0  0  0  0  0  0  0  0  0
   34.9610   32.2040   32.7450 C   0  0  0  0  0  0  0  0  0  0  0  0
   34.8700   32.9930   33.4790 H   0  0  0  0  0  0  0  0  0  0  0  0
   33.9590   31.4850   32.1070 C   0  0  0  0  0  0  0  0  0  0  0  0
   32.8770   31.6180   32.2610 H   0  0  0  0  0  0  0  0  0  0  0  0
   34.4900   30.6150   31.2870 O   0  0  0  0  0  0  0  0  0  0  0  0
  1  2  1  0  0  0  0
  2  3  1  0  0  0  0
  3  4  2  0  0  0  0
  3 15  1  0  0  0  0
  4  8  1  0  0  0  0
  5  9  1  0  0  0  0
  5  4  1  0  0  0  0
  6  5  2  0  0  0  0
  7  6  1  0  0  0  0
  7  2  2  0  0  0  0
 10  6  1  0  0  0  0
 11 17  1  0  0  0  0
 11 12  1  0  0  0  0
 12 18  1  0  0  0  0
 13 12  2  0  0  0  0
 13 19  1  0  0  0  0
 14 13  1  0  0  0  0
 15 16  1  0  0  0  0
 15 14  2  0  0  0  0
 16 11  2  0  0  0  0
 20  7  1  0  0  0  0
 22 21  1  0  0  0  0
 23 20  1  0  0  0  0
 23 22  2  0  0  0  0
 24 23  1  0  0  0  0
 25 24  2  0  0  0  0
 25 26  1  0  0  0  0
 26 27  2  0  0  0  0
 27 22  1  0  0  0  0
 27 31  1  0  0  0  0
 28 24  1  0  0  0  0
 29 25  1  0  0  0  0
 30 26  1  0  0  0  0
 31 32  2  0  0  0  0
 32 33  1  0  0  0  0
 32 34  1  0  0  0  0
 34 35  1  0  0  0  0
 36 37  1  0  0  0  0
 36 34  2  0  0  0  0
 38 31  1  0  0  0  0
 38 36  1  0  0  0  0
M  END
>  <minimizedAffinity>
-5.5555439

$$$$

 OpenBabel03272505143D

 38 41  0  0  0  0  0  0  0  0999 V2000
   38.2380   23.3630   33.6470 Cl  0  0  0  0  0  0  0  0  0  0  0  0
   39.7870   24.1430   33.5460 C   0  0  0  0  0  0  0  0  0  0  0  0
   40.4570   24.3940   34.7170 C   0  0  0  0  0  0  0  0  0  0  0  0
   41.6900   25.0150   34.6400 C   0  0  0  0  0  0  0  0  0  0  0  0
   42.2100   25.3600   33.4230 C   0  0  0  0  0  0  0  0  0  0  0  0
   41.4810   25.0780   32.2760 C   0  0  0  0  0  0  0  0  0  0  0  0
   40.2550   24.4670   32.2700 C   0  0  0  0  0  0  0  0  0  0  0  0
   42.2020   25.2040   35.5780 H   0  0  0  0  0  0  0  0  0  0  0  0
   43.1720   25.8460   33.3480 H   0  0  0  0  0  0  0  0  0  0  0  0
   41.9150   25.3620   31.3210 H   0  0  0  0  0  0  0  0  0  0  0  0
   38.1290   24.3380   37.5280 C   0  0  0  0  0  0  0  0  0  0  0  0
   38.6490   23.3420   38.3940 C   0  0  0  0  0  0  0  0  0  0  0  0
   39.8190   22.6950   37.9820 C   0  0  0  0  0  0  0  0  0  0  0  0
   40.3850   23.0510   36.7900 N   0  0  0  0  0  0  0  0  0  0  0  0
   39.8500   24.0010   36.0100 C   0  0  0  0  0  0  0  0  0  0  0  0
   38.7320   24.6360   36.3790 N   0  0  0  0  0  0  0  0  0  0  0  0
   37.2400   24.8430   37.8200 H   0  0  0  0  0  0  0  0  0  0  0  0
   38.1840   23.0880   39.3140 H   0  0  0  0  0  0  0  0  0  0  0  0
   40.2910   21.9210   38.5730 H   0  0  0  0  0  0  0  0  0  0  0  0
   39.3140   24.1010   30.8120 S   0  0  0  0  0  0  0  0  0  0  0  0
   39.0130   27.2160   31.0370 Cl  0  0  0  0  0  0  0  0  0  0  0  0
   37.6160   26.1810   30.9990 C   0  0  0  0  0  0  0  0  0  0  0  0
   37.6620   24.7900   30.9030 C   0  0  0  0  0  0  0  0  0  0  0  0
   36.4860   24.0640   30.8840 C   0  0  0  0  0  0  0  0  0  0  0  0
   35.2730   24.7030   30.9580 C   0  0  0  0  0  0  0  0  0  0  0  0
   35.1670   26.0820   31.0550 C   0  0  0  0  0  0  0  0  0  0  0  0
   36.3670   26.7750   31.0710 C   0  0  0  0  0  0  0  0  0  0  0  0
   36.6100   22.9880   30.8080 H   0  0  0  0  0  0  0  0  0  0  0  0
   34.3870   24.0810   30.9400 H   0  0  0  0  0  0  0  0  0  0  0  0
   34.2240   26.5760   31.1130 H   0  0  0  0  0  0  0  0  0  0  0  0
   36.2730   28.2350   31.1720 C   0  0  0  0  0  0  0  0  0  0  0  0
   36.0850   29.0160   32.2650 C   0  0  0  0  0  0  0  0  0  0  0  0
   35.9740   28.5910   33.2730 H   0  0  0  0  0  0  0  0  0  0  0  0
   36.0510   30.3600   31.9530 C   0  0  0  0  0  0  0  0  0  0  0  0
   35.9180   31.2160   32.6000 H   0  0  0  0  0  0  0  0  0  0  0  0
   36.2360   30.3240   30.5770 C   0  0  0  0  0  0  0  0  0  0  0  0
   36.2750   31.2020   29.9130 H   0  0  0  0  0  0  0  0  0  0  0  0
   36.3580   29.0850   30.1770 O   0  0  0  0  0  0  0  0  0  0  0  0
  2  1  1  0  0  0  0
  2  3  1  0  0  0  0
  3 15  1  0  0  0  0
  4  3  2  0  0  0  0
  4  8  1  0  0  0  0
  5  4  1  0  0  0  0
  6  5  2  0  0  0  0
  7  6  1  0  0  0  0
  7  2  2  0  0  0  0
  9  5  1  0  0  0  0
 10  6  1  0  0  0  0
 11 17  1  0  0  0  0
 11 12  1  0  0  0  0
 12 18  1  0  0  0  0
 13 12  2  0  0  0  0
 13 19  1  0  0  0  0
 14 13  1  0  0  0  0
 15 16  1  0  0  0  0
 15 14  2  0  0  0  0
 16 11  2  0  0  0  0
 20 23  1  0  0  0  0
 20  7  1  0  0  0  0
 22 21  1  0  0  0  0
 22 27  1  0  0  0  0
 23 22  2  0  0  0  0
 24 23  1  0  0  0  0
 24 25  2  0  0  0  0
 25 26  1  0  0  0  0
 26 27  2  0  0  0  0
 26 30  1  0  0  0  0
 27 31  1  0  0  0  0
 28 24  1  0  0  0  0
 29 25  1  0  0  0  0
 31 32  2  0  0  0  0
 32 33  1  0  0  0  0
 34 32  1  0  0  0  0
 34 35  1  0  0  0  0
 36 34  2  0  0  0  0
 37 36  1  0  0  0  0
 38 36  1  0  0  0  0
 38 31  1  0  0  0  0
M  END
>  <minimizedAffinity>
-5.5278573

$$$$

 OpenBabel03272505143D

 38 41  0  0  0  0  0  0  0  0999 V2000
   40.9520   24.2810   33.8240 Cl  0  0  0  0  0  0  0  0  0  0  0  0
   39.8270   25.3110   34.6560 C   0  0  0  0  0  0  0  0  0  0  0  0
   39.7560   26.6270   34.2710 C   0  0  0  0  0  0  0  0  0  0  0  0
   38.8610   27.4500   34.9310 C   0  0  0  0  0  0  0  0  0  0  0  0
   38.0800   26.9480   35.9350 C   0  0  0  0  0  0  0  0  0  0  0  0
   38.2020   25.6080   36.2760 C   0  0  0  0  0  0  0  0  0  0  0  0
   39.0620   24.7310   35.6710 C   0  0  0  0  0  0  0  0  0  0  0  0
   38.8220   28.4850   34.6100 H   0  0  0  0  0  0  0  0  0  0  0  0
   37.3780   27.5790   36.4590 H   0  0  0  0  0  0  0  0  0  0  0  0
   37.5700   25.2330   37.0780 H   0  0  0  0  0  0  0  0  0  0  0  0
   40.8160   27.5910   30.9140 C   0  0  0  0  0  0  0  0  0  0  0  0
   42.1560   28.0230   31.0800 C   0  0  0  0  0  0  0  0  0  0  0  0
   42.6810   27.9720   32.3760 C   0  0  0  0  0  0  0  0  0  0  0  0
   41.8870   27.5180   33.3910 N   0  0  0  0  0  0  0  0  0  0  0  0
   40.6240   27.1210   33.1770 C   0  0  0  0  0  0  0  0  0  0  0  0
   40.0970   27.1600   31.9480 N   0  0  0  0  0  0  0  0  0  0  0  0
   40.3950   27.6220   29.9380 H   0  0  0  0  0  0  0  0  0  0  0  0
   42.7470   28.3720   30.2700 H   0  0  0  0  0  0  0  0  0  0  0  0
   43.6920   28.2800   32.6040 H   0  0  0  0  0  0  0  0  0  0  0  0
   39.2270   23.0180   36.0980 S   0  0  0  0  0  0  0  0  0  0  0  0
   38.9830   21.9600   33.1530 Cl  0  0  0  0  0  0  0  0  0  0  0  0
   37.7360   21.6480   34.3240 C   0  0  0  0  0  0  0  0  0  0  0  0
   37.7650   22.0830   35.6490 C   0  0  0  0  0  0  0  0  0  0  0  0
   36.7150   21.7790   36.4950 C   0  0  0  0  0  0  0  0  0  0  0  0
   35.6430   21.0520   36.0390 C   0  0  0  0  0  0  0  0  0  0  0  0
   35.5590   20.5940   34.7330 C   0  0  0  0  0  0  0  0  0  0  0  0
   36.6320   20.9180   33.9170 C   0  0  0  0  0  0  0  0  0  0  0  0
   36.8160   22.1550   37.5080 H   0  0  0  0  0  0  0  0  0  0  0  0
   34.8500   20.8460   36.7480 H   0  0  0  0  0  0  0  0  0  0  0  0
   34.7270   20.0300   34.3820 H   0  0  0  0  0  0  0  0  0  0  0  0
   36.5600   20.4410   32.5320 C   0  0  0  0  0  0  0  0  0  0  0  0
   35.9490   20.9960   31.4560 C   0  0  0  0  0  0  0  0  0  0  0  0
   35.3960   21.9450   31.5240 H   0  0  0  0  0  0  0  0  0  0  0  0
   36.1060   20.2400   30.3120 C   0  0  0  0  0  0  0  0  0  0  0  0
   35.7390   20.4190   29.3100 H   0  0  0  0  0  0  0  0  0  0  0  0
   36.8660   19.1800   30.7880 C   0  0  0  0  0  0  0  0  0  0  0  0
   37.2230   18.3280   30.1890 H   0  0  0  0  0  0  0  0  0  0  0  0
   37.1000   19.3400   32.0650 O   0  0  0  0  0  0  0  0  0  0  0  0
  1  2  1  0  0  0  0
  2  7  1  0  0  0  0
  3  2  2  0  0  0  0
  3  4  1  0  0  0  0
  4  5  2  0  0  0  0
  5  6  1  0  0  0  0
  5  9  1  0  0  0  0
  6 10  1  0  0  0  0
  7 20  1  0  0  0  0
  7  6  2  0  0  0  0
  8  4  1  0  0  0  0
 11 12  2  0  0  0  0
 11 16  1  0  0  0  0
 12 13  1  0  0  0  0
 13 19  1  0  0  0  0
 13 14  2  0  0  0  0
 15 14  1  0  0  0  0
 15  3  1  0  0  0  0
 16 15  2  0  0  0  0
 17 11  1  0  0  0  0
 18 12  1  0  0  0  0
 21 22  1  0  0  0  0
 22 23  1  0  0  0  0
 23 20  1  0  0  0  0
 23 24  2  0  0  0  0
 24 28  1  0  0  0  0
 25 24  1  0  0  0  0
 25 29  1  0  0  0  0
 26 25  2  0  0  0  0
 27 22  2  0  0  0  0
 27 26  1  0  0  0  0
 30 26  1  0  0  0  0
 31 27  1  0  0  0  0
 32 33  1  0  0  0  0
 32 31  2  0  0  0  0
 34 36  2  0  0  0  0
 34 32  1  0  0  0  0
 35 34  1  0  0  0  0
 36 38  1  0  0  0  0
 37 36  1  0  0  0  0
 38 31  1  0  0  0  0
M  END
>  <minimizedAffinity>
-5.52475977

$$$$
