
 OpenBabel03272502033D

 41 45  0  0  0  0  0  0  0  0999 V2000
   35.9280   29.3270   31.8890 C   0  0  0  0  0  0  0  0  0  0  0  0
   35.0500   28.8340   31.4770 H   0  0  0  0  0  0  0  0  0  0  0  0
   36.4860   29.9610   31.1730 H   0  0  0  0  0  0  0  0  0  0  0  0
   36.8820   28.2550   32.3510 C   0  0  0  0  0  0  0  0  0  0  0  0
   37.9650   27.7390   31.6390 C   0  0  0  0  0  0  0  0  0  0  0  0
   38.5780   26.7730   32.4240 C   0  0  0  0  0  0  0  0  0  0  0  0
   37.8540   26.7340   33.5780 N   0  0  0  0  0  0  0  0  0  0  0  0
   36.8600   27.6070   33.5280 N   0  0  0  0  0  0  0  0  0  0  0  0
   39.3310   24.9880   34.6160 N   0  0  0  0  0  0  0  0  0  0  0  0
   38.2650   25.8150   34.5810 C   0  0  0  0  0  0  0  0  0  0  0  0
   37.5830   25.6200   35.7490 N   0  0  0  0  0  0  0  0  0  0  0  0
   38.2030   24.7030   36.4860 C   0  0  0  0  0  0  0  0  0  0  0  0
   37.9020   24.1780   37.7180 C   0  0  0  0  0  0  0  0  0  0  0  0
   38.7140   23.2410   38.2480 N   0  0  0  0  0  0  0  0  0  0  0  0
   39.8060   22.8340   37.5620 C   0  0  0  0  0  0  0  0  0  0  0  0
   40.0980   23.3520   36.3480 N   0  0  0  0  0  0  0  0  0  0  0  0
   39.3060   24.2960   35.7850 C   0  0  0  0  0  0  0  0  0  0  0  0
   38.2520   28.0570   30.6460 H   0  0  0  0  0  0  0  0  0  0  0  0
   39.4400   26.2350   32.0800 H   0  0  0  0  0  0  0  0  0  0  0  0
   40.0440   24.9020   33.8720 H   0  0  0  0  0  0  0  0  0  0  0  0
   37.0370   24.4810   38.2960 H   0  0  0  0  0  0  0  0  0  0  0  0
   40.5510   22.0980   37.8430 H   0  0  0  0  0  0  0  0  0  0  0  0
   35.5270   30.0690   33.1360 C   0  0  0  0  0  0  0  0  0  0  0  0
   35.9260   29.5630   34.0590 H   0  0  0  0  0  0  0  0  0  0  0  0
   35.9040   31.0990   33.1840 H   0  0  0  0  0  0  0  0  0  0  0  0
   31.9100   30.5600   32.5540 C   0  0  0  0  0  0  0  0  0  0  0  0
   31.3500   29.9060   33.6630 C   0  0  0  0  0  0  0  0  0  0  0  0
   32.2080   29.3010   34.6000 C   0  0  0  0  0  0  0  0  0  0  0  0
   33.5400   29.3820   34.3840 N   0  0  0  0  0  0  0  0  0  0  0  0
   34.0430   30.0290   33.2940 C   0  0  0  0  0  0  0  0  0  0  0  0
   33.2330   30.5940   32.4190 N   0  0  0  0  0  0  0  0  0  0  0  0
   31.2040   31.0070   31.8680 H   0  0  0  0  0  0  0  0  0  0  0  0
   30.2840   29.8580   33.8080 H   0  0  0  0  0  0  0  0  0  0  0  0
   31.6930   28.6050   35.7720 C   0  0  0  0  0  0  0  0  0  0  0  0
   31.6760   29.1600   37.0420 C   0  0  0  0  0  0  0  0  0  0  0  0
   32.0290   30.1480   37.3230 H   0  0  0  0  0  0  0  0  0  0  0  0
   31.1260   28.2530   37.9480 C   0  0  0  0  0  0  0  0  0  0  0  0
   30.9880   28.4230   39.0190 H   0  0  0  0  0  0  0  0  0  0  0  0
   30.8330   27.1670   37.1480 C   0  0  0  0  0  0  0  0  0  0  0  0
   30.3840   26.2520   37.5170 H   0  0  0  0  0  0  0  0  0  0  0  0
   31.1770   27.4260   35.9270 O   0  0  0  0  0  0  0  0  0  0  0  0
  1  4  1  0  0  0  0
  1 23  1  0  0  0  0
  2  1  1  0  0  0  0
  3  1  1  0  0  0  0
  4  8  2  0  0  0  0
  5  4  1  0  0  0  0
  5  6  2  0  0  0  0
  6  7  1  0  0  0  0
  7 10  1  0  0  0  0
  8  7  1  0  0  0  0
  9 17  1  0  0  0  0
 10  9  1  0  0  0  0
 10 11  2  0  0  0  0
 11 12  1  0  0  0  0
 12 13  1  0  0  0  0
 13 14  2  0  0  0  0
 13 21  1  0  0  0  0
 15 22  1  0  0  0  0
 15 14  1  0  0  0  0
 16 15  2  0  0  0  0
 17 16  1  0  0  0  0
 17 12  2  0  0  0  0
 18  5  1  0  0  0  0
 19  6  1  0  0  0  0
 20  9  1  0  0  0  0
 23 25  1  0  0  0  0
 23 30  1  0  0  0  0
 23 24  1  0  0  0  0
 26 27  1  0  0  0  0
 27 33  1  0  0  0  0
 27 28  2  0  0  0  0
 28 34  1  0  0  0  0
 29 28  1  0  0  0  0
 30 29  2  0  0  0  0
 31 26  2  0  0  0  0
 31 30  1  0  0  0  0
 32 26  1  0  0  0  0
 34 41  1  0  0  0  0
 34 35  2  0  0  0  0
 35 36  1  0  0  0  0
 35 37  1  0  0  0  0
 37 38  1  0  0  0  0
 39 40  1  0  0  0  0
 39 37  2  0  0  0  0
 41 39  1  0  0  0  0
M  END
>  <minimizedAffinity>
-6.17905331

$$$$

 OpenBabel03272502033D

 41 45  0  0  0  0  0  0  0  0999 V2000
   37.4570   26.2870   35.0870 C   0  0  0  0  0  0  0  0  0  0  0  0
   37.7300   27.2260   35.5650 H   0  0  0  0  0  0  0  0  0  0  0  0
   36.3750   26.0600   35.0890 H   0  0  0  0  0  0  0  0  0  0  0  0
   38.1340   25.1720   35.8430 C   0  0  0  0  0  0  0  0  0  0  0  0
   37.7640   24.6630   37.0880 C   0  0  0  0  0  0  0  0  0  0  0  0
   38.6490   23.6490   37.4220 C   0  0  0  0  0  0  0  0  0  0  0  0
   39.5220   23.5740   36.3770 N   0  0  0  0  0  0  0  0  0  0  0  0
   39.2130   24.4720   35.4540 N   0  0  0  0  0  0  0  0  0  0  0  0
   40.7920   21.6570   37.3880 N   0  0  0  0  0  0  0  0  0  0  0  0
   40.5560   22.6010   36.4540 C   0  0  0  0  0  0  0  0  0  0  0  0
   41.5400   22.4740   35.5150 N   0  0  0  0  0  0  0  0  0  0  0  0
   42.3610   21.4850   35.8530 C   0  0  0  0  0  0  0  0  0  0  0  0
   43.4810   20.9880   35.2350 C   0  0  0  0  0  0  0  0  0  0  0  0
   44.1420   19.9590   35.8030 N   0  0  0  0  0  0  0  0  0  0  0  0
   43.6950   19.4360   36.9670 C   0  0  0  0  0  0  0  0  0  0  0  0
   42.5920   19.9280   37.5740 N   0  0  0  0  0  0  0  0  0  0  0  0
   41.9020   20.9600   37.0310 C   0  0  0  0  0  0  0  0  0  0  0  0
   36.9240   25.0210   37.6700 H   0  0  0  0  0  0  0  0  0  0  0  0
   38.5600   23.1070   38.3440 H   0  0  0  0  0  0  0  0  0  0  0  0
   40.2180   21.4970   38.2330 H   0  0  0  0  0  0  0  0  0  0  0  0
   43.8670   21.3810   34.3030 H   0  0  0  0  0  0  0  0  0  0  0  0
   44.1060   18.6180   37.5480 H   0  0  0  0  0  0  0  0  0  0  0  0
   38.0580   26.2540   33.7060 C   0  0  0  0  0  0  0  0  0  0  0  0
   38.2690   27.2930   33.3270 H   0  0  0  0  0  0  0  0  0  0  0  0
   39.0180   25.7240   33.6490 H   0  0  0  0  0  0  0  0  0  0  0  0
   35.4440   25.9710   31.1090 C   0  0  0  0  0  0  0  0  0  0  0  0
   35.2970   24.5790   31.0000 C   0  0  0  0  0  0  0  0  0  0  0  0
   36.0900   23.7470   31.8120 C   0  0  0  0  0  0  0  0  0  0  0  0
   36.9600   24.3350   32.6630 N   0  0  0  0  0  0  0  0  0  0  0  0
   37.0710   25.6920   32.7380 C   0  0  0  0  0  0  0  0  0  0  0  0
   36.3240   26.4670   31.9740 N   0  0  0  0  0  0  0  0  0  0  0  0
   34.8090   26.5610   30.4610 H   0  0  0  0  0  0  0  0  0  0  0  0
   34.5950   24.1390   30.3120 H   0  0  0  0  0  0  0  0  0  0  0  0
   35.9900   22.2940   31.7490 C   0  0  0  0  0  0  0  0  0  0  0  0
   35.7760   21.4960   32.8620 C   0  0  0  0  0  0  0  0  0  0  0  0
   35.6600   21.8320   33.8890 H   0  0  0  0  0  0  0  0  0  0  0  0
   35.7280   20.1550   32.4810 C   0  0  0  0  0  0  0  0  0  0  0  0
   35.5710   19.3060   33.1500 H   0  0  0  0  0  0  0  0  0  0  0  0
   35.9200   20.2220   31.1150 C   0  0  0  0  0  0  0  0  0  0  0  0
   35.9440   19.3520   30.4680 H   0  0  0  0  0  0  0  0  0  0  0  0
   36.0630   21.4590   30.7610 O   0  0  0  0  0  0  0  0  0  0  0  0
  1  3  1  0  0  0  0
  1  2  1  0  0  0  0
  1  4  1  0  0  0  0
  4  5  1  0  0  0  0
  5  6  2  0  0  0  0
  5 18  1  0  0  0  0
  6 19  1  0  0  0  0
  7 10  1  0  0  0  0
  7  6  1  0  0  0  0
  8  4  2  0  0  0  0
  8  7  1  0  0  0  0
  9 20  1  0  0  0  0
 10  9  1  0  0  0  0
 11 12  1  0  0  0  0
 11 10  2  0  0  0  0
 12 17  1  0  0  0  0
 13 14  1  0  0  0  0
 13 12  2  0  0  0  0
 14 15  2  0  0  0  0
 15 22  1  0  0  0  0
 15 16  1  0  0  0  0
 17  9  1  0  0  0  0
 17 16  2  0  0  0  0
 21 13  1  0  0  0  0
 23  1  1  0  0  0  0
 24 23  1  0  0  0  0
 25 23  1  0  0  0  0
 26 31  1  0  0  0  0
 27 26  2  0  0  0  0
 27 28  1  0  0  0  0
 28 29  2  0  0  0  0
 29 30  1  0  0  0  0
 30 23  1  0  0  0  0
 31 30  2  0  0  0  0
 32 26  1  0  0  0  0
 33 27  1  0  0  0  0
 34 28  1  0  0  0  0
 34 35  2  0  0  0  0
 35 36  1  0  0  0  0
 37 35  1  0  0  0  0
 37 38  1  0  0  0  0
 39 37  2  0  0  0  0
 40 39  1  0  0  0  0
 41 39  1  0  0  0  0
 41 34  1  0  0  0  0
M  END
>  <minimizedAffinity>
-6.13971615

$$$$

 OpenBabel03272502033D

 41 45  0  0  0  0  0  0  0  0999 V2000
   35.5610   28.7110   31.8260 C   0  0  0  0  0  0  0  0  0  0  0  0
   35.2140   29.2650   32.6960 H   0  0  0  0  0  0  0  0  0  0  0  0
   34.7780   28.1330   31.3000 H   0  0  0  0  0  0  0  0  0  0  0  0
   36.5910   27.7160   32.2950 C   0  0  0  0  0  0  0  0  0  0  0  0
   37.6560   27.2050   31.5540 C   0  0  0  0  0  0  0  0  0  0  0  0
   38.3590   26.3210   32.3590 C   0  0  0  0  0  0  0  0  0  0  0  0
   37.7050   26.3250   33.5550 N   0  0  0  0  0  0  0  0  0  0  0  0
   36.6680   27.1460   33.5100 N   0  0  0  0  0  0  0  0  0  0  0  0
   39.3240   24.7190   34.6090 N   0  0  0  0  0  0  0  0  0  0  0  0
   38.2190   25.4920   34.5870 C   0  0  0  0  0  0  0  0  0  0  0  0
   37.6150   25.3420   35.8030 N   0  0  0  0  0  0  0  0  0  0  0  0
   38.3200   24.5050   36.5570 C   0  0  0  0  0  0  0  0  0  0  0  0
   38.1160   24.0480   37.8350 C   0  0  0  0  0  0  0  0  0  0  0  0
   39.0030   23.1860   38.3730 N   0  0  0  0  0  0  0  0  0  0  0  0
   40.0720   22.7850   37.6490 C   0  0  0  0  0  0  0  0  0  0  0  0
   40.2690   23.2360   36.3900 N   0  0  0  0  0  0  0  0  0  0  0  0
   39.4000   24.1040   35.8180 C   0  0  0  0  0  0  0  0  0  0  0  0
   37.8700   27.4710   30.5270 H   0  0  0  0  0  0  0  0  0  0  0  0
   39.2260   25.8020   31.9980 H   0  0  0  0  0  0  0  0  0  0  0  0
   39.9960   24.6170   33.8300 H   0  0  0  0  0  0  0  0  0  0  0  0
   37.2720   24.3480   38.4440 H   0  0  0  0  0  0  0  0  0  0  0  0
   40.8680   22.1040   37.9300 H   0  0  0  0  0  0  0  0  0  0  0  0
   36.3020   29.6540   30.9150 C   0  0  0  0  0  0  0  0  0  0  0  0
   37.3640   29.3190   30.7560 H   0  0  0  0  0  0  0  0  0  0  0  0
   35.8700   29.7350   29.9080 H   0  0  0  0  0  0  0  0  0  0  0  0
   37.1710   33.1880   31.5560 C   0  0  0  0  0  0  0  0  0  0  0  0
   36.5870   33.4040   32.8140 C   0  0  0  0  0  0  0  0  0  0  0  0
   35.9000   32.3430   33.4350 C   0  0  0  0  0  0  0  0  0  0  0  0
   35.8380   31.1610   32.7830 N   0  0  0  0  0  0  0  0  0  0  0  0
   36.4210   30.9940   31.5610 C   0  0  0  0  0  0  0  0  0  0  0  0
   37.0630   31.9920   30.9850 N   0  0  0  0  0  0  0  0  0  0  0  0
   37.6860   34.0370   31.1270 H   0  0  0  0  0  0  0  0  0  0  0  0
   36.6530   34.3570   33.3100 H   0  0  0  0  0  0  0  0  0  0  0  0
   35.2700   32.4990   34.7400 C   0  0  0  0  0  0  0  0  0  0  0  0
   35.6820   31.8130   35.8720 C   0  0  0  0  0  0  0  0  0  0  0  0
   36.4960   31.0970   35.9360 H   0  0  0  0  0  0  0  0  0  0  0  0
   34.8860   32.1740   36.9600 C   0  0  0  0  0  0  0  0  0  0  0  0
   34.9850   31.7900   37.9780 H   0  0  0  0  0  0  0  0  0  0  0  0
   34.0110   33.0870   36.4050 C   0  0  0  0  0  0  0  0  0  0  0  0
   33.2310   33.5890   36.9660 H   0  0  0  0  0  0  0  0  0  0  0  0
   34.2780   33.2280   35.1460 O   0  0  0  0  0  0  0  0  0  0  0  0
  1  4  1  0  0  0  0
  1  2  1  0  0  0  0
  3  1  1  0  0  0  0
  4  8  2  0  0  0  0
  5  4  1  0  0  0  0
  5  6  2  0  0  0  0
  6  7  1  0  0  0  0
  7 10  1  0  0  0  0
  8  7  1  0  0  0  0
  9 17  1  0  0  0  0
 10  9  1  0  0  0  0
 10 11  2  0  0  0  0
 11 12  1  0  0  0  0
 12 13  1  0  0  0  0
 13 14  2  0  0  0  0
 13 21  1  0  0  0  0
 15 22  1  0  0  0  0
 15 14  1  0  0  0  0
 16 15  2  0  0  0  0
 17 16  1  0  0  0  0
 17 12  2  0  0  0  0
 18  5  1  0  0  0  0
 19  6  1  0  0  0  0
 20  9  1  0  0  0  0
 23 30  1  0  0  0  0
 23  1  1  0  0  0  0
 24 23  1  0  0  0  0
 25 23  1  0  0  0  0
 26 27  1  0  0  0  0
 27 33  1  0  0  0  0
 27 28  2  0  0  0  0
 28 34  1  0  0  0  0
 29 28  1  0  0  0  0
 30 29  2  0  0  0  0
 31 26  2  0  0  0  0
 31 30  1  0  0  0  0
 32 26  1  0  0  0  0
 34 41  1  0  0  0  0
 34 35  2  0  0  0  0
 35 36  1  0  0  0  0
 35 37  1  0  0  0  0
 37 38  1  0  0  0  0
 39 37  2  0  0  0  0
 39 40  1  0  0  0  0
 41 39  1  0  0  0  0
M  END
>  <minimizedAffinity>
-5.99772978

$$$$

 OpenBabel03272502033D

 41 45  0  0  0  0  0  0  0  0999 V2000
   35.0980   29.9920   33.3190 C   0  0  0  0  0  0  0  0  0  0  0  0
   35.2010   30.4900   32.3560 H   0  0  0  0  0  0  0  0  0  0  0  0
   35.3490   30.6180   34.1960 H   0  0  0  0  0  0  0  0  0  0  0  0
   36.0470   28.8220   33.3370 C   0  0  0  0  0  0  0  0  0  0  0  0
   36.8020   28.3430   32.2650 C   0  0  0  0  0  0  0  0  0  0  0  0
   37.5390   27.2550   32.7070 C   0  0  0  0  0  0  0  0  0  0  0  0
   37.2130   27.1090   34.0230 N   0  0  0  0  0  0  0  0  0  0  0  0
   36.3370   28.0320   34.3850 N   0  0  0  0  0  0  0  0  0  0  0  0
   38.7770   25.1700   34.3440 N   0  0  0  0  0  0  0  0  0  0  0  0
   37.8330   26.0490   34.7400 C   0  0  0  0  0  0  0  0  0  0  0  0
   37.5370   25.7440   36.0380 N   0  0  0  0  0  0  0  0  0  0  0  0
   38.2710   24.7110   36.4380 C   0  0  0  0  0  0  0  0  0  0  0  0
   38.3250   24.0510   37.6400 C   0  0  0  0  0  0  0  0  0  0  0  0
   39.1740   23.0130   37.7810 N   0  0  0  0  0  0  0  0  0  0  0  0
   39.9540   22.6380   36.7420 C   0  0  0  0  0  0  0  0  0  0  0  0
   39.8970   23.2890   35.5590 N   0  0  0  0  0  0  0  0  0  0  0  0
   39.0570   24.3370   35.3810 C   0  0  0  0  0  0  0  0  0  0  0  0
   36.7900   28.7690   31.2710 H   0  0  0  0  0  0  0  0  0  0  0  0
   38.1980   26.7190   32.0510 H   0  0  0  0  0  0  0  0  0  0  0  0
   39.2100   25.1410   33.4060 H   0  0  0  0  0  0  0  0  0  0  0  0
   37.7160   24.3240   38.4940 H   0  0  0  0  0  0  0  0  0  0  0  0
   40.6800   21.8350   36.6910 H   0  0  0  0  0  0  0  0  0  0  0  0
   33.7200   29.3910   33.4070 C   0  0  0  0  0  0  0  0  0  0  0  0
   33.0260   29.8450   32.6470 H   0  0  0  0  0  0  0  0  0  0  0  0
   33.6920   28.3090   33.2150 H   0  0  0  0  0  0  0  0  0  0  0  0
   31.7990   29.1500   36.5550 C   0  0  0  0  0  0  0  0  0  0  0  0
   32.0270   30.4110   37.1280 C   0  0  0  0  0  0  0  0  0  0  0  0
   32.8350   31.3340   36.4370 C   0  0  0  0  0  0  0  0  0  0  0  0
   33.3540   30.9570   35.2480 N   0  0  0  0  0  0  0  0  0  0  0  0
   33.1060   29.7210   34.7260 C   0  0  0  0  0  0  0  0  0  0  0  0
   32.3470   28.8600   35.3790 N   0  0  0  0  0  0  0  0  0  0  0  0
   31.1700   28.4820   37.1290 H   0  0  0  0  0  0  0  0  0  0  0  0
   31.6000   30.6840   38.0770 H   0  0  0  0  0  0  0  0  0  0  0  0
   33.1140   32.6600   36.9750 C   0  0  0  0  0  0  0  0  0  0  0  0
   34.3960   33.1480   37.1760 C   0  0  0  0  0  0  0  0  0  0  0  0
   35.3270   32.6290   36.9680 H   0  0  0  0  0  0  0  0  0  0  0  0
   34.3340   34.4400   37.6980 C   0  0  0  0  0  0  0  0  0  0  0  0
   35.1920   35.0670   37.9540 H   0  0  0  0  0  0  0  0  0  0  0  0
   32.9750   34.6660   37.7860 C   0  0  0  0  0  0  0  0  0  0  0  0
   32.5420   35.5880   38.1570 H   0  0  0  0  0  0  0  0  0  0  0  0
   32.3370   33.6230   37.3620 O   0  0  0  0  0  0  0  0  0  0  0  0
  1  4  1  0  0  0  0
  1 23  1  0  0  0  0
  1  3  1  0  0  0  0
  2  1  1  0  0  0  0
  4  8  2  0  0  0  0
  5  6  2  0  0  0  0
  5  4  1  0  0  0  0
  6  7  1  0  0  0  0
  7  8  1  0  0  0  0
  7 10  1  0  0  0  0
  9 10  1  0  0  0  0
  9 17  1  0  0  0  0
 10 11  2  0  0  0  0
 11 12  1  0  0  0  0
 12 13  1  0  0  0  0
 13 14  2  0  0  0  0
 13 21  1  0  0  0  0
 15 14  1  0  0  0  0
 16 15  2  0  0  0  0
 17 16  1  0  0  0  0
 17 12  2  0  0  0  0
 18  5  1  0  0  0  0
 19  6  1  0  0  0  0
 20  9  1  0  0  0  0
 22 15  1  0  0  0  0
 23 30  1  0  0  0  0
 24 23  1  0  0  0  0
 25 23  1  0  0  0  0
 26 27  1  0  0  0  0
 26 32  1  0  0  0  0
 27 33  1  0  0  0  0
 28 34  1  0  0  0  0
 28 27  2  0  0  0  0
 29 28  1  0  0  0  0
 30 29  2  0  0  0  0
 30 31  1  0  0  0  0
 31 26  2  0  0  0  0
 34 35  2  0  0  0  0
 34 41  1  0  0  0  0
 35 37  1  0  0  0  0
 36 35  1  0  0  0  0
 37 39  2  0  0  0  0
 37 38  1  0  0  0  0
 39 40  1  0  0  0  0
 41 39  1  0  0  0  0
M  END
>  <minimizedAffinity>
-5.94278431

$$$$

 OpenBabel03272502033D

 41 45  0  0  0  0  0  0  0  0999 V2000
   35.7660   29.4530   32.3220 C   0  0  0  0  0  0  0  0  0  0  0  0
   35.3600   29.2610   31.3310 H   0  0  0  0  0  0  0  0  0  0  0  0
   36.3550   30.3840   32.4130 H   0  0  0  0  0  0  0  0  0  0  0  0
   36.6970   28.3170   32.6650 C   0  0  0  0  0  0  0  0  0  0  0  0
   37.6440   27.7320   31.8250 C   0  0  0  0  0  0  0  0  0  0  0  0
   38.2840   26.7250   32.5310 C   0  0  0  0  0  0  0  0  0  0  0  0
   37.7120   26.7310   33.7680 N   0  0  0  0  0  0  0  0  0  0  0  0
   36.7800   27.6690   33.8390 N   0  0  0  0  0  0  0  0  0  0  0  0
   39.1880   24.8860   34.6190 N   0  0  0  0  0  0  0  0  0  0  0  0
   38.1850   25.7820   34.7160 C   0  0  0  0  0  0  0  0  0  0  0  0
   37.6450   25.6300   35.9610 N   0  0  0  0  0  0  0  0  0  0  0  0
   38.2910   24.6720   36.6190 C   0  0  0  0  0  0  0  0  0  0  0  0
   38.1140   24.1640   37.8820 C   0  0  0  0  0  0  0  0  0  0  0  0
   38.9220   23.1740   38.3100 N   0  0  0  0  0  0  0  0  0  0  0  0
   39.8880   22.6950   37.4930 C   0  0  0  0  0  0  0  0  0  0  0  0
   40.0580   23.1970   36.2490 N   0  0  0  0  0  0  0  0  0  0  0  0
   39.2660   24.1930   35.7860 C   0  0  0  0  0  0  0  0  0  0  0  0
   37.8230   28.0330   30.8010 H   0  0  0  0  0  0  0  0  0  0  0  0
   39.0580   26.1310   32.0830 H   0  0  0  0  0  0  0  0  0  0  0  0
   39.7940   24.7550   33.7920 H   0  0  0  0  0  0  0  0  0  0  0  0
   37.3520   24.5230   38.5630 H   0  0  0  0  0  0  0  0  0  0  0  0
   40.6110   21.9110   37.6810 H   0  0  0  0  0  0  0  0  0  0  0  0
   34.6470   29.3690   33.3270 C   0  0  0  0  0  0  0  0  0  0  0  0
   33.6480   29.5520   32.8430 H   0  0  0  0  0  0  0  0  0  0  0  0
   34.5570   28.3890   33.8150 H   0  0  0  0  0  0  0  0  0  0  0  0
   34.1480   31.4930   36.3100 C   0  0  0  0  0  0  0  0  0  0  0  0
   35.1100   32.4970   36.1120 C   0  0  0  0  0  0  0  0  0  0  0  0
   35.9220   32.4410   34.9640 C   0  0  0  0  0  0  0  0  0  0  0  0
   35.7330   31.4180   34.1020 N   0  0  0  0  0  0  0  0  0  0  0  0
   34.7860   30.4630   34.3320 C   0  0  0  0  0  0  0  0  0  0  0  0
   34.0280   30.5210   35.4110 N   0  0  0  0  0  0  0  0  0  0  0  0
   33.5520   31.5860   37.2080 H   0  0  0  0  0  0  0  0  0  0  0  0
   35.2380   33.3010   36.8160 H   0  0  0  0  0  0  0  0  0  0  0  0
   36.9410   33.4500   34.6970 C   0  0  0  0  0  0  0  0  0  0  0  0
   37.1890   33.9670   33.4350 C   0  0  0  0  0  0  0  0  0  0  0  0
   36.6790   33.7020   32.5140 H   0  0  0  0  0  0  0  0  0  0  0  0
   38.2170   34.9080   33.5040 C   0  0  0  0  0  0  0  0  0  0  0  0
   38.6200   35.4760   32.6610 H   0  0  0  0  0  0  0  0  0  0  0  0
   38.5410   34.9050   34.8460 C   0  0  0  0  0  0  0  0  0  0  0  0
   39.3160   35.5280   35.2780 H   0  0  0  0  0  0  0  0  0  0  0  0
   37.7850   34.0600   35.4690 O   0  0  0  0  0  0  0  0  0  0  0  0
  1  3  1  0  0  0  0
  1  4  1  0  0  0  0
  1 23  1  0  0  0  0
  2  1  1  0  0  0  0
  4  8  2  0  0  0  0
  5  6  2  0  0  0  0
  5  4  1  0  0  0  0
  6  7  1  0  0  0  0
  7  8  1  0  0  0  0
  7 10  1  0  0  0  0
  9 10  1  0  0  0  0
  9 17  1  0  0  0  0
 10 11  2  0  0  0  0
 11 12  1  0  0  0  0
 12 13  1  0  0  0  0
 13 14  2  0  0  0  0
 13 21  1  0  0  0  0
 15 22  1  0  0  0  0
 15 14  1  0  0  0  0
 16 15  2  0  0  0  0
 17 16  1  0  0  0  0
 17 12  2  0  0  0  0
 18  5  1  0  0  0  0
 19  6  1  0  0  0  0
 20  9  1  0  0  0  0
 23 25  1  0  0  0  0
 23 30  1  0  0  0  0
 24 23  1  0  0  0  0
 26 32  1  0  0  0  0
 27 26  1  0  0  0  0
 27 33  1  0  0  0  0
 28 27  2  0  0  0  0
 29 30  2  0  0  0  0
 29 28  1  0  0  0  0
 30 31  1  0  0  0  0
 31 26  2  0  0  0  0
 34 28  1  0  0  0  0
 34 41  1  0  0  0  0
 35 37  1  0  0  0  0
 35 34  2  0  0  0  0
 36 35  1  0  0  0  0
 37 39  2  0  0  0  0
 38 37  1  0  0  0  0
 39 40  1  0  0  0  0
 39 41  1  0  0  0  0
M  END
>  <minimizedAffinity>
-5.90122175

$$$$

 OpenBabel03272502033D

 41 45  0  0  0  0  0  0  0  0999 V2000
   37.7990   25.5780   33.8930 C   0  0  0  0  0  0  0  0  0  0  0  0
   38.3080   25.2730   32.9800 H   0  0  0  0  0  0  0  0  0  0  0  0
   37.0650   24.8480   34.2830 H   0  0  0  0  0  0  0  0  0  0  0  0
   37.0320   26.8410   33.5910 C   0  0  0  0  0  0  0  0  0  0  0  0
   36.4390   27.1870   32.3770 C   0  0  0  0  0  0  0  0  0  0  0  0
   35.8380   28.4280   32.5270 C   0  0  0  0  0  0  0  0  0  0  0  0
   36.0830   28.7930   33.8170 N   0  0  0  0  0  0  0  0  0  0  0  0
   36.7850   27.8570   34.4360 N   0  0  0  0  0  0  0  0  0  0  0  0
   34.8010   30.9430   33.6040 N   0  0  0  0  0  0  0  0  0  0  0  0
   35.5730   30.0470   34.2530 C   0  0  0  0  0  0  0  0  0  0  0  0
   35.8130   30.5670   35.4930 N   0  0  0  0  0  0  0  0  0  0  0  0
   35.2110   31.7450   35.6130 C   0  0  0  0  0  0  0  0  0  0  0  0
   35.1640   32.6360   36.6570 C   0  0  0  0  0  0  0  0  0  0  0  0
   34.4690   33.7820   36.5110 N   0  0  0  0  0  0  0  0  0  0  0  0
   33.8320   34.0370   35.3460 C   0  0  0  0  0  0  0  0  0  0  0  0
   33.8810   33.1580   34.3190 N   0  0  0  0  0  0  0  0  0  0  0  0
   34.5690   31.9960   34.4300 C   0  0  0  0  0  0  0  0  0  0  0  0
   36.4620   26.5710   31.4870 H   0  0  0  0  0  0  0  0  0  0  0  0
   35.3160   28.9000   31.7170 H   0  0  0  0  0  0  0  0  0  0  0  0
   34.4480   30.8370   32.6380 H   0  0  0  0  0  0  0  0  0  0  0  0
   35.6610   32.4650   37.6040 H   0  0  0  0  0  0  0  0  0  0  0  0
   33.2380   34.9000   35.0700 H   0  0  0  0  0  0  0  0  0  0  0  0
   38.8310   25.9730   34.9150 C   0  0  0  0  0  0  0  0  0  0  0  0
   39.8680   25.9630   34.4750 H   0  0  0  0  0  0  0  0  0  0  0  0
   38.6980   26.9860   35.3170 H   0  0  0  0  0  0  0  0  0  0  0  0
   38.0240   24.0460   37.9630 C   0  0  0  0  0  0  0  0  0  0  0  0
   39.0320   23.0690   37.9610 C   0  0  0  0  0  0  0  0  0  0  0  0
   39.9800   23.0740   36.9200 C   0  0  0  0  0  0  0  0  0  0  0  0
   39.8710   24.0270   35.9680 N   0  0  0  0  0  0  0  0  0  0  0  0
   38.8750   24.9580   36.0080 C   0  0  0  0  0  0  0  0  0  0  0  0
   37.9900   24.9480   36.9870 N   0  0  0  0  0  0  0  0  0  0  0  0
   37.3240   23.9940   38.7870 H   0  0  0  0  0  0  0  0  0  0  0  0
   39.0950   22.3220   38.7340 H   0  0  0  0  0  0  0  0  0  0  0  0
   41.0520   22.0890   36.8560 C   0  0  0  0  0  0  0  0  0  0  0  0
   41.7820   21.8290   35.7060 C   0  0  0  0  0  0  0  0  0  0  0  0
   41.6580   22.3060   34.7380 H   0  0  0  0  0  0  0  0  0  0  0  0
   42.7320   20.8410   35.9620 C   0  0  0  0  0  0  0  0  0  0  0  0
   43.4460   20.4390   35.2380 H   0  0  0  0  0  0  0  0  0  0  0  0
   42.5160   20.5500   37.2940 C   0  0  0  0  0  0  0  0  0  0  0  0
   43.0830   19.8110   37.8480 H   0  0  0  0  0  0  0  0  0  0  0  0
   41.5530   21.2880   37.7450 O   0  0  0  0  0  0  0  0  0  0  0  0
  1  3  1  0  0  0  0
  1 23  1  0  0  0  0
  2  1  1  0  0  0  0
  4  1  1  0  0  0  0
  4  8  2  0  0  0  0
  5  6  2  0  0  0  0
  5  4  1  0  0  0  0
  6  7  1  0  0  0  0
  7 10  1  0  0  0  0
  7  8  1  0  0  0  0
  9 10  1  0  0  0  0
  9 17  1  0  0  0  0
 10 11  2  0  0  0  0
 11 12  1  0  0  0  0
 12 13  1  0  0  0  0
 13 21  1  0  0  0  0
 14 13  2  0  0  0  0
 15 14  1  0  0  0  0
 16 17  1  0  0  0  0
 16 15  2  0  0  0  0
 17 12  2  0  0  0  0
 18  5  1  0  0  0  0
 19  6  1  0  0  0  0
 20  9  1  0  0  0  0
 22 15  1  0  0  0  0
 23 25  1  0  0  0  0
 23 30  1  0  0  0  0
 24 23  1  0  0  0  0
 26 32  1  0  0  0  0
 27 26  1  0  0  0  0
 27 33  1  0  0  0  0
 28 27  2  0  0  0  0
 29 30  2  0  0  0  0
 29 28  1  0  0  0  0
 30 31  1  0  0  0  0
 31 26  2  0  0  0  0
 34 28  1  0  0  0  0
 34 41  1  0  0  0  0
 35 37  1  0  0  0  0
 35 34  2  0  0  0  0
 36 35  1  0  0  0  0
 37 39  2  0  0  0  0
 38 37  1  0  0  0  0
 39 41  1  0  0  0  0
 39 40  1  0  0  0  0
M  END
>  <minimizedAffinity>
-5.83878326

$$$$

 OpenBabel03272502033D

 41 45  0  0  0  0  0  0  0  0999 V2000
   38.4680   27.1310   35.3920 C   0  0  0  0  0  0  0  0  0  0  0  0
   38.0330   27.0560   36.3870 H   0  0  0  0  0  0  0  0  0  0  0  0
   39.3450   27.8010   35.3150 H   0  0  0  0  0  0  0  0  0  0  0  0
   37.4150   27.6900   34.4700 C   0  0  0  0  0  0  0  0  0  0  0  0
   37.3490   27.5350   33.0860 C   0  0  0  0  0  0  0  0  0  0  0  0
   36.2260   28.2070   32.6270 C   0  0  0  0  0  0  0  0  0  0  0  0
   35.6490   28.7440   33.7390 N   0  0  0  0  0  0  0  0  0  0  0  0
   36.3520   28.4360   34.8180 N   0  0  0  0  0  0  0  0  0  0  0  0
   33.7360   29.7330   32.4460 N   0  0  0  0  0  0  0  0  0  0  0  0
   34.4580   29.5010   33.5610 C   0  0  0  0  0  0  0  0  0  0  0  0
   33.8250   30.1570   34.5780 N   0  0  0  0  0  0  0  0  0  0  0  0
   32.7440   30.7760   34.1120 C   0  0  0  0  0  0  0  0  0  0  0  0
   31.8040   31.5520   34.7420 C   0  0  0  0  0  0  0  0  0  0  0  0
   30.7900   32.0690   34.0200 N   0  0  0  0  0  0  0  0  0  0  0  0
   30.7150   31.8190   32.6930 C   0  0  0  0  0  0  0  0  0  0  0  0
   31.6430   31.0550   32.0760 N   0  0  0  0  0  0  0  0  0  0  0  0
   32.6760   30.5180   32.7690 C   0  0  0  0  0  0  0  0  0  0  0  0
   38.0680   26.9800   32.4980 H   0  0  0  0  0  0  0  0  0  0  0  0
   35.9700   28.2270   31.5850 H   0  0  0  0  0  0  0  0  0  0  0  0
   33.9590   29.3690   31.5040 H   0  0  0  0  0  0  0  0  0  0  0  0
   31.8320   31.7730   35.8020 H   0  0  0  0  0  0  0  0  0  0  0  0
   29.9730   32.1560   31.9780 H   0  0  0  0  0  0  0  0  0  0  0  0
   38.7500   25.7420   34.8810 C   0  0  0  0  0  0  0  0  0  0  0  0
   37.8840   25.3430   34.2810 H   0  0  0  0  0  0  0  0  0  0  0  0
   39.6180   25.6800   34.2110 H   0  0  0  0  0  0  0  0  0  0  0  0
   38.1270   23.9370   38.0450 C   0  0  0  0  0  0  0  0  0  0  0  0
   39.2050   23.0390   38.0800 C   0  0  0  0  0  0  0  0  0  0  0  0
   40.1360   23.0540   37.0240 C   0  0  0  0  0  0  0  0  0  0  0  0
   39.9440   23.9400   36.0220 N   0  0  0  0  0  0  0  0  0  0  0  0
   38.8830   24.7970   36.0280 C   0  0  0  0  0  0  0  0  0  0  0  0
   38.0130   24.7780   37.0210 N   0  0  0  0  0  0  0  0  0  0  0  0
   37.4440   23.8820   38.8820 H   0  0  0  0  0  0  0  0  0  0  0  0
   39.3330   22.3430   38.8910 H   0  0  0  0  0  0  0  0  0  0  0  0
   41.2770   22.1480   36.9960 C   0  0  0  0  0  0  0  0  0  0  0  0
   42.4170   22.3800   36.2420 C   0  0  0  0  0  0  0  0  0  0  0  0
   42.6060   23.2340   35.5980 H   0  0  0  0  0  0  0  0  0  0  0  0
   43.3260   21.3380   36.4250 C   0  0  0  0  0  0  0  0  0  0  0  0
   44.3100   21.2580   35.9550 H   0  0  0  0  0  0  0  0  0  0  0  0
   42.6620   20.5090   37.3070 C   0  0  0  0  0  0  0  0  0  0  0  0
   43.0730   19.5780   37.6830 H   0  0  0  0  0  0  0  0  0  0  0  0
   41.5080   21.0200   37.5930 O   0  0  0  0  0  0  0  0  0  0  0  0
  1  2  1  0  0  0  0
  3  1  1  0  0  0  0
  4  8  2  0  0  0  0
  4  1  1  0  0  0  0
  5  4  1  0  0  0  0
  6  5  2  0  0  0  0
  6  7  1  0  0  0  0
  7  8  1  0  0  0  0
  9 17  1  0  0  0  0
  9 10  1  0  0  0  0
 10  7  1  0  0  0  0
 10 11  2  0  0  0  0
 12 11  1  0  0  0  0
 12 13  1  0  0  0  0
 13 21  1  0  0  0  0
 14 13  2  0  0  0  0
 15 14  1  0  0  0  0
 16 15  2  0  0  0  0
 16 17  1  0  0  0  0
 17 12  2  0  0  0  0
 18  5  1  0  0  0  0
 19  6  1  0  0  0  0
 20  9  1  0  0  0  0
 22 15  1  0  0  0  0
 23  1  1  0  0  0  0
 23 30  1  0  0  0  0
 24 23  1  0  0  0  0
 25 23  1  0  0  0  0
 26 27  1  0  0  0  0
 26 32  1  0  0  0  0
 27 33  1  0  0  0  0
 28 27  2  0  0  0  0
 29 30  2  0  0  0  0
 29 28  1  0  0  0  0
 30 31  1  0  0  0  0
 31 26  2  0  0  0  0
 34 28  1  0  0  0  0
 34 41  1  0  0  0  0
 35 37  1  0  0  0  0
 35 34  2  0  0  0  0
 36 35  1  0  0  0  0
 37 39  2  0  0  0  0
 38 37  1  0  0  0  0
 39 41  1  0  0  0  0
 39 40  1  0  0  0  0
M  END
>  <minimizedAffinity>
-5.80103636

$$$$

 OpenBabel03272502033D

 41 45  0  0  0  0  0  0  0  0999 V2000
   36.4660   25.9820   31.7150 C   0  0  0  0  0  0  0  0  0  0  0  0
   35.8520   25.6630   30.8750 H   0  0  0  0  0  0  0  0  0  0  0  0
   36.2070   25.5160   32.6850 H   0  0  0  0  0  0  0  0  0  0  0  0
   36.2780   27.4680   31.8850 C   0  0  0  0  0  0  0  0  0  0  0  0
   36.3710   28.4400   30.8890 C   0  0  0  0  0  0  0  0  0  0  0  0
   36.1300   29.6770   31.4680 C   0  0  0  0  0  0  0  0  0  0  0  0
   35.8990   29.4190   32.7860 N   0  0  0  0  0  0  0  0  0  0  0  0
   35.9880   28.1200   33.0240 N   0  0  0  0  0  0  0  0  0  0  0  0
   35.4730   31.8330   33.3320 N   0  0  0  0  0  0  0  0  0  0  0  0
   35.6200   30.5270   33.6330 C   0  0  0  0  0  0  0  0  0  0  0  0
   35.4490   30.4160   34.9840 N   0  0  0  0  0  0  0  0  0  0  0  0
   35.2030   31.6130   35.5060 C   0  0  0  0  0  0  0  0  0  0  0  0
   34.9680   32.0040   36.8010 C   0  0  0  0  0  0  0  0  0  0  0  0
   34.7440   33.3080   37.0630 N   0  0  0  0  0  0  0  0  0  0  0  0
   34.7540   34.2060   36.0520 C   0  0  0  0  0  0  0  0  0  0  0  0
   34.9860   33.8180   34.7780 N   0  0  0  0  0  0  0  0  0  0  0  0
   35.2150   32.5160   34.4780 C   0  0  0  0  0  0  0  0  0  0  0  0
   36.5960   28.2330   29.8510 H   0  0  0  0  0  0  0  0  0  0  0  0
   36.1490   30.5800   30.8890 H   0  0  0  0  0  0  0  0  0  0  0  0
   35.5450   32.2390   32.3840 H   0  0  0  0  0  0  0  0  0  0  0  0
   34.9520   31.3130   37.6350 H   0  0  0  0  0  0  0  0  0  0  0  0
   34.5940   35.2770   36.0920 H   0  0  0  0  0  0  0  0  0  0  0  0
   37.9160   25.8020   31.3500 C   0  0  0  0  0  0  0  0  0  0  0  0
   38.1360   24.7360   31.0590 H   0  0  0  0  0  0  0  0  0  0  0  0
   38.2390   26.4070   30.4920 H   0  0  0  0  0  0  0  0  0  0  0  0
   40.4890   27.1990   33.6040 C   0  0  0  0  0  0  0  0  0  0  0  0
   40.2930   26.4420   34.7690 C   0  0  0  0  0  0  0  0  0  0  0  0
   39.2840   25.4610   34.7780 C   0  0  0  0  0  0  0  0  0  0  0  0
   38.5500   25.2950   33.6560 N   0  0  0  0  0  0  0  0  0  0  0  0
   38.7750   26.0530   32.5440 C   0  0  0  0  0  0  0  0  0  0  0  0
   39.7230   26.9710   32.5420 N   0  0  0  0  0  0  0  0  0  0  0  0
   41.2780   27.9380   33.6530 H   0  0  0  0  0  0  0  0  0  0  0  0
   40.8930   26.5960   35.6490 H   0  0  0  0  0  0  0  0  0  0  0  0
   39.0250   24.6400   35.9550 C   0  0  0  0  0  0  0  0  0  0  0  0
   38.0090   24.9030   36.8600 C   0  0  0  0  0  0  0  0  0  0  0  0
   37.2980   25.7230   36.8170 H   0  0  0  0  0  0  0  0  0  0  0  0
   38.0170   23.9430   37.8730 C   0  0  0  0  0  0  0  0  0  0  0  0
   37.3270   23.9030   38.7200 H   0  0  0  0  0  0  0  0  0  0  0  0
   39.0710   23.1290   37.5090 C   0  0  0  0  0  0  0  0  0  0  0  0
   39.3800   22.2570   38.0760 H   0  0  0  0  0  0  0  0  0  0  0  0
   39.6010   23.5740   36.4160 O   0  0  0  0  0  0  0  0  0  0  0  0
  1  4  1  0  0  0  0
  1  3  1  0  0  0  0
  2  1  1  0  0  0  0
  4  8  2  0  0  0  0
  5  6  2  0  0  0  0
  5  4  1  0  0  0  0
  6  7  1  0  0  0  0
  7  8  1  0  0  0  0
  7 10  1  0  0  0  0
  9 10  1  0  0  0  0
  9 17  1  0  0  0  0
 10 11  2  0  0  0  0
 11 12  1  0  0  0  0
 12 13  1  0  0  0  0
 13 14  2  0  0  0  0
 13 21  1  0  0  0  0
 15 22  1  0  0  0  0
 15 14  1  0  0  0  0
 16 15  2  0  0  0  0
 17 16  1  0  0  0  0
 17 12  2  0  0  0  0
 18  5  1  0  0  0  0
 19  6  1  0  0  0  0
 20  9  1  0  0  0  0
 23  1  1  0  0  0  0
 23 30  1  0  0  0  0
 24 23  1  0  0  0  0
 25 23  1  0  0  0  0
 26 32  1  0  0  0  0
 26 27  1  0  0  0  0
 27 28  2  0  0  0  0
 27 33  1  0  0  0  0
 28 34  1  0  0  0  0
 29 28  1  0  0  0  0
 30 29  2  0  0  0  0
 31 30  1  0  0  0  0
 31 26  2  0  0  0  0
 34 41  1  0  0  0  0
 34 35  2  0  0  0  0
 35 37  1  0  0  0  0
 36 35  1  0  0  0  0
 37 38  1  0  0  0  0
 39 37  2  0  0  0  0
 39 40  1  0  0  0  0
 41 39  1  0  0  0  0
M  END
>  <minimizedAffinity>
-5.76388073

$$$$

 OpenBabel03272502033D

 41 45  0  0  0  0  0  0  0  0999 V2000
   38.1180   24.1890   31.7820 C   0  0  0  0  0  0  0  0  0  0  0  0
   38.5690   24.0970   32.7690 H   0  0  0  0  0  0  0  0  0  0  0  0
   38.8320   24.3760   30.9590 H   0  0  0  0  0  0  0  0  0  0  0  0
   37.1770   25.3660   31.8150 C   0  0  0  0  0  0  0  0  0  0  0  0
   36.1760   25.6600   30.8890 C   0  0  0  0  0  0  0  0  0  0  0  0
   35.5450   26.8280   31.2900 C   0  0  0  0  0  0  0  0  0  0  0  0
   36.1760   27.2030   32.4380 N   0  0  0  0  0  0  0  0  0  0  0  0
   37.1340   26.3390   32.7400 N   0  0  0  0  0  0  0  0  0  0  0  0
   34.6970   29.2050   32.7690 N   0  0  0  0  0  0  0  0  0  0  0  0
   35.7260   28.3900   33.0780 C   0  0  0  0  0  0  0  0  0  0  0  0
   36.3220   28.9180   34.1880 N   0  0  0  0  0  0  0  0  0  0  0  0
   35.6850   30.0250   34.5580 C   0  0  0  0  0  0  0  0  0  0  0  0
   35.9100   30.8940   35.5970 C   0  0  0  0  0  0  0  0  0  0  0  0
   35.0990   31.9600   35.7470 N   0  0  0  0  0  0  0  0  0  0  0  0
   34.0830   32.1590   34.8770 C   0  0  0  0  0  0  0  0  0  0  0  0
   33.8650   31.3020   33.8540 N   0  0  0  0  0  0  0  0  0  0  0  0
   34.6590   30.2190   33.6730 C   0  0  0  0  0  0  0  0  0  0  0  0
   35.9550   25.0600   30.0160 H   0  0  0  0  0  0  0  0  0  0  0  0
   34.7360   27.2500   30.7260 H   0  0  0  0  0  0  0  0  0  0  0  0
   34.0490   29.0740   31.9740 H   0  0  0  0  0  0  0  0  0  0  0  0
   36.7120   30.7660   36.3130 H   0  0  0  0  0  0  0  0  0  0  0  0
   33.3500   32.9570   34.8570 H   0  0  0  0  0  0  0  0  0  0  0  0
   37.2460   22.9860   31.5360 C   0  0  0  0  0  0  0  0  0  0  0  0
   36.2360   23.2870   31.1400 H   0  0  0  0  0  0  0  0  0  0  0  0
   37.6500   22.2860   30.7930 H   0  0  0  0  0  0  0  0  0  0  0  0
   35.7410   20.7740   34.0850 C   0  0  0  0  0  0  0  0  0  0  0  0
   36.4980   21.0900   35.2230 C   0  0  0  0  0  0  0  0  0  0  0  0
   37.5170   22.0550   35.1140 C   0  0  0  0  0  0  0  0  0  0  0  0
   37.7160   22.6340   33.9090 N   0  0  0  0  0  0  0  0  0  0  0  0
   36.9560   22.2970   32.8270 C   0  0  0  0  0  0  0  0  0  0  0  0
   36.0020   21.3910   32.9360 N   0  0  0  0  0  0  0  0  0  0  0  0
   34.9720   20.0260   34.2270 H   0  0  0  0  0  0  0  0  0  0  0  0
   36.3170   20.6130   36.1710 H   0  0  0  0  0  0  0  0  0  0  0  0
   38.3420   22.4310   36.2560 C   0  0  0  0  0  0  0  0  0  0  0  0
   37.8620   23.1530   37.3370 C   0  0  0  0  0  0  0  0  0  0  0  0
   36.8500   23.5210   37.4750 H   0  0  0  0  0  0  0  0  0  0  0  0
   38.8860   23.3550   38.2630 C   0  0  0  0  0  0  0  0  0  0  0  0
   38.7950   23.8920   39.2110 H   0  0  0  0  0  0  0  0  0  0  0  0
   39.9600   22.7230   37.6680 C   0  0  0  0  0  0  0  0  0  0  0  0
   40.9490   22.6740   38.1100 H   0  0  0  0  0  0  0  0  0  0  0  0
   39.5900   22.2200   36.5350 O   0  0  0  0  0  0  0  0  0  0  0  0
  1  4  1  0  0  0  0
  1  2  1  0  0  0  0
  3  1  1  0  0  0  0
  4  8  2  0  0  0  0
  5  6  2  0  0  0  0
  5  4  1  0  0  0  0
  6  7  1  0  0  0  0
  7  8  1  0  0  0  0
  7 10  1  0  0  0  0
  9 10  1  0  0  0  0
  9 17  1  0  0  0  0
 10 11  2  0  0  0  0
 11 12  1  0  0  0  0
 12 13  1  0  0  0  0
 13 14  2  0  0  0  0
 13 21  1  0  0  0  0
 15 14  1  0  0  0  0
 16 15  2  0  0  0  0
 17 16  1  0  0  0  0
 17 12  2  0  0  0  0
 18  5  1  0  0  0  0
 19  6  1  0  0  0  0
 20  9  1  0  0  0  0
 22 15  1  0  0  0  0
 23  1  1  0  0  0  0
 23 30  1  0  0  0  0
 24 23  1  0  0  0  0
 25 23  1  0  0  0  0
 26 32  1  0  0  0  0
 26 27  1  0  0  0  0
 27 33  1  0  0  0  0
 28 27  2  0  0  0  0
 28 34  1  0  0  0  0
 29 28  1  0  0  0  0
 30 31  1  0  0  0  0
 30 29  2  0  0  0  0
 31 26  2  0  0  0  0
 34 41  1  0  0  0  0
 34 35  2  0  0  0  0
 35 36  1  0  0  0  0
 35 37  1  0  0  0  0
 37 38  1  0  0  0  0
 39 40  1  0  0  0  0
 39 37  2  0  0  0  0
 41 39  1  0  0  0  0
M  END
>  <minimizedAffinity>
-5.7174015

$$$$
