
 OpenBabel03272510273D

 44 48  0  0  1  0  0  0  0  0999 V2000
   36.2100   30.2600   46.5230 C   0  0  0  0  0  0  0  0  0  0  0  0
   37.1450   30.7910   47.3780 C   0  0  0  0  0  0  0  0  0  0  0  0
   38.1610   31.6400   46.9060 C   0  0  0  0  0  0  0  0  0  0  0  0
   38.1580   31.9050   45.5360 C   0  0  0  0  0  0  0  0  0  0  0  0
   39.0230   32.6930   44.8320 N   0  0  0  0  0  0  0  0  0  0  0  0
   38.6260   32.6490   43.5540 C   0  0  0  0  0  0  0  0  0  0  0  0
   37.5640   31.8740   43.4500 N   0  0  0  0  0  0  0  0  0  0  0  0
   37.2370   31.3890   44.6590 C   0  0  0  0  0  0  0  0  0  0  0  0
   36.2430   30.5470   45.1740 C   0  0  0  0  0  0  0  0  0  0  0  0
   35.4300   29.6050   46.8960 H   0  0  0  0  0  0  0  0  0  0  0  0
   38.9150   32.0760   47.5550 H   0  0  0  0  0  0  0  0  0  0  0  0
   39.8240   33.2130   45.2320 H   0  0  0  0  0  0  0  0  0  0  0  0
   35.5170   30.1410   44.4830 H   0  0  0  0  0  0  0  0  0  0  0  0
   37.7430   30.4490   51.0800 C   0  0  0  0  0  0  0  0  0  0  0  0
   37.9760   30.8470   49.7630 C   0  0  0  0  0  0  0  0  0  0  0  0
   37.0830   30.4770   48.7930 C   0  0  0  0  0  0  0  0  0  0  0  0
   35.9990   29.7240   49.1950 N   0  0  0  0  0  0  0  0  0  0  0  0
   35.7810   29.3440   50.4660 C   0  0  0  0  0  0  0  0  0  0  0  0
   36.6480   29.7060   51.3920 N   0  0  0  0  0  0  0  0  0  0  0  0
   38.4600   30.7500   51.8300 H   0  0  0  0  0  0  0  0  0  0  0  0
   38.8150   31.4320   49.4350 H   0  0  0  0  0  0  0  0  0  0  0  0
   34.9060   28.7540   50.7020 H   0  0  0  0  0  0  0  0  0  0  0  0
   39.2870   33.3480   42.5420 O   0  0  0  0  0  0  0  0  0  0  0  0
   38.4620   31.7860   41.0630 N   0  0  0  0  0  0  0  0  0  0  0  0
   38.7350   33.1960   41.2380 C   0  0  1  0  0  0  0  0  0  0  0  0
   37.5200   33.9820   41.0970 C   0  0  0  0  0  0  0  0  0  0  0  0
   37.0340   33.8280   39.7870 O   0  0  0  0  0  0  0  0  0  0  0  0
   36.8360   32.5380   39.3860 C   0  0  0  0  0  0  0  0  0  0  0  0
   38.0200   31.6520   39.6860 C   0  0  1  0  0  0  0  0  0  0  0  0
   37.7440   31.3570   41.6180 H   0  0  0  0  0  0  0  0  0  0  0  0
   39.4700   33.4610   40.4590 H   0  0  0  0  0  0  0  0  0  0  0  0
   37.8130   35.0750   41.1380 H   0  0  0  0  0  0  0  0  0  0  0  0
   36.6520   33.8820   41.6910 H   0  0  0  0  0  0  0  0  0  0  0  0
   36.6680   32.5380   38.3090 H   0  0  0  0  0  0  0  0  0  0  0  0
   35.9530   32.1200   39.9410 H   0  0  0  0  0  0  0  0  0  0  0  0
   37.7100   30.6050   39.4540 H   0  0  0  0  0  0  0  0  0  0  0  0
   39.1470   32.0870   38.8190 C   0  0  0  0  0  0  0  0  0  0  0  0
   40.2880   31.2810   38.7490 C   0  0  0  0  0  0  0  0  0  0  0  0
   40.5100   30.3430   39.2420 H   0  0  0  0  0  0  0  0  0  0  0  0
   41.1910   31.8850   37.8880 C   0  0  0  0  0  0  0  0  0  0  0  0
   42.1690   31.5060   37.6260 H   0  0  0  0  0  0  0  0  0  0  0  0
   40.5430   33.0350   37.4790 C   0  0  0  0  0  0  0  0  0  0  0  0
   40.9970   33.7340   36.7890 H   0  0  0  0  0  0  0  0  0  0  0  0
   39.3480   33.1270   38.0400 O   0  0  0  0  0  0  0  0  0  0  0  0
  1 10  1  0  0  0  0
  1  2  1  0  0  0  0
  2 16  1  0  0  0  0
  3  2  2  0  0  0  0
  3 11  1  0  0  0  0
  4  3  1  0  0  0  0
  5 12  1  0  0  0  0
  5  4  1  0  0  0  0
  6  5  1  0  0  0  0
  7  6  2  0  0  0  0
  7  8  1  0  0  0  0
  8  9  1  0  0  0  0
  8  4  2  0  0  0  0
  9  1  2  0  0  0  0
 13  9  1  0  0  0  0
 14 19  1  0  0  0  0
 14 20  1  0  0  0  0
 15 14  2  0  0  0  0
 16 17  2  0  0  0  0
 16 15  1  0  0  0  0
 17 18  1  0  0  0  0
 18 22  1  0  0  0  0
 18 19  2  0  0  0  0
 21 15  1  0  0  0  0
 23  6  1  0  0  0  0
 24 25  1  0  0  0  0
 24 30  1  0  0  0  0
 25 31  1  6  0  0  0
 25 23  1  0  0  0  0
 26 32  1  0  0  0  0
 26 25  1  0  0  0  0
 26 33  1  0  0  0  0
 27 26  1  0  0  0  0
 28 29  1  0  0  0  0
 28 27  1  0  0  0  0
 28 35  1  0  0  0  0
 29 36  1  6  0  0  0
 29 24  1  0  0  0  0
 34 28  1  0  0  0  0
 37 29  1  0  0  0  0
 38 37  2  0  0  0  0
 38 39  1  0  0  0  0
 40 38  1  0  0  0  0
 41 40  1  0  0  0  0
 42 40  2  0  0  0  0
 42 44  1  0  0  0  0
 43 42  1  0  0  0  0
 44 37  1  0  0  0  0
M  END
>  <minimizedAffinity>
-5.32832575

>  <minimizedRMSD>
0.989936709

$$$$
