
 OpenBabel03272510273D

 44 48  0  0  1  0  0  0  0  0999 V2000
   36.0070   30.0720   46.6230 C   0  0  0  0  0  0  0  0  0  0  0  0
   36.9290   30.6670   47.4490 C   0  0  0  0  0  0  0  0  0  0  0  0
   37.8910   31.5570   46.9420 C   0  0  0  0  0  0  0  0  0  0  0  0
   37.8500   31.7940   45.5670 C   0  0  0  0  0  0  0  0  0  0  0  0
   38.6610   32.6100   44.8320 N   0  0  0  0  0  0  0  0  0  0  0  0
   38.2440   32.5200   43.5630 C   0  0  0  0  0  0  0  0  0  0  0  0
   37.2220   31.6900   43.4940 N   0  0  0  0  0  0  0  0  0  0  0  0
   36.9420   31.2140   44.7180 C   0  0  0  0  0  0  0  0  0  0  0  0
   36.0020   30.3330   45.2680 C   0  0  0  0  0  0  0  0  0  0  0  0
   35.2690   29.3860   47.0240 H   0  0  0  0  0  0  0  0  0  0  0  0
   38.6330   32.0450   47.5680 H   0  0  0  0  0  0  0  0  0  0  0  0
   39.4420   33.1790   45.2070 H   0  0  0  0  0  0  0  0  0  0  0  0
   35.2860   29.8760   44.5990 H   0  0  0  0  0  0  0  0  0  0  0  0
   37.6440   30.3780   51.1350 C   0  0  0  0  0  0  0  0  0  0  0  0
   37.8410   30.7480   49.8040 C   0  0  0  0  0  0  0  0  0  0  0  0
   36.9090   30.3800   48.8720 C   0  0  0  0  0  0  0  0  0  0  0  0
   35.8240   29.6570   49.3240 N   0  0  0  0  0  0  0  0  0  0  0  0
   35.6410   29.3040   50.6070 C   0  0  0  0  0  0  0  0  0  0  0  0
   36.5460   29.6640   51.4970 N   0  0  0  0  0  0  0  0  0  0  0  0
   38.3920   30.6780   51.8560 H   0  0  0  0  0  0  0  0  0  0  0  0
   38.6810   31.3100   49.4370 H   0  0  0  0  0  0  0  0  0  0  0  0
   34.7630   28.7370   50.8830 H   0  0  0  0  0  0  0  0  0  0  0  0
   38.8500   33.2310   42.5250 O   0  0  0  0  0  0  0  0  0  0  0  0
   38.0900   31.9910   40.7370 N   0  0  0  0  0  0  0  0  0  0  0  0
   38.0930   33.3150   41.3230 C   0  0  1  0  0  0  0  0  0  0  0  0
   36.7370   33.7630   41.5960 C   0  0  0  0  0  0  0  0  0  0  0  0
   36.0410   33.8650   40.3800 O   0  0  0  0  0  0  0  0  0  0  0  0
   36.0420   32.7350   39.6120 C   0  0  0  0  0  0  0  0  0  0  0  0
   37.4200   32.1410   39.4580 C   0  0  1  0  0  0  0  0  0  0  0  0
   37.6050   31.2510   41.2100 H   0  0  0  0  0  0  0  0  0  0  0  0
   38.5840   33.9710   40.5850 H   0  0  0  0  0  0  0  0  0  0  0  0
   36.7960   34.8370   41.9510 H   0  0  0  0  0  0  0  0  0  0  0  0
   36.0450   33.2770   42.2310 H   0  0  0  0  0  0  0  0  0  0  0  0
   35.6650   32.9950   38.6220 H   0  0  0  0  0  0  0  0  0  0  0  0
   35.3950   31.9620   40.1080 H   0  0  0  0  0  0  0  0  0  0  0  0
   37.2960   31.1600   38.9410 H   0  0  0  0  0  0  0  0  0  0  0  0
   38.2340   33.0820   38.6430 C   0  0  0  0  0  0  0  0  0  0  0  0
   37.5980   33.8170   37.6360 C   0  0  0  0  0  0  0  0  0  0  0  0
   36.5600   33.8220   37.3260 H   0  0  0  0  0  0  0  0  0  0  0  0
   38.5480   34.6150   37.0200 C   0  0  0  0  0  0  0  0  0  0  0  0
   38.3690   35.3000   36.2010 H   0  0  0  0  0  0  0  0  0  0  0  0
   39.7180   34.3200   37.6920 C   0  0  0  0  0  0  0  0  0  0  0  0
   40.6590   34.7920   37.4380 H   0  0  0  0  0  0  0  0  0  0  0  0
   39.5030   33.4190   38.6370 O   0  0  0  0  0  0  0  0  0  0  0  0
  1 10  1  0  0  0  0
  1  2  1  0  0  0  0
  2 16  1  0  0  0  0
  3  2  2  0  0  0  0
  3 11  1  0  0  0  0
  4  3  1  0  0  0  0
  5 12  1  0  0  0  0
  5  4  1  0  0  0  0
  6  5  1  0  0  0  0
  7  6  2  0  0  0  0
  7  8  1  0  0  0  0
  8  9  1  0  0  0  0
  8  4  2  0  0  0  0
  9  1  2  0  0  0  0
 13  9  1  0  0  0  0
 14 19  1  0  0  0  0
 14 20  1  0  0  0  0
 15 14  2  0  0  0  0
 16 17  2  0  0  0  0
 16 15  1  0  0  0  0
 17 18  1  0  0  0  0
 18 22  1  0  0  0  0
 18 19  2  0  0  0  0
 21 15  1  0  0  0  0
 23  6  1  0  0  0  0
 24 30  1  0  0  0  0
 24 25  1  0  0  0  0
 25 31  1  6  0  0  0
 25 26  1  0  0  0  0
 25 23  1  0  0  0  0
 26 32  1  0  0  0  0
 26 33  1  0  0  0  0
 27 26  1  0  0  0  0
 28 35  1  0  0  0  0
 28 27  1  0  0  0  0
 29 36  1  6  0  0  0
 29 28  1  0  0  0  0
 29 24  1  0  0  0  0
 34 28  1  0  0  0  0
 37 29  1  0  0  0  0
 38 37  2  0  0  0  0
 39 38  1  0  0  0  0
 40 38  1  0  0  0  0
 40 42  2  0  0  0  0
 41 40  1  0  0  0  0
 42 44  1  0  0  0  0
 43 42  1  0  0  0  0
 44 37  1  0  0  0  0
M  END
>  <minimizedAffinity>
-5.18526316

>  <minimizedRMSD>
1.46246672

$$$$
