
 OpenBabel03272510273D

 44 48  0  0  1  0  0  0  0  0999 V2000
   33.8090   30.5060   44.3950 C   0  0  0  0  0  0  0  0  0  0  0  0
   34.8110   30.0120   45.1940 C   0  0  0  0  0  0  0  0  0  0  0  0
   36.1500   30.3920   44.9970 C   0  0  0  0  0  0  0  0  0  0  0  0
   36.3920   31.2880   43.9550 C   0  0  0  0  0  0  0  0  0  0  0  0
   37.5890   31.8130   43.5600 N   0  0  0  0  0  0  0  0  0  0  0  0
   37.3290   32.6230   42.5260 C   0  0  0  0  0  0  0  0  0  0  0  0
   36.0340   32.6150   42.2760 N   0  0  0  0  0  0  0  0  0  0  0  0
   35.4110   31.7970   43.1410 C   0  0  0  0  0  0  0  0  0  0  0  0
   34.0910   31.3910   43.3740 C   0  0  0  0  0  0  0  0  0  0  0  0
   32.7780   30.2070   44.5540 H   0  0  0  0  0  0  0  0  0  0  0  0
   36.9660   30.0210   45.6110 H   0  0  0  0  0  0  0  0  0  0  0  0
   38.5080   31.6080   43.9920 H   0  0  0  0  0  0  0  0  0  0  0  0
   33.3180   31.7920   42.7330 H   0  0  0  0  0  0  0  0  0  0  0  0
   34.2980   28.2630   48.4890 C   0  0  0  0  0  0  0  0  0  0  0  0
   34.6810   29.2740   47.6060 C   0  0  0  0  0  0  0  0  0  0  0  0
   34.4860   29.0880   46.2640 C   0  0  0  0  0  0  0  0  0  0  0  0
   33.9170   27.8930   45.8750 N   0  0  0  0  0  0  0  0  0  0  0  0
   33.5510   26.9240   46.7310 C   0  0  0  0  0  0  0  0  0  0  0  0
   33.7430   27.1140   48.0220 N   0  0  0  0  0  0  0  0  0  0  0  0
   34.4610   28.4300   49.5450 H   0  0  0  0  0  0  0  0  0  0  0  0
   35.1250   30.2090   47.8950 H   0  0  0  0  0  0  0  0  0  0  0  0
   33.1100   26.0140   46.3460 H   0  0  0  0  0  0  0  0  0  0  0  0
   38.3310   33.3380   41.8660 O   0  0  0  0  0  0  0  0  0  0  0  0
   37.9650   31.5900   40.4100 N   0  0  0  0  0  0  0  0  0  0  0  0
   38.7360   32.7980   40.6130 C   0  0  1  0  0  0  0  0  0  0  0  0
   38.5000   33.7500   39.5400 C   0  0  0  0  0  0  0  0  0  0  0  0
   38.9470   33.1890   38.3320 O   0  0  0  0  0  0  0  0  0  0  0  0
   38.4230   31.9640   38.0290 C   0  0  0  0  0  0  0  0  0  0  0  0
   38.4910   31.0030   39.1900 C   0  0  1  0  0  0  0  0  0  0  0  0
   36.9740   31.6630   40.2670 H   0  0  0  0  0  0  0  0  0  0  0  0
   39.7930   32.4830   40.6350 H   0  0  0  0  0  0  0  0  0  0  0  0
   39.2040   34.6240   39.6960 H   0  0  0  0  0  0  0  0  0  0  0  0
   37.5620   34.1650   39.2810 H   0  0  0  0  0  0  0  0  0  0  0  0
   38.9930   31.5450   37.1990 H   0  0  0  0  0  0  0  0  0  0  0  0
   37.3390   32.0930   37.7610 H   0  0  0  0  0  0  0  0  0  0  0  0
   37.9180   30.0920   38.8920 H   0  0  0  0  0  0  0  0  0  0  0  0
   39.9220   30.6860   39.4360 C   0  0  0  0  0  0  0  0  0  0  0  0
   40.7760   30.5480   38.3370 C   0  0  0  0  0  0  0  0  0  0  0  0
   40.5680   30.6350   37.2780 H   0  0  0  0  0  0  0  0  0  0  0  0
   42.0450   30.2550   38.8100 C   0  0  0  0  0  0  0  0  0  0  0  0
   42.9260   30.0910   38.2040 H   0  0  0  0  0  0  0  0  0  0  0  0
   41.8920   30.2320   40.1820 C   0  0  0  0  0  0  0  0  0  0  0  0
   42.7200   30.0270   40.8480 H   0  0  0  0  0  0  0  0  0  0  0  0
   40.6380   30.4880   40.5200 O   0  0  0  0  0  0  0  0  0  0  0  0
  1 10  1  0  0  0  0
  1  2  1  0  0  0  0
  2 16  1  0  0  0  0
  3  2  2  0  0  0  0
  3 11  1  0  0  0  0
  4  3  1  0  0  0  0
  5  4  1  0  0  0  0
  5 12  1  0  0  0  0
  6  5  1  0  0  0  0
  7  6  2  0  0  0  0
  7  8  1  0  0  0  0
  8  9  1  0  0  0  0
  8  4  2  0  0  0  0
  9  1  2  0  0  0  0
 13  9  1  0  0  0  0
 14 20  1  0  0  0  0
 15 21  1  0  0  0  0
 15 14  2  0  0  0  0
 16 15  1  0  0  0  0
 17 16  2  0  0  0  0
 17 18  1  0  0  0  0
 18 19  2  0  0  0  0
 19 14  1  0  0  0  0
 22 18  1  0  0  0  0
 23  6  1  0  0  0  0
 24 25  1  0  0  0  0
 25 31  1  1  0  0  0
 25 23  1  0  0  0  0
 26 32  1  0  0  0  0
 26 25  1  0  0  0  0
 27 26  1  0  0  0  0
 28 27  1  0  0  0  0
 28 29  1  0  0  0  0
 29 36  1  6  0  0  0
 29 37  1  0  0  0  0
 29 24  1  0  0  0  0
 30 24  1  0  0  0  0
 33 26  1  0  0  0  0
 34 28  1  0  0  0  0
 35 28  1  0  0  0  0
 37 44  1  0  0  0  0
 38 40  1  0  0  0  0
 38 37  2  0  0  0  0
 39 38  1  0  0  0  0
 40 42  2  0  0  0  0
 41 40  1  0  0  0  0
 42 44  1  0  0  0  0
 42 43  1  0  0  0  0
M  END
>  <minimizedAffinity>
-3.54333138

>  <minimizedRMSD>
3.26484132

$$$$
