
 OpenBabel03272510203D

 35 38  0  0  0  0  0  0  0  0999 V2000
   37.4150   29.1600   50.8070 Br  0  0  0  0  0  0  0  0  0  0  0  0
   36.0010   29.2720   49.5190 C   0  0  0  0  0  0  0  0  0  0  0  0
   36.0020   30.2730   48.5610 C   0  0  0  0  0  0  0  0  0  0  0  0
   34.9550   30.3020   47.6590 C   0  0  0  0  0  0  0  0  0  0  0  0
   33.9220   29.3680   47.6930 C   0  0  0  0  0  0  0  0  0  0  0  0
   33.9510   28.4010   48.6470 C   0  0  0  0  0  0  0  0  0  0  0  0
   34.9910   28.3610   49.5530 C   0  0  0  0  0  0  0  0  0  0  0  0
   34.8890   31.0510   46.8850 H   0  0  0  0  0  0  0  0  0  0  0  0
   33.1660   27.6810   48.6820 H   0  0  0  0  0  0  0  0  0  0  0  0
   34.9600   27.5690   50.2880 H   0  0  0  0  0  0  0  0  0  0  0  0
   38.0130   33.1830   49.4690 C   0  0  0  0  0  0  0  0  0  0  0  0
   39.0400   33.1850   48.4900 C   0  0  0  0  0  0  0  0  0  0  0  0
   39.0320   32.1820   47.5250 C   0  0  0  0  0  0  0  0  0  0  0  0
   38.0340   31.2370   47.5590 N   0  0  0  0  0  0  0  0  0  0  0  0
   37.0720   31.2630   48.5010 C   0  0  0  0  0  0  0  0  0  0  0  0
   37.0670   32.2390   49.4540 N   0  0  0  0  0  0  0  0  0  0  0  0
   38.0630   33.9780   50.1940 H   0  0  0  0  0  0  0  0  0  0  0  0
   39.7990   33.9460   48.5050 H   0  0  0  0  0  0  0  0  0  0  0  0
   39.7820   32.1380   46.7650 H   0  0  0  0  0  0  0  0  0  0  0  0
   32.8120   29.3980   46.7400 C   0  0  0  0  0  0  0  0  0  0  0  0
   32.0410   28.3000   46.4050 C   0  0  0  0  0  0  0  0  0  0  0  0
   30.9990   28.3840   45.4940 C   0  0  0  0  0  0  0  0  0  0  0  0
   30.7140   29.5440   44.9120 N   0  0  0  0  0  0  0  0  0  0  0  0
   31.4570   30.6200   45.2290 C   0  0  0  0  0  0  0  0  0  0  0  0
   32.4620   30.5380   46.1090 N   0  0  0  0  0  0  0  0  0  0  0  0
   32.2800   27.3580   46.8850 H   0  0  0  0  0  0  0  0  0  0  0  0
   30.4290   27.4910   45.2710 H   0  0  0  0  0  0  0  0  0  0  0  0
   31.2770   31.9650   44.6840 C   0  0  0  0  0  0  0  0  0  0  0  0
   30.4670   32.1480   43.5570 C   0  0  0  0  0  0  0  0  0  0  0  0
   29.9180   31.4080   42.9910 H   0  0  0  0  0  0  0  0  0  0  0  0
   30.4680   33.5090   43.2490 C   0  0  0  0  0  0  0  0  0  0  0  0
   29.9190   33.9350   42.4180 H   0  0  0  0  0  0  0  0  0  0  0  0
   31.2960   34.0720   44.2280 C   0  0  0  0  0  0  0  0  0  0  0  0
   31.5020   35.1330   44.2620 H   0  0  0  0  0  0  0  0  0  0  0  0
   31.7330   33.1490   45.0240 O   0  0  0  0  0  0  0  0  0  0  0  0
  2  7  1  0  0  0  0
  2  1  1  0  0  0  0
  3  2  2  0  0  0  0
  4  5  2  0  0  0  0
  4  3  1  0  0  0  0
  5  6  1  0  0  0  0
  6  9  1  0  0  0  0
  6  7  2  0  0  0  0
  7 10  1  0  0  0  0
  8  4  1  0  0  0  0
 11 17  1  0  0  0  0
 12 18  1  0  0  0  0
 12 11  2  0  0  0  0
 13 14  2  0  0  0  0
 13 12  1  0  0  0  0
 14 15  1  0  0  0  0
 15  3  1  0  0  0  0
 15 16  2  0  0  0  0
 16 11  1  0  0  0  0
 19 13  1  0  0  0  0
 20  5  1  0  0  0  0
 21 20  1  0  0  0  0
 21 26  1  0  0  0  0
 22 21  2  0  0  0  0
 23 24  2  0  0  0  0
 23 22  1  0  0  0  0
 24 25  1  0  0  0  0
 25 20  2  0  0  0  0
 27 22  1  0  0  0  0
 28 35  1  0  0  0  0
 28 24  1  0  0  0  0
 29 28  2  0  0  0  0
 30 29  1  0  0  0  0
 31 29  1  0  0  0  0
 31 33  2  0  0  0  0
 32 31  1  0  0  0  0
 33 34  1  0  0  0  0
 33 35  1  0  0  0  0
M  END
>  <minimizedAffinity>
-6.48596954

>  <minimizedRMSD>
0.372997791

$$$$
