
 OpenBabel03272510013D

 20 21  0  0  0  0  0  0  0  0999 V2000
   38.3820   31.9780   49.8250 C   0  0  0  0  0  0  0  0  0  0  0  0
   38.6890   31.9770   48.4430 C   0  0  0  0  0  0  0  0  0  0  0  0
   37.9560   31.1390   47.6160 C   0  0  0  0  0  0  0  0  0  0  0  0
   36.9820   30.3620   48.1640 N   0  0  0  0  0  0  0  0  0  0  0  0
   36.7200   30.3940   49.4880 C   0  0  0  0  0  0  0  0  0  0  0  0
   37.4120   31.1930   50.3120 N   0  0  0  0  0  0  0  0  0  0  0  0
   38.9350   32.6200   50.4970 H   0  0  0  0  0  0  0  0  0  0  0  0
   39.4740   32.6130   48.0490 H   0  0  0  0  0  0  0  0  0  0  0  0
   38.2280   31.0950   46.1840 C   0  0  0  0  0  0  0  0  0  0  0  0
   37.8440   32.0620   45.2800 C   0  0  0  0  0  0  0  0  0  0  0  0
   37.2950   32.9780   45.4910 H   0  0  0  0  0  0  0  0  0  0  0  0
   38.3380   31.5510   44.0750 C   0  0  0  0  0  0  0  0  0  0  0  0
   38.2110   32.0730   43.1200 H   0  0  0  0  0  0  0  0  0  0  0  0
   38.9710   30.3480   44.3060 C   0  0  0  0  0  0  0  0  0  0  0  0
   39.4520   29.7240   43.5390 H   0  0  0  0  0  0  0  0  0  0  0  0
   38.8770   30.1120   45.6070 O   0  0  0  0  0  0  0  0  0  0  0  0
   35.6380   29.5160   49.9910 C   0  0  0  0  0  0  0  0  0  0  0  0
   35.7690   29.2080   51.3350 F   0  0  0  0  0  0  0  0  0  0  0  0
   34.3860   30.1420   49.8670 F   0  0  0  0  0  0  0  0  0  0  0  0
   35.5250   28.3400   49.3130 F   0  0  0  0  0  0  0  0  0  0  0  0
  1  6  1  0  0  0  0
  1  7  1  0  0  0  0
  2  1  2  0  0  0  0
  3  4  2  0  0  0  0
  3  2  1  0  0  0  0
  4  5  1  0  0  0  0
  5 17  1  0  0  0  0
  5  6  2  0  0  0  0
  8  2  1  0  0  0  0
  9  3  1  0  0  0  0
 10 11  1  0  0  0  0
 10  9  2  0  0  0  0
 12 14  2  0  0  0  0
 12 10  1  0  0  0  0
 13 12  1  0  0  0  0
 14 16  1  0  0  0  0
 15 14  1  0  0  0  0
 16  9  1  0  0  0  0
 17 18  1  0  0  0  0
 19 17  1  0  0  0  0
 20 17  1  0  0  0  0
M  END
>  <minimizedAffinity>
-4.83084202

>  <minimizedRMSD>
1.16002524

$$$$
