
 OpenBabel03272505123D

 38 41  0  0  0  0  0  0  0  0999 V2000
   36.4020   30.9160   45.7040 Cl  0  0  0  0  0  0  0  0  0  0  0  0
   36.6930   30.7660   47.4110 C   0  0  0  0  0  0  0  0  0  0  0  0
   37.9440   31.0820   47.8790 C   0  0  0  0  0  0  0  0  0  0  0  0
   38.1780   30.9640   49.2370 C   0  0  0  0  0  0  0  0  0  0  0  0
   37.1800   30.5450   50.0720 C   0  0  0  0  0  0  0  0  0  0  0  0
   35.9370   30.2410   49.5340 C   0  0  0  0  0  0  0  0  0  0  0  0
   35.6270   30.3320   48.2030 C   0  0  0  0  0  0  0  0  0  0  0  0
   39.1740   31.2180   49.5850 H   0  0  0  0  0  0  0  0  0  0  0  0
   37.3490   30.4480   51.1340 H   0  0  0  0  0  0  0  0  0  0  0  0
   35.1590   29.9090   50.2180 H   0  0  0  0  0  0  0  0  0  0  0  0
   40.2050   33.3180   46.0880 C   0  0  0  0  0  0  0  0  0  0  0  0
   40.9210   32.4640   45.2110 C   0  0  0  0  0  0  0  0  0  0  0  0
   40.6030   31.1020   45.2550 C   0  0  0  0  0  0  0  0  0  0  0  0
   39.6380   30.6790   46.1250 N   0  0  0  0  0  0  0  0  0  0  0  0
   38.9910   31.5310   46.9330 C   0  0  0  0  0  0  0  0  0  0  0  0
   39.2760   32.8380   46.9120 N   0  0  0  0  0  0  0  0  0  0  0  0
   40.4300   34.3570   46.0730 H   0  0  0  0  0  0  0  0  0  0  0  0
   41.6660   32.8250   44.5470 H   0  0  0  0  0  0  0  0  0  0  0  0
   41.0940   30.3720   44.6260 H   0  0  0  0  0  0  0  0  0  0  0  0
   34.0430   29.9480   47.5040 S   0  0  0  0  0  0  0  0  0  0  0  0
   33.7840   29.1620   44.4770 Cl  0  0  0  0  0  0  0  0  0  0  0  0
   33.8020   27.9470   45.7200 C   0  0  0  0  0  0  0  0  0  0  0  0
   33.9110   28.2100   47.0860 C   0  0  0  0  0  0  0  0  0  0  0  0
   33.9120   27.1640   47.9890 C   0  0  0  0  0  0  0  0  0  0  0  0
   33.8060   25.8670   47.5510 C   0  0  0  0  0  0  0  0  0  0  0  0
   33.6940   25.5450   46.2070 C   0  0  0  0  0  0  0  0  0  0  0  0
   33.6980   26.6210   45.3320 C   0  0  0  0  0  0  0  0  0  0  0  0
   34.0000   27.4540   49.0310 H   0  0  0  0  0  0  0  0  0  0  0  0
   33.8110   25.0900   48.3050 H   0  0  0  0  0  0  0  0  0  0  0  0
   33.6120   24.5380   45.8690 H   0  0  0  0  0  0  0  0  0  0  0  0
   33.5820   26.2990   43.9060 C   0  0  0  0  0  0  0  0  0  0  0  0
   34.5450   25.9590   43.0140 C   0  0  0  0  0  0  0  0  0  0  0  0
   35.6050   25.8850   43.3000 H   0  0  0  0  0  0  0  0  0  0  0  0
   34.0380   25.7270   41.7520 C   0  0  0  0  0  0  0  0  0  0  0  0
   34.5480   25.4440   40.8430 H   0  0  0  0  0  0  0  0  0  0  0  0
   32.6830   25.9570   41.9580 C   0  0  0  0  0  0  0  0  0  0  0  0
   31.8960   25.8800   41.1900 H   0  0  0  0  0  0  0  0  0  0  0  0
   32.4720   26.2810   43.2070 O   0  0  0  0  0  0  0  0  0  0  0  0
  1  2  1  0  0  0  0
  2  3  2  0  0  0  0
  2  7  1  0  0  0  0
  3  4  1  0  0  0  0
  4  8  1  0  0  0  0
  4  5  2  0  0  0  0
  5  9  1  0  0  0  0
  6  5  1  0  0  0  0
  6 10  1  0  0  0  0
  7  6  2  0  0  0  0
 11 16  1  0  0  0  0
 12 13  1  0  0  0  0
 12 11  2  0  0  0  0
 13 14  2  0  0  0  0
 14 15  1  0  0  0  0
 15  3  1  0  0  0  0
 16 15  2  0  0  0  0
 17 11  1  0  0  0  0
 18 12  1  0  0  0  0
 19 13  1  0  0  0  0
 20  7  1  0  0  0  0
 21 22  1  0  0  0  0
 22 23  1  0  0  0  0
 23 20  1  0  0  0  0
 23 24  2  0  0  0  0
 24 28  1  0  0  0  0
 25 24  1  0  0  0  0
 25 29  1  0  0  0  0
 26 25  2  0  0  0  0
 27 22  2  0  0  0  0
 27 26  1  0  0  0  0
 30 26  1  0  0  0  0
 31 27  1  0  0  0  0
 32 33  1  0  0  0  0
 32 31  2  0  0  0  0
 34 36  2  0  0  0  0
 34 32  1  0  0  0  0
 35 34  1  0  0  0  0
 36 38  1  0  0  0  0
 37 36  1  0  0  0  0
 38 31  1  0  0  0  0
M  END
>  <minimizedAffinity>
-5.62007332

>  <minimizedRMSD>
0.0427698009

$$$$
