
 OpenBabel03262523493D

 37 40  0  0  0  0  0  0  0  0999 V2000
   35.4490   31.8790   32.1820 Cl  0  0  0  0  0  0  0  0  0  0  0  0
   36.0260   30.2350   32.3760 C   0  0  0  0  0  0  0  0  0  0  0  0
   35.8310   29.5560   33.5730 C   0  0  0  0  0  0  0  0  0  0  0  0
   36.3110   28.2790   33.6430 C   0  0  0  0  0  0  0  0  0  0  0  0
   36.9590   27.6580   32.6090 C   0  0  0  0  0  0  0  0  0  0  0  0
   37.1380   28.3680   31.4240 C   0  0  0  0  0  0  0  0  0  0  0  0
   37.9630   27.5540   30.1320 Cl  0  0  0  0  0  0  0  0  0  0  0  0
   36.6730   29.6580   31.3010 C   0  0  0  0  0  0  0  0  0  0  0  0
   36.1480   27.7580   34.5970 H   0  0  0  0  0  0  0  0  0  0  0  0
   36.8170   30.2080   30.3670 H   0  0  0  0  0  0  0  0  0  0  0  0
   35.4080   25.3760   31.3240 Cl  0  0  0  0  0  0  0  0  0  0  0  0
   36.8360   25.1320   32.3390 C   0  0  0  0  0  0  0  0  0  0  0  0
   37.4120   26.2930   32.8390 C   0  0  0  0  0  0  0  0  0  0  0  0
   38.5370   26.1840   33.6450 C   0  0  0  0  0  0  0  0  0  0  0  0
   39.0910   24.9510   33.9560 C   0  0  0  0  0  0  0  0  0  0  0  0
   38.4790   23.8170   33.4330 C   0  0  0  0  0  0  0  0  0  0  0  0
   37.3650   23.9010   32.6340 C   0  0  0  0  0  0  0  0  0  0  0  0
   39.0370   27.0460   34.0660 H   0  0  0  0  0  0  0  0  0  0  0  0
   39.9650   24.8480   34.5810 H   0  0  0  0  0  0  0  0  0  0  0  0
   38.9210   22.8670   33.6850 H   0  0  0  0  0  0  0  0  0  0  0  0
   36.7180   22.7250   32.0810 C   0  0  0  0  0  0  0  0  0  0  0  0
   37.2110   21.9620   31.0180 C   0  0  0  0  0  0  0  0  0  0  0  0
   38.1150   22.1460   30.4810 H   0  0  0  0  0  0  0  0  0  0  0  0
   36.2370   20.9770   30.8890 C   0  0  0  0  0  0  0  0  0  0  0  0
   36.2830   20.1790   30.1400 H   0  0  0  0  0  0  0  0  0  0  0  0
   35.2460   21.1690   31.8290 C   0  0  0  0  0  0  0  0  0  0  0  0
   34.3430   20.5570   31.9800 H   0  0  0  0  0  0  0  0  0  0  0  0
   35.5750   22.2430   32.5350 O   0  0  0  0  0  0  0  0  0  0  0  0
   35.1120   31.7750   36.5500 C   0  0  0  0  0  0  0  0  0  0  0  0
   35.8100   31.1030   35.5340 C   0  0  0  0  0  0  0  0  0  0  0  0
   35.1330   30.2700   34.6410 C   0  0  0  0  0  0  0  0  0  0  0  0
   33.7810   30.1520   34.8110 N   0  0  0  0  0  0  0  0  0  0  0  0
   33.1530   30.8160   35.8020 C   0  0  0  0  0  0  0  0  0  0  0  0
   33.7970   31.6100   36.6530 N   0  0  0  0  0  0  0  0  0  0  0  0
   35.7450   32.3890   37.1760 H   0  0  0  0  0  0  0  0  0  0  0  0
   36.8850   31.1810   35.3790 H   0  0  0  0  0  0  0  0  0  0  0  0
   32.0660   30.6690   35.8710 H   0  0  0  0  0  0  0  0  0  0  0  0
  1  2  1  0  0  0  0
  2  3  1  0  0  0  0
  3  4  2  0  0  0  0
  3 31  1  0  0  0  0
  4  9  1  0  0  0  0
  5 13  1  0  0  0  0
  5  4  1  0  0  0  0
  6  5  2  0  0  0  0
  7  6  1  0  0  0  0
  8  6  1  0  0  0  0
  8  2  2  0  0  0  0
 10  8  1  0  0  0  0
 11 12  1  0  0  0  0
 12 17  2  0  0  0  0
 12 13  1  0  0  0  0
 13 14  2  0  0  0  0
 14 15  1  0  0  0  0
 14 18  1  0  0  0  0
 15 19  1  0  0  0  0
 16 20  1  0  0  0  0
 16 15  2  0  0  0  0
 17 16  1  0  0  0  0
 21 28  1  0  0  0  0
 21 17  1  0  0  0  0
 22 21  2  0  0  0  0
 23 22  1  0  0  0  0
 24 22  1  0  0  0  0
 24 26  2  0  0  0  0
 25 24  1  0  0  0  0
 26 27  1  0  0  0  0
 26 28  1  0  0  0  0
 29 34  1  0  0  0  0
 29 35  1  0  0  0  0
 30 29  2  0  0  0  0
 31 32  2  0  0  0  0
 31 30  1  0  0  0  0
 32 33  1  0  0  0  0
 33 37  1  0  0  0  0
 33 34  2  0  0  0  0
 36 30  1  0  0  0  0
M  END
>  <minimizedAffinity>
-6.10995913

$$$$

 OpenBabel03262523493D

 37 40  0  0  0  0  0  0  0  0999 V2000
   35.6880   32.8380   32.5190 Cl  0  0  0  0  0  0  0  0  0  0  0  0
   35.8580   31.1010   32.3560 C   0  0  0  0  0  0  0  0  0  0  0  0
   35.4490   30.2530   33.3790 C   0  0  0  0  0  0  0  0  0  0  0  0
   35.6160   28.9130   33.1740 C   0  0  0  0  0  0  0  0  0  0  0  0
   36.1570   28.3850   32.0300 C   0  0  0  0  0  0  0  0  0  0  0  0
   36.5570   29.2640   31.0270 C   0  0  0  0  0  0  0  0  0  0  0  0
   37.2380   28.5650   29.5900 Cl  0  0  0  0  0  0  0  0  0  0  0  0
   36.4090   30.6240   31.1830 C   0  0  0  0  0  0  0  0  0  0  0  0
   35.2870   28.2580   33.9930 H   0  0  0  0  0  0  0  0  0  0  0  0
   36.7260   31.3070   30.3900 H   0  0  0  0  0  0  0  0  0  0  0  0
   38.4450   27.0360   33.5150 Cl  0  0  0  0  0  0  0  0  0  0  0  0
   37.2390   26.1490   32.5710 C   0  0  0  0  0  0  0  0  0  0  0  0
   36.2690   26.9360   31.9630 C   0  0  0  0  0  0  0  0  0  0  0  0
   35.2870   26.3120   31.2050 C   0  0  0  0  0  0  0  0  0  0  0  0
   35.2580   24.9350   31.0460 C   0  0  0  0  0  0  0  0  0  0  0  0
   36.2500   24.1900   31.6720 C   0  0  0  0  0  0  0  0  0  0  0  0
   37.2310   24.7850   32.4280 C   0  0  0  0  0  0  0  0  0  0  0  0
   34.5020   26.8630   30.7050 H   0  0  0  0  0  0  0  0  0  0  0  0
   34.5020   24.4340   30.4590 H   0  0  0  0  0  0  0  0  0  0  0  0
   36.2140   23.1210   31.5380 H   0  0  0  0  0  0  0  0  0  0  0  0
   38.2720   24.0180   33.0880 C   0  0  0  0  0  0  0  0  0  0  0  0
   38.1070   23.2960   34.2750 C   0  0  0  0  0  0  0  0  0  0  0  0
   37.2060   23.2190   34.8420 H   0  0  0  0  0  0  0  0  0  0  0  0
   39.3760   22.7610   34.4690 C   0  0  0  0  0  0  0  0  0  0  0  0
   39.6370   22.1210   35.3190 H   0  0  0  0  0  0  0  0  0  0  0  0
   40.2160   23.1550   33.4480 C   0  0  0  0  0  0  0  0  0  0  0  0
   41.2780   22.8950   33.3200 H   0  0  0  0  0  0  0  0  0  0  0  0
   39.5060   23.9190   32.6280 O   0  0  0  0  0  0  0  0  0  0  0  0
   35.1070   31.9000   36.7660 C   0  0  0  0  0  0  0  0  0  0  0  0
   35.6830   31.3080   35.6310 C   0  0  0  0  0  0  0  0  0  0  0  0
   34.8800   30.8730   34.5750 C   0  0  0  0  0  0  0  0  0  0  0  0
   33.5310   31.0550   34.7090 N   0  0  0  0  0  0  0  0  0  0  0  0
   33.0220   31.6280   35.8180 C   0  0  0  0  0  0  0  0  0  0  0  0
   33.7860   32.0430   36.8250 N   0  0  0  0  0  0  0  0  0  0  0  0
   35.8310   32.1940   37.5140 H   0  0  0  0  0  0  0  0  0  0  0  0
   36.7530   31.1530   35.5000 H   0  0  0  0  0  0  0  0  0  0  0  0
   31.9300   31.7380   35.8490 H   0  0  0  0  0  0  0  0  0  0  0  0
  2  1  1  0  0  0  0
  2  3  1  0  0  0  0
  3 31  1  0  0  0  0
  4  3  2  0  0  0  0
  4  9  1  0  0  0  0
  5  4  1  0  0  0  0
  6  8  1  0  0  0  0
  6  5  2  0  0  0  0
  7  6  1  0  0  0  0
  8  2  2  0  0  0  0
 10  8  1  0  0  0  0
 12 11  1  0  0  0  0
 13  5  1  0  0  0  0
 13 12  2  0  0  0  0
 14 13  1  0  0  0  0
 15 14  2  0  0  0  0
 15 16  1  0  0  0  0
 16 17  2  0  0  0  0
 17 12  1  0  0  0  0
 17 21  1  0  0  0  0
 18 14  1  0  0  0  0
 19 15  1  0  0  0  0
 20 16  1  0  0  0  0
 21 22  2  0  0  0  0
 22 24  1  0  0  0  0
 22 23  1  0  0  0  0
 24 25  1  0  0  0  0
 26 24  2  0  0  0  0
 27 26  1  0  0  0  0
 28 21  1  0  0  0  0
 28 26  1  0  0  0  0
 29 34  1  0  0  0  0
 29 35  1  0  0  0  0
 30 29  2  0  0  0  0
 31 32  2  0  0  0  0
 31 30  1  0  0  0  0
 32 33  1  0  0  0  0
 33 37  1  0  0  0  0
 33 34  2  0  0  0  0
 36 30  1  0  0  0  0
M  END
>  <minimizedAffinity>
-5.88676643

$$$$

 OpenBabel03262523493D

 37 40  0  0  0  0  0  0  0  0999 V2000
   36.7750   30.2830   30.9600 Cl  0  0  0  0  0  0  0  0  0  0  0  0
   37.0640   28.6760   31.5960 C   0  0  0  0  0  0  0  0  0  0  0  0
   36.3070   28.1890   32.6550 C   0  0  0  0  0  0  0  0  0  0  0  0
   36.5950   26.9280   33.0930 C   0  0  0  0  0  0  0  0  0  0  0  0
   37.5750   26.1440   32.5440 C   0  0  0  0  0  0  0  0  0  0  0  0
   38.3150   26.6630   31.4840 C   0  0  0  0  0  0  0  0  0  0  0  0
   39.5500   25.6440   30.8100 Cl  0  0  0  0  0  0  0  0  0  0  0  0
   38.0640   27.9290   31.0050 C   0  0  0  0  0  0  0  0  0  0  0  0
   35.9860   26.5610   33.9310 H   0  0  0  0  0  0  0  0  0  0  0  0
   38.6500   28.3280   30.1720 H   0  0  0  0  0  0  0  0  0  0  0  0
   39.1300   25.9050   35.1490 Cl  0  0  0  0  0  0  0  0  0  0  0  0
   38.4380   24.5160   34.2970 C   0  0  0  0  0  0  0  0  0  0  0  0
   37.7620   24.8210   33.1220 C   0  0  0  0  0  0  0  0  0  0  0  0
   37.1900   23.7840   32.3970 C   0  0  0  0  0  0  0  0  0  0  0  0
   37.2800   22.4660   32.8190 C   0  0  0  0  0  0  0  0  0  0  0  0
   37.9680   22.2110   34.0000 C   0  0  0  0  0  0  0  0  0  0  0  0
   38.5410   23.2200   34.7340 C   0  0  0  0  0  0  0  0  0  0  0  0
   36.6490   23.9490   31.4750 H   0  0  0  0  0  0  0  0  0  0  0  0
   36.8420   21.6480   32.2660 H   0  0  0  0  0  0  0  0  0  0  0  0
   38.0300   21.1820   34.3130 H   0  0  0  0  0  0  0  0  0  0  0  0
   39.2610   22.9670   35.9690 C   0  0  0  0  0  0  0  0  0  0  0  0
   40.5310   22.3870   36.0540 C   0  0  0  0  0  0  0  0  0  0  0  0
   41.1260   22.0570   35.2310 H   0  0  0  0  0  0  0  0  0  0  0  0
   40.7530   22.3730   37.4270 C   0  0  0  0  0  0  0  0  0  0  0  0
   41.6680   21.9800   37.8850 H   0  0  0  0  0  0  0  0  0  0  0  0
   39.6700   22.9160   38.0870 C   0  0  0  0  0  0  0  0  0  0  0  0
   39.5460   23.0440   39.1730 H   0  0  0  0  0  0  0  0  0  0  0  0
   38.7830   23.2660   37.1630 O   0  0  0  0  0  0  0  0  0  0  0  0
   34.5150   30.7480   34.7880 C   0  0  0  0  0  0  0  0  0  0  0  0
   35.5260   29.9120   34.2870 C   0  0  0  0  0  0  0  0  0  0  0  0
   35.2760   29.0720   33.2010 C   0  0  0  0  0  0  0  0  0  0  0  0
   34.0180   29.1120   32.6660 N   0  0  0  0  0  0  0  0  0  0  0  0
   33.0780   29.9300   33.1810 C   0  0  0  0  0  0  0  0  0  0  0  0
   33.3150   30.7310   34.2160 N   0  0  0  0  0  0  0  0  0  0  0  0
   34.8310   31.3490   35.6300 H   0  0  0  0  0  0  0  0  0  0  0  0
   36.5340   29.8630   34.6950 H   0  0  0  0  0  0  0  0  0  0  0  0
   32.0930   29.9030   32.6950 H   0  0  0  0  0  0  0  0  0  0  0  0
  1  2  1  0  0  0  0
  2  3  1  0  0  0  0
  3  4  2  0  0  0  0
  3 31  1  0  0  0  0
  4  9  1  0  0  0  0
  5  4  1  0  0  0  0
  5 13  1  0  0  0  0
  6  5  2  0  0  0  0
  7  6  1  0  0  0  0
  8  6  1  0  0  0  0
  8  2  2  0  0  0  0
 10  8  1  0  0  0  0
 12 17  1  0  0  0  0
 12 11  1  0  0  0  0
 13 12  2  0  0  0  0
 14 15  2  0  0  0  0
 14 13  1  0  0  0  0
 15 16  1  0  0  0  0
 16 20  1  0  0  0  0
 16 17  2  0  0  0  0
 17 21  1  0  0  0  0
 18 14  1  0  0  0  0
 19 15  1  0  0  0  0
 21 22  2  0  0  0  0
 21 28  1  0  0  0  0
 22 24  1  0  0  0  0
 23 22  1  0  0  0  0
 24 25  1  0  0  0  0
 24 26  2  0  0  0  0
 26 27  1  0  0  0  0
 28 26  1  0  0  0  0
 29 35  1  0  0  0  0
 30 36  1  0  0  0  0
 30 29  1  0  0  0  0
 31 30  2  0  0  0  0
 32 33  2  0  0  0  0
 32 31  1  0  0  0  0
 33 34  1  0  0  0  0
 34 29  2  0  0  0  0
 37 33  1  0  0  0  0
M  END
>  <minimizedAffinity>
-5.8207531

$$$$

 OpenBabel03262523493D

 37 40  0  0  0  0  0  0  0  0999 V2000
   36.6160   30.5080   31.0230 Cl  0  0  0  0  0  0  0  0  0  0  0  0
   36.9030   28.8570   31.5390 C   0  0  0  0  0  0  0  0  0  0  0  0
   36.2360   28.3370   32.6420 C   0  0  0  0  0  0  0  0  0  0  0  0
   36.5150   27.0440   32.9800 C   0  0  0  0  0  0  0  0  0  0  0  0
   37.4030   26.2590   32.2920 C   0  0  0  0  0  0  0  0  0  0  0  0
   38.0540   26.8120   31.1920 C   0  0  0  0  0  0  0  0  0  0  0  0
   39.1730   25.7920   30.3410 Cl  0  0  0  0  0  0  0  0  0  0  0  0
   37.8080   28.1120   30.8100 C   0  0  0  0  0  0  0  0  0  0  0  0
   35.9780   26.6500   33.8540 H   0  0  0  0  0  0  0  0  0  0  0  0
   38.3230   28.5380   29.9450 H   0  0  0  0  0  0  0  0  0  0  0  0
   35.7360   24.0320   31.0560 Cl  0  0  0  0  0  0  0  0  0  0  0  0
   36.9280   23.7610   32.3360 C   0  0  0  0  0  0  0  0  0  0  0  0
   37.5920   24.8990   32.7760 C   0  0  0  0  0  0  0  0  0  0  0  0
   38.5430   24.7670   33.7790 C   0  0  0  0  0  0  0  0  0  0  0  0
   38.8380   23.5350   34.3420 C   0  0  0  0  0  0  0  0  0  0  0  0
   38.1470   22.4260   33.8700 C   0  0  0  0  0  0  0  0  0  0  0  0
   37.2020   22.5320   32.8790 C   0  0  0  0  0  0  0  0  0  0  0  0
   39.0980   25.6110   34.1680 H   0  0  0  0  0  0  0  0  0  0  0  0
   39.5740   23.4150   35.1240 H   0  0  0  0  0  0  0  0  0  0  0  0
   38.3870   21.4750   34.3190 H   0  0  0  0  0  0  0  0  0  0  0  0
   36.4740   21.3810   32.3760 C   0  0  0  0  0  0  0  0  0  0  0  0
   35.4000   20.7630   33.0270 C   0  0  0  0  0  0  0  0  0  0  0  0
   34.9850   21.0550   33.9660 H   0  0  0  0  0  0  0  0  0  0  0  0
   35.0750   19.7390   32.1440 C   0  0  0  0  0  0  0  0  0  0  0  0
   34.2610   19.0270   32.3200 H   0  0  0  0  0  0  0  0  0  0  0  0
   35.9160   19.7730   31.0510 C   0  0  0  0  0  0  0  0  0  0  0  0
   35.9100   19.0950   30.1830 H   0  0  0  0  0  0  0  0  0  0  0  0
   36.7530   20.7870   31.2310 O   0  0  0  0  0  0  0  0  0  0  0  0
   34.7610   30.8030   35.1030 C   0  0  0  0  0  0  0  0  0  0  0  0
   35.6820   29.9620   34.4580 C   0  0  0  0  0  0  0  0  0  0  0  0
   35.3000   29.2220   33.3370 C   0  0  0  0  0  0  0  0  0  0  0  0
   34.0080   29.3630   32.9150 N   0  0  0  0  0  0  0  0  0  0  0  0
   33.1580   30.1820   33.5660 C   0  0  0  0  0  0  0  0  0  0  0  0
   33.5200   30.8880   34.6340 N   0  0  0  0  0  0  0  0  0  0  0  0
   35.1750   31.3210   35.9570 H   0  0  0  0  0  0  0  0  0  0  0  0
   36.7160   29.8330   34.7740 H   0  0  0  0  0  0  0  0  0  0  0  0
   32.1370   30.2410   33.1650 H   0  0  0  0  0  0  0  0  0  0  0  0
  1  2  1  0  0  0  0
  2  3  1  0  0  0  0
  3  4  2  0  0  0  0
  3 31  1  0  0  0  0
  4  9  1  0  0  0  0
  5 13  1  0  0  0  0
  5  4  1  0  0  0  0
  6  5  2  0  0  0  0
  7  6  1  0  0  0  0
  8  6  1  0  0  0  0
  8  2  2  0  0  0  0
 10  8  1  0  0  0  0
 11 12  1  0  0  0  0
 12 13  2  0  0  0  0
 12 17  1  0  0  0  0
 13 14  1  0  0  0  0
 14 18  1  0  0  0  0
 14 15  2  0  0  0  0
 15 19  1  0  0  0  0
 16 20  1  0  0  0  0
 16 15  1  0  0  0  0
 17 16  2  0  0  0  0
 21 17  1  0  0  0  0
 21 22  2  0  0  0  0
 22 23  1  0  0  0  0
 24 25  1  0  0  0  0
 24 22  1  0  0  0  0
 26 28  1  0  0  0  0
 26 24  2  0  0  0  0
 27 26  1  0  0  0  0
 28 21  1  0  0  0  0
 29 35  1  0  0  0  0
 30 36  1  0  0  0  0
 30 29  2  0  0  0  0
 31 30  1  0  0  0  0
 32 31  2  0  0  0  0
 32 33  1  0  0  0  0
 33 34  2  0  0  0  0
 34 29  1  0  0  0  0
 37 33  1  0  0  0  0
M  END
>  <minimizedAffinity>
-5.75478554

$$$$

 OpenBabel03262523493D

 37 40  0  0  0  0  0  0  0  0999 V2000
   38.1980   27.1170   31.0680 Cl  0  0  0  0  0  0  0  0  0  0  0  0
   37.0660   27.9950   32.0770 C   0  0  0  0  0  0  0  0  0  0  0  0
   37.0360   27.7860   33.4510 C   0  0  0  0  0  0  0  0  0  0  0  0
   36.1250   28.5100   34.1660 C   0  0  0  0  0  0  0  0  0  0  0  0
   35.2620   29.4100   33.5980 C   0  0  0  0  0  0  0  0  0  0  0  0
   35.3180   29.5930   32.2180 C   0  0  0  0  0  0  0  0  0  0  0  0
   34.2120   30.7400   31.5290 Cl  0  0  0  0  0  0  0  0  0  0  0  0
   36.2190   28.8890   31.4520 C   0  0  0  0  0  0  0  0  0  0  0  0
   36.1160   28.3310   35.2500 H   0  0  0  0  0  0  0  0  0  0  0  0
   36.2570   29.0400   30.3700 H   0  0  0  0  0  0  0  0  0  0  0  0
   35.9640   32.2350   34.4860 Cl  0  0  0  0  0  0  0  0  0  0  0  0
   34.4990   31.3870   35.0030 C   0  0  0  0  0  0  0  0  0  0  0  0
   34.3480   30.1030   34.4950 C   0  0  0  0  0  0  0  0  0  0  0  0
   33.2230   29.3740   34.8550 C   0  0  0  0  0  0  0  0  0  0  0  0
   32.2590   29.8980   35.7020 C   0  0  0  0  0  0  0  0  0  0  0  0
   32.4540   31.1860   36.1870 C   0  0  0  0  0  0  0  0  0  0  0  0
   33.5590   31.9260   35.8440 C   0  0  0  0  0  0  0  0  0  0  0  0
   33.0420   28.3690   34.4950 H   0  0  0  0  0  0  0  0  0  0  0  0
   31.3780   29.3430   35.9930 H   0  0  0  0  0  0  0  0  0  0  0  0
   31.6960   31.5780   36.8450 H   0  0  0  0  0  0  0  0  0  0  0  0
   33.7740   33.2730   36.3420 C   0  0  0  0  0  0  0  0  0  0  0  0
   34.3050   33.5890   37.5970 C   0  0  0  0  0  0  0  0  0  0  0  0
   34.6140   32.8900   38.3420 H   0  0  0  0  0  0  0  0  0  0  0  0
   34.3010   34.9800   37.5730 C   0  0  0  0  0  0  0  0  0  0  0  0
   34.6540   35.5990   38.4050 H   0  0  0  0  0  0  0  0  0  0  0  0
   33.7970   35.4300   36.3700 C   0  0  0  0  0  0  0  0  0  0  0  0
   33.6670   36.4750   36.0500 H   0  0  0  0  0  0  0  0  0  0  0  0
   33.4880   34.3590   35.6480 O   0  0  0  0  0  0  0  0  0  0  0  0
   40.1320   26.2360   34.9740 C   0  0  0  0  0  0  0  0  0  0  0  0
   39.2470   27.1930   34.4510 C   0  0  0  0  0  0  0  0  0  0  0  0
   37.9810   26.8140   34.0000 C   0  0  0  0  0  0  0  0  0  0  0  0
   37.6620   25.4880   34.0970 N   0  0  0  0  0  0  0  0  0  0  0  0
   38.5440   24.6050   34.6050 C   0  0  0  0  0  0  0  0  0  0  0  0
   39.7510   24.9640   35.0350 N   0  0  0  0  0  0  0  0  0  0  0  0
   41.0800   26.6510   35.2880 H   0  0  0  0  0  0  0  0  0  0  0  0
   39.4780   28.2530   34.3640 H   0  0  0  0  0  0  0  0  0  0  0  0
   38.2120   23.5580   34.6480 H   0  0  0  0  0  0  0  0  0  0  0  0
  1  2  1  0  0  0  0
  2  3  1  0  0  0  0
  3 31  1  0  0  0  0
  3  4  2  0  0  0  0
  4  9  1  0  0  0  0
  5  4  1  0  0  0  0
  5 13  1  0  0  0  0
  6  5  2  0  0  0  0
  7  6  1  0  0  0  0
  8  2  2  0  0  0  0
  8  6  1  0  0  0  0
 10  8  1  0  0  0  0
 11 12  1  0  0  0  0
 12 17  1  0  0  0  0
 13 14  1  0  0  0  0
 13 12  2  0  0  0  0
 14 15  2  0  0  0  0
 15 19  1  0  0  0  0
 15 16  1  0  0  0  0
 16 20  1  0  0  0  0
 17 16  2  0  0  0  0
 17 21  1  0  0  0  0
 18 14  1  0  0  0  0
 21 22  2  0  0  0  0
 22 23  1  0  0  0  0
 24 22  1  0  0  0  0
 24 25  1  0  0  0  0
 26 24  2  0  0  0  0
 27 26  1  0  0  0  0
 28 21  1  0  0  0  0
 28 26  1  0  0  0  0
 29 34  1  0  0  0  0
 29 35  1  0  0  0  0
 30 29  2  0  0  0  0
 31 32  2  0  0  0  0
 31 30  1  0  0  0  0
 32 33  1  0  0  0  0
 33 37  1  0  0  0  0
 33 34  2  0  0  0  0
 36 30  1  0  0  0  0
M  END
>  <minimizedAffinity>
-5.71006155

$$$$

 OpenBabel03262523493D

 37 40  0  0  0  0  0  0  0  0999 V2000
   39.6900   21.7340   33.2280 Cl  0  0  0  0  0  0  0  0  0  0  0  0
   38.9460   23.2990   32.9620 C   0  0  0  0  0  0  0  0  0  0  0  0
   37.6150   23.3910   32.5730 C   0  0  0  0  0  0  0  0  0  0  0  0
   37.1120   24.6470   32.3860 C   0  0  0  0  0  0  0  0  0  0  0  0
   37.8470   25.7900   32.5630 C   0  0  0  0  0  0  0  0  0  0  0  0
   39.1780   25.6610   32.9530 C   0  0  0  0  0  0  0  0  0  0  0  0
   40.0830   27.1270   33.1690 Cl  0  0  0  0  0  0  0  0  0  0  0  0
   39.7340   24.4170   33.1550 C   0  0  0  0  0  0  0  0  0  0  0  0
   36.0580   24.6990   32.0780 H   0  0  0  0  0  0  0  0  0  0  0  0
   40.7790   24.3260   33.4610 H   0  0  0  0  0  0  0  0  0  0  0  0
   36.6000   27.2360   34.9330 Cl  0  0  0  0  0  0  0  0  0  0  0  0
   36.5420   27.8530   33.2750 C   0  0  0  0  0  0  0  0  0  0  0  0
   37.1660   27.0540   32.3250 C   0  0  0  0  0  0  0  0  0  0  0  0
   37.1640   27.4710   31.0010 C   0  0  0  0  0  0  0  0  0  0  0  0
   36.5570   28.6570   30.6130 C   0  0  0  0  0  0  0  0  0  0  0  0
   35.9440   29.4210   31.5990 C   0  0  0  0  0  0  0  0  0  0  0  0
   35.9340   29.0290   32.9150 C   0  0  0  0  0  0  0  0  0  0  0  0
   37.6320   26.8990   30.2100 H   0  0  0  0  0  0  0  0  0  0  0  0
   36.5450   28.9950   29.5880 H   0  0  0  0  0  0  0  0  0  0  0  0
   35.4760   30.3390   31.2820 H   0  0  0  0  0  0  0  0  0  0  0  0
   35.2980   29.8190   33.9550 C   0  0  0  0  0  0  0  0  0  0  0  0
   35.9160   30.8510   34.6700 C   0  0  0  0  0  0  0  0  0  0  0  0
   36.9230   31.1840   34.5460 H   0  0  0  0  0  0  0  0  0  0  0  0
   34.8970   31.2660   35.5190 C   0  0  0  0  0  0  0  0  0  0  0  0
   35.0110   32.0780   36.2460 H   0  0  0  0  0  0  0  0  0  0  0  0
   33.7620   30.5140   35.2990 C   0  0  0  0  0  0  0  0  0  0  0  0
   32.7920   30.6030   35.8130 H   0  0  0  0  0  0  0  0  0  0  0  0
   34.0470   29.6440   34.3390 O   0  0  0  0  0  0  0  0  0  0  0  0
   36.0080   20.3450   31.0100 C   0  0  0  0  0  0  0  0  0  0  0  0
   36.7180   21.5490   31.1440 C   0  0  0  0  0  0  0  0  0  0  0  0
   36.8810   22.1380   32.3990 C   0  0  0  0  0  0  0  0  0  0  0  0
   36.3220   21.4880   33.4640 N   0  0  0  0  0  0  0  0  0  0  0  0
   35.6480   20.3330   33.2870 C   0  0  0  0  0  0  0  0  0  0  0  0
   35.4920   19.7710   32.0920 N   0  0  0  0  0  0  0  0  0  0  0  0
   35.9500   19.9900   29.9900 H   0  0  0  0  0  0  0  0  0  0  0  0
   37.1720   22.0850   30.3120 H   0  0  0  0  0  0  0  0  0  0  0  0
   35.2290   19.8730   34.1930 H   0  0  0  0  0  0  0  0  0  0  0  0
  2  8  1  0  0  0  0
  2  1  1  0  0  0  0
  3  2  2  0  0  0  0
  4  5  2  0  0  0  0
  4  3  1  0  0  0  0
  5  6  1  0  0  0  0
  6  8  2  0  0  0  0
  6  7  1  0  0  0  0
  8 10  1  0  0  0  0
  9  4  1  0  0  0  0
 12 11  1  0  0  0  0
 13  5  1  0  0  0  0
 13 12  2  0  0  0  0
 14 13  1  0  0  0  0
 15 14  2  0  0  0  0
 15 16  1  0  0  0  0
 16 17  2  0  0  0  0
 17 12  1  0  0  0  0
 17 21  1  0  0  0  0
 18 14  1  0  0  0  0
 19 15  1  0  0  0  0
 20 16  1  0  0  0  0
 21 28  1  0  0  0  0
 21 22  2  0  0  0  0
 22 24  1  0  0  0  0
 23 22  1  0  0  0  0
 24 25  1  0  0  0  0
 26 24  2  0  0  0  0
 26 27  1  0  0  0  0
 28 26  1  0  0  0  0
 29 30  2  0  0  0  0
 29 34  1  0  0  0  0
 30 31  1  0  0  0  0
 31  3  1  0  0  0  0
 31 32  2  0  0  0  0
 33 32  1  0  0  0  0
 33 37  1  0  0  0  0
 34 33  2  0  0  0  0
 35 29  1  0  0  0  0
 36 30  1  0  0  0  0
M  END
>  <minimizedAffinity>
-5.59162903

$$$$

 OpenBabel03262523493D

 37 40  0  0  0  0  0  0  0  0999 V2000
   37.6600   28.6280   29.0540 Cl  0  0  0  0  0  0  0  0  0  0  0  0
   36.9130   29.2060   30.5300 C   0  0  0  0  0  0  0  0  0  0  0  0
   36.9030   28.4140   31.6730 C   0  0  0  0  0  0  0  0  0  0  0  0
   36.3000   28.9370   32.7810 C   0  0  0  0  0  0  0  0  0  0  0  0
   35.7220   30.1790   32.8120 C   0  0  0  0  0  0  0  0  0  0  0  0
   35.7500   30.9450   31.6490 C   0  0  0  0  0  0  0  0  0  0  0  0
   35.0080   32.5140   31.7190 Cl  0  0  0  0  0  0  0  0  0  0  0  0
   36.3450   30.4650   30.5040 C   0  0  0  0  0  0  0  0  0  0  0  0
   36.3020   28.2970   33.6740 H   0  0  0  0  0  0  0  0  0  0  0  0
   36.3630   31.0730   29.5960 H   0  0  0  0  0  0  0  0  0  0  0  0
   32.8560   29.3400   33.3960 Cl  0  0  0  0  0  0  0  0  0  0  0  0
   33.8320   30.3090   34.5080 C   0  0  0  0  0  0  0  0  0  0  0  0
   35.1200   30.5950   34.0700 C   0  0  0  0  0  0  0  0  0  0  0  0
   35.9480   31.3510   34.8880 C   0  0  0  0  0  0  0  0  0  0  0  0
   35.5190   31.8200   36.1210 C   0  0  0  0  0  0  0  0  0  0  0  0
   34.2230   31.5100   36.5160 C   0  0  0  0  0  0  0  0  0  0  0  0
   33.3860   30.7640   35.7230 C   0  0  0  0  0  0  0  0  0  0  0  0
   36.9610   31.6090   34.6100 H   0  0  0  0  0  0  0  0  0  0  0  0
   36.1500   32.4100   36.7690 H   0  0  0  0  0  0  0  0  0  0  0  0
   33.9050   31.8830   37.4760 H   0  0  0  0  0  0  0  0  0  0  0  0
   32.0310   30.4320   36.1250 C   0  0  0  0  0  0  0  0  0  0  0  0
   31.6550   29.2620   36.7950 C   0  0  0  0  0  0  0  0  0  0  0  0
   32.3090   28.4720   37.0910 H   0  0  0  0  0  0  0  0  0  0  0  0
   30.2830   29.4360   36.9370 C   0  0  0  0  0  0  0  0  0  0  0  0
   29.6300   28.7050   37.4270 H   0  0  0  0  0  0  0  0  0  0  0  0
   29.8990   30.6390   36.3810 C   0  0  0  0  0  0  0  0  0  0  0  0
   28.8820   31.0590   36.3360 H   0  0  0  0  0  0  0  0  0  0  0  0
   30.9920   31.2150   35.8970 O   0  0  0  0  0  0  0  0  0  0  0  0
   39.4520   25.6250   31.8270 C   0  0  0  0  0  0  0  0  0  0  0  0
   38.8730   26.9000   31.9270 C   0  0  0  0  0  0  0  0  0  0  0  0
   37.5350   27.0990   31.5800 C   0  0  0  0  0  0  0  0  0  0  0  0
   36.8400   26.0030   31.1490 N   0  0  0  0  0  0  0  0  0  0  0  0
   37.4380   24.7980   31.0690 C   0  0  0  0  0  0  0  0  0  0  0  0
   38.7120   24.6070   31.3990 N   0  0  0  0  0  0  0  0  0  0  0  0
   40.4920   25.5990   32.1230 H   0  0  0  0  0  0  0  0  0  0  0  0
   39.4060   27.7870   32.2670 H   0  0  0  0  0  0  0  0  0  0  0  0
   36.8110   23.9680   30.7140 H   0  0  0  0  0  0  0  0  0  0  0  0
  1  2  1  0  0  0  0
  2  3  1  0  0  0  0
  3  4  2  0  0  0  0
  4  5  1  0  0  0  0
  4  9  1  0  0  0  0
  5 13  1  0  0  0  0
  6  7  1  0  0  0  0
  6  5  2  0  0  0  0
  8  2  2  0  0  0  0
  8  6  1  0  0  0  0
 10  8  1  0  0  0  0
 11 12  1  0  0  0  0
 12 17  1  0  0  0  0
 13 12  2  0  0  0  0
 13 14  1  0  0  0  0
 14 15  2  0  0  0  0
 15 16  1  0  0  0  0
 15 19  1  0  0  0  0
 16 20  1  0  0  0  0
 17 21  1  0  0  0  0
 17 16  2  0  0  0  0
 18 14  1  0  0  0  0
 21 22  2  0  0  0  0
 22 24  1  0  0  0  0
 22 23  1  0  0  0  0
 24 25  1  0  0  0  0
 26 24  2  0  0  0  0
 27 26  1  0  0  0  0
 28 21  1  0  0  0  0
 28 26  1  0  0  0  0
 29 30  1  0  0  0  0
 29 35  1  0  0  0  0
 30 36  1  0  0  0  0
 31  3  1  0  0  0  0
 31 30  2  0  0  0  0
 32 31  1  0  0  0  0
 33 32  2  0  0  0  0
 33 34  1  0  0  0  0
 34 29  2  0  0  0  0
 37 33  1  0  0  0  0
M  END
>  <minimizedAffinity>
-5.55542088

$$$$

 OpenBabel03262523493D

 37 40  0  0  0  0  0  0  0  0999 V2000
   34.3960   30.2180   32.1160 Cl  0  0  0  0  0  0  0  0  0  0  0  0
   35.4890   29.0240   32.7870 C   0  0  0  0  0  0  0  0  0  0  0  0
   35.8570   29.0780   34.1260 C   0  0  0  0  0  0  0  0  0  0  0  0
   36.7130   28.1110   34.5720 C   0  0  0  0  0  0  0  0  0  0  0  0
   37.2100   27.1160   33.7710 C   0  0  0  0  0  0  0  0  0  0  0  0
   36.8220   27.0930   32.4340 C   0  0  0  0  0  0  0  0  0  0  0  0
   37.4690   25.8200   31.4460 Cl  0  0  0  0  0  0  0  0  0  0  0  0
   35.9600   28.0440   31.9350 C   0  0  0  0  0  0  0  0  0  0  0  0
   36.9910   28.1700   35.6330 H   0  0  0  0  0  0  0  0  0  0  0  0
   35.6610   28.0180   30.8840 H   0  0  0  0  0  0  0  0  0  0  0  0
   40.1650   27.2290   33.0530 Cl  0  0  0  0  0  0  0  0  0  0  0  0
   39.4840   26.0580   34.1920 C   0  0  0  0  0  0  0  0  0  0  0  0
   38.1130   26.1590   34.3940 C   0  0  0  0  0  0  0  0  0  0  0  0
   37.5040   25.2750   35.2750 C   0  0  0  0  0  0  0  0  0  0  0  0
   38.2310   24.3050   35.9490 C   0  0  0  0  0  0  0  0  0  0  0  0
   39.5990   24.2420   35.7130 C   0  0  0  0  0  0  0  0  0  0  0  0
   40.2230   25.1060   34.8460 C   0  0  0  0  0  0  0  0  0  0  0  0
   36.4420   25.2980   35.4800 H   0  0  0  0  0  0  0  0  0  0  0  0
   37.7730   23.6090   36.6360 H   0  0  0  0  0  0  0  0  0  0  0  0
   40.1490   23.4810   36.2430 H   0  0  0  0  0  0  0  0  0  0  0  0
   41.6510   25.0510   34.5920 C   0  0  0  0  0  0  0  0  0  0  0  0
   42.2760   24.1650   33.7070 C   0  0  0  0  0  0  0  0  0  0  0  0
   41.7880   23.4240   33.1130 H   0  0  0  0  0  0  0  0  0  0  0  0
   43.6140   24.5220   33.8340 C   0  0  0  0  0  0  0  0  0  0  0  0
   44.4230   24.0350   33.2800 H   0  0  0  0  0  0  0  0  0  0  0  0
   43.7440   25.5540   34.7400 C   0  0  0  0  0  0  0  0  0  0  0  0
   44.6730   26.0540   35.0540 H   0  0  0  0  0  0  0  0  0  0  0  0
   42.5260   25.8470   35.1790 O   0  0  0  0  0  0  0  0  0  0  0  0
   35.5120   32.2440   36.1660 C   0  0  0  0  0  0  0  0  0  0  0  0
   36.0810   31.2180   35.3950 C   0  0  0  0  0  0  0  0  0  0  0  0
   35.2940   30.1620   34.9310 C   0  0  0  0  0  0  0  0  0  0  0  0
   33.9680   30.1880   35.2630 N   0  0  0  0  0  0  0  0  0  0  0  0
   33.4650   31.1940   36.0060 C   0  0  0  0  0  0  0  0  0  0  0  0
   34.2140   32.2010   36.4490 N   0  0  0  0  0  0  0  0  0  0  0  0
   36.2220   33.0030   36.4660 H   0  0  0  0  0  0  0  0  0  0  0  0
   37.1330   31.1750   35.1180 H   0  0  0  0  0  0  0  0  0  0  0  0
   32.3910   31.1420   36.2290 H   0  0  0  0  0  0  0  0  0  0  0  0
  1  2  1  0  0  0  0
  2  3  1  0  0  0  0
  3  4  2  0  0  0  0
  3 31  1  0  0  0  0
  4  9  1  0  0  0  0
  5 13  1  0  0  0  0
  5  4  1  0  0  0  0
  6  5  2  0  0  0  0
  7  6  1  0  0  0  0
  8  6  1  0  0  0  0
  8  2  2  0  0  0  0
 10  8  1  0  0  0  0
 11 12  1  0  0  0  0
 12 13  2  0  0  0  0
 12 17  1  0  0  0  0
 13 14  1  0  0  0  0
 14 18  1  0  0  0  0
 14 15  2  0  0  0  0
 15 19  1  0  0  0  0
 16 15  1  0  0  0  0
 16 20  1  0  0  0  0
 17 16  2  0  0  0  0
 21 17  1  0  0  0  0
 21 28  1  0  0  0  0
 22 24  1  0  0  0  0
 22 21  2  0  0  0  0
 23 22  1  0  0  0  0
 24 26  2  0  0  0  0
 25 24  1  0  0  0  0
 26 27  1  0  0  0  0
 26 28  1  0  0  0  0
 29 34  1  0  0  0  0
 29 35  1  0  0  0  0
 30 29  2  0  0  0  0
 31 32  2  0  0  0  0
 31 30  1  0  0  0  0
 32 33  1  0  0  0  0
 33 37  1  0  0  0  0
 33 34  2  0  0  0  0
 36 30  1  0  0  0  0
M  END
>  <minimizedAffinity>
-5.55424356

$$$$

 OpenBabel03262523493D

 37 40  0  0  0  0  0  0  0  0999 V2000
   33.9860   31.3810   32.2420 Cl  0  0  0  0  0  0  0  0  0  0  0  0
   35.0870   30.0890   32.6770 C   0  0  0  0  0  0  0  0  0  0  0  0
   35.0420   29.5210   33.9450 C   0  0  0  0  0  0  0  0  0  0  0  0
   35.9340   28.5200   34.2050 C   0  0  0  0  0  0  0  0  0  0  0  0
   36.8460   28.0640   33.2890 C   0  0  0  0  0  0  0  0  0  0  0  0
   36.8640   28.6570   32.0290 C   0  0  0  0  0  0  0  0  0  0  0  0
   38.0310   28.0580   30.8910 Cl  0  0  0  0  0  0  0  0  0  0  0  0
   35.9860   29.6700   31.7160 C   0  0  0  0  0  0  0  0  0  0  0  0
   35.8840   28.0830   35.2120 H   0  0  0  0  0  0  0  0  0  0  0  0
   36.0060   30.1280   30.7230 H   0  0  0  0  0  0  0  0  0  0  0  0
   36.3540   25.2620   32.2100 Cl  0  0  0  0  0  0  0  0  0  0  0  0
   37.6620   25.6560   33.3350 C   0  0  0  0  0  0  0  0  0  0  0  0
   37.7300   26.9900   33.7180 C   0  0  0  0  0  0  0  0  0  0  0  0
   38.7300   27.3780   34.5990 C   0  0  0  0  0  0  0  0  0  0  0  0
   39.6520   26.4690   35.0970 C   0  0  0  0  0  0  0  0  0  0  0  0
   39.5430   25.1460   34.6860 C   0  0  0  0  0  0  0  0  0  0  0  0
   38.5620   24.7390   33.8150 C   0  0  0  0  0  0  0  0  0  0  0  0
   38.8420   28.3990   34.9380 H   0  0  0  0  0  0  0  0  0  0  0  0
   40.4360   26.7540   35.7830 H   0  0  0  0  0  0  0  0  0  0  0  0
   40.2660   24.4520   35.0830 H   0  0  0  0  0  0  0  0  0  0  0  0
   38.4380   23.3610   33.3770 C   0  0  0  0  0  0  0  0  0  0  0  0
   39.2160   22.7620   32.3800 C   0  0  0  0  0  0  0  0  0  0  0  0
   39.9900   23.2370   31.8190 H   0  0  0  0  0  0  0  0  0  0  0  0
   38.7060   21.4680   32.3510 C   0  0  0  0  0  0  0  0  0  0  0  0
   39.0770   20.6890   31.6760 H   0  0  0  0  0  0  0  0  0  0  0  0
   37.6950   21.3380   33.2800 C   0  0  0  0  0  0  0  0  0  0  0  0
   37.0990   20.4380   33.4960 H   0  0  0  0  0  0  0  0  0  0  0  0
   37.5630   22.5120   33.8840 O   0  0  0  0  0  0  0  0  0  0  0  0
   33.3580   31.5990   36.6190 C   0  0  0  0  0  0  0  0  0  0  0  0
   34.3340   31.1150   35.7330 C   0  0  0  0  0  0  0  0  0  0  0  0
   34.0480   30.0480   34.8790 C   0  0  0  0  0  0  0  0  0  0  0  0
   32.7910   29.5170   34.9550 N   0  0  0  0  0  0  0  0  0  0  0  0
   31.8860   30.0140   35.8220 C   0  0  0  0  0  0  0  0  0  0  0  0
   32.1570   31.0300   36.6360 N   0  0  0  0  0  0  0  0  0  0  0  0
   33.7000   32.4250   37.2280 H   0  0  0  0  0  0  0  0  0  0  0  0
   35.3410   31.5220   35.6540 H   0  0  0  0  0  0  0  0  0  0  0  0
   30.8990   29.5320   35.8220 H   0  0  0  0  0  0  0  0  0  0  0  0
  1  2  1  0  0  0  0
  2  3  1  0  0  0  0
  3  4  2  0  0  0  0
  3 31  1  0  0  0  0
  4  9  1  0  0  0  0
  5 13  1  0  0  0  0
  5  4  1  0  0  0  0
  6  5  2  0  0  0  0
  7  6  1  0  0  0  0
  8  6  1  0  0  0  0
  8  2  2  0  0  0  0
 10  8  1  0  0  0  0
 11 12  1  0  0  0  0
 12 13  2  0  0  0  0
 12 17  1  0  0  0  0
 13 14  1  0  0  0  0
 14 18  1  0  0  0  0
 14 15  2  0  0  0  0
 15 19  1  0  0  0  0
 16 20  1  0  0  0  0
 16 15  1  0  0  0  0
 17 16  2  0  0  0  0
 21 17  1  0  0  0  0
 21 28  1  0  0  0  0
 22 21  2  0  0  0  0
 23 22  1  0  0  0  0
 24 22  1  0  0  0  0
 24 26  2  0  0  0  0
 25 24  1  0  0  0  0
 26 27  1  0  0  0  0
 26 28  1  0  0  0  0
 29 34  1  0  0  0  0
 29 35  1  0  0  0  0
 30 29  2  0  0  0  0
 31 32  2  0  0  0  0
 31 30  1  0  0  0  0
 32 33  1  0  0  0  0
 33 37  1  0  0  0  0
 33 34  2  0  0  0  0
 36 30  1  0  0  0  0
M  END
>  <minimizedAffinity>
-5.51213551

$$$$
