
 OpenBabel03272508553D

 37 40  0  0  1  0  0  0  0  0999 V2000
   36.9260   26.8040   32.9310 C   0  0  0  0  0  0  0  0  0  0  0  0
   37.0710   26.2660   34.0700 O   0  0  0  0  0  0  0  0  0  0  0  0
   37.2160   26.0720   31.7350 N   0  0  0  0  0  0  0  0  0  0  0  0
   37.2720   26.4980   30.7850 H   0  0  0  0  0  0  0  0  0  0  0  0
   36.4570   28.1920   32.8150 C   0  0  0  0  0  0  0  0  0  0  0  0
   36.4850   28.7820   31.5790 C   0  0  0  0  0  0  0  0  0  0  0  0
   36.0410   30.0840   31.4480 C   0  0  0  0  0  0  0  0  0  0  0  0
   35.5880   30.7220   32.5830 C   0  0  0  0  0  0  0  0  0  0  0  0
   35.5560   30.1340   33.8350 C   0  0  0  0  0  0  0  0  0  0  0  0
   36.0030   28.8770   33.8720 N   0  0  0  0  0  0  0  0  0  0  0  0
   36.8290   28.3250   30.6600 H   0  0  0  0  0  0  0  0  0  0  0  0
   36.0360   30.6050   30.5010 H   0  0  0  0  0  0  0  0  0  0  0  0
   35.2420   31.7440   32.4700 H   0  0  0  0  0  0  0  0  0  0  0  0
   35.0750   30.8290   35.0220 C   0  0  0  0  0  0  0  0  0  0  0  0
   35.9020   31.5540   35.8670 C   0  0  0  0  0  0  0  0  0  0  0  0
   36.9640   31.6940   35.7620 H   0  0  0  0  0  0  0  0  0  0  0  0
   35.0110   32.0240   36.8360 C   0  0  0  0  0  0  0  0  0  0  0  0
   35.3010   32.6400   37.6770 H   0  0  0  0  0  0  0  0  0  0  0  0
   33.7400   31.5740   36.5400 C   0  0  0  0  0  0  0  0  0  0  0  0
   32.8140   31.7470   37.0740 H   0  0  0  0  0  0  0  0  0  0  0  0
   33.8130   30.8570   35.4380 O   0  0  0  0  0  0  0  0  0  0  0  0
   36.5260   23.7370   31.2180 C   0  0  2  0  0  0  0  0  0  0  0  0
   37.8060   23.9520   30.5280 C   0  0  0  0  0  0  0  0  0  0  0  0
   37.4460   24.6420   31.8670 C   0  0  1  0  0  0  0  0  0  0  0  0
   35.6490   24.1160   30.6530 H   0  0  0  0  0  0  0  0  0  0  0  0
   38.6150   23.2030   30.5290 H   0  0  0  0  0  0  0  0  0  0  0  0
   37.8400   24.5930   29.6250 H   0  0  0  0  0  0  0  0  0  0  0  0
   38.1170   24.3070   32.7030 H   0  0  0  0  0  0  0  0  0  0  0  0
   36.4320   21.0030   33.7140 C   0  0  0  0  0  0  0  0  0  0  0  0
   35.5460   20.0610   33.0990 C   0  0  0  0  0  0  0  0  0  0  0  0
   35.0020   20.4080   31.8060 C   0  0  0  0  0  0  0  0  0  0  0  0
   35.3450   21.5960   31.2300 N   0  0  0  0  0  0  0  0  0  0  0  0
   36.1990   22.4380   31.8880 C   0  0  0  0  0  0  0  0  0  0  0  0
   36.7570   22.1740   33.1230 N   0  0  0  0  0  0  0  0  0  0  0  0
   36.7980   20.6840   34.6670 H   0  0  0  0  0  0  0  0  0  0  0  0
   35.2980   19.1390   33.5770 H   0  0  0  0  0  0  0  0  0  0  0  0
   34.3360   19.7020   31.3410 H   0  0  0  0  0  0  0  0  0  0  0  0
  1  2  2  0  0  0  0
  3 24  1  0  0  0  0
  3  1  1  0  0  0  0
  4  3  1  0  0  0  0
  5  1  1  0  0  0  0
  5 10  1  0  0  0  0
  6  5  2  0  0  0  0
  7  6  1  0  0  0  0
  7  8  2  0  0  0  0
  8  9  1  0  0  0  0
  9 10  2  0  0  0  0
  9 14  1  0  0  0  0
 11  6  1  0  0  0  0
 12  7  1  0  0  0  0
 13  8  1  0  0  0  0
 14 21  1  0  0  0  0
 14 15  2  0  0  0  0
 15 17  1  0  0  0  0
 16 15  1  0  0  0  0
 17 18  1  0  0  0  0
 19 17  2  0  0  0  0
 19 20  1  0  0  0  0
 21 19  1  0  0  0  0
 22 25  1  6  0  0  0
 22 24  1  0  0  0  0
 22 33  1  0  0  0  0
 23 26  1  0  0  0  0
 23 22  1  0  0  0  0
 23 24  1  0  0  0  0
 24 28  1  1  0  0  0
 27 23  1  0  0  0  0
 29 35  1  0  0  0  0
 30 36  1  0  0  0  0
 30 29  2  0  0  0  0
 31 30  1  0  0  0  0
 32 31  2  0  0  0  0
 32 33  1  0  0  0  0
 33 34  2  0  0  0  0
 34 29  1  0  0  0  0
 37 31  1  0  0  0  0
M  END
>  <minimizedAffinity>
-5.63121033

$$$$

 OpenBabel03272508553D

 37 40  0  0  1  0  0  0  0  0999 V2000
   37.1360   26.0880   33.6630 C   0  0  0  0  0  0  0  0  0  0  0  0
   37.1210   25.1620   32.7970 O   0  0  0  0  0  0  0  0  0  0  0  0
   37.5350   25.8210   35.0110 N   0  0  0  0  0  0  0  0  0  0  0  0
   37.4180   26.4910   35.8020 H   0  0  0  0  0  0  0  0  0  0  0  0
   36.7440   27.4570   33.2990 C   0  0  0  0  0  0  0  0  0  0  0  0
   36.9170   27.8550   31.9990 C   0  0  0  0  0  0  0  0  0  0  0  0
   36.5480   29.1350   31.6360 C   0  0  0  0  0  0  0  0  0  0  0  0
   36.0190   29.9500   32.6150 C   0  0  0  0  0  0  0  0  0  0  0  0
   35.8410   29.5570   33.9290 C   0  0  0  0  0  0  0  0  0  0  0  0
   36.2240   28.3060   34.1940 N   0  0  0  0  0  0  0  0  0  0  0  0
   37.3260   27.2540   31.1960 H   0  0  0  0  0  0  0  0  0  0  0  0
   36.6580   29.5090   30.6270 H   0  0  0  0  0  0  0  0  0  0  0  0
   35.7330   30.9540   32.3200 H   0  0  0  0  0  0  0  0  0  0  0  0
   35.2810   30.4360   34.9470 C   0  0  0  0  0  0  0  0  0  0  0  0
   36.0570   31.2480   35.7620 C   0  0  0  0  0  0  0  0  0  0  0  0
   37.1310   31.3310   35.7500 H   0  0  0  0  0  0  0  0  0  0  0  0
   35.1000   31.8870   36.5550 C   0  0  0  0  0  0  0  0  0  0  0  0
   35.3370   32.6100   37.3250 H   0  0  0  0  0  0  0  0  0  0  0  0
   33.8430   31.4460   36.1940 C   0  0  0  0  0  0  0  0  0  0  0  0
   32.8790   31.7290   36.5970 H   0  0  0  0  0  0  0  0  0  0  0  0
   33.9870   30.5710   35.2200 O   0  0  0  0  0  0  0  0  0  0  0  0
   38.9360   24.3810   36.4810 C   0  0  2  0  0  0  0  0  0  0  0  0
   37.5720   23.8380   36.5500 C   0  0  0  0  0  0  0  0  0  0  0  0
   38.1400   24.5270   35.2840 C   0  0  1  0  0  0  0  0  0  0  0  0
   39.1070   25.2380   37.1660 H   0  0  0  0  0  0  0  0  0  0  0  0
   37.3600   22.7570   36.5040 H   0  0  0  0  0  0  0  0  0  0  0  0
   36.7920   24.3860   37.1140 H   0  0  0  0  0  0  0  0  0  0  0  0
   38.2280   23.8110   34.4230 H   0  0  0  0  0  0  0  0  0  0  0  0
   41.3200   21.6680   37.3000 C   0  0  0  0  0  0  0  0  0  0  0  0
   42.3440   21.8560   36.3160 C   0  0  0  0  0  0  0  0  0  0  0  0
   42.1740   22.9470   35.3830 C   0  0  0  0  0  0  0  0  0  0  0  0
   41.0690   23.7400   35.4710 N   0  0  0  0  0  0  0  0  0  0  0  0
   40.1390   23.4900   36.4430 C   0  0  0  0  0  0  0  0  0  0  0  0
   40.2330   22.4680   37.3670 N   0  0  0  0  0  0  0  0  0  0  0  0
   41.5080   20.8450   37.9570 H   0  0  0  0  0  0  0  0  0  0  0  0
   43.1970   21.2170   36.2750 H   0  0  0  0  0  0  0  0  0  0  0  0
   42.9420   23.0900   34.6430 H   0  0  0  0  0  0  0  0  0  0  0  0
  1  3  1  0  0  0  0
  2  1  2  0  0  0  0
  3 24  1  0  0  0  0
  3  4  1  0  0  0  0
  5  1  1  0  0  0  0
  5 10  1  0  0  0  0
  6  5  2  0  0  0  0
  7  6  1  0  0  0  0
  7  8  2  0  0  0  0
  8  9  1  0  0  0  0
  9 10  2  0  0  0  0
  9 14  1  0  0  0  0
 11  6  1  0  0  0  0
 12  7  1  0  0  0  0
 13  8  1  0  0  0  0
 14 21  1  0  0  0  0
 14 15  2  0  0  0  0
 15 17  1  0  0  0  0
 16 15  1  0  0  0  0
 17 18  1  0  0  0  0
 19 17  2  0  0  0  0
 19 20  1  0  0  0  0
 21 19  1  0  0  0  0
 22 23  1  0  0  0  0
 22 25  1  1  0  0  0
 23 27  1  0  0  0  0
 24 28  1  6  0  0  0
 24 22  1  0  0  0  0
 24 23  1  0  0  0  0
 26 23  1  0  0  0  0
 29 34  1  0  0  0  0
 29 35  1  0  0  0  0
 30 29  2  0  0  0  0
 31 32  2  0  0  0  0
 31 30  1  0  0  0  0
 32 33  1  0  0  0  0
 33 22  1  0  0  0  0
 33 34  2  0  0  0  0
 36 30  1  0  0  0  0
 37 31  1  0  0  0  0
M  END
>  <minimizedAffinity>
-5.4833951

$$$$

 OpenBabel03272508553D

 37 40  0  0  1  0  0  0  0  0999 V2000
   37.7600   26.9600   33.8840 C   0  0  0  0  0  0  0  0  0  0  0  0
   38.6170   27.1620   34.7970 O   0  0  0  0  0  0  0  0  0  0  0  0
   37.7700   25.7450   33.1280 N   0  0  0  0  0  0  0  0  0  0  0  0
   37.2030   25.5850   32.2670 H   0  0  0  0  0  0  0  0  0  0  0  0
   36.7370   27.9730   33.5830 C   0  0  0  0  0  0  0  0  0  0  0  0
   36.2170   28.0090   32.3160 C   0  0  0  0  0  0  0  0  0  0  0  0
   35.2500   28.9480   32.0160 C   0  0  0  0  0  0  0  0  0  0  0  0
   34.8580   29.8060   33.0220 C   0  0  0  0  0  0  0  0  0  0  0  0
   35.3780   29.7780   34.3040 C   0  0  0  0  0  0  0  0  0  0  0  0
   36.3070   28.8410   34.5070 N   0  0  0  0  0  0  0  0  0  0  0  0
   36.4900   27.3590   31.4950 H   0  0  0  0  0  0  0  0  0  0  0  0
   34.7990   29.0270   31.0370 H   0  0  0  0  0  0  0  0  0  0  0  0
   34.0980   30.5410   32.7760 H   0  0  0  0  0  0  0  0  0  0  0  0
   34.9500   30.6960   35.3500 C   0  0  0  0  0  0  0  0  0  0  0  0
   35.8050   31.5950   35.9700 C   0  0  0  0  0  0  0  0  0  0  0  0
   36.8540   31.7280   35.7680 H   0  0  0  0  0  0  0  0  0  0  0  0
   34.9620   32.2410   36.8790 C   0  0  0  0  0  0  0  0  0  0  0  0
   35.2840   33.0240   37.5530 H   0  0  0  0  0  0  0  0  0  0  0  0
   33.6890   31.7180   36.7670 C   0  0  0  0  0  0  0  0  0  0  0  0
   32.7930   31.9830   37.3140 H   0  0  0  0  0  0  0  0  0  0  0  0
   33.7150   30.7880   35.8350 O   0  0  0  0  0  0  0  0  0  0  0  0
   38.0960   23.7380   34.5640 C   0  0  2  0  0  0  0  0  0  0  0  0
   38.1470   23.2640   33.1740 C   0  0  0  0  0  0  0  0  0  0  0  0
   38.6300   24.6720   33.6000 C   0  0  1  0  0  0  0  0  0  0  0  0
   37.0640   23.8460   34.9570 H   0  0  0  0  0  0  0  0  0  0  0  0
   38.8990   22.5400   32.8200 H   0  0  0  0  0  0  0  0  0  0  0  0
   37.2140   23.2110   32.5790 H   0  0  0  0  0  0  0  0  0  0  0  0
   39.7360   24.7980   33.4470 H   0  0  0  0  0  0  0  0  0  0  0  0
   40.9170   21.9790   36.1940 C   0  0  0  0  0  0  0  0  0  0  0  0
   40.6720   22.2320   37.5820 C   0  0  0  0  0  0  0  0  0  0  0  0
   39.5050   23.0170   37.9170 C   0  0  0  0  0  0  0  0  0  0  0  0
   38.6980   23.4790   36.9190 N   0  0  0  0  0  0  0  0  0  0  0  0
   39.0060   23.1900   35.6190 C   0  0  0  0  0  0  0  0  0  0  0  0
   40.1010   22.4470   35.2240 N   0  0  0  0  0  0  0  0  0  0  0  0
   41.7940   21.3930   36.0170 H   0  0  0  0  0  0  0  0  0  0  0  0
   41.3240   21.8560   38.3380 H   0  0  0  0  0  0  0  0  0  0  0  0
   39.3180   23.2090   38.9590 H   0  0  0  0  0  0  0  0  0  0  0  0
  1  2  2  0  0  0  0
  3 24  1  0  0  0  0
  3  1  1  0  0  0  0
  4  3  1  0  0  0  0
  5  1  1  0  0  0  0
  5 10  1  0  0  0  0
  6  5  2  0  0  0  0
  7  6  1  0  0  0  0
  7  8  2  0  0  0  0
  8  9  1  0  0  0  0
  9 10  2  0  0  0  0
  9 14  1  0  0  0  0
 11  6  1  0  0  0  0
 12  7  1  0  0  0  0
 13  8  1  0  0  0  0
 14 21  1  0  0  0  0
 14 15  2  0  0  0  0
 15 17  1  0  0  0  0
 16 15  1  0  0  0  0
 17 18  1  0  0  0  0
 19 17  2  0  0  0  0
 19 20  1  0  0  0  0
 21 19  1  0  0  0  0
 22 25  1  1  0  0  0
 22 33  1  0  0  0  0
 23 24  1  0  0  0  0
 23 22  1  0  0  0  0
 24 28  1  1  0  0  0
 24 22  1  0  0  0  0
 26 23  1  0  0  0  0
 27 23  1  0  0  0  0
 29 30  1  0  0  0  0
 30 31  2  0  0  0  0
 30 36  1  0  0  0  0
 31 37  1  0  0  0  0
 32 31  1  0  0  0  0
 33 32  2  0  0  0  0
 34 33  1  0  0  0  0
 34 29  2  0  0  0  0
 35 29  1  0  0  0  0
M  END
>  <minimizedAffinity>
-5.43166924

$$$$

 OpenBabel03272508553D

 37 40  0  0  1  0  0  0  0  0999 V2000
   37.7830   25.1050   35.0150 C   0  0  0  0  0  0  0  0  0  0  0  0
   37.1590   26.1920   35.2030 O   0  0  0  0  0  0  0  0  0  0  0  0
   37.9030   24.5480   33.7020 N   0  0  0  0  0  0  0  0  0  0  0  0
   38.2590   23.5890   33.5010 H   0  0  0  0  0  0  0  0  0  0  0  0
   38.3980   24.3920   36.1450 C   0  0  0  0  0  0  0  0  0  0  0  0
   37.7540   24.4190   37.3540 C   0  0  0  0  0  0  0  0  0  0  0  0
   38.3120   23.7490   38.4250 C   0  0  0  0  0  0  0  0  0  0  0  0
   39.5000   23.0820   38.2130 C   0  0  0  0  0  0  0  0  0  0  0  0
   40.1570   23.0500   36.9970 C   0  0  0  0  0  0  0  0  0  0  0  0
   39.5500   23.7230   36.0170 N   0  0  0  0  0  0  0  0  0  0  0  0
   36.8220   24.9260   37.5700 H   0  0  0  0  0  0  0  0  0  0  0  0
   37.8520   23.7320   39.4040 H   0  0  0  0  0  0  0  0  0  0  0  0
   39.9300   22.5600   39.0610 H   0  0  0  0  0  0  0  0  0  0  0  0
   41.4130   22.3390   36.7970 C   0  0  0  0  0  0  0  0  0  0  0  0
   42.5610   22.9460   36.3080 C   0  0  0  0  0  0  0  0  0  0  0  0
   42.6710   23.9780   36.0240 H   0  0  0  0  0  0  0  0  0  0  0  0
   43.4800   21.8920   36.2920 C   0  0  0  0  0  0  0  0  0  0  0  0
   44.5060   21.9890   35.9640 H   0  0  0  0  0  0  0  0  0  0  0  0
   42.8630   20.7460   36.7530 C   0  0  0  0  0  0  0  0  0  0  0  0
   43.2750   19.7520   36.8740 H   0  0  0  0  0  0  0  0  0  0  0  0
   41.6170   21.0500   37.0500 O   0  0  0  0  0  0  0  0  0  0  0  0
   38.3910   26.4360   32.1550 C   0  0  2  0  0  0  0  0  0  0  0  0
   38.3980   25.2170   31.3340 C   0  0  0  0  0  0  0  0  0  0  0  0
   37.4980   25.3850   32.5830 C   0  0  1  0  0  0  0  0  0  0  0  0
   39.3520   26.6230   32.6780 H   0  0  0  0  0  0  0  0  0  0  0  0
   37.9120   25.1640   30.3460 H   0  0  0  0  0  0  0  0  0  0  0  0
   39.2450   24.5070   31.4150 H   0  0  0  0  0  0  0  0  0  0  0  0
   36.4080   25.3870   32.3150 H   0  0  0  0  0  0  0  0  0  0  0  0
   36.3190   29.4980   31.9400 C   0  0  0  0  0  0  0  0  0  0  0  0
   36.7830   30.0940   30.7230 C   0  0  0  0  0  0  0  0  0  0  0  0
   37.8180   29.3950   29.9950 C   0  0  0  0  0  0  0  0  0  0  0  0
   38.3060   28.2190   30.4840 N   0  0  0  0  0  0  0  0  0  0  0  0
   37.8050   27.7210   31.6550 C   0  0  0  0  0  0  0  0  0  0  0  0
   36.8190   28.3310   32.4040 N   0  0  0  0  0  0  0  0  0  0  0  0
   35.5540   30.0650   32.4270 H   0  0  0  0  0  0  0  0  0  0  0  0
   36.3790   31.0150   30.3680 H   0  0  0  0  0  0  0  0  0  0  0  0
   38.1680   29.8400   29.0800 H   0  0  0  0  0  0  0  0  0  0  0  0
  1  2  2  0  0  0  0
  1  5  1  0  0  0  0
  3  1  1  0  0  0  0
  4  3  1  0  0  0  0
  5  6  1  0  0  0  0
  6 11  1  0  0  0  0
  6  7  2  0  0  0  0
  7 12  1  0  0  0  0
  8  7  1  0  0  0  0
  8 13  1  0  0  0  0
  9  8  2  0  0  0  0
 10  5  2  0  0  0  0
 10  9  1  0  0  0  0
 14  9  1  0  0  0  0
 14 21  1  0  0  0  0
 15 14  2  0  0  0  0
 16 15  1  0  0  0  0
 17 15  1  0  0  0  0
 17 19  2  0  0  0  0
 18 17  1  0  0  0  0
 19 20  1  0  0  0  0
 19 21  1  0  0  0  0
 22 24  1  0  0  0  0
 22 25  1  1  0  0  0
 23 27  1  0  0  0  0
 23 22  1  0  0  0  0
 23 24  1  0  0  0  0
 24 28  1  6  0  0  0
 24  3  1  0  0  0  0
 26 23  1  0  0  0  0
 29 34  1  0  0  0  0
 29 35  1  0  0  0  0
 30 29  2  0  0  0  0
 31 32  2  0  0  0  0
 31 30  1  0  0  0  0
 32 33  1  0  0  0  0
 33 22  1  0  0  0  0
 33 34  2  0  0  0  0
 36 30  1  0  0  0  0
 37 31  1  0  0  0  0
M  END
>  <minimizedAffinity>
-5.33364582

$$$$

 OpenBabel03272508553D

 37 40  0  0  1  0  0  0  0  0999 V2000
   35.7370   25.5340   31.1790 C   0  0  0  0  0  0  0  0  0  0  0  0
   34.4900   25.5000   30.9540 O   0  0  0  0  0  0  0  0  0  0  0  0
   36.3760   26.7540   31.5680 N   0  0  0  0  0  0  0  0  0  0  0  0
   37.4090   26.8880   31.6110 H   0  0  0  0  0  0  0  0  0  0  0  0
   36.5540   24.3200   31.0420 C   0  0  0  0  0  0  0  0  0  0  0  0
   37.8330   24.4510   30.5670 C   0  0  0  0  0  0  0  0  0  0  0  0
   38.6180   23.3220   30.4390 C   0  0  0  0  0  0  0  0  0  0  0  0
   38.0640   22.1130   30.8020 C   0  0  0  0  0  0  0  0  0  0  0  0
   36.7750   21.9710   31.2820 C   0  0  0  0  0  0  0  0  0  0  0  0
   36.0850   23.1100   31.3740 N   0  0  0  0  0  0  0  0  0  0  0  0
   38.3120   25.3750   30.2710 H   0  0  0  0  0  0  0  0  0  0  0  0
   39.6340   23.3590   30.0720 H   0  0  0  0  0  0  0  0  0  0  0  0
   38.6890   21.2320   30.6970 H   0  0  0  0  0  0  0  0  0  0  0  0
   36.2100   20.6820   31.6580 C   0  0  0  0  0  0  0  0  0  0  0  0
   34.8740   20.5040   31.9900 C   0  0  0  0  0  0  0  0  0  0  0  0
   34.1110   21.2630   32.0110 H   0  0  0  0  0  0  0  0  0  0  0  0
   34.8090   19.1360   32.2700 C   0  0  0  0  0  0  0  0  0  0  0  0
   33.9060   18.6220   32.5710 H   0  0  0  0  0  0  0  0  0  0  0  0
   36.0610   18.5780   32.1020 C   0  0  0  0  0  0  0  0  0  0  0  0
   36.3720   17.5500   32.2330 H   0  0  0  0  0  0  0  0  0  0  0  0
   36.8830   19.5380   31.7320 O   0  0  0  0  0  0  0  0  0  0  0  0
   36.0670   28.9230   32.7510 C   0  0  2  0  0  0  0  0  0  0  0  0
   35.9790   29.2200   31.3140 C   0  0  0  0  0  0  0  0  0  0  0  0
   35.5180   27.8730   31.9240 C   0  0  1  0  0  0  0  0  0  0  0  0
   37.1090   28.8700   33.1300 H   0  0  0  0  0  0  0  0  0  0  0  0
   35.2130   29.8900   30.8930 H   0  0  0  0  0  0  0  0  0  0  0  0
   36.8970   29.2040   30.6950 H   0  0  0  0  0  0  0  0  0  0  0  0
   34.4100   27.7230   31.8150 H   0  0  0  0  0  0  0  0  0  0  0  0
   34.9090   31.1010   35.5130 C   0  0  0  0  0  0  0  0  0  0  0  0
   33.5040   30.8280   35.5470 C   0  0  0  0  0  0  0  0  0  0  0  0
   32.9920   29.8700   34.5940 C   0  0  0  0  0  0  0  0  0  0  0  0
   33.8470   29.2730   33.7150 N   0  0  0  0  0  0  0  0  0  0  0  0
   35.1770   29.5930   33.7520 C   0  0  0  0  0  0  0  0  0  0  0  0
   35.7370   30.4970   34.6320 N   0  0  0  0  0  0  0  0  0  0  0  0
   35.2210   31.8180   36.2430 H   0  0  0  0  0  0  0  0  0  0  0  0
   32.8610   31.3120   36.2480 H   0  0  0  0  0  0  0  0  0  0  0  0
   31.9360   29.6620   34.6170 H   0  0  0  0  0  0  0  0  0  0  0  0
  1  3  1  0  0  0  0
  2  1  2  0  0  0  0
  3  4  1  0  0  0  0
  3 24  1  0  0  0  0
  5  1  1  0  0  0  0
  5 10  1  0  0  0  0
  6  5  2  0  0  0  0
  7  6  1  0  0  0  0
  7  8  2  0  0  0  0
  8  9  1  0  0  0  0
  9 10  2  0  0  0  0
  9 14  1  0  0  0  0
 11  6  1  0  0  0  0
 12  7  1  0  0  0  0
 13  8  1  0  0  0  0
 14 21  1  0  0  0  0
 14 15  2  0  0  0  0
 15 16  1  0  0  0  0
 15 17  1  0  0  0  0
 17 18  1  0  0  0  0
 19 20  1  0  0  0  0
 19 17  2  0  0  0  0
 21 19  1  0  0  0  0
 22 25  1  1  0  0  0
 22 33  1  0  0  0  0
 23 24  1  0  0  0  0
 23 22  1  0  0  0  0
 24 28  1  1  0  0  0
 24 22  1  0  0  0  0
 26 23  1  0  0  0  0
 27 23  1  0  0  0  0
 29 30  1  0  0  0  0
 29 35  1  0  0  0  0
 30 36  1  0  0  0  0
 31 37  1  0  0  0  0
 31 30  2  0  0  0  0
 32 33  2  0  0  0  0
 32 31  1  0  0  0  0
 33 34  1  0  0  0  0
 34 29  2  0  0  0  0
M  END
>  <minimizedAffinity>
-5.29519606

$$$$

 OpenBabel03272508553D

 37 40  0  0  1  0  0  0  0  0999 V2000
   37.7790   25.4120   35.2000 C   0  0  0  0  0  0  0  0  0  0  0  0
   37.3750   26.5690   35.5250 O   0  0  0  0  0  0  0  0  0  0  0  0
   37.6300   24.9360   33.8590 N   0  0  0  0  0  0  0  0  0  0  0  0
   37.7910   23.9480   33.5650 H   0  0  0  0  0  0  0  0  0  0  0  0
   38.4090   24.5340   36.1970 C   0  0  0  0  0  0  0  0  0  0  0  0
   37.9250   24.5590   37.4780 C   0  0  0  0  0  0  0  0  0  0  0  0
   38.5000   23.7360   38.4270 C   0  0  0  0  0  0  0  0  0  0  0  0
   39.5400   22.9260   38.0250 C   0  0  0  0  0  0  0  0  0  0  0  0
   40.0350   22.8940   36.7340 C   0  0  0  0  0  0  0  0  0  0  0  0
   39.4240   23.7200   35.8820 N   0  0  0  0  0  0  0  0  0  0  0  0
   37.1130   25.1750   37.8420 H   0  0  0  0  0  0  0  0  0  0  0  0
   38.1630   23.7090   39.4540 H   0  0  0  0  0  0  0  0  0  0  0  0
   39.9850   22.2840   38.7780 H   0  0  0  0  0  0  0  0  0  0  0  0
   41.1370   22.0300   36.3320 C   0  0  0  0  0  0  0  0  0  0  0  0
   41.8940   21.2940   37.2320 C   0  0  0  0  0  0  0  0  0  0  0  0
   41.7720   21.2650   38.3020 H   0  0  0  0  0  0  0  0  0  0  0  0
   42.8070   20.6390   36.4000 C   0  0  0  0  0  0  0  0  0  0  0  0
   43.5720   19.9620   36.7550 H   0  0  0  0  0  0  0  0  0  0  0  0
   42.5650   21.0000   35.0890 C   0  0  0  0  0  0  0  0  0  0  0  0
   43.0780   20.6840   34.1900 H   0  0  0  0  0  0  0  0  0  0  0  0
   41.5510   21.8400   35.0830 O   0  0  0  0  0  0  0  0  0  0  0  0
   37.7450   25.7500   31.5090 C   0  0  2  0  0  0  0  0  0  0  0  0
   36.3670   25.2840   31.7180 C   0  0  0  0  0  0  0  0  0  0  0  0
   37.2260   25.9010   32.8490 C   0  0  1  0  0  0  0  0  0  0  0  0
   38.4550   24.9350   31.2560 H   0  0  0  0  0  0  0  0  0  0  0  0
   35.4890   25.8490   31.3630 H   0  0  0  0  0  0  0  0  0  0  0  0
   36.1590   24.1980   31.7790 H   0  0  0  0  0  0  0  0  0  0  0  0
   36.8000   26.8750   33.2130 H   0  0  0  0  0  0  0  0  0  0  0  0
   37.3030   28.8800   29.5810 C   0  0  0  0  0  0  0  0  0  0  0  0
   38.6540   29.2450   29.2800 C   0  0  0  0  0  0  0  0  0  0  0  0
   39.7000   28.3710   29.7600 C   0  0  0  0  0  0  0  0  0  0  0  0
   39.3690   27.2530   30.4680 N   0  0  0  0  0  0  0  0  0  0  0  0
   38.0500   26.9800   30.7110 C   0  0  0  0  0  0  0  0  0  0  0  0
   37.0000   27.7670   30.2850 N   0  0  0  0  0  0  0  0  0  0  0  0
   36.5810   29.5700   29.1970 H   0  0  0  0  0  0  0  0  0  0  0  0
   38.8800   30.1270   28.7230 H   0  0  0  0  0  0  0  0  0  0  0  0
   40.7170   28.6420   29.5350 H   0  0  0  0  0  0  0  0  0  0  0  0
  1  2  2  0  0  0  0
  1  5  1  0  0  0  0
  3  1  1  0  0  0  0
  4  3  1  0  0  0  0
  5  6  1  0  0  0  0
  6 11  1  0  0  0  0
  6  7  2  0  0  0  0
  7 12  1  0  0  0  0
  8  7  1  0  0  0  0
  8 13  1  0  0  0  0
  9  8  2  0  0  0  0
 10  5  2  0  0  0  0
 10  9  1  0  0  0  0
 14  9  1  0  0  0  0
 14 15  2  0  0  0  0
 15 16  1  0  0  0  0
 17 18  1  0  0  0  0
 17 15  1  0  0  0  0
 19 17  2  0  0  0  0
 20 19  1  0  0  0  0
 21 19  1  0  0  0  0
 21 14  1  0  0  0  0
 22 25  1  6  0  0  0
 22 23  1  0  0  0  0
 22 24  1  0  0  0  0
 23 27  1  0  0  0  0
 23 24  1  0  0  0  0
 24 28  1  1  0  0  0
 24  3  1  0  0  0  0
 26 23  1  0  0  0  0
 29 34  1  0  0  0  0
 30 29  2  0  0  0  0
 30 31  1  0  0  0  0
 31 32  2  0  0  0  0
 32 33  1  0  0  0  0
 33 22  1  0  0  0  0
 34 33  2  0  0  0  0
 35 29  1  0  0  0  0
 36 30  1  0  0  0  0
 37 31  1  0  0  0  0
M  END
>  <minimizedAffinity>
-5.20861387

$$$$

 OpenBabel03272508553D

 37 40  0  0  1  0  0  0  0  0999 V2000
   36.6950   27.1160   32.8370 C   0  0  0  0  0  0  0  0  0  0  0  0
   36.1250   27.1570   31.7050 O   0  0  0  0  0  0  0  0  0  0  0  0
   36.5370   28.1850   33.7750 N   0  0  0  0  0  0  0  0  0  0  0  0
   37.0990   28.2890   34.6470 H   0  0  0  0  0  0  0  0  0  0  0  0
   37.5320   25.9660   33.2090 C   0  0  0  0  0  0  0  0  0  0  0  0
   38.2180   25.3180   32.2160 C   0  0  0  0  0  0  0  0  0  0  0  0
   39.0160   24.2400   32.5480 C   0  0  0  0  0  0  0  0  0  0  0  0
   39.0770   23.8740   33.8760 C   0  0  0  0  0  0  0  0  0  0  0  0
   38.3880   24.5220   34.8850 C   0  0  0  0  0  0  0  0  0  0  0  0
   37.6410   25.5510   34.4780 N   0  0  0  0  0  0  0  0  0  0  0  0
   38.2040   25.5660   31.1630 H   0  0  0  0  0  0  0  0  0  0  0  0
   39.5830   23.6870   31.8110 H   0  0  0  0  0  0  0  0  0  0  0  0
   39.7060   23.0260   34.1260 H   0  0  0  0  0  0  0  0  0  0  0  0
   38.4670   24.1160   36.2820 C   0  0  0  0  0  0  0  0  0  0  0  0
   39.4510   23.2720   36.7740 C   0  0  0  0  0  0  0  0  0  0  0  0
   40.2540   22.8250   36.2130 H   0  0  0  0  0  0  0  0  0  0  0  0
   39.1210   23.1760   38.1290 C   0  0  0  0  0  0  0  0  0  0  0  0
   39.6780   22.5890   38.8480 H   0  0  0  0  0  0  0  0  0  0  0  0
   37.9960   23.9370   38.3770 C   0  0  0  0  0  0  0  0  0  0  0  0
   37.4690   24.0910   39.3090 H   0  0  0  0  0  0  0  0  0  0  0  0
   37.6260   24.4920   37.2410 O   0  0  0  0  0  0  0  0  0  0  0  0
   34.4700   29.3990   34.4460 C   0  0  2  0  0  0  0  0  0  0  0  0
   35.5530   30.3930   34.4510 C   0  0  0  0  0  0  0  0  0  0  0  0
   35.5230   29.1860   33.4810 C   0  0  1  0  0  0  0  0  0  0  0  0
   34.4150   28.8000   35.3780 H   0  0  0  0  0  0  0  0  0  0  0  0
   35.4330   31.4040   34.0280 H   0  0  0  0  0  0  0  0  0  0  0  0
   36.3110   30.3720   35.2580 H   0  0  0  0  0  0  0  0  0  0  0  0
   35.4220   29.5130   32.4110 H   0  0  0  0  0  0  0  0  0  0  0  0
   31.7220   30.8310   32.4180 C   0  0  0  0  0  0  0  0  0  0  0  0
   30.5590   30.2880   33.0550 C   0  0  0  0  0  0  0  0  0  0  0  0
   30.7700   29.4290   34.1980 C   0  0  0  0  0  0  0  0  0  0  0  0
   32.0420   29.1710   34.6190 N   0  0  0  0  0  0  0  0  0  0  0  0
   33.0960   29.7320   33.9520 C   0  0  0  0  0  0  0  0  0  0  0  0
   32.9720   30.5600   32.8540 N   0  0  0  0  0  0  0  0  0  0  0  0
   31.4940   31.4560   31.5810 H   0  0  0  0  0  0  0  0  0  0  0  0
   29.5780   30.5100   32.7000 H   0  0  0  0  0  0  0  0  0  0  0  0
   29.8990   29.0200   34.6790 H   0  0  0  0  0  0  0  0  0  0  0  0
  1  5  1  0  0  0  0
  1  3  1  0  0  0  0
  2  1  2  0  0  0  0
  3  4  1  0  0  0  0
  5 10  1  0  0  0  0
  6  7  1  0  0  0  0
  6  5  2  0  0  0  0
  7  8  2  0  0  0  0
  8 13  1  0  0  0  0
  8  9  1  0  0  0  0
  9 14  1  0  0  0  0
 10  9  2  0  0  0  0
 11  6  1  0  0  0  0
 12  7  1  0  0  0  0
 14 15  2  0  0  0  0
 14 21  1  0  0  0  0
 15 17  1  0  0  0  0
 16 15  1  0  0  0  0
 17 19  2  0  0  0  0
 17 18  1  0  0  0  0
 19 20  1  0  0  0  0
 21 19  1  0  0  0  0
 22 23  1  0  0  0  0
 22 25  1  1  0  0  0
 23 27  1  0  0  0  0
 24 28  1  6  0  0  0
 24  3  1  0  0  0  0
 24 22  1  0  0  0  0
 24 23  1  0  0  0  0
 26 23  1  0  0  0  0
 29 34  2  0  0  0  0
 29 30  1  0  0  0  0
 30 31  2  0  0  0  0
 31 32  1  0  0  0  0
 31 37  1  0  0  0  0
 33 22  1  0  0  0  0
 33 32  2  0  0  0  0
 34 33  1  0  0  0  0
 35 29  1  0  0  0  0
 36 30  1  0  0  0  0
M  END
>  <minimizedAffinity>
-5.17807007

$$$$

 OpenBabel03272508553D

 37 40  0  0  1  0  0  0  0  0999 V2000
   36.9830   27.0240   32.9500 C   0  0  0  0  0  0  0  0  0  0  0  0
   37.0200   27.4220   31.7470 O   0  0  0  0  0  0  0  0  0  0  0  0
   36.5070   27.8850   33.9900 N   0  0  0  0  0  0  0  0  0  0  0  0
   36.5990   27.6810   35.0090 H   0  0  0  0  0  0  0  0  0  0  0  0
   37.4290   25.6690   33.3030 C   0  0  0  0  0  0  0  0  0  0  0  0
   37.5190   24.7370   32.3020 C   0  0  0  0  0  0  0  0  0  0  0  0
   37.9440   23.4600   32.6120 C   0  0  0  0  0  0  0  0  0  0  0  0
   38.2580   23.1920   33.9280 C   0  0  0  0  0  0  0  0  0  0  0  0
   38.1690   24.1250   34.9450 C   0  0  0  0  0  0  0  0  0  0  0  0
   37.7510   25.3330   34.5580 N   0  0  0  0  0  0  0  0  0  0  0  0
   37.2860   24.8980   31.2570 H   0  0  0  0  0  0  0  0  0  0  0  0
   38.0370   22.6810   31.8680 H   0  0  0  0  0  0  0  0  0  0  0  0
   38.5900   22.1860   34.1610 H   0  0  0  0  0  0  0  0  0  0  0  0
   38.5050   23.8190   36.3290 C   0  0  0  0  0  0  0  0  0  0  0  0
   37.7560   24.2640   37.4090 C   0  0  0  0  0  0  0  0  0  0  0  0
   36.8660   24.8680   37.3690 H   0  0  0  0  0  0  0  0  0  0  0  0
   38.4500   23.7320   38.5000 C   0  0  0  0  0  0  0  0  0  0  0  0
   38.1550   23.8720   39.5320 H   0  0  0  0  0  0  0  0  0  0  0  0
   39.5410   23.0210   38.0410 C   0  0  0  0  0  0  0  0  0  0  0  0
   40.2900   22.4820   38.6070 H   0  0  0  0  0  0  0  0  0  0  0  0
   39.5450   23.0930   36.7260 O   0  0  0  0  0  0  0  0  0  0  0  0
   34.5430   29.4080   34.1190 C   0  0  2  0  0  0  0  0  0  0  0  0
   35.6610   30.1210   34.7530 C   0  0  0  0  0  0  0  0  0  0  0  0
   35.8550   29.1210   33.5870 C   0  0  1  0  0  0  0  0  0  0  0  0
   34.0290   28.6960   34.7980 H   0  0  0  0  0  0  0  0  0  0  0  0
   35.8690   31.1870   34.5650 H   0  0  0  0  0  0  0  0  0  0  0  0
   36.0150   29.8030   35.7540 H   0  0  0  0  0  0  0  0  0  0  0  0
   36.2440   29.6270   32.6640 H   0  0  0  0  0  0  0  0  0  0  0  0
   31.3660   30.8470   32.8740 C   0  0  0  0  0  0  0  0  0  0  0  0
   31.7680   31.4470   31.6370 C   0  0  0  0  0  0  0  0  0  0  0  0
   33.1590   31.3260   31.2630 C   0  0  0  0  0  0  0  0  0  0  0  0
   34.0200   30.6580   32.0830 N   0  0  0  0  0  0  0  0  0  0  0  0
   33.5500   30.1140   33.2470 C   0  0  0  0  0  0  0  0  0  0  0  0
   32.2380   30.1900   33.6700 N   0  0  0  0  0  0  0  0  0  0  0  0
   30.3260   30.9730   33.0890 H   0  0  0  0  0  0  0  0  0  0  0  0
   31.0690   31.9630   31.0180 H   0  0  0  0  0  0  0  0  0  0  0  0
   33.4650   31.7760   30.3340 H   0  0  0  0  0  0  0  0  0  0  0  0
  1  5  1  0  0  0  0
  1  3  1  0  0  0  0
  2  1  2  0  0  0  0
  3  4  1  0  0  0  0
  5 10  1  0  0  0  0
  6  7  1  0  0  0  0
  6  5  2  0  0  0  0
  7  8  2  0  0  0  0
  8 13  1  0  0  0  0
  8  9  1  0  0  0  0
  9 14  1  0  0  0  0
 10  9  2  0  0  0  0
 11  6  1  0  0  0  0
 12  7  1  0  0  0  0
 14 21  1  0  0  0  0
 14 15  2  0  0  0  0
 15 17  1  0  0  0  0
 16 15  1  0  0  0  0
 17 18  1  0  0  0  0
 19 17  2  0  0  0  0
 19 20  1  0  0  0  0
 21 19  1  0  0  0  0
 22 23  1  0  0  0  0
 22 25  1  1  0  0  0
 23 27  1  0  0  0  0
 24 28  1  6  0  0  0
 24  3  1  0  0  0  0
 24 22  1  0  0  0  0
 24 23  1  0  0  0  0
 26 23  1  0  0  0  0
 29 35  1  0  0  0  0
 29 34  1  0  0  0  0
 30 29  2  0  0  0  0
 31 30  1  0  0  0  0
 31 32  2  0  0  0  0
 32 33  1  0  0  0  0
 33 34  2  0  0  0  0
 33 22  1  0  0  0  0
 36 30  1  0  0  0  0
 37 31  1  0  0  0  0
M  END
>  <minimizedAffinity>
-5.12322474

$$$$

 OpenBabel03272508553D

 37 40  0  0  1  0  0  0  0  0999 V2000
   38.2160   26.0280   34.3420 C   0  0  0  0  0  0  0  0  0  0  0  0
   39.1130   26.8570   34.6840 O   0  0  0  0  0  0  0  0  0  0  0  0
   37.1150   26.4370   33.5250 N   0  0  0  0  0  0  0  0  0  0  0  0
   36.2700   25.8530   33.3430 H   0  0  0  0  0  0  0  0  0  0  0  0
   38.2900   24.6270   34.7800 C   0  0  0  0  0  0  0  0  0  0  0  0
   38.9710   24.3460   35.9360 C   0  0  0  0  0  0  0  0  0  0  0  0
   39.0450   23.0360   36.3680 C   0  0  0  0  0  0  0  0  0  0  0  0
   38.4220   22.0740   35.6020 C   0  0  0  0  0  0  0  0  0  0  0  0
   37.7330   22.3480   34.4340 C   0  0  0  0  0  0  0  0  0  0  0  0
   37.7110   23.6370   34.0900 N   0  0  0  0  0  0  0  0  0  0  0  0
   39.4750   25.0630   36.5710 H   0  0  0  0  0  0  0  0  0  0  0  0
   39.5660   22.7500   37.2710 H   0  0  0  0  0  0  0  0  0  0  0  0
   38.4860   21.0480   35.9490 H   0  0  0  0  0  0  0  0  0  0  0  0
   37.0830   21.3140   33.6400 C   0  0  0  0  0  0  0  0  0  0  0  0
   35.8420   20.7790   33.9560 C   0  0  0  0  0  0  0  0  0  0  0  0
   35.2220   21.0470   34.7950 H   0  0  0  0  0  0  0  0  0  0  0  0
   35.6410   19.8480   32.9330 C   0  0  0  0  0  0  0  0  0  0  0  0
   34.7610   19.2250   32.8460 H   0  0  0  0  0  0  0  0  0  0  0  0
   36.7290   19.8660   32.0840 C   0  0  0  0  0  0  0  0  0  0  0  0
   36.9080   19.2790   31.1920 H   0  0  0  0  0  0  0  0  0  0  0  0
   37.5810   20.7620   32.5380 O   0  0  0  0  0  0  0  0  0  0  0  0
   36.2090   28.1040   31.9140 C   0  0  2  0  0  0  0  0  0  0  0  0
   35.9810   28.6600   33.2550 C   0  0  0  0  0  0  0  0  0  0  0  0
   37.1910   27.7550   32.9140 C   0  0  1  0  0  0  0  0  0  0  0  0
   35.4290   27.3800   31.5960 H   0  0  0  0  0  0  0  0  0  0  0  0
   36.1750   29.7170   33.5000 H   0  0  0  0  0  0  0  0  0  0  0  0
   35.1940   28.2260   33.9010 H   0  0  0  0  0  0  0  0  0  0  0  0
   38.1640   28.3070   33.0070 H   0  0  0  0  0  0  0  0  0  0  0  0
   36.8000   31.0820   29.7940 C   0  0  0  0  0  0  0  0  0  0  0  0
   37.4420   30.5160   28.6460 C   0  0  0  0  0  0  0  0  0  0  0  0
   37.6480   29.0850   28.6400 C   0  0  0  0  0  0  0  0  0  0  0  0
   37.2330   28.3420   29.7060 N   0  0  0  0  0  0  0  0  0  0  0  0
   36.6270   28.9660   30.7620 C   0  0  0  0  0  0  0  0  0  0  0  0
   36.3980   30.3250   30.8380 N   0  0  0  0  0  0  0  0  0  0  0  0
   36.6800   32.1430   29.7330 H   0  0  0  0  0  0  0  0  0  0  0  0
   37.7550   31.1250   27.8280 H   0  0  0  0  0  0  0  0  0  0  0  0
   38.1300   28.6560   27.7780 H   0  0  0  0  0  0  0  0  0  0  0  0
  1  2  2  0  0  0  0
  1  5  1  0  0  0  0
  3  1  1  0  0  0  0
  4  3  1  0  0  0  0
  5  6  1  0  0  0  0
  6  7  2  0  0  0  0
  6 11  1  0  0  0  0
  7 12  1  0  0  0  0
  8 13  1  0  0  0  0
  8  7  1  0  0  0  0
  9  8  2  0  0  0  0
 10  9  1  0  0  0  0
 10  5  2  0  0  0  0
 14 15  2  0  0  0  0
 14  9  1  0  0  0  0
 15 16  1  0  0  0  0
 17 15  1  0  0  0  0
 18 17  1  0  0  0  0
 19 21  1  0  0  0  0
 19 17  2  0  0  0  0
 20 19  1  0  0  0  0
 21 14  1  0  0  0  0
 22 25  1  6  0  0  0
 22 24  1  0  0  0  0
 22 23  1  0  0  0  0
 23 26  1  0  0  0  0
 23 27  1  0  0  0  0
 24 28  1  6  0  0  0
 24 23  1  0  0  0  0
 24  3  1  0  0  0  0
 29 34  1  0  0  0  0
 30 29  2  0  0  0  0
 31 30  1  0  0  0  0
 31 32  2  0  0  0  0
 32 33  1  0  0  0  0
 33 34  2  0  0  0  0
 33 22  1  0  0  0  0
 35 29  1  0  0  0  0
 36 30  1  0  0  0  0
 37 31  1  0  0  0  0
M  END
>  <minimizedAffinity>
-5.0913167

$$$$
