
 OpenBabel03272506243D

 30 32  0  0  0  0  0  0  0  0999 V2000
   38.1950   30.7080   47.1180 C   0  0  0  0  0  0  0  0  0  0  0  0
   38.2600   29.8450   46.0460 C   0  0  0  0  0  0  0  0  0  0  0  0
   38.9330   30.1090   44.8620 C   0  0  0  0  0  0  0  0  0  0  0  0
   39.5980   31.3400   44.7360 C   0  0  0  0  0  0  0  0  0  0  0  0
   39.5330   32.2110   45.8190 C   0  0  0  0  0  0  0  0  0  0  0  0
   38.8600   31.9270   46.9820 C   0  0  0  0  0  0  0  0  0  0  0  0
   37.7730   28.8770   46.0660 H   0  0  0  0  0  0  0  0  0  0  0  0
   38.9610   29.4060   44.0410 H   0  0  0  0  0  0  0  0  0  0  0  0
   40.1440   31.6220   43.8490 H   0  0  0  0  0  0  0  0  0  0  0  0
   40.0500   33.1690   45.7240 H   0  0  0  0  0  0  0  0  0  0  0  0
   38.1930   30.0610   49.4670 C   0  0  0  0  0  0  0  0  0  0  0  0
   37.4520   30.2670   48.2650 C   0  0  0  0  0  0  0  0  0  0  0  0
   36.0850   30.0240   48.3050 C   0  0  0  0  0  0  0  0  0  0  0  0
   35.5170   29.6050   49.4760 N   0  0  0  0  0  0  0  0  0  0  0  0
   36.2630   29.4190   50.6130 C   0  0  0  0  0  0  0  0  0  0  0  0
   37.5990   29.6480   50.6020 N   0  0  0  0  0  0  0  0  0  0  0  0
   39.2580   30.2410   49.4680 H   0  0  0  0  0  0  0  0  0  0  0  0
   35.6820   29.0850   51.4660 H   0  0  0  0  0  0  0  0  0  0  0  0
   35.1920   30.1950   47.1350 C   0  0  0  0  0  0  0  0  0  0  0  0
   33.9480   30.7130   47.5640 F   0  0  0  0  0  0  0  0  0  0  0  0
   35.6570   30.9690   46.1350 F   0  0  0  0  0  0  0  0  0  0  0  0
   34.8460   28.9400   46.6200 F   0  0  0  0  0  0  0  0  0  0  0  0
   38.7900   32.8320   48.1090 C   0  0  0  0  0  0  0  0  0  0  0  0
   37.6550   33.0630   48.8950 C   0  0  0  0  0  0  0  0  0  0  0  0
   36.6790   32.6240   48.7970 H   0  0  0  0  0  0  0  0  0  0  0  0
   37.9940   33.9990   49.8790 C   0  0  0  0  0  0  0  0  0  0  0  0
   37.3140   34.3730   50.6350 H   0  0  0  0  0  0  0  0  0  0  0  0
   39.3260   34.2790   49.6260 C   0  0  0  0  0  0  0  0  0  0  0  0
   39.8440   34.9940   50.2620 H   0  0  0  0  0  0  0  0  0  0  0  0
   39.7440   33.5920   48.6070 O   0  0  0  0  0  0  0  0  0  0  0  0
  1 12  1  0  0  0  0
  2  7  1  0  0  0  0
  2  1  2  0  0  0  0
  3  2  1  0  0  0  0
  4  3  2  0  0  0  0
  4  5  1  0  0  0  0
  5  6  2  0  0  0  0
  6  1  1  0  0  0  0
  6 23  1  0  0  0  0
  8  3  1  0  0  0  0
  9  4  1  0  0  0  0
 10  5  1  0  0  0  0
 11 17  1  0  0  0  0
 11 16  1  0  0  0  0
 12 13  1  0  0  0  0
 12 11  2  0  0  0  0
 13 14  2  0  0  0  0
 14 15  1  0  0  0  0
 15 18  1  0  0  0  0
 16 15  2  0  0  0  0
 19 20  1  0  0  0  0
 19 13  1  0  0  0  0
 21 19  1  0  0  0  0
 22 19  1  0  0  0  0
 23 30  1  0  0  0  0
 23 24  2  0  0  0  0
 24 26  1  0  0  0  0
 25 24  1  0  0  0  0
 26 27  1  0  0  0  0
 28 26  2  0  0  0  0
 28 29  1  0  0  0  0
 30 28  1  0  0  0  0
M  END
>  <minimizedAffinity>
-4.39832687

>  <minimizedRMSD>
1.60825861

$$$$
