
 OpenBabel03272506193D

 33 35  0  0  0  0  0  0  0  0999 V2000
   37.3200   27.0290   33.7170 C   0  0  0  0  0  0  0  0  0  0  0  0
   37.5410   26.8870   35.2050 C   0  0  0  0  0  0  0  0  0  0  0  0
   38.9310   27.2280   35.6420 C   0  0  0  0  0  0  0  0  0  0  0  0
   39.9950   26.4820   34.8870 C   0  0  0  0  0  0  0  0  0  0  0  0
   39.6970   26.3240   33.4260 C   0  0  0  0  0  0  0  0  0  0  0  0
   38.5890   27.2530   32.9670 C   0  0  0  0  0  0  0  0  0  0  0  0
   36.8030   26.1450   33.2940 H   0  0  0  0  0  0  0  0  0  0  0  0
   36.8450   27.4830   35.7980 H   0  0  0  0  0  0  0  0  0  0  0  0
   37.4030   25.7980   35.4580 H   0  0  0  0  0  0  0  0  0  0  0  0
   39.0090   26.9410   36.7130 H   0  0  0  0  0  0  0  0  0  0  0  0
   39.0600   28.3300   35.6030 H   0  0  0  0  0  0  0  0  0  0  0  0
   40.2770   25.5250   35.3630 H   0  0  0  0  0  0  0  0  0  0  0  0
   40.9170   27.1210   34.9450 H   0  0  0  0  0  0  0  0  0  0  0  0
   40.5720   26.5410   32.7790 H   0  0  0  0  0  0  0  0  0  0  0  0
   39.3900   25.2530   33.2780 H   0  0  0  0  0  0  0  0  0  0  0  0
   38.4690   27.0720   31.8930 H   0  0  0  0  0  0  0  0  0  0  0  0
   38.9850   28.2880   33.1550 H   0  0  0  0  0  0  0  0  0  0  0  0
   36.4230   28.1940   33.4610 C   0  0  0  0  0  0  0  0  0  0  0  0
   36.0750   28.9910   34.5640 C   0  0  0  0  0  0  0  0  0  0  0  0
   35.2380   30.0690   34.3260 C   0  0  0  0  0  0  0  0  0  0  0  0
   34.7800   30.3230   33.0470 N   0  0  0  0  0  0  0  0  0  0  0  0
   35.1460   29.5160   32.0030 C   0  0  0  0  0  0  0  0  0  0  0  0
   35.9550   28.4730   32.2210 N   0  0  0  0  0  0  0  0  0  0  0  0
   36.3770   28.8620   35.5640 H   0  0  0  0  0  0  0  0  0  0  0  0
   34.7490   29.7750   31.0330 H   0  0  0  0  0  0  0  0  0  0  0  0
   34.8280   30.9490   35.4160 C   0  0  0  0  0  0  0  0  0  0  0  0
   35.6450   31.8420   36.0790 C   0  0  0  0  0  0  0  0  0  0  0  0
   36.7010   31.9980   35.8650 H   0  0  0  0  0  0  0  0  0  0  0  0
   34.8000   32.4400   37.0230 C   0  0  0  0  0  0  0  0  0  0  0  0
   35.1450   33.2020   37.7160 H   0  0  0  0  0  0  0  0  0  0  0  0
   33.5470   31.8810   36.8760 C   0  0  0  0  0  0  0  0  0  0  0  0
   32.6950   32.1780   37.5020 H   0  0  0  0  0  0  0  0  0  0  0  0
   33.6280   31.0030   35.9070 O   0  0  0  0  0  0  0  0  0  0  0  0
  1  2  1  0  0  0  0
  2  9  1  0  0  0  0
  2  3  1  0  0  0  0
  2  8  1  0  0  0  0
  3 10  1  0  0  0  0
  4 13  1  0  0  0  0
  4 12  1  0  0  0  0
  4  3  1  0  0  0  0
  5  4  1  0  0  0  0
  6 17  1  0  0  0  0
  6  5  1  0  0  0  0
  6  1  1  0  0  0  0
  7  1  1  0  0  0  0
 11  3  1  0  0  0  0
 14  5  1  0  0  0  0
 15  5  1  0  0  0  0
 16  6  1  0  0  0  0
 18  1  1  0  0  0  0
 18 19  1  0  0  0  0
 19 24  1  0  0  0  0
 20 19  2  0  0  0  0
 20 26  1  0  0  0  0
 21 20  1  0  0  0  0
 22 23  1  0  0  0  0
 22 21  2  0  0  0  0
 23 18  2  0  0  0  0
 25 22  1  0  0  0  0
 26 33  1  0  0  0  0
 26 27  2  0  0  0  0
 27 29  1  0  0  0  0
 28 27  1  0  0  0  0
 29 30  1  0  0  0  0
 31 29  2  0  0  0  0
 31 32  1  0  0  0  0
 33 31  1  0  0  0  0
M  END
>  <minimizedAffinity>
-5.13961506

$$$$

 OpenBabel03272506193D

 33 35  0  0  0  0  0  0  0  0999 V2000
   38.0190   25.9990   33.5490 C   0  0  0  0  0  0  0  0  0  0  0  0
   38.4910   24.9360   34.5130 C   0  0  0  0  0  0  0  0  0  0  0  0
   38.0170   25.1440   35.9180 C   0  0  0  0  0  0  0  0  0  0  0  0
   38.3320   26.5100   36.4590 C   0  0  0  0  0  0  0  0  0  0  0  0
   38.1660   27.6080   35.4520 C   0  0  0  0  0  0  0  0  0  0  0  0
   37.3760   27.1550   34.2390 C   0  0  0  0  0  0  0  0  0  0  0  0
   38.8480   26.3720   32.9150 H   0  0  0  0  0  0  0  0  0  0  0  0
   38.2080   23.9270   34.2080 H   0  0  0  0  0  0  0  0  0  0  0  0
   39.6140   25.0050   34.5600 H   0  0  0  0  0  0  0  0  0  0  0  0
   38.5470   24.3980   36.5480 H   0  0  0  0  0  0  0  0  0  0  0  0
   36.9380   24.8900   35.9740 H   0  0  0  0  0  0  0  0  0  0  0  0
   39.3080   26.5580   36.9760 H   0  0  0  0  0  0  0  0  0  0  0  0
   37.5670   26.7070   37.2580 H   0  0  0  0  0  0  0  0  0  0  0  0
   37.6310   28.4920   35.8580 H   0  0  0  0  0  0  0  0  0  0  0  0
   39.2020   27.9180   35.1460 H   0  0  0  0  0  0  0  0  0  0  0  0
   37.2980   28.0310   33.5850 H   0  0  0  0  0  0  0  0  0  0  0  0
   36.3690   26.8660   34.6430 H   0  0  0  0  0  0  0  0  0  0  0  0
   37.0180   25.4070   32.6140 C   0  0  0  0  0  0  0  0  0  0  0  0
   36.9450   24.0050   32.5540 C   0  0  0  0  0  0  0  0  0  0  0  0
   36.0190   23.4570   31.6820 C   0  0  0  0  0  0  0  0  0  0  0  0
   35.2160   24.2810   30.9150 N   0  0  0  0  0  0  0  0  0  0  0  0
   35.3250   25.6420   31.0070 C   0  0  0  0  0  0  0  0  0  0  0  0
   36.2150   26.1830   31.8480 N   0  0  0  0  0  0  0  0  0  0  0  0
   37.5210   23.3140   33.1000 H   0  0  0  0  0  0  0  0  0  0  0  0
   34.6660   26.2210   30.3770 H   0  0  0  0  0  0  0  0  0  0  0  0
   35.8770   22.0100   31.5590 C   0  0  0  0  0  0  0  0  0  0  0  0
   35.0140   21.2220   32.2930 C   0  0  0  0  0  0  0  0  0  0  0  0
   34.3300   21.5890   33.0560 H   0  0  0  0  0  0  0  0  0  0  0  0
   35.2470   19.9260   31.8150 C   0  0  0  0  0  0  0  0  0  0  0  0
   34.7170   19.0570   32.1960 H   0  0  0  0  0  0  0  0  0  0  0  0
   36.2210   20.0090   30.8400 C   0  0  0  0  0  0  0  0  0  0  0  0
   36.5900   19.1250   30.3020 H   0  0  0  0  0  0  0  0  0  0  0  0
   36.5540   21.2710   30.7350 O   0  0  0  0  0  0  0  0  0  0  0  0
  1  6  1  0  0  0  0
  1  2  1  0  0  0  0
  2  9  1  0  0  0  0
  2  3  1  0  0  0  0
  3 11  1  0  0  0  0
  3  4  1  0  0  0  0
  3 10  1  0  0  0  0
  4 12  1  0  0  0  0
  4 13  1  0  0  0  0
  5 14  1  0  0  0  0
  5  4  1  0  0  0  0
  6 17  1  0  0  0  0
  6  5  1  0  0  0  0
  7  1  1  0  0  0  0
  8  2  1  0  0  0  0
 15  5  1  0  0  0  0
 16  6  1  0  0  0  0
 18  1  1  0  0  0  0
 19 18  1  0  0  0  0
 19 24  1  0  0  0  0
 20 19  2  0  0  0  0
 21 22  2  0  0  0  0
 21 20  1  0  0  0  0
 22 23  1  0  0  0  0
 23 18  2  0  0  0  0
 25 22  1  0  0  0  0
 26 20  1  0  0  0  0
 26 27  2  0  0  0  0
 27 28  1  0  0  0  0
 29 30  1  0  0  0  0
 29 27  1  0  0  0  0
 31 29  2  0  0  0  0
 32 31  1  0  0  0  0
 33 31  1  0  0  0  0
 33 26  1  0  0  0  0
M  END
>  <minimizedAffinity>
-5.06562901

$$$$

 OpenBabel03272506193D

 33 35  0  0  0  0  0  0  0  0999 V2000
   38.2350   26.7600   32.9530 C   0  0  0  0  0  0  0  0  0  0  0  0
   39.6230   26.8160   33.5470 C   0  0  0  0  0  0  0  0  0  0  0  0
   39.6600   26.5300   35.0160 C   0  0  0  0  0  0  0  0  0  0  0  0
   38.7200   27.3860   35.8160 C   0  0  0  0  0  0  0  0  0  0  0  0
   37.4020   27.6230   35.1430 C   0  0  0  0  0  0  0  0  0  0  0  0
   37.1690   26.6620   33.9920 C   0  0  0  0  0  0  0  0  0  0  0  0
   38.0310   27.6390   32.3090 H   0  0  0  0  0  0  0  0  0  0  0  0
   40.3250   26.1410   33.0540 H   0  0  0  0  0  0  0  0  0  0  0  0
   39.9890   27.8750   33.4370 H   0  0  0  0  0  0  0  0  0  0  0  0
   40.6950   26.7490   35.3580 H   0  0  0  0  0  0  0  0  0  0  0  0
   39.5020   25.4420   35.1740 H   0  0  0  0  0  0  0  0  0  0  0  0
   39.1830   28.3240   36.1740 H   0  0  0  0  0  0  0  0  0  0  0  0
   38.4890   26.8000   36.7470 H   0  0  0  0  0  0  0  0  0  0  0  0
   36.5370   27.5020   35.8270 H   0  0  0  0  0  0  0  0  0  0  0  0
   37.4230   28.6810   34.7650 H   0  0  0  0  0  0  0  0  0  0  0  0
   36.1800   26.9070   33.5890 H   0  0  0  0  0  0  0  0  0  0  0  0
   37.1670   25.6430   34.4640 H   0  0  0  0  0  0  0  0  0  0  0  0
   38.1250   25.5640   32.0680 C   0  0  0  0  0  0  0  0  0  0  0  0
   37.3180   24.5050   32.5160 C   0  0  0  0  0  0  0  0  0  0  0  0
   37.2210   23.3930   31.6960 C   0  0  0  0  0  0  0  0  0  0  0  0
   37.9030   23.3550   30.4940 N   0  0  0  0  0  0  0  0  0  0  0  0
   38.6790   24.4120   30.1010 C   0  0  0  0  0  0  0  0  0  0  0  0
   38.7790   25.4920   30.8840 N   0  0  0  0  0  0  0  0  0  0  0  0
   36.7740   24.4570   33.4150 H   0  0  0  0  0  0  0  0  0  0  0  0
   39.1820   24.3120   29.1510 H   0  0  0  0  0  0  0  0  0  0  0  0
   36.4020   22.2490   32.0850 C   0  0  0  0  0  0  0  0  0  0  0  0
   35.4670   21.6220   31.2880 C   0  0  0  0  0  0  0  0  0  0  0  0
   35.2270   21.9070   30.2650 H   0  0  0  0  0  0  0  0  0  0  0  0
   34.9580   20.6000   32.1000 C   0  0  0  0  0  0  0  0  0  0  0  0
   34.1890   19.9110   31.7610 H   0  0  0  0  0  0  0  0  0  0  0  0
   35.6050   20.6720   33.3180 C   0  0  0  0  0  0  0  0  0  0  0  0
   35.3880   19.9770   34.1400 H   0  0  0  0  0  0  0  0  0  0  0  0
   36.4500   21.6710   33.2460 O   0  0  0  0  0  0  0  0  0  0  0  0
  1  2  1  0  0  0  0
  1  6  1  0  0  0  0
  2  3  1  0  0  0  0
  3 11  1  0  0  0  0
  3 10  1  0  0  0  0
  3  4  1  0  0  0  0
  4 12  1  0  0  0  0
  4 13  1  0  0  0  0
  5  4  1  0  0  0  0
  5 14  1  0  0  0  0
  6 17  1  0  0  0  0
  6  5  1  0  0  0  0
  7  1  1  0  0  0  0
  8  2  1  0  0  0  0
  9  2  1  0  0  0  0
 15  5  1  0  0  0  0
 16  6  1  0  0  0  0
 18 19  1  0  0  0  0
 18  1  1  0  0  0  0
 19 24  1  0  0  0  0
 20 26  1  0  0  0  0
 20 19  2  0  0  0  0
 21 20  1  0  0  0  0
 22 21  2  0  0  0  0
 22 23  1  0  0  0  0
 23 18  2  0  0  0  0
 25 22  1  0  0  0  0
 26 33  1  0  0  0  0
 27 26  2  0  0  0  0
 27 29  1  0  0  0  0
 28 27  1  0  0  0  0
 29 31  2  0  0  0  0
 30 29  1  0  0  0  0
 31 32  1  0  0  0  0
 33 31  1  0  0  0  0
M  END
>  <minimizedAffinity>
-4.91097498

$$$$

 OpenBabel03272506193D

 33 35  0  0  0  0  0  0  0  0999 V2000
   37.0040   21.9340   31.8180 C   0  0  0  0  0  0  0  0  0  0  0  0
   35.5120   21.9370   31.5770 C   0  0  0  0  0  0  0  0  0  0  0  0
   34.7990   20.7830   32.2090 C   0  0  0  0  0  0  0  0  0  0  0  0
   35.3790   19.4470   31.8410 C   0  0  0  0  0  0  0  0  0  0  0  0
   36.8770   19.4410   31.7710 C   0  0  0  0  0  0  0  0  0  0  0  0
   37.4840   20.6630   32.4340 C   0  0  0  0  0  0  0  0  0  0  0  0
   37.5690   22.1170   30.8820 H   0  0  0  0  0  0  0  0  0  0  0  0
   35.0280   22.8560   31.9110 H   0  0  0  0  0  0  0  0  0  0  0  0
   35.3550   21.8190   30.4680 H   0  0  0  0  0  0  0  0  0  0  0  0
   33.7520   20.8120   31.8370 H   0  0  0  0  0  0  0  0  0  0  0  0
   34.7470   20.9490   33.3050 H   0  0  0  0  0  0  0  0  0  0  0  0
   34.9160   19.0030   30.9410 H   0  0  0  0  0  0  0  0  0  0  0  0
   35.1090   18.7530   32.6820 H   0  0  0  0  0  0  0  0  0  0  0  0
   37.3320   18.5600   32.2690 H   0  0  0  0  0  0  0  0  0  0  0  0
   37.1440   19.4200   30.6790 H   0  0  0  0  0  0  0  0  0  0  0  0
   38.5690   20.5480   32.3440 H   0  0  0  0  0  0  0  0  0  0  0  0
   37.1620   20.5970   33.5080 H   0  0  0  0  0  0  0  0  0  0  0  0
   37.3570   23.0530   32.7390 C   0  0  0  0  0  0  0  0  0  0  0  0
   37.8220   22.7090   34.0190 C   0  0  0  0  0  0  0  0  0  0  0  0
   38.1440   23.7490   34.8760 C   0  0  0  0  0  0  0  0  0  0  0  0
   38.0020   25.0600   34.4600 N   0  0  0  0  0  0  0  0  0  0  0  0
   37.5430   25.3460   33.2020 C   0  0  0  0  0  0  0  0  0  0  0  0
   37.2310   24.3490   32.3660 N   0  0  0  0  0  0  0  0  0  0  0  0
   37.9520   21.7410   34.4100 H   0  0  0  0  0  0  0  0  0  0  0  0
   37.4580   26.3910   32.9470 H   0  0  0  0  0  0  0  0  0  0  0  0
   38.6360   23.4800   36.2230 C   0  0  0  0  0  0  0  0  0  0  0  0
   37.9940   23.8200   37.3960 C   0  0  0  0  0  0  0  0  0  0  0  0
   37.0350   24.3340   37.4560 H   0  0  0  0  0  0  0  0  0  0  0  0
   38.8520   23.3560   38.4010 C   0  0  0  0  0  0  0  0  0  0  0  0
   38.6310   23.4720   39.4590 H   0  0  0  0  0  0  0  0  0  0  0  0
   39.9420   22.7750   37.7850 C   0  0  0  0  0  0  0  0  0  0  0  0
   40.7690   22.3300   38.3530 H   0  0  0  0  0  0  0  0  0  0  0  0
   39.7550   22.8800   36.4920 O   0  0  0  0  0  0  0  0  0  0  0  0
  1  6  1  0  0  0  0
  1 18  1  0  0  0  0
  2  1  1  0  0  0  0
  2  8  1  0  0  0  0
  2  3  1  0  0  0  0
  3 11  1  0  0  0  0
  4  3  1  0  0  0  0
  4 13  1  0  0  0  0
  5  4  1  0  0  0  0
  5 14  1  0  0  0  0
  5  6  1  0  0  0  0
  6 17  1  0  0  0  0
  7  1  1  0  0  0  0
  9  2  1  0  0  0  0
 10  3  1  0  0  0  0
 12  4  1  0  0  0  0
 15  5  1  0  0  0  0
 16  6  1  0  0  0  0
 18 19  1  0  0  0  0
 19 24  1  0  0  0  0
 19 20  2  0  0  0  0
 20 26  1  0  0  0  0
 21 20  1  0  0  0  0
 22 21  2  0  0  0  0
 23 18  2  0  0  0  0
 23 22  1  0  0  0  0
 25 22  1  0  0  0  0
 26 33  1  0  0  0  0
 26 27  2  0  0  0  0
 27 28  1  0  0  0  0
 27 29  1  0  0  0  0
 29 30  1  0  0  0  0
 31 32  1  0  0  0  0
 31 29  2  0  0  0  0
 33 31  1  0  0  0  0
M  END
>  <minimizedAffinity>
-4.89069748

$$$$

 OpenBabel03272506193D

 33 35  0  0  0  0  0  0  0  0999 V2000
   34.6060   31.0170   34.1650 C   0  0  0  0  0  0  0  0  0  0  0  0
   35.6340   32.0040   34.6640 C   0  0  0  0  0  0  0  0  0  0  0  0
   35.7690   32.0300   36.1550 C   0  0  0  0  0  0  0  0  0  0  0  0
   34.4640   32.2360   36.8700 C   0  0  0  0  0  0  0  0  0  0  0  0
   33.3140   31.5050   36.2440 C   0  0  0  0  0  0  0  0  0  0  0  0
   33.7780   30.4430   35.2650 C   0  0  0  0  0  0  0  0  0  0  0  0
   33.9360   31.4720   33.4090 H   0  0  0  0  0  0  0  0  0  0  0  0
   36.6260   31.8400   34.2390 H   0  0  0  0  0  0  0  0  0  0  0  0
   35.2750   33.0320   34.3760 H   0  0  0  0  0  0  0  0  0  0  0  0
   36.4310   32.8880   36.4010 H   0  0  0  0  0  0  0  0  0  0  0  0
   36.3070   31.1160   36.4820 H   0  0  0  0  0  0  0  0  0  0  0  0
   34.2330   33.3000   37.0560 H   0  0  0  0  0  0  0  0  0  0  0  0
   34.5980   31.7820   37.8890 H   0  0  0  0  0  0  0  0  0  0  0  0
   32.6750   30.9840   36.9870 H   0  0  0  0  0  0  0  0  0  0  0  0
   32.6970   32.2790   35.7120 H   0  0  0  0  0  0  0  0  0  0  0  0
   32.8690   29.9630   34.8870 H   0  0  0  0  0  0  0  0  0  0  0  0
   34.3810   29.7260   35.8830 H   0  0  0  0  0  0  0  0  0  0  0  0
   35.2990   29.8890   33.4760 C   0  0  0  0  0  0  0  0  0  0  0  0
   35.9650   28.9540   34.2860 C   0  0  0  0  0  0  0  0  0  0  0  0
   36.6120   27.9100   33.6460 C   0  0  0  0  0  0  0  0  0  0  0  0
   36.5890   27.8210   32.2660 N   0  0  0  0  0  0  0  0  0  0  0  0
   35.9280   28.7580   31.5190 C   0  0  0  0  0  0  0  0  0  0  0  0
   35.2970   29.7690   32.1270 N   0  0  0  0  0  0  0  0  0  0  0  0
   36.0320   28.9550   35.3360 H   0  0  0  0  0  0  0  0  0  0  0  0
   35.9520   28.6240   30.4480 H   0  0  0  0  0  0  0  0  0  0  0  0
   37.3270   26.8940   34.4120 C   0  0  0  0  0  0  0  0  0  0  0  0
   37.9770   27.1010   35.6110 C   0  0  0  0  0  0  0  0  0  0  0  0
   38.0350   28.0540   36.1330 H   0  0  0  0  0  0  0  0  0  0  0  0
   38.4980   25.8420   35.9370 C   0  0  0  0  0  0  0  0  0  0  0  0
   39.0750   25.6630   36.8400 H   0  0  0  0  0  0  0  0  0  0  0  0
   38.1370   24.9660   34.9320 C   0  0  0  0  0  0  0  0  0  0  0  0
   38.4230   23.9060   34.9470 H   0  0  0  0  0  0  0  0  0  0  0  0
   37.4440   25.6510   34.0560 O   0  0  0  0  0  0  0  0  0  0  0  0
  1  2  1  0  0  0  0
  1  6  1  0  0  0  0
  2  3  1  0  0  0  0
  3 10  1  0  0  0  0
  3 11  1  0  0  0  0
  3  4  1  0  0  0  0
  4 12  1  0  0  0  0
  4 13  1  0  0  0  0
  5  4  1  0  0  0  0
  5 14  1  0  0  0  0
  6 17  1  0  0  0  0
  6  5  1  0  0  0  0
  7  1  1  0  0  0  0
  8  2  1  0  0  0  0
  9  2  1  0  0  0  0
 15  5  1  0  0  0  0
 16  6  1  0  0  0  0
 18  1  1  0  0  0  0
 18 19  1  0  0  0  0
 19 24  1  0  0  0  0
 20 19  2  0  0  0  0
 20 26  1  0  0  0  0
 21 20  1  0  0  0  0
 22 23  1  0  0  0  0
 22 21  2  0  0  0  0
 23 18  2  0  0  0  0
 25 22  1  0  0  0  0
 26 27  2  0  0  0  0
 27 29  1  0  0  0  0
 27 28  1  0  0  0  0
 29 30  1  0  0  0  0
 31 32  1  0  0  0  0
 31 29  2  0  0  0  0
 33 26  1  0  0  0  0
 33 31  1  0  0  0  0
M  END
>  <minimizedAffinity>
-4.86889553

$$$$

 OpenBabel03272506193D

 33 35  0  0  0  0  0  0  0  0999 V2000
   35.1380   30.8020   33.5720 C   0  0  0  0  0  0  0  0  0  0  0  0
   35.3570   32.2680   33.2780 C   0  0  0  0  0  0  0  0  0  0  0  0
   36.4150   32.9000   34.1260 C   0  0  0  0  0  0  0  0  0  0  0  0
   36.2010   32.6950   35.6000 C   0  0  0  0  0  0  0  0  0  0  0  0
   35.6930   31.3280   35.9490 C   0  0  0  0  0  0  0  0  0  0  0  0
   35.8530   30.3500   34.8000 C   0  0  0  0  0  0  0  0  0  0  0  0
   34.0610   30.5620   33.6730 H   0  0  0  0  0  0  0  0  0  0  0  0
   35.6040   32.4600   32.2320 H   0  0  0  0  0  0  0  0  0  0  0  0
   34.4010   32.8050   33.5360 H   0  0  0  0  0  0  0  0  0  0  0  0
   36.3750   33.9930   33.9260 H   0  0  0  0  0  0  0  0  0  0  0  0
   37.4100   32.5540   33.7770 H   0  0  0  0  0  0  0  0  0  0  0  0
   35.6040   33.4970   36.0690 H   0  0  0  0  0  0  0  0  0  0  0  0
   37.2190   32.7730   36.0700 H   0  0  0  0  0  0  0  0  0  0  0  0
   36.2190   30.8780   36.8160 H   0  0  0  0  0  0  0  0  0  0  0  0
   34.6050   31.4500   36.2050 H   0  0  0  0  0  0  0  0  0  0  0  0
   35.4740   29.3900   35.1660 H   0  0  0  0  0  0  0  0  0  0  0  0
   36.9610   30.2980   34.6190 H   0  0  0  0  0  0  0  0  0  0  0  0
   35.6360   29.9890   32.4250 C   0  0  0  0  0  0  0  0  0  0  0  0
   35.5530   28.5910   32.5440 C   0  0  0  0  0  0  0  0  0  0  0  0
   36.0200   27.8370   31.4800 C   0  0  0  0  0  0  0  0  0  0  0  0
   36.5430   28.4620   30.3630 N   0  0  0  0  0  0  0  0  0  0  0  0
   36.6040   29.8280   30.2940 C   0  0  0  0  0  0  0  0  0  0  0  0
   36.1540   30.5660   31.3140 N   0  0  0  0  0  0  0  0  0  0  0  0
   35.1740   28.0440   33.3590 H   0  0  0  0  0  0  0  0  0  0  0  0
   37.0250   30.2450   29.3910 H   0  0  0  0  0  0  0  0  0  0  0  0
   35.9700   26.3790   31.5210 C   0  0  0  0  0  0  0  0  0  0  0  0
   35.0330   25.5890   30.8860 C   0  0  0  0  0  0  0  0  0  0  0  0
   34.2150   25.9620   30.2730 H   0  0  0  0  0  0  0  0  0  0  0  0
   35.4050   24.2820   31.2250 C   0  0  0  0  0  0  0  0  0  0  0  0
   34.8590   23.4090   30.8770 H   0  0  0  0  0  0  0  0  0  0  0  0
   36.5230   24.3600   32.0320 C   0  0  0  0  0  0  0  0  0  0  0  0
   37.0170   23.4680   32.4380 H   0  0  0  0  0  0  0  0  0  0  0  0
   36.8090   25.6320   32.1700 O   0  0  0  0  0  0  0  0  0  0  0  0
  1  7  1  0  0  0  0
  1  6  1  0  0  0  0
  2  9  1  0  0  0  0
  2  1  1  0  0  0  0
  2  3  1  0  0  0  0
  3  4  1  0  0  0  0
  4  5  1  0  0  0  0
  4 12  1  0  0  0  0
  4 13  1  0  0  0  0
  5 15  1  0  0  0  0
  5 14  1  0  0  0  0
  6 16  1  0  0  0  0
  6  5  1  0  0  0  0
  8  2  1  0  0  0  0
 10  3  1  0  0  0  0
 11  3  1  0  0  0  0
 17  6  1  0  0  0  0
 18 19  1  0  0  0  0
 18  1  1  0  0  0  0
 19 24  1  0  0  0  0
 20 26  1  0  0  0  0
 20 19  2  0  0  0  0
 21 20  1  0  0  0  0
 22 21  2  0  0  0  0
 22 23  1  0  0  0  0
 23 18  2  0  0  0  0
 25 22  1  0  0  0  0
 26 33  1  0  0  0  0
 27 29  1  0  0  0  0
 27 26  2  0  0  0  0
 28 27  1  0  0  0  0
 29 31  2  0  0  0  0
 30 29  1  0  0  0  0
 31 33  1  0  0  0  0
 31 32  1  0  0  0  0
M  END
>  <minimizedAffinity>
-4.86325836

$$$$

 OpenBabel03272506193D

 33 35  0  0  0  0  0  0  0  0999 V2000
   36.6510   22.3370   31.2530 C   0  0  0  0  0  0  0  0  0  0  0  0
   35.2800   21.7060   31.1980 C   0  0  0  0  0  0  0  0  0  0  0  0
   34.9970   20.7810   32.3410 C   0  0  0  0  0  0  0  0  0  0  0  0
   36.0470   19.7220   32.5260 C   0  0  0  0  0  0  0  0  0  0  0  0
   37.4450   20.2160   32.3040 C   0  0  0  0  0  0  0  0  0  0  0  0
   37.5210   21.7310   32.3030 C   0  0  0  0  0  0  0  0  0  0  0  0
   37.1690   22.2750   30.2750 H   0  0  0  0  0  0  0  0  0  0  0  0
   34.4730   22.4410   31.1520 H   0  0  0  0  0  0  0  0  0  0  0  0
   35.2460   21.0630   30.2740 H   0  0  0  0  0  0  0  0  0  0  0  0
   34.0370   20.2710   32.1090 H   0  0  0  0  0  0  0  0  0  0  0  0
   34.8190   21.3840   33.2550 H   0  0  0  0  0  0  0  0  0  0  0  0
   35.8340   18.7950   31.9630 H   0  0  0  0  0  0  0  0  0  0  0  0
   35.9950   19.4250   33.6080 H   0  0  0  0  0  0  0  0  0  0  0  0
   38.1570   19.8690   33.0810 H   0  0  0  0  0  0  0  0  0  0  0  0
   37.7700   19.8110   31.3060 H   0  0  0  0  0  0  0  0  0  0  0  0
   38.5770   21.9800   32.1540 H   0  0  0  0  0  0  0  0  0  0  0  0
   37.1780   22.0370   33.3280 H   0  0  0  0  0  0  0  0  0  0  0  0
   36.5130   23.7920   31.5550 C   0  0  0  0  0  0  0  0  0  0  0  0
   37.2860   24.3050   32.6110 C   0  0  0  0  0  0  0  0  0  0  0  0
   37.1530   25.6540   32.8940 C   0  0  0  0  0  0  0  0  0  0  0  0
   36.2860   26.4370   32.1530 N   0  0  0  0  0  0  0  0  0  0  0  0
   35.5530   25.8910   31.1340 C   0  0  0  0  0  0  0  0  0  0  0  0
   35.6750   24.5890   30.8510 N   0  0  0  0  0  0  0  0  0  0  0  0
   37.9600   23.7760   33.2210 H   0  0  0  0  0  0  0  0  0  0  0  0
   34.8980   26.5620   30.6000 H   0  0  0  0  0  0  0  0  0  0  0  0
   37.9190   26.2690   33.9730 C   0  0  0  0  0  0  0  0  0  0  0  0
   37.3880   26.8630   35.1000 C   0  0  0  0  0  0  0  0  0  0  0  0
   36.3250   26.9430   35.3200 H   0  0  0  0  0  0  0  0  0  0  0  0
   38.5100   27.2940   35.8180 C   0  0  0  0  0  0  0  0  0  0  0  0
   38.4320   27.8100   36.7710 H   0  0  0  0  0  0  0  0  0  0  0  0
   39.6320   26.9420   35.0940 C   0  0  0  0  0  0  0  0  0  0  0  0
   40.6490   27.1680   35.4400 H   0  0  0  0  0  0  0  0  0  0  0  0
   39.2150   26.3370   34.0090 O   0  0  0  0  0  0  0  0  0  0  0  0
  1 18  1  0  0  0  0
  1  6  1  0  0  0  0
  2  1  1  0  0  0  0
  2  3  1  0  0  0  0
  3  4  1  0  0  0  0
  3 11  1  0  0  0  0
  4 13  1  0  0  0  0
  5  4  1  0  0  0  0
  5 14  1  0  0  0  0
  6  5  1  0  0  0  0
  6 17  1  0  0  0  0
  7  1  1  0  0  0  0
  8  2  1  0  0  0  0
  9  2  1  0  0  0  0
 10  3  1  0  0  0  0
 12  4  1  0  0  0  0
 15  5  1  0  0  0  0
 16  6  1  0  0  0  0
 18 19  1  0  0  0  0
 19 20  2  0  0  0  0
 19 24  1  0  0  0  0
 20 26  1  0  0  0  0
 21 20  1  0  0  0  0
 22 21  2  0  0  0  0
 23 22  1  0  0  0  0
 23 18  2  0  0  0  0
 25 22  1  0  0  0  0
 26 33  1  0  0  0  0
 26 27  2  0  0  0  0
 27 28  1  0  0  0  0
 27 29  1  0  0  0  0
 29 30  1  0  0  0  0
 31 32  1  0  0  0  0
 31 29  2  0  0  0  0
 33 31  1  0  0  0  0
M  END
>  <minimizedAffinity>
-4.85307646

$$$$

 OpenBabel03272506193D

 33 35  0  0  0  0  0  0  0  0999 V2000
   38.6800   24.3770   35.7940 C   0  0  0  0  0  0  0  0  0  0  0  0
   39.9570   23.6440   36.1340 C   0  0  0  0  0  0  0  0  0  0  0  0
   39.8000   22.6370   37.2300 C   0  0  0  0  0  0  0  0  0  0  0  0
   39.1800   23.2030   38.4770 C   0  0  0  0  0  0  0  0  0  0  0  0
   38.0770   24.1830   38.2090 C   0  0  0  0  0  0  0  0  0  0  0  0
   37.5880   24.1120   36.7750 C   0  0  0  0  0  0  0  0  0  0  0  0
   38.8430   25.4700   35.7230 H   0  0  0  0  0  0  0  0  0  0  0  0
   40.4010   23.1390   35.2740 H   0  0  0  0  0  0  0  0  0  0  0  0
   40.6840   24.4090   36.5280 H   0  0  0  0  0  0  0  0  0  0  0  0
   40.8210   22.2840   37.4890 H   0  0  0  0  0  0  0  0  0  0  0  0
   39.2540   21.7560   36.8330 H   0  0  0  0  0  0  0  0  0  0  0  0
   39.9250   23.5950   39.1940 H   0  0  0  0  0  0  0  0  0  0  0  0
   38.6980   22.3340   39.0010 H   0  0  0  0  0  0  0  0  0  0  0  0
   37.1860   24.0190   38.8500 H   0  0  0  0  0  0  0  0  0  0  0  0
   38.4990   25.2020   38.4250 H   0  0  0  0  0  0  0  0  0  0  0  0
   36.7780   24.8460   36.6960 H   0  0  0  0  0  0  0  0  0  0  0  0
   37.1930   23.0670   36.6570 H   0  0  0  0  0  0  0  0  0  0  0  0
   38.2050   23.9410   34.4490 C   0  0  0  0  0  0  0  0  0  0  0  0
   37.6920   22.6370   34.3400 C   0  0  0  0  0  0  0  0  0  0  0  0
   37.2560   22.2310   33.0890 C   0  0  0  0  0  0  0  0  0  0  0  0
   37.3360   23.0950   32.0130 N   0  0  0  0  0  0  0  0  0  0  0  0
   37.8450   24.3570   32.1680 C   0  0  0  0  0  0  0  0  0  0  0  0
   38.2680   24.7590   33.3720 N   0  0  0  0  0  0  0  0  0  0  0  0
   37.6030   21.9220   35.1070 H   0  0  0  0  0  0  0  0  0  0  0  0
   37.8770   24.9750   31.2830 H   0  0  0  0  0  0  0  0  0  0  0  0
   36.7090   20.8940   32.8880 C   0  0  0  0  0  0  0  0  0  0  0  0
   35.5780   20.3880   33.4970 C   0  0  0  0  0  0  0  0  0  0  0  0
   34.9540   20.9320   34.2040 H   0  0  0  0  0  0  0  0  0  0  0  0
   35.4700   19.0880   32.9880 C   0  0  0  0  0  0  0  0  0  0  0  0
   34.6700   18.4110   33.2750 H   0  0  0  0  0  0  0  0  0  0  0  0
   36.5250   18.8900   32.1190 C   0  0  0  0  0  0  0  0  0  0  0  0
   36.6730   17.9440   31.5820 H   0  0  0  0  0  0  0  0  0  0  0  0
   37.2230   19.9980   32.1030 O   0  0  0  0  0  0  0  0  0  0  0  0
  1  2  1  0  0  0  0
  1  6  1  0  0  0  0
  2  9  1  0  0  0  0
  2  3  1  0  0  0  0
  3 10  1  0  0  0  0
  3  4  1  0  0  0  0
  4 13  1  0  0  0  0
  4 12  1  0  0  0  0
  5 15  1  0  0  0  0
  5  4  1  0  0  0  0
  5 14  1  0  0  0  0
  6  5  1  0  0  0  0
  7  1  1  0  0  0  0
  8  2  1  0  0  0  0
 11  3  1  0  0  0  0
 16  6  1  0  0  0  0
 17  6  1  0  0  0  0
 18  1  1  0  0  0  0
 19 18  1  0  0  0  0
 19 24  1  0  0  0  0
 20 19  2  0  0  0  0
 21 22  2  0  0  0  0
 21 20  1  0  0  0  0
 22 23  1  0  0  0  0
 23 18  2  0  0  0  0
 25 22  1  0  0  0  0
 26 20  1  0  0  0  0
 26 27  2  0  0  0  0
 27 28  1  0  0  0  0
 29 30  1  0  0  0  0
 29 27  1  0  0  0  0
 31 29  2  0  0  0  0
 32 31  1  0  0  0  0
 33 31  1  0  0  0  0
 33 26  1  0  0  0  0
M  END
>  <minimizedAffinity>
-4.84466314

$$$$

 OpenBabel03272506193D

 33 35  0  0  0  0  0  0  0  0999 V2000
   38.8850   25.7470   34.6440 C   0  0  0  0  0  0  0  0  0  0  0  0
   38.7600   27.1390   35.2170 C   0  0  0  0  0  0  0  0  0  0  0  0
   37.3940   27.7320   35.0660 C   0  0  0  0  0  0  0  0  0  0  0  0
   36.8850   27.7060   33.6520 C   0  0  0  0  0  0  0  0  0  0  0  0
   37.2320   26.4500   32.9110 C   0  0  0  0  0  0  0  0  0  0  0  0
   37.6920   25.3460   33.8440 C   0  0  0  0  0  0  0  0  0  0  0  0
   39.7930   25.6440   34.0160 H   0  0  0  0  0  0  0  0  0  0  0  0
   39.0360   27.1930   36.2720 H   0  0  0  0  0  0  0  0  0  0  0  0
   39.4460   27.8060   34.6220 H   0  0  0  0  0  0  0  0  0  0  0  0
   37.4700   28.7950   35.3800 H   0  0  0  0  0  0  0  0  0  0  0  0
   36.7070   27.2400   35.7860 H   0  0  0  0  0  0  0  0  0  0  0  0
   37.1420   28.6160   33.0800 H   0  0  0  0  0  0  0  0  0  0  0  0
   35.7640   27.7160   33.7300 H   0  0  0  0  0  0  0  0  0  0  0  0
   36.3780   26.0350   32.3360 H   0  0  0  0  0  0  0  0  0  0  0  0
   38.0560   26.7210   32.1950 H   0  0  0  0  0  0  0  0  0  0  0  0
   37.8980   24.4780   33.2070 H   0  0  0  0  0  0  0  0  0  0  0  0
   36.8120   25.1500   34.5130 H   0  0  0  0  0  0  0  0  0  0  0  0
   39.0410   24.7680   35.7590 C   0  0  0  0  0  0  0  0  0  0  0  0
   40.1630   23.9230   35.7200 C   0  0  0  0  0  0  0  0  0  0  0  0
   40.3030   23.0100   36.7520 C   0  0  0  0  0  0  0  0  0  0  0  0
   39.3620   22.9550   37.7640 N   0  0  0  0  0  0  0  0  0  0  0  0
   38.2840   23.7990   37.7580 C   0  0  0  0  0  0  0  0  0  0  0  0
   38.1390   24.6860   36.7660 N   0  0  0  0  0  0  0  0  0  0  0  0
   40.9170   23.9000   34.9870 H   0  0  0  0  0  0  0  0  0  0  0  0
   37.5900   23.6990   38.5790 H   0  0  0  0  0  0  0  0  0  0  0  0
   41.4410   22.0960   36.7900 C   0  0  0  0  0  0  0  0  0  0  0  0
   42.5880   22.2080   36.0310 C   0  0  0  0  0  0  0  0  0  0  0  0
   42.7830   23.0000   35.3090 H   0  0  0  0  0  0  0  0  0  0  0  0
   43.3630   21.1090   36.4210 C   0  0  0  0  0  0  0  0  0  0  0  0
   44.3450   20.9070   36.0020 H   0  0  0  0  0  0  0  0  0  0  0  0
   42.6490   20.4110   37.3750 C   0  0  0  0  0  0  0  0  0  0  0  0
   43.0370   19.4990   37.8470 H   0  0  0  0  0  0  0  0  0  0  0  0
   41.5170   21.0470   37.5500 O   0  0  0  0  0  0  0  0  0  0  0  0
  1  2  1  0  0  0  0
  1 18  1  0  0  0  0
  2  8  1  0  0  0  0
  3  2  1  0  0  0  0
  3 10  1  0  0  0  0
  3 11  1  0  0  0  0
  4 13  1  0  0  0  0
  4  3  1  0  0  0  0
  5  4  1  0  0  0  0
  5  6  1  0  0  0  0
  6 17  1  0  0  0  0
  6  1  1  0  0  0  0
  7  1  1  0  0  0  0
  9  2  1  0  0  0  0
 12  4  1  0  0  0  0
 14  5  1  0  0  0  0
 15  5  1  0  0  0  0
 16  6  1  0  0  0  0
 18 23  1  0  0  0  0
 19 18  2  0  0  0  0
 19 20  1  0  0  0  0
 20 26  1  0  0  0  0
 20 21  2  0  0  0  0
 22 21  1  0  0  0  0
 22 25  1  0  0  0  0
 23 22  2  0  0  0  0
 24 19  1  0  0  0  0
 26 33  1  0  0  0  0
 27 29  1  0  0  0  0
 27 26  2  0  0  0  0
 28 27  1  0  0  0  0
 29 31  2  0  0  0  0
 30 29  1  0  0  0  0
 31 33  1  0  0  0  0
 31 32  1  0  0  0  0
M  END
>  <minimizedAffinity>
-4.83443308

$$$$
