
 OpenBabel03272506473D

 41 44  0  0  1  0  0  0  0  0999 V2000
   32.1620   28.4440   47.4860 C   0  0  2  0  0  0  0  0  0  0  0  0
   33.4060   28.3040   48.3130 C   0  0  1  0  0  0  0  0  0  0  0  0
   33.8310   27.0150   48.2240 O   0  0  0  0  0  0  0  0  0  0  0  0
   33.1410   26.3730   47.2010 C   0  0  0  0  0  0  0  0  0  0  0  0
   32.5200   27.4480   46.3380 C   0  0  1  0  0  0  0  0  0  0  0  0
   31.2490   28.0780   47.9440 H   0  0  0  0  0  0  0  0  0  0  0  0
   33.1520   28.6430   49.3370 H   0  0  0  0  0  0  0  0  0  0  0  0
   32.4490   25.6910   47.6770 H   0  0  0  0  0  0  0  0  0  0  0  0
   33.9340   25.8100   46.6140 H   0  0  0  0  0  0  0  0  0  0  0  0
   33.2480   27.9450   45.7000 H   0  0  0  0  0  0  0  0  0  0  0  0
   32.0640   29.7430   46.9500 O   0  0  0  0  0  0  0  0  0  0  0  0
   32.6000   29.7450   46.1210 H   0  0  0  0  0  0  0  0  0  0  0  0
   34.6930   29.3790   47.5600 S   0  0  0  0  0  0  0  0  0  0  0  0
   37.1640   29.2650   50.6560 C   0  0  0  0  0  0  0  0  0  0  0  0
   37.6130   30.5770   50.8070 C   0  0  0  0  0  0  0  0  0  0  0  0
   37.1350   31.5340   49.9200 C   0  0  0  0  0  0  0  0  0  0  0  0
   36.2550   31.1500   48.9480 N   0  0  0  0  0  0  0  0  0  0  0  0
   35.8470   29.8670   48.8380 C   0  0  0  0  0  0  0  0  0  0  0  0
   36.2930   28.9070   49.6880 N   0  0  0  0  0  0  0  0  0  0  0  0
   37.4820   28.4560   51.3000 H   0  0  0  0  0  0  0  0  0  0  0  0
   38.3020   30.8080   51.5900 H   0  0  0  0  0  0  0  0  0  0  0  0
   37.4560   32.5660   49.9980 H   0  0  0  0  0  0  0  0  0  0  0  0
   31.3850   26.9480   45.7490 O   0  0  0  0  0  0  0  0  0  0  0  0
   30.0930   29.0640   44.1590 Cl  0  0  0  0  0  0  0  0  0  0  0  0
   29.4290   28.1370   45.4830 C   0  0  0  0  0  0  0  0  0  0  0  0
   30.1340   27.1580   46.1460 C   0  0  0  0  0  0  0  0  0  0  0  0
   29.4860   26.4650   47.1700 C   0  0  0  0  0  0  0  0  0  0  0  0
   28.1800   26.7580   47.5020 C   0  0  0  0  0  0  0  0  0  0  0  0
   27.4640   27.7400   46.8420 C   0  0  0  0  0  0  0  0  0  0  0  0
   28.1090   28.4240   45.8280 C   0  0  0  0  0  0  0  0  0  0  0  0
   29.9390   25.6790   47.7470 H   0  0  0  0  0  0  0  0  0  0  0  0
   27.6370   26.2560   48.2820 H   0  0  0  0  0  0  0  0  0  0  0  0
   26.4400   27.9770   47.0970 H   0  0  0  0  0  0  0  0  0  0  0  0
   27.3730   29.4670   45.1170 C   0  0  0  0  0  0  0  0  0  0  0  0
   26.5440   29.3170   44.0560 C   0  0  0  0  0  0  0  0  0  0  0  0
   26.3130   28.3540   43.5780 H   0  0  0  0  0  0  0  0  0  0  0  0
   26.0240   30.5380   43.6480 C   0  0  0  0  0  0  0  0  0  0  0  0
   25.3470   30.7810   42.8540 H   0  0  0  0  0  0  0  0  0  0  0  0
   26.6080   31.4080   44.5470 C   0  0  0  0  0  0  0  0  0  0  0  0
   26.4870   32.5000   44.6120 H   0  0  0  0  0  0  0  0  0  0  0  0
   27.3810   30.7580   45.3820 O   0  0  0  0  0  0  0  0  0  0  0  0
  1  6  1  1  0  0  0
  1  2  1  0  0  0  0
  2  7  1  1  0  0  0
  3  2  1  0  0  0  0
  4  8  1  0  0  0  0
  4  3  1  0  0  0  0
  5 10  1  6  0  0  0
  5  4  1  0  0  0  0
  5  1  1  0  0  0  0
  9  4  1  0  0  0  0
 11  1  1  0  0  0  0
 12 11  1  0  0  0  0
 13  2  1  0  0  0  0
 13 18  1  0  0  0  0
 14 15  1  0  0  0  0
 14 20  1  0  0  0  0
 15 21  1  0  0  0  0
 16 22  1  0  0  0  0
 16 15  2  0  0  0  0
 17 16  1  0  0  0  0
 18 17  2  0  0  0  0
 18 19  1  0  0  0  0
 19 14  2  0  0  0  0
 23 26  1  0  0  0  0
 23  5  1  0  0  0  0
 24 25  1  0  0  0  0
 25 30  2  0  0  0  0
 25 26  1  0  0  0  0
 26 27  2  0  0  0  0
 27 28  1  0  0  0  0
 27 31  1  0  0  0  0
 28 32  1  0  0  0  0
 29 33  1  0  0  0  0
 29 28  2  0  0  0  0
 30 29  1  0  0  0  0
 34 41  1  0  0  0  0
 34 30  1  0  0  0  0
 35 34  2  0  0  0  0
 36 35  1  0  0  0  0
 37 35  1  0  0  0  0
 37 39  2  0  0  0  0
 38 37  1  0  0  0  0
 39 40  1  0  0  0  0
 39 41  1  0  0  0  0
M  END
>  <minimizedAffinity>
-5.07718515

>  <minimizedRMSD>
0.209472254

$$$$
