
 OpenBabel03272510273D

 44 48  0  0  1  0  0  0  0  0999 V2000
   35.1280   29.7130   47.3320 C   0  0  0  0  0  0  0  0  0  0  0  0
   36.3440   30.2610   47.6610 C   0  0  0  0  0  0  0  0  0  0  0  0
   37.1610   30.8540   46.6830 C   0  0  0  0  0  0  0  0  0  0  0  0
   36.6660   30.8500   45.3780 C   0  0  0  0  0  0  0  0  0  0  0  0
   37.2540   31.3600   44.2560 N   0  0  0  0  0  0  0  0  0  0  0  0
   36.4090   31.1280   43.2430 C   0  0  0  0  0  0  0  0  0  0  0  0
   35.3400   30.5040   43.6970 N   0  0  0  0  0  0  0  0  0  0  0  0
   35.4560   30.3100   45.0210 C   0  0  0  0  0  0  0  0  0  0  0  0
   34.6760   29.7290   46.0290 C   0  0  0  0  0  0  0  0  0  0  0  0
   34.5050   29.2570   48.0940 H   0  0  0  0  0  0  0  0  0  0  0  0
   38.1270   31.2970   46.9090 H   0  0  0  0  0  0  0  0  0  0  0  0
   38.1760   31.8300   44.2210 H   0  0  0  0  0  0  0  0  0  0  0  0
   33.7230   29.3030   45.7470 H   0  0  0  0  0  0  0  0  0  0  0  0
   38.2000   30.6590   50.9130 C   0  0  0  0  0  0  0  0  0  0  0  0
   37.9390   30.7850   49.5480 C   0  0  0  0  0  0  0  0  0  0  0  0
   36.7930   30.2360   49.0400 C   0  0  0  0  0  0  0  0  0  0  0  0
   35.9640   29.5860   49.9310 N   0  0  0  0  0  0  0  0  0  0  0  0
   36.2210   29.4680   51.2440 C   0  0  0  0  0  0  0  0  0  0  0  0
   37.3290   30.0010   51.7220 N   0  0  0  0  0  0  0  0  0  0  0  0
   39.1110   31.0990   51.2940 H   0  0  0  0  0  0  0  0  0  0  0  0
   38.5760   31.2880   48.8430 H   0  0  0  0  0  0  0  0  0  0  0  0
   35.5200   28.9420   51.8780 H   0  0  0  0  0  0  0  0  0  0  0  0
   36.6890   31.5210   41.9330 O   0  0  0  0  0  0  0  0  0  0  0  0
   35.6420   33.5070   42.4530 N   0  0  0  0  0  0  0  0  0  0  0  0
   35.8310   32.5270   41.4040 C   0  0  1  0  0  0  0  0  0  0  0  0
   36.4170   33.1380   40.2230 C   0  0  0  0  0  0  0  0  0  0  0  0
   35.5210   34.0960   39.7180 O   0  0  0  0  0  0  0  0  0  0  0  0
   35.1150   35.0440   40.6140 C   0  0  0  0  0  0  0  0  0  0  0  0
   34.6670   34.4460   41.9250 C   0  0  1  0  0  0  0  0  0  0  0  0
   36.4230   34.0660   42.7430 H   0  0  0  0  0  0  0  0  0  0  0  0
   34.8280   32.1230   41.1840 H   0  0  0  0  0  0  0  0  0  0  0  0
   36.4420   32.3520   39.4080 H   0  0  0  0  0  0  0  0  0  0  0  0
   37.3490   33.6360   40.1870 H   0  0  0  0  0  0  0  0  0  0  0  0
   34.2780   35.5890   40.1790 H   0  0  0  0  0  0  0  0  0  0  0  0
   35.9810   35.7260   40.8330 H   0  0  0  0  0  0  0  0  0  0  0  0
   34.4940   35.2960   42.6280 H   0  0  0  0  0  0  0  0  0  0  0  0
   33.4150   33.6860   41.6750 C   0  0  0  0  0  0  0  0  0  0  0  0
   32.4490   34.2460   40.8320 C   0  0  0  0  0  0  0  0  0  0  0  0
   32.4520   35.1880   40.2980 H   0  0  0  0  0  0  0  0  0  0  0  0
   31.3830   33.3650   40.7520 C   0  0  0  0  0  0  0  0  0  0  0  0
   30.4780   33.5130   40.1770 H   0  0  0  0  0  0  0  0  0  0  0  0
   31.7610   32.3100   41.5580 C   0  0  0  0  0  0  0  0  0  0  0  0
   31.1280   31.4440   41.7060 H   0  0  0  0  0  0  0  0  0  0  0  0
   32.9550   32.5260   42.0860 O   0  0  0  0  0  0  0  0  0  0  0  0
  1  2  1  0  0  0  0
  1 10  1  0  0  0  0
  2 16  1  0  0  0  0
  3 11  1  0  0  0  0
  3  2  2  0  0  0  0
  4  3  1  0  0  0  0
  5  4  1  0  0  0  0
  6  7  2  0  0  0  0
  6  5  1  0  0  0  0
  7  8  1  0  0  0  0
  8  4  2  0  0  0  0
  8  9  1  0  0  0  0
  9  1  2  0  0  0  0
 12  5  1  0  0  0  0
 13  9  1  0  0  0  0
 14 20  1  0  0  0  0
 14 19  1  0  0  0  0
 15 14  2  0  0  0  0
 16 15  1  0  0  0  0
 16 17  2  0  0  0  0
 17 18  1  0  0  0  0
 18 19  2  0  0  0  0
 18 22  1  0  0  0  0
 21 15  1  0  0  0  0
 23  6  1  0  0  0  0
 24 30  1  0  0  0  0
 25 31  1  6  0  0  0
 25 23  1  0  0  0  0
 25 24  1  0  0  0  0
 26 25  1  0  0  0  0
 27 26  1  0  0  0  0
 27 28  1  0  0  0  0
 28 35  1  0  0  0  0
 28 29  1  0  0  0  0
 29 24  1  0  0  0  0
 29 36  1  1  0  0  0
 32 26  1  0  0  0  0
 33 26  1  0  0  0  0
 34 28  1  0  0  0  0
 37 29  1  0  0  0  0
 37 44  1  0  0  0  0
 38 37  2  0  0  0  0
 39 38  1  0  0  0  0
 40 38  1  0  0  0  0
 40 42  2  0  0  0  0
 41 40  1  0  0  0  0
 42 43  1  0  0  0  0
 42 44  1  0  0  0  0
M  END
>  <minimizedAffinity>
-5.20156431

>  <minimizedRMSD>
4.57070017

$$$$
