
 OpenBabel03272507503D

 27 29  0  0  0  0  0  0  0  0999 V2000
   35.8300   29.2520   48.9440 C   0  0  0  0  0  0  0  0  0  0  0  0
   36.0080   30.2330   47.9520 C   0  0  0  0  0  0  0  0  0  0  0  0
   35.2050   30.1690   46.8000 C   0  0  0  0  0  0  0  0  0  0  0  0
   34.3000   29.1670   46.7010 N   0  0  0  0  0  0  0  0  0  0  0  0
   34.1400   28.2410   47.6500 C   0  0  0  0  0  0  0  0  0  0  0  0
   34.8960   28.2830   48.7580 N   0  0  0  0  0  0  0  0  0  0  0  0
   35.3880   30.9450   46.0790 H   0  0  0  0  0  0  0  0  0  0  0  0
   33.4010   27.4610   47.5220 H   0  0  0  0  0  0  0  0  0  0  0  0
   36.9980   31.2540   48.1640 N   0  0  0  0  0  0  0  0  0  0  0  0
   36.8360   32.1530   49.1690 C   0  0  0  0  0  0  0  0  0  0  0  0
   37.8140   33.1310   49.3710 C   0  0  0  0  0  0  0  0  0  0  0  0
   38.8670   33.0580   48.4870 C   0  0  0  0  0  0  0  0  0  0  0  0
   39.7570   33.9480   48.6750 O   0  0  0  0  0  0  0  0  0  0  0  0
   39.0370   32.1770   47.4950 N   0  0  0  0  0  0  0  0  0  0  0  0
   38.0590   31.2580   47.3510 C   0  0  0  0  0  0  0  0  0  0  0  0
   38.1910   30.4220   46.4290 O   0  0  0  0  0  0  0  0  0  0  0  0
   35.9700   32.1380   49.8200 H   0  0  0  0  0  0  0  0  0  0  0  0
   37.7500   33.8770   50.1480 H   0  0  0  0  0  0  0  0  0  0  0  0
   39.8760   32.2050   46.8760 H   0  0  0  0  0  0  0  0  0  0  0  0
   36.6200   29.2200   50.1700 C   0  0  0  0  0  0  0  0  0  0  0  0
   36.2020   29.6970   51.3930 C   0  0  0  0  0  0  0  0  0  0  0  0
   35.2310   30.1580   51.6030 H   0  0  0  0  0  0  0  0  0  0  0  0
   37.1800   29.5200   52.3470 C   0  0  0  0  0  0  0  0  0  0  0  0
   37.2050   29.7660   53.3940 H   0  0  0  0  0  0  0  0  0  0  0  0
   38.1940   28.9190   51.6430 C   0  0  0  0  0  0  0  0  0  0  0  0
   39.1600   28.6160   52.0650 H   0  0  0  0  0  0  0  0  0  0  0  0
   37.8090   28.7810   50.4200 O   0  0  0  0  0  0  0  0  0  0  0  0
  1 20  1  0  0  0  0
  2  9  1  0  0  0  0
  2  1  2  0  0  0  0
  3  2  1  0  0  0  0
  4  3  2  0  0  0  0
  4  5  1  0  0  0  0
  5  6  2  0  0  0  0
  6  1  1  0  0  0  0
  7  3  1  0  0  0  0
  8  5  1  0  0  0  0
  9 10  1  0  0  0  0
 10 11  2  0  0  0  0
 10 17  1  0  0  0  0
 11 18  1  0  0  0  0
 12 13  2  0  0  0  0
 12 11  1  0  0  0  0
 14 12  1  0  0  0  0
 15 14  1  0  0  0  0
 15  9  1  0  0  0  0
 16 15  2  0  0  0  0
 19 14  1  0  0  0  0
 20 27  1  0  0  0  0
 20 21  2  0  0  0  0
 21 22  1  0  0  0  0
 21 23  1  0  0  0  0
 23 24  1  0  0  0  0
 25 26  1  0  0  0  0
 25 23  2  0  0  0  0
 27 25  1  0  0  0  0
M  END
>  <minimizedAffinity>
-4.68897247

>  <minimizedRMSD>
0.824685931

$$$$
