
 OpenBabel03272507103D

 26 28  0  0  0  0  0  0  0  0999 V2000
   35.7850   29.5010   48.8090 C   0  0  0  0  0  0  0  0  0  0  0  0
   35.2190   30.3110   47.8580 C   0  0  0  0  0  0  0  0  0  0  0  0
   33.9980   29.7270   47.4860 C   0  0  0  0  0  0  0  0  0  0  0  0
   33.9060   28.5770   48.2540 C   0  0  0  0  0  0  0  0  0  0  0  0
   34.9680   28.4960   49.0030 O   0  0  0  0  0  0  0  0  0  0  0  0
   35.5190   31.2480   47.3780 H   0  0  0  0  0  0  0  0  0  0  0  0
   33.2240   29.9950   46.7900 H   0  0  0  0  0  0  0  0  0  0  0  0
   32.8040   27.5950   48.2470 C   0  0  0  0  0  0  0  0  0  0  0  0
   32.8320   26.3530   47.6480 C   0  0  0  0  0  0  0  0  0  0  0  0
   33.6760   25.9580   47.1140 H   0  0  0  0  0  0  0  0  0  0  0  0
   31.6110   25.7450   47.8670 C   0  0  0  0  0  0  0  0  0  0  0  0
   31.3810   24.7560   47.4950 H   0  0  0  0  0  0  0  0  0  0  0  0
   30.8830   26.6760   48.6070 C   0  0  0  0  0  0  0  0  0  0  0  0
   29.8680   26.4620   48.9260 H   0  0  0  0  0  0  0  0  0  0  0  0
   31.6160   27.7460   48.8090 O   0  0  0  0  0  0  0  0  0  0  0  0
   37.0620   29.8030   49.4200 C   0  0  0  0  0  0  0  0  0  0  0  0
   37.4640   29.1070   50.3610 O   0  0  0  0  0  0  0  0  0  0  0  0
   37.8030   30.9320   48.8710 C   0  0  0  0  0  0  0  0  0  0  0  0
   37.8390   32.0850   49.6560 C   0  0  0  0  0  0  0  0  0  0  0  0
   38.5390   33.1990   49.1720 C   0  0  0  0  0  0  0  0  0  0  0  0
   39.1450   33.0620   47.9390 N   0  0  0  0  0  0  0  0  0  0  0  0
   39.0910   31.9470   47.2140 C   0  0  0  0  0  0  0  0  0  0  0  0
   38.4200   30.8780   47.6770 N   0  0  0  0  0  0  0  0  0  0  0  0
   37.3600   32.1800   50.6190 H   0  0  0  0  0  0  0  0  0  0  0  0
   38.5900   34.1080   49.7470 H   0  0  0  0  0  0  0  0  0  0  0  0
   39.6050   31.9720   46.2730 H   0  0  0  0  0  0  0  0  0  0  0  0
  1  5  1  0  0  0  0
  1 16  1  0  0  0  0
  2  1  2  0  0  0  0
  3  2  1  0  0  0  0
  3  4  2  0  0  0  0
  4  5  1  0  0  0  0
  6  2  1  0  0  0  0
  7  3  1  0  0  0  0
  8  4  1  0  0  0  0
  8 15  1  0  0  0  0
  9 11  1  0  0  0  0
  9  8  2  0  0  0  0
 10  9  1  0  0  0  0
 11 13  2  0  0  0  0
 12 11  1  0  0  0  0
 13 15  1  0  0  0  0
 13 14  1  0  0  0  0
 16 17  2  0  0  0  0
 18 16  1  0  0  0  0
 18 19  1  0  0  0  0
 19 24  1  0  0  0  0
 20 19  2  0  0  0  0
 20 25  1  0  0  0  0
 21 20  1  0  0  0  0
 22 23  1  0  0  0  0
 22 21  2  0  0  0  0
 23 18  2  0  0  0  0
 26 22  1  0  0  0  0
M  END
>  <minimizedAffinity>
-5.35920763

>  <minimizedRMSD>
1.5824728

$$$$
