
 OpenBabel03272505123D

 38 41  0  0  0  0  0  0  0  0999 V2000
   36.4030   30.9180   45.7170 Cl  0  0  0  0  0  0  0  0  0  0  0  0
   36.6980   30.7750   47.4240 C   0  0  0  0  0  0  0  0  0  0  0  0
   37.9510   31.0910   47.8870 C   0  0  0  0  0  0  0  0  0  0  0  0
   38.1900   30.9780   49.2450 C   0  0  0  0  0  0  0  0  0  0  0  0
   37.1930   30.5620   50.0850 C   0  0  0  0  0  0  0  0  0  0  0  0
   35.9480   30.2580   49.5510 C   0  0  0  0  0  0  0  0  0  0  0  0
   35.6350   30.3440   48.2210 C   0  0  0  0  0  0  0  0  0  0  0  0
   39.1860   31.2330   49.5890 H   0  0  0  0  0  0  0  0  0  0  0  0
   37.3650   30.4700   51.1460 H   0  0  0  0  0  0  0  0  0  0  0  0
   35.1730   29.9300   50.2380 H   0  0  0  0  0  0  0  0  0  0  0  0
   40.2100   33.3190   46.0820 C   0  0  0  0  0  0  0  0  0  0  0  0
   40.9220   32.4610   45.2060 C   0  0  0  0  0  0  0  0  0  0  0  0
   40.6020   31.1000   45.2550 C   0  0  0  0  0  0  0  0  0  0  0  0
   39.6400   30.6800   46.1300 N   0  0  0  0  0  0  0  0  0  0  0  0
   38.9970   31.5360   46.9360 C   0  0  0  0  0  0  0  0  0  0  0  0
   39.2830   32.8430   46.9100 N   0  0  0  0  0  0  0  0  0  0  0  0
   40.4370   34.3570   46.0630 H   0  0  0  0  0  0  0  0  0  0  0  0
   41.6660   32.8190   44.5380 H   0  0  0  0  0  0  0  0  0  0  0  0
   41.0900   30.3670   44.6270 H   0  0  0  0  0  0  0  0  0  0  0  0
   34.0490   29.9590   47.5270 S   0  0  0  0  0  0  0  0  0  0  0  0
   33.7880   29.1890   44.4960 Cl  0  0  0  0  0  0  0  0  0  0  0  0
   33.8100   27.9670   45.7330 C   0  0  0  0  0  0  0  0  0  0  0  0
   33.9200   28.2220   47.1000 C   0  0  0  0  0  0  0  0  0  0  0  0
   33.9250   27.1720   47.9970 C   0  0  0  0  0  0  0  0  0  0  0  0
   33.8210   25.8770   47.5520 C   0  0  0  0  0  0  0  0  0  0  0  0
   33.7090   25.5630   46.2070 C   0  0  0  0  0  0  0  0  0  0  0  0
   33.7090   26.6430   45.3380 C   0  0  0  0  0  0  0  0  0  0  0  0
   34.0130   27.4570   49.0410 H   0  0  0  0  0  0  0  0  0  0  0  0
   33.8290   25.0960   48.3020 H   0  0  0  0  0  0  0  0  0  0  0  0
   33.6290   24.5570   45.8630 H   0  0  0  0  0  0  0  0  0  0  0  0
   33.5910   26.3290   43.9110 C   0  0  0  0  0  0  0  0  0  0  0  0
   32.4840   26.0950   43.1630 C   0  0  0  0  0  0  0  0  0  0  0  0
   31.4720   26.1230   43.5960 H   0  0  0  0  0  0  0  0  0  0  0  0
   32.7840   25.8300   41.8430 C   0  0  0  0  0  0  0  0  0  0  0  0
   32.1250   25.6090   41.0150 H   0  0  0  0  0  0  0  0  0  0  0  0
   34.1690   25.9230   41.8550 C   0  0  0  0  0  0  0  0  0  0  0  0
   34.8290   25.7780   40.9860 H   0  0  0  0  0  0  0  0  0  0  0  0
   34.5850   26.2090   43.0620 O   0  0  0  0  0  0  0  0  0  0  0  0
  1  2  1  0  0  0  0
  2  3  2  0  0  0  0
  2  7  1  0  0  0  0
  3  4  1  0  0  0  0
  4  8  1  0  0  0  0
  4  5  2  0  0  0  0
  5  9  1  0  0  0  0
  6  5  1  0  0  0  0
  6 10  1  0  0  0  0
  7  6  2  0  0  0  0
 11 16  1  0  0  0  0
 12 13  1  0  0  0  0
 12 11  2  0  0  0  0
 13 14  2  0  0  0  0
 14 15  1  0  0  0  0
 15  3  1  0  0  0  0
 16 15  2  0  0  0  0
 17 11  1  0  0  0  0
 18 12  1  0  0  0  0
 19 13  1  0  0  0  0
 20  7  1  0  0  0  0
 21 22  1  0  0  0  0
 22 23  1  0  0  0  0
 23 20  1  0  0  0  0
 23 24  2  0  0  0  0
 24 28  1  0  0  0  0
 25 24  1  0  0  0  0
 25 29  1  0  0  0  0
 26 25  2  0  0  0  0
 27 22  2  0  0  0  0
 27 26  1  0  0  0  0
 30 26  1  0  0  0  0
 31 27  1  0  0  0  0
 32 33  1  0  0  0  0
 32 31  2  0  0  0  0
 34 36  2  0  0  0  0
 34 32  1  0  0  0  0
 35 34  1  0  0  0  0
 36 38  1  0  0  0  0
 37 36  1  0  0  0  0
 38 31  1  0  0  0  0
M  END
>  <minimizedAffinity>
-5.60352707

>  <minimizedRMSD>
0.399213731

$$$$
