
 OpenBabel03272510013D

 20 21  0  0  0  0  0  0  0  0999 V2000
   38.2410   31.4220   50.2250 C   0  0  0  0  0  0  0  0  0  0  0  0
   38.5230   31.4200   48.8380 C   0  0  0  0  0  0  0  0  0  0  0  0
   37.6690   30.7130   48.0030 C   0  0  0  0  0  0  0  0  0  0  0  0
   36.6080   30.0590   48.5510 N   0  0  0  0  0  0  0  0  0  0  0  0
   36.3750   30.0880   49.8800 C   0  0  0  0  0  0  0  0  0  0  0  0
   37.1820   30.7610   50.7110 N   0  0  0  0  0  0  0  0  0  0  0  0
   38.8880   31.9640   50.9030 H   0  0  0  0  0  0  0  0  0  0  0  0
   39.3790   31.9550   48.4440 H   0  0  0  0  0  0  0  0  0  0  0  0
   37.9090   30.6740   46.5650 C   0  0  0  0  0  0  0  0  0  0  0  0
   39.1530   30.7300   45.9740 C   0  0  0  0  0  0  0  0  0  0  0  0
   40.1170   30.8100   46.4760 H   0  0  0  0  0  0  0  0  0  0  0  0
   38.8340   30.6600   44.6140 C   0  0  0  0  0  0  0  0  0  0  0  0
   39.6000   30.6790   43.8290 H   0  0  0  0  0  0  0  0  0  0  0  0
   37.4670   30.5680   44.4610 C   0  0  0  0  0  0  0  0  0  0  0  0
   36.9360   30.5000   43.5010 H   0  0  0  0  0  0  0  0  0  0  0  0
   36.9460   30.5810   45.6800 O   0  0  0  0  0  0  0  0  0  0  0  0
   35.1920   29.3490   50.3810 C   0  0  0  0  0  0  0  0  0  0  0  0
   35.2430   29.1020   51.7430 F   0  0  0  0  0  0  0  0  0  0  0  0
   34.0150   30.0890   50.1760 F   0  0  0  0  0  0  0  0  0  0  0  0
   34.9850   28.1560   49.7580 F   0  0  0  0  0  0  0  0  0  0  0  0
  1  6  1  0  0  0  0
  1  7  1  0  0  0  0
  2  1  2  0  0  0  0
  3  4  2  0  0  0  0
  3  2  1  0  0  0  0
  4  5  1  0  0  0  0
  5 17  1  0  0  0  0
  5  6  2  0  0  0  0
  8  2  1  0  0  0  0
  9  3  1  0  0  0  0
 10 11  1  0  0  0  0
 10  9  2  0  0  0  0
 12 10  1  0  0  0  0
 13 12  1  0  0  0  0
 14 12  2  0  0  0  0
 14 16  1  0  0  0  0
 15 14  1  0  0  0  0
 16  9  1  0  0  0  0
 17 18  1  0  0  0  0
 19 17  1  0  0  0  0
 20 17  1  0  0  0  0
M  END
>  <minimizedAffinity>
-5.05893898

>  <minimizedRMSD>
1.07118523

$$$$
