
 OpenBabel03262523233D

 32 34  0  0  1  0  0  0  0  0999 V2000
   39.3820   32.9630   44.3840 C   0  0  0  0  0  0  0  0  0  0  0  0
   40.3090   31.9540   44.0130 C   0  0  0  0  0  0  0  0  0  0  0  0
   40.4790   30.8580   44.8670 C   0  0  0  0  0  0  0  0  0  0  0  0
   39.7430   30.8260   46.0060 N   0  0  0  0  0  0  0  0  0  0  0  0
   38.8740   31.7870   46.3370 C   0  0  0  0  0  0  0  0  0  0  0  0
   38.6890   32.8550   45.5330 N   0  0  0  0  0  0  0  0  0  0  0  0
   38.1180   31.7000   47.5580 N   0  0  0  0  0  0  0  0  0  0  0  0
   37.9750   32.8830   48.4190 C   0  0  0  0  0  0  0  0  0  0  0  0
   37.8450   32.5180   49.8630 C   0  0  0  0  0  0  0  0  0  0  0  0
   38.4190   31.1330   50.0690 C   0  0  0  0  0  0  0  0  0  0  0  0
   37.4520   30.1960   49.3860 C   0  0  0  0  0  0  0  0  0  0  0  0
   37.5080   30.4310   47.9130 C   0  0  1  0  0  0  0  0  0  0  0  0
   39.2820   33.7860   43.6980 H   0  0  0  0  0  0  0  0  0  0  0  0
   40.8880   31.9960   43.0980 H   0  0  0  0  0  0  0  0  0  0  0  0
   41.1670   30.0530   44.6480 H   0  0  0  0  0  0  0  0  0  0  0  0
   37.0010   33.3320   48.0930 H   0  0  0  0  0  0  0  0  0  0  0  0
   38.7530   33.6150   48.2080 H   0  0  0  0  0  0  0  0  0  0  0  0
   36.8440   32.6300   50.2930 H   0  0  0  0  0  0  0  0  0  0  0  0
   38.4950   33.2350   50.4430 H   0  0  0  0  0  0  0  0  0  0  0  0
   39.4240   31.1070   49.6220 H   0  0  0  0  0  0  0  0  0  0  0  0
   38.4250   30.9540   51.1750 H   0  0  0  0  0  0  0  0  0  0  0  0
   37.6610   29.1150   49.6290 H   0  0  0  0  0  0  0  0  0  0  0  0
   36.4270   30.4780   49.7590 H   0  0  0  0  0  0  0  0  0  0  0  0
   38.1570   29.6390   47.4830 H   0  0  0  0  0  0  0  0  0  0  0  0
   36.1680   30.2700   47.2630 C   0  0  0  0  0  0  0  0  0  0  0  0
   34.9200   30.2400   47.8860 C   0  0  0  0  0  0  0  0  0  0  0  0
   34.7310   30.3290   48.9410 H   0  0  0  0  0  0  0  0  0  0  0  0
   34.0050   30.0720   46.8500 C   0  0  0  0  0  0  0  0  0  0  0  0
   32.9290   30.0110   47.0170 H   0  0  0  0  0  0  0  0  0  0  0  0
   34.7560   30.0140   45.6760 C   0  0  0  0  0  0  0  0  0  0  0  0
   34.2100   29.8840   44.7520 H   0  0  0  0  0  0  0  0  0  0  0  0
   36.0310   30.1340   45.9640 O   0  0  0  0  0  0  0  0  0  0  0  0
  1  6  1  0  0  0  0
  2  1  2  0  0  0  0
  2  3  1  0  0  0  0
  3  4  2  0  0  0  0
  4  5  1  0  0  0  0
  5  7  1  0  0  0  0
  6  5  2  0  0  0  0
  7 12  1  0  0  0  0
  7  8  1  0  0  0  0
  8  9  1  0  0  0  0
  9 10  1  0  0  0  0
  9 18  1  0  0  0  0
  9 19  1  0  0  0  0
 10 21  1  0  0  0  0
 11 22  1  0  0  0  0
 11 23  1  0  0  0  0
 11 10  1  0  0  0  0
 12 24  1  6  0  0  0
 12 11  1  0  0  0  0
 13  1  1  0  0  0  0
 14  2  1  0  0  0  0
 15  3  1  0  0  0  0
 16  8  1  0  0  0  0
 17  8  1  0  0  0  0
 20 10  1  0  0  0  0
 25 26  2  0  0  0  0
 25 12  1  0  0  0  0
 26 27  1  0  0  0  0
 28 29  1  0  0  0  0
 28 26  1  0  0  0  0
 30 32  1  0  0  0  0
 30 28  2  0  0  0  0
 31 30  1  0  0  0  0
 32 25  1  0  0  0  0
M  END
>  <minimizedAffinity>
-5.42190886

>  <minimizedRMSD>
3.29214668

$$$$
