
 OpenBabel03272506483D

 41 44  0  0  1  0  0  0  0  0999 V2000
   32.2390   28.4250   47.5150 C   0  0  2  0  0  0  0  0  0  0  0  0
   33.5030   28.2400   48.3000 C   0  0  1  0  0  0  0  0  0  0  0  0
   33.8970   26.9440   48.1670 O   0  0  0  0  0  0  0  0  0  0  0  0
   33.1630   26.3420   47.1510 C   0  0  0  0  0  0  0  0  0  0  0  0
   32.5410   27.4510   46.3320 C   0  0  1  0  0  0  0  0  0  0  0  0
   31.3320   28.0680   47.9910 H   0  0  0  0  0  0  0  0  0  0  0  0
   33.2880   28.5590   49.3390 H   0  0  0  0  0  0  0  0  0  0  0  0
   32.4700   25.6640   47.6310 H   0  0  0  0  0  0  0  0  0  0  0  0
   33.9260   25.7770   46.5260 H   0  0  0  0  0  0  0  0  0  0  0  0
   33.2600   27.9480   45.6850 H   0  0  0  0  0  0  0  0  0  0  0  0
   32.1530   29.7400   47.0130 O   0  0  0  0  0  0  0  0  0  0  0  0
   32.6640   29.7500   46.1690 H   0  0  0  0  0  0  0  0  0  0  0  0
   34.7910   29.3050   47.5340 S   0  0  0  0  0  0  0  0  0  0  0  0
   37.1690   29.3220   50.7040 C   0  0  0  0  0  0  0  0  0  0  0  0
   37.6480   30.6300   50.7880 C   0  0  0  0  0  0  0  0  0  0  0  0
   37.2210   31.5410   49.8300 C   0  0  0  0  0  0  0  0  0  0  0  0
   36.3590   31.1190   48.8580 N   0  0  0  0  0  0  0  0  0  0  0  0
   35.9200   29.8420   48.8140 C   0  0  0  0  0  0  0  0  0  0  0  0
   36.3160   28.9270   49.7340 N   0  0  0  0  0  0  0  0  0  0  0  0
   37.4470   28.5470   51.4060 H   0  0  0  0  0  0  0  0  0  0  0  0
   38.3210   30.8920   51.5760 H   0  0  0  0  0  0  0  0  0  0  0  0
   37.5660   32.5670   49.8540 H   0  0  0  0  0  0  0  0  0  0  0  0
   31.3780   26.9900   45.7660 O   0  0  0  0  0  0  0  0  0  0  0  0
   30.1270   29.2460   44.3450 Cl  0  0  0  0  0  0  0  0  0  0  0  0
   29.4600   28.2600   45.6230 C   0  0  0  0  0  0  0  0  0  0  0  0
   30.1440   27.2170   46.2060 C   0  0  0  0  0  0  0  0  0  0  0  0
   29.4940   26.4810   47.1990 C   0  0  0  0  0  0  0  0  0  0  0  0
   28.2070   26.7970   47.5810 C   0  0  0  0  0  0  0  0  0  0  0  0
   27.5120   27.8440   47.0020 C   0  0  0  0  0  0  0  0  0  0  0  0
   28.1590   28.5690   46.0180 C   0  0  0  0  0  0  0  0  0  0  0  0
   29.9320   25.6460   47.7140 H   0  0  0  0  0  0  0  0  0  0  0  0
   27.6640   26.2650   48.3400 H   0  0  0  0  0  0  0  0  0  0  0  0
   26.5040   28.0990   47.2960 H   0  0  0  0  0  0  0  0  0  0  0  0
   27.4450   29.6800   45.3930 C   0  0  0  0  0  0  0  0  0  0  0  0
   26.6750   29.6450   44.2790 C   0  0  0  0  0  0  0  0  0  0  0  0
   26.4830   28.7410   43.6830 H   0  0  0  0  0  0  0  0  0  0  0  0
   26.1570   30.9000   43.9860 C   0  0  0  0  0  0  0  0  0  0  0  0
   25.5190   31.2260   43.1900 H   0  0  0  0  0  0  0  0  0  0  0  0
   26.6810   31.6660   45.0070 C   0  0  0  0  0  0  0  0  0  0  0  0
   26.5410   32.7430   45.1900 H   0  0  0  0  0  0  0  0  0  0  0  0
   27.4210   30.9310   45.8030 O   0  0  0  0  0  0  0  0  0  0  0  0
  1  6  1  1  0  0  0
  1  2  1  0  0  0  0
  2  7  1  1  0  0  0
  3  2  1  0  0  0  0
  4  8  1  0  0  0  0
  4  3  1  0  0  0  0
  5 10  1  6  0  0  0
  5  4  1  0  0  0  0
  5  1  1  0  0  0  0
  9  4  1  0  0  0  0
 11  1  1  0  0  0  0
 12 11  1  0  0  0  0
 13  2  1  0  0  0  0
 13 18  1  0  0  0  0
 14 15  1  0  0  0  0
 14 20  1  0  0  0  0
 15 21  1  0  0  0  0
 16 22  1  0  0  0  0
 16 15  2  0  0  0  0
 17 16  1  0  0  0  0
 18 17  2  0  0  0  0
 18 19  1  0  0  0  0
 19 14  2  0  0  0  0
 23 26  1  0  0  0  0
 23  5  1  0  0  0  0
 24 25  1  0  0  0  0
 25 30  2  0  0  0  0
 25 26  1  0  0  0  0
 26 27  2  0  0  0  0
 27 28  1  0  0  0  0
 27 31  1  0  0  0  0
 28 32  1  0  0  0  0
 29 33  1  0  0  0  0
 29 28  2  0  0  0  0
 30 29  1  0  0  0  0
 34 41  1  0  0  0  0
 34 30  1  0  0  0  0
 35 34  2  0  0  0  0
 36 35  1  0  0  0  0
 37 35  1  0  0  0  0
 37 39  2  0  0  0  0
 38 37  1  0  0  0  0
 39 40  1  0  0  0  0
 39 41  1  0  0  0  0
M  END
>  <minimizedAffinity>
-5.10325956

>  <minimizedRMSD>
0.327893972

$$$$
