
 OpenBabel03272510213D

 35 38  0  0  0  0  0  0  0  0999 V2000
   37.4210   29.1580   50.8210 Br  0  0  0  0  0  0  0  0  0  0  0  0
   36.0240   29.3050   49.5190 C   0  0  0  0  0  0  0  0  0  0  0  0
   36.0340   30.3330   48.5900 C   0  0  0  0  0  0  0  0  0  0  0  0
   34.9990   30.3870   47.6760 C   0  0  0  0  0  0  0  0  0  0  0  0
   33.9680   29.4500   47.6700 C   0  0  0  0  0  0  0  0  0  0  0  0
   33.9870   28.4550   48.5960 C   0  0  0  0  0  0  0  0  0  0  0  0
   35.0160   28.3920   49.5140 C   0  0  0  0  0  0  0  0  0  0  0  0
   34.9410   31.1570   46.9230 H   0  0  0  0  0  0  0  0  0  0  0  0
   33.2030   27.7340   48.6000 H   0  0  0  0  0  0  0  0  0  0  0  0
   34.9770   27.5780   50.2250 H   0  0  0  0  0  0  0  0  0  0  0  0
   38.0070   33.2410   49.5860 C   0  0  0  0  0  0  0  0  0  0  0  0
   39.0650   33.2550   48.6400 C   0  0  0  0  0  0  0  0  0  0  0  0
   39.0890   32.2600   47.6660 C   0  0  0  0  0  0  0  0  0  0  0  0
   38.0930   31.3120   47.6600 N   0  0  0  0  0  0  0  0  0  0  0  0
   37.1030   31.3270   48.5730 C   0  0  0  0  0  0  0  0  0  0  0  0
   37.0650   32.2940   49.5330 N   0  0  0  0  0  0  0  0  0  0  0  0
   38.0320   34.0290   50.3200 H   0  0  0  0  0  0  0  0  0  0  0  0
   39.8200   34.0170   48.6860 H   0  0  0  0  0  0  0  0  0  0  0  0
   39.8630   32.2250   46.9300 H   0  0  0  0  0  0  0  0  0  0  0  0
   32.8690   29.5050   46.7050 C   0  0  0  0  0  0  0  0  0  0  0  0
   32.0250   28.4480   46.4210 C   0  0  0  0  0  0  0  0  0  0  0  0
   30.9990   28.5540   45.4940 C   0  0  0  0  0  0  0  0  0  0  0  0
   30.8010   29.6970   44.8470 N   0  0  0  0  0  0  0  0  0  0  0  0
   31.6160   30.7340   45.1140 C   0  0  0  0  0  0  0  0  0  0  0  0
   32.6060   30.6310   46.0080 N   0  0  0  0  0  0  0  0  0  0  0  0
   32.1930   27.5190   46.9540 H   0  0  0  0  0  0  0  0  0  0  0  0
   30.3690   27.6920   45.3140 H   0  0  0  0  0  0  0  0  0  0  0  0
   31.5360   32.0560   44.4930 C   0  0  0  0  0  0  0  0  0  0  0  0
   31.6850   32.1740   43.1060 C   0  0  0  0  0  0  0  0  0  0  0  0
   31.8600   31.3970   42.3740 H   0  0  0  0  0  0  0  0  0  0  0  0
   31.5680   33.5260   42.7800 C   0  0  0  0  0  0  0  0  0  0  0  0
   31.6410   33.9070   41.7690 H   0  0  0  0  0  0  0  0  0  0  0  0
   31.3510   34.1500   44.0140 C   0  0  0  0  0  0  0  0  0  0  0  0
   31.2170   35.2200   44.1010 H   0  0  0  0  0  0  0  0  0  0  0  0
   31.3410   33.2670   44.9620 O   0  0  0  0  0  0  0  0  0  0  0  0
  2  1  1  0  0  0  0
  3  2  2  0  0  0  0
  4  3  1  0  0  0  0
  5  4  2  0  0  0  0
  5  6  1  0  0  0  0
  6  9  1  0  0  0  0
  6  7  2  0  0  0  0
  7  2  1  0  0  0  0
  7 10  1  0  0  0  0
  8  4  1  0  0  0  0
 11 17  1  0  0  0  0
 12 18  1  0  0  0  0
 12 11  2  0  0  0  0
 13 12  1  0  0  0  0
 14 13  2  0  0  0  0
 14 15  1  0  0  0  0
 15  3  1  0  0  0  0
 15 16  2  0  0  0  0
 16 11  1  0  0  0  0
 19 13  1  0  0  0  0
 20  5  1  0  0  0  0
 21 20  1  0  0  0  0
 21 26  1  0  0  0  0
 22 21  2  0  0  0  0
 23 24  2  0  0  0  0
 23 22  1  0  0  0  0
 24 25  1  0  0  0  0
 25 20  2  0  0  0  0
 27 22  1  0  0  0  0
 28 35  1  0  0  0  0
 28 24  1  0  0  0  0
 29 28  2  0  0  0  0
 30 29  1  0  0  0  0
 31 29  1  0  0  0  0
 31 33  2  0  0  0  0
 32 31  1  0  0  0  0
 33 34  1  0  0  0  0
 33 35  1  0  0  0  0
M  END
>  <minimizedAffinity>
-6.37905931

>  <minimizedRMSD>
0.421843082

$$$$
