
 OpenBabel03272500573D

 34 36  0  0  0  0  0  0  0  0999 V2000
   38.1650   31.8990   47.4150 C   0  0  0  0  0  0  0  0  0  0  0  0
   38.6650   32.7960   48.3110 C   0  0  0  0  0  0  0  0  0  0  0  0
   38.2090   32.8860   49.6280 C   0  0  0  0  0  0  0  0  0  0  0  0
   37.1590   31.9700   50.0270 C   0  0  0  0  0  0  0  0  0  0  0  0
   36.7010   31.0990   49.0930 C   0  0  0  0  0  0  0  0  0  0  0  0
   37.1500   31.0280   47.8260 C   0  0  0  0  0  0  0  0  0  0  0  0
   39.4640   33.5050   48.0400 H   0  0  0  0  0  0  0  0  0  0  0  0
   38.6520   33.6230   50.2900 H   0  0  0  0  0  0  0  0  0  0  0  0
   36.9030   32.1440   51.0580 H   0  0  0  0  0  0  0  0  0  0  0  0
   35.9580   30.5100   49.6080 H   0  0  0  0  0  0  0  0  0  0  0  0
   40.0010   31.2590   45.9420 C   0  0  0  0  0  0  0  0  0  0  0  0
   38.7580   31.9170   46.0990 C   0  0  0  0  0  0  0  0  0  0  0  0
   38.2700   32.4900   44.9540 C   0  0  0  0  0  0  0  0  0  0  0  0
   38.9450   32.4090   43.7970 N   0  0  0  0  0  0  0  0  0  0  0  0
   40.0980   31.7940   43.6670 C   0  0  0  0  0  0  0  0  0  0  0  0
   40.6220   31.2210   44.7380 N   0  0  0  0  0  0  0  0  0  0  0  0
   40.4530   30.7840   46.7920 H   0  0  0  0  0  0  0  0  0  0  0  0
   37.3190   32.9950   45.0680 H   0  0  0  0  0  0  0  0  0  0  0  0
   40.6800   31.7040   42.7540 H   0  0  0  0  0  0  0  0  0  0  0  0
   35.1800   30.0020   47.0500 C   0  0  0  0  0  0  0  0  0  0  0  0
   34.5770   30.6790   47.9750 O   0  0  0  0  0  0  0  0  0  0  0  0
   36.6200   30.1370   46.9280 N   0  0  0  0  0  0  0  0  0  0  0  0
   37.1740   29.6180   46.2420 H   0  0  0  0  0  0  0  0  0  0  0  0
   34.4480   29.1870   46.2250 O   0  0  0  0  0  0  0  0  0  0  0  0
   33.0710   29.2690   46.0560 C   0  0  0  0  0  0  0  0  0  0  0  0
   32.5390   29.9620   45.0720 O   0  0  0  0  0  0  0  0  0  0  0  0
   32.1340   28.5630   46.9650 C   0  0  0  0  0  0  0  0  0  0  0  0
   32.4270   27.7010   48.0290 C   0  0  0  0  0  0  0  0  0  0  0  0
   33.4510   27.4550   48.3030 H   0  0  0  0  0  0  0  0  0  0  0  0
   31.2390   27.2790   48.5910 C   0  0  0  0  0  0  0  0  0  0  0  0
   31.2500   26.6060   49.4280 H   0  0  0  0  0  0  0  0  0  0  0  0
   30.2760   27.9080   47.8380 C   0  0  0  0  0  0  0  0  0  0  0  0
   29.2110   27.7540   48.0630 H   0  0  0  0  0  0  0  0  0  0  0  0
   30.8270   28.6310   46.9200 O   0  0  0  0  0  0  0  0  0  0  0  0
  1  6  2  0  0  0  0
  1  2  1  0  0  0  0
  2  3  2  0  0  0  0
  3  4  1  0  0  0  0
  3  8  1  0  0  0  0
  4  9  1  0  0  0  0
  5 10  1  0  0  0  0
  5  4  2  0  0  0  0
  6  5  1  0  0  0  0
  7  2  1  0  0  0  0
 11 12  1  0  0  0  0
 11 17  1  0  0  0  0
 12  1  1  0  0  0  0
 13 18  1  0  0  0  0
 13 12  2  0  0  0  0
 14 13  1  0  0  0  0
 15 14  2  0  0  0  0
 15 16  1  0  0  0  0
 16 11  2  0  0  0  0
 19 15  1  0  0  0  0
 20 21  2  0  0  0  0
 22 20  1  0  0  0  0
 22  6  1  0  0  0  0
 23 22  1  0  0  0  0
 24 20  1  0  0  0  0
 25 24  1  0  0  0  0
 25 27  1  0  0  0  0
 26 25  2  0  0  0  0
 27 28  2  0  0  0  0
 28 29  1  0  0  0  0
 28 30  1  0  0  0  0
 30 31  1  0  0  0  0
 32 33  1  0  0  0  0
 32 30  2  0  0  0  0
 34 27  1  0  0  0  0
 34 32  1  0  0  0  0
M  END
>  <minimizedAffinity>
-5.73555422

>  <minimizedRMSD>
1.32804406

$$$$
