
 OpenBabel03272500573D

 34 36  0  0  0  0  0  0  0  0999 V2000
   38.1620   31.8980   47.4110 C   0  0  0  0  0  0  0  0  0  0  0  0
   38.6590   32.7960   48.3080 C   0  0  0  0  0  0  0  0  0  0  0  0
   38.1990   32.8850   49.6240 C   0  0  0  0  0  0  0  0  0  0  0  0
   37.1510   31.9670   50.0200 C   0  0  0  0  0  0  0  0  0  0  0  0
   36.6960   31.0950   49.0850 C   0  0  0  0  0  0  0  0  0  0  0  0
   37.1480   31.0240   47.8200 C   0  0  0  0  0  0  0  0  0  0  0  0
   39.4570   33.5060   48.0380 H   0  0  0  0  0  0  0  0  0  0  0  0
   38.6390   33.6240   50.2860 H   0  0  0  0  0  0  0  0  0  0  0  0
   36.8920   32.1410   51.0510 H   0  0  0  0  0  0  0  0  0  0  0  0
   35.9540   30.5040   49.5990 H   0  0  0  0  0  0  0  0  0  0  0  0
   40.0030   31.2600   45.9420 C   0  0  0  0  0  0  0  0  0  0  0  0
   38.7590   31.9160   46.0960 C   0  0  0  0  0  0  0  0  0  0  0  0
   38.2720   32.4880   44.9500 C   0  0  0  0  0  0  0  0  0  0  0  0
   38.9500   32.4090   43.7950 N   0  0  0  0  0  0  0  0  0  0  0  0
   40.1040   31.7950   43.6670 C   0  0  0  0  0  0  0  0  0  0  0  0
   40.6270   31.2230   44.7400 N   0  0  0  0  0  0  0  0  0  0  0  0
   40.4530   30.7860   46.7930 H   0  0  0  0  0  0  0  0  0  0  0  0
   37.3200   32.9920   45.0610 H   0  0  0  0  0  0  0  0  0  0  0  0
   40.6880   31.7060   42.7560 H   0  0  0  0  0  0  0  0  0  0  0  0
   35.1820   30.0000   47.0340 C   0  0  0  0  0  0  0  0  0  0  0  0
   34.5740   30.6800   47.9540 O   0  0  0  0  0  0  0  0  0  0  0  0
   36.6230   30.1320   46.9210 N   0  0  0  0  0  0  0  0  0  0  0  0
   37.1800   29.6100   46.2400 H   0  0  0  0  0  0  0  0  0  0  0  0
   34.4530   29.1840   46.2070 O   0  0  0  0  0  0  0  0  0  0  0  0
   33.0770   29.2680   46.0290 C   0  0  0  0  0  0  0  0  0  0  0  0
   32.5540   29.9260   45.0170 O   0  0  0  0  0  0  0  0  0  0  0  0
   32.1330   28.6020   46.9590 C   0  0  0  0  0  0  0  0  0  0  0  0
   30.7400   28.4910   46.8650 C   0  0  0  0  0  0  0  0  0  0  0  0
   30.1860   28.9190   46.0330 H   0  0  0  0  0  0  0  0  0  0  0  0
   30.2810   27.7860   47.9590 C   0  0  0  0  0  0  0  0  0  0  0  0
   29.2310   27.5930   48.0720 H   0  0  0  0  0  0  0  0  0  0  0  0
   31.4230   27.5000   48.6700 C   0  0  0  0  0  0  0  0  0  0  0  0
   31.3620   26.9340   49.6110 H   0  0  0  0  0  0  0  0  0  0  0  0
   32.4590   27.9820   48.0670 O   0  0  0  0  0  0  0  0  0  0  0  0
  1  6  2  0  0  0  0
  1  2  1  0  0  0  0
  2  3  2  0  0  0  0
  3  4  1  0  0  0  0
  3  8  1  0  0  0  0
  4  9  1  0  0  0  0
  5 10  1  0  0  0  0
  5  4  2  0  0  0  0
  6  5  1  0  0  0  0
  7  2  1  0  0  0  0
 11 12  1  0  0  0  0
 11 17  1  0  0  0  0
 12  1  1  0  0  0  0
 13 18  1  0  0  0  0
 13 12  2  0  0  0  0
 14 13  1  0  0  0  0
 15 14  2  0  0  0  0
 15 16  1  0  0  0  0
 16 11  2  0  0  0  0
 19 15  1  0  0  0  0
 20 21  2  0  0  0  0
 22 20  1  0  0  0  0
 22  6  1  0  0  0  0
 23 22  1  0  0  0  0
 24 20  1  0  0  0  0
 25 24  1  0  0  0  0
 25 27  1  0  0  0  0
 26 25  2  0  0  0  0
 27 34  1  0  0  0  0
 28 27  2  0  0  0  0
 28 30  1  0  0  0  0
 29 28  1  0  0  0  0
 30 31  1  0  0  0  0
 30 32  2  0  0  0  0
 32 33  1  0  0  0  0
 34 32  1  0  0  0  0
M  END
>  <minimizedAffinity>
-5.62603331

>  <minimizedRMSD>
1.29120481

$$$$
