
 OpenBabel03272500573D

 34 36  0  0  0  0  0  0  0  0999 V2000
   38.1600   31.8620   47.3910 C   0  0  0  0  0  0  0  0  0  0  0  0
   38.6860   32.7130   48.3170 C   0  0  0  0  0  0  0  0  0  0  0  0
   38.2280   32.7740   49.6350 C   0  0  0  0  0  0  0  0  0  0  0  0
   37.1490   31.8800   50.0020 C   0  0  0  0  0  0  0  0  0  0  0  0
   36.6660   31.0550   49.0380 C   0  0  0  0  0  0  0  0  0  0  0  0
   37.1160   31.0100   47.7710 C   0  0  0  0  0  0  0  0  0  0  0  0
   39.5080   33.4040   48.0710 H   0  0  0  0  0  0  0  0  0  0  0  0
   38.6920   33.4750   50.3210 H   0  0  0  0  0  0  0  0  0  0  0  0
   36.8960   32.0280   51.0370 H   0  0  0  0  0  0  0  0  0  0  0  0
   35.9030   30.4730   49.5320 H   0  0  0  0  0  0  0  0  0  0  0  0
   40.0010   31.2480   45.9120 C   0  0  0  0  0  0  0  0  0  0  0  0
   38.7570   31.9030   46.0780 C   0  0  0  0  0  0  0  0  0  0  0  0
   38.2730   32.4980   44.9410 C   0  0  0  0  0  0  0  0  0  0  0  0
   38.9520   32.4380   43.7860 N   0  0  0  0  0  0  0  0  0  0  0  0
   40.1060   31.8250   43.6480 C   0  0  0  0  0  0  0  0  0  0  0  0
   40.6260   31.2330   44.7100 N   0  0  0  0  0  0  0  0  0  0  0  0
   40.4490   30.7580   46.7550 H   0  0  0  0  0  0  0  0  0  0  0  0
   37.3220   33.0010   45.0610 H   0  0  0  0  0  0  0  0  0  0  0  0
   40.6900   31.7520   42.7360 H   0  0  0  0  0  0  0  0  0  0  0  0
   35.1240   30.0340   46.9910 C   0  0  0  0  0  0  0  0  0  0  0  0
   34.5450   30.6680   47.9610 O   0  0  0  0  0  0  0  0  0  0  0  0
   36.5620   30.1670   46.8440 N   0  0  0  0  0  0  0  0  0  0  0  0
   37.0970   29.6790   46.1210 H   0  0  0  0  0  0  0  0  0  0  0  0
   34.3690   29.2640   46.1440 O   0  0  0  0  0  0  0  0  0  0  0  0
   33.0960   29.5990   45.6970 C   0  0  0  0  0  0  0  0  0  0  0  0
   32.9170   30.3640   44.6410 O   0  0  0  0  0  0  0  0  0  0  0  0
   31.8770   29.0940   46.3760 C   0  0  0  0  0  0  0  0  0  0  0  0
   30.5390   29.4370   46.1470 C   0  0  0  0  0  0  0  0  0  0  0  0
   30.2550   30.1650   45.3880 H   0  0  0  0  0  0  0  0  0  0  0  0
   29.7460   28.7150   47.0160 C   0  0  0  0  0  0  0  0  0  0  0  0
   28.6790   28.8380   46.9970 H   0  0  0  0  0  0  0  0  0  0  0  0
   30.6450   27.9630   47.7350 C   0  0  0  0  0  0  0  0  0  0  0  0
   30.2900   27.2770   48.5180 H   0  0  0  0  0  0  0  0  0  0  0  0
   31.8500   28.2070   47.3410 O   0  0  0  0  0  0  0  0  0  0  0  0
  1  6  2  0  0  0  0
  1  2  1  0  0  0  0
  2  3  2  0  0  0  0
  3  4  1  0  0  0  0
  3  8  1  0  0  0  0
  4  9  1  0  0  0  0
  5 10  1  0  0  0  0
  5  4  2  0  0  0  0
  6  5  1  0  0  0  0
  7  2  1  0  0  0  0
 11 12  1  0  0  0  0
 11 17  1  0  0  0  0
 12  1  1  0  0  0  0
 13 18  1  0  0  0  0
 13 12  2  0  0  0  0
 14 13  1  0  0  0  0
 15 14  2  0  0  0  0
 15 16  1  0  0  0  0
 16 11  2  0  0  0  0
 19 15  1  0  0  0  0
 20 21  2  0  0  0  0
 22 20  1  0  0  0  0
 22  6  1  0  0  0  0
 23 22  1  0  0  0  0
 24 20  1  0  0  0  0
 25 24  1  0  0  0  0
 25 27  1  0  0  0  0
 26 25  2  0  0  0  0
 27 34  1  0  0  0  0
 28 27  2  0  0  0  0
 28 30  1  0  0  0  0
 29 28  1  0  0  0  0
 30 32  2  0  0  0  0
 31 30  1  0  0  0  0
 32 33  1  0  0  0  0
 34 32  1  0  0  0  0
M  END
>  <minimizedAffinity>
-5.61633825

>  <minimizedRMSD>
0.975626767

$$$$
