
 OpenBabel03272500573D

 34 36  0  0  0  0  0  0  0  0999 V2000
   38.1150   31.8900   47.4480 C   0  0  0  0  0  0  0  0  0  0  0  0
   38.7230   32.8890   48.1470 C   0  0  0  0  0  0  0  0  0  0  0  0
   38.4930   33.1100   49.5070 C   0  0  0  0  0  0  0  0  0  0  0  0
   37.5650   32.2190   50.1730 C   0  0  0  0  0  0  0  0  0  0  0  0
   36.9920   31.2410   49.4260 C   0  0  0  0  0  0  0  0  0  0  0  0
   37.2220   31.0440   48.1150 C   0  0  0  0  0  0  0  0  0  0  0  0
   39.4340   33.5840   47.6710 H   0  0  0  0  0  0  0  0  0  0  0  0
   39.0100   33.9250   50.0030 H   0  0  0  0  0  0  0  0  0  0  0  0
   37.4810   32.4960   51.2090 H   0  0  0  0  0  0  0  0  0  0  0  0
   36.3720   30.6940   50.1190 H   0  0  0  0  0  0  0  0  0  0  0  0
   39.7020   31.1410   45.7530 C   0  0  0  0  0  0  0  0  0  0  0  0
   38.4760   31.7790   46.0540 C   0  0  0  0  0  0  0  0  0  0  0  0
   37.7760   32.2110   44.9580 C   0  0  0  0  0  0  0  0  0  0  0  0
   38.2480   32.0220   43.7160 N   0  0  0  0  0  0  0  0  0  0  0  0
   39.3890   31.4270   43.4530 C   0  0  0  0  0  0  0  0  0  0  0  0
   40.1120   30.9890   44.4700 N   0  0  0  0  0  0  0  0  0  0  0  0
   40.3120   30.7740   46.5570 H   0  0  0  0  0  0  0  0  0  0  0  0
   36.8360   32.7010   45.1820 H   0  0  0  0  0  0  0  0  0  0  0  0
   39.8110   31.2530   42.4670 H   0  0  0  0  0  0  0  0  0  0  0  0
   35.2210   29.8340   47.8620 C   0  0  0  0  0  0  0  0  0  0  0  0
   34.7770   30.5470   48.8490 O   0  0  0  0  0  0  0  0  0  0  0  0
   36.5860   30.0500   47.4180 N   0  0  0  0  0  0  0  0  0  0  0  0
   37.0200   29.5110   46.6640 H   0  0  0  0  0  0  0  0  0  0  0  0
   34.3970   28.9090   47.2760 O   0  0  0  0  0  0  0  0  0  0  0  0
   33.1120   29.1750   46.8160 C   0  0  0  0  0  0  0  0  0  0  0  0
   32.8590   30.2070   46.0400 O   0  0  0  0  0  0  0  0  0  0  0  0
   31.9670   28.2970   47.1610 C   0  0  0  0  0  0  0  0  0  0  0  0
   31.8760   27.3300   48.1710 C   0  0  0  0  0  0  0  0  0  0  0  0
   32.7050   27.1230   48.8430 H   0  0  0  0  0  0  0  0  0  0  0  0
   30.6200   26.7600   48.1190 C   0  0  0  0  0  0  0  0  0  0  0  0
   30.3510   25.9890   48.8160 H   0  0  0  0  0  0  0  0  0  0  0  0
   30.0060   27.4100   47.0750 C   0  0  0  0  0  0  0  0  0  0  0  0
   28.9720   27.1550   46.7970 H   0  0  0  0  0  0  0  0  0  0  0  0
   30.8070   28.2800   46.5550 O   0  0  0  0  0  0  0  0  0  0  0  0
  1  6  2  0  0  0  0
  1  2  1  0  0  0  0
  2  3  2  0  0  0  0
  3  8  1  0  0  0  0
  3  4  1  0  0  0  0
  4  9  1  0  0  0  0
  5 10  1  0  0  0  0
  5  4  2  0  0  0  0
  6  5  1  0  0  0  0
  7  2  1  0  0  0  0
 11 12  1  0  0  0  0
 11 17  1  0  0  0  0
 12  1  1  0  0  0  0
 13 18  1  0  0  0  0
 13 12  2  0  0  0  0
 14 13  1  0  0  0  0
 15 14  2  0  0  0  0
 15 16  1  0  0  0  0
 16 11  2  0  0  0  0
 19 15  1  0  0  0  0
 20 21  2  0  0  0  0
 22 20  1  0  0  0  0
 22  6  1  0  0  0  0
 23 22  1  0  0  0  0
 24 20  1  0  0  0  0
 25 27  1  0  0  0  0
 25 24  1  0  0  0  0
 26 25  2  0  0  0  0
 27 28  2  0  0  0  0
 28 29  1  0  0  0  0
 30 28  1  0  0  0  0
 30 31  1  0  0  0  0
 32 30  2  0  0  0  0
 33 32  1  0  0  0  0
 34 32  1  0  0  0  0
 34 27  1  0  0  0  0
M  END
>  <minimizedAffinity>
-5.39771128

>  <minimizedRMSD>
1.32929265

$$$$
