
 OpenBabel03272500573D

 34 36  0  0  0  0  0  0  0  0999 V2000
   38.1610   31.8740   47.3970 C   0  0  0  0  0  0  0  0  0  0  0  0
   38.7330   32.7360   48.2840 C   0  0  0  0  0  0  0  0  0  0  0  0
   38.3250   32.8330   49.6170 C   0  0  0  0  0  0  0  0  0  0  0  0
   37.2470   31.9640   50.0420 C   0  0  0  0  0  0  0  0  0  0  0  0
   36.7170   31.1250   49.1160 C   0  0  0  0  0  0  0  0  0  0  0  0
   37.1200   31.0460   47.8350 C   0  0  0  0  0  0  0  0  0  0  0  0
   39.5540   33.4100   47.9920 H   0  0  0  0  0  0  0  0  0  0  0  0
   38.8240   33.5420   50.2690 H   0  0  0  0  0  0  0  0  0  0  0  0
   37.0340   32.1380   51.0830 H   0  0  0  0  0  0  0  0  0  0  0  0
   35.9650   30.5660   49.6500 H   0  0  0  0  0  0  0  0  0  0  0  0
   39.9220   31.1750   45.8600 C   0  0  0  0  0  0  0  0  0  0  0  0
   38.7100   31.8770   46.0620 C   0  0  0  0  0  0  0  0  0  0  0  0
   38.2060   32.4750   44.9370 C   0  0  0  0  0  0  0  0  0  0  0  0
   38.8390   32.3770   43.7580 N   0  0  0  0  0  0  0  0  0  0  0  0
   39.9630   31.7200   43.5860 C   0  0  0  0  0  0  0  0  0  0  0  0
   40.5010   31.1220   44.6360 N   0  0  0  0  0  0  0  0  0  0  0  0
   40.3830   30.6780   46.6930 H   0  0  0  0  0  0  0  0  0  0  0  0
   37.2780   33.0150   45.0850 H   0  0  0  0  0  0  0  0  0  0  0  0
   40.5100   31.6140   42.6540 H   0  0  0  0  0  0  0  0  0  0  0  0
   35.0950   30.0450   47.1810 C   0  0  0  0  0  0  0  0  0  0  0  0
   34.5680   30.6800   48.1800 O   0  0  0  0  0  0  0  0  0  0  0  0
   36.5200   30.1910   46.9470 N   0  0  0  0  0  0  0  0  0  0  0  0
   37.0160   29.7030   46.1970 H   0  0  0  0  0  0  0  0  0  0  0  0
   34.2980   29.2610   46.3860 O   0  0  0  0  0  0  0  0  0  0  0  0
   32.9170   29.3870   46.2850 C   0  0  0  0  0  0  0  0  0  0  0  0
   32.3640   30.2280   45.4380 O   0  0  0  0  0  0  0  0  0  0  0  0
   32.0010   28.5640   47.1120 C   0  0  0  0  0  0  0  0  0  0  0  0
   32.3150   27.6540   48.1280 C   0  0  0  0  0  0  0  0  0  0  0  0
   33.3440   27.4540   48.4210 H   0  0  0  0  0  0  0  0  0  0  0  0
   31.1400   27.1210   48.6190 C   0  0  0  0  0  0  0  0  0  0  0  0
   31.1690   26.3960   49.4110 H   0  0  0  0  0  0  0  0  0  0  0  0
   30.1630   27.7380   47.8740 C   0  0  0  0  0  0  0  0  0  0  0  0
   29.1030   27.5030   48.0510 H   0  0  0  0  0  0  0  0  0  0  0  0
   30.6930   28.5540   47.0260 O   0  0  0  0  0  0  0  0  0  0  0  0
  1  6  2  0  0  0  0
  1  2  1  0  0  0  0
  2  3  2  0  0  0  0
  3  4  1  0  0  0  0
  3  8  1  0  0  0  0
  4  9  1  0  0  0  0
  5 10  1  0  0  0  0
  5  4  2  0  0  0  0
  6  5  1  0  0  0  0
  7  2  1  0  0  0  0
 11 12  1  0  0  0  0
 11 17  1  0  0  0  0
 12  1  1  0  0  0  0
 13 18  1  0  0  0  0
 13 12  2  0  0  0  0
 14 13  1  0  0  0  0
 15 14  2  0  0  0  0
 15 16  1  0  0  0  0
 16 11  2  0  0  0  0
 19 15  1  0  0  0  0
 20 21  2  0  0  0  0
 22 20  1  0  0  0  0
 22  6  1  0  0  0  0
 23 22  1  0  0  0  0
 24 20  1  0  0  0  0
 25 24  1  0  0  0  0
 25 27  1  0  0  0  0
 26 25  2  0  0  0  0
 27 28  2  0  0  0  0
 28 29  1  0  0  0  0
 28 30  1  0  0  0  0
 30 31  1  0  0  0  0
 32 33  1  0  0  0  0
 32 30  2  0  0  0  0
 34 27  1  0  0  0  0
 34 32  1  0  0  0  0
M  END
>  <minimizedAffinity>
-5.77023363

>  <minimizedRMSD>
1.36142039

$$$$
