
 OpenBabel03272500593D

 34 36  0  0  0  0  0  0  0  0999 V2000
   36.4720   22.4730   32.0400 C   0  0  0  0  0  0  0  0  0  0  0  0
   35.5340   21.8850   31.2450 C   0  0  0  0  0  0  0  0  0  0  0  0
   34.9020   20.6850   31.5780 C   0  0  0  0  0  0  0  0  0  0  0  0
   35.2810   20.0660   32.8320 C   0  0  0  0  0  0  0  0  0  0  0  0
   36.2190   20.6970   33.5830 C   0  0  0  0  0  0  0  0  0  0  0  0
   36.8200   21.8520   33.2450 C   0  0  0  0  0  0  0  0  0  0  0  0
   35.2240   22.3310   30.2860 H   0  0  0  0  0  0  0  0  0  0  0  0
   34.1640   20.2720   30.8980 H   0  0  0  0  0  0  0  0  0  0  0  0
   34.7230   19.1560   32.9660 H   0  0  0  0  0  0  0  0  0  0  0  0
   36.3220   20.0840   34.4650 H   0  0  0  0  0  0  0  0  0  0  0  0
   36.3200   24.9050   31.9170 C   0  0  0  0  0  0  0  0  0  0  0  0
   37.0150   23.7230   31.5660 C   0  0  0  0  0  0  0  0  0  0  0  0
   38.1400   23.9290   30.8100 C   0  0  0  0  0  0  0  0  0  0  0  0
   38.5190   25.1670   30.4550 N   0  0  0  0  0  0  0  0  0  0  0  0
   37.8630   26.2540   30.7900 C   0  0  0  0  0  0  0  0  0  0  0  0
   36.7670   26.1200   31.5190 N   0  0  0  0  0  0  0  0  0  0  0  0
   35.4270   24.8300   32.5080 H   0  0  0  0  0  0  0  0  0  0  0  0
   38.6770   23.0280   30.5380 H   0  0  0  0  0  0  0  0  0  0  0  0
   38.1310   27.2730   30.5260 H   0  0  0  0  0  0  0  0  0  0  0  0
   39.1050   21.8770   33.8070 C   0  0  0  0  0  0  0  0  0  0  0  0
   39.2320   20.9310   32.9310 O   0  0  0  0  0  0  0  0  0  0  0  0
   37.7800   22.4200   34.0440 N   0  0  0  0  0  0  0  0  0  0  0  0
   37.5900   23.1490   34.7360 H   0  0  0  0  0  0  0  0  0  0  0  0
   40.2120   22.3280   34.4760 O   0  0  0  0  0  0  0  0  0  0  0  0
   40.2410   23.4630   35.2800 C   0  0  0  0  0  0  0  0  0  0  0  0
   40.9650   24.5140   34.9600 O   0  0  0  0  0  0  0  0  0  0  0  0
   39.4400   23.5520   36.5250 C   0  0  0  0  0  0  0  0  0  0  0  0
   39.7060   22.9930   37.7820 C   0  0  0  0  0  0  0  0  0  0  0  0
   40.5970   22.3970   37.9670 H   0  0  0  0  0  0  0  0  0  0  0  0
   38.6820   23.3390   38.6400 C   0  0  0  0  0  0  0  0  0  0  0  0
   38.7020   23.0040   39.6610 H   0  0  0  0  0  0  0  0  0  0  0  0
   37.8380   24.0940   37.8600 C   0  0  0  0  0  0  0  0  0  0  0  0
   36.9170   24.5130   38.2900 H   0  0  0  0  0  0  0  0  0  0  0  0
   38.3050   24.1920   36.6610 O   0  0  0  0  0  0  0  0  0  0  0  0
  1  6  1  0  0  0  0
  2  3  1  0  0  0  0
  2  1  2  0  0  0  0
  3  4  2  0  0  0  0
  4  9  1  0  0  0  0
  4  5  1  0  0  0  0
  5 10  1  0  0  0  0
  6  5  2  0  0  0  0
  6 22  1  0  0  0  0
  7  2  1  0  0  0  0
  8  3  1  0  0  0  0
 11 17  1  0  0  0  0
 12 11  1  0  0  0  0
 12  1  1  0  0  0  0
 13 12  2  0  0  0  0
 14 15  2  0  0  0  0
 14 13  1  0  0  0  0
 15 16  1  0  0  0  0
 16 11  2  0  0  0  0
 18 13  1  0  0  0  0
 19 15  1  0  0  0  0
 20 22  1  0  0  0  0
 20 24  1  0  0  0  0
 21 20  2  0  0  0  0
 22 23  1  0  0  0  0
 24 25  1  0  0  0  0
 25 27  1  0  0  0  0
 26 25  2  0  0  0  0
 27 34  1  0  0  0  0
 27 28  2  0  0  0  0
 28 29  1  0  0  0  0
 28 30  1  0  0  0  0
 30 31  1  0  0  0  0
 32 33  1  0  0  0  0
 32 30  2  0  0  0  0
 34 32  1  0  0  0  0
M  END
>  <minimizedAffinity>
-5.19013739

$$$$

 OpenBabel03272500593D

 34 36  0  0  0  0  0  0  0  0999 V2000
   33.7160   30.6640   35.5390 C   0  0  0  0  0  0  0  0  0  0  0  0
   33.2920   31.7250   36.2830 C   0  0  0  0  0  0  0  0  0  0  0  0
   34.1550   32.7290   36.7290 C   0  0  0  0  0  0  0  0  0  0  0  0
   35.5520   32.6090   36.3670 C   0  0  0  0  0  0  0  0  0  0  0  0
   35.9150   31.5320   35.6240 C   0  0  0  0  0  0  0  0  0  0  0  0
   35.0720   30.5720   35.2040 C   0  0  0  0  0  0  0  0  0  0  0  0
   32.2370   31.8460   36.5740 H   0  0  0  0  0  0  0  0  0  0  0  0
   33.7510   33.5460   37.3180 H   0  0  0  0  0  0  0  0  0  0  0  0
   36.1010   33.4420   36.7700 H   0  0  0  0  0  0  0  0  0  0  0  0
   36.9730   31.6600   35.4540 H   0  0  0  0  0  0  0  0  0  0  0  0
   32.1810   28.8630   36.1340 C   0  0  0  0  0  0  0  0  0  0  0  0
   32.6980   29.7230   35.1360 C   0  0  0  0  0  0  0  0  0  0  0  0
   32.1460   29.5480   33.8940 C   0  0  0  0  0  0  0  0  0  0  0  0
   31.1930   28.6270   33.6830 N   0  0  0  0  0  0  0  0  0  0  0  0
   30.7240   27.8360   34.6200 C   0  0  0  0  0  0  0  0  0  0  0  0
   31.2180   27.9560   35.8410 N   0  0  0  0  0  0  0  0  0  0  0  0
   32.5620   28.9360   37.1350 H   0  0  0  0  0  0  0  0  0  0  0  0
   32.5370   30.2040   33.1250 H   0  0  0  0  0  0  0  0  0  0  0  0
   29.9560   27.0780   34.4960 H   0  0  0  0  0  0  0  0  0  0  0  0
   35.7460   29.8170   33.0810 C   0  0  0  0  0  0  0  0  0  0  0  0
   35.4860   31.0200   32.6760 O   0  0  0  0  0  0  0  0  0  0  0  0
   35.5160   29.4970   34.4770 N   0  0  0  0  0  0  0  0  0  0  0  0
   35.6700   28.5650   34.8700 H   0  0  0  0  0  0  0  0  0  0  0  0
   36.2220   28.8940   32.1860 O   0  0  0  0  0  0  0  0  0  0  0  0
   36.7420   27.6530   32.5350 C   0  0  0  0  0  0  0  0  0  0  0  0
   37.7200   27.5380   33.4080 O   0  0  0  0  0  0  0  0  0  0  0  0
   36.2070   26.3970   31.9550 C   0  0  0  0  0  0  0  0  0  0  0  0
   36.6800   25.0870   32.1090 C   0  0  0  0  0  0  0  0  0  0  0  0
   37.5540   24.8610   32.7160 H   0  0  0  0  0  0  0  0  0  0  0  0
   35.8660   24.2400   31.3840 C   0  0  0  0  0  0  0  0  0  0  0  0
   36.0650   23.1840   31.3740 H   0  0  0  0  0  0  0  0  0  0  0  0
   34.9320   25.0790   30.8230 C   0  0  0  0  0  0  0  0  0  0  0  0
   34.1390   24.6700   30.1800 H   0  0  0  0  0  0  0  0  0  0  0  0
   35.1610   26.3000   31.1720 O   0  0  0  0  0  0  0  0  0  0  0  0
  1  2  1  0  0  0  0
  2  7  1  0  0  0  0
  2  3  2  0  0  0  0
  3  8  1  0  0  0  0
  4  3  1  0  0  0  0
  4  9  1  0  0  0  0
  5  4  2  0  0  0  0
  6  1  2  0  0  0  0
  6  5  1  0  0  0  0
 10  5  1  0  0  0  0
 11 17  1  0  0  0  0
 12  1  1  0  0  0  0
 12 11  2  0  0  0  0
 13 12  1  0  0  0  0
 14 13  2  0  0  0  0
 14 15  1  0  0  0  0
 15 16  2  0  0  0  0
 16 11  1  0  0  0  0
 18 13  1  0  0  0  0
 19 15  1  0  0  0  0
 20 22  1  0  0  0  0
 21 20  2  0  0  0  0
 22 23  1  0  0  0  0
 22  6  1  0  0  0  0
 24 25  1  0  0  0  0
 24 20  1  0  0  0  0
 25 26  2  0  0  0  0
 27 28  2  0  0  0  0
 27 25  1  0  0  0  0
 28 29  1  0  0  0  0
 30 28  1  0  0  0  0
 31 30  1  0  0  0  0
 32 34  1  0  0  0  0
 32 30  2  0  0  0  0
 33 32  1  0  0  0  0
 34 27  1  0  0  0  0
M  END
>  <minimizedAffinity>
-5.17447042

$$$$

 OpenBabel03272500593D

 34 36  0  0  0  0  0  0  0  0999 V2000
   39.6690   23.4170   36.3500 C   0  0  0  0  0  0  0  0  0  0  0  0
   39.8880   22.9930   37.6270 C   0  0  0  0  0  0  0  0  0  0  0  0
   39.0080   23.2670   38.6760 C   0  0  0  0  0  0  0  0  0  0  0  0
   37.8210   24.0330   38.3600 C   0  0  0  0  0  0  0  0  0  0  0  0
   37.6550   24.4260   37.0710 C   0  0  0  0  0  0  0  0  0  0  0  0
   38.5150   24.1570   36.0720 C   0  0  0  0  0  0  0  0  0  0  0  0
   40.7810   22.4080   37.9000 H   0  0  0  0  0  0  0  0  0  0  0  0
   39.2440   22.9000   39.6700 H   0  0  0  0  0  0  0  0  0  0  0  0
   37.2330   24.1710   39.2510 H   0  0  0  0  0  0  0  0  0  0  0  0
   36.7110   24.9480   37.0630 H   0  0  0  0  0  0  0  0  0  0  0  0
   41.8140   23.8490   35.2680 C   0  0  0  0  0  0  0  0  0  0  0  0
   40.6620   23.0330   35.3740 C   0  0  0  0  0  0  0  0  0  0  0  0
   40.6450   21.9610   34.5210 C   0  0  0  0  0  0  0  0  0  0  0  0
   41.6590   21.7360   33.6710 N   0  0  0  0  0  0  0  0  0  0  0  0
   42.7220   22.5030   33.5850 C   0  0  0  0  0  0  0  0  0  0  0  0
   42.7960   23.5550   34.3830 N   0  0  0  0  0  0  0  0  0  0  0  0
   41.9030   24.7110   35.9020 H   0  0  0  0  0  0  0  0  0  0  0  0
   39.7660   21.3320   34.5960 H   0  0  0  0  0  0  0  0  0  0  0  0
   43.5650   22.3610   32.9150 H   0  0  0  0  0  0  0  0  0  0  0  0
   38.6740   25.9990   34.6170 C   0  0  0  0  0  0  0  0  0  0  0  0
   39.1280   26.6480   35.6430 O   0  0  0  0  0  0  0  0  0  0  0  0
   38.2940   24.6100   34.7970 N   0  0  0  0  0  0  0  0  0  0  0  0
   37.9030   24.0360   34.0450 H   0  0  0  0  0  0  0  0  0  0  0  0
   38.5660   26.6390   33.4100 O   0  0  0  0  0  0  0  0  0  0  0  0
   37.3640   27.0170   32.8220 C   0  0  0  0  0  0  0  0  0  0  0  0
   36.9430   28.2630   32.8590 O   0  0  0  0  0  0  0  0  0  0  0  0
   36.5090   26.0390   32.1070 C   0  0  0  0  0  0  0  0  0  0  0  0
   35.4530   26.2800   31.2190 C   0  0  0  0  0  0  0  0  0  0  0  0
   35.1440   27.2900   30.9560 H   0  0  0  0  0  0  0  0  0  0  0  0
   34.9470   25.0660   30.8000 C   0  0  0  0  0  0  0  0  0  0  0  0
   34.1250   25.0370   30.1090 H   0  0  0  0  0  0  0  0  0  0  0  0
   35.7240   24.1400   31.4560 C   0  0  0  0  0  0  0  0  0  0  0  0
   35.5430   23.0650   31.3100 H   0  0  0  0  0  0  0  0  0  0  0  0
   36.6020   24.7340   32.1920 O   0  0  0  0  0  0  0  0  0  0  0  0
  1  2  1  0  0  0  0
  2  7  1  0  0  0  0
  2  3  2  0  0  0  0
  3  8  1  0  0  0  0
  4  3  1  0  0  0  0
  4  9  1  0  0  0  0
  5  4  2  0  0  0  0
  6  1  2  0  0  0  0
  6  5  1  0  0  0  0
 10  5  1  0  0  0  0
 11 12  1  0  0  0  0
 11 17  1  0  0  0  0
 12  1  1  0  0  0  0
 13 18  1  0  0  0  0
 13 12  2  0  0  0  0
 14 13  1  0  0  0  0
 15 14  2  0  0  0  0
 15 16  1  0  0  0  0
 16 11  2  0  0  0  0
 19 15  1  0  0  0  0
 20 22  1  0  0  0  0
 20 21  2  0  0  0  0
 22  6  1  0  0  0  0
 23 22  1  0  0  0  0
 24 20  1  0  0  0  0
 25 26  2  0  0  0  0
 25 24  1  0  0  0  0
 27 34  1  0  0  0  0
 27 25  1  0  0  0  0
 28 27  2  0  0  0  0
 29 28  1  0  0  0  0
 30 28  1  0  0  0  0
 30 32  2  0  0  0  0
 31 30  1  0  0  0  0
 32 34  1  0  0  0  0
 33 32  1  0  0  0  0
M  END
>  <minimizedAffinity>
-5.17082548

$$$$

 OpenBabel03272500593D

 34 36  0  0  0  0  0  0  0  0999 V2000
   37.2060   22.0770   33.3310 C   0  0  0  0  0  0  0  0  0  0  0  0
   36.3690   21.0950   33.7680 C   0  0  0  0  0  0  0  0  0  0  0  0
   35.3470   20.5630   32.9780 C   0  0  0  0  0  0  0  0  0  0  0  0
   35.2000   21.0990   31.6400 C   0  0  0  0  0  0  0  0  0  0  0  0
   36.0630   22.0750   31.2590 C   0  0  0  0  0  0  0  0  0  0  0  0
   37.0410   22.5780   32.0340 C   0  0  0  0  0  0  0  0  0  0  0  0
   36.4550   20.6650   34.7790 H   0  0  0  0  0  0  0  0  0  0  0  0
   34.7160   19.7820   33.3890 H   0  0  0  0  0  0  0  0  0  0  0  0
   34.3830   20.6050   31.1430 H   0  0  0  0  0  0  0  0  0  0  0  0
   35.7910   22.2990   30.2400 H   0  0  0  0  0  0  0  0  0  0  0  0
   39.5070   21.9160   34.1280 C   0  0  0  0  0  0  0  0  0  0  0  0
   38.2260   22.5040   34.2590 C   0  0  0  0  0  0  0  0  0  0  0  0
   38.1240   23.4250   35.2690 C   0  0  0  0  0  0  0  0  0  0  0  0
   39.1770   23.7190   36.0470 N   0  0  0  0  0  0  0  0  0  0  0  0
   40.3600   23.1650   35.9120 C   0  0  0  0  0  0  0  0  0  0  0  0
   40.5210   22.2660   34.9550 N   0  0  0  0  0  0  0  0  0  0  0  0
   39.6690   21.1840   33.3610 H   0  0  0  0  0  0  0  0  0  0  0  0
   37.1460   23.8780   35.3750 H   0  0  0  0  0  0  0  0  0  0  0  0
   41.2390   23.3710   36.5160 H   0  0  0  0  0  0  0  0  0  0  0  0
   37.2250   24.8880   31.6280 C   0  0  0  0  0  0  0  0  0  0  0  0
   35.9940   24.9590   32.0250 O   0  0  0  0  0  0  0  0  0  0  0  0
   37.8600   23.5840   31.5900 N   0  0  0  0  0  0  0  0  0  0  0  0
   38.8190   23.4390   31.2650 H   0  0  0  0  0  0  0  0  0  0  0  0
   37.8800   26.0340   31.2570 O   0  0  0  0  0  0  0  0  0  0  0  0
   37.9200   27.2000   32.0140 C   0  0  0  0  0  0  0  0  0  0  0  0
   37.6000   28.3670   31.4950 O   0  0  0  0  0  0  0  0  0  0  0  0
   38.3030   27.1830   33.4460 C   0  0  0  0  0  0  0  0  0  0  0  0
   37.4860   27.3180   34.5760 C   0  0  0  0  0  0  0  0  0  0  0  0
   36.4110   27.4590   34.4920 H   0  0  0  0  0  0  0  0  0  0  0  0
   38.2810   27.2400   35.7020 C   0  0  0  0  0  0  0  0  0  0  0  0
   37.8370   27.3220   36.6780 H   0  0  0  0  0  0  0  0  0  0  0  0
   39.5480   27.0600   35.2010 C   0  0  0  0  0  0  0  0  0  0  0  0
   40.4040   26.9630   35.8850 H   0  0  0  0  0  0  0  0  0  0  0  0
   39.5190   27.0330   33.9110 O   0  0  0  0  0  0  0  0  0  0  0  0
  1  2  1  0  0  0  0
  1 12  1  0  0  0  0
  2  7  1  0  0  0  0
  3  8  1  0  0  0  0
  3  2  2  0  0  0  0
  4  3  1  0  0  0  0
  5  4  2  0  0  0  0
  5  6  1  0  0  0  0
  6  1  2  0  0  0  0
  9  4  1  0  0  0  0
 10  5  1  0  0  0  0
 11 12  2  0  0  0  0
 11 16  1  0  0  0  0
 12 13  1  0  0  0  0
 13 18  1  0  0  0  0
 13 14  2  0  0  0  0
 15 14  1  0  0  0  0
 15 19  1  0  0  0  0
 16 15  2  0  0  0  0
 17 11  1  0  0  0  0
 20 21  2  0  0  0  0
 22 20  1  0  0  0  0
 22  6  1  0  0  0  0
 23 22  1  0  0  0  0
 24 20  1  0  0  0  0
 24 25  1  0  0  0  0
 25 27  1  0  0  0  0
 26 25  2  0  0  0  0
 27 34  1  0  0  0  0
 27 28  2  0  0  0  0
 28 30  1  0  0  0  0
 29 28  1  0  0  0  0
 30 31  1  0  0  0  0
 32 30  2  0  0  0  0
 32 33  1  0  0  0  0
 34 32  1  0  0  0  0
M  END
>  <minimizedAffinity>
-5.07824183

$$$$

 OpenBabel03272500593D

 34 36  0  0  0  0  0  0  0  0999 V2000
   38.5910   24.8130   36.2670 C   0  0  0  0  0  0  0  0  0  0  0  0
   38.0620   25.3820   37.3870 C   0  0  0  0  0  0  0  0  0  0  0  0
   38.0600   24.7450   38.6300 C   0  0  0  0  0  0  0  0  0  0  0  0
   38.6550   23.4270   38.6980 C   0  0  0  0  0  0  0  0  0  0  0  0
   39.1680   22.9120   37.5520 C   0  0  0  0  0  0  0  0  0  0  0  0
   39.1590   23.5380   36.3610 C   0  0  0  0  0  0  0  0  0  0  0  0
   37.6030   26.3830   37.3690 H   0  0  0  0  0  0  0  0  0  0  0  0
   37.6210   25.2550   39.4820 H   0  0  0  0  0  0  0  0  0  0  0  0
   38.5880   23.0530   39.7050 H   0  0  0  0  0  0  0  0  0  0  0  0
   39.5740   21.9550   37.8380 H   0  0  0  0  0  0  0  0  0  0  0  0
   39.6450   26.4450   34.7910 C   0  0  0  0  0  0  0  0  0  0  0  0
   38.5370   25.6090   35.0640 C   0  0  0  0  0  0  0  0  0  0  0  0
   37.5400   25.6630   34.1250 C   0  0  0  0  0  0  0  0  0  0  0  0
   37.6460   26.4550   33.0470 N   0  0  0  0  0  0  0  0  0  0  0  0
   38.6820   27.2260   32.8070 C   0  0  0  0  0  0  0  0  0  0  0  0
   39.6780   27.2190   33.6790 N   0  0  0  0  0  0  0  0  0  0  0  0
   40.4690   26.4620   35.4790 H   0  0  0  0  0  0  0  0  0  0  0  0
   36.6880   25.0250   34.3280 H   0  0  0  0  0  0  0  0  0  0  0  0
   38.8110   27.8820   31.9520 H   0  0  0  0  0  0  0  0  0  0  0  0
   38.7400   22.0300   34.6040 C   0  0  0  0  0  0  0  0  0  0  0  0
   37.5840   21.8510   35.1610 O   0  0  0  0  0  0  0  0  0  0  0  0
   39.6730   22.9440   35.2370 N   0  0  0  0  0  0  0  0  0  0  0  0
   40.6140   23.1210   34.8760 H   0  0  0  0  0  0  0  0  0  0  0  0
   39.0430   21.3570   33.4490 O   0  0  0  0  0  0  0  0  0  0  0  0
   38.1480   21.1340   32.4080 C   0  0  0  0  0  0  0  0  0  0  0  0
   37.9670   19.9320   31.9020 O   0  0  0  0  0  0  0  0  0  0  0  0
   37.3400   22.2360   31.8300 C   0  0  0  0  0  0  0  0  0  0  0  0
   35.9610   22.4600   31.9330 C   0  0  0  0  0  0  0  0  0  0  0  0
   35.3120   21.7890   32.4910 H   0  0  0  0  0  0  0  0  0  0  0  0
   35.6520   23.6080   31.2320 C   0  0  0  0  0  0  0  0  0  0  0  0
   34.6350   23.9540   31.1910 H   0  0  0  0  0  0  0  0  0  0  0  0
   36.8630   24.0290   30.7360 C   0  0  0  0  0  0  0  0  0  0  0  0
   36.9220   24.9420   30.1250 H   0  0  0  0  0  0  0  0  0  0  0  0
   37.8010   23.2200   31.0990 O   0  0  0  0  0  0  0  0  0  0  0  0
  1  6  2  0  0  0  0
  1  2  1  0  0  0  0
  2  3  2  0  0  0  0
  3  4  1  0  0  0  0
  3  8  1  0  0  0  0
  4  9  1  0  0  0  0
  5 10  1  0  0  0  0
  5  4  2  0  0  0  0
  6  5  1  0  0  0  0
  7  2  1  0  0  0  0
 11 12  1  0  0  0  0
 11 17  1  0  0  0  0
 12  1  1  0  0  0  0
 13 18  1  0  0  0  0
 13 12  2  0  0  0  0
 14 13  1  0  0  0  0
 15 14  2  0  0  0  0
 15 16  1  0  0  0  0
 16 11  2  0  0  0  0
 19 15  1  0  0  0  0
 20 21  2  0  0  0  0
 20 22  1  0  0  0  0
 22  6  1  0  0  0  0
 23 22  1  0  0  0  0
 24 20  1  0  0  0  0
 25 24  1  0  0  0  0
 26 25  2  0  0  0  0
 27 28  2  0  0  0  0
 27 25  1  0  0  0  0
 28 29  1  0  0  0  0
 30 28  1  0  0  0  0
 31 30  1  0  0  0  0
 32 34  1  0  0  0  0
 32 30  2  0  0  0  0
 33 32  1  0  0  0  0
 34 27  1  0  0  0  0
M  END
>  <minimizedAffinity>
-5.05753231

$$$$

 OpenBabel03272500593D

 34 36  0  0  0  0  0  0  0  0999 V2000
   39.5560   25.5050   34.3650 C   0  0  0  0  0  0  0  0  0  0  0  0
   40.6840   26.0760   34.8740 C   0  0  0  0  0  0  0  0  0  0  0  0
   41.4410   27.0160   34.1700 C   0  0  0  0  0  0  0  0  0  0  0  0
   40.9780   27.3780   32.8460 C   0  0  0  0  0  0  0  0  0  0  0  0
   39.8490   26.7780   32.3920 C   0  0  0  0  0  0  0  0  0  0  0  0
   39.1330   25.8720   33.0820 C   0  0  0  0  0  0  0  0  0  0  0  0
   41.0620   25.8230   35.8770 H   0  0  0  0  0  0  0  0  0  0  0  0
   42.3290   27.4310   34.6350 H   0  0  0  0  0  0  0  0  0  0  0  0
   41.6460   28.1060   32.4190 H   0  0  0  0  0  0  0  0  0  0  0  0
   39.6810   27.2100   31.4180 H   0  0  0  0  0  0  0  0  0  0  0  0
   38.0830   25.1060   36.2680 C   0  0  0  0  0  0  0  0  0  0  0  0
   38.8740   24.5680   35.2250 C   0  0  0  0  0  0  0  0  0  0  0  0
   38.8810   23.1990   35.1670 C   0  0  0  0  0  0  0  0  0  0  0  0
   38.1810   22.4640   36.0450 N   0  0  0  0  0  0  0  0  0  0  0  0
   37.4500   22.9790   37.0070 C   0  0  0  0  0  0  0  0  0  0  0  0
   37.4040   24.2970   37.1160 N   0  0  0  0  0  0  0  0  0  0  0  0
   38.0250   26.1720   36.3830 H   0  0  0  0  0  0  0  0  0  0  0  0
   39.4850   22.7800   34.3710 H   0  0  0  0  0  0  0  0  0  0  0  0
   36.8680   22.4260   37.7390 H   0  0  0  0  0  0  0  0  0  0  0  0
   38.3250   24.2040   31.6340 C   0  0  0  0  0  0  0  0  0  0  0  0
   39.5710   23.9370   31.4000 O   0  0  0  0  0  0  0  0  0  0  0  0
   38.0130   25.2870   32.5490 N   0  0  0  0  0  0  0  0  0  0  0  0
   37.0570   25.5770   32.7660 H   0  0  0  0  0  0  0  0  0  0  0  0
   37.3500   23.4640   31.0150 O   0  0  0  0  0  0  0  0  0  0  0  0
   36.0900   23.2160   31.5480 C   0  0  0  0  0  0  0  0  0  0  0  0
   35.1490   24.1350   31.5450 O   0  0  0  0  0  0  0  0  0  0  0  0
   35.7390   21.8960   32.1280 C   0  0  0  0  0  0  0  0  0  0  0  0
   35.1490   20.7910   31.5010 C   0  0  0  0  0  0  0  0  0  0  0  0
   34.8750   20.8080   30.4490 H   0  0  0  0  0  0  0  0  0  0  0  0
   35.0090   19.7830   32.4340 C   0  0  0  0  0  0  0  0  0  0  0  0
   34.5740   18.8430   32.1470 H   0  0  0  0  0  0  0  0  0  0  0  0
   35.5250   20.3250   33.5870 C   0  0  0  0  0  0  0  0  0  0  0  0
   35.5440   19.7340   34.5140 H   0  0  0  0  0  0  0  0  0  0  0  0
   35.9300   21.5320   33.3720 O   0  0  0  0  0  0  0  0  0  0  0  0
  1  2  1  0  0  0  0
  1 12  1  0  0  0  0
  2  7  1  0  0  0  0
  3  8  1  0  0  0  0
  3  2  2  0  0  0  0
  4  3  1  0  0  0  0
  5  4  2  0  0  0  0
  5  6  1  0  0  0  0
  6  1  2  0  0  0  0
  9  4  1  0  0  0  0
 10  5  1  0  0  0  0
 11 17  1  0  0  0  0
 11 16  1  0  0  0  0
 12 11  2  0  0  0  0
 13 12  1  0  0  0  0
 13 14  2  0  0  0  0
 14 15  1  0  0  0  0
 15 16  2  0  0  0  0
 15 19  1  0  0  0  0
 18 13  1  0  0  0  0
 20 22  1  0  0  0  0
 21 20  2  0  0  0  0
 22 23  1  0  0  0  0
 22  6  1  0  0  0  0
 24 25  1  0  0  0  0
 24 20  1  0  0  0  0
 25 27  1  0  0  0  0
 26 25  2  0  0  0  0
 27 34  1  0  0  0  0
 28 27  2  0  0  0  0
 28 30  1  0  0  0  0
 29 28  1  0  0  0  0
 30 32  2  0  0  0  0
 31 30  1  0  0  0  0
 32 33  1  0  0  0  0
 34 32  1  0  0  0  0
M  END
>  <minimizedAffinity>
-5.05718613

$$$$

 OpenBabel03272500593D

 34 36  0  0  0  0  0  0  0  0999 V2000
   38.5310   25.4330   35.3120 C   0  0  0  0  0  0  0  0  0  0  0  0
   38.5880   26.6650   35.8910 C   0  0  0  0  0  0  0  0  0  0  0  0
   37.9070   27.7730   35.3820 C   0  0  0  0  0  0  0  0  0  0  0  0
   37.1140   27.5690   34.1870 C   0  0  0  0  0  0  0  0  0  0  0  0
   37.0950   26.3210   33.6550 C   0  0  0  0  0  0  0  0  0  0  0  0
   37.7590   25.2640   34.1570 C   0  0  0  0  0  0  0  0  0  0  0  0
   39.1800   26.8530   36.8010 H   0  0  0  0  0  0  0  0  0  0  0  0
   37.9950   28.7260   35.8930 H   0  0  0  0  0  0  0  0  0  0  0  0
   36.6450   28.4960   33.9040 H   0  0  0  0  0  0  0  0  0  0  0  0
   36.4350   26.3950   32.8050 H   0  0  0  0  0  0  0  0  0  0  0  0
   38.7020   23.8260   37.1400 C   0  0  0  0  0  0  0  0  0  0  0  0
   39.2730   24.3850   35.9720 C   0  0  0  0  0  0  0  0  0  0  0  0
   40.4780   23.8400   35.6120 C   0  0  0  0  0  0  0  0  0  0  0  0
   41.0360   22.8560   36.3350 N   0  0  0  0  0  0  0  0  0  0  0  0
   40.4930   22.3480   37.4170 C   0  0  0  0  0  0  0  0  0  0  0  0
   39.3290   22.8340   37.8160 N   0  0  0  0  0  0  0  0  0  0  0  0
   37.7580   24.1990   37.4900 H   0  0  0  0  0  0  0  0  0  0  0  0
   40.9210   24.2630   34.7190 H   0  0  0  0  0  0  0  0  0  0  0  0
   40.9070   21.5540   38.0320 H   0  0  0  0  0  0  0  0  0  0  0  0
   38.6290   23.9260   32.4280 C   0  0  0  0  0  0  0  0  0  0  0  0
   39.3350   24.9640   32.1100 O   0  0  0  0  0  0  0  0  0  0  0  0
   37.7140   24.0350   33.5490 N   0  0  0  0  0  0  0  0  0  0  0  0
   37.1020   23.2720   33.8480 H   0  0  0  0  0  0  0  0  0  0  0  0
   38.7640   22.7700   31.7030 O   0  0  0  0  0  0  0  0  0  0  0  0
   38.4640   21.4990   32.1800 C   0  0  0  0  0  0  0  0  0  0  0  0
   39.3940   20.7200   32.6920 O   0  0  0  0  0  0  0  0  0  0  0  0
   37.0800   20.9680   32.1550 C   0  0  0  0  0  0  0  0  0  0  0  0
   36.6450   19.6640   31.8850 C   0  0  0  0  0  0  0  0  0  0  0  0
   37.3440   18.8630   31.6520 H   0  0  0  0  0  0  0  0  0  0  0  0
   35.2680   19.6350   31.9750 C   0  0  0  0  0  0  0  0  0  0  0  0
   34.7380   18.7160   31.8010 H   0  0  0  0  0  0  0  0  0  0  0  0
   34.9300   20.9280   32.2960 C   0  0  0  0  0  0  0  0  0  0  0  0
   33.8740   21.2050   32.4330 H   0  0  0  0  0  0  0  0  0  0  0  0
   35.9910   21.6570   32.3900 O   0  0  0  0  0  0  0  0  0  0  0  0
  1  2  1  0  0  0  0
  1 12  1  0  0  0  0
  2  7  1  0  0  0  0
  3  2  2  0  0  0  0
  3  8  1  0  0  0  0
  4  3  1  0  0  0  0
  5  6  1  0  0  0  0
  5  4  2  0  0  0  0
  6  1  2  0  0  0  0
  9  4  1  0  0  0  0
 10  5  1  0  0  0  0
 11 17  1  0  0  0  0
 11 16  1  0  0  0  0
 12 11  2  0  0  0  0
 13 12  1  0  0  0  0
 13 14  2  0  0  0  0
 14 15  1  0  0  0  0
 15 16  2  0  0  0  0
 15 19  1  0  0  0  0
 18 13  1  0  0  0  0
 20 22  1  0  0  0  0
 21 20  2  0  0  0  0
 22 23  1  0  0  0  0
 22  6  1  0  0  0  0
 24 25  1  0  0  0  0
 24 20  1  0  0  0  0
 25 26  2  0  0  0  0
 27 25  1  0  0  0  0
 27 34  1  0  0  0  0
 28 30  1  0  0  0  0
 28 27  2  0  0  0  0
 29 28  1  0  0  0  0
 30 32  2  0  0  0  0
 31 30  1  0  0  0  0
 32 34  1  0  0  0  0
 32 33  1  0  0  0  0
M  END
>  <minimizedAffinity>
-5.00492525

$$$$

 OpenBabel03272500593D

 34 36  0  0  0  0  0  0  0  0999 V2000
   36.3630   22.1140   31.9610 C   0  0  0  0  0  0  0  0  0  0  0  0
   35.8740   21.2840   30.9970 C   0  0  0  0  0  0  0  0  0  0  0  0
   35.5830   19.9380   31.2320 C   0  0  0  0  0  0  0  0  0  0  0  0
   35.8220   19.4360   32.5700 C   0  0  0  0  0  0  0  0  0  0  0  0
   36.3090   20.3080   33.4890 C   0  0  0  0  0  0  0  0  0  0  0  0
   36.5860   21.6020   33.2450 C   0  0  0  0  0  0  0  0  0  0  0  0
   35.6810   21.6360   29.9710 H   0  0  0  0  0  0  0  0  0  0  0  0
   35.1960   19.3340   30.4190 H   0  0  0  0  0  0  0  0  0  0  0  0
   35.5580   18.3930   32.6140 H   0  0  0  0  0  0  0  0  0  0  0  0
   36.3810   19.7350   34.4000 H   0  0  0  0  0  0  0  0  0  0  0  0
   35.4680   24.3450   31.5440 C   0  0  0  0  0  0  0  0  0  0  0  0
   36.5910   23.4840   31.5660 C   0  0  0  0  0  0  0  0  0  0  0  0
   37.7710   24.0800   31.2070 C   0  0  0  0  0  0  0  0  0  0  0  0
   37.8170   25.3790   30.8710 N   0  0  0  0  0  0  0  0  0  0  0  0
   36.7650   26.1660   30.8560 C   0  0  0  0  0  0  0  0  0  0  0  0
   35.5950   25.6470   31.1920 N   0  0  0  0  0  0  0  0  0  0  0  0
   34.5040   23.9540   31.8120 H   0  0  0  0  0  0  0  0  0  0  0  0
   38.6350   23.4260   31.2220 H   0  0  0  0  0  0  0  0  0  0  0  0
   36.7540   27.2190   30.5910 H   0  0  0  0  0  0  0  0  0  0  0  0
   38.5450   22.3290   34.3240 C   0  0  0  0  0  0  0  0  0  0  0  0
   39.1670   21.4970   33.5490 O   0  0  0  0  0  0  0  0  0  0  0  0
   37.1010   22.4190   34.2170 N   0  0  0  0  0  0  0  0  0  0  0  0
   36.5340   23.0310   34.8100 H   0  0  0  0  0  0  0  0  0  0  0  0
   39.2640   23.0870   35.2120 O   0  0  0  0  0  0  0  0  0  0  0  0
   38.7090   24.0090   36.0920 C   0  0  0  0  0  0  0  0  0  0  0  0
   38.5830   23.7450   37.3750 O   0  0  0  0  0  0  0  0  0  0  0  0
   38.2500   25.3420   35.6320 C   0  0  0  0  0  0  0  0  0  0  0  0
   38.4830   26.5980   36.2080 C   0  0  0  0  0  0  0  0  0  0  0  0
   39.0680   26.7110   37.1180 H   0  0  0  0  0  0  0  0  0  0  0  0
   37.8610   27.5560   35.4330 C   0  0  0  0  0  0  0  0  0  0  0  0
   37.9230   28.5930   35.7100 H   0  0  0  0  0  0  0  0  0  0  0  0
   37.2780   26.8340   34.4190 C   0  0  0  0  0  0  0  0  0  0  0  0
   36.7020   27.3490   33.6360 H   0  0  0  0  0  0  0  0  0  0  0  0
   37.5220   25.5760   34.5680 O   0  0  0  0  0  0  0  0  0  0  0  0
  1  6  1  0  0  0  0
  2  3  1  0  0  0  0
  2  1  2  0  0  0  0
  3  4  2  0  0  0  0
  4  9  1  0  0  0  0
  4  5  1  0  0  0  0
  5 10  1  0  0  0  0
  6  5  2  0  0  0  0
  6 22  1  0  0  0  0
  7  2  1  0  0  0  0
  8  3  1  0  0  0  0
 11 12  1  0  0  0  0
 11 17  1  0  0  0  0
 12  1  1  0  0  0  0
 13 18  1  0  0  0  0
 13 12  2  0  0  0  0
 14 13  1  0  0  0  0
 15 14  2  0  0  0  0
 15 16  1  0  0  0  0
 16 11  2  0  0  0  0
 19 15  1  0  0  0  0
 20 24  1  0  0  0  0
 21 20  2  0  0  0  0
 22 20  1  0  0  0  0
 22 23  1  0  0  0  0
 24 25  1  0  0  0  0
 25 26  2  0  0  0  0
 27 25  1  0  0  0  0
 27 28  2  0  0  0  0
 28 29  1  0  0  0  0
 30 31  1  0  0  0  0
 30 28  1  0  0  0  0
 32 34  1  0  0  0  0
 32 30  2  0  0  0  0
 33 32  1  0  0  0  0
 34 27  1  0  0  0  0
M  END
>  <minimizedAffinity>
-4.96366596

$$$$

 OpenBabel03272500593D

 34 36  0  0  0  0  0  0  0  0999 V2000
   36.6300   27.4010   32.6550 C   0  0  0  0  0  0  0  0  0  0  0  0
   36.2520   28.4950   31.9350 C   0  0  0  0  0  0  0  0  0  0  0  0
   35.8790   29.7020   32.5320 C   0  0  0  0  0  0  0  0  0  0  0  0
   35.9080   29.7600   33.9790 C   0  0  0  0  0  0  0  0  0  0  0  0
   36.2940   28.6400   34.6420 C   0  0  0  0  0  0  0  0  0  0  0  0
   36.6470   27.4840   34.0520 C   0  0  0  0  0  0  0  0  0  0  0  0
   36.2210   28.4840   30.8340 H   0  0  0  0  0  0  0  0  0  0  0  0
   35.5890   30.5340   31.8990 H   0  0  0  0  0  0  0  0  0  0  0  0
   35.6020   30.7380   34.3060 H   0  0  0  0  0  0  0  0  0  0  0  0
   36.2670   28.9160   35.6850 H   0  0  0  0  0  0  0  0  0  0  0  0
   38.3560   26.1500   31.4670 C   0  0  0  0  0  0  0  0  0  0  0  0
   37.0080   26.2360   31.8900 C   0  0  0  0  0  0  0  0  0  0  0  0
   36.2260   25.1760   31.5130 C   0  0  0  0  0  0  0  0  0  0  0  0
   36.7350   24.1570   30.8040 N   0  0  0  0  0  0  0  0  0  0  0  0
   37.9900   24.0920   30.4190 C   0  0  0  0  0  0  0  0  0  0  0  0
   38.7950   25.0870   30.7520 N   0  0  0  0  0  0  0  0  0  0  0  0
   39.0350   26.9420   31.7210 H   0  0  0  0  0  0  0  0  0  0  0  0
   35.1930   25.2360   31.8340 H   0  0  0  0  0  0  0  0  0  0  0  0
   38.4450   23.2900   29.8460 H   0  0  0  0  0  0  0  0  0  0  0  0
   38.3780   26.4290   35.2460 C   0  0  0  0  0  0  0  0  0  0  0  0
   39.1070   27.4420   34.8970 O   0  0  0  0  0  0  0  0  0  0  0  0
   37.0010   26.3830   34.7890 N   0  0  0  0  0  0  0  0  0  0  0  0
   36.3690   25.6070   34.9980 H   0  0  0  0  0  0  0  0  0  0  0  0
   38.9250   25.4430   36.0260 O   0  0  0  0  0  0  0  0  0  0  0  0
   38.8540   24.0840   35.7430 C   0  0  0  0  0  0  0  0  0  0  0  0
   37.8900   23.5860   34.9990 O   0  0  0  0  0  0  0  0  0  0  0  0
   39.8730   23.1320   36.2490 C   0  0  0  0  0  0  0  0  0  0  0  0
   40.0630   22.6600   37.5540 C   0  0  0  0  0  0  0  0  0  0  0  0
   39.4260   22.9780   38.3760 H   0  0  0  0  0  0  0  0  0  0  0  0
   41.1350   21.7900   37.5530 C   0  0  0  0  0  0  0  0  0  0  0  0
   41.4420   21.3170   38.4680 H   0  0  0  0  0  0  0  0  0  0  0  0
   41.5470   21.7750   36.2410 C   0  0  0  0  0  0  0  0  0  0  0  0
   42.4030   21.1530   35.9390 H   0  0  0  0  0  0  0  0  0  0  0  0
   40.8030   22.5530   35.5290 O   0  0  0  0  0  0  0  0  0  0  0  0
  1  6  1  0  0  0  0
  2  3  1  0  0  0  0
  2  1  2  0  0  0  0
  3  4  2  0  0  0  0
  4  9  1  0  0  0  0
  4  5  1  0  0  0  0
  5 10  1  0  0  0  0
  6  5  2  0  0  0  0
  6 22  1  0  0  0  0
  7  2  1  0  0  0  0
  8  3  1  0  0  0  0
 11 17  1  0  0  0  0
 11 12  1  0  0  0  0
 12  1  1  0  0  0  0
 13 18  1  0  0  0  0
 13 12  2  0  0  0  0
 14 13  1  0  0  0  0
 15 16  1  0  0  0  0
 15 14  2  0  0  0  0
 16 11  2  0  0  0  0
 19 15  1  0  0  0  0
 20 24  1  0  0  0  0
 21 20  2  0  0  0  0
 22 23  1  0  0  0  0
 22 20  1  0  0  0  0
 25 24  1  0  0  0  0
 25 27  1  0  0  0  0
 26 25  2  0  0  0  0
 27 28  2  0  0  0  0
 28 29  1  0  0  0  0
 30 28  1  0  0  0  0
 30 31  1  0  0  0  0
 32 30  2  0  0  0  0
 33 32  1  0  0  0  0
 34 32  1  0  0  0  0
 34 27  1  0  0  0  0
M  END
>  <minimizedAffinity>
-4.95987082

$$$$
