
 OpenBabel03272500573D

 34 36  0  0  0  0  0  0  0  0999 V2000
   38.1640   31.8220   47.4130 C   0  0  0  0  0  0  0  0  0  0  0  0
   38.7200   32.6260   48.3630 C   0  0  0  0  0  0  0  0  0  0  0  0
   38.2730   32.6560   49.6860 C   0  0  0  0  0  0  0  0  0  0  0  0
   37.1720   31.7810   50.0310 C   0  0  0  0  0  0  0  0  0  0  0  0
   36.6590   31.0020   49.0440 C   0  0  0  0  0  0  0  0  0  0  0  0
   37.0990   30.9880   47.7730 C   0  0  0  0  0  0  0  0  0  0  0  0
   39.5590   33.3020   48.1340 H   0  0  0  0  0  0  0  0  0  0  0  0
   38.7620   33.3200   50.3920 H   0  0  0  0  0  0  0  0  0  0  0  0
   36.9290   31.9010   51.0730 H   0  0  0  0  0  0  0  0  0  0  0  0
   35.8830   30.4260   49.5250 H   0  0  0  0  0  0  0  0  0  0  0  0
   39.9970   31.2410   45.9110 C   0  0  0  0  0  0  0  0  0  0  0  0
   38.7530   31.8910   46.0980 C   0  0  0  0  0  0  0  0  0  0  0  0
   38.2620   32.5080   44.9760 C   0  0  0  0  0  0  0  0  0  0  0  0
   38.9340   32.4730   43.8160 N   0  0  0  0  0  0  0  0  0  0  0  0
   40.0870   31.8640   43.6590 C   0  0  0  0  0  0  0  0  0  0  0  0
   40.6140   31.2510   44.7060 N   0  0  0  0  0  0  0  0  0  0  0  0
   40.4510   30.7340   46.7420 H   0  0  0  0  0  0  0  0  0  0  0  0
   37.3100   33.0070   45.1120 H   0  0  0  0  0  0  0  0  0  0  0  0
   40.6660   31.8100   42.7420 H   0  0  0  0  0  0  0  0  0  0  0  0
   35.0800   30.0630   46.9990 C   0  0  0  0  0  0  0  0  0  0  0  0
   34.5310   30.6570   48.0110 O   0  0  0  0  0  0  0  0  0  0  0  0
   36.5140   30.1920   46.8220 N   0  0  0  0  0  0  0  0  0  0  0  0
   37.0280   29.7340   46.0650 H   0  0  0  0  0  0  0  0  0  0  0  0
   34.2970   29.3380   46.1380 O   0  0  0  0  0  0  0  0  0  0  0  0
   33.0610   29.7530   45.6560 C   0  0  0  0  0  0  0  0  0  0  0  0
   32.9620   30.5730   44.6320 O   0  0  0  0  0  0  0  0  0  0  0  0
   31.7930   29.2750   46.2600 C   0  0  0  0  0  0  0  0  0  0  0  0
   30.4820   29.6830   45.9870 C   0  0  0  0  0  0  0  0  0  0  0  0
   30.2630   30.4520   45.2480 H   0  0  0  0  0  0  0  0  0  0  0  0
   29.6210   28.9620   46.7900 C   0  0  0  0  0  0  0  0  0  0  0  0
   28.5620   29.1310   46.7310 H   0  0  0  0  0  0  0  0  0  0  0  0
   30.4550   28.1440   47.5160 C   0  0  0  0  0  0  0  0  0  0  0  0
   30.0370   27.4440   48.2540 H   0  0  0  0  0  0  0  0  0  0  0  0
   31.6860   28.3530   47.1850 O   0  0  0  0  0  0  0  0  0  0  0  0
  1  6  2  0  0  0  0
  1  2  1  0  0  0  0
  2  3  2  0  0  0  0
  3  4  1  0  0  0  0
  3  8  1  0  0  0  0
  4  9  1  0  0  0  0
  5 10  1  0  0  0  0
  5  4  2  0  0  0  0
  6  5  1  0  0  0  0
  7  2  1  0  0  0  0
 11 12  1  0  0  0  0
 11 17  1  0  0  0  0
 12  1  1  0  0  0  0
 13 18  1  0  0  0  0
 13 12  2  0  0  0  0
 14 13  1  0  0  0  0
 15 14  2  0  0  0  0
 15 16  1  0  0  0  0
 16 11  2  0  0  0  0
 19 15  1  0  0  0  0
 20 21  2  0  0  0  0
 22 20  1  0  0  0  0
 22  6  1  0  0  0  0
 23 22  1  0  0  0  0
 24 20  1  0  0  0  0
 25 24  1  0  0  0  0
 25 27  1  0  0  0  0
 26 25  2  0  0  0  0
 27 34  1  0  0  0  0
 28 27  2  0  0  0  0
 28 30  1  0  0  0  0
 29 28  1  0  0  0  0
 30 32  2  0  0  0  0
 31 30  1  0  0  0  0
 32 33  1  0  0  0  0
 34 32  1  0  0  0  0
M  END
>  <minimizedAffinity>
-5.6418643

>  <minimizedRMSD>
0.901687801

$$$$
