
 OpenBabel03272500573D

 34 36  0  0  0  0  0  0  0  0999 V2000
   38.1690   31.8770   47.3940 C   0  0  0  0  0  0  0  0  0  0  0  0
   38.6930   32.7380   48.3110 C   0  0  0  0  0  0  0  0  0  0  0  0
   38.2390   32.8080   49.6300 C   0  0  0  0  0  0  0  0  0  0  0  0
   37.1650   31.9120   50.0070 C   0  0  0  0  0  0  0  0  0  0  0  0
   36.6830   31.0760   49.0520 C   0  0  0  0  0  0  0  0  0  0  0  0
   37.1310   31.0230   47.7850 C   0  0  0  0  0  0  0  0  0  0  0  0
   39.5110   33.4310   48.0570 H   0  0  0  0  0  0  0  0  0  0  0  0
   38.7020   33.5170   50.3090 H   0  0  0  0  0  0  0  0  0  0  0  0
   36.9140   32.0670   51.0420 H   0  0  0  0  0  0  0  0  0  0  0  0
   35.9250   30.4950   49.5530 H   0  0  0  0  0  0  0  0  0  0  0  0
   40.0050   31.2540   45.9130 C   0  0  0  0  0  0  0  0  0  0  0  0
   38.7620   31.9100   46.0790 C   0  0  0  0  0  0  0  0  0  0  0  0
   38.2750   32.4970   44.9400 C   0  0  0  0  0  0  0  0  0  0  0  0
   38.9500   32.4310   43.7830 N   0  0  0  0  0  0  0  0  0  0  0  0
   40.1030   31.8170   43.6450 C   0  0  0  0  0  0  0  0  0  0  0  0
   40.6270   31.2310   44.7100 N   0  0  0  0  0  0  0  0  0  0  0  0
   40.4560   30.7690   46.7590 H   0  0  0  0  0  0  0  0  0  0  0  0
   37.3230   33.0010   45.0600 H   0  0  0  0  0  0  0  0  0  0  0  0
   40.6850   31.7380   42.7320 H   0  0  0  0  0  0  0  0  0  0  0  0
   35.1400   30.0330   47.0160 C   0  0  0  0  0  0  0  0  0  0  0  0
   34.5610   30.6740   47.9810 O   0  0  0  0  0  0  0  0  0  0  0  0
   36.5770   30.1700   46.8650 N   0  0  0  0  0  0  0  0  0  0  0  0
   37.1130   29.6770   46.1470 H   0  0  0  0  0  0  0  0  0  0  0  0
   34.3860   29.2520   46.1780 O   0  0  0  0  0  0  0  0  0  0  0  0
   33.1040   29.5700   45.7450 C   0  0  0  0  0  0  0  0  0  0  0  0
   32.9040   30.3300   44.6900 O   0  0  0  0  0  0  0  0  0  0  0  0
   31.9000   29.0510   46.4380 C   0  0  0  0  0  0  0  0  0  0  0  0
   31.8110   28.0430   47.4070 C   0  0  0  0  0  0  0  0  0  0  0  0
   32.6910   27.5110   47.7640 H   0  0  0  0  0  0  0  0  0  0  0  0
   30.4870   27.8960   47.7670 C   0  0  0  0  0  0  0  0  0  0  0  0
   30.2080   27.1660   48.5050 H   0  0  0  0  0  0  0  0  0  0  0  0
   29.8310   28.8270   46.9950 C   0  0  0  0  0  0  0  0  0  0  0  0
   28.7390   28.9360   47.0730 H   0  0  0  0  0  0  0  0  0  0  0  0
   30.6720   29.4640   46.2510 O   0  0  0  0  0  0  0  0  0  0  0  0
  1  6  2  0  0  0  0
  1  2  1  0  0  0  0
  2  3  2  0  0  0  0
  3  4  1  0  0  0  0
  3  8  1  0  0  0  0
  4  9  1  0  0  0  0
  5 10  1  0  0  0  0
  5  4  2  0  0  0  0
  6  5  1  0  0  0  0
  7  2  1  0  0  0  0
 11 12  1  0  0  0  0
 11 17  1  0  0  0  0
 12  1  1  0  0  0  0
 13 18  1  0  0  0  0
 13 12  2  0  0  0  0
 14 13  1  0  0  0  0
 15 14  2  0  0  0  0
 15 16  1  0  0  0  0
 16 11  2  0  0  0  0
 19 15  1  0  0  0  0
 20 21  2  0  0  0  0
 22 20  1  0  0  0  0
 22  6  1  0  0  0  0
 23 22  1  0  0  0  0
 24 20  1  0  0  0  0
 25 24  1  0  0  0  0
 25 27  1  0  0  0  0
 26 25  2  0  0  0  0
 27 28  2  0  0  0  0
 28 29  1  0  0  0  0
 28 30  1  0  0  0  0
 30 31  1  0  0  0  0
 32 33  1  0  0  0  0
 32 30  2  0  0  0  0
 34 27  1  0  0  0  0
 34 32  1  0  0  0  0
M  END
>  <minimizedAffinity>
-5.62840891

>  <minimizedRMSD>
0.954915762

$$$$
