
 OpenBabel03272500573D

 34 36  0  0  0  0  0  0  0  0999 V2000
   38.2960   31.9680   47.4010 C   0  0  0  0  0  0  0  0  0  0  0  0
   38.8440   32.8690   48.2640 C   0  0  0  0  0  0  0  0  0  0  0  0
   38.4340   32.9900   49.5940 C   0  0  0  0  0  0  0  0  0  0  0  0
   37.3810   32.1040   50.0430 C   0  0  0  0  0  0  0  0  0  0  0  0
   36.8730   31.2270   49.1400 C   0  0  0  0  0  0  0  0  0  0  0  0
   37.2780   31.1250   47.8610 C   0  0  0  0  0  0  0  0  0  0  0  0
   39.6470   33.5560   47.9540 H   0  0  0  0  0  0  0  0  0  0  0  0
   38.9140   33.7300   50.2270 H   0  0  0  0  0  0  0  0  0  0  0  0
   37.1630   32.3000   51.0790 H   0  0  0  0  0  0  0  0  0  0  0  0
   36.1370   30.6620   49.6900 H   0  0  0  0  0  0  0  0  0  0  0  0
   40.0680   31.2650   45.8780 C   0  0  0  0  0  0  0  0  0  0  0  0
   38.8440   31.9510   46.0660 C   0  0  0  0  0  0  0  0  0  0  0  0
   38.3300   32.5140   44.9270 C   0  0  0  0  0  0  0  0  0  0  0  0
   38.9640   32.4010   43.7500 N   0  0  0  0  0  0  0  0  0  0  0  0
   40.0990   31.7600   43.5930 C   0  0  0  0  0  0  0  0  0  0  0  0
   40.6470   31.1940   44.6560 N   0  0  0  0  0  0  0  0  0  0  0  0
   40.5380   30.7950   46.7220 H   0  0  0  0  0  0  0  0  0  0  0  0
   37.3930   33.0410   45.0640 H   0  0  0  0  0  0  0  0  0  0  0  0
   40.6470   31.6420   42.6630 H   0  0  0  0  0  0  0  0  0  0  0  0
   35.2750   30.0690   47.2200 C   0  0  0  0  0  0  0  0  0  0  0  0
   34.7280   30.7300   48.1910 O   0  0  0  0  0  0  0  0  0  0  0  0
   36.7000   30.2300   46.9970 N   0  0  0  0  0  0  0  0  0  0  0  0
   37.2120   29.7250   46.2690 H   0  0  0  0  0  0  0  0  0  0  0  0
   34.5000   29.2470   46.4450 O   0  0  0  0  0  0  0  0  0  0  0  0
   33.1260   29.3830   46.2790 C   0  0  0  0  0  0  0  0  0  0  0  0
   32.6190   30.2130   45.3930 O   0  0  0  0  0  0  0  0  0  0  0  0
   32.1660   28.5840   47.0790 C   0  0  0  0  0  0  0  0  0  0  0  0
   32.4200   27.7260   48.1560 C   0  0  0  0  0  0  0  0  0  0  0  0
   33.4280   27.5570   48.5280 H   0  0  0  0  0  0  0  0  0  0  0  0
   31.2210   27.1980   48.5890 C   0  0  0  0  0  0  0  0  0  0  0  0
   31.2030   26.5100   49.4140 H   0  0  0  0  0  0  0  0  0  0  0  0
   30.2900   27.7630   47.7500 C   0  0  0  0  0  0  0  0  0  0  0  0
   29.2230   27.5180   47.8640 H   0  0  0  0  0  0  0  0  0  0  0  0
   30.8680   28.5480   46.9020 O   0  0  0  0  0  0  0  0  0  0  0  0
  1  6  2  0  0  0  0
  1  2  1  0  0  0  0
  2  3  2  0  0  0  0
  3  4  1  0  0  0  0
  3  8  1  0  0  0  0
  4  9  1  0  0  0  0
  5 10  1  0  0  0  0
  5  4  2  0  0  0  0
  6  5  1  0  0  0  0
  7  2  1  0  0  0  0
 11 12  1  0  0  0  0
 11 17  1  0  0  0  0
 12  1  1  0  0  0  0
 13 18  1  0  0  0  0
 13 12  2  0  0  0  0
 14 13  1  0  0  0  0
 15 14  2  0  0  0  0
 15 16  1  0  0  0  0
 16 11  2  0  0  0  0
 19 15  1  0  0  0  0
 20 21  2  0  0  0  0
 22 20  1  0  0  0  0
 22  6  1  0  0  0  0
 23 22  1  0  0  0  0
 24 20  1  0  0  0  0
 25 24  1  0  0  0  0
 25 27  1  0  0  0  0
 26 25  2  0  0  0  0
 27 28  2  0  0  0  0
 28 29  1  0  0  0  0
 28 30  1  0  0  0  0
 30 31  1  0  0  0  0
 32 33  1  0  0  0  0
 32 30  2  0  0  0  0
 34 27  1  0  0  0  0
 34 32  1  0  0  0  0
M  END
>  <minimizedAffinity>
-5.75769377

>  <minimizedRMSD>
1.33699954

$$$$
