
 OpenBabel03272508573D

 39 42  0  0  1  0  0  0  0  0999 V2000
   38.3680   31.9060   44.5230 C   0  0  0  0  0  0  0  0  0  0  0  0
   37.2340   32.4280   44.4140 O   0  0  0  0  0  0  0  0  0  0  0  0
   38.9500   31.6860   45.8220 N   0  0  0  0  0  0  0  0  0  0  0  0
   39.9560   31.4680   45.9660 H   0  0  0  0  0  0  0  0  0  0  0  0
   39.1480   31.5010   43.3320 C   0  0  0  0  0  0  0  0  0  0  0  0
   40.1390   30.5720   43.4770 C   0  0  0  0  0  0  0  0  0  0  0  0
   40.8460   30.2220   42.3370 C   0  0  0  0  0  0  0  0  0  0  0  0
   40.5200   30.8130   41.1530 C   0  0  0  0  0  0  0  0  0  0  0  0
   39.5190   31.7520   40.9970 C   0  0  0  0  0  0  0  0  0  0  0  0
   38.8630   32.0590   42.1310 N   0  0  0  0  0  0  0  0  0  0  0  0
   40.4060   30.0990   44.4050 H   0  0  0  0  0  0  0  0  0  0  0  0
   41.6320   29.4930   42.4190 H   0  0  0  0  0  0  0  0  0  0  0  0
   41.1000   30.5070   40.2850 H   0  0  0  0  0  0  0  0  0  0  0  0
   39.2040   32.3600   39.7100 C   0  0  0  0  0  0  0  0  0  0  0  0
   38.7580   33.5320   39.6940 O   0  0  0  0  0  0  0  0  0  0  0  0
   39.4010   31.6210   38.4660 C   0  0  0  0  0  0  0  0  0  0  0  0
   38.5550   30.6380   37.9960 C   0  0  0  0  0  0  0  0  0  0  0  0
   37.6410   30.2340   38.4120 H   0  0  0  0  0  0  0  0  0  0  0  0
   39.0800   30.1860   36.8020 C   0  0  0  0  0  0  0  0  0  0  0  0
   38.7640   29.4350   36.0910 H   0  0  0  0  0  0  0  0  0  0  0  0
   40.2430   30.9370   36.6050 C   0  0  0  0  0  0  0  0  0  0  0  0
   40.9890   30.9310   35.7960 H   0  0  0  0  0  0  0  0  0  0  0  0
   40.3830   31.7720   37.6220 O   0  0  0  0  0  0  0  0  0  0  0  0
   38.4500   31.1310   48.1920 C   0  0  2  0  0  0  0  0  0  0  0  0
   38.6990   32.5960   48.1340 C   0  0  0  0  0  0  0  0  0  0  0  0
   38.0840   31.7730   46.9720 C   0  0  1  0  0  0  0  0  0  0  0  0
   39.3750   30.5160   48.2630 H   0  0  0  0  0  0  0  0  0  0  0  0
   39.7270   32.9480   48.0220 H   0  0  0  0  0  0  0  0  0  0  0  0
   38.0150   33.2390   48.6990 H   0  0  0  0  0  0  0  0  0  0  0  0
   37.0110   32.0210   46.7840 H   0  0  0  0  0  0  0  0  0  0  0  0
   35.0770   30.2510   49.4900 C   0  0  0  0  0  0  0  0  0  0  0  0
   35.4030   29.5540   50.7060 C   0  0  0  0  0  0  0  0  0  0  0  0
   36.8000   29.4180   51.0470 C   0  0  0  0  0  0  0  0  0  0  0  0
   37.7560   29.9440   50.2180 N   0  0  0  0  0  0  0  0  0  0  0  0
   37.3710   30.5840   49.0950 C   0  0  0  0  0  0  0  0  0  0  0  0
   36.0470   30.7540   48.7050 N   0  0  0  0  0  0  0  0  0  0  0  0
   34.0230   30.3360   49.2640 H   0  0  0  0  0  0  0  0  0  0  0  0
   34.6570   29.1470   51.3460 H   0  0  0  0  0  0  0  0  0  0  0  0
   37.0470   28.8960   51.9580 H   0  0  0  0  0  0  0  0  0  0  0  0
  1  3  1  0  0  0  0
  2  1  2  0  0  0  0
  3  4  1  0  0  0  0
  3 26  1  0  0  0  0
  5  6  1  0  0  0  0
  5  1  1  0  0  0  0
  6 11  1  0  0  0  0
  7 12  1  0  0  0  0
  7  6  2  0  0  0  0
  8  7  1  0  0  0  0
  9  8  2  0  0  0  0
  9 10  1  0  0  0  0
 10  5  2  0  0  0  0
 13  8  1  0  0  0  0
 14  9  1  0  0  0  0
 15 14  2  0  0  0  0
 16 14  1  0  0  0  0
 17 18  1  0  0  0  0
 17 16  2  0  0  0  0
 19 17  1  0  0  0  0
 20 19  1  0  0  0  0
 21 19  2  0  0  0  0
 21 23  1  0  0  0  0
 22 21  1  0  0  0  0
 23 16  1  0  0  0  0
 24 27  1  6  0  0  0
 24 35  1  0  0  0  0
 25 24  1  0  0  0  0
 25 29  1  0  0  0  0
 26 30  1  6  0  0  0
 26 25  1  0  0  0  0
 26 24  1  0  0  0  0
 28 25  1  0  0  0  0
 31 32  1  0  0  0  0
 32 33  2  0  0  0  0
 32 38  1  0  0  0  0
 33 39  1  0  0  0  0
 34 33  1  0  0  0  0
 35 34  2  0  0  0  0
 36 35  1  0  0  0  0
 36 31  2  0  0  0  0
 37 31  1  0  0  0  0
M  END
>  <minimizedAffinity>
-4.91337967

>  <minimizedRMSD>
0.281608522

$$$$
