
 OpenBabel03272507433D

 40 43  0  0  0  0  0  0  0  0999 V2000
   37.2270   25.4760   32.4240 O   0  0  0  0  0  0  0  0  0  0  0  0
   37.9470   24.9050   34.7110 C   0  0  0  0  0  0  0  0  0  0  0  0
   37.5920   25.7980   33.7100 C   0  0  0  0  0  0  0  0  0  0  0  0
   37.5830   27.1570   33.9630 C   0  0  0  0  0  0  0  0  0  0  0  0
   37.9320   27.6250   35.2260 C   0  0  0  0  0  0  0  0  0  0  0  0
   38.2830   26.7350   36.2140 C   0  0  0  0  0  0  0  0  0  0  0  0
   38.2830   25.3810   35.9320 C   0  0  0  0  0  0  0  0  0  0  0  0
   37.3250   27.9040   33.2550 H   0  0  0  0  0  0  0  0  0  0  0  0
   37.9310   28.6930   35.4410 H   0  0  0  0  0  0  0  0  0  0  0  0
   38.5550   27.1020   37.1940 H   0  0  0  0  0  0  0  0  0  0  0  0
   38.6630   24.4400   37.0040 C   0  0  0  0  0  0  0  0  0  0  0  0
   38.0910   24.2470   38.2380 C   0  0  0  0  0  0  0  0  0  0  0  0
   38.8140   23.2460   38.8770 C   0  0  0  0  0  0  0  0  0  0  0  0
   39.7910   22.8900   37.9830 C   0  0  0  0  0  0  0  0  0  0  0  0
   39.6860   23.6090   36.8760 O   0  0  0  0  0  0  0  0  0  0  0  0
   37.2200   24.8200   38.5840 H   0  0  0  0  0  0  0  0  0  0  0  0
   38.5980   22.8780   39.8670 H   0  0  0  0  0  0  0  0  0  0  0  0
   40.5140   22.1120   38.2280 H   0  0  0  0  0  0  0  0  0  0  0  0
   37.9040   22.4000   34.1140 N   0  0  0  0  0  0  0  0  0  0  0  0
   37.9320   23.5150   34.3730 C   0  0  0  0  0  0  0  0  0  0  0  0
   38.0210   25.5980   31.3360 C   0  0  0  0  0  0  0  0  0  0  0  0
   38.2650   24.3820   30.7000 C   0  0  0  0  0  0  0  0  0  0  0  0
   39.0490   24.2950   29.5780 C   0  0  0  0  0  0  0  0  0  0  0  0
   39.5850   25.4530   29.1030 N   0  0  0  0  0  0  0  0  0  0  0  0
   39.3410   26.6440   29.7310 C   0  0  0  0  0  0  0  0  0  0  0  0
   38.5810   26.6930   30.8120 N   0  0  0  0  0  0  0  0  0  0  0  0
   39.2770   23.3870   29.0390 H   0  0  0  0  0  0  0  0  0  0  0  0
   39.7940   27.5340   29.3100 H   0  0  0  0  0  0  0  0  0  0  0  0
   36.3630   22.8460   31.0080 C   0  0  0  0  0  0  0  0  0  0  0  0
   35.3480   23.5910   30.7120 O   0  0  0  0  0  0  0  0  0  0  0  0
   37.7560   23.1330   31.1090 N   0  0  0  0  0  0  0  0  0  0  0  0
   38.3630   22.4020   31.4870 H   0  0  0  0  0  0  0  0  0  0  0  0
   35.9210   21.4570   31.2800 C   0  0  0  0  0  0  0  0  0  0  0  0
   34.9340   21.0370   32.1250 C   0  0  0  0  0  0  0  0  0  0  0  0
   34.2910   21.6390   32.7520 H   0  0  0  0  0  0  0  0  0  0  0  0
   34.8370   19.6410   32.0880 C   0  0  0  0  0  0  0  0  0  0  0  0
   34.2030   18.9540   32.5930 H   0  0  0  0  0  0  0  0  0  0  0  0
   35.8160   19.2880   31.1840 C   0  0  0  0  0  0  0  0  0  0  0  0
   36.0380   18.2730   30.8950 H   0  0  0  0  0  0  0  0  0  0  0  0
   36.4250   20.3560   30.7330 O   0  0  0  0  0  0  0  0  0  0  0  0
  1  3  1  0  0  0  0
  2  7  1  0  0  0  0
  3  4  1  0  0  0  0
  3  2  2  0  0  0  0
  4  5  2  0  0  0  0
  5  9  1  0  0  0  0
  5  6  1  0  0  0  0
  6 10  1  0  0  0  0
  7  6  2  0  0  0  0
  7 11  1  0  0  0  0
  8  4  1  0  0  0  0
 11 12  2  0  0  0  0
 12 16  1  0  0  0  0
 12 13  1  0  0  0  0
 13 17  1  0  0  0  0
 14 18  1  0  0  0  0
 14 13  2  0  0  0  0
 15 11  1  0  0  0  0
 15 14  1  0  0  0  0
 19 20  3  0  0  0  0
 20  2  1  0  0  0  0
 21  1  1  0  0  0  0
 22 31  1  0  0  0  0
 22 21  2  0  0  0  0
 23 22  1  0  0  0  0
 24 23  2  0  0  0  0
 24 25  1  0  0  0  0
 25 26  2  0  0  0  0
 26 21  1  0  0  0  0
 27 23  1  0  0  0  0
 28 25  1  0  0  0  0
 29 31  1  0  0  0  0
 29 33  1  0  0  0  0
 30 29  2  0  0  0  0
 31 32  1  0  0  0  0
 33 34  2  0  0  0  0
 34 35  1  0  0  0  0
 36 34  1  0  0  0  0
 36 37  1  0  0  0  0
 38 36  2  0  0  0  0
 39 38  1  0  0  0  0
 40 38  1  0  0  0  0
 40 33  1  0  0  0  0
M  END
>  <minimizedAffinity>
-6.01531506

$$$$

 OpenBabel03272507433D

 40 43  0  0  0  0  0  0  0  0999 V2000
   37.5080   25.7510   33.8680 O   0  0  0  0  0  0  0  0  0  0  0  0
   39.2930   24.3660   34.8560 C   0  0  0  0  0  0  0  0  0  0  0  0
   38.7950   25.5380   34.3020 C   0  0  0  0  0  0  0  0  0  0  0  0
   39.6200   26.6360   34.1460 C   0  0  0  0  0  0  0  0  0  0  0  0
   40.9510   26.5610   34.5450 C   0  0  0  0  0  0  0  0  0  0  0  0
   41.4380   25.3970   35.0920 C   0  0  0  0  0  0  0  0  0  0  0  0
   40.5890   24.3150   35.2360 C   0  0  0  0  0  0  0  0  0  0  0  0
   39.3200   27.5660   33.7330 H   0  0  0  0  0  0  0  0  0  0  0  0
   41.6140   27.4180   34.4270 H   0  0  0  0  0  0  0  0  0  0  0  0
   42.4730   25.3410   35.4000 H   0  0  0  0  0  0  0  0  0  0  0  0
   41.1280   23.0720   35.8250 C   0  0  0  0  0  0  0  0  0  0  0  0
   41.0870   22.6340   37.1270 C   0  0  0  0  0  0  0  0  0  0  0  0
   41.7340   21.4050   37.1710 C   0  0  0  0  0  0  0  0  0  0  0  0
   42.1340   21.1690   35.8810 C   0  0  0  0  0  0  0  0  0  0  0  0
   41.7660   22.1710   35.0950 O   0  0  0  0  0  0  0  0  0  0  0  0
   40.6080   23.2100   37.9310 H   0  0  0  0  0  0  0  0  0  0  0  0
   41.8590   20.8150   38.0650 H   0  0  0  0  0  0  0  0  0  0  0  0
   42.6750   20.2600   35.6220 H   0  0  0  0  0  0  0  0  0  0  0  0
   37.6550   22.3910   35.0750 N   0  0  0  0  0  0  0  0  0  0  0  0
   38.3780   23.2740   34.9860 C   0  0  0  0  0  0  0  0  0  0  0  0
   37.1540   26.5840   32.8630 C   0  0  0  0  0  0  0  0  0  0  0  0
   36.3630   25.9660   31.8960 C   0  0  0  0  0  0  0  0  0  0  0  0
   35.9030   26.6430   30.7950 C   0  0  0  0  0  0  0  0  0  0  0  0
   36.2490   27.9550   30.6830 N   0  0  0  0  0  0  0  0  0  0  0  0
   37.0250   28.5560   31.6360 C   0  0  0  0  0  0  0  0  0  0  0  0
   37.4530   27.8740   32.6850 N   0  0  0  0  0  0  0  0  0  0  0  0
   35.2890   26.2240   30.0110 H   0  0  0  0  0  0  0  0  0  0  0  0
   37.2700   29.6020   31.4950 H   0  0  0  0  0  0  0  0  0  0  0  0
   36.6950   23.6140   31.2380 C   0  0  0  0  0  0  0  0  0  0  0  0
   37.6950   23.6890   30.4200 O   0  0  0  0  0  0  0  0  0  0  0  0
   35.9490   24.6190   31.9220 N   0  0  0  0  0  0  0  0  0  0  0  0
   35.1090   24.3240   32.4240 H   0  0  0  0  0  0  0  0  0  0  0  0
   36.3120   22.1990   31.4560 C   0  0  0  0  0  0  0  0  0  0  0  0
   35.3480   21.7050   32.2870 C   0  0  0  0  0  0  0  0  0  0  0  0
   34.6850   22.2550   32.9400 H   0  0  0  0  0  0  0  0  0  0  0  0
   35.3080   20.3090   32.1950 C   0  0  0  0  0  0  0  0  0  0  0  0
   34.7060   19.5780   32.6740 H   0  0  0  0  0  0  0  0  0  0  0  0
   36.2950   20.0330   31.2720 C   0  0  0  0  0  0  0  0  0  0  0  0
   36.5570   19.0410   30.9420 H   0  0  0  0  0  0  0  0  0  0  0  0
   36.8580   21.1430   30.8620 O   0  0  0  0  0  0  0  0  0  0  0  0
  1  3  1  0  0  0  0
  2 20  1  0  0  0  0
  2  7  1  0  0  0  0
  3  2  2  0  0  0  0
  4  3  1  0  0  0  0
  4  5  2  0  0  0  0
  5  6  1  0  0  0  0
  6  7  2  0  0  0  0
  6 10  1  0  0  0  0
  7 11  1  0  0  0  0
  8  4  1  0  0  0  0
  9  5  1  0  0  0  0
 11 12  2  0  0  0  0
 12 13  1  0  0  0  0
 12 16  1  0  0  0  0
 13 17  1  0  0  0  0
 14 13  2  0  0  0  0
 15 11  1  0  0  0  0
 15 14  1  0  0  0  0
 18 14  1  0  0  0  0
 20 19  3  0  0  0  0
 21  1  1  0  0  0  0
 22 31  1  0  0  0  0
 22 21  2  0  0  0  0
 23 22  1  0  0  0  0
 24 23  2  0  0  0  0
 24 25  1  0  0  0  0
 25 26  2  0  0  0  0
 26 21  1  0  0  0  0
 27 23  1  0  0  0  0
 28 25  1  0  0  0  0
 29 33  1  0  0  0  0
 29 31  1  0  0  0  0
 30 29  2  0  0  0  0
 31 32  1  0  0  0  0
 33 34  2  0  0  0  0
 34 35  1  0  0  0  0
 36 34  1  0  0  0  0
 36 37  1  0  0  0  0
 38 36  2  0  0  0  0
 39 38  1  0  0  0  0
 40 38  1  0  0  0  0
 40 33  1  0  0  0  0
M  END
>  <minimizedAffinity>
-5.70246172

$$$$

 OpenBabel03272507433D

 40 43  0  0  0  0  0  0  0  0999 V2000
   38.2040   24.1180   32.8690 O   0  0  0  0  0  0  0  0  0  0  0  0
   37.4080   26.1960   31.8090 C   0  0  0  0  0  0  0  0  0  0  0  0
   37.2840   24.8610   32.1680 C   0  0  0  0  0  0  0  0  0  0  0  0
   36.1510   24.1510   31.8170 C   0  0  0  0  0  0  0  0  0  0  0  0
   35.1360   24.7810   31.1030 C   0  0  0  0  0  0  0  0  0  0  0  0
   35.2650   26.1040   30.7510 C   0  0  0  0  0  0  0  0  0  0  0  0
   36.4090   26.7890   31.1160 C   0  0  0  0  0  0  0  0  0  0  0  0
   35.9790   23.1300   32.0510 H   0  0  0  0  0  0  0  0  0  0  0  0
   34.2370   24.2340   30.8190 H   0  0  0  0  0  0  0  0  0  0  0  0
   34.4750   26.5900   30.1950 H   0  0  0  0  0  0  0  0  0  0  0  0
   36.5320   28.2090   30.7290 C   0  0  0  0  0  0  0  0  0  0  0  0
   36.0780   29.3310   31.3780 C   0  0  0  0  0  0  0  0  0  0  0  0
   36.4440   30.4300   30.6100 C   0  0  0  0  0  0  0  0  0  0  0  0
   37.1030   29.9020   29.5290 C   0  0  0  0  0  0  0  0  0  0  0  0
   37.1460   28.5810   29.6170 O   0  0  0  0  0  0  0  0  0  0  0  0
   35.5330   29.2860   32.3310 H   0  0  0  0  0  0  0  0  0  0  0  0
   36.2230   31.4540   30.8670 H   0  0  0  0  0  0  0  0  0  0  0  0
   37.5060   30.5500   28.7510 H   0  0  0  0  0  0  0  0  0  0  0  0
   39.5680   27.3900   32.5470 N   0  0  0  0  0  0  0  0  0  0  0  0
   38.6080   26.8630   32.2090 C   0  0  0  0  0  0  0  0  0  0  0  0
   38.1380   23.8470   34.1930 C   0  0  0  0  0  0  0  0  0  0  0  0
   38.0180   22.4850   34.4650 C   0  0  0  0  0  0  0  0  0  0  0  0
   37.9350   22.0080   35.7490 C   0  0  0  0  0  0  0  0  0  0  0  0
   37.9780   22.9230   36.7560 N   0  0  0  0  0  0  0  0  0  0  0  0
   38.0970   24.2570   36.4820 C   0  0  0  0  0  0  0  0  0  0  0  0
   38.1730   24.6850   35.2330 N   0  0  0  0  0  0  0  0  0  0  0  0
   37.8410   20.9680   36.0270 H   0  0  0  0  0  0  0  0  0  0  0  0
   38.1250   24.9400   37.3230 H   0  0  0  0  0  0  0  0  0  0  0  0
   36.7200   20.9180   33.0760 C   0  0  0  0  0  0  0  0  0  0  0  0
   35.5150   21.0850   33.5140 O   0  0  0  0  0  0  0  0  0  0  0  0
   37.9690   21.4620   33.4970 N   0  0  0  0  0  0  0  0  0  0  0  0
   38.8180   21.0820   33.0730 H   0  0  0  0  0  0  0  0  0  0  0  0
   36.7260   19.9800   31.9280 C   0  0  0  0  0  0  0  0  0  0  0  0
   36.4550   20.2500   30.6170 C   0  0  0  0  0  0  0  0  0  0  0  0
   36.1860   21.1980   30.1730 H   0  0  0  0  0  0  0  0  0  0  0  0
   36.5720   19.0810   29.8560 C   0  0  0  0  0  0  0  0  0  0  0  0
   36.4430   18.8870   28.8200 H   0  0  0  0  0  0  0  0  0  0  0  0
   36.9210   18.1340   30.7960 C   0  0  0  0  0  0  0  0  0  0  0  0
   37.1000   17.0950   30.5730 H   0  0  0  0  0  0  0  0  0  0  0  0
   37.0030   18.6820   31.9830 O   0  0  0  0  0  0  0  0  0  0  0  0
  1 21  1  0  0  0  0
  2  3  1  0  0  0  0
  2 20  1  0  0  0  0
  3  1  1  0  0  0  0
  4  8  1  0  0  0  0
  4  3  2  0  0  0  0
  5  4  1  0  0  0  0
  6  5  2  0  0  0  0
  6  7  1  0  0  0  0
  7  2  2  0  0  0  0
  9  5  1  0  0  0  0
 10  6  1  0  0  0  0
 11  7  1  0  0  0  0
 11 12  2  0  0  0  0
 12 16  1  0  0  0  0
 13 17  1  0  0  0  0
 13 12  1  0  0  0  0
 14 15  1  0  0  0  0
 14 13  2  0  0  0  0
 15 11  1  0  0  0  0
 18 14  1  0  0  0  0
 20 19  3  0  0  0  0
 21 22  2  0  0  0  0
 21 26  1  0  0  0  0
 22 23  1  0  0  0  0
 23 27  1  0  0  0  0
 23 24  2  0  0  0  0
 25 24  1  0  0  0  0
 25 28  1  0  0  0  0
 26 25  2  0  0  0  0
 29 31  1  0  0  0  0
 29 30  2  0  0  0  0
 31 22  1  0  0  0  0
 32 31  1  0  0  0  0
 33 40  1  0  0  0  0
 33 29  1  0  0  0  0
 34 33  2  0  0  0  0
 35 34  1  0  0  0  0
 36 34  1  0  0  0  0
 36 38  2  0  0  0  0
 37 36  1  0  0  0  0
 38 40  1  0  0  0  0
 39 38  1  0  0  0  0
M  END
>  <minimizedAffinity>
-5.58622456

$$$$

 OpenBabel03272507433D

 40 43  0  0  0  0  0  0  0  0999 V2000
   37.2910   27.4170   31.5410 O   0  0  0  0  0  0  0  0  0  0  0  0
   36.2810   29.0940   33.0390 C   0  0  0  0  0  0  0  0  0  0  0  0
   36.6840   28.6250   31.7970 C   0  0  0  0  0  0  0  0  0  0  0  0
   36.4860   29.3940   30.6660 C   0  0  0  0  0  0  0  0  0  0  0  0
   35.8810   30.6420   30.7800 C   0  0  0  0  0  0  0  0  0  0  0  0
   35.4830   31.1020   32.0130 C   0  0  0  0  0  0  0  0  0  0  0  0
   35.6940   30.3100   33.1270 C   0  0  0  0  0  0  0  0  0  0  0  0
   36.7640   29.1090   29.6830 H   0  0  0  0  0  0  0  0  0  0  0  0
   35.7180   31.2610   29.8970 H   0  0  0  0  0  0  0  0  0  0  0  0
   35.0140   32.0720   32.0980 H   0  0  0  0  0  0  0  0  0  0  0  0
   35.2620   30.8190   34.4440 C   0  0  0  0  0  0  0  0  0  0  0  0
   35.9820   31.5030   35.3930 C   0  0  0  0  0  0  0  0  0  0  0  0
   35.1250   31.7590   36.4570 C   0  0  0  0  0  0  0  0  0  0  0  0
   33.9260   31.2080   36.0860 C   0  0  0  0  0  0  0  0  0  0  0  0
   34.0260   30.6540   34.8870 O   0  0  0  0  0  0  0  0  0  0  0  0
   37.0410   31.7650   35.2600 H   0  0  0  0  0  0  0  0  0  0  0  0
   35.4100   32.2840   37.3550 H   0  0  0  0  0  0  0  0  0  0  0  0
   33.0600   31.2630   36.7450 H   0  0  0  0  0  0  0  0  0  0  0  0
   36.7060   27.5710   35.0730 N   0  0  0  0  0  0  0  0  0  0  0  0
   36.5190   28.2400   34.1620 C   0  0  0  0  0  0  0  0  0  0  0  0
   36.6520   26.2290   31.4540 C   0  0  0  0  0  0  0  0  0  0  0  0
   37.3860   25.1740   31.9940 C   0  0  0  0  0  0  0  0  0  0  0  0
   36.9090   23.8880   31.9990 C   0  0  0  0  0  0  0  0  0  0  0  0
   35.6800   23.6780   31.4530 N   0  0  0  0  0  0  0  0  0  0  0  0
   34.9650   24.7170   30.9250 C   0  0  0  0  0  0  0  0  0  0  0  0
   35.4530   25.9460   30.9350 N   0  0  0  0  0  0  0  0  0  0  0  0
   37.4260   23.0280   32.4020 H   0  0  0  0  0  0  0  0  0  0  0  0
   33.9920   24.4920   30.5030 H   0  0  0  0  0  0  0  0  0  0  0  0
   38.8740   24.8930   33.9380 C   0  0  0  0  0  0  0  0  0  0  0  0
   38.0540   24.5360   34.8720 O   0  0  0  0  0  0  0  0  0  0  0  0
   38.6600   25.2870   32.5840 N   0  0  0  0  0  0  0  0  0  0  0  0
   39.4630   25.6520   32.0660 H   0  0  0  0  0  0  0  0  0  0  0  0
   40.2690   24.8640   34.4390 C   0  0  0  0  0  0  0  0  0  0  0  0
   41.1890   25.8730   34.4290 C   0  0  0  0  0  0  0  0  0  0  0  0
   41.0710   26.8800   34.0550 H   0  0  0  0  0  0  0  0  0  0  0  0
   42.3890   25.4290   34.9970 C   0  0  0  0  0  0  0  0  0  0  0  0
   43.3210   25.9100   35.1670 H   0  0  0  0  0  0  0  0  0  0  0  0
   42.1070   24.1200   35.3300 C   0  0  0  0  0  0  0  0  0  0  0  0
   42.8080   23.4490   35.7990 H   0  0  0  0  0  0  0  0  0  0  0  0
   40.8760   23.8220   34.9960 O   0  0  0  0  0  0  0  0  0  0  0  0
  1  3  1  0  0  0  0
  2  7  1  0  0  0  0
  2 20  1  0  0  0  0
  3  2  2  0  0  0  0
  4  5  2  0  0  0  0
  4  3  1  0  0  0  0
  5  6  1  0  0  0  0
  6 10  1  0  0  0  0
  6  7  2  0  0  0  0
  7 11  1  0  0  0  0
  8  4  1  0  0  0  0
  9  5  1  0  0  0  0
 11 15  1  0  0  0  0
 11 12  2  0  0  0  0
 12 13  1  0  0  0  0
 13 17  1  0  0  0  0
 14 13  2  0  0  0  0
 14 18  1  0  0  0  0
 15 14  1  0  0  0  0
 16 12  1  0  0  0  0
 20 19  3  0  0  0  0
 21  1  1  0  0  0  0
 21 22  1  0  0  0  0
 22 23  2  0  0  0  0
 22 31  1  0  0  0  0
 23 27  1  0  0  0  0
 24 23  1  0  0  0  0
 25 26  1  0  0  0  0
 25 24  2  0  0  0  0
 26 21  2  0  0  0  0
 28 25  1  0  0  0  0
 29 33  1  0  0  0  0
 29 30  2  0  0  0  0
 31 29  1  0  0  0  0
 32 31  1  0  0  0  0
 33 40  1  0  0  0  0
 34 33  2  0  0  0  0
 34 36  1  0  0  0  0
 35 34  1  0  0  0  0
 36 37  1  0  0  0  0
 36 38  2  0  0  0  0
 38 39  1  0  0  0  0
 40 38  1  0  0  0  0
M  END
>  <minimizedAffinity>
-5.48078489

$$$$

 OpenBabel03272507433D

 40 43  0  0  0  0  0  0  0  0999 V2000
   38.6920   26.2410   32.2080 O   0  0  0  0  0  0  0  0  0  0  0  0
   37.0080   27.8910   32.9280 C   0  0  0  0  0  0  0  0  0  0  0  0
   37.8800   27.3310   32.0030 C   0  0  0  0  0  0  0  0  0  0  0  0
   37.9900   27.8730   30.7370 C   0  0  0  0  0  0  0  0  0  0  0  0
   37.2230   28.9820   30.3930 C   0  0  0  0  0  0  0  0  0  0  0  0
   36.3620   29.5320   31.3130 C   0  0  0  0  0  0  0  0  0  0  0  0
   36.2730   28.9690   32.5730 C   0  0  0  0  0  0  0  0  0  0  0  0
   38.6300   27.5070   29.9740 H   0  0  0  0  0  0  0  0  0  0  0  0
   37.2990   29.4210   29.3980 H   0  0  0  0  0  0  0  0  0  0  0  0
   35.7680   30.3950   31.0430 H   0  0  0  0  0  0  0  0  0  0  0  0
   35.3430   29.5720   33.5490 C   0  0  0  0  0  0  0  0  0  0  0  0
   35.5810   30.5360   34.4990 C   0  0  0  0  0  0  0  0  0  0  0  0
   34.3830   30.7630   35.1660 C   0  0  0  0  0  0  0  0  0  0  0  0
   33.4820   29.9140   34.5760 C   0  0  0  0  0  0  0  0  0  0  0  0
   34.0700   29.2140   33.6170 O   0  0  0  0  0  0  0  0  0  0  0  0
   36.5680   30.9970   34.6420 H   0  0  0  0  0  0  0  0  0  0  0  0
   34.2600   31.4710   35.9700 H   0  0  0  0  0  0  0  0  0  0  0  0
   32.4460   29.8820   34.9090 H   0  0  0  0  0  0  0  0  0  0  0  0
   36.9110   26.7630   35.2410 N   0  0  0  0  0  0  0  0  0  0  0  0
   36.9500   27.2740   34.2170 C   0  0  0  0  0  0  0  0  0  0  0  0
   38.6470   25.0930   31.4940 C   0  0  0  0  0  0  0  0  0  0  0  0
   38.3560   23.9760   32.2760 C   0  0  0  0  0  0  0  0  0  0  0  0
   38.2680   22.7180   31.7380 C   0  0  0  0  0  0  0  0  0  0  0  0
   38.4750   22.5990   30.3980 N   0  0  0  0  0  0  0  0  0  0  0  0
   38.7600   23.6980   29.6360 C   0  0  0  0  0  0  0  0  0  0  0  0
   38.8390   24.8980   30.1860 N   0  0  0  0  0  0  0  0  0  0  0  0
   38.0460   21.8140   32.2870 H   0  0  0  0  0  0  0  0  0  0  0  0
   38.9160   23.5450   28.5740 H   0  0  0  0  0  0  0  0  0  0  0  0
   38.9060   23.1920   34.5460 C   0  0  0  0  0  0  0  0  0  0  0  0
   39.7860   22.2720   34.3210 O   0  0  0  0  0  0  0  0  0  0  0  0
   38.1220   23.9940   33.6660 N   0  0  0  0  0  0  0  0  0  0  0  0
   37.3900   24.5750   34.0810 H   0  0  0  0  0  0  0  0  0  0  0  0
   38.7340   23.3940   36.0050 C   0  0  0  0  0  0  0  0  0  0  0  0
   37.7410   24.0750   36.6500 C   0  0  0  0  0  0  0  0  0  0  0  0
   36.8980   24.5920   36.2170 H   0  0  0  0  0  0  0  0  0  0  0  0
   37.9510   24.0260   38.0330 C   0  0  0  0  0  0  0  0  0  0  0  0
   37.4080   24.4270   38.8530 H   0  0  0  0  0  0  0  0  0  0  0  0
   39.1100   23.2860   38.1440 C   0  0  0  0  0  0  0  0  0  0  0  0
   39.5840   23.0370   39.0790 H   0  0  0  0  0  0  0  0  0  0  0  0
   39.5390   22.9340   36.9570 O   0  0  0  0  0  0  0  0  0  0  0  0
  2 20  1  0  0  0  0
  3  1  1  0  0  0  0
  3  2  2  0  0  0  0
  4  3  1  0  0  0  0
  5  4  2  0  0  0  0
  5  6  1  0  0  0  0
  6  7  2  0  0  0  0
  7  2  1  0  0  0  0
  7 11  1  0  0  0  0
  8  4  1  0  0  0  0
  9  5  1  0  0  0  0
 10  6  1  0  0  0  0
 11 15  1  0  0  0  0
 11 12  2  0  0  0  0
 12 16  1  0  0  0  0
 12 13  1  0  0  0  0
 13 17  1  0  0  0  0
 14 18  1  0  0  0  0
 14 13  2  0  0  0  0
 15 14  1  0  0  0  0
 20 19  3  0  0  0  0
 21  1  1  0  0  0  0
 21 22  1  0  0  0  0
 22 31  1  0  0  0  0
 23 22  2  0  0  0  0
 23 27  1  0  0  0  0
 24 23  1  0  0  0  0
 25 26  1  0  0  0  0
 25 24  2  0  0  0  0
 26 21  2  0  0  0  0
 28 25  1  0  0  0  0
 29 33  1  0  0  0  0
 30 29  2  0  0  0  0
 31 32  1  0  0  0  0
 31 29  1  0  0  0  0
 33 34  2  0  0  0  0
 33 40  1  0  0  0  0
 34 36  1  0  0  0  0
 35 34  1  0  0  0  0
 36 38  2  0  0  0  0
 36 37  1  0  0  0  0
 38 39  1  0  0  0  0
 40 38  1  0  0  0  0
M  END
>  <minimizedAffinity>
-5.47778749

$$$$

 OpenBabel03272507433D

 40 43  0  0  0  0  0  0  0  0999 V2000
   36.9810   26.8910   33.2040 O   0  0  0  0  0  0  0  0  0  0  0  0
   38.0350   25.1990   34.6540 C   0  0  0  0  0  0  0  0  0  0  0  0
   37.3920   25.6120   33.4950 C   0  0  0  0  0  0  0  0  0  0  0  0
   37.1090   24.6990   32.4960 C   0  0  0  0  0  0  0  0  0  0  0  0
   37.4710   23.3650   32.6590 C   0  0  0  0  0  0  0  0  0  0  0  0
   38.1070   22.9630   33.8100 C   0  0  0  0  0  0  0  0  0  0  0  0
   38.3780   23.8980   34.7920 C   0  0  0  0  0  0  0  0  0  0  0  0
   36.6220   24.9320   31.5830 H   0  0  0  0  0  0  0  0  0  0  0  0
   37.2530   22.6330   31.8810 H   0  0  0  0  0  0  0  0  0  0  0  0
   38.3850   21.9260   33.9340 H   0  0  0  0  0  0  0  0  0  0  0  0
   39.0610   23.4490   36.0210 C   0  0  0  0  0  0  0  0  0  0  0  0
   40.3460   22.9920   36.1870 C   0  0  0  0  0  0  0  0  0  0  0  0
   40.5080   22.6950   37.5360 C   0  0  0  0  0  0  0  0  0  0  0  0
   39.3000   22.9920   38.1120 C   0  0  0  0  0  0  0  0  0  0  0  0
   38.4520   23.4390   37.1970 O   0  0  0  0  0  0  0  0  0  0  0  0
   41.0570   22.9060   35.3550 H   0  0  0  0  0  0  0  0  0  0  0  0
   41.4190   22.3140   37.9690 H   0  0  0  0  0  0  0  0  0  0  0  0
   39.1420   22.8520   39.1800 H   0  0  0  0  0  0  0  0  0  0  0  0
   38.4840   27.0130   36.4270 N   0  0  0  0  0  0  0  0  0  0  0  0
   38.2940   26.2020   35.6410 C   0  0  0  0  0  0  0  0  0  0  0  0
   37.3160   27.5810   32.0900 C   0  0  0  0  0  0  0  0  0  0  0  0
   36.2760   28.3730   31.6060 C   0  0  0  0  0  0  0  0  0  0  0  0
   36.4180   29.1480   30.4830 C   0  0  0  0  0  0  0  0  0  0  0  0
   37.6250   29.1160   29.8540 N   0  0  0  0  0  0  0  0  0  0  0  0
   38.6410   28.3380   30.3340 C   0  0  0  0  0  0  0  0  0  0  0  0
   38.4720   27.6010   31.4190 N   0  0  0  0  0  0  0  0  0  0  0  0
   35.6530   29.7820   30.0570 H   0  0  0  0  0  0  0  0  0  0  0  0
   39.5800   28.3510   29.7930 H   0  0  0  0  0  0  0  0  0  0  0  0
   34.7120   29.4910   33.1480 C   0  0  0  0  0  0  0  0  0  0  0  0
   35.4750   30.3380   33.7580 O   0  0  0  0  0  0  0  0  0  0  0  0
   34.9950   28.4780   32.1840 N   0  0  0  0  0  0  0  0  0  0  0  0
   34.2380   27.8380   31.9350 H   0  0  0  0  0  0  0  0  0  0  0  0
   33.3040   29.6620   33.5780 C   0  0  0  0  0  0  0  0  0  0  0  0
   32.1720   29.2200   32.9550 C   0  0  0  0  0  0  0  0  0  0  0  0
   32.0940   28.6630   32.0320 H   0  0  0  0  0  0  0  0  0  0  0  0
   31.0440   29.5940   33.6940 C   0  0  0  0  0  0  0  0  0  0  0  0
   30.0050   29.4380   33.5410 H   0  0  0  0  0  0  0  0  0  0  0  0
   31.5880   30.2700   34.7670 C   0  0  0  0  0  0  0  0  0  0  0  0
   31.0100   30.7100   35.5630 H   0  0  0  0  0  0  0  0  0  0  0  0
   32.8940   30.2930   34.6740 O   0  0  0  0  0  0  0  0  0  0  0  0
  1  3  1  0  0  0  0
  2  7  1  0  0  0  0
  2 20  1  0  0  0  0
  3  2  2  0  0  0  0
  4  5  2  0  0  0  0
  4  3  1  0  0  0  0
  5  6  1  0  0  0  0
  6 10  1  0  0  0  0
  6  7  2  0  0  0  0
  7 11  1  0  0  0  0
  8  4  1  0  0  0  0
  9  5  1  0  0  0  0
 11 12  2  0  0  0  0
 11 15  1  0  0  0  0
 12 13  1  0  0  0  0
 13 17  1  0  0  0  0
 13 14  2  0  0  0  0
 14 18  1  0  0  0  0
 15 14  1  0  0  0  0
 16 12  1  0  0  0  0
 20 19  3  0  0  0  0
 21  1  1  0  0  0  0
 22 21  1  0  0  0  0
 22 31  1  0  0  0  0
 23 22  2  0  0  0  0
 24 25  2  0  0  0  0
 24 23  1  0  0  0  0
 25 26  1  0  0  0  0
 26 21  2  0  0  0  0
 27 23  1  0  0  0  0
 28 25  1  0  0  0  0
 29 33  1  0  0  0  0
 29 30  2  0  0  0  0
 31 29  1  0  0  0  0
 32 31  1  0  0  0  0
 33 40  1  0  0  0  0
 34 33  2  0  0  0  0
 34 36  1  0  0  0  0
 35 34  1  0  0  0  0
 36 38  2  0  0  0  0
 37 36  1  0  0  0  0
 38 39  1  0  0  0  0
 40 38  1  0  0  0  0
M  END
>  <minimizedAffinity>
-5.4434433

$$$$

 OpenBabel03272507433D

 40 43  0  0  0  0  0  0  0  0999 V2000
   35.4570   29.4260   31.3620 O   0  0  0  0  0  0  0  0  0  0  0  0
   35.1810   30.4810   33.5730 C   0  0  0  0  0  0  0  0  0  0  0  0
   35.6510   29.4900   32.7220 C   0  0  0  0  0  0  0  0  0  0  0  0
   36.3910   28.4370   33.2250 C   0  0  0  0  0  0  0  0  0  0  0  0
   36.6640   28.3750   34.5880 C   0  0  0  0  0  0  0  0  0  0  0  0
   36.1960   29.3600   35.4260 C   0  0  0  0  0  0  0  0  0  0  0  0
   35.4580   30.4010   34.8950 C   0  0  0  0  0  0  0  0  0  0  0  0
   36.7850   27.6410   32.6440 H   0  0  0  0  0  0  0  0  0  0  0  0
   37.2460   27.5500   34.9990 H   0  0  0  0  0  0  0  0  0  0  0  0
   36.4080   29.3080   36.4850 H   0  0  0  0  0  0  0  0  0  0  0  0
   34.9620   31.4500   35.8090 C   0  0  0  0  0  0  0  0  0  0  0  0
   35.5560   32.6300   36.1850 C   0  0  0  0  0  0  0  0  0  0  0  0
   34.6880   33.2680   37.0630 C   0  0  0  0  0  0  0  0  0  0  0  0
   33.6090   32.4280   37.1680 C   0  0  0  0  0  0  0  0  0  0  0  0
   33.7900   31.3520   36.4160 O   0  0  0  0  0  0  0  0  0  0  0  0
   36.5420   32.9420   35.8150 H   0  0  0  0  0  0  0  0  0  0  0  0
   34.8850   34.2220   37.5270 H   0  0  0  0  0  0  0  0  0  0  0  0
   32.7620   32.6850   37.8030 H   0  0  0  0  0  0  0  0  0  0  0  0
   33.8290   32.3970   32.5090 N   0  0  0  0  0  0  0  0  0  0  0  0
   34.4230   31.5380   32.9780 C   0  0  0  0  0  0  0  0  0  0  0  0
   36.3480   29.8320   30.4300 C   0  0  0  0  0  0  0  0  0  0  0  0
   36.8790   28.7780   29.6880 C   0  0  0  0  0  0  0  0  0  0  0  0
   37.8020   28.9840   28.6940 C   0  0  0  0  0  0  0  0  0  0  0  0
   38.1820   30.2690   28.4560 N   0  0  0  0  0  0  0  0  0  0  0  0
   37.6570   31.2990   29.1860 C   0  0  0  0  0  0  0  0  0  0  0  0
   36.7690   31.0670   30.1380 N   0  0  0  0  0  0  0  0  0  0  0  0
   38.2510   28.2130   28.0840 H   0  0  0  0  0  0  0  0  0  0  0  0
   37.9960   32.3020   28.9530 H   0  0  0  0  0  0  0  0  0  0  0  0
   37.3980   26.5490   30.6010 C   0  0  0  0  0  0  0  0  0  0  0  0
   38.5780   26.7180   31.1040 O   0  0  0  0  0  0  0  0  0  0  0  0
   36.5490   27.4180   29.8540 N   0  0  0  0  0  0  0  0  0  0  0  0
   35.7010   27.0160   29.4480 H   0  0  0  0  0  0  0  0  0  0  0  0
   36.9050   25.1820   30.8930 C   0  0  0  0  0  0  0  0  0  0  0  0
   35.7080   24.8160   31.4400 C   0  0  0  0  0  0  0  0  0  0  0  0
   34.8990   25.4570   31.7620 H   0  0  0  0  0  0  0  0  0  0  0  0
   35.6390   23.4230   31.5470 C   0  0  0  0  0  0  0  0  0  0  0  0
   34.8850   22.7700   31.9140 H   0  0  0  0  0  0  0  0  0  0  0  0
   36.8520   23.0130   31.0350 C   0  0  0  0  0  0  0  0  0  0  0  0
   37.1610   21.9840   30.9550 H   0  0  0  0  0  0  0  0  0  0  0  0
   37.5630   24.0500   30.6650 O   0  0  0  0  0  0  0  0  0  0  0  0
  1  3  1  0  0  0  0
  2  7  1  0  0  0  0
  3  4  1  0  0  0  0
  3  2  2  0  0  0  0
  4  5  2  0  0  0  0
  5  9  1  0  0  0  0
  5  6  1  0  0  0  0
  6 10  1  0  0  0  0
  7  6  2  0  0  0  0
  7 11  1  0  0  0  0
  8  4  1  0  0  0  0
 11 12  2  0  0  0  0
 11 15  1  0  0  0  0
 12 13  1  0  0  0  0
 13 14  2  0  0  0  0
 13 17  1  0  0  0  0
 14 18  1  0  0  0  0
 15 14  1  0  0  0  0
 16 12  1  0  0  0  0
 19 20  3  0  0  0  0
 20  2  1  0  0  0  0
 21  1  1  0  0  0  0
 22 31  1  0  0  0  0
 22 21  2  0  0  0  0
 23 22  1  0  0  0  0
 24 23  2  0  0  0  0
 24 25  1  0  0  0  0
 25 26  2  0  0  0  0
 26 21  1  0  0  0  0
 27 23  1  0  0  0  0
 28 25  1  0  0  0  0
 29 33  1  0  0  0  0
 29 30  2  0  0  0  0
 31 29  1  0  0  0  0
 32 31  1  0  0  0  0
 33 34  2  0  0  0  0
 34 36  1  0  0  0  0
 34 35  1  0  0  0  0
 36 37  1  0  0  0  0
 38 36  2  0  0  0  0
 39 38  1  0  0  0  0
 40 33  1  0  0  0  0
 40 38  1  0  0  0  0
M  END
>  <minimizedAffinity>
-5.41822004

$$$$

 OpenBabel03272507433D

 40 43  0  0  0  0  0  0  0  0999 V2000
   35.3520   28.6900   33.6930 O   0  0  0  0  0  0  0  0  0  0  0  0
   33.7680   30.3090   34.6650 C   0  0  0  0  0  0  0  0  0  0  0  0
   35.0350   29.7770   34.4720 C   0  0  0  0  0  0  0  0  0  0  0  0
   36.1290   30.3490   35.0940 C   0  0  0  0  0  0  0  0  0  0  0  0
   35.9530   31.4600   35.9140 C   0  0  0  0  0  0  0  0  0  0  0  0
   34.6950   31.9810   36.1010 C   0  0  0  0  0  0  0  0  0  0  0  0
   33.6190   31.3880   35.4660 C   0  0  0  0  0  0  0  0  0  0  0  0
   37.1280   30.0050   34.9990 H   0  0  0  0  0  0  0  0  0  0  0  0
   36.8060   31.9210   36.4120 H   0  0  0  0  0  0  0  0  0  0  0  0
   34.5610   32.8430   36.7400 H   0  0  0  0  0  0  0  0  0  0  0  0
   32.2740   31.9600   35.6790 C   0  0  0  0  0  0  0  0  0  0  0  0
   31.3690   31.7100   36.6810 C   0  0  0  0  0  0  0  0  0  0  0  0
   30.2510   32.4990   36.4350 C   0  0  0  0  0  0  0  0  0  0  0  0
   30.5480   33.1860   35.2850 C   0  0  0  0  0  0  0  0  0  0  0  0
   31.7550   32.8530   34.8500 O   0  0  0  0  0  0  0  0  0  0  0  0
   31.5670   31.0010   37.4960 H   0  0  0  0  0  0  0  0  0  0  0  0
   29.3700   32.5170   37.0560 H   0  0  0  0  0  0  0  0  0  0  0  0
   29.8360   33.8900   34.8570 H   0  0  0  0  0  0  0  0  0  0  0  0
   31.8310   29.1270   33.4460 N   0  0  0  0  0  0  0  0  0  0  0  0
   32.6860   29.6620   33.9870 C   0  0  0  0  0  0  0  0  0  0  0  0
   35.9440   28.7490   32.4780 C   0  0  0  0  0  0  0  0  0  0  0  0
   36.7350   27.6350   32.2030 C   0  0  0  0  0  0  0  0  0  0  0  0
   37.4210   27.5080   31.0220 C   0  0  0  0  0  0  0  0  0  0  0  0
   37.2970   28.5190   30.1190 N   0  0  0  0  0  0  0  0  0  0  0  0
   36.5190   29.6090   30.3950 C   0  0  0  0  0  0  0  0  0  0  0  0
   35.8710   29.7020   31.5440 N   0  0  0  0  0  0  0  0  0  0  0  0
   38.0490   26.6720   30.7470 H   0  0  0  0  0  0  0  0  0  0  0  0
   36.4570   30.3840   29.6400 H   0  0  0  0  0  0  0  0  0  0  0  0
   38.0410   26.4940   33.9530 C   0  0  0  0  0  0  0  0  0  0  0  0
   39.0830   27.2510   34.0660 O   0  0  0  0  0  0  0  0  0  0  0  0
   36.9250   26.5370   33.0660 N   0  0  0  0  0  0  0  0  0  0  0  0
   36.2770   25.7470   33.0820 H   0  0  0  0  0  0  0  0  0  0  0  0
   38.0830   25.4050   34.9600 C   0  0  0  0  0  0  0  0  0  0  0  0
   38.1260   25.5170   36.3200 C   0  0  0  0  0  0  0  0  0  0  0  0
   38.1380   26.4190   36.9150 H   0  0  0  0  0  0  0  0  0  0  0  0
   38.1560   24.2440   36.9010 C   0  0  0  0  0  0  0  0  0  0  0  0
   38.1900   23.9210   37.9120 H   0  0  0  0  0  0  0  0  0  0  0  0
   38.1270   23.4040   35.8080 C   0  0  0  0  0  0  0  0  0  0  0  0
   38.1380   22.3280   35.8680 H   0  0  0  0  0  0  0  0  0  0  0  0
   38.0850   24.1020   34.7000 O   0  0  0  0  0  0  0  0  0  0  0  0
  1  3  1  0  0  0  0
  2  7  1  0  0  0  0
  3  2  2  0  0  0  0
  3  4  1  0  0  0  0
  4  5  2  0  0  0  0
  5  6  1  0  0  0  0
  5  9  1  0  0  0  0
  6 10  1  0  0  0  0
  7 11  1  0  0  0  0
  7  6  2  0  0  0  0
  8  4  1  0  0  0  0
 11 12  2  0  0  0  0
 12 16  1  0  0  0  0
 13 12  1  0  0  0  0
 13 17  1  0  0  0  0
 14 13  2  0  0  0  0
 15 14  1  0  0  0  0
 15 11  1  0  0  0  0
 18 14  1  0  0  0  0
 19 20  3  0  0  0  0
 20  2  1  0  0  0  0
 21  1  1  0  0  0  0
 22 21  1  0  0  0  0
 22 31  1  0  0  0  0
 23 22  2  0  0  0  0
 24 25  2  0  0  0  0
 24 23  1  0  0  0  0
 25 26  1  0  0  0  0
 26 21  2  0  0  0  0
 27 23  1  0  0  0  0
 28 25  1  0  0  0  0
 29 30  2  0  0  0  0
 29 33  1  0  0  0  0
 31 32  1  0  0  0  0
 31 29  1  0  0  0  0
 33 34  2  0  0  0  0
 34 36  1  0  0  0  0
 34 35  1  0  0  0  0
 36 37  1  0  0  0  0
 38 39  1  0  0  0  0
 38 36  2  0  0  0  0
 40 33  1  0  0  0  0
 40 38  1  0  0  0  0
M  END
>  <minimizedAffinity>
-5.40628958

$$$$

 OpenBabel03272507433D

 40 43  0  0  0  0  0  0  0  0999 V2000
   38.2430   24.8990   32.8730 O   0  0  0  0  0  0  0  0  0  0  0  0
   37.1650   22.7170   32.4780 C   0  0  0  0  0  0  0  0  0  0  0  0
   37.2610   24.0960   32.3420 C   0  0  0  0  0  0  0  0  0  0  0  0
   36.3120   24.7890   31.6160 C   0  0  0  0  0  0  0  0  0  0  0  0
   35.2590   24.0990   31.0220 C   0  0  0  0  0  0  0  0  0  0  0  0
   35.1700   22.7340   31.1610 C   0  0  0  0  0  0  0  0  0  0  0  0
   36.1340   22.0670   31.8930 C   0  0  0  0  0  0  0  0  0  0  0  0
   36.3130   25.8390   31.4640 H   0  0  0  0  0  0  0  0  0  0  0  0
   34.5030   24.6320   30.4460 H   0  0  0  0  0  0  0  0  0  0  0  0
   34.3500   22.2010   30.6990 H   0  0  0  0  0  0  0  0  0  0  0  0
   36.0220   20.6010   32.0330 C   0  0  0  0  0  0  0  0  0  0  0  0
   35.3710   19.8640   32.9920 C   0  0  0  0  0  0  0  0  0  0  0  0
   35.5610   18.5220   32.6820 C   0  0  0  0  0  0  0  0  0  0  0  0
   36.3250   18.5260   31.5430 C   0  0  0  0  0  0  0  0  0  0  0  0
   36.5890   19.7710   31.1710 O   0  0  0  0  0  0  0  0  0  0  0  0
   34.8200   20.3250   33.8220 H   0  0  0  0  0  0  0  0  0  0  0  0
   35.1640   17.7020   33.2590 H   0  0  0  0  0  0  0  0  0  0  0  0
   36.6280   17.5930   31.0710 H   0  0  0  0  0  0  0  0  0  0  0  0
   38.9890   21.5410   33.8650 N   0  0  0  0  0  0  0  0  0  0  0  0
   38.1860   22.0710   33.2450 C   0  0  0  0  0  0  0  0  0  0  0  0
   38.0320   25.9160   33.7390 C   0  0  0  0  0  0  0  0  0  0  0  0
   38.5210   25.6530   35.0180 C   0  0  0  0  0  0  0  0  0  0  0  0
   38.4020   26.5610   36.0390 C   0  0  0  0  0  0  0  0  0  0  0  0
   37.7860   27.7410   35.7540 N   0  0  0  0  0  0  0  0  0  0  0  0
   37.3090   27.9930   34.4970 C   0  0  0  0  0  0  0  0  0  0  0  0
   37.4390   27.0960   33.5340 N   0  0  0  0  0  0  0  0  0  0  0  0
   38.7580   26.4200   37.0500 H   0  0  0  0  0  0  0  0  0  0  0  0
   36.8270   28.9490   34.3270 H   0  0  0  0  0  0  0  0  0  0  0  0
   40.5990   24.3860   35.4010 C   0  0  0  0  0  0  0  0  0  0  0  0
   41.5070   25.1900   34.9510 O   0  0  0  0  0  0  0  0  0  0  0  0
   39.1750   24.4690   35.4120 N   0  0  0  0  0  0  0  0  0  0  0  0
   38.6560   23.6420   35.7130 H   0  0  0  0  0  0  0  0  0  0  0  0
   41.2260   23.1830   35.9990 C   0  0  0  0  0  0  0  0  0  0  0  0
   40.8390   22.4960   37.1140 C   0  0  0  0  0  0  0  0  0  0  0  0
   40.0030   22.7020   37.7670 H   0  0  0  0  0  0  0  0  0  0  0  0
   41.7050   21.4190   37.3350 C   0  0  0  0  0  0  0  0  0  0  0  0
   41.7340   20.6670   38.0850 H   0  0  0  0  0  0  0  0  0  0  0  0
   42.6030   21.5260   36.2940 C   0  0  0  0  0  0  0  0  0  0  0  0
   43.4300   20.8540   36.1340 H   0  0  0  0  0  0  0  0  0  0  0  0
   42.3020   22.5530   35.5380 O   0  0  0  0  0  0  0  0  0  0  0  0
  1 21  1  0  0  0  0
  2 20  1  0  0  0  0
  3  2  1  0  0  0  0
  3  1  1  0  0  0  0
  4  3  2  0  0  0  0
  5  6  2  0  0  0  0
  5  4  1  0  0  0  0
  6  7  1  0  0  0  0
  7 11  1  0  0  0  0
  7  2  2  0  0  0  0
  8  4  1  0  0  0  0
  9  5  1  0  0  0  0
 10  6  1  0  0  0  0
 11 12  2  0  0  0  0
 12 16  1  0  0  0  0
 13 12  1  0  0  0  0
 13 17  1  0  0  0  0
 14 13  2  0  0  0  0
 15 14  1  0  0  0  0
 15 11  1  0  0  0  0
 18 14  1  0  0  0  0
 20 19  3  0  0  0  0
 21 22  1  0  0  0  0
 22 31  1  0  0  0  0
 22 23  2  0  0  0  0
 23 27  1  0  0  0  0
 24 23  1  0  0  0  0
 25 24  2  0  0  0  0
 26 21  2  0  0  0  0
 26 25  1  0  0  0  0
 28 25  1  0  0  0  0
 29 31  1  0  0  0  0
 29 33  1  0  0  0  0
 30 29  2  0  0  0  0
 31 32  1  0  0  0  0
 33 34  2  0  0  0  0
 34 36  1  0  0  0  0
 34 35  1  0  0  0  0
 36 37  1  0  0  0  0
 38 36  2  0  0  0  0
 39 38  1  0  0  0  0
 40 33  1  0  0  0  0
 40 38  1  0  0  0  0
M  END
>  <minimizedAffinity>
-5.35701466

$$$$
