
 OpenBabel03272508573D

 39 42  0  0  1  0  0  0  0  0999 V2000
   38.3790   31.8890   44.5500 C   0  0  0  0  0  0  0  0  0  0  0  0
   37.2510   32.4230   44.4370 O   0  0  0  0  0  0  0  0  0  0  0  0
   38.9530   31.6620   45.8530 N   0  0  0  0  0  0  0  0  0  0  0  0
   39.9560   31.4330   46.0010 H   0  0  0  0  0  0  0  0  0  0  0  0
   39.1610   31.4780   43.3630 C   0  0  0  0  0  0  0  0  0  0  0  0
   40.1430   30.5390   43.5120 C   0  0  0  0  0  0  0  0  0  0  0  0
   40.8510   30.1830   42.3750 C   0  0  0  0  0  0  0  0  0  0  0  0
   40.5350   30.7770   41.1900 C   0  0  0  0  0  0  0  0  0  0  0  0
   39.5440   31.7250   41.0300 C   0  0  0  0  0  0  0  0  0  0  0  0
   38.8860   32.0380   42.1610 N   0  0  0  0  0  0  0  0  0  0  0  0
   40.4010   30.0630   44.4410 H   0  0  0  0  0  0  0  0  0  0  0  0
   41.6300   29.4470   42.4600 H   0  0  0  0  0  0  0  0  0  0  0  0
   41.1170   30.4660   40.3240 H   0  0  0  0  0  0  0  0  0  0  0  0
   39.2400   32.3370   39.7410 C   0  0  0  0  0  0  0  0  0  0  0  0
   38.6120   33.4220   39.7270 O   0  0  0  0  0  0  0  0  0  0  0  0
   39.6570   31.7000   38.4950 C   0  0  0  0  0  0  0  0  0  0  0  0
   40.7210   32.1170   37.7220 C   0  0  0  0  0  0  0  0  0  0  0  0
   41.4170   32.9350   37.8580 H   0  0  0  0  0  0  0  0  0  0  0  0
   40.7920   31.2670   36.6350 C   0  0  0  0  0  0  0  0  0  0  0  0
   41.4520   31.2100   35.7810 H   0  0  0  0  0  0  0  0  0  0  0  0
   39.7430   30.3600   36.8110 C   0  0  0  0  0  0  0  0  0  0  0  0
   39.4050   29.5060   36.2050 H   0  0  0  0  0  0  0  0  0  0  0  0
   39.1040   30.6640   37.9290 O   0  0  0  0  0  0  0  0  0  0  0  0
   38.4450   31.1250   48.2240 C   0  0  2  0  0  0  0  0  0  0  0  0
   38.6920   32.5890   48.1550 C   0  0  0  0  0  0  0  0  0  0  0  0
   38.0820   31.7570   46.9980 C   0  0  1  0  0  0  0  0  0  0  0  0
   39.3700   30.5110   48.3040 H   0  0  0  0  0  0  0  0  0  0  0  0
   39.7200   32.9420   48.0450 H   0  0  0  0  0  0  0  0  0  0  0  0
   38.0050   33.2360   48.7130 H   0  0  0  0  0  0  0  0  0  0  0  0
   37.0100   32.0020   46.8040 H   0  0  0  0  0  0  0  0  0  0  0  0
   35.0680   30.2450   49.5140 C   0  0  0  0  0  0  0  0  0  0  0  0
   35.3900   29.5640   50.7390 C   0  0  0  0  0  0  0  0  0  0  0  0
   36.7850   29.4360   51.0890 C   0  0  0  0  0  0  0  0  0  0  0  0
   37.7440   29.9570   50.2600 N   0  0  0  0  0  0  0  0  0  0  0  0
   37.3620   30.5840   49.1270 C   0  0  0  0  0  0  0  0  0  0  0  0
   36.0400   30.7440   48.7290 N   0  0  0  0  0  0  0  0  0  0  0  0
   34.0150   30.3240   49.2810 H   0  0  0  0  0  0  0  0  0  0  0  0
   34.6420   29.1600   51.3800 H   0  0  0  0  0  0  0  0  0  0  0  0
   37.0300   28.9250   52.0070 H   0  0  0  0  0  0  0  0  0  0  0  0
  1  3  1  0  0  0  0
  2  1  2  0  0  0  0
  3  4  1  0  0  0  0
  3 26  1  0  0  0  0
  5  6  1  0  0  0  0
  5  1  1  0  0  0  0
  6 11  1  0  0  0  0
  7 12  1  0  0  0  0
  7  6  2  0  0  0  0
  8  7  1  0  0  0  0
  9  8  2  0  0  0  0
  9 10  1  0  0  0  0
 10  5  2  0  0  0  0
 13  8  1  0  0  0  0
 14  9  1  0  0  0  0
 15 14  2  0  0  0  0
 16 14  1  0  0  0  0
 17 18  1  0  0  0  0
 17 16  2  0  0  0  0
 19 21  2  0  0  0  0
 19 17  1  0  0  0  0
 20 19  1  0  0  0  0
 21 23  1  0  0  0  0
 22 21  1  0  0  0  0
 23 16  1  0  0  0  0
 24 27  1  6  0  0  0
 24 35  1  0  0  0  0
 25 24  1  0  0  0  0
 25 29  1  0  0  0  0
 26 30  1  6  0  0  0
 26 25  1  0  0  0  0
 26 24  1  0  0  0  0
 28 25  1  0  0  0  0
 31 32  1  0  0  0  0
 32 33  2  0  0  0  0
 32 38  1  0  0  0  0
 33 39  1  0  0  0  0
 34 33  1  0  0  0  0
 35 34  2  0  0  0  0
 36 35  1  0  0  0  0
 36 31  2  0  0  0  0
 37 31  1  0  0  0  0
M  END
>  <minimizedAffinity>
-4.95220137

>  <minimizedRMSD>
0.427394718

$$$$
