
 OpenBabel03272508573D

 39 42  0  0  1  0  0  0  0  0999 V2000
   38.3620   31.9060   44.5240 C   0  0  0  0  0  0  0  0  0  0  0  0
   37.2240   32.4180   44.4150 O   0  0  0  0  0  0  0  0  0  0  0  0
   38.9480   31.6960   45.8240 N   0  0  0  0  0  0  0  0  0  0  0  0
   39.9570   31.4870   45.9670 H   0  0  0  0  0  0  0  0  0  0  0  0
   39.1430   31.5020   43.3340 C   0  0  0  0  0  0  0  0  0  0  0  0
   40.1340   30.5730   43.4780 C   0  0  0  0  0  0  0  0  0  0  0  0
   40.8420   30.2230   42.3390 C   0  0  0  0  0  0  0  0  0  0  0  0
   40.5170   30.8160   41.1550 C   0  0  0  0  0  0  0  0  0  0  0  0
   39.5170   31.7560   41.0000 C   0  0  0  0  0  0  0  0  0  0  0  0
   38.8600   32.0620   42.1330 N   0  0  0  0  0  0  0  0  0  0  0  0
   40.4000   30.0980   44.4060 H   0  0  0  0  0  0  0  0  0  0  0  0
   41.6270   29.4940   42.4200 H   0  0  0  0  0  0  0  0  0  0  0  0
   41.0980   30.5110   40.2870 H   0  0  0  0  0  0  0  0  0  0  0  0
   39.2030   32.3660   39.7130 C   0  0  0  0  0  0  0  0  0  0  0  0
   38.7350   33.5290   39.7000 O   0  0  0  0  0  0  0  0  0  0  0  0
   39.4270   31.6390   38.4660 C   0  0  0  0  0  0  0  0  0  0  0  0
   38.5940   30.6570   37.9710 C   0  0  0  0  0  0  0  0  0  0  0  0
   37.6730   30.2470   38.3670 H   0  0  0  0  0  0  0  0  0  0  0  0
   39.1430   30.2170   36.7840 C   0  0  0  0  0  0  0  0  0  0  0  0
   38.8430   29.4720   36.0600 H   0  0  0  0  0  0  0  0  0  0  0  0
   40.3070   30.9730   36.6160 C   0  0  0  0  0  0  0  0  0  0  0  0
   41.0690   30.9770   35.8230 H   0  0  0  0  0  0  0  0  0  0  0  0
   40.4250   31.7990   37.6430 O   0  0  0  0  0  0  0  0  0  0  0  0
   38.4510   31.1350   48.1920 C   0  0  2  0  0  0  0  0  0  0  0  0
   38.7020   32.5990   48.1380 C   0  0  0  0  0  0  0  0  0  0  0  0
   38.0840   31.7810   46.9750 C   0  0  1  0  0  0  0  0  0  0  0  0
   39.3750   30.5180   48.2600 H   0  0  0  0  0  0  0  0  0  0  0  0
   39.7300   32.9500   48.0250 H   0  0  0  0  0  0  0  0  0  0  0  0
   38.0200   33.2430   48.7060 H   0  0  0  0  0  0  0  0  0  0  0  0
   37.0110   32.0320   46.7890 H   0  0  0  0  0  0  0  0  0  0  0  0
   35.0780   30.2500   49.4890 C   0  0  0  0  0  0  0  0  0  0  0  0
   35.4050   29.5550   50.7060 C   0  0  0  0  0  0  0  0  0  0  0  0
   36.8010   29.4210   51.0480 C   0  0  0  0  0  0  0  0  0  0  0  0
   37.7570   29.9490   50.2190 N   0  0  0  0  0  0  0  0  0  0  0  0
   37.3720   30.5870   49.0950 C   0  0  0  0  0  0  0  0  0  0  0  0
   36.0480   30.7550   48.7040 N   0  0  0  0  0  0  0  0  0  0  0  0
   34.0250   30.3340   49.2620 H   0  0  0  0  0  0  0  0  0  0  0  0
   34.6590   29.1470   51.3460 H   0  0  0  0  0  0  0  0  0  0  0  0
   37.0490   28.9000   51.9590 H   0  0  0  0  0  0  0  0  0  0  0  0
  1  3  1  0  0  0  0
  2  1  2  0  0  0  0
  3  4  1  0  0  0  0
  3 26  1  0  0  0  0
  5  6  1  0  0  0  0
  5  1  1  0  0  0  0
  6 11  1  0  0  0  0
  7 12  1  0  0  0  0
  7  6  2  0  0  0  0
  8  7  1  0  0  0  0
  9  8  2  0  0  0  0
  9 10  1  0  0  0  0
 10  5  2  0  0  0  0
 13  8  1  0  0  0  0
 14  9  1  0  0  0  0
 15 14  2  0  0  0  0
 16 14  1  0  0  0  0
 17 18  1  0  0  0  0
 17 16  2  0  0  0  0
 19 17  1  0  0  0  0
 20 19  1  0  0  0  0
 21 19  2  0  0  0  0
 21 23  1  0  0  0  0
 22 21  1  0  0  0  0
 23 16  1  0  0  0  0
 24 27  1  6  0  0  0
 24 35  1  0  0  0  0
 25 24  1  0  0  0  0
 25 29  1  0  0  0  0
 26 30  1  6  0  0  0
 26 25  1  0  0  0  0
 26 24  1  0  0  0  0
 28 25  1  0  0  0  0
 31 32  1  0  0  0  0
 32 33  2  0  0  0  0
 32 38  1  0  0  0  0
 33 39  1  0  0  0  0
 34 33  1  0  0  0  0
 35 34  2  0  0  0  0
 36 35  1  0  0  0  0
 36 31  2  0  0  0  0
 37 31  1  0  0  0  0
M  END
>  <minimizedAffinity>
-4.91647625

>  <minimizedRMSD>
0.432306945

$$$$
