
 OpenBabel03272508573D

 39 42  0  0  1  0  0  0  0  0999 V2000
   38.3780   31.9050   44.5200 C   0  0  0  0  0  0  0  0  0  0  0  0
   37.2550   32.4510   44.4120 O   0  0  0  0  0  0  0  0  0  0  0  0
   38.9480   31.6570   45.8200 N   0  0  0  0  0  0  0  0  0  0  0  0
   39.9490   31.4170   45.9660 H   0  0  0  0  0  0  0  0  0  0  0  0
   39.1550   31.4980   43.3280 C   0  0  0  0  0  0  0  0  0  0  0  0
   40.1440   30.5670   43.4720 C   0  0  0  0  0  0  0  0  0  0  0  0
   40.8490   30.2150   42.3310 C   0  0  0  0  0  0  0  0  0  0  0  0
   40.5220   30.8060   41.1470 C   0  0  0  0  0  0  0  0  0  0  0  0
   39.5240   31.7480   40.9930 C   0  0  0  0  0  0  0  0  0  0  0  0
   38.8700   32.0570   42.1280 N   0  0  0  0  0  0  0  0  0  0  0  0
   40.4110   30.0930   44.3990 H   0  0  0  0  0  0  0  0  0  0  0  0
   41.6330   29.4840   42.4120 H   0  0  0  0  0  0  0  0  0  0  0  0
   41.1010   30.4990   40.2780 H   0  0  0  0  0  0  0  0  0  0  0  0
   39.2090   32.3580   39.7060 C   0  0  0  0  0  0  0  0  0  0  0  0
   38.7540   33.5260   39.6920 O   0  0  0  0  0  0  0  0  0  0  0  0
   39.4160   31.6240   38.4610 C   0  0  0  0  0  0  0  0  0  0  0  0
   38.5730   30.6430   37.9800 C   0  0  0  0  0  0  0  0  0  0  0  0
   37.6540   30.2410   38.3860 H   0  0  0  0  0  0  0  0  0  0  0  0
   39.1080   30.1930   36.7890 C   0  0  0  0  0  0  0  0  0  0  0  0
   38.7970   29.4460   36.0730 H   0  0  0  0  0  0  0  0  0  0  0  0
   40.2750   30.9420   36.6060 C   0  0  0  0  0  0  0  0  0  0  0  0
   41.0290   30.9370   35.8060 H   0  0  0  0  0  0  0  0  0  0  0  0
   40.4070   31.7730   37.6280 O   0  0  0  0  0  0  0  0  0  0  0  0
   38.4450   31.1190   48.1920 C   0  0  2  0  0  0  0  0  0  0  0  0
   38.6860   32.5840   48.1230 C   0  0  0  0  0  0  0  0  0  0  0  0
   38.0790   31.7490   46.9660 C   0  0  1  0  0  0  0  0  0  0  0  0
   39.3730   30.5100   48.2710 H   0  0  0  0  0  0  0  0  0  0  0  0
   39.7120   32.9420   48.0110 H   0  0  0  0  0  0  0  0  0  0  0  0
   37.9960   33.2290   48.6810 H   0  0  0  0  0  0  0  0  0  0  0  0
   37.0050   31.9890   46.7730 H   0  0  0  0  0  0  0  0  0  0  0  0
   35.0730   30.2420   49.4950 C   0  0  0  0  0  0  0  0  0  0  0  0
   35.4000   29.5450   50.7100 C   0  0  0  0  0  0  0  0  0  0  0  0
   36.7970   29.4060   51.0490 C   0  0  0  0  0  0  0  0  0  0  0  0
   37.7520   29.9320   50.2190 N   0  0  0  0  0  0  0  0  0  0  0  0
   37.3660   30.5730   49.0960 C   0  0  0  0  0  0  0  0  0  0  0  0
   36.0420   30.7450   48.7090 N   0  0  0  0  0  0  0  0  0  0  0  0
   34.0190   30.3290   49.2700 H   0  0  0  0  0  0  0  0  0  0  0  0
   34.6540   29.1380   51.3510 H   0  0  0  0  0  0  0  0  0  0  0  0
   37.0440   28.8840   51.9590 H   0  0  0  0  0  0  0  0  0  0  0  0
  1  3  1  0  0  0  0
  2  1  2  0  0  0  0
  3  4  1  0  0  0  0
  3 26  1  0  0  0  0
  5  6  1  0  0  0  0
  5  1  1  0  0  0  0
  6 11  1  0  0  0  0
  7 12  1  0  0  0  0
  7  6  2  0  0  0  0
  8  7  1  0  0  0  0
  9  8  2  0  0  0  0
  9 10  1  0  0  0  0
 10  5  2  0  0  0  0
 13  8  1  0  0  0  0
 14  9  1  0  0  0  0
 15 14  2  0  0  0  0
 16 14  1  0  0  0  0
 17 18  1  0  0  0  0
 17 16  2  0  0  0  0
 19 17  1  0  0  0  0
 20 19  1  0  0  0  0
 21 19  2  0  0  0  0
 21 23  1  0  0  0  0
 22 21  1  0  0  0  0
 23 16  1  0  0  0  0
 24 27  1  6  0  0  0
 24 35  1  0  0  0  0
 25 24  1  0  0  0  0
 25 29  1  0  0  0  0
 26 30  1  6  0  0  0
 26 25  1  0  0  0  0
 26 24  1  0  0  0  0
 28 25  1  0  0  0  0
 31 32  1  0  0  0  0
 32 33  2  0  0  0  0
 32 38  1  0  0  0  0
 33 39  1  0  0  0  0
 34 33  1  0  0  0  0
 35 34  2  0  0  0  0
 36 35  1  0  0  0  0
 36 31  2  0  0  0  0
 37 31  1  0  0  0  0
M  END
>  <minimizedAffinity>
-4.90704679

>  <minimizedRMSD>
0.546627045

$$$$
