
 OpenBabel03272508273D

 43 46  0  0  1  0  0  0  0  0999 V2000
   33.9100   29.0110   47.3610 C   0  0  2  0  0  0  0  0  0  0  0  0
   34.7110   28.2150   48.3850 C   0  0  2  0  0  0  0  0  0  0  0  0
   33.8370   27.9650   49.4090 O   0  0  0  0  0  0  0  0  0  0  0  0
   32.5430   28.0110   48.9680 C   0  0  0  0  0  0  0  0  0  0  0  0
   32.5720   28.2730   47.4730 C   0  0  1  0  0  0  0  0  0  0  0  0
   33.7500   30.0490   47.6690 H   0  0  0  0  0  0  0  0  0  0  0  0
   35.0210   27.2850   47.8690 H   0  0  0  0  0  0  0  0  0  0  0  0
   32.0490   27.0190   49.0760 H   0  0  0  0  0  0  0  0  0  0  0  0
   32.0190   28.8370   49.4600 H   0  0  0  0  0  0  0  0  0  0  0  0
   32.7230   27.3400   46.9030 H   0  0  0  0  0  0  0  0  0  0  0  0
   35.7330   30.5170   48.9870 C   0  0  1  0  0  0  0  0  0  0  0  0
   35.8460   29.0870   48.8270 C   0  0  1  0  0  0  0  0  0  0  0  0
   35.9330   29.6230   50.2190 C   0  0  0  0  0  0  0  0  0  0  0  0
   34.8250   31.1250   49.1160 H   0  0  0  0  0  0  0  0  0  0  0  0
   36.8230   28.7280   48.3870 H   0  0  0  0  0  0  0  0  0  0  0  0
   36.9140   29.6140   50.7240 H   0  0  0  0  0  0  0  0  0  0  0  0
   35.0970   29.4660   50.9140 H   0  0  0  0  0  0  0  0  0  0  0  0
   36.9340   31.4210   48.7530 C   0  0  0  0  0  0  0  0  0  0  0  0
   37.1500   32.4460   49.6970 C   0  0  0  0  0  0  0  0  0  0  0  0
   38.2430   33.2600   49.4200 C   0  0  0  0  0  0  0  0  0  0  0  0
   39.0220   33.0550   48.3130 N   0  0  0  0  0  0  0  0  0  0  0  0
   38.7640   32.0610   47.4500 C   0  0  0  0  0  0  0  0  0  0  0  0
   37.7130   31.2230   47.6540 N   0  0  0  0  0  0  0  0  0  0  0  0
   36.5060   32.5510   50.5380 H   0  0  0  0  0  0  0  0  0  0  0  0
   38.3990   34.0420   50.1500 H   0  0  0  0  0  0  0  0  0  0  0  0
   39.4150   31.9470   46.5930 H   0  0  0  0  0  0  0  0  0  0  0  0
   34.4150   28.9240   46.0800 O   0  0  0  0  0  0  0  0  0  0  0  0
   35.0470   28.1730   45.9660 H   0  0  0  0  0  0  0  0  0  0  0  0
   31.5300   29.0260   47.0330 O   0  0  0  0  0  0  0  0  0  0  0  0
   29.4840   28.8480   46.1130 C   0  0  0  0  0  0  0  0  0  0  0  0
   30.8600   28.7340   45.8640 C   0  0  0  0  0  0  0  0  0  0  0  0
   31.2420   28.3760   44.5900 C   0  0  0  0  0  0  0  0  0  0  0  0
   32.3160   28.3190   44.5170 H   0  0  0  0  0  0  0  0  0  0  0  0
   30.3070   28.1430   43.6090 C   0  0  0  0  0  0  0  0  0  0  0  0
   30.7140   27.8690   42.6460 H   0  0  0  0  0  0  0  0  0  0  0  0
   28.9520   28.2510   43.8350 C   0  0  0  0  0  0  0  0  0  0  0  0
   28.5440   28.6080   45.1020 C   0  0  0  0  0  0  0  0  0  0  0  0
   27.7860   29.9850   47.5500 N   0  0  0  0  0  0  0  0  0  0  0  0
   28.8250   29.2150   47.3820 C   0  0  0  0  0  0  0  0  0  0  0  0
   29.2280   28.7740   48.6650 N   0  0  0  0  0  0  0  0  0  0  0  0
   27.3420   30.4130   46.6870 H   0  0  0  0  0  0  0  0  0  0  0  0
   29.9360   29.3180   49.2310 H   0  0  0  0  0  0  0  0  0  0  0  0
   29.0020   27.9750   49.2820 H   0  0  0  0  0  0  0  0  0  0  0  0
  1  5  1  0  0  0  0
  1  6  1  1  0  0  0
  1  2  1  0  0  0  0
  2  7  1  6  0  0  0
  2 12  1  0  0  0  0
  2  3  1  0  0  0  0
  4  8  1  0  0  0  0
  4  3  1  0  0  0  0
  4  9  1  0  0  0  0
  5 10  1  6  0  0  0
  5  4  1  0  0  0  0
 11 14  1  6  0  0  0
 11 13  1  0  0  0  0
 12 15  1  6  0  0  0
 12 11  1  0  0  0  0
 12 13  1  0  0  0  0
 13 16  1  0  0  0  0
 13 17  1  0  0  0  0
 18 11  1  0  0  0  0
 18 19  1  0  0  0  0
 19 24  1  0  0  0  0
 20 19  2  0  0  0  0
 20 25  1  0  0  0  0
 21 20  1  0  0  0  0
 22 23  1  0  0  0  0
 22 21  2  0  0  0  0
 23 18  2  0  0  0  0
 26 22  1  0  0  0  0
 27  1  1  0  0  0  0
 28 27  1  0  0  0  0
 29  5  1  0  0  0  0
 30 39  1  0  0  0  0
 31 30  1  0  0  0  0
 31 29  1  0  0  0  0
 32 31  2  0  0  0  0
 33 32  1  0  0  0  0
 34 36  2  0  0  0  0
 34 32  1  0  0  0  0
 35 34  1  0  0  0  0
 36 37  1  0  0  0  0
 37 30  2  0  0  0  0
 39 38  2  0  0  0  0
 39 40  1  0  0  0  0
 40 42  1  0  0  0  0
 40 43  1  0  0  0  0
 41 38  1  0  0  0  0
M  END
>  <minimizedAffinity>
-5.39838696

>  <minimizedRMSD>
0.819096684

$$$$
