
 OpenBabel03272501443D

 39 40  0  0  0  0  0  0  0  0999 V2000
   36.2620   29.5730   48.8230 C   0  0  0  0  0  0  0  0  0  0  0  0
   36.0580   30.3330   47.6310 C   0  0  0  0  0  0  0  0  0  0  0  0
   34.7910   30.3190   47.0660 C   0  0  0  0  0  0  0  0  0  0  0  0
   33.8220   29.5910   47.6680 N   0  0  0  0  0  0  0  0  0  0  0  0
   34.0300   28.8810   48.7880 C   0  0  0  0  0  0  0  0  0  0  0  0
   35.2500   28.8780   49.3570 N   0  0  0  0  0  0  0  0  0  0  0  0
   37.1700   29.4620   49.3970 H   0  0  0  0  0  0  0  0  0  0  0  0
   34.6630   30.8900   46.1810 H   0  0  0  0  0  0  0  0  0  0  0  0
   37.9180   31.8250   48.0700 C   0  0  0  0  0  0  0  0  0  0  0  0
   37.2200   31.0460   47.1560 C   0  0  0  0  0  0  0  0  0  0  0  0
   37.6980   31.0290   45.8670 C   0  0  0  0  0  0  0  0  0  0  0  0
   38.8230   31.7560   45.5060 C   0  0  0  0  0  0  0  0  0  0  0  0
   39.4980   31.9310   44.3680 N   0  0  0  0  0  0  0  0  0  0  0  0
   40.5260   32.7460   44.5600 C   0  0  0  0  0  0  0  0  0  0  0  0
   40.5430   33.1300   45.8590 N   0  0  0  0  0  0  0  0  0  0  0  0
   39.4960   32.5210   46.4410 C   0  0  0  0  0  0  0  0  0  0  0  0
   39.0380   32.5540   47.7330 C   0  0  0  0  0  0  0  0  0  0  0  0
   37.6690   31.9510   49.1330 H   0  0  0  0  0  0  0  0  0  0  0  0
   37.1630   30.4240   45.1350 H   0  0  0  0  0  0  0  0  0  0  0  0
   39.1820   31.4450   43.4840 H   0  0  0  0  0  0  0  0  0  0  0  0
   41.1790   32.9900   43.7200 H   0  0  0  0  0  0  0  0  0  0  0  0
   39.5990   33.1710   48.4430 H   0  0  0  0  0  0  0  0  0  0  0  0
   32.9240   28.0910   49.4200 C   0  0  0  0  0  0  0  0  0  0  0  0
   33.3510   27.4630   50.2590 H   0  0  0  0  0  0  0  0  0  0  0  0
   32.2410   28.7840   49.9370 H   0  0  0  0  0  0  0  0  0  0  0  0
   30.9170   27.1510   48.2610 C   0  0  0  0  0  0  0  0  0  0  0  0
   32.2780   27.2450   48.4150 C   0  0  0  0  0  0  0  0  0  0  0  0
   33.0750   26.5160   47.5670 C   0  0  0  0  0  0  0  0  0  0  0  0
   34.1620   26.5610   47.6560 H   0  0  0  0  0  0  0  0  0  0  0  0
   32.4640   25.7400   46.6200 C   0  0  0  0  0  0  0  0  0  0  0  0
   33.0460   25.1470   45.9290 H   0  0  0  0  0  0  0  0  0  0  0  0
   31.1010   25.6400   46.4560 C   0  0  0  0  0  0  0  0  0  0  0  0
   30.2880   26.3630   47.2970 C   0  0  0  0  0  0  0  0  0  0  0  0
   29.4890   28.0970   50.2750 N   0  0  0  0  0  0  0  0  0  0  0  0
   30.0150   27.8660   49.1320 C   0  0  0  0  0  0  0  0  0  0  0  0
   29.2270   28.9080   48.5810 N   0  0  0  0  0  0  0  0  0  0  0  0
   29.7410   27.5570   51.1200 H   0  0  0  0  0  0  0  0  0  0  0  0
   29.1920   29.4450   47.6900 H   0  0  0  0  0 10  0  0  0  0  0  0
   28.6540   29.6600   48.1890 H   0  0  0  0  0  0  0  0  0  0  0  0
  1  6  1  0  0  0  0
  1  7  1  0  0  0  0
  2  1  2  0  0  0  0
  3  2  1  0  0  0  0
  3  4  2  0  0  0  0
  4  5  1  0  0  0  0
  5  6  2  0  0  0  0
  5 23  1  0  0  0  0
  8  3  1  0  0  0  0
  9 18  1  0  0  0  0
 10  2  1  0  0  0  0
 10  9  2  0  0  0  0
 11 10  1  0  0  0  0
 12 11  2  0  0  0  0
 12 16  1  0  0  0  0
 13 14  1  0  0  0  0
 13 12  1  0  0  0  0
 14 15  2  0  0  0  0
 15 16  1  0  0  0  0
 16 17  2  0  0  0  0
 17  9  1  0  0  0  0
 17 22  1  0  0  0  0
 19 11  1  0  0  0  0
 20 13  1  0  0  0  0
 21 14  1  0  0  0  0
 23 25  1  0  0  0  0
 23 24  1  0  0  0  0
 26 27  1  0  0  0  0
 26 35  1  0  0  0  0
 27 23  1  0  0  0  0
 28 29  1  0  0  0  0
 28 27  2  0  0  0  0
 30 28  1  0  0  0  0
 31 30  1  0  0  0  0
 32 30  2  0  0  0  0
 32 33  1  0  0  0  0
 33 26  2  0  0  0  0
 34 37  1  0  0  0  0
 35 34  2  0  0  0  0
 39 36  1  0  0  0  0
M  END
>  <minimizedAffinity>
-6.21507835

>  <minimizedRMSD>
2.43964839

$$$$
