
 OpenBabel03272508273D

 43 46  0  0  1  0  0  0  0  0999 V2000
   33.9110   29.0120   47.3620 C   0  0  2  0  0  0  0  0  0  0  0  0
   34.7130   28.2160   48.3860 C   0  0  2  0  0  0  0  0  0  0  0  0
   33.8390   27.9660   49.4100 O   0  0  0  0  0  0  0  0  0  0  0  0
   32.5440   28.0110   48.9700 C   0  0  0  0  0  0  0  0  0  0  0  0
   32.5730   28.2730   47.4740 C   0  0  1  0  0  0  0  0  0  0  0  0
   33.7510   30.0490   47.6710 H   0  0  0  0  0  0  0  0  0  0  0  0
   35.0230   27.2860   47.8710 H   0  0  0  0  0  0  0  0  0  0  0  0
   32.0510   27.0180   49.0770 H   0  0  0  0  0  0  0  0  0  0  0  0
   32.0200   28.8370   49.4620 H   0  0  0  0  0  0  0  0  0  0  0  0
   32.7250   27.3400   46.9040 H   0  0  0  0  0  0  0  0  0  0  0  0
   35.7340   30.5180   48.9870 C   0  0  1  0  0  0  0  0  0  0  0  0
   35.8470   29.0880   48.8290 C   0  0  1  0  0  0  0  0  0  0  0  0
   35.9330   29.6250   50.2200 C   0  0  0  0  0  0  0  0  0  0  0  0
   34.8250   31.1260   49.1150 H   0  0  0  0  0  0  0  0  0  0  0  0
   36.8240   28.7290   48.3890 H   0  0  0  0  0  0  0  0  0  0  0  0
   36.9130   29.6170   50.7260 H   0  0  0  0  0  0  0  0  0  0  0  0
   35.0970   29.4690   50.9150 H   0  0  0  0  0  0  0  0  0  0  0  0
   36.9350   31.4220   48.7530 C   0  0  0  0  0  0  0  0  0  0  0  0
   37.1500   32.4480   49.6970 C   0  0  0  0  0  0  0  0  0  0  0  0
   38.2440   33.2620   49.4190 C   0  0  0  0  0  0  0  0  0  0  0  0
   39.0230   33.0560   48.3130 N   0  0  0  0  0  0  0  0  0  0  0  0
   38.7660   32.0610   47.4510 C   0  0  0  0  0  0  0  0  0  0  0  0
   37.7140   31.2230   47.6550 N   0  0  0  0  0  0  0  0  0  0  0  0
   36.5060   32.5540   50.5380 H   0  0  0  0  0  0  0  0  0  0  0  0
   38.3990   34.0440   50.1500 H   0  0  0  0  0  0  0  0  0  0  0  0
   39.4170   31.9470   46.5950 H   0  0  0  0  0  0  0  0  0  0  0  0
   34.4160   28.9240   46.0820 O   0  0  0  0  0  0  0  0  0  0  0  0
   35.0490   28.1740   45.9680 H   0  0  0  0  0  0  0  0  0  0  0  0
   31.5310   29.0260   47.0350 O   0  0  0  0  0  0  0  0  0  0  0  0
   29.4860   28.8480   46.1140 C   0  0  0  0  0  0  0  0  0  0  0  0
   30.8610   28.7340   45.8660 C   0  0  0  0  0  0  0  0  0  0  0  0
   31.2440   28.3750   44.5910 C   0  0  0  0  0  0  0  0  0  0  0  0
   32.3180   28.3180   44.5190 H   0  0  0  0  0  0  0  0  0  0  0  0
   30.3090   28.1430   43.6110 C   0  0  0  0  0  0  0  0  0  0  0  0
   30.7160   27.8680   42.6490 H   0  0  0  0  0  0  0  0  0  0  0  0
   28.9540   28.2500   43.8360 C   0  0  0  0  0  3  0  0  0  0  0  0
   28.5450   28.6080   45.1030 C   0  0  0  0  0  3  0  0  0  0  0  0
   27.7870   29.9850   47.5500 N   0  0  0  0  0  0  0  0  0  0  0  0
   28.8260   29.2140   47.3830 C   0  0  0  0  0  0  0  0  0  0  0  0
   29.2290   28.7730   48.6660 N   0  0  0  0  0  0  0  0  0  0  0  0
   27.3430   30.4120   46.6880 H   0  0  0  0  0  0  0  0  0  0  0  0
   29.9360   29.3190   49.2320 H   0  0  0  0  0  0  0  0  0  0  0  0
   29.0020   27.9760   49.2830 H   0  0  0  0  0  0  0  0  0  0  0  0
  1  5  1  0  0  0  0
  1  6  1  1  0  0  0
  1  2  1  0  0  0  0
  2  7  1  6  0  0  0
  2 12  1  0  0  0  0
  2  3  1  0  0  0  0
  4  8  1  0  0  0  0
  4  3  1  0  0  0  0
  4  9  1  0  0  0  0
  5 10  1  6  0  0  0
  5  4  1  0  0  0  0
 11 14  1  6  0  0  0
 11 13  1  0  0  0  0
 12 15  1  6  0  0  0
 12 11  1  0  0  0  0
 12 13  1  0  0  0  0
 13 16  1  0  0  0  0
 13 17  1  0  0  0  0
 18 11  1  0  0  0  0
 18 19  1  0  0  0  0
 19 24  1  0  0  0  0
 20 19  2  0  0  0  0
 20 25  1  0  0  0  0
 21 20  1  0  0  0  0
 22 23  1  0  0  0  0
 22 21  2  0  0  0  0
 23 18  2  0  0  0  0
 26 22  1  0  0  0  0
 27  1  1  0  0  0  0
 28 27  1  0  0  0  0
 29  5  1  0  0  0  0
 30 39  1  0  0  0  0
 31 30  1  0  0  0  0
 31 29  1  0  0  0  0
 32 31  2  0  0  0  0
 33 32  1  0  0  0  0
 34 36  2  0  0  0  0
 34 32  1  0  0  0  0
 35 34  1  0  0  0  0
 36 37  1  0  0  0  0
 37 30  2  0  0  0  0
 39 38  2  0  0  0  0
 39 40  1  0  0  0  0
 40 42  1  0  0  0  0
 40 43  1  0  0  0  0
 41 38  1  0  0  0  0
M  END
>  <minimizedAffinity>
-5.39734507

>  <minimizedRMSD>
0.325856984

$$$$
