
 OpenBabel03272501443D

 39 40  0  0  0  0  0  0  0  0999 V2000
   35.9290   29.5890   48.6240 C   0  0  0  0  0  0  0  0  0  0  0  0
   35.8640   30.2170   47.3420 C   0  0  0  0  0  0  0  0  0  0  0  0
   34.7280   30.0010   46.5760 C   0  0  0  0  0  0  0  0  0  0  0  0
   33.7480   29.2140   47.0770 N   0  0  0  0  0  0  0  0  0  0  0  0
   33.8250   28.6310   48.2830 C   0  0  0  0  0  0  0  0  0  0  0  0
   34.9160   28.8240   49.0480 N   0  0  0  0  0  0  0  0  0  0  0  0
   36.7250   29.6370   49.3520 H   0  0  0  0  0  0  0  0  0  0  0  0
   34.7010   30.4760   45.6270 H   0  0  0  0  0  0  0  0  0  0  0  0
   37.8220   31.4660   48.0360 C   0  0  0  0  0  0  0  0  0  0  0  0
   37.0100   31.0230   46.9990 C   0  0  0  0  0  0  0  0  0  0  0  0
   37.3720   31.4010   45.7280 C   0  0  0  0  0  0  0  0  0  0  0  0
   38.4930   32.1860   45.5000 C   0  0  0  0  0  0  0  0  0  0  0  0
   39.0720   32.6960   44.4120 N   0  0  0  0  0  0  0  0  0  0  0  0
   40.1490   33.3940   44.7450 C   0  0  0  0  0  0  0  0  0  0  0  0
   40.2980   33.3530   46.0900 N   0  0  0  0  0  0  0  0  0  0  0  0
   39.2810   32.6100   46.5550 C   0  0  0  0  0  0  0  0  0  0  0  0
   38.9400   32.2460   47.8330 C   0  0  0  0  0  0  0  0  0  0  0  0
   37.6740   31.2580   49.1050 H   0  0  0  0  0  0  0  0  0  0  0  0
   36.7480   31.0640   44.9010 H   0  0  0  0  0  0  0  0  0  0  0  0
   38.6580   32.5150   43.4560 H   0  0  0  0  0  0  0  0  0  0  0  0
   40.7360   33.8770   43.9610 H   0  0  0  0  0  0  0  0  0  0  0  0
   39.5890   32.6020   48.6400 H   0  0  0  0  0  0  0  0  0  0  0  0
   32.7120   27.7680   48.7970 C   0  0  0  0  0  0  0  0  0  0  0  0
   32.9630   27.4270   49.8470 H   0  0  0  0  0  0  0  0  0  0  0  0
   31.8120   28.3900   48.9350 H   0  0  0  0  0  0  0  0  0  0  0  0
   31.2950   26.2120   47.4460 C   0  0  0  0  0  0  0  0  0  0  0  0
   32.5200   26.6190   47.9110 C   0  0  0  0  0  0  0  0  0  0  0  0
   33.6290   25.9180   47.5050 C   0  0  0  0  0  0  0  0  0  0  0  0
   34.6230   26.2080   47.8510 H   0  0  0  0  0  0  0  0  0  0  0  0
   33.4430   24.8560   46.6610 C   0  0  0  0  0  0  0  0  0  0  0  0
   34.2840   24.2720   46.3140 H   0  0  0  0  0  0  0  0  0  0  0  0
   32.2190   24.4410   46.1900 C   0  0  0  0  0  3  0  0  0  0  0  0
   31.0990   25.1320   46.5860 C   0  0  0  0  0  3  0  0  0  0  0  0
   29.1140   27.0820   48.6640 N   0  0  0  0  0  0  0  0  0  0  0  0
   30.0820   26.8830   47.8500 C   0  0  0  0  0  3  0  0  0  0  0  0
   29.5560   27.8970   47.0090 N   0  0  0  0  0  1  0  0  0  0  0  0
   29.0100   26.5460   49.5440 H   0  0  0  0  0  0  0  0  0  0  0  0
   29.8780   28.4400   46.1810 H   0  0  0  0  0 15  0  0  0  0  0  0
   29.1720   28.6290   46.4050 H   0  0  0  0  0  0  0  0  0  0  0  0
  1  6  1  0  0  0  0
  1  7  1  0  0  0  0
  2  1  2  0  0  0  0
  3  4  2  0  0  0  0
  3  2  1  0  0  0  0
  4  5  1  0  0  0  0
  5 23  1  0  0  0  0
  5  6  2  0  0  0  0
  8  3  1  0  0  0  0
  9 18  1  0  0  0  0
 10  2  1  0  0  0  0
 10  9  2  0  0  0  0
 11 10  1  0  0  0  0
 12 11  2  0  0  0  0
 12 16  1  0  0  0  0
 13 14  1  0  0  0  0
 13 12  1  0  0  0  0
 14 15  2  0  0  0  0
 15 16  1  0  0  0  0
 16 17  2  0  0  0  0
 17  9  1  0  0  0  0
 17 22  1  0  0  0  0
 19 11  1  0  0  0  0
 20 13  1  0  0  0  0
 21 14  1  0  0  0  0
 23 25  1  0  0  0  0
 23 24  1  0  0  0  0
 26 35  1  0  0  0  0
 26 27  1  0  0  0  0
 27 23  1  0  0  0  0
 28 29  1  0  0  0  0
 28 27  2  0  0  0  0
 30 28  1  0  0  0  0
 31 30  1  0  0  0  0
 32 33  1  0  0  0  0
 32 30  2  0  0  0  0
 33 26  2  0  0  0  0
 34 37  1  0  0  0  0
 35 34  2  0  0  0  0
 39 36  1  0  0  0  0
M  END
>  <minimizedAffinity>
-5.82780838

>  <minimizedRMSD>
0.939637661

$$$$
