
 OpenBabel03262523593D

 34 36  0  0  0  0  0  0  0  0999 V2000
   35.9690   30.5300   46.8070 C   0  0  0  0  0  0  0  0  0  0  0  0
   36.2440   30.5660   45.4070 C   0  0  0  0  0  0  0  0  0  0  0  0
   35.3060   29.9810   44.5820 C   0  0  0  0  0  0  0  0  0  0  0  0
   34.1950   29.4110   45.1210 N   0  0  0  0  0  0  0  0  0  0  0  0
   33.9680   29.3960   46.4430 C   0  0  0  0  0  0  0  0  0  0  0  0
   34.8630   29.9610   47.3170 N   0  0  0  0  0  0  0  0  0  0  0  0
   36.6610   30.9710   47.5320 H   0  0  0  0  0  0  0  0  0  0  0  0
   35.4950   30.0070   43.5380 H   0  0  0  0  0  0  0  0  0  0  0  0
   34.4850   27.8850   49.1180 Br  0  0  0  0  0  0  0  0  0  0  0  0
   32.8390   28.0980   48.2080 C   0  0  0  0  0  0  0  0  0  0  0  0
   32.7780   28.7930   47.0360 C   0  0  0  0  0  0  0  0  0  0  0  0
   31.5280   28.9070   46.4230 C   0  0  0  0  0  0  0  0  0  0  0  0
   30.3660   28.3660   46.9250 C   0  0  0  0  0  0  0  0  0  0  0  0
   30.4910   27.6650   48.1270 C   0  0  0  0  0  0  0  0  0  0  0  0
   31.7320   27.5410   48.7550 C   0  0  0  0  0  0  0  0  0  0  0  0
   31.4680   29.4610   45.4860 H   0  0  0  0  0  0  0  0  0  0  0  0
   29.4500   28.5010   46.3920 H   0  0  0  0  0  0  0  0  0  0  0  0
   29.5910   27.2270   48.5480 H   0  0  0  0  0  0  0  0  0  0  0  0
   31.6980   26.9690   49.6890 H   0  0  0  0  0  0  0  0  0  0  0  0
   37.4040   31.1810   45.0280 O   0  0  0  0  0  0  0  0  0  0  0  0
   39.7540   31.1540   44.0840 C   0  0  0  0  0  0  0  0  0  0  0  0
   38.4760   30.7540   44.3530 C   0  0  0  0  0  0  0  0  0  0  0  0
   38.1350   29.5240   43.7650 C   0  0  0  0  0  0  0  0  0  0  0  0
   37.1960   28.9490   43.7980 H   0  0  0  0  0  0  0  0  0  0  0  0
   39.0530   28.8100   42.9840 C   0  0  0  0  0  0  0  0  0  0  0  0
   38.8810   27.8630   42.4940 H   0  0  0  0  0  0  0  0  0  0  0  0
   40.3250   29.2890   42.7630 C   0  0  0  0  0  3  0  0  0  0  0  0
   40.6860   30.4900   43.3270 C   0  0  0  0  0  3  0  0  0  0  0  0
   41.2460   32.4370   45.3510 N   0  0  0  0  0  0  0  0  0  0  0  0
   40.1440   32.4180   44.6600 C   0  0  0  0  0  0  0  0  0  0  0  0
   39.9540   33.7740   44.8840 N   0  0  0  0  0  0  0  0  0  0  0  0
   41.8240   31.5870   45.4960 H   0  0  0  0  0  0  0  0  0  0  0  0
   40.2430   34.5450   44.2140 H   0  0  0  0  0  0  0  0  0  0  0  0
   39.5370   34.2940   45.6590 H   0  0  0  0  0  0  0  0  0  0  0  0
  1  6  1  0  0  0  0
  1  7  1  0  0  0  0
  2  1  2  0  0  0  0
  3  4  2  0  0  0  0
  3  2  1  0  0  0  0
  4  5  1  0  0  0  0
  5 11  1  0  0  0  0
  5  6  2  0  0  0  0
  8  3  1  0  0  0  0
 10 15  1  0  0  0  0
 10  9  1  0  0  0  0
 11 10  2  0  0  0  0
 12 13  2  0  0  0  0
 12 11  1  0  0  0  0
 13 14  1  0  0  0  0
 14 18  1  0  0  0  0
 14 15  2  0  0  0  0
 15 19  1  0  0  0  0
 16 12  1  0  0  0  0
 17 13  1  0  0  0  0
 20  2  1  0  0  0  0
 21 22  1  0  0  0  0
 21 30  1  0  0  0  0
 22 20  1  0  0  0  0
 23 24  1  0  0  0  0
 23 22  2  0  0  0  0
 25 23  1  0  0  0  0
 26 25  1  0  0  0  0
 27 25  2  0  0  0  0
 27 28  1  0  0  0  0
 28 21  2  0  0  0  0
 29 32  1  0  0  0  0
 30 31  1  0  0  0  0
 30 29  2  0  0  0  0
 31 34  1  0  0  0  0
 33 31  1  0  0  0  0
M  END
>  <minimizedAffinity>
-4.77087927

>  <minimizedRMSD>
6.10959339

$$$$
