
 OpenBabel03272504173D

 31 32  0  0  0  0  0  0  0  0999 V2000
   35.1190   29.4820   46.3500 O   0  0  0  0  0  0  0  0  0  0  0  0
   34.3030   29.3000   47.6110 P   0  0  1  0  0  0  0  0  0  0  0  0
   34.6280   27.8240   48.3400 O   0  0  0  0  0  0  0  0  0  0  0  0
   34.1910   27.1320   47.7490 H   0  0  0  0  0  0  0  0  0  0  0  0
   34.6260   30.5100   48.7850 O   0  0  0  0  0  0  0  0  0  0  0  0
   35.8620   30.6090   49.4130 C   0  0  0  0  0  0  0  0  0  0  0  0
   36.2320   29.9850   50.6010 C   0  0  0  0  0  0  0  0  0  0  0  0
   37.5250   30.2040   51.0780 C   0  0  0  0  0  0  0  0  0  0  0  0
   38.3740   31.0080   50.3840 N   0  0  0  0  0  0  0  0  0  0  0  0
   37.9620   31.6000   49.2190 C   0  0  0  0  0  0  0  0  0  0  0  0
   36.7160   31.4060   48.7300 N   0  0  0  0  0  0  0  0  0  0  0  0
   37.7620   29.7010   51.9980 H   0  0  0  0  0  0  0  0  0  0  0  0
   38.6810   32.2300   48.7060 H   0  0  0  0  0  0  0  0  0  0  0  0
   35.2320   29.1930   51.1810 N   0  0  0  0  0  0  0  0  0  0  0  0
   35.2540   28.1690   51.4610 H   0  0  0  0  0  0  0  0  0  0  0  0
   34.2910   29.5400   51.4210 H   0  0  0  0  0  0  0  0  0  0  0  0
   32.6720   29.3970   47.1300 O   0  0  0  0  0  0  0  0  0  0  0  0
   31.9170   29.0600   44.8800 C   0  0  0  0  0  0  0  0  0  0  0  0
   32.2550   29.9280   45.9260 C   0  0  0  0  0  0  0  0  0  0  0  0
   32.1290   31.2670   45.6280 C   0  0  0  0  0  0  0  0  0  0  0  0
   32.3760   31.9660   46.3960 H   0  0  0  0  0  0  0  0  0  0  0  0
   31.7100   31.7450   44.4130 C   0  0  0  0  0  0  0  0  0  0  0  0
   31.6330   32.8220   44.2430 H   0  0  0  0  0  0  0  0  0  0  0  0
   31.3890   30.8640   43.4150 C   0  0  0  0  0  3  0  0  0  0  0  0
   31.4960   29.5170   43.6570 C   0  0  0  0  0  3  0  0  0  0  0  0
   31.1590   26.9740   45.8620 N   0  0  0  0  0  0  0  0  0  0  0  0
   32.0300   27.6290   45.1350 C   0  0  0  0  0  0  0  0  0  0  0  0
   33.0420   26.7430   44.6700 N   0  0  0  0  0  0  0  0  0  0  0  0
   31.3480   25.9660   45.9680 H   0  0  0  0  0  0  0  0  0  0  0  0
   33.7490   26.6150   45.4500 H   0  0  0  0  0  0  0  0  0  0  0  0
   33.2930   26.1960   43.8190 H   0  0  0  0  0  0  0  0  0  0  0  0
  2  1  2  6  0  0  0
  2  3  1  0  0  0  0
  2  5  1  0  0  0  0
  4  3  1  0  0  0  0
  5  6  1  0  0  0  0
  6  7  1  0  0  0  0
  7  8  2  0  0  0  0
  7 14  1  0  0  0  0
  8 12  1  0  0  0  0
  9  8  1  0  0  0  0
 10  9  2  0  0  0  0
 11 10  1  0  0  0  0
 11  6  2  0  0  0  0
 13 10  1  0  0  0  0
 14 16  1  0  0  0  0
 14 15  1  0  0  0  0
 17  2  1  0  0  0  0
 18 27  1  0  0  0  0
 18 19  1  0  0  0  0
 19 17  1  0  0  0  0
 20 19  2  0  0  0  0
 20 21  1  0  0  0  0
 22 20  1  0  0  0  0
 23 22  1  0  0  0  0
 24 25  1  0  0  0  0
 24 22  2  0  0  0  0
 25 18  2  0  0  0  0
 26 29  1  0  0  0  0
 27 26  2  0  0  0  0
 28 27  1  0  0  0  0
 28 30  1  0  0  0  0
 31 28  1  0  0  0  0
M  END
>  <minimizedAffinity>
-3.86797476

>  <minimizedRMSD>
2.57470226

$$$$
