
 OpenBabel03272508293D

 43 46  0  0  1  0  0  0  0  0999 V2000
   37.7650   25.9190   33.8240 C   0  0  2  0  0  0  0  0  0  0  0  0
   37.7360   27.4390   33.7080 C   0  0  2  0  0  0  0  0  0  0  0  0
   37.6900   27.8960   34.9980 O   0  0  0  0  0  0  0  0  0  0  0  0
   38.2010   26.9680   35.8640 C   0  0  0  0  0  0  0  0  0  0  0  0
   38.6850   25.7860   35.0430 C   0  0  1  0  0  0  0  0  0  0  0  0
   36.7900   25.5000   34.0900 H   0  0  0  0  0  0  0  0  0  0  0  0
   38.6800   27.7220   33.2030 H   0  0  0  0  0  0  0  0  0  0  0  0
   39.1140   27.3570   36.3710 H   0  0  0  0  0  0  0  0  0  0  0  0
   37.4120   26.6280   36.5420 H   0  0  0  0  0  0  0  0  0  0  0  0
   39.6990   25.9600   34.6430 H   0  0  0  0  0  0  0  0  0  0  0  0
   36.2520   29.1080   32.3980 C   0  0  1  0  0  0  0  0  0  0  0  0
   36.4950   27.7970   32.9510 C   0  0  1  0  0  0  0  0  0  0  0  0
   36.4840   27.9130   31.4620 C   0  0  0  0  0  0  0  0  0  0  0  0
   36.9790   29.9020   32.1690 H   0  0  0  0  0  0  0  0  0  0  0  0
   35.5900   27.2910   33.4010 H   0  0  0  0  0  0  0  0  0  0  0  0
   35.6290   27.4900   30.9080 H   0  0  0  0  0  0  0  0  0  0  0  0
   37.4280   27.8380   30.9050 H   0  0  0  0  0  0  0  0  0  0  0  0
   34.8360   29.6480   32.2720 C   0  0  0  0  0  0  0  0  0  0  0  0
   34.6430   30.7210   31.3780 C   0  0  0  0  0  0  0  0  0  0  0  0
   33.3350   31.1940   31.3240 C   0  0  0  0  0  0  0  0  0  0  0  0
   32.3450   30.6410   32.0900 N   0  0  0  0  0  0  0  0  0  0  0  0
   32.5930   29.6200   32.9240 C   0  0  0  0  0  0  0  0  0  0  0  0
   33.8460   29.1030   33.0310 N   0  0  0  0  0  0  0  0  0  0  0  0
   35.4570   31.1060   30.8100 H   0  0  0  0  0  0  0  0  0  0  0  0
   33.1990   32.0170   30.6350 H   0  0  0  0  0  0  0  0  0  0  0  0
   31.7700   29.2240   33.5030 H   0  0  0  0  0  0  0  0  0  0  0  0
   38.3140   25.2950   32.7230 O   0  0  0  0  0  0  0  0  0  0  0  0
   38.8310   25.9110   32.1500 H   0  0  0  0  0  0  0  0  0  0  0  0
   38.5350   24.5910   35.6720 O   0  0  0  0  0  0  0  0  0  0  0  0
   39.4400   23.2230   37.2130 C   0  0  0  0  0  0  0  0  0  0  0  0
   39.6070   23.7630   35.9300 C   0  0  0  0  0  0  0  0  0  0  0  0
   40.7330   23.3860   35.2300 C   0  0  0  0  0  0  0  0  0  0  0  0
   40.7560   23.8620   34.2630 H   0  0  0  0  0  0  0  0  0  0  0  0
   41.6470   22.5160   35.7750 C   0  0  0  0  0  0  0  0  0  0  0  0
   42.4930   22.2870   35.1420 H   0  0  0  0  0  0  0  0  0  0  0  0
   41.4990   21.9740   37.0340 C   0  0  0  0  0  3  0  0  0  0  0  0
   40.3800   22.3360   37.7530 C   0  0  0  0  0  3  0  0  0  0  0  0
   37.4640   22.6040   38.6110 N   0  0  0  0  0  0  0  0  0  0  0  0
   38.3290   23.4660   38.1560 C   0  0  0  0  0  0  0  0  0  0  0  0
   38.0150   24.7170   38.7370 N   0  0  0  0  0  0  0  0  0  0  0  0
   37.5440   21.5990   38.2800 H   0  0  0  0  0  0  0  0  0  0  0  0
   37.3520   25.3890   38.2600 H   0  0  0  0  0  0  0  0  0  0  0  0
   38.2810   25.2260   39.5980 H   0  0  0  0  0  0  0  0  0  0  0  0
  1  6  1  1  0  0  0
  1  5  1  0  0  0  0
  2  7  1  6  0  0  0
  2  1  1  0  0  0  0
  2  3  1  0  0  0  0
  3  4  1  0  0  0  0
  4  8  1  0  0  0  0
  4  9  1  0  0  0  0
  5 10  1  6  0  0  0
  5 29  1  0  0  0  0
  5  4  1  0  0  0  0
 11 14  1  1  0  0  0
 11 12  1  0  0  0  0
 12 15  1  1  0  0  0
 12  2  1  0  0  0  0
 13 11  1  0  0  0  0
 13 12  1  0  0  0  0
 16 13  1  0  0  0  0
 17 13  1  0  0  0  0
 18 11  1  0  0  0  0
 18 23  1  0  0  0  0
 19 18  2  0  0  0  0
 20 19  1  0  0  0  0
 20 21  2  0  0  0  0
 21 22  1  0  0  0  0
 22 23  2  0  0  0  0
 22 26  1  0  0  0  0
 24 19  1  0  0  0  0
 25 20  1  0  0  0  0
 27  1  1  0  0  0  0
 28 27  1  0  0  0  0
 29 31  1  0  0  0  0
 30 37  1  0  0  0  0
 30 39  1  0  0  0  0
 31 30  2  0  0  0  0
 32 34  2  0  0  0  0
 32 31  1  0  0  0  0
 33 32  1  0  0  0  0
 34 36  1  0  0  0  0
 35 34  1  0  0  0  0
 36 37  2  0  0  0  0
 39 38  2  0  0  0  0
 39 40  1  0  0  0  0
 40 43  1  0  0  0  0
 41 38  1  0  0  0  0
 42 40  1  0  0  0  0
M  END
>  <minimizedAffinity>
-5.95770264

$$$$

 OpenBabel03272508293D

 43 46  0  0  1  0  0  0  0  0999 V2000
   38.2450   24.6050   33.8030 C   0  0  2  0  0  0  0  0  0  0  0  0
   39.3070   25.6970   33.8480 C   0  0  2  0  0  0  0  0  0  0  0  0
   40.0800   25.4030   34.9400 O   0  0  0  0  0  0  0  0  0  0  0  0
   40.0000   24.0730   35.2500 C   0  0  0  0  0  0  0  0  0  0  0  0
   39.1120   23.4080   34.2130 C   0  0  1  0  0  0  0  0  0  0  0  0
   37.4730   24.7390   34.5660 H   0  0  0  0  0  0  0  0  0  0  0  0
   39.8760   25.6060   32.9020 H   0  0  0  0  0  0  0  0  0  0  0  0
   40.9910   23.5770   35.1380 H   0  0  0  0  0  0  0  0  0  0  0  0
   39.5390   23.9550   36.2360 H   0  0  0  0  0  0  0  0  0  0  0  0
   39.6780   23.1530   33.3000 H   0  0  0  0  0  0  0  0  0  0  0  0
   37.1640   27.1000   34.2310 C   0  0  1  0  0  0  0  0  0  0  0  0
   38.5880   27.0000   34.0160 C   0  0  1  0  0  0  0  0  0  0  0  0
   38.1360   27.4860   35.3550 C   0  0  0  0  0  0  0  0  0  0  0  0
   36.4680   26.3280   34.5940 H   0  0  0  0  0  0  0  0  0  0  0  0
   39.0280   27.7910   33.3400 H   0  0  0  0  0  0  0  0  0  0  0  0
   38.2770   28.5520   35.6010 H   0  0  0  0  0  0  0  0  0  0  0  0
   38.2360   26.8320   36.2320 H   0  0  0  0  0  0  0  0  0  0  0  0
   36.3850   28.3060   33.7280 C   0  0  0  0  0  0  0  0  0  0  0  0
   36.5510   28.6470   32.3700 C   0  0  0  0  0  0  0  0  0  0  0  0
   35.8390   29.7730   31.9700 C   0  0  0  0  0  0  0  0  0  0  0  0
   35.0540   30.4690   32.8490 N   0  0  0  0  0  0  0  0  0  0  0  0
   34.9380   30.0950   34.1320 C   0  0  0  0  0  0  0  0  0  0  0  0
   35.6020   29.0030   34.5970 N   0  0  0  0  0  0  0  0  0  0  0  0
   37.1770   28.0620   31.7370 H   0  0  0  0  0  0  0  0  0  0  0  0
   35.9740   30.0250   30.9270 H   0  0  0  0  0  0  0  0  0  0  0  0
   34.3020   30.6830   34.7800 H   0  0  0  0  0  0  0  0  0  0  0  0
   37.7060   24.4150   32.5480 O   0  0  0  0  0  0  0  0  0  0  0  0
   38.2510   24.8180   31.8300 H   0  0  0  0  0  0  0  0  0  0  0  0
   38.3710   22.3830   34.7100 O   0  0  0  0  0  0  0  0  0  0  0  0
   36.5090   21.1190   34.6730 C   0  0  0  0  0  0  0  0  0  0  0  0
   37.5780   21.5960   33.9010 C   0  0  0  0  0  0  0  0  0  0  0  0
   37.6220   21.2110   32.5790 C   0  0  0  0  0  0  0  0  0  0  0  0
   38.4830   21.6350   32.0880 H   0  0  0  0  0  0  0  0  0  0  0  0
   36.6540   20.3920   32.0480 C   0  0  0  0  0  0  0  0  0  0  0  0
   36.7830   20.1500   31.0020 H   0  0  0  0  0  0  0  0  0  0  0  0
   35.5950   19.9140   32.7900 C   0  0  0  0  0  3  0  0  0  0  0  0
   35.5300   20.2870   34.1160 C   0  0  0  0  0  3  0  0  0  0  0  0
   36.8420   22.2350   36.8830 N   0  0  0  0  0  0  0  0  0  0  0  0
   36.2380   21.3860   36.0990 C   0  0  0  0  0  0  0  0  0  0  0  0
   35.2430   20.7420   36.8730 N   0  0  0  0  0  0  0  0  0  0  0  0
   37.6290   22.8170   36.4710 H   0  0  0  0  0  0  0  0  0  0  0  0
   35.4540   19.8480   37.3960 H   0  0  0  0  0  0  0  0  0  0  0  0
   34.2490   20.9150   37.1000 H   0  0  0  0  0  0  0  0  0  0  0  0
  1  2  1  0  0  0  0
  1  5  1  0  0  0  0
  1  6  1  1  0  0  0
  2  7  1  6  0  0  0
  2 12  1  0  0  0  0
  2  3  1  0  0  0  0
  3  4  1  0  0  0  0
  4  9  1  0  0  0  0
  5 10  1  6  0  0  0
  5 29  1  0  0  0  0
  5  4  1  0  0  0  0
  8  4  1  0  0  0  0
 11 14  1  1  0  0  0
 11 13  1  0  0  0  0
 12 15  1  6  0  0  0
 12 11  1  0  0  0  0
 12 13  1  0  0  0  0
 13 16  1  0  0  0  0
 13 17  1  0  0  0  0
 18 11  1  0  0  0  0
 18 23  1  0  0  0  0
 19 18  2  0  0  0  0
 20 19  1  0  0  0  0
 20 21  2  0  0  0  0
 21 22  1  0  0  0  0
 22 23  2  0  0  0  0
 22 26  1  0  0  0  0
 24 19  1  0  0  0  0
 25 20  1  0  0  0  0
 27  1  1  0  0  0  0
 28 27  1  0  0  0  0
 30 39  1  0  0  0  0
 31 30  2  0  0  0  0
 31 29  1  0  0  0  0
 32 31  1  0  0  0  0
 33 32  1  0  0  0  0
 34 32  2  0  0  0  0
 34 36  1  0  0  0  0
 35 34  1  0  0  0  0
 36 37  2  0  0  0  0
 37 30  1  0  0  0  0
 39 40  1  0  0  0  0
 39 38  2  0  0  0  0
 40 43  1  0  0  0  0
 40 42  1  0  0  0  0
 41 38  1  0  0  0  0
M  END
>  <minimizedAffinity>
-5.7334094

$$$$

 OpenBabel03272508293D

 43 46  0  0  1  0  0  0  0  0999 V2000
   36.2160   24.9290   31.8360 C   0  0  2  0  0  0  0  0  0  0  0  0
   37.1900   26.0420   31.4660 C   0  0  2  0  0  0  0  0  0  0  0  0
   38.2360   25.9090   32.3400 O   0  0  0  0  0  0  0  0  0  0  0  0
   38.3150   24.6290   32.8170 C   0  0  0  0  0  0  0  0  0  0  0  0
   37.2250   23.8160   32.1410 C   0  0  1  0  0  0  0  0  0  0  0  0
   35.6630   25.1440   32.7550 H   0  0  0  0  0  0  0  0  0  0  0  0
   37.4960   25.8410   30.4210 H   0  0  0  0  0  0  0  0  0  0  0  0
   39.2680   24.1460   32.5060 H   0  0  0  0  0  0  0  0  0  0  0  0
   38.1340   24.6310   33.8970 H   0  0  0  0  0  0  0  0  0  0  0  0
   37.5470   23.4560   31.1480 H   0  0  0  0  0  0  0  0  0  0  0  0
   36.5870   28.1420   32.8560 C   0  0  1  0  0  0  0  0  0  0  0  0
   36.4680   27.3390   31.6620 C   0  0  1  0  0  0  0  0  0  0  0  0
   37.1590   28.6560   31.5260 C   0  0  0  0  0  0  0  0  0  0  0  0
   37.3810   28.1270   33.6170 H   0  0  0  0  0  0  0  0  0  0  0  0
   35.4300   27.2910   31.2170 H   0  0  0  0  0  0  0  0  0  0  0  0
   36.6370   29.4700   30.9960 H   0  0  0  0  0  0  0  0  0  0  0  0
   38.2470   28.6860   31.3810 H   0  0  0  0  0  0  0  0  0  0  0  0
   35.4260   29.0010   33.3330 C   0  0  0  0  0  0  0  0  0  0  0  0
   35.6530   29.7980   34.4730 C   0  0  0  0  0  0  0  0  0  0  0  0
   34.5510   30.5410   34.8830 C   0  0  0  0  0  0  0  0  0  0  0  0
   33.3600   30.4780   34.2120 N   0  0  0  0  0  0  0  0  0  0  0  0
   33.2050   29.6990   33.1310 C   0  0  0  0  0  0  0  0  0  0  0  0
   34.2380   28.9430   32.6690 N   0  0  0  0  0  0  0  0  0  0  0  0
   36.6050   29.8020   34.9500 H   0  0  0  0  0  0  0  0  0  0  0  0
   34.7370   31.1480   35.7590 H   0  0  0  0  0  0  0  0  0  0  0  0
   32.2410   29.6910   32.6410 H   0  0  0  0  0  0  0  0  0  0  0  0
   35.3790   24.5650   30.8010 O   0  0  0  0  0  0  0  0  0  0  0  0
   35.6950   24.8830   29.9210 H   0  0  0  0  0  0  0  0  0  0  0  0
   36.6990   22.8480   32.9360 O   0  0  0  0  0  0  0  0  0  0  0  0
   36.0340   20.7750   33.5090 C   0  0  0  0  0  0  0  0  0  0  0  0
   36.2770   21.6360   32.4290 C   0  0  0  0  0  0  0  0  0  0  0  0
   36.0640   21.1350   31.1630 C   0  0  0  0  0  0  0  0  0  0  0  0
   36.2840   21.8820   30.4170 H   0  0  0  0  0  0  0  0  0  0  0  0
   35.6300   19.8440   30.9770 C   0  0  0  0  0  0  0  0  0  0  0  0
   35.4950   19.5530   29.9450 H   0  0  0  0  0  0  0  0  0  0  0  0
   35.3840   18.9840   32.0250 C   0  0  0  0  0  3  0  0  0  0  0  0
   35.5900   19.4630   33.3010 C   0  0  0  0  0  3  0  0  0  0  0  0
   35.4000   20.7080   35.9240 N   0  0  0  0  0  0  0  0  0  0  0  0
   36.1850   21.0690   34.9480 C   0  0  0  0  0  0  0  0  0  0  0  0
   37.2420   21.8160   35.5190 N   0  0  0  0  0  0  0  0  0  0  0  0
   34.5410   20.1330   35.6830 H   0  0  0  0  0  0  0  0  0  0  0  0
   37.1730   22.8650   35.6250 H   0  0  0  0  0  0  0  0  0  0  0  0
   38.1770   21.6040   35.9090 H   0  0  0  0  0  0  0  0  0  0  0  0
  1  5  1  0  0  0  0
  1  6  1  1  0  0  0
  2  7  1  6  0  0  0
  2 12  1  0  0  0  0
  2  1  1  0  0  0  0
  2  3  1  0  0  0  0
  3  4  1  0  0  0  0
  4  9  1  0  0  0  0
  5 10  1  6  0  0  0
  5  4  1  0  0  0  0
  5 29  1  0  0  0  0
  8  4  1  0  0  0  0
 11 18  1  0  0  0  0
 11 14  1  1  0  0  0
 12 15  1  6  0  0  0
 12 11  1  0  0  0  0
 13 12  1  0  0  0  0
 13 11  1  0  0  0  0
 16 13  1  0  0  0  0
 17 13  1  0  0  0  0
 18 19  1  0  0  0  0
 19 20  2  0  0  0  0
 19 24  1  0  0  0  0
 20 25  1  0  0  0  0
 21 20  1  0  0  0  0
 22 21  2  0  0  0  0
 23 22  1  0  0  0  0
 23 18  2  0  0  0  0
 26 22  1  0  0  0  0
 27  1  1  0  0  0  0
 28 27  1  0  0  0  0
 30 39  1  0  0  0  0
 31 29  1  0  0  0  0
 31 30  2  0  0  0  0
 32 31  1  0  0  0  0
 33 32  1  0  0  0  0
 34 32  2  0  0  0  0
 34 36  1  0  0  0  0
 35 34  1  0  0  0  0
 36 37  2  0  0  0  0
 37 30  1  0  0  0  0
 39 40  1  0  0  0  0
 39 38  2  0  0  0  0
 40 42  1  0  0  0  0
 40 43  1  0  0  0  0
 41 38  1  0  0  0  0
M  END
>  <minimizedAffinity>
-5.7181139

$$$$

 OpenBabel03272508293D

 43 46  0  0  1  0  0  0  0  0999 V2000
   38.8600   23.7880   33.0970 C   0  0  2  0  0  0  0  0  0  0  0  0
   37.8280   24.3460   32.1240 C   0  0  2  0  0  0  0  0  0  0  0  0
   37.0360   25.1720   32.8760 O   0  0  0  0  0  0  0  0  0  0  0  0
   37.7040   25.6120   33.9860 C   0  0  0  0  0  0  0  0  0  0  0  0
   39.1130   25.0490   33.9310 C   0  0  1  0  0  0  0  0  0  0  0  0
   38.4430   23.0230   33.7590 H   0  0  0  0  0  0  0  0  0  0  0  0
   38.4030   24.9060   31.3610 H   0  0  0  0  0  0  0  0  0  0  0  0
   37.8360   26.7170   33.9600 H   0  0  0  0  0  0  0  0  0  0  0  0
   37.2070   25.2320   34.8840 H   0  0  0  0  0  0  0  0  0  0  0  0
   39.7720   25.6700   33.3000 H   0  0  0  0  0  0  0  0  0  0  0  0
   36.3620   22.2320   32.4280 C   0  0  1  0  0  0  0  0  0  0  0  0
   37.0560   23.1800   31.5880 C   0  0  1  0  0  0  0  0  0  0  0  0
   35.5640   23.1820   31.5230 C   0  0  0  0  0  0  0  0  0  0  0  0
   36.0330   22.3520   33.4710 H   0  0  0  0  0  0  0  0  0  0  0  0
   37.5770   22.7340   30.6890 H   0  0  0  0  0  0  0  0  0  0  0  0
   35.0770   22.7810   30.6190 H   0  0  0  0  0  0  0  0  0  0  0  0
   35.0030   24.0130   31.9730 H   0  0  0  0  0  0  0  0  0  0  0  0
   36.2010   20.7830   31.9940 C   0  0  0  0  0  0  0  0  0  0  0  0
   35.3750   19.9690   32.7960 C   0  0  0  0  0  0  0  0  0  0  0  0
   35.2860   18.6470   32.3710 C   0  0  0  0  0  0  0  0  0  0  0  0
   35.9580   18.2080   31.2630 N   0  0  0  0  0  0  0  0  0  0  0  0
   36.7310   19.0330   30.5400 C   0  0  0  0  0  0  0  0  0  0  0  0
   36.8680   20.3390   30.8930 N   0  0  0  0  0  0  0  0  0  0  0  0
   34.8780   20.3730   33.6470 H   0  0  0  0  0  0  0  0  0  0  0  0
   34.6500   18.0330   32.9940 H   0  0  0  0  0  0  0  0  0  0  0  0
   37.2380   18.6290   29.6740 H   0  0  0  0  0  0  0  0  0  0  0  0
   40.0210   23.3630   32.4830 O   0  0  0  0  0  0  0  0  0  0  0  0
   40.1180   23.7110   31.5630 H   0  0  0  0  0  0  0  0  0  0  0  0
   39.6300   24.7610   35.1540 O   0  0  0  0  0  0  0  0  0  0  0  0
   41.0770   23.3910   36.2010 C   0  0  0  0  0  0  0  0  0  0  0  0
   40.9700   24.4880   35.3350 C   0  0  0  0  0  0  0  0  0  0  0  0
   42.1430   25.0390   34.8690 C   0  0  0  0  0  0  0  0  0  0  0  0
   41.9390   25.8720   34.2150 H   0  0  0  0  0  0  0  0  0  0  0  0
   43.3640   24.5280   35.2420 C   0  0  0  0  0  0  0  0  0  0  0  0
   44.2200   25.0340   34.8200 H   0  0  0  0  0  0  0  0  0  0  0  0
   43.4880   23.4500   36.0920 C   0  0  0  0  0  3  0  0  0  0  0  0
   42.3280   22.8810   36.5710 C   0  0  0  0  0  3  0  0  0  0  0  0
   39.0280   21.9620   36.2410 N   0  0  0  0  0  0  0  0  0  0  0  0
   39.9800   22.6290   36.8310 C   0  0  0  0  0  0  0  0  0  0  0  0
   39.7770   22.4960   38.2250 N   0  0  0  0  0  0  0  0  0  0  0  0
   39.0170   21.9480   35.1790 H   0  0  0  0  0  0  0  0  0  0  0  0
   39.1900   23.1930   38.7600 H   0  0  0  0  0  0  0  0  0  0  0  0
   40.0770   21.8330   38.9600 H   0  0  0  0  0  0  0  0  0  0  0  0
  1  6  1  1  0  0  0
  1  5  1  0  0  0  0
  2  7  1  6  0  0  0
  2  3  1  0  0  0  0
  2  1  1  0  0  0  0
  3  4  1  0  0  0  0
  4  9  1  0  0  0  0
  5 10  1  6  0  0  0
  5  4  1  0  0  0  0
  5 29  1  0  0  0  0
  8  4  1  0  0  0  0
 11 14  1  1  0  0  0
 12 15  1  6  0  0  0
 12  2  1  0  0  0  0
 12 11  1  0  0  0  0
 13 12  1  0  0  0  0
 13 17  1  0  0  0  0
 13 11  1  0  0  0  0
 16 13  1  0  0  0  0
 18 11  1  0  0  0  0
 18 19  1  0  0  0  0
 19 24  1  0  0  0  0
 20 19  2  0  0  0  0
 20 25  1  0  0  0  0
 21 20  1  0  0  0  0
 22 23  1  0  0  0  0
 22 21  2  0  0  0  0
 23 18  2  0  0  0  0
 26 22  1  0  0  0  0
 27  1  1  0  0  0  0
 28 27  1  0  0  0  0
 29 31  1  0  0  0  0
 30 37  1  0  0  0  0
 30 39  1  0  0  0  0
 31 30  2  0  0  0  0
 32 34  2  0  0  0  0
 32 31  1  0  0  0  0
 33 32  1  0  0  0  0
 34 36  1  0  0  0  0
 35 34  1  0  0  0  0
 36 37  2  0  0  0  0
 38 39  2  0  0  0  0
 39 40  1  0  0  0  0
 40 42  1  0  0  0  0
 40 43  1  0  0  0  0
 41 38  1  0  0  0  0
M  END
>  <minimizedAffinity>
-5.65234041

$$$$

 OpenBabel03272508293D

 43 46  0  0  1  0  0  0  0  0999 V2000
   38.5120   25.1530   34.1860 C   0  0  2  0  0  0  0  0  0  0  0  0
   38.5300   26.1140   33.0030 C   0  0  2  0  0  0  0  0  0  0  0  0
   39.5290   27.0070   33.2800 O   0  0  0  0  0  0  0  0  0  0  0  0
   40.4440   26.4660   34.1420 C   0  0  0  0  0  0  0  0  0  0  0  0
   40.0220   25.0340   34.4240 C   0  0  1  0  0  0  0  0  0  0  0  0
   38.0640   25.5970   35.0800 H   0  0  0  0  0  0  0  0  0  0  0  0
   38.7630   25.4950   32.1140 H   0  0  0  0  0  0  0  0  0  0  0  0
   41.4440   26.3800   33.6600 H   0  0  0  0  0  0  0  0  0  0  0  0
   40.4360   27.0270   35.0820 H   0  0  0  0  0  0  0  0  0  0  0  0
   40.3720   24.3470   33.6340 H   0  0  0  0  0  0  0  0  0  0  0  0
   36.9270   27.9880   32.2130 C   0  0  1  0  0  0  0  0  0  0  0  0
   37.1890   26.7800   32.9600 C   0  0  1  0  0  0  0  0  0  0  0  0
   36.2860   26.6630   31.7760 C   0  0  0  0  0  0  0  0  0  0  0  0
   37.4980   28.4160   31.3760 H   0  0  0  0  0  0  0  0  0  0  0  0
   36.6770   26.7160   33.9650 H   0  0  0  0  0  0  0  0  0  0  0  0
   35.2090   26.5020   31.9510 H   0  0  0  0  0  0  0  0  0  0  0  0
   36.6460   26.1630   30.8660 H   0  0  0  0  0  0  0  0  0  0  0  0
   35.8800   28.9830   32.6900 C   0  0  0  0  0  0  0  0  0  0  0  0
   35.6910   29.0870   34.0830 C   0  0  0  0  0  0  0  0  0  0  0  0
   34.7030   29.9890   34.4630 C   0  0  0  0  0  0  0  0  0  0  0  0
   33.9910   30.6990   33.5340 N   0  0  0  0  0  0  0  0  0  0  0  0
   34.2170   30.5560   32.2190 C   0  0  0  0  0  0  0  0  0  0  0  0
   35.1680   29.6930   31.7710 N   0  0  0  0  0  0  0  0  0  0  0  0
   36.2790   28.5060   34.7540 H   0  0  0  0  0  0  0  0  0  0  0  0
   34.5670   30.0610   35.5330 H   0  0  0  0  0  0  0  0  0  0  0  0
   33.6240   31.1440   31.5320 H   0  0  0  0  0  0  0  0  0  0  0  0
   37.9630   23.9230   33.8880 O   0  0  0  0  0  0  0  0  0  0  0  0
   37.9010   23.7560   32.9160 H   0  0  0  0  0  0  0  0  0  0  0  0
   40.3130   24.6220   35.6860 O   0  0  0  0  0  0  0  0  0  0  0  0
   40.6660   22.6980   36.8000 C   0  0  0  0  0  0  0  0  0  0  0  0
   41.2460   23.6370   35.9350 C   0  0  0  0  0  0  0  0  0  0  0  0
   42.5440   23.4080   35.5340 C   0  0  0  0  0  0  0  0  0  0  0  0
   42.8830   24.1910   34.8750 H   0  0  0  0  0  0  0  0  0  0  0  0
   43.2340   22.3010   35.9690 C   0  0  0  0  0  0  0  0  0  0  0  0
   44.2440   22.2160   35.5940 H   0  0  0  0  0  0  0  0  0  0  0  0
   42.6800   21.3670   36.8180 C   0  0  0  0  0  3  0  0  0  0  0  0
   41.3830   21.5750   37.2330 C   0  0  0  0  0  3  0  0  0  0  0  0
   38.1720   22.5790   36.7340 N   0  0  0  0  0  0  0  0  0  0  0  0
   39.3030   22.7170   37.3670 C   0  0  0  0  0  0  0  0  0  0  0  0
   38.9940   22.8920   38.7370 N   0  0  0  0  0  0  0  0  0  0  0  0
   38.2060   22.4350   35.6830 H   0  0  0  0  0  0  0  0  0  0  0  0
   38.8460   23.8570   39.1430 H   0  0  0  0  0  0  0  0  0  0  0  0
   38.8570   22.2740   39.5540 H   0  0  0  0  0  0  0  0  0  0  0  0
  1  5  1  0  0  0  0
  1  6  1  1  0  0  0
  2  7  1  6  0  0  0
  2  3  1  0  0  0  0
  2  1  1  0  0  0  0
  3  4  1  0  0  0  0
  4  5  1  0  0  0  0
  4  9  1  0  0  0  0
  5 10  1  6  0  0  0
  5 29  1  0  0  0  0
  8  4  1  0  0  0  0
 11 14  1  6  0  0  0
 11 18  1  0  0  0  0
 11 12  1  0  0  0  0
 12  2  1  0  0  0  0
 12 15  1  1  0  0  0
 13 16  1  0  0  0  0
 13 11  1  0  0  0  0
 13 12  1  0  0  0  0
 17 13  1  0  0  0  0
 18 19  1  0  0  0  0
 19 20  2  0  0  0  0
 19 24  1  0  0  0  0
 20 25  1  0  0  0  0
 21 20  1  0  0  0  0
 22 21  2  0  0  0  0
 23 22  1  0  0  0  0
 23 18  2  0  0  0  0
 26 22  1  0  0  0  0
 27  1  1  0  0  0  0
 28 27  1  0  0  0  0
 29 31  1  0  0  0  0
 30 37  1  0  0  0  0
 30 39  1  0  0  0  0
 31 30  2  0  0  0  0
 32 31  1  0  0  0  0
 32 34  2  0  0  0  0
 33 32  1  0  0  0  0
 34 36  1  0  0  0  0
 35 34  1  0  0  0  0
 36 37  2  0  0  0  0
 38 39  2  0  0  0  0
 39 40  1  0  0  0  0
 40 42  1  0  0  0  0
 40 43  1  0  0  0  0
 41 38  1  0  0  0  0
M  END
>  <minimizedAffinity>
-5.63363981

$$$$

 OpenBabel03272508293D

 43 46  0  0  1  0  0  0  0  0999 V2000
   37.3110   27.5810   34.1330 C   0  0  2  0  0  0  0  0  0  0  0  0
   36.2980   27.8550   33.0280 C   0  0  2  0  0  0  0  0  0  0  0  0
   37.0450   28.2040   31.9340 O   0  0  0  0  0  0  0  0  0  0  0  0
   38.3130   27.6960   32.0260 C   0  0  0  0  0  0  0  0  0  0  0  0
   38.3910   26.8780   33.3030 C   0  0  1  0  0  0  0  0  0  0  0  0
   37.7440   28.4990   34.5420 H   0  0  0  0  0  0  0  0  0  0  0  0
   35.7560   26.9030   32.8710 H   0  0  0  0  0  0  0  0  0  0  0  0
   38.5110   26.9680   31.2070 H   0  0  0  0  0  0  0  0  0  0  0  0
   39.0310   28.5180   32.0900 H   0  0  0  0  0  0  0  0  0  0  0  0
   38.0020   25.8560   33.1530 H   0  0  0  0  0  0  0  0  0  0  0  0
   35.9230   30.0640   34.3270 C   0  0  1  0  0  0  0  0  0  0  0  0
   35.4380   28.9900   33.4930 C   0  0  1  0  0  0  0  0  0  0  0  0
   35.5170   30.3460   32.8730 C   0  0  0  0  0  0  0  0  0  0  0  0
   36.9600   30.3920   34.4900 H   0  0  0  0  0  0  0  0  0  0  0  0
   34.3940   28.6290   33.7330 H   0  0  0  0  0  0  0  0  0  0  0  0
   34.5770   30.8870   32.6720 H   0  0  0  0  0  0  0  0  0  0  0  0
   36.2940   30.5570   32.1260 H   0  0  0  0  0  0  0  0  0  0  0  0
   34.9960   30.7620   35.3100 C   0  0  0  0  0  0  0  0  0  0  0  0
   35.5750   31.7410   36.1420 C   0  0  0  0  0  0  0  0  0  0  0  0
   34.6900   32.3270   37.0410 C   0  0  0  0  0  0  0  0  0  0  0  0
   33.3730   31.9580   37.0870 N   0  0  0  0  0  0  0  0  0  0  0  0
   32.8800   31.0170   36.2680 C   0  0  0  0  0  0  0  0  0  0  0  0
   33.6840   30.3990   35.3610 N   0  0  0  0  0  0  0  0  0  0  0  0
   36.6080   31.9830   36.0560 H   0  0  0  0  0  0  0  0  0  0  0  0
   35.1450   33.0770   37.6740 H   0  0  0  0  0  0  0  0  0  0  0  0
   31.8310   30.7670   36.3500 H   0  0  0  0  0  0  0  0  0  0  0  0
   36.8320   26.7490   35.1240 O   0  0  0  0  0  0  0  0  0  0  0  0
   36.0200   26.2560   34.8520 H   0  0  0  0  0  0  0  0  0  0  0  0
   39.6100   26.9230   33.9020 O   0  0  0  0  0  0  0  0  0  0  0  0
   41.5650   25.9580   34.4630 C   0  0  0  0  0  0  0  0  0  0  0  0
   40.1700   25.8140   34.5020 C   0  0  0  0  0  0  0  0  0  0  0  0
   39.6700   24.6730   35.0900 C   0  0  0  0  0  0  0  0  0  0  0  0
   38.5930   24.6710   35.0610 H   0  0  0  0  0  0  0  0  0  0  0  0
   40.5110   23.7200   35.6140 C   0  0  0  0  0  0  0  0  0  0  0  0
   40.0160   22.8650   36.0510 H   0  0  0  0  0  0  0  0  0  0  0  0
   41.8840   23.8440   35.5860 C   0  0  0  0  0  3  0  0  0  0  0  0
   42.4080   24.9780   35.0030 C   0  0  0  0  0  3  0  0  0  0  0  0
   42.0210   27.8420   32.8880 N   0  0  0  0  0  0  0  0  0  0  0  0
   42.3400   27.0780   33.8950 C   0  0  0  0  0  0  0  0  0  0  0  0
   43.5990   27.5200   34.3680 N   0  0  0  0  0  0  0  0  0  0  0  0
   41.0970   27.6570   32.3990 H   0  0  0  0  0  0  0  0  0  0  0  0
   44.4970   27.1090   33.9910 H   0  0  0  0  0  0  0  0  0  0  0  0
   43.9320   28.2110   35.0610 H   0  0  0  0  0  0  0  0  0  0  0  0
  1  6  1  1  0  0  0
  1 27  1  0  0  0  0
  2  7  1  6  0  0  0
  2 12  1  0  0  0  0
  2  1  1  0  0  0  0
  3  4  1  0  0  0  0
  3  2  1  0  0  0  0
  4  9  1  0  0  0  0
  4  5  1  0  0  0  0
  5 10  1  6  0  0  0
  5 29  1  0  0  0  0
  5  1  1  0  0  0  0
  8  4  1  0  0  0  0
 11 14  1  1  0  0  0
 11 18  1  0  0  0  0
 12 15  1  1  0  0  0
 12 11  1  0  0  0  0
 13 12  1  0  0  0  0
 13 11  1  0  0  0  0
 16 13  1  0  0  0  0
 17 13  1  0  0  0  0
 18 23  2  0  0  0  0
 18 19  1  0  0  0  0
 19 20  2  0  0  0  0
 20 21  1  0  0  0  0
 20 25  1  0  0  0  0
 22 26  1  0  0  0  0
 22 21  2  0  0  0  0
 23 22  1  0  0  0  0
 24 19  1  0  0  0  0
 28 27  1  0  0  0  0
 29 31  1  0  0  0  0
 30 31  2  0  0  0  0
 30 37  1  0  0  0  0
 31 32  1  0  0  0  0
 32 34  2  0  0  0  0
 33 32  1  0  0  0  0
 34 35  1  0  0  0  0
 36 34  1  0  0  0  0
 37 36  2  0  0  0  0
 38 39  2  0  0  0  0
 39 40  1  0  0  0  0
 39 30  1  0  0  0  0
 40 43  1  0  0  0  0
 41 38  1  0  0  0  0
 42 40  1  0  0  0  0
M  END
>  <minimizedAffinity>
-5.57822084

$$$$

 OpenBabel03272508293D

 43 46  0  0  1  0  0  0  0  0999 V2000
   36.0820   25.8810   30.8040 C   0  0  2  0  0  0  0  0  0  0  0  0
   36.2730   25.3050   32.2020 C   0  0  2  0  0  0  0  0  0  0  0  0
   37.2890   26.0360   32.7560 O   0  0  0  0  0  0  0  0  0  0  0  0
   37.3920   27.2620   32.1560 C   0  0  0  0  0  0  0  0  0  0  0  0
   36.2830   27.3660   31.1240 C   0  0  1  0  0  0  0  0  0  0  0  0
   36.8730   25.5740   30.1120 H   0  0  0  0  0  0  0  0  0  0  0  0
   35.3120   25.4650   32.7290 H   0  0  0  0  0  0  0  0  0  0  0  0
   37.1830   28.0800   32.8830 H   0  0  0  0  0  0  0  0  0  0  0  0
   38.3570   27.3390   31.6460 H   0  0  0  0  0  0  0  0  0  0  0  0
   35.3300   27.6800   31.5840 H   0  0  0  0  0  0  0  0  0  0  0  0
   35.9160   22.9380   31.2130 C   0  0  1  0  0  0  0  0  0  0  0  0
   36.6560   23.8660   32.0350 C   0  0  1  0  0  0  0  0  0  0  0  0
   37.3310   23.3670   30.8000 C   0  0  0  0  0  0  0  0  0  0  0  0
   35.2120   23.1540   30.3960 H   0  0  0  0  0  0  0  0  0  0  0  0
   37.0490   23.4410   33.0050 H   0  0  0  0  0  0  0  0  0  0  0  0
   38.1640   22.6520   30.9090 H   0  0  0  0  0  0  0  0  0  0  0  0
   37.4630   24.0420   29.9430 H   0  0  0  0  0  0  0  0  0  0  0  0
   35.8630   21.4600   31.5670 C   0  0  0  0  0  0  0  0  0  0  0  0
   35.5110   21.1380   32.8940 C   0  0  0  0  0  0  0  0  0  0  0  0
   35.5060   19.7740   33.1710 C   0  0  0  0  0  0  0  0  0  0  0  0
   35.8220   18.8510   32.2120 N   0  0  0  0  0  0  0  0  0  0  0  0
   36.1500   19.2210   30.9650 C   0  0  0  0  0  0  0  0  0  0  0  0
   36.1770   20.5350   30.6180 N   0  0  0  0  0  0  0  0  0  0  0  0
   35.2750   21.9050   33.5930 H   0  0  0  0  0  0  0  0  0  0  0  0
   35.2340   19.5390   34.1910 H   0  0  0  0  0  0  0  0  0  0  0  0
   36.3900   18.4460   30.2490 H   0  0  0  0  0  0  0  0  0  0  0  0
   34.8240   25.6550   30.2840 O   0  0  0  0  0  0  0  0  0  0  0  0
   34.1660   25.3910   30.9710 H   0  0  0  0  0  0  0  0  0  0  0  0
   36.6310   28.0860   30.0250 O   0  0  0  0  0  0  0  0  0  0  0  0
   37.9620   29.7050   29.2060 C   0  0  0  0  0  0  0  0  0  0  0  0
   36.9130   29.4350   30.0950 C   0  0  0  0  0  0  0  0  0  0  0  0
   36.4070   30.4950   30.8150 C   0  0  0  0  0  0  0  0  0  0  0  0
   35.6100   30.1690   31.4630 H   0  0  0  0  0  0  0  0  0  0  0  0
   36.9160   31.7630   30.6600 C   0  0  0  0  0  0  0  0  0  0  0  0
   36.4480   32.5210   31.2720 H   0  0  0  0  0  0  0  0  0  0  0  0
   37.9470   32.0480   29.7900 C   0  0  0  0  0  3  0  0  0  0  0  0
   38.4690   31.0030   29.0580 C   0  0  0  0  0  3  0  0  0  0  0  0
   39.1310   28.9610   27.1270 N   0  0  0  0  0  0  0  0  0  0  0  0
   38.6690   28.7510   28.3280 C   0  0  0  0  0  0  0  0  0  0  0  0
   38.9690   27.4090   28.6600 N   0  0  0  0  0  0  0  0  0  0  0  0
   38.9960   29.9260   26.7050 H   0  0  0  0  0  0  0  0  0  0  0  0
   38.2880   26.6290   28.4460 H   0  0  0  0  0  0  0  0  0  0  0  0
   39.7580   26.9110   29.1070 H   0  0  0  0  0  0  0  0  0  0  0  0
  1  6  1  6  0  0  0
  1  5  1  0  0  0  0
  1  2  1  0  0  0  0
  2  7  1  1  0  0  0
  2  3  1  0  0  0  0
  4  3  1  0  0  0  0
  4  8  1  0  0  0  0
  5 10  1  1  0  0  0
  5  4  1  0  0  0  0
  9  4  1  0  0  0  0
 11 14  1  6  0  0  0
 11 18  1  0  0  0  0
 11 12  1  0  0  0  0
 12  2  1  0  0  0  0
 12 15  1  1  0  0  0
 13 16  1  0  0  0  0
 13 11  1  0  0  0  0
 13 12  1  0  0  0  0
 17 13  1  0  0  0  0
 18 19  1  0  0  0  0
 19 20  2  0  0  0  0
 19 24  1  0  0  0  0
 20 25  1  0  0  0  0
 21 20  1  0  0  0  0
 22 21  2  0  0  0  0
 23 22  1  0  0  0  0
 23 18  2  0  0  0  0
 26 22  1  0  0  0  0
 27  1  1  0  0  0  0
 27 28  1  0  0  0  0
 29 31  1  0  0  0  0
 29  5  1  0  0  0  0
 30 31  1  0  0  0  0
 31 32  2  0  0  0  0
 32 33  1  0  0  0  0
 34 32  1  0  0  0  0
 34 35  1  0  0  0  0
 36 34  2  0  0  0  0
 37 30  2  0  0  0  0
 37 36  1  0  0  0  0
 38 39  2  0  0  0  0
 39 40  1  0  0  0  0
 39 30  1  0  0  0  0
 40 43  1  0  0  0  0
 41 38  1  0  0  0  0
 42 40  1  0  0  0  0
M  END
>  <minimizedAffinity>
-5.53559828

$$$$

 OpenBabel03272508293D

 43 46  0  0  1  0  0  0  0  0999 V2000
   39.5370   26.5640   34.6420 C   0  0  2  0  0  0  0  0  0  0  0  0
   41.0070   26.4870   34.2450 C   0  0  2  0  0  0  0  0  0  0  0  0
   41.0060   26.0390   32.9510 O   0  0  0  0  0  0  0  0  0  0  0  0
   39.8170   26.3250   32.3360 C   0  0  0  0  0  0  0  0  0  0  0  0
   38.9570   27.0920   33.3260 C   0  0  1  0  0  0  0  0  0  0  0  0
   39.1010   25.5780   34.8320 H   0  0  0  0  0  0  0  0  0  0  0  0
   41.3960   27.5200   34.3250 H   0  0  0  0  0  0  0  0  0  0  0  0
   39.9670   27.0250   31.4840 H   0  0  0  0  0  0  0  0  0  0  0  0
   39.3080   25.3910   32.0760 H   0  0  0  0  0  0  0  0  0  0  0  0
   39.2050   28.1670   33.3270 H   0  0  0  0  0  0  0  0  0  0  0  0
   42.1430   24.2130   34.7410 C   0  0  1  0  0  0  0  0  0  0  0  0
   41.6590   25.5050   35.1680 C   0  0  1  0  0  0  0  0  0  0  0  0
   43.1380   25.2960   35.1820 C   0  0  0  0  0  0  0  0  0  0  0  0
   42.3920   23.8750   33.7240 H   0  0  0  0  0  0  0  0  0  0  0  0
   41.1650   25.5200   36.1850 H   0  0  0  0  0  0  0  0  0  0  0  0
   43.6450   25.1960   36.1560 H   0  0  0  0  0  0  0  0  0  0  0  0
   43.7640   25.7940   34.4280 H   0  0  0  0  0  0  0  0  0  0  0  0
   42.1460   23.0300   35.6970 C   0  0  0  0  0  0  0  0  0  0  0  0
   43.1910   22.0970   35.5480 C   0  0  0  0  0  0  0  0  0  0  0  0
   43.1300   21.0210   36.4280 C   0  0  0  0  0  0  0  0  0  0  0  0
   42.1230   20.9100   37.3490 N   0  0  0  0  0  0  0  0  0  0  0  0
   41.1540   21.8330   37.4410 C   0  0  0  0  0  0  0  0  0  0  0  0
   41.1470   22.9140   36.6150 N   0  0  0  0  0  0  0  0  0  0  0  0
   43.9460   22.2420   34.8110 H   0  0  0  0  0  0  0  0  0  0  0  0
   43.9370   20.3110   36.3050 H   0  0  0  0  0  0  0  0  0  0  0  0
   40.3850   21.6920   38.1890 H   0  0  0  0  0  0  0  0  0  0  0  0
   39.2930   27.4450   35.6760 O   0  0  0  0  0  0  0  0  0  0  0  0
   40.0390   28.0730   35.8300 H   0  0  0  0  0  0  0  0  0  0  0  0
   37.6290   26.8300   33.2070 O   0  0  0  0  0  0  0  0  0  0  0  0
   36.0450   28.0310   32.1510 C   0  0  0  0  0  0  0  0  0  0  0  0
   36.6730   27.8080   33.3850 C   0  0  0  0  0  0  0  0  0  0  0  0
   36.2420   28.5590   34.4560 C   0  0  0  0  0  0  0  0  0  0  0  0
   36.7940   28.3040   35.3460 H   0  0  0  0  0  0  0  0  0  0  0  0
   35.2370   29.4860   34.3120 C   0  0  0  0  0  0  0  0  0  0  0  0
   34.9760   30.0200   35.2140 H   0  0  0  0  0  0  0  0  0  0  0  0
   34.6070   29.7180   33.1080 C   0  0  0  0  0  3  0  0  0  0  0  0
   35.0220   28.9780   32.0210 C   0  0  0  0  0  3  0  0  0  0  0  0
   36.6330   27.9140   29.7260 N   0  0  0  0  0  0  0  0  0  0  0  0
   36.3220   27.3610   30.8640 C   0  0  0  0  0  0  0  0  0  0  0  0
   36.2930   25.9620   30.6530 N   0  0  0  0  0  0  0  0  0  0  0  0
   36.7030   28.9730   29.6910 H   0  0  0  0  0  0  0  0  0  0  0  0
   35.4010   25.4730   30.3660 H   0  0  0  0  0  0  0  0  0  0  0  0
   36.9760   25.1870   30.7060 H   0  0  0  0  0  0  0  0  0  0  0  0
  1  6  1  1  0  0  0
  1 27  1  0  0  0  0
  2  7  1  1  0  0  0
  2  1  1  0  0  0  0
  2 12  1  0  0  0  0
  3  2  1  0  0  0  0
  4  3  1  0  0  0  0
  4  5  1  0  0  0  0
  5 10  1  6  0  0  0
  5  1  1  0  0  0  0
  8  4  1  0  0  0  0
  9  4  1  0  0  0  0
 11 14  1  6  0  0  0
 11 12  1  0  0  0  0
 11 13  1  0  0  0  0
 11 18  1  0  0  0  0
 12 13  1  0  0  0  0
 12 15  1  1  0  0  0
 13 16  1  0  0  0  0
 17 13  1  0  0  0  0
 18 23  1  0  0  0  0
 19 18  2  0  0  0  0
 19 20  1  0  0  0  0
 20 21  2  0  0  0  0
 21 22  1  0  0  0  0
 22 26  1  0  0  0  0
 23 22  2  0  0  0  0
 24 19  1  0  0  0  0
 25 20  1  0  0  0  0
 27 28  1  0  0  0  0
 29  5  1  0  0  0  0
 29 31  1  0  0  0  0
 30 31  1  0  0  0  0
 31 32  2  0  0  0  0
 32 33  1  0  0  0  0
 34 32  1  0  0  0  0
 34 35  1  0  0  0  0
 36 34  2  0  0  0  0
 37 30  2  0  0  0  0
 37 36  1  0  0  0  0
 38 39  2  0  0  0  0
 39 30  1  0  0  0  0
 40 43  1  0  0  0  0
 40 39  1  0  0  0  0
 41 38  1  0  0  0  0
 42 40  1  0  0  0  0
M  END
>  <minimizedAffinity>
-5.51116037

$$$$

 OpenBabel03272508293D

 43 46  0  0  1  0  0  0  0  0999 V2000
   36.6670   27.2900   33.1750 C   0  0  2  0  0  0  0  0  0  0  0  0
   37.6520   26.9900   32.0510 C   0  0  2  0  0  0  0  0  0  0  0  0
   37.0760   27.5080   30.9220 O   0  0  0  0  0  0  0  0  0  0  0  0
   36.1910   28.5030   31.2370 C   0  0  0  0  0  0  0  0  0  0  0  0
   36.2260   28.6930   32.7430 C   0  0  1  0  0  0  0  0  0  0  0  0
   35.7880   26.6370   33.1490 H   0  0  0  0  0  0  0  0  0  0  0  0
   38.5870   27.5180   32.3190 H   0  0  0  0  0  0  0  0  0  0  0  0
   36.5230   29.4800   30.8170 H   0  0  0  0  0  0  0  0  0  0  0  0
   35.1820   28.1990   30.9430 H   0  0  0  0  0  0  0  0  0  0  0  0
   37.0600   29.3500   33.0480 H   0  0  0  0  0  0  0  0  0  0  0  0
   36.7140   24.6310   31.5370 C   0  0  1  0  0  0  0  0  0  0  0  0
   37.7830   25.5000   31.9690 C   0  0  1  0  0  0  0  0  0  0  0  0
   37.9680   24.7930   30.6670 C   0  0  0  0  0  0  0  0  0  0  0  0
   35.8200   24.8830   30.9470 H   0  0  0  0  0  0  0  0  0  0  0  0
   38.4060   25.1050   32.8250 H   0  0  0  0  0  0  0  0  0  0  0  0
   38.6980   23.9680   30.6160 H   0  0  0  0  0  0  0  0  0  0  0  0
   37.9040   25.3610   29.7280 H   0  0  0  0  0  0  0  0  0  0  0  0
   36.5940   23.2170   32.0840 C   0  0  0  0  0  0  0  0  0  0  0  0
   35.5920   22.4010   31.5200 C   0  0  0  0  0  0  0  0  0  0  0  0
   35.5070   21.1280   32.0760 C   0  0  0  0  0  0  0  0  0  0  0  0
   36.3430   20.7350   33.0860 N   0  0  0  0  0  0  0  0  0  0  0  0
   37.2770   21.5600   33.5830 C   0  0  0  0  0  0  0  0  0  0  0  0
   37.4220   22.8190   33.0900 N   0  0  0  0  0  0  0  0  0  0  0  0
   34.9740   22.7670   30.7340 H   0  0  0  0  0  0  0  0  0  0  0  0
   34.7360   20.5120   31.6350 H   0  0  0  0  0  0  0  0  0  0  0  0
   37.9090   21.1930   34.3810 H   0  0  0  0  0  0  0  0  0  0  0  0
   37.2520   27.3210   34.4240 O   0  0  0  0  0  0  0  0  0  0  0  0
   38.2350   27.4010   34.3860 H   0  0  0  0  0  0  0  0  0  0  0  0
   35.0250   29.0410   33.2740 O   0  0  0  0  0  0  0  0  0  0  0  0
   33.5640   30.0480   34.6580 C   0  0  0  0  0  0  0  0  0  0  0  0
   34.9200   29.9310   34.3220 C   0  0  0  0  0  0  0  0  0  0  0  0
   35.8170   30.6770   35.0550 C   0  0  0  0  0  0  0  0  0  0  0  0
   36.8240   30.5080   34.7080 H   0  0  0  0  0  0  0  0  0  0  0  0
   35.3910   31.4990   36.0710 C   0  0  0  0  0  0  0  0  0  0  0  0
   36.1770   32.0390   36.5810 H   0  0  0  0  0  0  0  0  0  0  0  0
   34.0630   31.6270   36.4160 C   0  0  0  0  0  3  0  0  0  0  0  0
   33.1460   30.8900   35.6980 C   0  0  0  0  0  3  0  0  0  0  0  0
   32.1440   29.2570   32.7610 N   0  0  0  0  0  0  0  0  0  0  0  0
   32.4170   29.3610   34.0320 C   0  0  0  0  0  0  0  0  0  0  0  0
   31.3940   28.6800   34.7330 N   0  0  0  0  0  0  0  0  0  0  0  0
   32.8100   29.7130   32.0720 H   0  0  0  0  0  0  0  0  0  0  0  0
   30.5230   29.1860   35.0530 H   0  0  0  0  0  0  0  0  0  0  0  0
   31.2350   27.7130   35.0640 H   0  0  0  0  0  0  0  0  0  0  0  0
  1  6  1  6  0  0  0
  1 27  1  0  0  0  0
  2  7  1  1  0  0  0
  2  1  1  0  0  0  0
  3  4  1  0  0  0  0
  3  2  1  0  0  0  0
  4  5  1  0  0  0  0
  5 10  1  1  0  0  0
  5  1  1  0  0  0  0
  5 29  1  0  0  0  0
  8  4  1  0  0  0  0
  9  4  1  0  0  0  0
 11 14  1  6  0  0  0
 11 12  1  0  0  0  0
 11 18  1  0  0  0  0
 12  2  1  0  0  0  0
 12 15  1  1  0  0  0
 13 11  1  0  0  0  0
 13 12  1  0  0  0  0
 16 13  1  0  0  0  0
 17 13  1  0  0  0  0
 18 23  1  0  0  0  0
 19 20  1  0  0  0  0
 19 18  2  0  0  0  0
 20 21  2  0  0  0  0
 21 22  1  0  0  0  0
 22 26  1  0  0  0  0
 23 22  2  0  0  0  0
 24 19  1  0  0  0  0
 25 20  1  0  0  0  0
 28 27  1  0  0  0  0
 29 31  1  0  0  0  0
 30 37  1  0  0  0  0
 31 30  2  0  0  0  0
 31 32  1  0  0  0  0
 32 34  2  0  0  0  0
 33 32  1  0  0  0  0
 34 36  1  0  0  0  0
 34 35  1  0  0  0  0
 37 36  2  0  0  0  0
 38 39  2  0  0  0  0
 39 30  1  0  0  0  0
 39 40  1  0  0  0  0
 40 42  1  0  0  0  0
 40 43  1  0  0  0  0
 41 38  1  0  0  0  0
M  END
>  <minimizedAffinity>
-5.46468544

$$$$
