
 OpenBabel03272504393D

 47 49  0  0  0  0  0  0  0  0999 V2000
   34.8040   29.4610   48.4350 C   0  0  0  0  0  0  0  0  0  0  0  0
   35.6430   29.6390   49.1400 H   0  0  0  0  0  0  0  0  0  0  0  0
   34.0010   30.1690   48.8020 H   0  0  0  0  0  0  0  0  0  0  0  0
   37.6090   30.3920   48.1830 Cl  0  0  0  0  0  0  0  0  0  0  0  0
   36.4580   30.3810   46.8490 C   0  0  0  0  0  0  0  0  0  0  0  0
   36.8570   30.8230   45.6230 C   0  0  0  0  0  0  0  0  0  0  0  0
   35.9730   30.8190   44.5790 C   0  0  0  0  0  0  0  0  0  0  0  0
   34.6850   30.3630   44.7920 C   0  0  0  0  0  0  0  0  0  0  0  0
   34.3290   29.9210   46.0660 C   0  0  0  0  0  0  0  0  0  0  0  0
   35.1920   29.9170   47.1190 C   0  0  0  0  0  0  0  0  0  0  0  0
   36.3320   31.1820   43.6070 H   0  0  0  0  0  0  0  0  0  0  0  0
   34.0720   30.4040   43.8980 H   0  0  0  0  0  0  0  0  0  0  0  0
   33.3410   29.6240   46.0230 H   0  0  0  0  0  0  0  0  0  0  0  0
   39.9550   32.8270   45.7420 C   0  0  0  0  0  0  0  0  0  0  0  0
   40.8110   32.0550   44.9040 C   0  0  0  0  0  0  0  0  0  0  0  0
   40.2900   30.8870   44.3390 C   0  0  0  0  0  0  0  0  0  0  0  0
   39.0040   30.5420   44.6090 N   0  0  0  0  0  0  0  0  0  0  0  0
   38.2180   31.3020   45.4130 C   0  0  0  0  0  0  0  0  0  0  0  0
   38.6970   32.4210   45.9610 N   0  0  0  0  0  0  0  0  0  0  0  0
   40.3520   33.7380   46.1860 H   0  0  0  0  0  0  0  0  0  0  0  0
   41.8190   32.4150   44.7510 H   0  0  0  0  0  0  0  0  0  0  0  0
   41.1600   30.1410   43.5130 N   0  0  0  0  0  0  0  0  0  0  0  0
   41.9720   29.8140   44.0940 H   0  0  0  0  0  0  0  0  0  0  0  0
   40.7490   30.1240   42.5500 H   0  0  0  0  0  0  0  0  0  0  0  0
   34.3310   28.0920   48.6090 C   0  0  0  0  0  0  0  0  0  0  0  0
   34.4060   27.5610   47.6140 H   0  0  0  0  0  0  0  0  0  0  0  0
   34.9810   27.4850   49.2840 H   0  0  0  0  0  0  0  0  0  0  0  0
   33.0350   28.0500   49.0560 O   0  0  0  0  0  0  0  0  0  0  0  0
   32.7180   27.5010   46.5030 O   0  0  0  0  0  0  0  0  0  0  0  0
   31.9940   27.6000   47.8240 P   0  0  2  0  0  0  0  0  0  0  0  0
   30.7610   28.7930   47.7660 O   0  0  0  0  0  0  0  0  0  0  0  0
   30.4310   28.8480   48.6980 H   0  0  0  0  0  0  0  0  0  0  0  0
   31.2340   26.1480   48.1350 O   0  0  0  0  0  0  0  0  0  0  0  0
   31.2220   24.3890   46.6290 C   0  0  0  0  0  0  0  0  0  0  0  0
   30.5490   25.5060   47.1100 C   0  0  0  0  0  0  0  0  0  0  0  0
   29.3340   25.8560   46.5600 C   0  0  0  0  0  0  0  0  0  0  0  0
   28.8770   26.7210   46.9770 H   0  0  0  0  0  0  0  0  0  0  0  0
   28.7860   25.1060   45.5390 C   0  0  0  0  0  0  0  0  0  0  0  0
   27.8330   25.3910   45.1180 H   0  0  0  0  0  0  0  0  0  0  0  0
   29.4360   23.9850   45.0390 C   0  0  0  0  0  3  0  0  0  0  0  0
   30.6480   23.6560   45.6060 C   0  0  0  0  0  3  0  0  0  0  0  0
   32.5440   23.0600   48.0730 N   0  0  0  0  0  0  0  0  0  0  0  0
   32.5150   23.9330   47.1450 C   0  0  0  0  0  0  0  0  0  0  0  0
   33.6720   24.5380   46.5290 N   0  0  0  0  0  0  0  0  0  0  0  0
   33.4000   22.6860   48.4910 H   0  0  0  0  0  0  0  0  0  0  0  0
   34.1970   25.4250   46.5870 H   0  0  0  0  0  0  0  0  0  0  0  0
   34.1640   23.9660   45.8110 H   0  0  0  0  0  0  0  0  0  0  0  0
  1 25  1  0  0  0  0
  1  3  1  0  0  0  0
  1  2  1  0  0  0  0
  5 10  1  0  0  0  0
  5  4  1  0  0  0  0
  6  5  2  0  0  0  0
  7  8  2  0  0  0  0
  7  6  1  0  0  0  0
  8  9  1  0  0  0  0
  9 10  2  0  0  0  0
 10  1  1  0  0  0  0
 11  7  1  0  0  0  0
 12  8  1  0  0  0  0
 13  9  1  0  0  0  0
 14 19  1  0  0  0  0
 14 20  1  0  0  0  0
 15 14  2  0  0  0  0
 16 17  2  0  0  0  0
 16 15  1  0  0  0  0
 17 18  1  0  0  0  0
 18  6  1  0  0  0  0
 18 19  2  0  0  0  0
 21 15  1  0  0  0  0
 22 23  1  0  0  0  0
 22 16  1  0  0  0  0
 24 22  1  0  0  0  0
 25 28  1  0  0  0  0
 25 27  1  0  0  0  0
 26 25  1  0  0  0  0
 30 29  2  6  0  0  0
 30 33  1  0  0  0  0
 30 28  1  0  0  0  0
 31 30  1  0  0  0  0
 31 32  1  0  0  0  0
 34 35  1  0  0  0  0
 34 43  1  0  0  0  0
 35 33  1  0  0  0  0
 36 37  1  0  0  0  0
 36 35  2  0  0  0  0
 38 36  1  0  0  0  0
 39 38  1  0  0  0  0
 40 38  2  0  0  0  0
 40 41  1  0  0  0  0
 41 34  2  0  0  0  0
 42 45  1  0  0  0  0
 43 42  2  0  0  0  0
 44 46  1  0  0  0  0
 44 43  1  0  0  0  0
 47 44  1  0  0  0  0
M  END
>  <minimizedAffinity>
-5.09622097

>  <minimizedRMSD>
1.2816292

$$$$
