
 OpenBabel03272500043D

 34 36  0  0  0  0  0  0  0  0999 V2000
   36.1500   29.2090   49.3180 C   0  0  0  0  0  0  0  0  0  0  0  0
   35.9240   30.3860   48.5550 C   0  0  0  0  0  0  0  0  0  0  0  0
   34.7350   30.4800   47.8440 C   0  0  0  0  0  0  0  0  0  0  0  0
   33.8480   29.4420   47.9150 N   0  0  0  0  0  0  0  0  0  0  0  0
   34.0740   28.3490   48.6300 C   0  0  0  0  0  0  0  0  0  0  0  0
   35.2400   28.2190   49.3490 N   0  0  0  0  0  0  0  0  0  0  0  0
   37.0840   29.1470   49.8700 H   0  0  0  0  0  0  0  0  0  0  0  0
   34.5720   31.3710   47.2720 H   0  0  0  0  0  0  0  0  0  0  0  0
   36.9380   31.3790   48.5650 N   0  0  0  0  0  0  0  0  0  0  0  0
   37.2210   32.1130   49.6350 C   0  0  0  0  0  0  0  0  0  0  0  0
   38.2310   33.0720   49.5730 C   0  0  0  0  0  0  0  0  0  0  0  0
   38.8670   33.1730   48.3550 C   0  0  0  0  0  0  0  0  0  0  0  0
   39.7860   34.0390   48.2830 O   0  0  0  0  0  0  0  0  0  0  0  0
   38.6090   32.4550   47.2610 N   0  0  0  0  0  0  0  0  0  0  0  0
   37.6160   31.5360   47.3840 C   0  0  0  0  0  0  0  0  0  0  0  0
   37.3650   30.8420   46.3350 O   0  0  0  0  0  0  0  0  0  0  0  0
   36.6500   31.9320   50.5190 H   0  0  0  0  0  0  0  0  0  0  0  0
   38.4650   33.6660   50.4310 H   0  0  0  0  0  0  0  0  0  0  0  0
   39.1310   32.5900   46.3860 H   0  0  0  0  0  0  0  0  0  0  0  0
   33.1930   27.2930   48.7100 O   0  0  0  0  0  0  0  0  0  0  0  0
   30.9500   27.3320   47.6570 C   0  0  0  0  0  0  0  0  0  0  0  0
   32.2920   27.0370   47.7250 C   0  0  0  0  0  0  0  0  0  0  0  0
   32.8390   26.3750   46.6230 C   0  0  0  0  0  0  0  0  0  0  0  0
   33.8910   26.0770   46.5330 H   0  0  0  0  0  0  0  0  0  0  0  0
   32.0220   26.0630   45.5590 C   0  0  0  0  0  0  0  0  0  0  0  0
   32.4150   25.5530   44.6980 H   0  0  0  0  0  0  0  0  0  0  0  0
   30.6900   26.3730   45.5310 C   0  0  0  0  0  3  0  0  0  0  0  0
   30.1400   27.0160   46.5900 C   0  0  0  0  0  3  0  0  0  0  0  0
   29.2790   28.7780   48.5050 N   0  0  0  0  0  0  0  0  0  0  0  0
   30.3400   28.0410   48.7450 C   0  0  0  0  0  0  0  0  0  0  0  0
   30.2890   28.3970   50.1080 N   0  0  0  0  0  0  0  0  0  0  0  0
   28.8530   28.8820   47.5800 H   0  0  0  0  0  0  0  0  0  0  0  0
   30.7790   29.2360   50.5410 H   0  0  0  0  0  0  0  0  0  0  0  0
   29.7560   27.8650   50.8590 H   0  0  0  0  0  0  0  0  0  0  0  0
  1  6  1  0  0  0  0
  1  7  1  0  0  0  0
  2  9  1  0  0  0  0
  2  1  2  0  0  0  0
  3  4  2  0  0  0  0
  3  2  1  0  0  0  0
  4  5  1  0  0  0  0
  5 20  1  0  0  0  0
  5  6  2  0  0  0  0
  8  3  1  0  0  0  0
  9 10  1  0  0  0  0
 10 17  1  0  0  0  0
 11 10  2  0  0  0  0
 11 18  1  0  0  0  0
 12 11  1  0  0  0  0
 13 12  2  0  0  0  0
 14 15  1  0  0  0  0
 14 12  1  0  0  0  0
 15  9  1  0  0  0  0
 16 15  2  0  0  0  0
 19 14  1  0  0  0  0
 21 22  1  0  0  0  0
 21 30  1  0  0  0  0
 22 20  1  0  0  0  0
 23 22  2  0  0  0  0
 24 23  1  0  0  0  0
 25 23  1  0  0  0  0
 26 25  1  0  0  0  0
 27 25  2  0  0  0  0
 27 28  1  0  0  0  0
 28 21  2  0  0  0  0
 29 30  2  0  0  0  0
 30 31  1  0  0  0  0
 31 33  1  0  0  0  0
 31 34  1  0  0  0  0
 32 29  1  0  0  0  0
M  END
>  <minimizedAffinity>
-5.95888376

>  <minimizedRMSD>
0.458601028

$$$$
