
 OpenBabel03272503303D

 39 41  0  0  1  0  0  0  0  0999 V2000
   35.0670   29.4320   47.9900 C   0  0  0  0  0  0  0  0  0  0  0  0
   34.9040   30.0030   46.7250 C   0  0  0  0  0  0  0  0  0  0  0  0
   33.7120   29.6960   46.0640 C   0  0  0  0  0  0  0  0  0  0  0  0
   32.8170   28.8730   46.7110 N   0  0  0  0  0  0  0  0  0  0  0  0
   33.0170   28.3490   47.9240 C   0  0  0  0  0  0  0  0  0  0  0  0
   34.1600   28.6390   48.5650 N   0  0  0  0  0  0  0  0  0  0  0  0
   35.6290   30.6420   46.2540 H   0  0  0  0  0  0  0  0  0  0  0  0
   33.4880   30.0870   45.0790 H   0  0  0  0  0  0  0  0  0  0  0  0
   36.3010   29.7490   48.6740 N   0  0  0  0  0  0  0  0  0  0  0  0
   37.3940   30.5350   48.1730 C   0  0  0  0  0  0  0  0  0  0  0  0
   38.0020   31.1010   49.4440 C   0  0  2  0  0  0  0  0  0  0  0  0
   37.0970   30.6640   50.5770 C   0  0  0  0  0  0  0  0  0  0  0  0
   36.6630   29.3250   50.0060 C   0  0  0  0  0  0  0  0  0  0  0  0
   37.0150   31.3890   47.5550 H   0  0  0  0  0  0  0  0  0  0  0  0
   38.1290   29.9110   47.6030 H   0  0  0  0  0  0  0  0  0  0  0  0
   38.9970   30.6480   49.5650 H   0  0  0  0  0  0  0  0  0  0  0  0
   37.6450   30.4620   51.5150 H   0  0  0  0  0  0  0  0  0  0  0  0
   36.2240   31.3150   50.7160 H   0  0  0  0  0  0  0  0  0  0  0  0
   35.7410   29.0210   50.5420 H   0  0  0  0  0  0  0  0  0  0  0  0
   37.4660   28.5830   50.0450 H   0  0  0  0  0  0  0  0  0  0  0  0
   38.1600   32.5930   49.3900 C   0  0  0  0  0  0  0  0  0  0  0  0
   37.0000   33.1340   49.9210 F   0  0  0  0  0  0  0  0  0  0  0  0
   38.1850   32.9540   48.0560 F   0  0  0  0  0  0  0  0  0  0  0  0
   39.2720   33.0550   50.0210 F   0  0  0  0  0  0  0  0  0  0  0  0
   31.8090   27.3020   48.6710 S   0  0  0  0  0  0  0  0  0  0  0  0
   29.6170   26.8960   47.0220 C   0  0  0  0  0  0  0  0  0  0  0  0
   30.8470   26.4120   47.4420 C   0  0  0  0  0  0  0  0  0  0  0  0
   31.3990   25.2460   46.9590 C   0  0  0  0  0  0  0  0  0  0  0  0
   32.3520   24.8500   47.2690 H   0  0  0  0  0  0  0  0  0  0  0  0
   30.6400   24.5680   46.0060 C   0  0  0  0  0  0  0  0  0  0  0  0
   31.0160   23.6470   45.5860 H   0  0  0  0  0  0  0  0  0  0  0  0
   29.4170   25.0140   45.5630 C   0  0  0  0  0  3  0  0  0  0  0  0
   28.9090   26.1880   46.0800 C   0  0  0  0  0  3  0  0  0  0  0  0
   29.5270   29.3410   47.2620 N   0  0  0  0  0  0  0  0  0  0  0  0
   29.1640   28.1490   47.6290 C   0  0  0  0  0  0  0  0  0  0  0  0
   28.2600   28.1300   48.7030 N   0  0  0  0  0  0  0  0  0  0  0  0
   30.2050   29.4270   46.4610 H   0  0  0  0  0  0  0  0  0  0  0  0
   27.6730   28.0050   49.5340 H   0  0  0  0  0  0  0  0  0  0  0  0
   27.4650   28.7960   48.8480 H   0  0  0  0  0  0  0  0  0  0  0  0
  1  6  1  0  0  0  0
  1  9  1  0  0  0  0
  2  1  2  0  0  0  0
  3  4  2  0  0  0  0
  3  2  1  0  0  0  0
  4  5  1  0  0  0  0
  5  6  2  0  0  0  0
  5 25  1  0  0  0  0
  7  2  1  0  0  0  0
  8  3  1  0  0  0  0
  9 13  1  0  0  0  0
 10  9  1  0  0  0  0
 10 11  1  0  0  0  0
 11 16  1  1  0  0  0
 11 12  1  0  0  0  0
 12 18  1  0  0  0  0
 12 17  1  0  0  0  0
 13 20  1  0  0  0  0
 13 19  1  0  0  0  0
 13 12  1  0  0  0  0
 14 10  1  0  0  0  0
 15 10  1  0  0  0  0
 21 11  1  0  0  0  0
 21 22  1  0  0  0  0
 21 24  1  0  0  0  0
 23 21  1  0  0  0  0
 26 27  1  0  0  0  0
 26 35  1  0  0  0  0
 27 25  1  0  0  0  0
 28 29  1  0  0  0  0
 28 27  2  0  0  0  0
 30 28  1  0  0  0  0
 31 30  1  0  0  0  0
 32 30  2  0  0  0  0
 32 33  1  0  0  0  0
 33 26  2  0  0  0  0
 34 35  2  0  0  0  0
 35 36  1  0  0  0  0
 36 39  1  0  0  0  0
 36 38  1  0  0  0  0
 37 34  1  0  0  0  0
M  END
>  <minimizedAffinity>
-6.0654726

>  <minimizedRMSD>
1.96883583

$$$$
