
 OpenBabel03272508273D

 43 46  0  0  1  0  0  0  0  0999 V2000
   34.0250   29.0190   47.3330 C   0  0  2  0  0  0  0  0  0  0  0  0
   34.7520   28.2580   48.4360 C   0  0  2  0  0  0  0  0  0  0  0  0
   33.8370   28.1270   49.4460 O   0  0  0  0  0  0  0  0  0  0  0  0
   32.5600   28.2070   48.9610 C   0  0  0  0  0  0  0  0  0  0  0  0
   32.6470   28.3590   47.4530 C   0  0  1  0  0  0  0  0  0  0  0  0
   33.9110   30.0830   47.5630 H   0  0  0  0  0  0  0  0  0  0  0  0
   35.0280   27.2790   47.9970 H   0  0  0  0  0  0  0  0  0  0  0  0
   32.0120   27.2510   49.1210 H   0  0  0  0  0  0  0  0  0  0  0  0
   32.0670   29.0910   49.3770 H   0  0  0  0  0  0  0  0  0  0  0  0
   32.7650   27.3810   46.9540 H   0  0  0  0  0  0  0  0  0  0  0  0
   35.8260   30.5210   49.0930 C   0  0  1  0  0  0  0  0  0  0  0  0
   35.9180   29.1000   48.8540 C   0  0  1  0  0  0  0  0  0  0  0  0
   36.0930   29.5630   50.2630 C   0  0  0  0  0  0  0  0  0  0  0  0
   34.9320   31.1250   49.3080 H   0  0  0  0  0  0  0  0  0  0  0  0
   36.8640   28.7610   48.3370 H   0  0  0  0  0  0  0  0  0  0  0  0
   37.1020   29.5240   50.7070 H   0  0  0  0  0  0  0  0  0  0  0  0
   35.3000   29.3740   50.9990 H   0  0  0  0  0  0  0  0  0  0  0  0
   37.0170   31.4310   48.8340 C   0  0  0  0  0  0  0  0  0  0  0  0
   37.1930   32.5140   49.7190 C   0  0  0  0  0  0  0  0  0  0  0  0
   38.2800   33.3290   49.4200 C   0  0  0  0  0  0  0  0  0  0  0  0
   39.0890   33.0720   48.3470 N   0  0  0  0  0  0  0  0  0  0  0  0
   38.8700   32.0240   47.5390 C   0  0  0  0  0  0  0  0  0  0  0  0
   37.8270   31.1800   47.7680 N   0  0  0  0  0  0  0  0  0  0  0  0
   36.5270   32.6580   50.5370 H   0  0  0  0  0  0  0  0  0  0  0  0
   38.4040   34.1560   50.1050 H   0  0  0  0  0  0  0  0  0  0  0  0
   39.5440   31.8700   46.7070 H   0  0  0  0  0  0  0  0  0  0  0  0
   34.5610   28.8150   46.0790 O   0  0  0  0  0  0  0  0  0  0  0  0
   35.1560   28.0280   46.0380 H   0  0  0  0  0  0  0  0  0  0  0  0
   31.6590   29.1320   46.9280 O   0  0  0  0  0  0  0  0  0  0  0  0
   31.0740   29.5030   44.7870 C   0  0  0  0  0  0  0  0  0  0  0  0
   30.8500   28.6860   45.9040 C   0  0  0  0  0  0  0  0  0  0  0  0
   29.9300   27.6700   45.7670 C   0  0  0  0  0  0  0  0  0  0  0  0
   29.8410   27.1100   46.6860 H   0  0  0  0  0  0  0  0  0  0  0  0
   29.2640   27.4720   44.5810 C   0  0  0  0  0  0  0  0  0  0  0  0
   28.5650   26.6490   44.5810 H   0  0  0  0  0  0  0  0  0  0  0  0
   29.4700   28.2650   43.4720 C   0  0  0  0  0  3  0  0  0  0  0  0
   30.3870   29.2890   43.5840 C   0  0  0  0  0  3  0  0  0  0  0  0
   32.8000   30.9380   43.6900 N   0  0  0  0  0  0  0  0  0  0  0  0
   32.0000   30.6470   44.6780 C   0  0  0  0  0  0  0  0  0  0  0  0
   32.1760   31.6490   45.6630 N   0  0  0  0  0  0  0  0  0  0  0  0
   32.8060   30.2900   42.8510 H   0  0  0  0  0  0  0  0  0  0  0  0
   32.8910   31.5370   46.4330 H   0  0  0  0  0  0  0  0  0  0  0  0
   31.7530   32.5700   45.8700 H   0  0  0  0  0  0  0  0  0  0  0  0
  1  5  1  0  0  0  0
  1  6  1  1  0  0  0
  1  2  1  0  0  0  0
  2  7  1  6  0  0  0
  2 12  1  0  0  0  0
  2  3  1  0  0  0  0
  4  8  1  0  0  0  0
  4  9  1  0  0  0  0
  4  3  1  0  0  0  0
  5 10  1  6  0  0  0
  5  4  1  0  0  0  0
 11 14  1  6  0  0  0
 11 13  1  0  0  0  0
 12 15  1  6  0  0  0
 12 11  1  0  0  0  0
 12 13  1  0  0  0  0
 13 16  1  0  0  0  0
 13 17  1  0  0  0  0
 18 11  1  0  0  0  0
 18 19  1  0  0  0  0
 19 24  1  0  0  0  0
 20 19  2  0  0  0  0
 20 25  1  0  0  0  0
 21 20  1  0  0  0  0
 22 23  1  0  0  0  0
 22 21  2  0  0  0  0
 23 18  2  0  0  0  0
 26 22  1  0  0  0  0
 27  1  1  0  0  0  0
 28 27  1  0  0  0  0
 29  5  1  0  0  0  0
 30 31  1  0  0  0  0
 31 29  1  0  0  0  0
 32 31  2  0  0  0  0
 32 33  1  0  0  0  0
 34 35  1  0  0  0  0
 34 32  1  0  0  0  0
 36 37  1  0  0  0  0
 36 34  2  0  0  0  0
 37 30  2  0  0  0  0
 38 39  2  0  0  0  0
 39 30  1  0  0  0  0
 39 40  1  0  0  0  0
 40 43  1  0  0  0  0
 40 42  1  0  0  0  0
 41 38  1  0  0  0  0
M  END
>  <minimizedAffinity>
-5.05310965

>  <minimizedRMSD>
0.172534332

$$$$
