
 OpenBabel03272508273D

 43 46  0  0  1  0  0  0  0  0999 V2000
   34.0250   29.0200   47.3330 C   0  0  2  0  0  0  0  0  0  0  0  0
   34.7530   28.2590   48.4350 C   0  0  2  0  0  0  0  0  0  0  0  0
   33.8380   28.1260   49.4450 O   0  0  0  0  0  0  0  0  0  0  0  0
   32.5600   28.2060   48.9600 C   0  0  0  0  0  0  0  0  0  0  0  0
   32.6470   28.3600   47.4520 C   0  0  1  0  0  0  0  0  0  0  0  0
   33.9100   30.0840   47.5640 H   0  0  0  0  0  0  0  0  0  0  0  0
   35.0290   27.2800   47.9960 H   0  0  0  0  0  0  0  0  0  0  0  0
   32.0130   27.2500   49.1200 H   0  0  0  0  0  0  0  0  0  0  0  0
   32.0670   29.0900   49.3770 H   0  0  0  0  0  0  0  0  0  0  0  0
   32.7660   27.3820   46.9530 H   0  0  0  0  0  0  0  0  0  0  0  0
   35.8260   30.5220   49.0920 C   0  0  1  0  0  0  0  0  0  0  0  0
   35.9180   29.1010   48.8540 C   0  0  1  0  0  0  0  0  0  0  0  0
   36.0920   29.5650   50.2630 C   0  0  0  0  0  0  0  0  0  0  0  0
   34.9320   31.1270   49.3050 H   0  0  0  0  0  0  0  0  0  0  0  0
   36.8640   28.7610   48.3380 H   0  0  0  0  0  0  0  0  0  0  0  0
   37.1000   29.5260   50.7080 H   0  0  0  0  0  0  0  0  0  0  0  0
   35.2970   29.3760   50.9980 H   0  0  0  0  0  0  0  0  0  0  0  0
   37.0180   31.4320   48.8340 C   0  0  0  0  0  0  0  0  0  0  0  0
   37.1940   32.5140   49.7190 C   0  0  0  0  0  0  0  0  0  0  0  0
   38.2810   33.3290   49.4210 C   0  0  0  0  0  0  0  0  0  0  0  0
   39.0900   33.0730   48.3470 N   0  0  0  0  0  0  0  0  0  0  0  0
   38.8700   32.0250   47.5390 C   0  0  0  0  0  0  0  0  0  0  0  0
   37.8270   31.1820   47.7670 N   0  0  0  0  0  0  0  0  0  0  0  0
   36.5270   32.6580   50.5380 H   0  0  0  0  0  0  0  0  0  0  0  0
   38.4060   34.1560   50.1070 H   0  0  0  0  0  0  0  0  0  0  0  0
   39.5440   31.8710   46.7070 H   0  0  0  0  0  0  0  0  0  0  0  0
   34.5620   28.8170   46.0790 O   0  0  0  0  0  0  0  0  0  0  0  0
   35.1560   28.0300   46.0380 H   0  0  0  0  0  0  0  0  0  0  0  0
   31.6590   29.1320   46.9280 O   0  0  0  0  0  0  0  0  0  0  0  0
   31.0740   29.5040   44.7860 C   0  0  0  0  0  0  0  0  0  0  0  0
   30.8500   28.6870   45.9040 C   0  0  0  0  0  0  0  0  0  0  0  0
   29.9300   27.6700   45.7670 C   0  0  0  0  0  0  0  0  0  0  0  0
   29.8420   27.1110   46.6850 H   0  0  0  0  0  0  0  0  0  0  0  0
   29.2640   27.4730   44.5810 C   0  0  0  0  0  0  0  0  0  0  0  0
   28.5650   26.6500   44.5800 H   0  0  0  0  0  0  0  0  0  0  0  0
   29.4700   28.2660   43.4730 C   0  0  0  0  0  3  0  0  0  0  0  0
   30.3870   29.2900   43.5840 C   0  0  0  0  0  3  0  0  0  0  0  0
   32.8000   30.9400   43.6900 N   0  0  0  0  0  0  0  0  0  0  0  0
   32.0000   30.6480   44.6790 C   0  0  0  0  0  0  0  0  0  0  0  0
   32.1750   31.6490   45.6630 N   0  0  0  0  0  0  0  0  0  0  0  0
   32.8060   30.2910   42.8500 H   0  0  0  0  0  0  0  0  0  0  0  0
   32.8910   31.5370   46.4330 H   0  0  0  0  0  0  0  0  0  0  0  0
   31.7540   32.5710   45.8710 H   0  0  0  0  0  0  0  0  0  0  0  0
  1  5  1  0  0  0  0
  1  6  1  1  0  0  0
  1  2  1  0  0  0  0
  2  7  1  6  0  0  0
  2 12  1  0  0  0  0
  2  3  1  0  0  0  0
  4  8  1  0  0  0  0
  4  9  1  0  0  0  0
  4  3  1  0  0  0  0
  5 10  1  6  0  0  0
  5  4  1  0  0  0  0
 11 14  1  6  0  0  0
 11 13  1  0  0  0  0
 12 15  1  6  0  0  0
 12 11  1  0  0  0  0
 12 13  1  0  0  0  0
 13 16  1  0  0  0  0
 13 17  1  0  0  0  0
 18 11  1  0  0  0  0
 18 19  1  0  0  0  0
 19 24  1  0  0  0  0
 20 19  2  0  0  0  0
 20 25  1  0  0  0  0
 21 20  1  0  0  0  0
 22 23  1  0  0  0  0
 22 21  2  0  0  0  0
 23 18  2  0  0  0  0
 26 22  1  0  0  0  0
 27  1  1  0  0  0  0
 28 27  1  0  0  0  0
 29  5  1  0  0  0  0
 30 31  1  0  0  0  0
 31 29  1  0  0  0  0
 32 31  2  0  0  0  0
 32 33  1  0  0  0  0
 34 32  1  0  0  0  0
 35 34  1  0  0  0  0
 36 37  1  0  0  0  0
 36 34  2  0  0  0  0
 37 30  2  0  0  0  0
 38 39  2  0  0  0  0
 39 30  1  0  0  0  0
 39 40  1  0  0  0  0
 40 43  1  0  0  0  0
 40 42  1  0  0  0  0
 41 38  1  0  0  0  0
M  END
>  <minimizedAffinity>
-5.0534215

>  <minimizedRMSD>
0.562575281

$$$$
