
 OpenBabel03272501443D

 39 40  0  0  0  0  0  0  0  0999 V2000
   35.6510   29.3610   48.8120 C   0  0  0  0  0  0  0  0  0  0  0  0
   35.6050   30.0840   47.5800 C   0  0  0  0  0  0  0  0  0  0  0  0
   34.4610   29.9630   46.8050 C   0  0  0  0  0  0  0  0  0  0  0  0
   33.4570   29.1730   47.2500 N   0  0  0  0  0  0  0  0  0  0  0  0
   33.5160   28.5000   48.4090 C   0  0  0  0  0  0  0  0  0  0  0  0
   34.6140   28.5990   49.1820 N   0  0  0  0  0  0  0  0  0  0  0  0
   36.4490   29.3290   49.5380 H   0  0  0  0  0  0  0  0  0  0  0  0
   34.4490   30.5080   45.8940 H   0  0  0  0  0  0  0  0  0  0  0  0
   37.5290   31.3290   48.3710 C   0  0  0  0  0  0  0  0  0  0  0  0
   36.7770   30.8770   47.2940 C   0  0  0  0  0  0  0  0  0  0  0  0
   37.2160   31.2320   46.0410 C   0  0  0  0  0  0  0  0  0  0  0  0
   38.3550   32.0050   45.8680 C   0  0  0  0  0  0  0  0  0  0  0  0
   39.0020   32.4940   44.8090 N   0  0  0  0  0  0  0  0  0  0  0  0
   40.0630   33.1890   45.1950 C   0  0  0  0  0  0  0  0  0  0  0  0
   40.1320   33.1670   46.5470 N   0  0  0  0  0  0  0  0  0  0  0  0
   39.0820   32.4390   46.9610 C   0  0  0  0  0  0  0  0  0  0  0  0
   38.6640   32.0970   48.2220 C   0  0  0  0  0  0  0  0  0  0  0  0
   37.3160   31.1390   49.4310 H   0  0  0  0  0  0  0  0  0  0  0  0
   36.6390   30.8870   45.1830 H   0  0  0  0  0  0  0  0  0  0  0  0
   38.6440   32.3020   43.8330 H   0  0  0  0  0  0  0  0  0  0  0  0
   40.7000   33.6550   44.4400 H   0  0  0  0  0  0  0  0  0  0  0  0
   39.2670   32.4610   49.0610 H   0  0  0  0  0  0  0  0  0  0  0  0
   32.3770   27.6370   48.8620 C   0  0  0  0  0  0  0  0  0  0  0  0
   32.7900   26.6830   49.3080 H   0  0  0  0  0  0  0  0  0  0  0  0
   31.8760   28.1250   49.7130 H   0  0  0  0  0  0  0  0  0  0  0  0
   31.6410   26.2460   46.9180 C   0  0  0  0  0  0  0  0  0  0  0  0
   31.4950   27.3410   47.7320 C   0  0  0  0  0  0  0  0  0  0  0  0
   30.4510   28.1970   47.4790 C   0  0  0  0  0  0  0  0  0  0  0  0
   30.2990   29.0800   48.1030 H   0  0  0  0  0  0  0  0  0  0  0  0
   29.6210   27.9060   46.4320 C   0  0  0  0  0  0  0  0  0  0  0  0
   28.7850   28.5480   46.1920 H   0  0  0  0  0  0  0  0  0  0  0  0
   29.7580   26.8100   45.6100 C   0  0  0  0  0  3  0  0  0  0  0  0
   30.7980   25.9430   45.8490 C   0  0  0  0  0  3  0  0  0  0  0  0
   33.9640   24.9870   47.0270 N   0  0  0  0  0  0  0  0  0  0  0  0
   32.7300   25.3160   47.1030 C   0  0  0  0  0  3  0  0  0  0  0  0
   32.4480   24.0490   47.6760 N   0  0  0  0  0  1  0  0  0  0  0  0
   34.6840   25.6220   46.6400 H   0  0  0  0  0  0  0  0  0  0  0  0
   31.6470   23.5970   48.1630 H   0  0  0  0  0 15  0  0  0  0  0  0
   32.2500   23.1330   48.0870 H   0  0  0  0  0  0  0  0  0  0  0  0
  1  6  1  0  0  0  0
  1  7  1  0  0  0  0
  2  1  2  0  0  0  0
  3  4  2  0  0  0  0
  3  2  1  0  0  0  0
  4  5  1  0  0  0  0
  5 23  1  0  0  0  0
  5  6  2  0  0  0  0
  8  3  1  0  0  0  0
  9 18  1  0  0  0  0
 10  2  1  0  0  0  0
 10  9  2  0  0  0  0
 11 10  1  0  0  0  0
 12 11  2  0  0  0  0
 12 16  1  0  0  0  0
 13 14  1  0  0  0  0
 13 12  1  0  0  0  0
 14 15  2  0  0  0  0
 15 16  1  0  0  0  0
 16 17  2  0  0  0  0
 17  9  1  0  0  0  0
 17 22  1  0  0  0  0
 19 11  1  0  0  0  0
 20 13  1  0  0  0  0
 21 14  1  0  0  0  0
 23 24  1  0  0  0  0
 23 25  1  0  0  0  0
 26 35  1  0  0  0  0
 26 27  1  0  0  0  0
 27 23  1  0  0  0  0
 28 27  2  0  0  0  0
 28 29  1  0  0  0  0
 30 28  1  0  0  0  0
 31 30  1  0  0  0  0
 32 33  1  0  0  0  0
 32 30  2  0  0  0  0
 33 26  2  0  0  0  0
 34 35  2  0  0  0  0
 36 39  1  0  0  0  0
 37 34  1  0  0  0  0
M  END
>  <minimizedAffinity>
-5.50715923

>  <minimizedRMSD>
2.15412259

$$$$
