
 OpenBabel03272500043D

 34 36  0  0  0  0  0  0  0  0999 V2000
   35.8620   29.1200   49.3180 C   0  0  0  0  0  0  0  0  0  0  0  0
   35.7150   30.3010   48.5420 C   0  0  0  0  0  0  0  0  0  0  0  0
   34.6170   30.3890   47.6970 C   0  0  0  0  0  0  0  0  0  0  0  0
   33.7380   29.3420   47.6560 N   0  0  0  0  0  0  0  0  0  0  0  0
   33.8900   28.2460   48.3850 C   0  0  0  0  0  0  0  0  0  0  0  0
   34.9650   28.1210   49.2350 N   0  0  0  0  0  0  0  0  0  0  0  0
   36.7260   29.0620   49.9750 H   0  0  0  0  0  0  0  0  0  0  0  0
   34.5120   31.2840   47.1160 H   0  0  0  0  0  0  0  0  0  0  0  0
   36.7100   31.3030   48.6780 N   0  0  0  0  0  0  0  0  0  0  0  0
   36.9020   31.9850   49.8010 C   0  0  0  0  0  0  0  0  0  0  0  0
   37.8990   32.9570   49.8630 C   0  0  0  0  0  0  0  0  0  0  0  0
   38.6230   33.1270   48.7040 C   0  0  0  0  0  0  0  0  0  0  0  0
   39.5320   34.0060   48.7450 O   0  0  0  0  0  0  0  0  0  0  0  0
   38.4580   32.4630   47.5590 N   0  0  0  0  0  0  0  0  0  0  0  0
   37.4720   31.5280   47.5610 C   0  0  0  0  0  0  0  0  0  0  0  0
   37.3110   30.8850   46.4630 O   0  0  0  0  0  0  0  0  0  0  0  0
   36.2690   31.7530   50.6290 H   0  0  0  0  0  0  0  0  0  0  0  0
   38.0590   33.5090   50.7660 H   0  0  0  0  0  0  0  0  0  0  0  0
   39.0420   32.6470   46.7330 H   0  0  0  0  0  0  0  0  0  0  0  0
   33.0160   27.1810   48.3530 O   0  0  0  0  0  0  0  0  0  0  0  0
   30.9280   27.2900   47.0240 C   0  0  0  0  0  0  0  0  0  0  0  0
   31.6810   27.3560   48.1710 C   0  0  0  0  0  0  0  0  0  0  0  0
   30.9900   27.6470   49.3520 C   0  0  0  0  0  0  0  0  0  0  0  0
   31.4540   27.7310   50.3430 H   0  0  0  0  0  0  0  0  0  0  0  0
   29.6280   27.8460   49.2950 C   0  0  0  0  0  0  0  0  0  0  0  0
   29.0710   28.0710   50.1870 H   0  0  0  0  0  0  0  0  0  0  0  0
   28.9160   27.7730   48.1310 C   0  0  0  0  0  3  0  0  0  0  0  0
   29.5670   27.4920   46.9750 C   0  0  0  0  0  3  0  0  0  0  0  0
   30.8390   26.7610   44.7190 N   0  0  0  0  0  0  0  0  0  0  0  0
   31.5780   26.9630   45.7870 C   0  0  0  0  0  0  0  0  0  0  0  0
   32.7450   26.7160   45.0370 N   0  0  0  0  0  0  0  0  0  0  0  0
   29.8180   26.8210   44.7110 H   0  0  0  0  0  0  0  0  0  0  0  0
   33.2010   25.7640   44.9100 H   0  0  0  0  0  0  0  0  0  0  0  0
   33.3060   27.4560   44.5160 H   0  0  0  0  0  0  0  0  0  0  0  0
  1  7  1  0  0  0  0
  2  9  1  0  0  0  0
  2  1  2  0  0  0  0
  3  2  1  0  0  0  0
  4  3  2  0  0  0  0
  4  5  1  0  0  0  0
  5  6  2  0  0  0  0
  6  1  1  0  0  0  0
  8  3  1  0  0  0  0
  9 10  1  0  0  0  0
 10 11  2  0  0  0  0
 10 17  1  0  0  0  0
 11 18  1  0  0  0  0
 12 13  2  0  0  0  0
 12 11  1  0  0  0  0
 14 15  1  0  0  0  0
 14 12  1  0  0  0  0
 15  9  1  0  0  0  0
 16 15  2  0  0  0  0
 19 14  1  0  0  0  0
 20  5  1  0  0  0  0
 21 22  1  0  0  0  0
 22 20  1  0  0  0  0
 22 23  2  0  0  0  0
 23 24  1  0  0  0  0
 25 23  1  0  0  0  0
 25 26  1  0  0  0  0
 27 25  2  0  0  0  0
 28 21  2  0  0  0  0
 28 27  1  0  0  0  0
 29 30  2  0  0  0  0
 30 21  1  0  0  0  0
 31 30  1  0  0  0  0
 32 29  1  0  0  0  0
 33 31  1  0  0  0  0
 34 31  1  0  0  0  0
M  END
>  <minimizedAffinity>
-5.5113039

>  <minimizedRMSD>
1.18062651

$$$$
