
 OpenBabel03272500043D

 34 36  0  0  0  0  0  0  0  0999 V2000
   36.1490   29.2080   49.3170 C   0  0  0  0  0  0  0  0  0  0  0  0
   35.9240   30.3850   48.5530 C   0  0  0  0  0  0  0  0  0  0  0  0
   34.7350   30.4790   47.8430 C   0  0  0  0  0  0  0  0  0  0  0  0
   33.8470   29.4410   47.9130 N   0  0  0  0  0  0  0  0  0  0  0  0
   34.0720   28.3480   48.6290 C   0  0  0  0  0  0  0  0  0  0  0  0
   35.2380   28.2190   49.3480 N   0  0  0  0  0  0  0  0  0  0  0  0
   37.0830   29.1460   49.8700 H   0  0  0  0  0  0  0  0  0  0  0  0
   34.5720   31.3700   47.2700 H   0  0  0  0  0  0  0  0  0  0  0  0
   36.9370   31.3780   48.5640 N   0  0  0  0  0  0  0  0  0  0  0  0
   37.2210   32.1100   49.6340 C   0  0  0  0  0  0  0  0  0  0  0  0
   38.2320   33.0700   49.5720 C   0  0  0  0  0  0  0  0  0  0  0  0
   38.8670   33.1720   48.3540 C   0  0  0  0  0  0  0  0  0  0  0  0
   39.7860   34.0380   48.2820 O   0  0  0  0  0  0  0  0  0  0  0  0
   38.6080   32.4550   47.2600 N   0  0  0  0  0  0  0  0  0  0  0  0
   37.6140   31.5360   47.3830 C   0  0  0  0  0  0  0  0  0  0  0  0
   37.3620   30.8430   46.3330 O   0  0  0  0  0  0  0  0  0  0  0  0
   36.6510   31.9290   50.5180 H   0  0  0  0  0  0  0  0  0  0  0  0
   38.4660   33.6630   50.4310 H   0  0  0  0  0  0  0  0  0  0  0  0
   39.1290   32.5900   46.3840 H   0  0  0  0  0  0  0  0  0  0  0  0
   33.1910   27.2920   48.7080 O   0  0  0  0  0  0  0  0  0  0  0  0
   30.9490   27.3340   47.6560 C   0  0  0  0  0  0  0  0  0  0  0  0
   32.2900   27.0380   47.7240 C   0  0  0  0  0  0  0  0  0  0  0  0
   32.8360   26.3770   46.6210 C   0  0  0  0  0  0  0  0  0  0  0  0
   33.8880   26.0770   46.5300 H   0  0  0  0  0  0  0  0  0  0  0  0
   32.0180   26.0640   45.5570 C   0  0  0  0  0  0  0  0  0  0  0  0
   32.4110   25.5550   44.6960 H   0  0  0  0  0  0  0  0  0  0  0  0
   30.6870   26.3760   45.5290 C   0  0  0  0  0  0  0  0  0  0  0  0
   30.1370   27.0190   46.5900 C   0  0  0  0  0  0  0  0  0  0  0  0
   29.2780   28.7810   48.5040 N   0  0  0  0  0  0  0  0  0  0  0  0
   30.3380   28.0430   48.7450 C   0  0  0  0  0  0  0  0  0  0  0  0
   30.2870   28.3970   50.1080 N   0  0  0  0  0  0  0  0  0  0  0  0
   28.8520   28.8860   47.5800 H   0  0  0  0  0  0  0  0  0  0  0  0
   30.7800   29.2350   50.5410 H   0  0  0  0  0  0  0  0  0  0  0  0
   29.7540   27.8670   50.8590 H   0  0  0  0  0  0  0  0  0  0  0  0
  1  6  1  0  0  0  0
  1  7  1  0  0  0  0
  2  9  1  0  0  0  0
  2  1  2  0  0  0  0
  3  4  2  0  0  0  0
  3  2  1  0  0  0  0
  4  5  1  0  0  0  0
  5 20  1  0  0  0  0
  5  6  2  0  0  0  0
  8  3  1  0  0  0  0
  9 10  1  0  0  0  0
 10 17  1  0  0  0  0
 11 10  2  0  0  0  0
 11 18  1  0  0  0  0
 12 11  1  0  0  0  0
 13 12  2  0  0  0  0
 14 15  1  0  0  0  0
 14 12  1  0  0  0  0
 15  9  1  0  0  0  0
 16 15  2  0  0  0  0
 19 14  1  0  0  0  0
 21 22  1  0  0  0  0
 21 30  1  0  0  0  0
 22 20  1  0  0  0  0
 23 22  2  0  0  0  0
 24 23  1  0  0  0  0
 25 23  1  0  0  0  0
 26 25  1  0  0  0  0
 27 25  2  0  0  0  0
 27 28  1  0  0  0  0
 28 21  2  0  0  0  0
 29 30  2  0  0  0  0
 30 31  1  0  0  0  0
 31 33  1  0  0  0  0
 31 34  1  0  0  0  0
 32 29  1  0  0  0  0
M  END
>  <minimizedAffinity>
-5.96038723

>  <minimizedRMSD>
0.884316325

$$$$
