
 OpenBabel03272504393D

 47 49  0  0  0  0  0  0  0  0999 V2000
   34.9030   29.4460   48.9010 C   0  0  0  0  0  0  0  0  0  0  0  0
   35.8070   29.5160   49.5430 H   0  0  0  0  0  0  0  0  0  0  0  0
   34.2360   30.2680   49.3010 H   0  0  0  0  0  0  0  0  0  0  0  0
   37.6430   30.5270   48.5540 Cl  0  0  0  0  0  0  0  0  0  0  0  0
   36.4920   30.3360   47.2330 C   0  0  0  0  0  0  0  0  0  0  0  0
   36.8590   30.7020   45.9730 C   0  0  0  0  0  0  0  0  0  0  0  0
   35.9750   30.5580   44.9400 C   0  0  0  0  0  0  0  0  0  0  0  0
   34.7180   30.0420   45.1980 C   0  0  0  0  0  0  0  0  0  0  0  0
   34.3930   29.6830   46.5070 C   0  0  0  0  0  0  0  0  0  0  0  0
   35.2580   29.8170   47.5500 C   0  0  0  0  0  0  0  0  0  0  0  0
   36.3070   30.8640   43.9390 H   0  0  0  0  0  0  0  0  0  0  0  0
   34.1020   29.9720   44.3090 H   0  0  0  0  0  0  0  0  0  0  0  0
   33.4260   29.3230   46.4960 H   0  0  0  0  0  0  0  0  0  0  0  0
   39.8630   32.8480   45.9920 C   0  0  0  0  0  0  0  0  0  0  0  0
   40.7190   32.1250   45.1120 C   0  0  0  0  0  0  0  0  0  0  0  0
   40.2310   30.9390   44.5540 C   0  0  0  0  0  0  0  0  0  0  0  0
   38.9750   30.5310   44.8710 N   0  0  0  0  0  0  0  0  0  0  0  0
   38.1860   31.2460   45.7140 C   0  0  0  0  0  0  0  0  0  0  0  0
   38.6350   32.3810   46.2560 N   0  0  0  0  0  0  0  0  0  0  0  0
   40.2340   33.7720   46.4300 H   0  0  0  0  0  0  0  0  0  0  0  0
   41.7030   32.5330   44.9220 H   0  0  0  0  0  0  0  0  0  0  0  0
   41.1000   30.2430   43.6860 N   0  0  0  0  0  0  0  0  0  0  0  0
   41.9500   29.9490   44.2300 H   0  0  0  0  0  0  0  0  0  0  0  0
   40.6520   30.2160   42.7400 H   0  0  0  0  0  0  0  0  0  0  0  0
   34.2550   28.1620   49.1450 C   0  0  0  0  0  0  0  0  0  0  0  0
   34.3310   27.5420   48.2040 H   0  0  0  0  0  0  0  0  0  0  0  0
   34.7780   27.5450   49.9140 H   0  0  0  0  0  0  0  0  0  0  0  0
   32.9370   28.3120   49.4920 O   0  0  0  0  0  0  0  0  0  0  0  0
   32.6340   26.5430   47.5690 O   0  0  0  0  0  0  0  0  0  0  0  0
   31.9350   27.6450   48.3270 P   0  0  2  0  0  0  0  0  0  0  0  0
   31.4820   28.9270   47.2810 O   0  0  0  0  0  0  0  0  0  0  0  0
   31.1370   29.6290   47.8880 H   0  0  0  0  0  0  0  0  0  0  0  0
   30.5210   27.0420   48.9770 O   0  0  0  0  0  0  0  0  0  0  0  0
   28.3650   27.8830   48.9230 C   0  0  0  0  0  0  0  0  0  0  0  0
   29.3390   27.1540   48.2530 C   0  0  0  0  0  0  0  0  0  0  0  0
   29.0630   26.6370   47.0050 C   0  0  0  0  0  0  0  0  0  0  0  0
   29.8540   26.0900   46.5540 H   0  0  0  0  0  0  0  0  0  0  0  0
   27.8280   26.8400   46.4220 C   0  0  0  0  0  0  0  0  0  0  0  0
   27.6250   26.4290   45.4450 H   0  0  0  0  0  0  0  0  0  0  0  0
   26.8350   27.5650   47.0690 C   0  0  0  0  0  3  0  0  0  0  0  0
   27.1370   28.0700   48.3140 C   0  0  0  0  0  3  0  0  0  0  0  0
   28.6390   29.7410   50.3640 N   0  0  0  0  0  0  0  0  0  0  0  0
   28.5590   28.4740   50.2510 C   0  0  0  0  0  0  0  0  0  0  0  0
   28.6440   27.5300   51.3380 N   0  0  0  0  0  0  0  0  0  0  0  0
   28.7740   30.2370   51.2500 H   0  0  0  0  0  0  0  0  0  0  0  0
   29.3440   26.8910   51.7490 H   0  0  0  0  0  0  0  0  0  0  0  0
   27.7830   27.4110   51.9150 H   0  0  0  0  0  0  0  0  0  0  0  0
  1 25  1  0  0  0  0
  1  3  1  0  0  0  0
  1  2  1  0  0  0  0
  5 10  1  0  0  0  0
  5  4  1  0  0  0  0
  6  5  2  0  0  0  0
  7  8  2  0  0  0  0
  7  6  1  0  0  0  0
  8  9  1  0  0  0  0
  9 10  2  0  0  0  0
 10  1  1  0  0  0  0
 11  7  1  0  0  0  0
 12  8  1  0  0  0  0
 13  9  1  0  0  0  0
 14 19  1  0  0  0  0
 14 20  1  0  0  0  0
 15 14  2  0  0  0  0
 16 17  2  0  0  0  0
 16 15  1  0  0  0  0
 17 18  1  0  0  0  0
 18  6  1  0  0  0  0
 18 19  2  0  0  0  0
 21 15  1  0  0  0  0
 22 23  1  0  0  0  0
 22 16  1  0  0  0  0
 24 22  1  0  0  0  0
 25 28  1  0  0  0  0
 25 27  1  0  0  0  0
 26 25  1  0  0  0  0
 30 29  2  6  0  0  0
 30 33  1  0  0  0  0
 30 28  1  0  0  0  0
 31 32  1  0  0  0  0
 31 30  1  0  0  0  0
 34 43  1  0  0  0  0
 35 34  2  0  0  0  0
 35 33  1  0  0  0  0
 36 35  1  0  0  0  0
 37 36  1  0  0  0  0
 38 36  2  0  0  0  0
 38 40  1  0  0  0  0
 39 38  1  0  0  0  0
 40 41  2  0  0  0  0
 41 34  1  0  0  0  0
 42 45  1  0  0  0  0
 43 42  2  0  0  0  0
 43 44  1  0  0  0  0
 44 46  1  0  0  0  0
 44 47  1  0  0  0  0
M  END
>  <minimizedAffinity>
-6.89714241

>  <minimizedRMSD>
0.951246619

$$$$
