
 OpenBabel03272504183D

 31 32  0  0  0  0  0  0  0  0999 V2000
   39.5450   26.5440   35.4180 O   0  0  0  0  0  0  0  0  0  0  0  0
   38.3290   25.8100   34.8970 P   0  0  1  0  0  0  0  0  0  0  0  0
   36.9310   26.7100   35.1240 O   0  0  0  0  0  0  0  0  0  0  0  0
   36.7460   26.6710   36.1160 H   0  0  0  0  0  0  0  0  0  0  0  0
   38.4310   25.4750   33.2170 O   0  0  0  0  0  0  0  0  0  0  0  0
   37.3030   25.1810   32.4600 C   0  0  0  0  0  0  0  0  0  0  0  0
   36.7780   23.9130   32.2260 C   0  0  0  0  0  0  0  0  0  0  0  0
   35.6320   23.8170   31.4360 C   0  0  0  0  0  0  0  0  0  0  0  0
   35.0670   24.9420   30.9240 N   0  0  0  0  0  0  0  0  0  0  0  0
   35.6210   26.1680   31.1840 C   0  0  0  0  0  0  0  0  0  0  0  0
   36.7320   26.2940   31.9460 N   0  0  0  0  0  0  0  0  0  0  0  0
   35.2660   22.8170   31.2850 H   0  0  0  0  0  0  0  0  0  0  0  0
   35.1290   27.0320   30.7510 H   0  0  0  0  0  0  0  0  0  0  0  0
   37.4880   22.8660   32.8310 N   0  0  0  0  0  0  0  0  0  0  0  0
   37.1470   22.1120   33.4960 H   0  0  0  0  0  0  0  0  0  0  0  0
   38.4950   22.6970   32.6880 H   0  0  0  0  0  0  0  0  0  0  0  0
   38.2600   24.3470   35.7650 O   0  0  0  0  0  0  0  0  0  0  0  0
   39.5680   23.0540   37.3030 C   0  0  0  0  0  0  0  0  0  0  0  0
   39.3570   23.5440   36.0090 C   0  0  0  0  0  0  0  0  0  0  0  0
   40.3020   23.1590   35.0860 C   0  0  0  0  0  0  0  0  0  0  0  0
   40.1830   23.5070   34.0850 H   0  0  0  0  0  0  0  0  0  0  0  0
   41.3770   22.3590   35.3780 C   0  0  0  0  0  0  0  0  0  0  0  0
   42.0930   22.0890   34.5960 H   0  0  0  0  0  0  0  0  0  0  0  0
   41.5490   21.8990   36.6570 C   0  0  0  0  0  3  0  0  0  0  0  0
   40.6350   22.2530   37.6190 C   0  0  0  0  0  3  0  0  0  0  0  0
   38.0820   22.5550   39.1570 N   0  0  0  0  0  0  0  0  0  0  0  0
   38.5990   23.4290   38.3280 C   0  0  0  0  0  0  0  0  0  0  0  0
   38.0750   24.7230   38.5940 N   0  0  0  0  0  0  0  0  0  0  0  0
   37.4090   22.9430   39.8360 H   0  0  0  0  0  0  0  0  0  0  0  0
   37.1270   24.7960   38.1220 H   0  0  0  0  0  0  0  0  0  0  0  0
   38.3300   25.5990   39.0970 H   0  0  0  0  0  0  0  0  0  0  0  0
  2  3  1  0  0  0  0
  2  1  2  1  0  0  0
  2 17  1  0  0  0  0
  3  4  1  0  0  0  0
  5  2  1  0  0  0  0
  6  5  1  0  0  0  0
  7  6  1  0  0  0  0
  7 14  1  0  0  0  0
  8  7  2  0  0  0  0
  9 10  2  0  0  0  0
  9  8  1  0  0  0  0
 10 11  1  0  0  0  0
 11  6  2  0  0  0  0
 12  8  1  0  0  0  0
 13 10  1  0  0  0  0
 14 15  1  0  0  0  0
 16 14  1  0  0  0  0
 17 19  1  0  0  0  0
 18 25  1  0  0  0  0
 18 27  1  0  0  0  0
 19 18  2  0  0  0  0
 20 22  2  0  0  0  0
 20 19  1  0  0  0  0
 21 20  1  0  0  0  0
 22 24  1  0  0  0  0
 23 22  1  0  0  0  0
 24 25  2  0  0  0  0
 26 29  1  0  0  0  0
 27 28  1  0  0  0  0
 27 26  2  0  0  0  0
 28 31  1  0  0  0  0
 30 28  1  0  0  0  0
M  END
>  <minimizedAffinity>
-5.44587278

$$$$

 OpenBabel03272504183D

 31 32  0  0  0  0  0  0  0  0999 V2000
   36.7270   27.1320   35.0240 O   0  0  0  0  0  0  0  0  0  0  0  0
   37.9470   26.2520   34.8590 P   0  0  1  0  0  0  0  0  0  0  0  0
   39.3380   27.0350   35.3760 O   0  0  0  0  0  0  0  0  0  0  0  0
   39.5290   27.7330   34.6720 H   0  0  0  0  0  0  0  0  0  0  0  0
   37.8370   24.7970   35.7630 O   0  0  0  0  0  0  0  0  0  0  0  0
   38.9690   24.0880   36.1500 C   0  0  0  0  0  0  0  0  0  0  0  0
   39.0680   23.2320   37.2420 C   0  0  0  0  0  0  0  0  0  0  0  0
   40.2940   22.6060   37.4700 C   0  0  0  0  0  0  0  0  0  0  0  0
   41.3410   22.8440   36.6370 N   0  0  0  0  0  0  0  0  0  0  0  0
   41.1920   23.6960   35.5730 C   0  0  0  0  0  0  0  0  0  0  0  0
   40.0170   24.3170   35.3260 N   0  0  0  0  0  0  0  0  0  0  0  0
   40.3200   21.9540   38.3260 H   0  0  0  0  0  0  0  0  0  0  0  0
   42.0600   23.8490   34.9410 H   0  0  0  0  0  0  0  0  0  0  0  0
   37.8920   23.1040   37.9930 N   0  0  0  0  0  0  0  0  0  0  0  0
   37.3460   22.2310   38.2560 H   0  0  0  0  0  0  0  0  0  0  0  0
   37.3850   23.9010   38.4080 H   0  0  0  0  0  0  0  0  0  0  0  0
   38.0350   25.8840   33.1990 O   0  0  0  0  0  0  0  0  0  0  0  0
   36.2950   25.3070   31.6550 C   0  0  0  0  0  0  0  0  0  0  0  0
   37.2670   24.9160   32.5830 C   0  0  0  0  0  0  0  0  0  0  0  0
   37.3530   23.5580   32.7900 C   0  0  0  0  0  0  0  0  0  0  0  0
   38.0810   23.2120   33.4890 H   0  0  0  0  0  0  0  0  0  0  0  0
   36.5650   22.6340   32.1530 C   0  0  0  0  0  0  0  0  0  0  0  0
   36.6860   21.5670   32.3630 H   0  0  0  0  0  0  0  0  0  0  0  0
   35.6250   23.0570   31.2500 C   0  0  0  0  0  3  0  0  0  0  0  0
   35.4960   24.4010   31.0050 C   0  0  0  0  0  3  0  0  0  0  0  0
   36.3560   27.2540   30.2060 N   0  0  0  0  0  0  0  0  0  0  0  0
   36.1550   26.7350   31.3930 C   0  0  0  0  0  0  0  0  0  0  0  0
   35.7980   27.7560   32.3170 N   0  0  0  0  0  0  0  0  0  0  0  0
   36.2250   28.2750   30.1480 H   0  0  0  0  0  0  0  0  0  0  0  0
   36.6910   28.2270   32.6440 H   0  0  0  0  0  0  0  0  0  0  0  0
   34.9510   28.1710   32.7590 H   0  0  0  0  0  0  0  0  0  0  0  0
  2  1  2  1  0  0  0
  2  3  1  0  0  0  0
  2  5  1  0  0  0  0
  4  3  1  0  0  0  0
  5  6  1  0  0  0  0
  6  7  1  0  0  0  0
  7  8  2  0  0  0  0
  7 14  1  0  0  0  0
  8 12  1  0  0  0  0
  9  8  1  0  0  0  0
 10  9  2  0  0  0  0
 11 10  1  0  0  0  0
 11  6  2  0  0  0  0
 13 10  1  0  0  0  0
 14 15  1  0  0  0  0
 14 16  1  0  0  0  0
 17  2  1  0  0  0  0
 18 19  1  0  0  0  0
 19 20  2  0  0  0  0
 19 17  1  0  0  0  0
 20 21  1  0  0  0  0
 22 23  1  0  0  0  0
 22 20  1  0  0  0  0
 24 22  2  0  0  0  0
 25 24  1  0  0  0  0
 25 18  2  0  0  0  0
 26 27  2  0  0  0  0
 27 18  1  0  0  0  0
 27 28  1  0  0  0  0
 28 30  1  0  0  0  0
 28 31  1  0  0  0  0
 29 26  1  0  0  0  0
M  END
>  <minimizedAffinity>
-5.3864193

$$$$

 OpenBabel03272504183D

 31 32  0  0  0  0  0  0  0  0999 V2000
   39.9470   21.1300   33.3100 O   0  0  0  0  0  0  0  0  0  0  0  0
   39.1510   22.4100   33.4430 P   0  0  1  0  0  0  0  0  0  0  0  0
   39.2310   23.3260   32.0390 O   0  0  0  0  0  0  0  0  0  0  0  0
   40.1670   23.7040   32.0190 H   0  0  0  0  0  0  0  0  0  0  0  0
   37.4870   22.1230   33.7480 O   0  0  0  0  0  0  0  0  0  0  0  0
   36.7570   21.1960   33.0140 C   0  0  0  0  0  0  0  0  0  0  0  0
   35.7700   20.3490   33.5090 C   0  0  0  0  0  0  0  0  0  0  0  0
   35.1440   19.4830   32.6120 C   0  0  0  0  0  0  0  0  0  0  0  0
   35.5070   19.4870   31.3020 N   0  0  0  0  0  0  0  0  0  0  0  0
   36.4850   20.3410   30.8630 C   0  0  0  0  0  0  0  0  0  0  0  0
   37.1100   21.1930   31.7080 N   0  0  0  0  0  0  0  0  0  0  0  0
   34.3900   18.8490   33.0430 H   0  0  0  0  0  0  0  0  0  0  0  0
   36.7340   20.3020   29.8080 H   0  0  0  0  0  0  0  0  0  0  0  0
   35.5240   20.4790   34.8830 N   0  0  0  0  0  0  0  0  0  0  0  0
   34.6150   20.6800   35.3930 H   0  0  0  0  0  0  0  0  0  0  0  0
   36.2520   20.3870   35.6080 H   0  0  0  0  0  0  0  0  0  0  0  0
   39.8340   23.2500   34.7580 O   0  0  0  0  0  0  0  0  0  0  0  0
   38.6490   24.5480   36.3880 C   0  0  0  0  0  0  0  0  0  0  0  0
   39.3880   24.4790   35.2010 C   0  0  0  0  0  0  0  0  0  0  0  0
   39.5970   25.6900   34.5810 C   0  0  0  0  0  0  0  0  0  0  0  0
   40.1570   25.6880   33.6720 H   0  0  0  0  0  0  0  0  0  0  0  0
   39.1330   26.8880   35.0610 C   0  0  0  0  0  0  0  0  0  0  0  0
   39.3350   27.8160   34.5190 H   0  0  0  0  0  0  0  0  0  0  0  0
   38.4130   26.9140   36.2270 C   0  0  0  0  0  3  0  0  0  0  0  0
   38.1740   25.7340   36.8870 C   0  0  0  0  0  3  0  0  0  0  0  0
   37.4610   22.4570   36.7140 N   0  0  0  0  0  0  0  0  0  0  0  0
   38.3930   23.2970   37.0920 C   0  0  0  0  0  0  0  0  0  0  0  0
   39.0650   22.7950   38.2410 N   0  0  0  0  0  0  0  0  0  0  0  0
   37.3770   21.6070   37.2930 H   0  0  0  0  0  0  0  0  0  0  0  0
   38.4740   23.0260   39.0920 H   0  0  0  0  0  0  0  0  0  0  0  0
   39.9360   22.2840   38.4960 H   0  0  0  0  0  0  0  0  0  0  0  0
  2  1  2  6  0  0  0
  2  5  1  0  0  0  0
  2 17  1  0  0  0  0
  3  2  1  0  0  0  0
  4  3  1  0  0  0  0
  6  7  1  0  0  0  0
  6  5  1  0  0  0  0
  7 14  1  0  0  0  0
  8 12  1  0  0  0  0
  8  7  2  0  0  0  0
  9  8  1  0  0  0  0
 10  9  2  0  0  0  0
 10 11  1  0  0  0  0
 11  6  2  0  0  0  0
 13 10  1  0  0  0  0
 14 15  1  0  0  0  0
 14 16  1  0  0  0  0
 17 19  1  0  0  0  0
 18 25  1  0  0  0  0
 18 27  1  0  0  0  0
 19 18  2  0  0  0  0
 20 22  2  0  0  0  0
 20 19  1  0  0  0  0
 21 20  1  0  0  0  0
 22 24  1  0  0  0  0
 23 22  1  0  0  0  0
 24 25  2  0  0  0  0
 26 27  2  0  0  0  0
 26 29  1  0  0  0  0
 27 28  1  0  0  0  0
 28 31  1  0  0  0  0
 28 30  1  0  0  0  0
M  END
>  <minimizedAffinity>
-5.29101086

$$$$

 OpenBabel03272504183D

 31 32  0  0  0  0  0  0  0  0999 V2000
   39.4900   27.1480   34.4050 O   0  0  0  0  0  0  0  0  0  0  0  0
   38.3480   26.5600   35.2050 P   0  0  1  0  0  0  0  0  0  0  0  0
   38.3860   27.0870   36.7980 O   0  0  0  0  0  0  0  0  0  0  0  0
   39.1630   26.6020   37.2220 H   0  0  0  0  0  0  0  0  0  0  0  0
   36.8110   26.9970   34.5790 O   0  0  0  0  0  0  0  0  0  0  0  0
   36.6400   27.3660   33.2500 C   0  0  0  0  0  0  0  0  0  0  0  0
   36.6160   26.5060   32.1560 C   0  0  0  0  0  0  0  0  0  0  0  0
   36.4310   27.0650   30.8910 C   0  0  0  0  0  0  0  0  0  0  0  0
   36.2830   28.4100   30.7610 N   0  0  0  0  0  0  0  0  0  0  0  0
   36.3130   29.2150   31.8700 C   0  0  0  0  0  0  0  0  0  0  0  0
   36.4900   28.7030   33.1090 N   0  0  0  0  0  0  0  0  0  0  0  0
   36.4200   26.3600   30.0790 H   0  0  0  0  0  0  0  0  0  0  0  0
   36.1890   30.2800   31.7080 H   0  0  0  0  0  0  0  0  0  0  0  0
   36.7840   25.1510   32.4730 N   0  0  0  0  0  0  0  0  0  0  0  0
   36.1650   24.3190   32.2450 H   0  0  0  0  0  0  0  0  0  0  0  0
   37.5880   24.7800   33.0030 H   0  0  0  0  0  0  0  0  0  0  0  0
   38.5380   24.8700   35.1170 O   0  0  0  0  0  0  0  0  0  0  0  0
   39.4710   23.4270   36.7880 C   0  0  0  0  0  0  0  0  0  0  0  0
   39.6260   24.1900   35.6250 C   0  0  0  0  0  0  0  0  0  0  0  0
   40.8970   24.1800   35.0960 C   0  0  0  0  0  0  0  0  0  0  0  0
   41.0650   24.7480   34.2080 H   0  0  0  0  0  0  0  0  0  0  0  0
   41.9490   23.4880   35.6390 C   0  0  0  0  0  0  0  0  0  0  0  0
   42.9350   23.5220   35.1670 H   0  0  0  0  0  0  0  0  0  0  0  0
   41.7560   22.7520   36.7790 C   0  0  0  0  0  3  0  0  0  0  0  0
   40.5080   22.7260   37.3500 C   0  0  0  0  0  3  0  0  0  0  0  0
   37.7410   24.3160   38.2410 N   0  0  0  0  0  0  0  0  0  0  0  0
   38.1460   23.3980   37.3980 C   0  0  0  0  0  0  0  0  0  0  0  0
   37.1210   22.4310   37.2030 N   0  0  0  0  0  0  0  0  0  0  0  0
   36.7850   24.1860   38.6040 H   0  0  0  0  0  0  0  0  0  0  0  0
   37.1610   21.7440   38.0120 H   0  0  0  0  0  0  0  0  0  0  0  0
   36.3650   22.1960   36.5270 H   0  0  0  0  0  0  0  0  0  0  0  0
  2  1  2  6  0  0  0
  2  3  1  0  0  0  0
  3  4  1  0  0  0  0
  5  2  1  0  0  0  0
  6  5  1  0  0  0  0
  7 14  1  0  0  0  0
  7  6  2  0  0  0  0
  8  7  1  0  0  0  0
  9  8  2  0  0  0  0
  9 10  1  0  0  0  0
 10 11  2  0  0  0  0
 11  6  1  0  0  0  0
 12  8  1  0  0  0  0
 13 10  1  0  0  0  0
 14 16  1  0  0  0  0
 15 14  1  0  0  0  0
 17  2  1  0  0  0  0
 17 19  1  0  0  0  0
 18 25  1  0  0  0  0
 18 27  1  0  0  0  0
 19 18  2  0  0  0  0
 20 19  1  0  0  0  0
 20 22  2  0  0  0  0
 21 20  1  0  0  0  0
 22 24  1  0  0  0  0
 23 22  1  0  0  0  0
 24 25  2  0  0  0  0
 26 29  1  0  0  0  0
 27 26  2  0  0  0  0
 28 27  1  0  0  0  0
 28 30  1  0  0  0  0
 31 28  1  0  0  0  0
M  END
>  <minimizedAffinity>
-5.20547104

$$$$

 OpenBabel03272504183D

 31 32  0  0  0  0  0  0  0  0999 V2000
   37.9210   23.5490   36.1240 O   0  0  0  0  0  0  0  0  0  0  0  0
   38.6780   23.7520   34.8300 P   0  0  1  0  0  0  0  0  0  0  0  0
   37.7610   23.2790   33.5060 O   0  0  0  0  0  0  0  0  0  0  0  0
   37.7430   22.2700   33.5410 H   0  0  0  0  0  0  0  0  0  0  0  0
   39.1070   25.3940   34.5680 O   0  0  0  0  0  0  0  0  0  0  0  0
   38.1500   26.3670   34.3010 C   0  0  0  0  0  0  0  0  0  0  0  0
   37.8200   27.4400   35.1220 C   0  0  0  0  0  0  0  0  0  0  0  0
   36.8290   28.3180   34.6810 C   0  0  0  0  0  0  0  0  0  0  0  0
   36.2210   28.1050   33.4830 N   0  0  0  0  0  0  0  0  0  0  0  0
   36.5830   27.0330   32.7100 C   0  0  0  0  0  0  0  0  0  0  0  0
   37.5400   26.1650   33.1100 N   0  0  0  0  0  0  0  0  0  0  0  0
   36.6090   29.1310   35.3500 H   0  0  0  0  0  0  0  0  0  0  0  0
   36.0660   26.9120   31.7640 H   0  0  0  0  0  0  0  0  0  0  0  0
   38.5450   27.5060   36.3190 N   0  0  0  0  0  0  0  0  0  0  0  0
   39.1340   28.2970   36.7140 H   0  0  0  0  0  0  0  0  0  0  0  0
   38.5940   26.7360   37.0040 H   0  0  0  0  0  0  0  0  0  0  0  0
   40.0910   22.8100   34.9610 O   0  0  0  0  0  0  0  0  0  0  0  0
   41.9570   22.9830   36.4550 C   0  0  0  0  0  0  0  0  0  0  0  0
   41.3370   23.3290   35.2490 C   0  0  0  0  0  0  0  0  0  0  0  0
   42.0660   24.1820   34.4510 C   0  0  0  0  0  0  0  0  0  0  0  0
   41.6340   24.4730   33.5200 H   0  0  0  0  0  0  0  0  0  0  0  0
   43.3030   24.6720   34.7820 C   0  0  0  0  0  0  0  0  0  0  0  0
   43.8290   25.3470   34.1010 H   0  0  0  0  0  0  0  0  0  0  0  0
   43.8770   24.3090   35.9720 C   0  0  0  0  0  3  0  0  0  0  0  0
   43.1940   23.4600   36.8080 C   0  0  0  0  0  3  0  0  0  0  0  0
   41.6550   20.8690   37.6100 N   0  0  0  0  0  0  0  0  0  0  0  0
   41.2340   22.0810   37.3460 C   0  0  0  0  0  0  0  0  0  0  0  0
   40.0200   22.3380   38.0420 N   0  0  0  0  0  0  0  0  0  0  0  0
   41.0570   20.3290   38.2540 H   0  0  0  0  0  0  0  0  0  0  0  0
   39.2260   21.9110   37.4820 H   0  0  0  0  0  0  0  0  0  0  0  0
   39.6820   22.8050   38.9090 H   0  0  0  0  0  0  0  0  0  0  0  0
  2 17  1  0  0  0  0
  2  1  2  1  0  0  0
  3  4  1  0  0  0  0
  3  2  1  0  0  0  0
  5  2  1  0  0  0  0
  6  5  1  0  0  0  0
  6  7  1  0  0  0  0
  7 14  1  0  0  0  0
  8  7  2  0  0  0  0
  8 12  1  0  0  0  0
  9  8  1  0  0  0  0
 10 11  1  0  0  0  0
 10  9  2  0  0  0  0
 11  6  2  0  0  0  0
 13 10  1  0  0  0  0
 14 15  1  0  0  0  0
 14 16  1  0  0  0  0
 17 19  1  0  0  0  0
 18 25  1  0  0  0  0
 18 27  1  0  0  0  0
 19 18  2  0  0  0  0
 20 22  2  0  0  0  0
 20 19  1  0  0  0  0
 21 20  1  0  0  0  0
 22 24  1  0  0  0  0
 23 22  1  0  0  0  0
 24 25  2  0  0  0  0
 26 29  1  0  0  0  0
 27 26  2  0  0  0  0
 27 28  1  0  0  0  0
 28 31  1  0  0  0  0
 30 28  1  0  0  0  0
M  END
>  <minimizedAffinity>
-5.19840479

$$$$

 OpenBabel03272504183D

 31 32  0  0  0  0  0  0  0  0999 V2000
   40.0060   27.2500   33.6210 O   0  0  0  0  0  0  0  0  0  0  0  0
   38.9620   26.7350   34.5870 P   0  0  1  0  0  0  0  0  0  0  0  0
   38.9140   27.6620   35.9850 O   0  0  0  0  0  0  0  0  0  0  0  0
   39.7540   27.4240   36.4920 H   0  0  0  0  0  0  0  0  0  0  0  0
   37.3790   26.7640   33.9230 O   0  0  0  0  0  0  0  0  0  0  0  0
   36.8020   27.9400   33.4580 C   0  0  0  0  0  0  0  0  0  0  0  0
   36.8880   28.4390   32.1620 C   0  0  0  0  0  0  0  0  0  0  0  0
   36.2380   29.6420   31.8820 C   0  0  0  0  0  0  0  0  0  0  0  0
   35.5500   30.2840   32.8640 N   0  0  0  0  0  0  0  0  0  0  0  0
   35.4950   29.7500   34.1250 C   0  0  0  0  0  0  0  0  0  0  0  0
   36.1140   28.5860   34.4270 N   0  0  0  0  0  0  0  0  0  0  0  0
   36.3340   29.9860   30.8680 H   0  0  0  0  0  0  0  0  0  0  0  0
   34.9320   30.3040   34.8690 H   0  0  0  0  0  0  0  0  0  0  0  0
   37.6360   27.6490   31.2790 N   0  0  0  0  0  0  0  0  0  0  0  0
   37.3600   27.2300   30.3430 H   0  0  0  0  0  0  0  0  0  0  0  0
   38.6130   27.3640   31.4500 H   0  0  0  0  0  0  0  0  0  0  0  0
   39.4010   25.1270   34.9360 O   0  0  0  0  0  0  0  0  0  0  0  0
   39.9770   23.4780   36.5780 C   0  0  0  0  0  0  0  0  0  0  0  0
   39.1260   24.4960   36.1330 C   0  0  0  0  0  0  0  0  0  0  0  0
   38.0660   24.7670   36.9680 C   0  0  0  0  0  0  0  0  0  0  0  0
   37.3890   25.5370   36.6710 H   0  0  0  0  0  0  0  0  0  0  0  0
   37.8330   24.1110   38.1490 C   0  0  0  0  0  0  0  0  0  0  0  0
   36.9710   24.3770   38.7680 H   0  0  0  0  0  0  0  0  0  0  0  0
   38.6900   23.1200   38.5510 C   0  0  0  0  0  3  0  0  0  0  0  0
   39.7640   22.8080   37.7560 C   0  0  0  0  0  3  0  0  0  0  0  0
   41.2740   21.9560   35.2030 N   0  0  0  0  0  0  0  0  0  0  0  0
   41.1200   23.1430   35.7350 C   0  0  0  0  0  0  0  0  0  0  0  0
   42.2010   23.9890   35.3630 N   0  0  0  0  0  0  0  0  0  0  0  0
   42.1220   21.8420   34.6270 H   0  0  0  0  0  0  0  0  0  0  0  0
   43.0180   23.7770   36.0070 H   0  0  0  0  0  0  0  0  0  0  0  0
   42.4300   24.7330   34.6710 H   0  0  0  0  0  0  0  0  0  0  0  0
  2  1  2  6  0  0  0
  2 17  1  0  0  0  0
  2  3  1  0  0  0  0
  3  4  1  0  0  0  0
  5  2  1  0  0  0  0
  6  5  1  0  0  0  0
  6 11  1  0  0  0  0
  7  6  2  0  0  0  0
  8  7  1  0  0  0  0
  8  9  2  0  0  0  0
  9 10  1  0  0  0  0
 10 11  2  0  0  0  0
 10 13  1  0  0  0  0
 12  8  1  0  0  0  0
 14 16  1  0  0  0  0
 14  7  1  0  0  0  0
 15 14  1  0  0  0  0
 17 19  1  0  0  0  0
 18 25  1  0  0  0  0
 19 18  2  0  0  0  0
 19 20  1  0  0  0  0
 20 22  2  0  0  0  0
 21 20  1  0  0  0  0
 22 24  1  0  0  0  0
 22 23  1  0  0  0  0
 25 24  2  0  0  0  0
 26 27  2  0  0  0  0
 27 18  1  0  0  0  0
 28 27  1  0  0  0  0
 28 30  1  0  0  0  0
 29 26  1  0  0  0  0
 31 28  1  0  0  0  0
M  END
>  <minimizedAffinity>
-5.04649162

$$$$

 OpenBabel03272504183D

 31 32  0  0  0  0  0  0  0  0999 V2000
   36.8200   26.8940   35.1160 O   0  0  0  0  0  0  0  0  0  0  0  0
   38.0760   26.0570   35.0220 P   0  0  1  0  0  0  0  0  0  0  0  0
   39.4080   26.8880   35.6150 O   0  0  0  0  0  0  0  0  0  0  0  0
   39.6150   27.5910   34.9210 H   0  0  0  0  0  0  0  0  0  0  0  0
   37.9660   24.5990   35.9210 O   0  0  0  0  0  0  0  0  0  0  0  0
   39.0970   23.8800   36.2910 C   0  0  0  0  0  0  0  0  0  0  0  0
   39.2400   23.1090   37.4400 C   0  0  0  0  0  0  0  0  0  0  0  0
   40.4560   22.4550   37.6400 C   0  0  0  0  0  0  0  0  0  0  0  0
   41.4530   22.5860   36.7250 N   0  0  0  0  0  0  0  0  0  0  0  0
   41.2620   23.3570   35.6080 C   0  0  0  0  0  0  0  0  0  0  0  0
   40.0950   24.0030   35.3860 N   0  0  0  0  0  0  0  0  0  0  0  0
   40.5180   21.8720   38.5420 H   0  0  0  0  0  0  0  0  0  0  0  0
   42.0910   23.4260   34.9110 H   0  0  0  0  0  0  0  0  0  0  0  0
   38.1130   23.0850   38.2730 N   0  0  0  0  0  0  0  0  0  0  0  0
   37.5560   22.2580   38.6390 H   0  0  0  0  0  0  0  0  0  0  0  0
   37.6610   23.9310   38.6530 H   0  0  0  0  0  0  0  0  0  0  0  0
   38.2710   25.6920   33.3700 O   0  0  0  0  0  0  0  0  0  0  0  0
   36.9920   24.0100   32.2390 C   0  0  0  0  0  0  0  0  0  0  0  0
   37.2300   25.3580   32.5270 C   0  0  0  0  0  0  0  0  0  0  0  0
   36.3680   26.2390   31.9140 C   0  0  0  0  0  0  0  0  0  0  0  0
   36.5100   27.2790   32.1040 H   0  0  0  0  0  0  0  0  0  0  0  0
   35.3460   25.8580   31.0820 C   0  0  0  0  0  0  0  0  0  0  0  0
   34.6960   26.6100   30.6270 H   0  0  0  0  0  0  0  0  0  0  0  0
   35.1450   24.5270   30.8260 C   0  0  0  0  0  3  0  0  0  0  0  0
   35.9770   23.6050   31.4100 C   0  0  0  0  0  3  0  0  0  0  0  0
   39.1170   22.8620   32.4800 N   0  0  0  0  0  0  0  0  0  0  0  0
   37.8740   23.0260   32.8590 C   0  0  0  0  0  0  0  0  0  0  0  0
   37.5640   22.1270   33.9160 N   0  0  0  0  0  0  0  0  0  0  0  0
   39.6390   22.1360   32.9950 H   0  0  0  0  0  0  0  0  0  0  0  0
   37.3360   21.1830   33.4870 H   0  0  0  0  0  0  0  0  0  0  0  0
   37.4930   22.1120   34.9550 H   0  0  0  0  0  0  0  0  0  0  0  0
  2  1  2  1  0  0  0
  2  3  1  0  0  0  0
  2  5  1  0  0  0  0
  4  3  1  0  0  0  0
  5  6  1  0  0  0  0
  6  7  1  0  0  0  0
  7  8  2  0  0  0  0
  7 14  1  0  0  0  0
  8 12  1  0  0  0  0
  9  8  1  0  0  0  0
 10  9  2  0  0  0  0
 11 10  1  0  0  0  0
 11  6  2  0  0  0  0
 13 10  1  0  0  0  0
 14 15  1  0  0  0  0
 14 16  1  0  0  0  0
 17  2  1  0  0  0  0
 18 19  1  0  0  0  0
 18 27  1  0  0  0  0
 19 17  1  0  0  0  0
 20 21  1  0  0  0  0
 20 19  2  0  0  0  0
 22 20  1  0  0  0  0
 23 22  1  0  0  0  0
 24 22  2  0  0  0  0
 24 25  1  0  0  0  0
 25 18  2  0  0  0  0
 26 27  2  0  0  0  0
 26 29  1  0  0  0  0
 27 28  1  0  0  0  0
 28 31  1  0  0  0  0
 30 28  1  0  0  0  0
M  END
>  <minimizedAffinity>
-4.9782486

$$$$

 OpenBabel03272504183D

 31 32  0  0  0  0  0  0  0  0999 V2000
   39.7550   27.2220   34.1290 O   0  0  0  0  0  0  0  0  0  0  0  0
   38.6890   26.7520   35.0950 P   0  0  1  0  0  0  0  0  0  0  0  0
   38.6410   27.7170   36.4670 O   0  0  0  0  0  0  0  0  0  0  0  0
   39.4690   27.4770   36.9910 H   0  0  0  0  0  0  0  0  0  0  0  0
   37.1150   26.7920   34.4100 O   0  0  0  0  0  0  0  0  0  0  0  0
   36.6210   27.9270   33.7780 C   0  0  0  0  0  0  0  0  0  0  0  0
   36.5660   28.1430   32.4050 C   0  0  0  0  0  0  0  0  0  0  0  0
   36.0310   29.3510   31.9560 C   0  0  0  0  0  0  0  0  0  0  0  0
   35.5860   30.2700   32.8550 N   0  0  0  0  0  0  0  0  0  0  0  0
   35.6620   30.0080   34.1980 C   0  0  0  0  0  0  0  0  0  0  0  0
   36.1740   28.8470   34.6640 N   0  0  0  0  0  0  0  0  0  0  0  0
   36.0100   29.4710   30.8880 H   0  0  0  0  0  0  0  0  0  0  0  0
   35.2920   30.7760   34.8700 H   0  0  0  0  0  0  0  0  0  0  0  0
   37.0670   27.0910   31.6260 N   0  0  0  0  0  0  0  0  0  0  0  0
   36.6010   26.5430   30.8450 H   0  0  0  0  0  0  0  0  0  0  0  0
   38.0160   26.7010   31.7310 H   0  0  0  0  0  0  0  0  0  0  0  0
   39.0950   25.1460   35.4920 O   0  0  0  0  0  0  0  0  0  0  0  0
   38.2260   22.9240   35.7140 C   0  0  0  0  0  0  0  0  0  0  0  0
   38.5070   24.0380   34.9160 C   0  0  0  0  0  0  0  0  0  0  0  0
   38.1540   23.9030   33.5920 C   0  0  0  0  0  0  0  0  0  0  0  0
   38.3490   24.7280   32.9440 H   0  0  0  0  0  0  0  0  0  0  0  0
   37.5720   22.7790   33.0650 C   0  0  0  0  0  0  0  0  0  0  0  0
   37.3150   22.7360   32.0030 H   0  0  0  0  0  0  0  0  0  0  0  0
   37.3120   21.7080   33.8800 C   0  0  0  0  0  3  0  0  0  0  0  0
   37.6440   21.7890   35.2090 C   0  0  0  0  0  3  0  0  0  0  0  0
   39.8200   22.9860   37.5430 N   0  0  0  0  0  0  0  0  0  0  0  0
   38.5770   23.0050   37.1280 C   0  0  0  0  0  0  0  0  0  0  0  0
   37.6940   23.1130   38.2370 N   0  0  0  0  0  0  0  0  0  0  0  0
   39.9390   23.0500   38.5660 H   0  0  0  0  0  0  0  0  0  0  0  0
   37.5680   22.1430   38.6500 H   0  0  0  0  0  0  0  0  0  0  0  0
   37.1460   23.8330   38.7530 H   0  0  0  0  0  0  0  0  0  0  0  0
  2  1  2  6  0  0  0
  2 17  1  0  0  0  0
  2  3  1  0  0  0  0
  3  4  1  0  0  0  0
  5  2  1  0  0  0  0
  6  5  1  0  0  0  0
  6 11  1  0  0  0  0
  7  6  2  0  0  0  0
  8  7  1  0  0  0  0
  8  9  2  0  0  0  0
  9 10  1  0  0  0  0
 10 11  2  0  0  0  0
 10 13  1  0  0  0  0
 12  8  1  0  0  0  0
 14 16  1  0  0  0  0
 14  7  1  0  0  0  0
 15 14  1  0  0  0  0
 18 27  1  0  0  0  0
 19 17  1  0  0  0  0
 19 18  2  0  0  0  0
 20 19  1  0  0  0  0
 21 20  1  0  0  0  0
 22 20  2  0  0  0  0
 22 24  1  0  0  0  0
 23 22  1  0  0  0  0
 24 25  2  0  0  0  0
 25 18  1  0  0  0  0
 26 29  1  0  0  0  0
 27 26  2  0  0  0  0
 27 28  1  0  0  0  0
 28 30  1  0  0  0  0
 28 31  1  0  0  0  0
M  END
>  <minimizedAffinity>
-4.97454453

$$$$

 OpenBabel03272504183D

 31 32  0  0  0  0  0  0  0  0999 V2000
   39.5520   27.1910   32.3870 O   0  0  0  0  0  0  0  0  0  0  0  0
   38.9600   25.8770   32.8480 P   0  0  1  0  0  0  0  0  0  0  0  0
   39.3370   24.6330   31.7860 O   0  0  0  0  0  0  0  0  0  0  0  0
   38.7710   24.8010   30.9670 H   0  0  0  0  0  0  0  0  0  0  0  0
   39.5400   25.3980   34.3910 O   0  0  0  0  0  0  0  0  0  0  0  0
   38.8170   24.5390   35.2110 C   0  0  0  0  0  0  0  0  0  0  0  0
   38.1860   24.8790   36.4040 C   0  0  0  0  0  0  0  0  0  0  0  0
   37.5040   23.8740   37.0900 C   0  0  0  0  0  0  0  0  0  0  0  0
   37.4720   22.6120   36.5860 N   0  0  0  0  0  0  0  0  0  0  0  0
   38.1090   22.3280   35.4060 C   0  0  0  0  0  0  0  0  0  0  0  0
   38.7790   23.2800   34.7180 N   0  0  0  0  0  0  0  0  0  0  0  0
   37.0330   24.1870   38.0050 H   0  0  0  0  0  0  0  0  0  0  0  0
   38.0510   21.3040   35.0510 H   0  0  0  0  0  0  0  0  0  0  0  0
   38.3210   26.2240   36.7730 N   0  0  0  0  0  0  0  0  0  0  0  0
   37.5730   26.9450   36.9930 H   0  0  0  0  0  0  0  0  0  0  0  0
   39.2280   26.7030   36.8810 H   0  0  0  0  0  0  0  0  0  0  0  0
   37.2770   26.1240   32.9250 O   0  0  0  0  0  0  0  0  0  0  0  0
   36.1310   28.0240   32.0180 C   0  0  0  0  0  0  0  0  0  0  0  0
   36.6880   27.3580   33.1160 C   0  0  0  0  0  0  0  0  0  0  0  0
   36.5850   28.0330   34.3120 C   0  0  0  0  0  0  0  0  0  0  0  0
   36.9950   27.5630   35.1780 H   0  0  0  0  0  0  0  0  0  0  0  0
   35.9900   29.2600   34.4510 C   0  0  0  0  0  0  0  0  0  0  0  0
   35.9420   29.7420   35.4320 H   0  0  0  0  0  0  0  0  0  0  0  0
   35.4560   29.8800   33.3520 C   0  0  0  0  0  3  0  0  0  0  0  0
   35.5310   29.2520   32.1330 C   0  0  0  0  0  3  0  0  0  0  0  0
   36.6750   27.9600   29.6540 N   0  0  0  0  0  0  0  0  0  0  0  0
   36.2090   27.3600   30.7210 C   0  0  0  0  0  0  0  0  0  0  0  0
   35.8190   26.0300   30.4030 N   0  0  0  0  0  0  0  0  0  0  0  0
   36.6800   27.3860   28.7970 H   0  0  0  0  0  0  0  0  0  0  0  0
   34.8510   26.0690   29.9690 H   0  0  0  0  0  0  0  0  0  0  0  0
   36.1830   25.0560   30.4630 H   0  0  0  0  0  0  0  0  0  0  0  0
  2  1  2  6  0  0  0
  2 17  1  0  0  0  0
  2  5  1  0  0  0  0
  3  2  1  0  0  0  0
  4  3  1  0  0  0  0
  5  6  1  0  0  0  0
  6  7  1  0  0  0  0
  7 14  1  0  0  0  0
  7  8  2  0  0  0  0
  8 12  1  0  0  0  0
  9  8  1  0  0  0  0
 10  9  2  0  0  0  0
 11  6  2  0  0  0  0
 11 10  1  0  0  0  0
 13 10  1  0  0  0  0
 14 16  1  0  0  0  0
 14 15  1  0  0  0  0
 17 19  1  0  0  0  0
 18 25  2  0  0  0  0
 18 19  1  0  0  0  0
 19 20  2  0  0  0  0
 20 22  1  0  0  0  0
 20 21  1  0  0  0  0
 22 23  1  0  0  0  0
 24 22  2  0  0  0  0
 25 24  1  0  0  0  0
 26 27  2  0  0  0  0
 27 18  1  0  0  0  0
 28 31  1  0  0  0  0
 28 27  1  0  0  0  0
 29 26  1  0  0  0  0
 30 28  1  0  0  0  0
M  END
>  <minimizedAffinity>
-4.95008612

$$$$
