
 OpenBabel03272500043D

 34 36  0  0  0  0  0  0  0  0999 V2000
   36.0480   29.2450   49.3220 C   0  0  0  0  0  0  0  0  0  0  0  0
   35.9130   30.3740   48.4710 C   0  0  0  0  0  0  0  0  0  0  0  0
   34.8060   30.4270   47.6330 C   0  0  0  0  0  0  0  0  0  0  0  0
   33.9090   29.3950   47.6700 N   0  0  0  0  0  0  0  0  0  0  0  0
   34.0500   28.3470   48.4690 C   0  0  0  0  0  0  0  0  0  0  0  0
   35.1330   28.2590   49.3140 N   0  0  0  0  0  0  0  0  0  0  0  0
   36.9170   29.2150   49.9730 H   0  0  0  0  0  0  0  0  0  0  0  0
   34.7110   31.2820   46.9950 H   0  0  0  0  0  0  0  0  0  0  0  0
   36.9260   31.3660   48.5300 N   0  0  0  0  0  0  0  0  0  0  0  0
   37.1790   32.0770   49.6220 C   0  0  0  0  0  0  0  0  0  0  0  0
   38.1910   33.0360   49.6090 C   0  0  0  0  0  0  0  0  0  0  0  0
   38.8620   33.1610   48.4120 C   0  0  0  0  0  0  0  0  0  0  0  0
   39.7840   34.0270   48.3840 O   0  0  0  0  0  0  0  0  0  0  0  0
   38.6350   32.4660   47.2970 N   0  0  0  0  0  0  0  0  0  0  0  0
   37.6380   31.5460   47.3730 C   0  0  0  0  0  0  0  0  0  0  0  0
   37.4170   30.8730   46.3030 O   0  0  0  0  0  0  0  0  0  0  0  0
   36.5820   31.8800   50.4850 H   0  0  0  0  0  0  0  0  0  0  0  0
   38.4010   33.6130   50.4850 H   0  0  0  0  0  0  0  0  0  0  0  0
   39.1820   32.6170   46.4400 H   0  0  0  0  0  0  0  0  0  0  0  0
   33.1590   27.2970   48.5160 O   0  0  0  0  0  0  0  0  0  0  0  0
   31.2100   27.4370   46.9920 C   0  0  0  0  0  0  0  0  0  0  0  0
   31.8450   27.4620   48.2110 C   0  0  0  0  0  0  0  0  0  0  0  0
   31.0350   27.6910   49.3280 C   0  0  0  0  0  0  0  0  0  0  0  0
   31.3970   27.7360   50.3630 H   0  0  0  0  0  0  0  0  0  0  0  0
   29.6830   27.8730   49.1450 C   0  0  0  0  0  0  0  0  0  0  0  0
   29.0360   28.0500   49.9850 H   0  0  0  0  0  0  0  0  0  0  0  0
   29.0900   27.8420   47.9130 C   0  0  0  0  0  3  0  0  0  0  0  0
   29.8580   27.6210   46.8170 C   0  0  0  0  0  3  0  0  0  0  0  0
   31.3740   26.7120   44.7450 N   0  0  0  0  0  0  0  0  0  0  0  0
   31.9840   27.1740   45.8120 C   0  0  0  0  0  0  0  0  0  0  0  0
   33.2160   27.1550   45.1280 N   0  0  0  0  0  0  0  0  0  0  0  0
   30.3690   26.5230   44.6980 H   0  0  0  0  0  0  0  0  0  0  0  0
   33.8910   26.3330   45.1060 H   0  0  0  0  0  0  0  0  0  0  0  0
   33.6130   27.9610   44.5580 H   0  0  0  0  0  0  0  0  0  0  0  0
  1  7  1  0  0  0  0
  2  9  1  0  0  0  0
  2  1  2  0  0  0  0
  3  4  2  0  0  0  0
  3  2  1  0  0  0  0
  4  5  1  0  0  0  0
  5 20  1  0  0  0  0
  5  6  2  0  0  0  0
  6  1  1  0  0  0  0
  8  3  1  0  0  0  0
  9 10  1  0  0  0  0
 10 17  1  0  0  0  0
 11 10  2  0  0  0  0
 11 18  1  0  0  0  0
 12 11  1  0  0  0  0
 13 12  2  0  0  0  0
 14 15  1  0  0  0  0
 14 12  1  0  0  0  0
 15  9  1  0  0  0  0
 16 15  2  0  0  0  0
 19 14  1  0  0  0  0
 21 22  1  0  0  0  0
 22 20  1  0  0  0  0
 22 23  2  0  0  0  0
 23 24  1  0  0  0  0
 25 23  1  0  0  0  0
 25 26  1  0  0  0  0
 27 25  2  0  0  0  0
 28 21  2  0  0  0  0
 28 27  1  0  0  0  0
 29 30  2  0  0  0  0
 30 21  1  0  0  0  0
 31 30  1  0  0  0  0
 32 29  1  0  0  0  0
 33 31  1  0  0  0  0
 34 31  1  0  0  0  0
M  END
>  <minimizedAffinity>
-5.56448555

>  <minimizedRMSD>
0.987464488

$$$$
