
 OpenBabel03272508273D

 43 46  0  0  1  0  0  0  0  0999 V2000
   33.9140   29.0090   47.3610 C   0  0  2  0  0  0  0  0  0  0  0  0
   34.7130   28.2130   48.3860 C   0  0  2  0  0  0  0  0  0  0  0  0
   33.8380   27.9670   49.4110 O   0  0  0  0  0  0  0  0  0  0  0  0
   32.5440   28.0150   48.9700 C   0  0  0  0  0  0  0  0  0  0  0  0
   32.5740   28.2740   47.4740 C   0  0  1  0  0  0  0  0  0  0  0  0
   33.7550   30.0480   47.6680 H   0  0  0  0  0  0  0  0  0  0  0  0
   35.0220   27.2820   47.8730 H   0  0  0  0  0  0  0  0  0  0  0  0
   32.0490   27.0230   49.0790 H   0  0  0  0  0  0  0  0  0  0  0  0
   32.0220   28.8420   49.4610 H   0  0  0  0  0  0  0  0  0  0  0  0
   32.7240   27.3400   46.9050 H   0  0  0  0  0  0  0  0  0  0  0  0
   35.7370   30.5130   48.9940 C   0  0  1  0  0  0  0  0  0  0  0  0
   35.8490   29.0840   48.8280 C   0  0  1  0  0  0  0  0  0  0  0  0
   35.9420   29.6140   50.2210 C   0  0  0  0  0  0  0  0  0  0  0  0
   34.8290   31.1200   49.1280 H   0  0  0  0  0  0  0  0  0  0  0  0
   36.8240   28.7270   48.3820 H   0  0  0  0  0  0  0  0  0  0  0  0
   36.9250   29.6040   50.7220 H   0  0  0  0  0  0  0  0  0  0  0  0
   35.1090   29.4540   50.9200 H   0  0  0  0  0  0  0  0  0  0  0  0
   36.9360   31.4190   48.7580 C   0  0  0  0  0  0  0  0  0  0  0  0
   37.1460   32.4500   49.6960 C   0  0  0  0  0  0  0  0  0  0  0  0
   38.2390   33.2650   49.4180 C   0  0  0  0  0  0  0  0  0  0  0  0
   39.0230   33.0540   48.3160 N   0  0  0  0  0  0  0  0  0  0  0  0
   38.7710   32.0530   47.4590 C   0  0  0  0  0  0  0  0  0  0  0  0
   37.7200   31.2140   47.6640 N   0  0  0  0  0  0  0  0  0  0  0  0
   36.4990   32.5600   50.5340 H   0  0  0  0  0  0  0  0  0  0  0  0
   38.3900   34.0530   50.1430 H   0  0  0  0  0  0  0  0  0  0  0  0
   39.4260   31.9350   46.6060 H   0  0  0  0  0  0  0  0  0  0  0  0
   34.4190   28.9190   46.0810 O   0  0  0  0  0  0  0  0  0  0  0  0
   35.0490   28.1680   45.9680 H   0  0  0  0  0  0  0  0  0  0  0  0
   31.5340   29.0290   47.0330 O   0  0  0  0  0  0  0  0  0  0  0  0
   29.4860   28.8470   46.1150 C   0  0  0  0  0  0  0  0  0  0  0  0
   30.8620   28.7350   45.8650 C   0  0  0  0  0  0  0  0  0  0  0  0
   31.2430   28.3780   44.5900 C   0  0  0  0  0  0  0  0  0  0  0  0
   32.3180   28.3230   44.5160 H   0  0  0  0  0  0  0  0  0  0  0  0
   30.3080   28.1440   43.6110 C   0  0  0  0  0  0  0  0  0  0  0  0
   30.7140   27.8700   42.6480 H   0  0  0  0  0  0  0  0  0  0  0  0
   28.9530   28.2500   43.8370 C   0  0  0  0  0  3  0  0  0  0  0  0
   28.5460   28.6060   45.1060 C   0  0  0  0  0  3  0  0  0  0  0  0
   27.7910   29.9850   47.5550 N   0  0  0  0  0  0  0  0  0  0  0  0
   28.8280   29.2130   47.3850 C   0  0  0  0  0  0  0  0  0  0  0  0
   29.2290   28.7680   48.6680 N   0  0  0  0  0  0  0  0  0  0  0  0
   27.3480   30.4160   46.6940 H   0  0  0  0  0  0  0  0  0  0  0  0
   29.9400   29.3090   49.2340 H   0  0  0  0  0  0  0  0  0  0  0  0
   29.0020   27.9690   49.2830 H   0  0  0  0  0  0  0  0  0  0  0  0
  1  5  1  0  0  0  0
  1  6  1  1  0  0  0
  1  2  1  0  0  0  0
  2  7  1  6  0  0  0
  2 12  1  0  0  0  0
  2  3  1  0  0  0  0
  4  8  1  0  0  0  0
  4  3  1  0  0  0  0
  4  9  1  0  0  0  0
  5 10  1  6  0  0  0
  5  4  1  0  0  0  0
 11 14  1  6  0  0  0
 11 13  1  0  0  0  0
 12 15  1  6  0  0  0
 12 11  1  0  0  0  0
 12 13  1  0  0  0  0
 13 16  1  0  0  0  0
 13 17  1  0  0  0  0
 18 11  1  0  0  0  0
 18 19  1  0  0  0  0
 19 24  1  0  0  0  0
 20 19  2  0  0  0  0
 20 25  1  0  0  0  0
 21 20  1  0  0  0  0
 22 23  1  0  0  0  0
 22 21  2  0  0  0  0
 23 18  2  0  0  0  0
 26 22  1  0  0  0  0
 27  1  1  0  0  0  0
 28 27  1  0  0  0  0
 29  5  1  0  0  0  0
 30 39  1  0  0  0  0
 31 30  1  0  0  0  0
 31 29  1  0  0  0  0
 32 31  2  0  0  0  0
 33 32  1  0  0  0  0
 34 36  2  0  0  0  0
 34 32  1  0  0  0  0
 35 34  1  0  0  0  0
 36 37  1  0  0  0  0
 37 30  2  0  0  0  0
 39 38  2  0  0  0  0
 39 40  1  0  0  0  0
 40 42  1  0  0  0  0
 40 43  1  0  0  0  0
 41 38  1  0  0  0  0
M  END
>  <minimizedAffinity>
-5.39348555

>  <minimizedRMSD>
0.490267217

$$$$
