
 OpenBabel03272507563D

 28 29  0  0  0  0  0  0  0  0999 V2000
   37.2290   26.1530   33.7180 C   0  0  0  0  0  0  0  0  0  0  0  0
   38.1970   25.7510   34.6800 C   0  0  0  0  0  0  0  0  0  0  0  0
   38.7410   24.4820   34.5830 C   0  0  0  0  0  0  0  0  0  0  0  0
   38.3280   23.6700   33.5730 N   0  0  0  0  0  0  0  0  0  0  0  0
   37.3990   24.0790   32.6630 C   0  0  0  0  0  0  0  0  0  0  0  0
   36.8490   25.3030   32.7260 N   0  0  0  0  0  0  0  0  0  0  0  0
   37.1160   23.1100   31.6670 N   0  0  0  0  0  0  0  0  0  0  0  0
   36.8020   27.1470   33.7880 H   0  0  0  0  0  0  0  0  0  0  0  0
   37.3260   23.5500   30.7340 H   0  0  0  0  0  0  0  0  0  0  0  0
   36.7760   22.1500   31.7080 H   0  0  0  0  0  0  0  0  0  0  0  0
   39.6510   23.1070   36.6070 C   0  0  0  0  0  0  0  0  0  0  0  0
   39.7190   23.9280   35.5060 C   0  0  0  0  0  0  0  0  0  0  0  0
   41.0040   24.2660   35.0510 C   0  0  0  0  0  0  0  0  0  0  0  0
   41.3670   24.8620   34.1930 H   0  0  0  0  0  0  0  0  0  0  0  0
   42.1370   23.8000   35.6800 C   0  0  0  0  0  0  0  0  0  0  0  0
   43.1780   23.9820   35.4400 H   0  0  0  0  0  0  0  0  0  0  0  0
   42.0530   22.9660   36.7950 C   0  0  0  0  0  3  0  0  0  0  0  0
   40.7690   22.6340   37.2400 C   0  0  0  0  0  3  0  0  0  0  0  0
   38.3460   23.2170   38.2500 N   0  0  0  0  0  0  0  0  0  0  0  0
   38.2820   22.8100   37.0050 C   0  0  0  0  0  0  0  0  0  0  0  0
   37.1090   22.2590   36.4200 N   0  0  0  0  0  0  0  0  0  0  0  0
   37.4730   23.1190   38.8080 H   0  0  0  0  0  0  0  0  0  0  0  0
   36.5000   21.7960   37.1480 H   0  0  0  0  0  0  0  0  0  0  0  0
   36.9570   22.3550   35.3860 H   0  0  0  0  0  0  0  0  0  0  0  0
   38.5560   26.7110   35.7580 C   0  0  0  0  0  0  0  0  0  0  0  0
   39.8780   27.1310   35.6700 F   0  0  0  0  0  0  0  0  0  0  0  0
   37.7650   27.8130   35.6090 F   0  0  0  0  0  0  0  0  0  0  0  0
   38.3640   26.1960   37.0220 F   0  0  0  0  0  0  0  0  0  0  0  0
  1  8  1  0  0  0  0
  1  2  1  0  0  0  0
  2 25  1  0  0  0  0
  3  2  2  0  0  0  0
  3 12  1  0  0  0  0
  4  3  1  0  0  0  0
  5  6  1  0  0  0  0
  5  4  2  0  0  0  0
  6  1  2  0  0  0  0
  7 10  1  0  0  0  0
  7  5  1  0  0  0  0
  9  7  1  0  0  0  0
 11 20  1  0  0  0  0
 11 18  1  0  0  0  0
 12 11  2  0  0  0  0
 13 12  1  0  0  0  0
 13 15  2  0  0  0  0
 14 13  1  0  0  0  0
 15 17  1  0  0  0  0
 16 15  1  0  0  0  0
 17 18  2  0  0  0  0
 19 22  1  0  0  0  0
 20 19  2  0  0  0  0
 21 20  1  0  0  0  0
 21 23  1  0  0  0  0
 24 21  1  0  0  0  0
 25 28  1  0  0  0  0
 26 25  1  0  0  0  0
 27 25  1  0  0  0  0
M  END
>  <minimizedAffinity>
-5.54680538

$$$$

 OpenBabel03272507563D

 28 29  0  0  0  0  0  0  0  0999 V2000
   38.7350   26.0160   32.6860 C   0  0  0  0  0  0  0  0  0  0  0  0
   39.0730   25.6260   34.0120 C   0  0  0  0  0  0  0  0  0  0  0  0
   38.5570   24.4410   34.5070 C   0  0  0  0  0  0  0  0  0  0  0  0
   37.7480   23.6960   33.7060 N   0  0  0  0  0  0  0  0  0  0  0  0
   37.4400   24.0910   32.4380 C   0  0  0  0  0  0  0  0  0  0  0  0
   37.9210   25.2350   31.9250 N   0  0  0  0  0  0  0  0  0  0  0  0
   36.6090   23.1740   31.7450 N   0  0  0  0  0  0  0  0  0  0  0  0
   39.1380   26.9420   32.2930 H   0  0  0  0  0  0  0  0  0  0  0  0
   37.1220   22.8850   30.8720 H   0  0  0  0  0  0  0  0  0  0  0  0
   35.6860   22.7880   31.9400 H   0  0  0  0  0  0  0  0  0  0  0  0
   39.7510   23.1190   36.4150 C   0  0  0  0  0  0  0  0  0  0  0  0
   38.7970   23.9300   35.8470 C   0  0  0  0  0  0  0  0  0  0  0  0
   37.8700   24.5200   36.7230 C   0  0  0  0  0  0  0  0  0  0  0  0
   37.0340   25.2270   36.5700 H   0  0  0  0  0  0  0  0  0  0  0  0
   37.9140   24.2910   38.0800 C   0  0  0  0  0  0  0  0  0  0  0  0
   37.2670   24.6740   38.8600 H   0  0  0  0  0  0  0  0  0  0  0  0
   38.8880   23.4660   38.6420 C   0  0  0  0  0  3  0  0  0  0  0  0
   39.8080   22.8850   37.7630 C   0  0  0  0  0  3  0  0  0  0  0  0
   41.7980   22.8270   36.0400 N   0  0  0  0  0  0  0  0  0  0  0  0
   40.6670   22.5540   35.4350 C   0  0  0  0  0  0  0  0  0  0  0  0
   40.5910   21.8930   34.1780 N   0  0  0  0  0  0  0  0  0  0  0  0
   42.6640   22.5290   35.5470 H   0  0  0  0  0  0  0  0  0  0  0  0
   41.4580   22.0690   33.6010 H   0  0  0  0  0  0  0  0  0  0  0  0
   39.7400   21.3250   33.9460 H   0  0  0  0  0  0  0  0  0  0  0  0
   39.9450   26.5300   34.8080 C   0  0  0  0  0  0  0  0  0  0  0  0
   41.0770   25.8820   35.2880 F   0  0  0  0  0  0  0  0  0  0  0  0
   40.3660   27.5310   33.9820 F   0  0  0  0  0  0  0  0  0  0  0  0
   39.2960   27.0910   35.8870 F   0  0  0  0  0  0  0  0  0  0  0  0
  1  2  1  0  0  0  0
  2  3  2  0  0  0  0
  2 25  1  0  0  0  0
  3 12  1  0  0  0  0
  4  3  1  0  0  0  0
  5  4  2  0  0  0  0
  6  5  1  0  0  0  0
  6  1  2  0  0  0  0
  7 10  1  0  0  0  0
  7  5  1  0  0  0  0
  8  1  1  0  0  0  0
  9  7  1  0  0  0  0
 11 18  1  0  0  0  0
 12 11  2  0  0  0  0
 12 13  1  0  0  0  0
 13 15  2  0  0  0  0
 14 13  1  0  0  0  0
 15 17  1  0  0  0  0
 15 16  1  0  0  0  0
 18 17  2  0  0  0  0
 20 19  2  0  0  0  0
 20 11  1  0  0  0  0
 21 20  1  0  0  0  0
 22 19  1  0  0  0  0
 23 21  1  0  0  0  0
 24 21  1  0  0  0  0
 25 26  1  0  0  0  0
 25 28  1  0  0  0  0
 27 25  1  0  0  0  0
M  END
>  <minimizedAffinity>
-5.24957943

$$$$

 OpenBabel03272507563D

 28 29  0  0  0  0  0  0  0  0999 V2000
   37.1600   26.7920   33.6020 C   0  0  0  0  0  0  0  0  0  0  0  0
   38.0260   26.1870   34.5560 C   0  0  0  0  0  0  0  0  0  0  0  0
   38.3360   24.8460   34.4130 C   0  0  0  0  0  0  0  0  0  0  0  0
   37.8020   24.1600   33.3670 N   0  0  0  0  0  0  0  0  0  0  0  0
   36.9760   24.7620   32.4660 C   0  0  0  0  0  0  0  0  0  0  0  0
   36.6520   26.0610   32.5720 N   0  0  0  0  0  0  0  0  0  0  0  0
   36.5420   23.8970   31.4290 N   0  0  0  0  0  0  0  0  0  0  0  0
   36.9160   27.8420   33.7070 H   0  0  0  0  0  0  0  0  0  0  0  0
   36.8430   24.3280   30.5160 H   0  0  0  0  0  0  0  0  0  0  0  0
   36.0370   23.0120   31.4280 H   0  0  0  0  0  0  0  0  0  0  0  0
   40.5350   23.8380   35.3970 C   0  0  0  0  0  0  0  0  0  0  0  0
   39.1850   24.0930   35.3230 C   0  0  0  0  0  0  0  0  0  0  0  0
   38.4000   23.6380   36.3950 C   0  0  0  0  0  0  0  0  0  0  0  0
   37.3210   23.7230   36.6280 H   0  0  0  0  0  0  0  0  0  0  0  0
   38.9540   22.9670   37.4620 C   0  0  0  0  0  0  0  0  0  0  0  0
   38.4700   22.5630   38.3430 H   0  0  0  0  0  0  0  0  0  0  0  0
   40.3250   22.7170   37.5240 C   0  0  0  0  0  3  0  0  0  0  0  0
   41.0990   23.1750   36.4520 C   0  0  0  0  0  3  0  0  0  0  0  0
   42.1920   25.0220   34.8830 N   0  0  0  0  0  0  0  0  0  0  0  0
   41.2680   24.3450   34.2460 C   0  0  0  0  0  0  0  0  0  0  0  0
   41.1890   24.2710   32.8280 N   0  0  0  0  0  0  0  0  0  0  0  0
   42.8890   25.5160   34.2890 H   0  0  0  0  0  0  0  0  0  0  0  0
   41.6050   25.1300   32.3770 H   0  0  0  0  0  0  0  0  0  0  0  0
   40.7550   23.4270   32.3810 H   0  0  0  0  0  0  0  0  0  0  0  0
   38.5310   27.0260   35.6750 C   0  0  0  0  0  0  0  0  0  0  0  0
   39.9130   27.1730   35.6400 F   0  0  0  0  0  0  0  0  0  0  0  0
   37.9840   28.2690   35.5390 F   0  0  0  0  0  0  0  0  0  0  0  0
   38.1940   26.5280   36.9160 F   0  0  0  0  0  0  0  0  0  0  0  0
  1  8  1  0  0  0  0
  1  2  1  0  0  0  0
  2 25  1  0  0  0  0
  3  2  2  0  0  0  0
  3 12  1  0  0  0  0
  4  3  1  0  0  0  0
  5  6  1  0  0  0  0
  5  4  2  0  0  0  0
  6  1  2  0  0  0  0
  7  5  1  0  0  0  0
  9  7  1  0  0  0  0
 10  7  1  0  0  0  0
 11 18  1  0  0  0  0
 12 11  2  0  0  0  0
 12 13  1  0  0  0  0
 13 14  1  0  0  0  0
 13 15  2  0  0  0  0
 15 17  1  0  0  0  0
 15 16  1  0  0  0  0
 18 17  2  0  0  0  0
 20 19  2  0  0  0  0
 20 11  1  0  0  0  0
 21 20  1  0  0  0  0
 22 19  1  0  0  0  0
 23 21  1  0  0  0  0
 24 21  1  0  0  0  0
 25 28  1  0  0  0  0
 26 25  1  0  0  0  0
 27 25  1  0  0  0  0
M  END
>  <minimizedAffinity>
-5.19814014

$$$$

 OpenBabel03272507563D

 28 29  0  0  0  0  0  0  0  0999 V2000
   41.2270   23.0160   36.5690 C   0  0  0  0  0  0  0  0  0  0  0  0
   40.6320   23.9590   35.6840 C   0  0  0  0  0  0  0  0  0  0  0  0
   39.3420   24.3890   35.9430 C   0  0  0  0  0  0  0  0  0  0  0  0
   38.6960   23.8940   37.0330 N   0  0  0  0  0  0  0  0  0  0  0  0
   39.2880   22.9920   37.8650 C   0  0  0  0  0  0  0  0  0  0  0  0
   40.5370   22.5520   37.6450 N   0  0  0  0  0  0  0  0  0  0  0  0
   38.4720   22.6130   38.9620 N   0  0  0  0  0  0  0  0  0  0  0  0
   42.2380   22.6780   36.3720 H   0  0  0  0  0  0  0  0  0  0  0  0
   39.0020   22.8470   39.8420 H   0  0  0  0  0  0  0  0  0  0  0  0
   37.5460   22.1920   39.0270 H   0  0  0  0  0  0  0  0  0  0  0  0
   37.8070   25.2130   33.9990 C   0  0  0  0  0  0  0  0  0  0  0  0
   38.6020   25.3280   35.1160 C   0  0  0  0  0  0  0  0  0  0  0  0
   38.6770   26.6010   35.7060 C   0  0  0  0  0  0  0  0  0  0  0  0
   39.1920   26.9840   36.6070 H   0  0  0  0  0  0  0  0  0  0  0  0
   37.9920   27.6770   35.1880 C   0  0  0  0  0  0  0  0  0  0  0  0
   37.9630   28.7020   35.5370 H   0  0  0  0  0  0  0  0  0  0  0  0
   37.1880   27.5450   34.0560 C   0  0  0  0  0  3  0  0  0  0  0  0
   37.1180   26.2730   33.4760 C   0  0  0  0  0  3  0  0  0  0  0  0
   37.8930   24.1570   32.1850 N   0  0  0  0  0  0  0  0  0  0  0  0
   37.7880   23.8610   33.4580 C   0  0  0  0  0  0  0  0  0  0  0  0
   37.6890   22.5300   33.9470 N   0  0  0  0  0  0  0  0  0  0  0  0
   37.9030   23.3500   31.5270 H   0  0  0  0  0  0  0  0  0  0  0  0
   37.2520   21.8910   33.2300 H   0  0  0  0  0  0  0  0  0  0  0  0
   38.0370   22.3100   34.9120 H   0  0  0  0  0  0  0  0  0  0  0  0
   41.4220   24.4140   34.5090 C   0  0  0  0  0  0  0  0  0  0  0  0
   42.7470   23.9990   34.5740 F   0  0  0  0  0  0  0  0  0  0  0  0
   40.8700   23.8480   33.3970 F   0  0  0  0  0  0  0  0  0  0  0  0
   41.4190   25.7840   34.3570 F   0  0  0  0  0  0  0  0  0  0  0  0
  1  6  1  0  0  0  0
  2  3  1  0  0  0  0
  2  1  2  0  0  0  0
  3  4  2  0  0  0  0
  4  5  1  0  0  0  0
  5  7  1  0  0  0  0
  6  5  2  0  0  0  0
  7 10  1  0  0  0  0
  7  9  1  0  0  0  0
  8  1  1  0  0  0  0
 11 12  1  0  0  0  0
 12 13  2  0  0  0  0
 12  3  1  0  0  0  0
 13 14  1  0  0  0  0
 15 16  1  0  0  0  0
 15 13  1  0  0  0  0
 17 15  2  0  0  0  0
 18 11  2  0  0  0  0
 18 17  1  0  0  0  0
 19 20  2  0  0  0  0
 20 21  1  0  0  0  0
 20 11  1  0  0  0  0
 21 24  1  0  0  0  0
 22 19  1  0  0  0  0
 23 21  1  0  0  0  0
 25 26  1  0  0  0  0
 25  2  1  0  0  0  0
 27 25  1  0  0  0  0
 28 25  1  0  0  0  0
M  END
>  <minimizedAffinity>
-5.05140305

$$$$

 OpenBabel03272507563D

 28 29  0  0  0  0  0  0  0  0999 V2000
   35.4960   26.1860   31.4890 C   0  0  0  0  0  0  0  0  0  0  0  0
   36.6620   26.8300   31.9910 C   0  0  0  0  0  0  0  0  0  0  0  0
   37.7360   26.0470   32.3790 C   0  0  0  0  0  0  0  0  0  0  0  0
   37.6340   24.6960   32.2640 N   0  0  0  0  0  0  0  0  0  0  0  0
   36.5060   24.1030   31.7790 C   0  0  0  0  0  0  0  0  0  0  0  0
   35.4450   24.8300   31.3940 N   0  0  0  0  0  0  0  0  0  0  0  0
   36.5950   22.6900   31.7060 N   0  0  0  0  0  0  0  0  0  0  0  0
   34.6530   26.7940   31.1820 H   0  0  0  0  0  0  0  0  0  0  0  0
   36.4300   22.4180   30.7010 H   0  0  0  0  0  0  0  0  0  0  0  0
   36.7770   21.9670   32.4010 H   0  0  0  0  0  0  0  0  0  0  0  0
   39.4540   26.7800   34.2030 C   0  0  0  0  0  0  0  0  0  0  0  0
   38.9780   26.5640   32.9300 C   0  0  0  0  0  0  0  0  0  0  0  0
   39.8840   26.7710   31.8770 C   0  0  0  0  0  0  0  0  0  0  0  0
   39.8040   26.6470   30.7800 H   0  0  0  0  0  0  0  0  0  0  0  0
   41.1800   27.1740   32.1080 C   0  0  0  0  0  0  0  0  0  0  0  0
   41.9730   27.3720   31.3970 H   0  0  0  0  0  0  0  0  0  0  0  0
   41.6490   27.3880   33.4040 C   0  0  0  0  0  3  0  0  0  0  0  0
   40.7400   27.1770   34.4470 C   0  0  0  0  0  3  0  0  0  0  0  0
   38.6140   27.6370   35.9270 N   0  0  0  0  0  0  0  0  0  0  0  0
   38.4490   26.5390   35.2290 C   0  0  0  0  0  0  0  0  0  0  0  0
   37.5040   25.5320   35.5640 N   0  0  0  0  0  0  0  0  0  0  0  0
   38.0030   27.7430   36.7630 H   0  0  0  0  0  0  0  0  0  0  0  0
   37.3130   25.5180   36.6020 H   0  0  0  0  0  0  0  0  0  0  0  0
   37.1030   24.9300   34.8040 H   0  0  0  0  0  0  0  0  0  0  0  0
   36.6530   28.3130   32.0970 C   0  0  0  0  0  0  0  0  0  0  0  0
   37.6640   28.9000   31.3440 F   0  0  0  0  0  0  0  0  0  0  0  0
   35.4630   28.7560   31.6000 F   0  0  0  0  0  0  0  0  0  0  0  0
   36.7850   28.7600   33.3950 F   0  0  0  0  0  0  0  0  0  0  0  0
  1  2  1  0  0  0  0
  2 25  1  0  0  0  0
  2  3  2  0  0  0  0
  3 12  1  0  0  0  0
  4  3  1  0  0  0  0
  5  4  2  0  0  0  0
  6  1  2  0  0  0  0
  6  5  1  0  0  0  0
  7  5  1  0  0  0  0
  7 10  1  0  0  0  0
  8  1  1  0  0  0  0
  9  7  1  0  0  0  0
 11 18  1  0  0  0  0
 11 20  1  0  0  0  0
 12 11  2  0  0  0  0
 13 15  2  0  0  0  0
 13 12  1  0  0  0  0
 14 13  1  0  0  0  0
 15 17  1  0  0  0  0
 16 15  1  0  0  0  0
 17 18  2  0  0  0  0
 19 22  1  0  0  0  0
 20 21  1  0  0  0  0
 20 19  2  0  0  0  0
 21 23  1  0  0  0  0
 24 21  1  0  0  0  0
 25 28  1  0  0  0  0
 26 25  1  0  0  0  0
 27 25  1  0  0  0  0
M  END
>  <minimizedAffinity>
-4.97484303

$$$$

 OpenBabel03272507563D

 28 29  0  0  0  0  0  0  0  0999 V2000
   39.9910   27.0810   34.4250 C   0  0  0  0  0  0  0  0  0  0  0  0
   38.7880   26.3900   34.1080 C   0  0  0  0  0  0  0  0  0  0  0  0
   38.5720   26.0020   32.7970 C   0  0  0  0  0  0  0  0  0  0  0  0
   39.5180   26.2950   31.8650 N   0  0  0  0  0  0  0  0  0  0  0  0
   40.6630   26.9570   32.1940 C   0  0  0  0  0  0  0  0  0  0  0  0
   40.9070   27.3490   33.4540 N   0  0  0  0  0  0  0  0  0  0  0  0
   41.5430   27.1460   31.0980 N   0  0  0  0  0  0  0  0  0  0  0  0
   40.1670   27.3850   35.4500 H   0  0  0  0  0  0  0  0  0  0  0  0
   42.4600   26.6940   31.3510 H   0  0  0  0  0  0  0  0  0  0  0  0
   41.4390   27.6040   30.1930 H   0  0  0  0  0  0  0  0  0  0  0  0
   36.2290   25.7060   31.6830 C   0  0  0  0  0  0  0  0  0  0  0  0
   37.3810   25.3130   32.3240 C   0  0  0  0  0  0  0  0  0  0  0  0
   37.5620   23.9320   32.5030 C   0  0  0  0  0  0  0  0  0  0  0  0
   38.3820   23.3300   32.9390 H   0  0  0  0  0  0  0  0  0  0  0  0
   36.6300   23.0190   32.0620 C   0  0  0  0  0  0  0  0  0  0  0  0
   36.6420   21.9390   32.1370 H   0  0  0  0  0  0  0  0  0  0  0  0
   35.4670   23.4320   31.4120 C   0  0  0  0  0  3  0  0  0  0  0  0
   35.2960   24.8090   31.2370 C   0  0  0  0  0  3  0  0  0  0  0  0
   36.2910   27.2340   30.2420 N   0  0  0  0  0  0  0  0  0  0  0  0
   36.1270   27.1510   31.5410 C   0  0  0  0  0  0  0  0  0  0  0  0
   35.9290   28.2820   32.3790 N   0  0  0  0  0  0  0  0  0  0  0  0
   36.2670   28.1930   29.8390 H   0  0  0  0  0  0  0  0  0  0  0  0
   36.3770   29.1450   31.9680 H   0  0  0  0  0  0  0  0  0  0  0  0
   35.3910   28.1720   33.2730 H   0  0  0  0  0  0  0  0  0  0  0  0
   37.8110   26.1460   35.2010 C   0  0  0  0  0  0  0  0  0  0  0  0
   37.7060   24.7970   35.5220 F   0  0  0  0  0  0  0  0  0  0  0  0
   38.2630   26.7970   36.3120 F   0  0  0  0  0  0  0  0  0  0  0  0
   36.5450   26.6050   34.9040 F   0  0  0  0  0  0  0  0  0  0  0  0
  1  8  1  0  0  0  0
  2  1  1  0  0  0  0
  2 25  1  0  0  0  0
  3  2  2  0  0  0  0
  4  5  2  0  0  0  0
  4  3  1  0  0  0  0
  5  6  1  0  0  0  0
  6  1  2  0  0  0  0
  7  9  1  0  0  0  0
  7  5  1  0  0  0  0
 10  7  1  0  0  0  0
 11 12  1  0  0  0  0
 12 13  2  0  0  0  0
 12  3  1  0  0  0  0
 13 14  1  0  0  0  0
 15 16  1  0  0  0  0
 15 13  1  0  0  0  0
 17 15  2  0  0  0  0
 18 17  1  0  0  0  0
 18 11  2  0  0  0  0
 19 20  2  0  0  0  0
 20 11  1  0  0  0  0
 20 21  1  0  0  0  0
 21 24  1  0  0  0  0
 22 19  1  0  0  0  0
 23 21  1  0  0  0  0
 25 26  1  0  0  0  0
 25 27  1  0  0  0  0
 28 25  1  0  0  0  0
M  END
>  <minimizedAffinity>
-4.96884727

$$$$

 OpenBabel03272507563D

 28 29  0  0  0  0  0  0  0  0999 V2000
   40.3170   26.0060   31.5090 C   0  0  0  0  0  0  0  0  0  0  0  0
   40.2390   25.7560   32.9080 C   0  0  0  0  0  0  0  0  0  0  0  0
   39.0720   25.2180   33.4220 C   0  0  0  0  0  0  0  0  0  0  0  0
   38.0470   24.9480   32.5700 N   0  0  0  0  0  0  0  0  0  0  0  0
   38.1460   25.1950   31.2330 C   0  0  0  0  0  0  0  0  0  0  0  0
   39.2620   25.7170   30.6990 N   0  0  0  0  0  0  0  0  0  0  0  0
   36.9900   24.8220   30.5000 N   0  0  0  0  0  0  0  0  0  0  0  0
   41.2290   26.4250   31.1010 H   0  0  0  0  0  0  0  0  0  0  0  0
   37.2940   24.1260   29.7700 H   0  0  0  0  0  0  0  0  0  0  0  0
   36.0100   25.0940   30.5630 H   0  0  0  0  0  0  0  0  0  0  0  0
   38.2360   25.6080   35.8640 C   0  0  0  0  0  0  0  0  0  0  0  0
   38.8420   24.9340   34.8300 C   0  0  0  0  0  0  0  0  0  0  0  0
   39.2690   23.6230   35.0980 C   0  0  0  0  0  0  0  0  0  0  0  0
   39.7430   22.8430   34.4720 H   0  0  0  0  0  0  0  0  0  0  0  0
   39.0920   23.0460   36.3350 C   0  0  0  0  0  0  0  0  0  0  0  0
   39.3730   22.0560   36.6750 H   0  0  0  0  0  0  0  0  0  0  0  0
   38.4750   23.7400   37.3740 C   0  0  0  0  0  3  0  0  0  0  0  0
   38.0510   25.0450   37.0980 C   0  0  0  0  0  3  0  0  0  0  0  0
   38.5600   27.6260   36.3500 N   0  0  0  0  0  0  0  0  0  0  0  0
   37.8260   26.9550   35.4960 C   0  0  0  0  0  0  0  0  0  0  0  0
   36.9430   27.5730   34.5680 N   0  0  0  0  0  0  0  0  0  0  0  0
   38.4680   28.6620   36.3180 H   0  0  0  0  0  0  0  0  0  0  0  0
   36.5960   28.5020   34.9310 H   0  0  0  0  0  0  0  0  0  0  0  0
   36.7260   27.0880   33.6640 H   0  0  0  0  0  0  0  0  0  0  0  0
   41.4110   26.1140   33.7500 C   0  0  0  0  0  0  0  0  0  0  0  0
   41.9670   25.0050   34.3780 F   0  0  0  0  0  0  0  0  0  0  0  0
   42.3650   26.6400   32.9280 F   0  0  0  0  0  0  0  0  0  0  0  0
   41.1090   27.0400   34.7270 F   0  0  0  0  0  0  0  0  0  0  0  0
  1  2  1  0  0  0  0
  2  3  2  0  0  0  0
  2 25  1  0  0  0  0
  3 12  1  0  0  0  0
  4  3  1  0  0  0  0
  5  4  2  0  0  0  0
  6  5  1  0  0  0  0
  6  1  2  0  0  0  0
  7 10  1  0  0  0  0
  7  5  1  0  0  0  0
  8  1  1  0  0  0  0
  9  7  1  0  0  0  0
 11 18  1  0  0  0  0
 12 13  1  0  0  0  0
 12 11  2  0  0  0  0
 13 15  2  0  0  0  0
 14 13  1  0  0  0  0
 15 16  1  0  0  0  0
 15 17  1  0  0  0  0
 18 17  2  0  0  0  0
 20 11  1  0  0  0  0
 20 19  2  0  0  0  0
 21 23  1  0  0  0  0
 21 20  1  0  0  0  0
 22 19  1  0  0  0  0
 24 21  1  0  0  0  0
 25 26  1  0  0  0  0
 25 28  1  0  0  0  0
 27 25  1  0  0  0  0
M  END
>  <minimizedAffinity>
-4.94163942

$$$$

 OpenBabel03272507563D

 28 29  0  0  0  0  0  0  0  0999 V2000
   37.0890   22.0020   36.3730 C   0  0  0  0  0  0  0  0  0  0  0  0
   38.1010   23.0020   36.3630 C   0  0  0  0  0  0  0  0  0  0  0  0
   38.6120   23.4170   35.1460 C   0  0  0  0  0  0  0  0  0  0  0  0
   38.1250   22.8540   34.0070 N   0  0  0  0  0  0  0  0  0  0  0  0
   37.1540   21.8980   34.0420 C   0  0  0  0  0  0  0  0  0  0  0  0
   36.6360   21.4700   35.2050 N   0  0  0  0  0  0  0  0  0  0  0  0
   36.7520   21.4500   32.7580 N   0  0  0  0  0  0  0  0  0  0  0  0
   36.6840   21.6740   37.3230 H   0  0  0  0  0  0  0  0  0  0  0  0
   35.7170   21.6260   32.6750 H   0  0  0  0  0  0  0  0  0  0  0  0
   37.2570   21.0290   31.9790 H   0  0  0  0  0  0  0  0  0  0  0  0
   39.6950   25.7840   34.9480 C   0  0  0  0  0  0  0  0  0  0  0  0
   39.6620   24.4100   34.9850 C   0  0  0  0  0  0  0  0  0  0  0  0
   40.9030   23.7510   34.9740 C   0  0  0  0  0  0  0  0  0  0  0  0
   41.1890   22.6830   35.0300 H   0  0  0  0  0  0  0  0  0  0  0  0
   42.0890   24.4470   34.9240 C   0  0  0  0  0  0  0  0  0  0  0  0
   43.1050   24.0700   34.9070 H   0  0  0  0  0  0  0  0  0  0  0  0
   42.1070   25.8410   34.8880 C   0  0  0  0  0  3  0  0  0  0  0  0
   40.8670   26.4890   34.9010 C   0  0  0  0  0  3  0  0  0  0  0  0
   38.5750   27.3030   35.8720 N   0  0  0  0  0  0  0  0  0  0  0  0
   38.3670   26.3800   34.9640 C   0  0  0  0  0  0  0  0  0  0  0  0
   37.1170   26.1890   34.3140 N   0  0  0  0  0  0  0  0  0  0  0  0
   37.7620   27.9100   36.1020 H   0  0  0  0  0  0  0  0  0  0  0  0
   36.3160   26.5020   34.9270 H   0  0  0  0  0  0  0  0  0  0  0  0
   37.0960   25.7810   33.3480 H   0  0  0  0  0  0  0  0  0  0  0  0
   38.5770   23.5290   37.6690 C   0  0  0  0  0  0  0  0  0  0  0  0
   38.3660   24.8980   37.7920 F   0  0  0  0  0  0  0  0  0  0  0  0
   37.8560   22.9140   38.6510 F   0  0  0  0  0  0  0  0  0  0  0  0
   39.9180   23.2910   37.8890 F   0  0  0  0  0  0  0  0  0  0  0  0
  1  8  1  0  0  0  0
  2  1  1  0  0  0  0
  2 25  1  0  0  0  0
  3  2  2  0  0  0  0
  4  5  2  0  0  0  0
  4  3  1  0  0  0  0
  5  6  1  0  0  0  0
  6  1  2  0  0  0  0
  7  5  1  0  0  0  0
  9  7  1  0  0  0  0
 10  7  1  0  0  0  0
 11 20  1  0  0  0  0
 11 12  1  0  0  0  0
 12  3  1  0  0  0  0
 13 12  2  0  0  0  0
 13 14  1  0  0  0  0
 15 13  1  0  0  0  0
 16 15  1  0  0  0  0
 17 18  1  0  0  0  0
 17 15  2  0  0  0  0
 18 11  2  0  0  0  0
 19 22  1  0  0  0  0
 20 19  2  0  0  0  0
 21 23  1  0  0  0  0
 21 20  1  0  0  0  0
 24 21  1  0  0  0  0
 25 26  1  0  0  0  0
 25 28  1  0  0  0  0
 25 27  1  0  0  0  0
M  END
>  <minimizedAffinity>
-4.90014935

$$$$

 OpenBabel03272507563D

 28 29  0  0  0  0  0  0  0  0999 V2000
   36.9770   21.9510   36.3950 C   0  0  0  0  0  0  0  0  0  0  0  0
   37.9550   22.9850   36.4270 C   0  0  0  0  0  0  0  0  0  0  0  0
   38.5510   23.3710   35.2390 C   0  0  0  0  0  0  0  0  0  0  0  0
   38.1780   22.7480   34.0890 N   0  0  0  0  0  0  0  0  0  0  0  0
   37.2380   21.7610   34.0840 C   0  0  0  0  0  0  0  0  0  0  0  0
   36.6390   21.3600   35.2170 N   0  0  0  0  0  0  0  0  0  0  0  0
   36.9580   21.2520   32.7900 N   0  0  0  0  0  0  0  0  0  0  0  0
   36.5060   21.6470   37.3220 H   0  0  0  0  0  0  0  0  0  0  0  0
   35.9280   21.3880   32.6170 H   0  0  0  0  0  0  0  0  0  0  0  0
   37.5380   20.8180   32.0730 H   0  0  0  0  0  0  0  0  0  0  0  0
   40.9550   24.3790   35.0950 C   0  0  0  0  0  0  0  0  0  0  0  0
   39.5800   24.3920   35.1240 C   0  0  0  0  0  0  0  0  0  0  0  0
   38.9580   25.6300   34.8910 C   0  0  0  0  0  0  0  0  0  0  0  0
   37.8980   25.9380   34.8180 H   0  0  0  0  0  0  0  0  0  0  0  0
   39.6900   26.7710   34.6510 C   0  0  0  0  0  0  0  0  0  0  0  0
   39.3430   27.7800   34.4610 H   0  0  0  0  0  0  0  0  0  0  0  0
   41.0840   26.7420   34.6240 C   0  0  0  0  0  3  0  0  0  0  0  0
   41.6950   25.5050   34.8550 C   0  0  0  0  0  3  0  0  0  0  0  0
   42.3070   23.3620   36.3420 N   0  0  0  0  0  0  0  0  0  0  0  0
   41.5120   23.0570   35.3450 C   0  0  0  0  0  0  0  0  0  0  0  0
   41.3900   21.7440   34.8130 N   0  0  0  0  0  0  0  0  0  0  0  0
   42.8610   22.5770   36.7410 H   0  0  0  0  0  0  0  0  0  0  0  0
   42.2780   21.1900   34.9550 H   0  0  0  0  0  0  0  0  0  0  0  0
   40.4900   21.4540   34.3590 H   0  0  0  0  0  0  0  0  0  0  0  0
   38.3050   23.5780   37.7450 C   0  0  0  0  0  0  0  0  0  0  0  0
   38.0870   24.9500   37.7790 F   0  0  0  0  0  0  0  0  0  0  0  0
   37.4920   23.0110   38.6820 F   0  0  0  0  0  0  0  0  0  0  0  0
   39.6180   23.3540   38.1040 F   0  0  0  0  0  0  0  0  0  0  0  0
  1  2  1  0  0  0  0
  1  8  1  0  0  0  0
  2 25  1  0  0  0  0
  3  2  2  0  0  0  0
  4  3  1  0  0  0  0
  5  4  2  0  0  0  0
  5  6  1  0  0  0  0
  6  1  2  0  0  0  0
  7  5  1  0  0  0  0
  9  7  1  0  0  0  0
 10  7  1  0  0  0  0
 11 12  1  0  0  0  0
 11 20  1  0  0  0  0
 12  3  1  0  0  0  0
 13 12  2  0  0  0  0
 14 13  1  0  0  0  0
 15 13  1  0  0  0  0
 16 15  1  0  0  0  0
 17 15  2  0  0  0  0
 17 18  1  0  0  0  0
 18 11  2  0  0  0  0
 19 22  1  0  0  0  0
 20 19  2  0  0  0  0
 21 23  1  0  0  0  0
 21 20  1  0  0  0  0
 24 21  1  0  0  0  0
 25 26  1  0  0  0  0
 25 28  1  0  0  0  0
 25 27  1  0  0  0  0
M  END
>  <minimizedAffinity>
-4.89688063

$$$$
