
 OpenBabel03262523203D

 35 37  0  0  1  0  0  0  0  0999 V2000
   37.4520   23.0330   31.4840 C   0  0  0  0  0  0  0  0  0  0  0  0
   36.2050   23.6530   31.3470 C   0  0  0  0  0  0  0  0  0  0  0  0
   36.0710   25.0010   31.7640 C   0  0  0  0  0  0  0  0  0  0  0  0
   37.1640   25.6120   32.2720 N   0  0  0  0  0  0  0  0  0  0  0  0
   38.3440   24.9970   32.3920 C   0  0  0  0  0  0  0  0  0  0  0  0
   38.4760   23.7230   31.9990 N   0  0  0  0  0  0  0  0  0  0  0  0
   39.4520   25.7060   32.9510 N   0  0  0  0  0  0  0  0  0  0  0  0
   39.9680   26.9490   32.3960 C   0  0  0  0  0  0  0  0  0  0  0  0
   41.0030   27.4030   33.3470 C   0  0  0  0  0  0  0  0  0  0  0  0
   40.7530   26.6070   34.6200 C   0  0  0  0  0  0  0  0  0  0  0  0
   40.2130   25.3190   34.1100 C   0  0  1  0  0  0  0  0  0  0  0  0
   37.6120   21.9980   31.1790 H   0  0  0  0  0  0  0  0  0  0  0  0
   35.3910   23.0980   30.9370 H   0  0  0  0  0  0  0  0  0  0  0  0
   35.1090   25.4890   31.6620 H   0  0  0  0  0  0  0  0  0  0  0  0
   40.2970   26.8330   31.3510 H   0  0  0  0  0  0  0  0  0  0  0  0
   39.1160   27.6870   32.4240 H   0  0  0  0  0  0  0  0  0  0  0  0
   41.9920   27.0900   32.9470 H   0  0  0  0  0  0  0  0  0  0  0  0
   41.0290   28.4870   33.5540 H   0  0  0  0  0  0  0  0  0  0  0  0
   40.0740   27.1570   35.2960 H   0  0  0  0  0  0  0  0  0  0  0  0
   41.7430   26.4720   35.1010 H   0  0  0  0  0  0  0  0  0  0  0  0
   41.0850   24.7430   33.7160 H   0  0  0  0  0  0  0  0  0  0  0  0
   38.4980   25.2810   35.8160 C   0  0  0  0  0  0  0  0  0  0  0  0
   39.4700   24.5720   35.1290 C   0  0  0  0  0  0  0  0  0  0  0  0
   39.6230   23.2660   35.4700 C   0  0  0  0  0  0  0  0  0  0  0  0
   40.3550   22.6930   34.9610 H   0  0  0  0  0  0  0  0  0  0  0  0
   38.8710   22.6420   36.4410 C   0  0  0  0  0  0  0  0  0  0  0  0
   39.0320   21.5940   36.6760 H   0  0  0  0  0  0  0  0  0  0  0  0
   37.9040   23.3490   37.1240 C   0  0  0  0  0  3  0  0  0  0  0  0
   37.7340   24.6760   36.7930 C   0  0  0  0  0  3  0  0  0  0  0  0
   38.6220   27.6670   36.3630 N   0  0  0  0  0  0  0  0  0  0  0  0
   38.1420   26.6810   35.6420 C   0  0  0  0  0  0  0  0  0  0  0  0
   37.2860   27.4210   34.7810 N   0  0  0  0  0  0  0  0  0  0  0  0
   38.2690   28.6130   36.1160 H   0  0  0  0  0  0  0  0  0  0  0  0
   37.5580   28.0100   33.9720 H   0  0  0  0  0  0  0  0  0  0  0  0
   36.3240   27.2430   35.1380 H   0  0  0  0  0  0  0  0  0  0  0  0
  1  6  1  0  0  0  0
  2  1  2  0  0  0  0
  2  3  1  0  0  0  0
  3  4  2  0  0  0  0
  4  5  1  0  0  0  0
  5  7  1  0  0  0  0
  6  5  2  0  0  0  0
  7 11  1  0  0  0  0
  8 16  1  0  0  0  0
  8  7  1  0  0  0  0
  8  9  1  0  0  0  0
  9 18  1  0  0  0  0
  9 10  1  0  0  0  0
 10 20  1  0  0  0  0
 10 19  1  0  0  0  0
 11 21  1  6  0  0  0
 11 10  1  0  0  0  0
 11 23  1  0  0  0  0
 12  1  1  0  0  0  0
 13  2  1  0  0  0  0
 14  3  1  0  0  0  0
 15  8  1  0  0  0  0
 17  9  1  0  0  0  0
 22 29  1  0  0  0  0
 23 24  1  0  0  0  0
 23 22  2  0  0  0  0
 24 26  2  0  0  0  0
 25 24  1  0  0  0  0
 26 27  1  0  0  0  0
 26 28  1  0  0  0  0
 29 28  2  0  0  0  0
 31 22  1  0  0  0  0
 31 30  2  0  0  0  0
 32 35  1  0  0  0  0
 32 31  1  0  0  0  0
 33 30  1  0  0  0  0
 34 32  1  0  0  0  0
M  END
>  <minimizedAffinity>
-5.58297348

$$$$

 OpenBabel03262523203D

 35 37  0  0  1  0  0  0  0  0999 V2000
   38.3470   26.2000   36.5660 C   0  0  0  0  0  0  0  0  0  0  0  0
   38.2880   27.2810   35.6790 C   0  0  0  0  0  0  0  0  0  0  0  0
   38.3450   27.0180   34.2880 C   0  0  0  0  0  0  0  0  0  0  0  0
   38.4530   25.7290   33.8980 N   0  0  0  0  0  0  0  0  0  0  0  0
   38.5070   24.7140   34.7650 C   0  0  0  0  0  0  0  0  0  0  0  0
   38.4530   24.9570   36.0820 N   0  0  0  0  0  0  0  0  0  0  0  0
   38.6340   23.3770   34.2760 N   0  0  0  0  0  0  0  0  0  0  0  0
   37.6790   22.7650   33.3640 C   0  0  0  0  0  0  0  0  0  0  0  0
   38.2580   21.4530   33.0120 C   0  0  0  0  0  0  0  0  0  0  0  0
   39.7220   21.5390   33.4210 C   0  0  0  0  0  0  0  0  0  0  0  0
   39.6890   22.4500   34.5950 C   0  0  1  0  0  0  0  0  0  0  0  0
   38.3070   26.3440   37.6460 H   0  0  0  0  0  0  0  0  0  0  0  0
   38.2030   28.2700   36.0710 H   0  0  0  0  0  0  0  0  0  0  0  0
   38.3000   27.8490   33.5940 H   0  0  0  0  0  0  0  0  0  0  0  0
   36.6600   22.7400   33.7850 H   0  0  0  0  0  0  0  0  0  0  0  0
   37.6690   23.4070   32.4370 H   0  0  0  0  0  0  0  0  0  0  0  0
   37.7770   20.6860   33.6550 H   0  0  0  0  0  0  0  0  0  0  0  0
   38.1580   21.1470   31.9550 H   0  0  0  0  0  0  0  0  0  0  0  0
   40.3410   21.8960   32.5780 H   0  0  0  0  0  0  0  0  0  0  0  0
   40.0250   20.5120   33.7090 H   0  0  0  0  0  0  0  0  0  0  0  0
   39.3060   21.8470   35.4540 H   0  0  0  0  0  0  0  0  0  0  0  0
   41.4320   22.9640   36.1920 C   0  0  0  0  0  0  0  0  0  0  0  0
   40.9930   23.0550   34.8810 C   0  0  0  0  0  0  0  0  0  0  0  0
   41.8200   23.6870   34.0080 C   0  0  0  0  0  0  0  0  0  0  0  0
   41.5160   23.7700   32.9960 H   0  0  0  0  0  0  0  0  0  0  0  0
   43.0370   24.2220   34.3660 C   0  0  0  0  0  0  0  0  0  0  0  0
   43.6610   24.7180   33.6280 H   0  0  0  0  0  0  0  0  0  0  0  0
   43.4720   24.1310   35.6710 C   0  0  0  0  0  3  0  0  0  0  0  0
   42.6470   23.4930   36.5740 C   0  0  0  0  0  3  0  0  0  0  0  0
   41.0760   21.1960   37.8530 N   0  0  0  0  0  0  0  0  0  0  0  0
   40.7390   22.3430   37.3110 C   0  0  0  0  0  0  0  0  0  0  0  0
   39.6200   22.6630   38.1270 N   0  0  0  0  0  0  0  0  0  0  0  0
   40.4810   20.8860   38.6460 H   0  0  0  0  0  0  0  0  0  0  0  0
   39.6260   23.0130   39.1030 H   0  0  0  0  0  0  0  0  0  0  0  0
   38.7870   22.4690   37.5320 H   0  0  0  0  0  0  0  0  0  0  0  0
  1 12  1  0  0  0  0
  2 13  1  0  0  0  0
  2  1  2  0  0  0  0
  3  2  1  0  0  0  0
  4  3  2  0  0  0  0
  4  5  1  0  0  0  0
  5  6  2  0  0  0  0
  6  1  1  0  0  0  0
  7 11  1  0  0  0  0
  7  5  1  0  0  0  0
  8 15  1  0  0  0  0
  8  7  1  0  0  0  0
  9  8  1  0  0  0  0
  9 10  1  0  0  0  0
  9 17  1  0  0  0  0
 10 20  1  0  0  0  0
 10 11  1  0  0  0  0
 11 23  1  0  0  0  0
 11 21  1  1  0  0  0
 14  3  1  0  0  0  0
 16  8  1  0  0  0  0
 18  9  1  0  0  0  0
 19 10  1  0  0  0  0
 22 29  1  0  0  0  0
 22 31  1  0  0  0  0
 23 22  2  0  0  0  0
 24 26  2  0  0  0  0
 24 23  1  0  0  0  0
 25 24  1  0  0  0  0
 26 28  1  0  0  0  0
 27 26  1  0  0  0  0
 28 29  2  0  0  0  0
 30 33  1  0  0  0  0
 31 30  2  0  0  0  0
 31 32  1  0  0  0  0
 32 34  1  0  0  0  0
 35 32  1  0  0  0  0
M  END
>  <minimizedAffinity>
-5.40293837

$$$$

 OpenBabel03262523203D

 35 37  0  0  1  0  0  0  0  0999 V2000
   39.8960   27.1340   33.5470 C   0  0  0  0  0  0  0  0  0  0  0  0
   39.6410   27.0300   34.9190 C   0  0  0  0  0  0  0  0  0  0  0  0
   38.4380   26.4080   35.3370 C   0  0  0  0  0  0  0  0  0  0  0  0
   37.6030   25.9490   34.3790 N   0  0  0  0  0  0  0  0  0  0  0  0
   37.8700   26.0620   33.0740 C   0  0  0  0  0  0  0  0  0  0  0  0
   39.0060   26.6480   32.6740 N   0  0  0  0  0  0  0  0  0  0  0  0
   36.9310   25.5630   32.1200 N   0  0  0  0  0  0  0  0  0  0  0  0
   36.4910   24.1760   32.0800 C   0  0  0  0  0  0  0  0  0  0  0  0
   35.4340   24.1290   31.0490 C   0  0  0  0  0  0  0  0  0  0  0  0
   35.0300   25.5790   30.8260 C   0  0  0  0  0  0  0  0  0  0  0  0
   36.2920   26.3230   31.0770 C   0  0  1  0  0  0  0  0  0  0  0  0
   40.8050   27.6030   33.1680 H   0  0  0  0  0  0  0  0  0  0  0  0
   40.3540   27.4200   35.6100 H   0  0  0  0  0  0  0  0  0  0  0  0
   38.2320   26.3230   36.3970 H   0  0  0  0  0  0  0  0  0  0  0  0
   37.3310   23.4770   31.9350 H   0  0  0  0  0  0  0  0  0  0  0  0
   36.0170   23.9650   33.0810 H   0  0  0  0  0  0  0  0  0  0  0  0
   35.8950   23.7620   30.1070 H   0  0  0  0  0  0  0  0  0  0  0  0
   34.5550   23.5030   31.2850 H   0  0  0  0  0  0  0  0  0  0  0  0
   34.1910   25.8560   31.4900 H   0  0  0  0  0  0  0  0  0  0  0  0
   34.7160   25.6540   29.7640 H   0  0  0  0  0  0  0  0  0  0  0  0
   36.9300   26.1810   30.1710 H   0  0  0  0  0  0  0  0  0  0  0  0
   36.8050   28.6460   30.6350 C   0  0  0  0  0  0  0  0  0  0  0  0
   36.0660   27.7390   31.3790 C   0  0  0  0  0  0  0  0  0  0  0  0
   35.2130   28.2620   32.2970 C   0  0  0  0  0  0  0  0  0  0  0  0
   34.6290   27.5970   32.8810 H   0  0  0  0  0  0  0  0  0  0  0  0
   35.0610   29.6140   32.5090 C   0  0  0  0  0  0  0  0  0  0  0  0
   34.3640   29.9810   33.2570 H   0  0  0  0  0  0  0  0  0  0  0  0
   35.7970   30.5150   31.7690 C   0  0  0  0  0  3  0  0  0  0  0  0
   36.6690   30.0040   30.8310 C   0  0  0  0  0  3  0  0  0  0  0  0
   39.0400   28.0510   29.8230 N   0  0  0  0  0  0  0  0  0  0  0  0
   37.7810   28.3450   29.5980 C   0  0  0  0  0  0  0  0  0  0  0  0
   37.7740   28.2600   28.1790 N   0  0  0  0  0  0  0  0  0  0  0  0
   39.6110   27.8600   28.9750 H   0  0  0  0  0  0  0  0  0  0  0  0
   37.7810   27.4030   27.5960 H   0  0  0  0  0  0  0  0  0  0  0  0
   37.7610   29.2480   27.8500 H   0  0  0  0  0  0  0  0  0  0  0  0
  1  2  1  0  0  0  0
  2  3  2  0  0  0  0
  2 13  1  0  0  0  0
  3 14  1  0  0  0  0
  4  3  1  0  0  0  0
  5  4  2  0  0  0  0
  6  5  1  0  0  0  0
  6  1  2  0  0  0  0
  7  5  1  0  0  0  0
  8  7  1  0  0  0  0
  8 16  1  0  0  0  0
  9 18  1  0  0  0  0
  9  8  1  0  0  0  0
 10  9  1  0  0  0  0
 10 11  1  0  0  0  0
 10 19  1  0  0  0  0
 11 21  1  6  0  0  0
 11 23  1  0  0  0  0
 11  7  1  0  0  0  0
 12  1  1  0  0  0  0
 15  8  1  0  0  0  0
 17  9  1  0  0  0  0
 20 10  1  0  0  0  0
 22 29  2  0  0  0  0
 22 23  1  0  0  0  0
 23 24  2  0  0  0  0
 24 26  1  0  0  0  0
 24 25  1  0  0  0  0
 26 27  1  0  0  0  0
 28 26  2  0  0  0  0
 29 28  1  0  0  0  0
 31 30  2  0  0  0  0
 31 22  1  0  0  0  0
 32 31  1  0  0  0  0
 33 30  1  0  0  0  0
 34 32  1  0  0  0  0
 35 32  1  0  0  0  0
M  END
>  <minimizedAffinity>
-5.31429768

$$$$

 OpenBabel03262523203D

 35 37  0  0  1  0  0  0  0  0999 V2000
   37.0140   21.7820   33.3740 C   0  0  0  0  0  0  0  0  0  0  0  0
   37.0980   22.0880   32.0110 C   0  0  0  0  0  0  0  0  0  0  0  0
   38.3630   22.4370   31.4740 C   0  0  0  0  0  0  0  0  0  0  0  0
   39.4190   22.4530   32.3160 N   0  0  0  0  0  0  0  0  0  0  0  0
   39.3110   22.1560   33.6150 C   0  0  0  0  0  0  0  0  0  0  0  0
   38.1190   21.8250   34.1270 N   0  0  0  0  0  0  0  0  0  0  0  0
   40.4740   22.2080   34.4450 N   0  0  0  0  0  0  0  0  0  0  0  0
   41.6720   21.4210   34.1940 C   0  0  0  0  0  0  0  0  0  0  0  0
   42.6580   21.8780   35.1940 C   0  0  0  0  0  0  0  0  0  0  0  0
   42.1130   23.1990   35.7180 C   0  0  0  0  0  0  0  0  0  0  0  0
   40.6410   23.0160   35.6250 C   0  0  1  0  0  0  0  0  0  0  0  0
   36.0680   21.5060   33.8400 H   0  0  0  0  0  0  0  0  0  0  0  0
   36.2140   22.0520   31.4150 H   0  0  0  0  0  0  0  0  0  0  0  0
   38.4370   22.6760   30.4200 H   0  0  0  0  0  0  0  0  0  0  0  0
   41.4640   20.3380   34.1870 H   0  0  0  0  0  0  0  0  0  0  0  0
   42.0400   21.7220   33.1720 H   0  0  0  0  0  0  0  0  0  0  0  0
   42.6460   21.1540   36.0370 H   0  0  0  0  0  0  0  0  0  0  0  0
   43.6960   21.9900   34.8340 H   0  0  0  0  0  0  0  0  0  0  0  0
   42.5100   24.0450   35.1280 H   0  0  0  0  0  0  0  0  0  0  0  0
   42.4500   23.2770   36.7720 H   0  0  0  0  0  0  0  0  0  0  0  0
   40.3490   22.3580   36.4800 H   0  0  0  0  0  0  0  0  0  0  0  0
   38.8290   24.3640   36.4920 C   0  0  0  0  0  0  0  0  0  0  0  0
   39.9090   24.2860   35.6280 C   0  0  0  0  0  0  0  0  0  0  0  0
   40.1740   25.3920   34.8860 C   0  0  0  0  0  0  0  0  0  0  0  0
   40.9960   25.3680   34.2180 H   0  0  0  0  0  0  0  0  0  0  0  0
   39.4320   26.5500   34.9600 C   0  0  0  0  0  0  0  0  0  0  0  0
   39.6860   27.4090   34.3440 H   0  0  0  0  0  0  0  0  0  0  0  0
   38.3570   26.6270   35.8200 C   0  0  0  0  0  3  0  0  0  0  0  0
   38.0720   25.5140   36.5820 C   0  0  0  0  0  3  0  0  0  0  0  0
   37.3410   22.5180   37.1160 N   0  0  0  0  0  0  0  0  0  0  0  0
   38.3400   23.3250   37.3870 C   0  0  0  0  0  0  0  0  0  0  0  0
   38.6800   22.8450   38.6810 N   0  0  0  0  0  0  0  0  0  0  0  0
   37.1120   21.8280   37.8590 H   0  0  0  0  0  0  0  0  0  0  0  0
   39.1890   21.9740   38.9200 H   0  0  0  0  0  0  0  0  0  0  0  0
   38.3060   23.5590   39.3410 H   0  0  0  0  0  0  0  0  0  0  0  0
  1 12  1  0  0  0  0
  1  6  1  0  0  0  0
  2  1  2  0  0  0  0
  3  2  1  0  0  0  0
  3  4  2  0  0  0  0
  4  5  1  0  0  0  0
  5  6  2  0  0  0  0
  5  7  1  0  0  0  0
  7 11  1  0  0  0  0
  8  7  1  0  0  0  0
  8  9  1  0  0  0  0
  9 10  1  0  0  0  0
  9 17  1  0  0  0  0
 10 20  1  0  0  0  0
 11 23  1  0  0  0  0
 11 10  1  0  0  0  0
 11 21  1  1  0  0  0
 13  2  1  0  0  0  0
 14  3  1  0  0  0  0
 15  8  1  0  0  0  0
 16  8  1  0  0  0  0
 18  9  1  0  0  0  0
 19 10  1  0  0  0  0
 22 29  1  0  0  0  0
 22 31  1  0  0  0  0
 23 22  2  0  0  0  0
 24 26  2  0  0  0  0
 24 23  1  0  0  0  0
 25 24  1  0  0  0  0
 26 28  1  0  0  0  0
 27 26  1  0  0  0  0
 28 29  2  0  0  0  0
 30 31  2  0  0  0  0
 30 33  1  0  0  0  0
 31 32  1  0  0  0  0
 32 34  1  0  0  0  0
 32 35  1  0  0  0  0
M  END
>  <minimizedAffinity>
-5.30445099

$$$$

 OpenBabel03262523203D

 35 37  0  0  1  0  0  0  0  0999 V2000
   38.8970   23.2460   38.4760 C   0  0  0  0  0  0  0  0  0  0  0  0
   38.1060   24.3940   38.3610 C   0  0  0  0  0  0  0  0  0  0  0  0
   37.7660   24.8530   37.0640 C   0  0  0  0  0  0  0  0  0  0  0  0
   38.2300   24.1490   36.0080 N   0  0  0  0  0  0  0  0  0  0  0  0
   38.9840   23.0550   36.1450 C   0  0  0  0  0  0  0  0  0  0  0  0
   39.3080   22.6160   37.3690 N   0  0  0  0  0  0  0  0  0  0  0  0
   39.4480   22.3710   34.9790 N   0  0  0  0  0  0  0  0  0  0  0  0
   38.5580   21.8330   33.9610 C   0  0  0  0  0  0  0  0  0  0  0  0
   39.4440   21.3420   32.8850 C   0  0  0  0  0  0  0  0  0  0  0  0
   40.7950   21.9900   33.1540 C   0  0  0  0  0  0  0  0  0  0  0  0
   40.8220   22.1100   34.6350 C   0  0  1  0  0  0  0  0  0  0  0  0
   39.1880   22.8470   39.4480 H   0  0  0  0  0  0  0  0  0  0  0  0
   37.7810   24.8920   39.2470 H   0  0  0  0  0  0  0  0  0  0  0  0
   37.1550   25.7420   36.9650 H   0  0  0  0  0  0  0  0  0  0  0  0
   37.8530   21.0930   34.3740 H   0  0  0  0  0  0  0  0  0  0  0  0
   37.9680   22.7060   33.5610 H   0  0  0  0  0  0  0  0  0  0  0  0
   39.5670   20.2460   33.0200 H   0  0  0  0  0  0  0  0  0  0  0  0
   39.1060   21.5390   31.8520 H   0  0  0  0  0  0  0  0  0  0  0  0
   40.8810   22.9490   32.6120 H   0  0  0  0  0  0  0  0  0  0  0  0
   41.5600   21.2750   32.7870 H   0  0  0  0  0  0  0  0  0  0  0  0
   41.0390   21.0880   35.0320 H   0  0  0  0  0  0  0  0  0  0  0  0
   42.6280   22.6990   36.1320 C   0  0  0  0  0  0  0  0  0  0  0  0
   41.7890   23.1050   35.1070 C   0  0  0  0  0  0  0  0  0  0  0  0
   41.9580   24.3720   34.6500 C   0  0  0  0  0  0  0  0  0  0  0  0
   41.3360   24.7130   33.8630 H   0  0  0  0  0  0  0  0  0  0  0  0
   42.9030   25.2400   35.1520 C   0  0  0  0  0  0  0  0  0  0  0  0
   42.9980   26.2450   34.7510 H   0  0  0  0  0  0  0  0  0  0  0  0
   43.7370   24.8350   36.1720 C   0  0  0  0  0  3  0  0  0  0  0  0
   43.5810   23.5520   36.6500 C   0  0  0  0  0  3  0  0  0  0  0  0
   43.5310   20.4600   36.5570 N   0  0  0  0  0  0  0  0  0  0  0  0
   42.6480   21.4020   36.7920 C   0  0  0  0  0  0  0  0  0  0  0  0
   41.8660   20.7440   37.7800 N   0  0  0  0  0  0  0  0  0  0  0  0
   43.4110   19.5880   37.1110 H   0  0  0  0  0  0  0  0  0  0  0  0
   42.1070   20.5830   38.7750 H   0  0  0  0  0  0  0  0  0  0  0  0
   40.9950   20.4550   37.2870 H   0  0  0  0  0  0  0  0  0  0  0  0
  1 12  1  0  0  0  0
  2  1  1  0  0  0  0
  2 13  1  0  0  0  0
  3  2  2  0  0  0  0
  4  5  2  0  0  0  0
  4  3  1  0  0  0  0
  5  6  1  0  0  0  0
  6  1  2  0  0  0  0
  7  5  1  0  0  0  0
  8 15  1  0  0  0  0
  8  7  1  0  0  0  0
  9 17  1  0  0  0  0
  9 10  1  0  0  0  0
  9  8  1  0  0  0  0
 10 11  1  0  0  0  0
 11  7  1  0  0  0  0
 11 21  1  1  0  0  0
 11 23  1  0  0  0  0
 14  3  1  0  0  0  0
 16  8  1  0  0  0  0
 18  9  1  0  0  0  0
 19 10  1  0  0  0  0
 20 10  1  0  0  0  0
 22 29  1  0  0  0  0
 22 31  1  0  0  0  0
 23 22  2  0  0  0  0
 24 23  1  0  0  0  0
 24 26  2  0  0  0  0
 25 24  1  0  0  0  0
 26 28  1  0  0  0  0
 27 26  1  0  0  0  0
 28 29  2  0  0  0  0
 30 31  2  0  0  0  0
 30 33  1  0  0  0  0
 31 32  1  0  0  0  0
 32 34  1  0  0  0  0
 35 32  1  0  0  0  0
M  END
>  <minimizedAffinity>
-5.05635071

$$$$

 OpenBabel03262523203D

 35 37  0  0  1  0  0  0  0  0999 V2000
   37.0370   22.5800   32.6410 C   0  0  0  0  0  0  0  0  0  0  0  0
   36.9030   23.2630   31.4270 C   0  0  0  0  0  0  0  0  0  0  0  0
   38.0450   23.9010   30.8820 C   0  0  0  0  0  0  0  0  0  0  0  0
   39.2030   23.8120   31.5720 N   0  0  0  0  0  0  0  0  0  0  0  0
   39.3040   23.1530   32.7300 C   0  0  0  0  0  0  0  0  0  0  0  0
   38.2280   22.5470   33.2500 N   0  0  0  0  0  0  0  0  0  0  0  0
   40.5620   23.1140   33.4080 N   0  0  0  0  0  0  0  0  0  0  0  0
   41.7770   22.5830   32.8090 C   0  0  0  0  0  0  0  0  0  0  0  0
   42.8500   22.8600   33.7850 C   0  0  0  0  0  0  0  0  0  0  0  0
   42.2710   23.9050   34.7290 C   0  0  0  0  0  0  0  0  0  0  0  0
   40.8210   23.5740   34.7470 C   0  0  1  0  0  0  0  0  0  0  0  0
   36.1920   22.0710   33.1070 H   0  0  0  0  0  0  0  0  0  0  0  0
   35.9510   23.2860   30.9470 H   0  0  0  0  0  0  0  0  0  0  0  0
   37.9500   24.4320   29.9420 H   0  0  0  0  0  0  0  0  0  0  0  0
   41.6660   21.5280   32.5080 H   0  0  0  0  0  0  0  0  0  0  0  0
   41.9710   23.2000   31.8860 H   0  0  0  0  0  0  0  0  0  0  0  0
   43.0190   21.9340   34.3760 H   0  0  0  0  0  0  0  0  0  0  0  0
   43.8140   23.1960   33.3640 H   0  0  0  0  0  0  0  0  0  0  0  0
   42.5060   24.9240   34.3730 H   0  0  0  0  0  0  0  0  0  0  0  0
   42.7430   23.7270   35.7160 H   0  0  0  0  0  0  0  0  0  0  0  0
   40.7100   22.6730   35.3990 H   0  0  0  0  0  0  0  0  0  0  0  0
   39.0370   24.3920   36.1620 C   0  0  0  0  0  0  0  0  0  0  0  0
   39.9890   24.6920   35.2010 C   0  0  0  0  0  0  0  0  0  0  0  0
   40.0520   25.9860   34.7920 C   0  0  0  0  0  0  0  0  0  0  0  0
   40.7710   26.2510   34.0610 H   0  0  0  0  0  0  0  0  0  0  0  0
   39.2290   26.9770   35.2820 C   0  0  0  0  0  0  0  0  0  0  0  0
   39.3190   27.9980   34.9210 H   0  0  0  0  0  0  0  0  0  0  0  0
   38.2820   26.6770   36.2370 C   0  0  0  0  0  3  0  0  0  0  0  0
   38.2030   25.3680   36.6650 C   0  0  0  0  0  3  0  0  0  0  0  0
   39.2140   22.7070   37.9330 N   0  0  0  0  0  0  0  0  0  0  0  0
   38.7700   23.0920   36.7600 C   0  0  0  0  0  0  0  0  0  0  0  0
   38.0510   21.9230   36.3900 N   0  0  0  0  0  0  0  0  0  0  0  0
   38.9360   21.7480   38.2220 H   0  0  0  0  0  0  0  0  0  0  0  0
   37.1310   21.6070   36.7440 H   0  0  0  0  0  0  0  0  0  0  0  0
   38.6530   21.4500   35.6830 H   0  0  0  0  0  0  0  0  0  0  0  0
  1 12  1  0  0  0  0
  1  6  1  0  0  0  0
  2  1  2  0  0  0  0
  3  2  1  0  0  0  0
  3  4  2  0  0  0  0
  4  5  1  0  0  0  0
  5  6  2  0  0  0  0
  5  7  1  0  0  0  0
  7 11  1  0  0  0  0
  8  7  1  0  0  0  0
  8  9  1  0  0  0  0
  9 17  1  0  0  0  0
  9 10  1  0  0  0  0
 10 11  1  0  0  0  0
 10 20  1  0  0  0  0
 11 23  1  0  0  0  0
 11 21  1  1  0  0  0
 13  2  1  0  0  0  0
 14  3  1  0  0  0  0
 15  8  1  0  0  0  0
 16  8  1  0  0  0  0
 18  9  1  0  0  0  0
 19 10  1  0  0  0  0
 22 29  1  0  0  0  0
 22 31  1  0  0  0  0
 23 22  2  0  0  0  0
 24 23  1  0  0  0  0
 24 26  2  0  0  0  0
 25 24  1  0  0  0  0
 26 28  1  0  0  0  0
 27 26  1  0  0  0  0
 28 29  2  0  0  0  0
 30 33  1  0  0  0  0
 31 30  2  0  0  0  0
 32 34  1  0  0  0  0
 32 31  1  0  0  0  0
 35 32  1  0  0  0  0
M  END
>  <minimizedAffinity>
-5.03435087

$$$$

 OpenBabel03262523203D

 35 37  0  0  1  0  0  0  0  0999 V2000
   39.0380   22.4790   33.8560 C   0  0  0  0  0  0  0  0  0  0  0  0
   37.7750   21.9300   33.6100 C   0  0  0  0  0  0  0  0  0  0  0  0
   36.9750   22.5050   32.5920 C   0  0  0  0  0  0  0  0  0  0  0  0
   37.4850   23.5570   31.9140 N   0  0  0  0  0  0  0  0  0  0  0  0
   38.6950   24.0630   32.1690 C   0  0  0  0  0  0  0  0  0  0  0  0
   39.4550   23.5220   33.1300 N   0  0  0  0  0  0  0  0  0  0  0  0
   39.1590   25.1860   31.4160 N   0  0  0  0  0  0  0  0  0  0  0  0
   39.2830   25.1810   29.9670 C   0  0  0  0  0  0  0  0  0  0  0  0
   39.6560   26.5630   29.6000 C   0  0  0  0  0  0  0  0  0  0  0  0
   39.3340   27.4020   30.8280 C   0  0  0  0  0  0  0  0  0  0  0  0
   39.5680   26.4580   31.9520 C   0  0  1  0  0  0  0  0  0  0  0  0
   39.6960   22.0760   34.6280 H   0  0  0  0  0  0  0  0  0  0  0  0
   37.4480   21.0980   34.1930 H   0  0  0  0  0  0  0  0  0  0  0  0
   35.9950   22.0860   32.3940 H   0  0  0  0  0  0  0  0  0  0  0  0
   39.9650   24.3920   29.6100 H   0  0  0  0  0  0  0  0  0  0  0  0
   38.2520   24.9750   29.5610 H   0  0  0  0  0  0  0  0  0  0  0  0
   40.7580   26.5900   29.4580 H   0  0  0  0  0  0  0  0  0  0  0  0
   39.1690   26.9730   28.6980 H   0  0  0  0  0  0  0  0  0  0  0  0
   38.3050   27.8010   30.7670 H   0  0  0  0  0  0  0  0  0  0  0  0
   40.0650   28.2360   30.8350 H   0  0  0  0  0  0  0  0  0  0  0  0
   40.6760   26.3860   32.0800 H   0  0  0  0  0  0  0  0  0  0  0  0
   39.6770   26.8940   34.3290 C   0  0  0  0  0  0  0  0  0  0  0  0
   38.8930   26.8670   33.1870 C   0  0  0  0  0  0  0  0  0  0  0  0
   37.5920   27.2280   33.3360 C   0  0  0  0  0  0  0  0  0  0  0  0
   36.9650   27.2230   32.4820 H   0  0  0  0  0  0  0  0  0  0  0  0
   37.0430   27.6070   34.5420 C   0  0  0  0  0  0  0  0  0  0  0  0
   35.9960   27.8870   34.6080 H   0  0  0  0  0  0  0  0  0  0  0  0
   37.8250   27.6330   35.6770 C   0  0  0  0  0  3  0  0  0  0  0  0
   39.1490   27.2700   35.5460 C   0  0  0  0  0  3  0  0  0  0  0  0
   41.5470   25.3690   34.7620 N   0  0  0  0  0  0  0  0  0  0  0  0
   41.0890   26.5550   34.4360 C   0  0  0  0  0  0  0  0  0  0  0  0
   42.3230   27.2390   34.2620 N   0  0  0  0  0  0  0  0  0  0  0  0
   42.5830   25.2850   34.7950 H   0  0  0  0  0  0  0  0  0  0  0  0
   42.9820   27.1650   33.4650 H   0  0  0  0  0  0  0  0  0  0  0  0
   42.4240   27.8330   35.1120 H   0  0  0  0  0  0  0  0  0  0  0  0
  1 12  1  0  0  0  0
  2  1  1  0  0  0  0
  2 13  1  0  0  0  0
  3  2  2  0  0  0  0
  4  5  2  0  0  0  0
  4  3  1  0  0  0  0
  5  6  1  0  0  0  0
  6  1  2  0  0  0  0
  7 11  1  0  0  0  0
  7  5  1  0  0  0  0
  8  7  1  0  0  0  0
  9  8  1  0  0  0  0
  9 10  1  0  0  0  0
 10 20  1  0  0  0  0
 10 11  1  0  0  0  0
 11 21  1  1  0  0  0
 11 23  1  0  0  0  0
 14  3  1  0  0  0  0
 15  8  1  0  0  0  0
 16  8  1  0  0  0  0
 17  9  1  0  0  0  0
 18  9  1  0  0  0  0
 19 10  1  0  0  0  0
 22 31  1  0  0  0  0
 22 29  1  0  0  0  0
 23 24  1  0  0  0  0
 23 22  2  0  0  0  0
 24 26  2  0  0  0  0
 25 24  1  0  0  0  0
 26 27  1  0  0  0  0
 26 28  1  0  0  0  0
 29 28  2  0  0  0  0
 30 33  1  0  0  0  0
 31 30  2  0  0  0  0
 32 31  1  0  0  0  0
 32 35  1  0  0  0  0
 34 32  1  0  0  0  0
M  END
>  <minimizedAffinity>
-5.01346064

$$$$

 OpenBabel03262523203D

 35 37  0  0  1  0  0  0  0  0999 V2000
   33.5650   31.8850   31.0740 C   0  0  0  0  0  0  0  0  0  0  0  0
   34.4790   32.8300   30.5970 C   0  0  0  0  0  0  0  0  0  0  0  0
   35.8600   32.6110   30.8290 C   0  0  0  0  0  0  0  0  0  0  0  0
   36.2130   31.4940   31.5020 N   0  0  0  0  0  0  0  0  0  0  0  0
   35.3190   30.6060   31.9470 C   0  0  0  0  0  0  0  0  0  0  0  0
   34.0130   30.8080   31.7300 N   0  0  0  0  0  0  0  0  0  0  0  0
   35.7700   29.4540   32.6630 N   0  0  0  0  0  0  0  0  0  0  0  0
   36.7050   28.4850   32.1110 C   0  0  0  0  0  0  0  0  0  0  0  0
   37.0000   27.5510   33.2160 C   0  0  0  0  0  0  0  0  0  0  0  0
   36.5330   28.2640   34.4770 C   0  0  0  0  0  0  0  0  0  0  0  0
   35.3840   29.0760   33.9980 C   0  0  1  0  0  0  0  0  0  0  0  0
   32.4910   32.0020   30.9240 H   0  0  0  0  0  0  0  0  0  0  0  0
   34.1160   33.6870   30.0740 H   0  0  0  0  0  0  0  0  0  0  0  0
   36.5760   33.3380   30.4630 H   0  0  0  0  0  0  0  0  0  0  0  0
   36.3260   28.0240   31.1840 H   0  0  0  0  0  0  0  0  0  0  0  0
   37.6470   29.0550   31.8690 H   0  0  0  0  0  0  0  0  0  0  0  0
   36.3590   26.6540   33.0830 H   0  0  0  0  0  0  0  0  0  0  0  0
   38.0520   27.2280   33.3090 H   0  0  0  0  0  0  0  0  0  0  0  0
   37.3580   28.8500   34.9220 H   0  0  0  0  0  0  0  0  0  0  0  0
   36.2070   27.4700   35.1800 H   0  0  0  0  0  0  0  0  0  0  0  0
   34.5270   28.3710   33.8710 H   0  0  0  0  0  0  0  0  0  0  0  0
   33.7220   30.3300   35.2290 C   0  0  0  0  0  0  0  0  0  0  0  0
   35.0590   30.1870   34.8970 C   0  0  0  0  0  0  0  0  0  0  0  0
   35.9190   31.0850   35.4440 C   0  0  0  0  0  0  0  0  0  0  0  0
   36.9500   31.0020   35.2140 H   0  0  0  0  0  0  0  0  0  0  0  0
   35.5230   32.0980   36.2890 C   0  0  0  0  0  0  0  0  0  0  0  0
   36.2510   32.7910   36.7010 H   0  0  0  0  0  0  0  0  0  0  0  0
   34.1920   32.2390   36.6190 C   0  0  0  0  0  3  0  0  0  0  0  0
   33.3020   31.3370   36.0730 C   0  0  0  0  0  3  0  0  0  0  0  0
   31.9330   28.6840   35.5460 N   0  0  0  0  0  0  0  0  0  0  0  0
   32.6100   29.5060   34.7790 C   0  0  0  0  0  0  0  0  0  0  0  0
   31.9260   29.2910   33.5510 N   0  0  0  0  0  0  0  0  0  0  0  0
   31.1660   28.1650   35.0750 H   0  0  0  0  0  0  0  0  0  0  0  0
   30.9920   29.6470   33.2760 H   0  0  0  0  0  0  0  0  0  0  0  0
   32.5680   28.6970   32.9850 H   0  0  0  0  0  0  0  0  0  0  0  0
  1  6  1  0  0  0  0
  2  3  1  0  0  0  0
  2  1  2  0  0  0  0
  3  4  2  0  0  0  0
  4  5  1  0  0  0  0
  5  7  1  0  0  0  0
  6  5  2  0  0  0  0
  7 11  1  0  0  0  0
  8  7  1  0  0  0  0
  8  9  1  0  0  0  0
  9 18  1  0  0  0  0
  9 10  1  0  0  0  0
 10 19  1  0  0  0  0
 10 20  1  0  0  0  0
 11 21  1  6  0  0  0
 11 10  1  0  0  0  0
 11 23  1  0  0  0  0
 12  1  1  0  0  0  0
 13  2  1  0  0  0  0
 14  3  1  0  0  0  0
 15  8  1  0  0  0  0
 16  8  1  0  0  0  0
 17  9  1  0  0  0  0
 22 29  1  0  0  0  0
 23 22  2  0  0  0  0
 23 24  1  0  0  0  0
 24 26  2  0  0  0  0
 25 24  1  0  0  0  0
 26 28  1  0  0  0  0
 26 27  1  0  0  0  0
 29 28  2  0  0  0  0
 31 22  1  0  0  0  0
 31 30  2  0  0  0  0
 32 31  1  0  0  0  0
 33 30  1  0  0  0  0
 34 32  1  0  0  0  0
 35 32  1  0  0  0  0
M  END
>  <minimizedAffinity>
-4.97540569

$$$$

 OpenBabel03262523203D

 35 37  0  0  1  0  0  0  0  0999 V2000
   37.4570   24.8740   31.4880 C   0  0  0  0  0  0  0  0  0  0  0  0
   37.9030   23.9160   30.5710 C   0  0  0  0  0  0  0  0  0  0  0  0
   38.5200   22.7400   31.0680 C   0  0  0  0  0  0  0  0  0  0  0  0
   38.6400   22.6140   32.4080 N   0  0  0  0  0  0  0  0  0  0  0  0
   38.2050   23.5440   33.2630 C   0  0  0  0  0  0  0  0  0  0  0  0
   37.6210   24.6570   32.7980 N   0  0  0  0  0  0  0  0  0  0  0  0
   38.3810   23.3440   34.6670 N   0  0  0  0  0  0  0  0  0  0  0  0
   37.8450   22.1970   35.3840 C   0  0  0  0  0  0  0  0  0  0  0  0
   38.3700   22.3140   36.7600 C   0  0  0  0  0  0  0  0  0  0  0  0
   39.5170   23.3090   36.6660 C   0  0  0  0  0  0  0  0  0  0  0  0
   39.0870   24.2160   35.5690 C   0  0  1  0  0  0  0  0  0  0  0  0
   36.9760   25.7960   31.1620 H   0  0  0  0  0  0  0  0  0  0  0  0
   37.7700   24.0940   29.5280 H   0  0  0  0  0  0  0  0  0  0  0  0
   38.8690   21.9930   30.3650 H   0  0  0  0  0  0  0  0  0  0  0  0
   36.7480   22.1260   35.2950 H   0  0  0  0  0  0  0  0  0  0  0  0
   38.3030   21.2830   34.9080 H   0  0  0  0  0  0  0  0  0  0  0  0
   37.5770   22.7760   37.3870 H   0  0  0  0  0  0  0  0  0  0  0  0
   38.6970   21.3720   37.2350 H   0  0  0  0  0  0  0  0  0  0  0  0
   40.4730   22.7850   36.4840 H   0  0  0  0  0  0  0  0  0  0  0  0
   39.5520   23.8360   37.6420 H   0  0  0  0  0  0  0  0  0  0  0  0
   38.3090   24.8910   36.0020 H   0  0  0  0  0  0  0  0  0  0  0  0
   40.0000   26.3210   34.8040 C   0  0  0  0  0  0  0  0  0  0  0  0
   40.2020   24.9620   34.9790 C   0  0  0  0  0  0  0  0  0  0  0  0
   41.4090   24.4740   34.5930 C   0  0  0  0  0  0  0  0  0  0  0  0
   41.5990   23.4390   34.7170 H   0  0  0  0  0  0  0  0  0  0  0  0
   42.4060   25.2560   34.0520 C   0  0  0  0  0  0  0  0  0  0  0  0
   43.3550   24.8160   33.7580 H   0  0  0  0  0  0  0  0  0  0  0  0
   42.2030   26.6080   33.8770 C   0  0  0  0  0  3  0  0  0  0  0  0
   40.9830   27.1230   34.2630 C   0  0  0  0  0  3  0  0  0  0  0  0
   38.6580   27.8110   36.2150 N   0  0  0  0  0  0  0  0  0  0  0  0
   38.8030   27.0830   35.1330 C   0  0  0  0  0  0  0  0  0  0  0  0
   37.5360   27.3100   34.5300 N   0  0  0  0  0  0  0  0  0  0  0  0
   37.7430   28.2950   36.3070 H   0  0  0  0  0  0  0  0  0  0  0  0
   37.2140   28.1610   34.0340 H   0  0  0  0  0  0  0  0  0  0  0  0
   36.9970   26.4330   34.6960 H   0  0  0  0  0  0  0  0  0  0  0  0
  1  6  1  0  0  0  0
  2  3  1  0  0  0  0
  2  1  2  0  0  0  0
  3  4  2  0  0  0  0
  4  5  1  0  0  0  0
  5  7  1  0  0  0  0
  6  5  2  0  0  0  0
  7  8  1  0  0  0  0
  7 11  1  0  0  0  0
  8  9  1  0  0  0  0
  9 18  1  0  0  0  0
  9 17  1  0  0  0  0
 10  9  1  0  0  0  0
 10 20  1  0  0  0  0
 11 21  1  1  0  0  0
 11 10  1  0  0  0  0
 12  1  1  0  0  0  0
 13  2  1  0  0  0  0
 14  3  1  0  0  0  0
 15  8  1  0  0  0  0
 16  8  1  0  0  0  0
 19 10  1  0  0  0  0
 22 23  1  0  0  0  0
 22 31  1  0  0  0  0
 23 11  1  0  0  0  0
 24 25  1  0  0  0  0
 24 23  2  0  0  0  0
 26 24  1  0  0  0  0
 27 26  1  0  0  0  0
 28 26  2  0  0  0  0
 28 29  1  0  0  0  0
 29 22  2  0  0  0  0
 30 33  1  0  0  0  0
 31 30  2  0  0  0  0
 32 35  1  0  0  0  0
 32 31  1  0  0  0  0
 34 32  1  0  0  0  0
M  END
>  <minimizedAffinity>
-4.87691689

$$$$
