
 OpenBabel03272506073D

 35 37  0  0  0  0  0  0  0  0999 V2000
   34.4980   28.6350   48.6860 C   0  0  0  0  0  0  0  0  0  0  0  0
   34.4200   29.1760   47.3500 C   0  0  0  0  0  0  0  0  0  0  0  0
   32.7040   28.9540   47.0040 S   0  0  0  0  0  0  0  0  0  0  0  0
   32.3070   28.1780   48.6620 C   0  0  0  0  0  0  0  0  0  0  0  0
   33.3790   28.1890   49.1860 N   0  0  0  0  0  0  0  0  0  0  0  0
   35.2410   29.5890   46.7780 H   0  0  0  0  0  0  0  0  0  0  0  0
   30.3980   26.7290   48.2050 C   0  0  0  0  0  0  0  0  0  0  0  0
   30.9100   27.7790   48.9030 C   0  0  0  0  0  0  0  0  0  0  0  0
   30.0800   28.4120   49.8000 C   0  0  0  0  0  0  0  0  0  0  0  0
   30.4630   29.2480   50.3680 H   0  0  0  0  0  0  0  0  0  0  0  0
   28.8030   27.9760   49.9560 C   0  0  0  0  0  0  0  0  0  0  0  0
   28.1990   28.5120   50.6740 H   0  0  0  0  0  0  0  0  0  0  0  0
   28.3040   26.9180   49.2450 C   0  0  0  0  0  3  0  0  0  0  0  0
   29.1080   26.2640   48.3400 C   0  0  0  0  0  3  0  0  0  0  0  0
   32.2450   25.3000   47.0080 N   0  0  0  0  0  0  0  0  0  0  0  0
   31.2190   26.0290   47.2610 C   0  0  0  0  0  0  0  0  0  0  0  0
   30.8950   26.0240   45.8560 N   0  0  0  0  0  0  0  0  0  0  0  0
   32.4460   25.0090   46.0270 H   0  0  0  0  0  0  0  0  0  0  0  0
   31.1940   26.4610   44.9360 H   0  0  0  0  0  0  0  0  0  0  0  0
   30.0940   25.3960   45.5530 H   0  0  0  0  0  0  0  0  0  0  0  0
   35.8270   28.6310   49.3790 C   0  0  0  0  0  0  0  0  0  0  0  0
   35.9420   27.7070   49.9830 H   0  0  0  0  0  0  0  0  0  0  0  0
   36.6460   28.5640   48.6030 H   0  0  0  0  0  0  0  0  0  0  0  0
   36.0060   29.8140   50.2610 C   0  0  0  0  0  0  0  0  0  0  0  0
   35.0530   30.2930   50.4920 H   0  0  0  0  0  0  0  0  0  0  0  0
   36.4510   29.5230   51.2520 H   0  0  0  0  0  0  0  0  0  0  0  0
   37.7710   32.9520   49.3850 C   0  0  0  0  0  0  0  0  0  0  0  0
   38.5490   32.5880   48.2880 C   0  0  0  0  0  0  0  0  0  0  0  0
   38.4610   31.2550   47.8530 C   0  0  0  0  0  0  0  0  0  0  0  0
   37.6300   30.4140   48.5230 N   0  0  0  0  0  0  0  0  0  0  0  0
   36.8990   30.8320   49.5870 C   0  0  0  0  0  0  0  0  0  0  0  0
   36.9630   32.0930   50.0210 N   0  0  0  0  0  0  0  0  0  0  0  0
   37.7960   33.9540   49.7630 H   0  0  0  0  0  0  0  0  0  0  0  0
   39.1750   33.3290   47.8250 H   0  0  0  0  0  0  0  0  0  0  0  0
   39.0490   30.9490   47.0110 H   0  0  0  0  0  0  0  0  0  0  0  0
  1  5  1  0  0  0  0
  1 21  1  0  0  0  0
  2  1  2  0  0  0  0
  3  2  1  0  0  0  0
  3  4  1  0  0  0  0
  4  8  1  0  0  0  0
  4  5  2  0  0  0  0
  6  2  1  0  0  0  0
  7 14  2  0  0  0  0
  7  8  1  0  0  0  0
  8  9  2  0  0  0  0
  9 11  1  0  0  0  0
  9 10  1  0  0  0  0
 11 12  1  0  0  0  0
 13 11  2  0  0  0  0
 14 13  1  0  0  0  0
 15 16  2  0  0  0  0
 16  7  1  0  0  0  0
 17 16  1  0  0  0  0
 18 15  1  0  0  0  0
 19 17  1  0  0  0  0
 20 17  1  0  0  0  0
 21 22  1  0  0  0  0
 21 24  1  0  0  0  0
 23 21  1  0  0  0  0
 24 25  1  0  0  0  0
 24 26  1  0  0  0  0
 27 33  1  0  0  0  0
 27 32  1  0  0  0  0
 28 27  2  0  0  0  0
 29 28  1  0  0  0  0
 29 30  2  0  0  0  0
 30 31  1  0  0  0  0
 31 32  2  0  0  0  0
 31 24  1  0  0  0  0
 34 28  1  0  0  0  0
 35 29  1  0  0  0  0
M  END
>  <minimizedAffinity>
-4.66094017

>  <minimizedRMSD>
1.03121209

$$$$
