
 OpenBabel03262523193D

 35 37  0  0  1  0  0  0  0  0999 V2000
   38.9980   32.8090   46.8190 C   0  0  0  0  0  0  0  0  0  0  0  0
   40.0640   32.0790   46.2820 C   0  0  0  0  0  0  0  0  0  0  0  0
   39.8100   30.7740   45.7920 C   0  0  0  0  0  0  0  0  0  0  0  0
   38.5440   30.3090   45.8720 N   0  0  0  0  0  0  0  0  0  0  0  0
   37.5430   31.0270   46.3900 C   0  0  0  0  0  0  0  0  0  0  0  0
   37.7780   32.2620   46.8550 N   0  0  0  0  0  0  0  0  0  0  0  0
   36.2320   30.4610   46.4530 N   0  0  0  0  0  0  0  0  0  0  0  0
   35.5090   29.9890   45.2820 C   0  0  0  0  0  0  0  0  0  0  0  0
   34.2770   29.3650   45.8070 C   0  0  0  0  0  0  0  0  0  0  0  0
   34.5410   29.1460   47.2900 C   0  0  0  0  0  0  0  0  0  0  0  0
   35.4410   30.2760   47.6410 C   0  0  1  0  0  0  0  0  0  0  0  0
   39.1360   33.8180   47.2100 H   0  0  0  0  0  0  0  0  0  0  0  0
   41.0350   32.5200   46.2570 H   0  0  0  0  0  0  0  0  0  0  0  0
   40.6300   30.2010   45.3740 H   0  0  0  0  0  0  0  0  0  0  0  0
   35.3600   30.7860   44.5350 H   0  0  0  0  0  0  0  0  0  0  0  0
   36.1450   29.1800   44.8210 H   0  0  0  0  0  0  0  0  0  0  0  0
   33.4570   30.1090   45.7200 H   0  0  0  0  0  0  0  0  0  0  0  0
   33.9620   28.4270   45.3160 H   0  0  0  0  0  0  0  0  0  0  0  0
   34.9700   28.1430   47.4650 H   0  0  0  0  0  0  0  0  0  0  0  0
   33.5580   29.2340   47.7960 H   0  0  0  0  0  0  0  0  0  0  0  0
   34.7950   31.1850   47.7140 H   0  0  0  0  0  0  0  0  0  0  0  0
   35.4690   29.5870   49.9600 C   0  0  0  0  0  0  0  0  0  0  0  0
   36.2000   30.0360   48.8720 C   0  0  0  0  0  0  0  0  0  0  0  0
   37.5350   30.1980   49.0620 C   0  0  0  0  0  0  0  0  0  0  0  0
   38.1240   30.5360   48.2500 H   0  0  0  0  0  0  0  0  0  0  0  0
   38.1670   29.9390   50.2590 C   0  0  0  0  0  0  0  0  0  0  0  0
   39.2390   30.0850   50.3600 H   0  0  0  0  0  0  0  0  0  0  0  0
   37.4390   29.4930   51.3410 C   0  0  0  0  0  0  0  0  0  0  0  0
   36.0820   29.3230   51.1670 C   0  0  0  0  0  0  0  0  0  0  0  0
   33.2090   29.9240   50.8480 N   0  0  0  0  0  0  0  0  0  0  0  0
   34.0370   29.3370   50.0150 C   0  0  0  0  0  0  0  0  0  0  0  0
   33.1140   28.5080   49.3200 N   0  0  0  0  0  0  0  0  0  0  0  0
   32.2140   29.6380   50.7630 H   0  0  0  0  0  0  0  0  0  0  0  0
   32.4300   28.7910   48.5960 H   0  0  0  0  0  0  0  0  0  0  0  0
   33.2740   27.5500   49.6980 H   0  0  0  0  0  0  0  0  0  0  0  0
  1  6  1  0  0  0  0
  1 12  1  0  0  0  0
  2  1  2  0  0  0  0
  3  4  2  0  0  0  0
  3  2  1  0  0  0  0
  4  5  1  0  0  0  0
  5  7  1  0  0  0  0
  5  6  2  0  0  0  0
  7 11  1  0  0  0  0
  8  9  1  0  0  0  0
  8  7  1  0  0  0  0
  9 10  1  0  0  0  0
 10 19  1  0  0  0  0
 10 11  1  0  0  0  0
 10 20  1  0  0  0  0
 11 21  1  1  0  0  0
 11 23  1  0  0  0  0
 13  2  1  0  0  0  0
 14  3  1  0  0  0  0
 15  8  1  0  0  0  0
 16  8  1  0  0  0  0
 17  9  1  0  0  0  0
 18  9  1  0  0  0  0
 22 31  1  0  0  0  0
 22 29  1  0  0  0  0
 23 24  1  0  0  0  0
 23 22  2  0  0  0  0
 24 26  2  0  0  0  0
 25 24  1  0  0  0  0
 26 27  1  0  0  0  0
 26 28  1  0  0  0  0
 29 28  2  0  0  0  0
 31 30  2  0  0  0  0
 32 35  1  0  0  0  0
 32 31  1  0  0  0  0
 33 30  1  0  0  0  0
 34 32  1  0  0  0  0
M  END
>  <minimizedAffinity>
-6.47711039

>  <minimizedRMSD>
2.6845746

$$$$
