
 OpenBabel03272508123D

 39 41  0  0  0  0  0  0  0  0999 V2000
   36.7090   29.4400   44.1410 Cl  0  0  0  0  0  0  0  0  0  0  0  0
   38.3590   29.8210   43.6240 C   0  0  0  0  0  0  0  0  0  0  0  0
   39.3430   30.3200   44.4650 C   0  0  0  0  0  0  0  0  0  0  0  0
   40.5990   30.5740   43.9180 C   0  0  0  0  0  0  0  0  0  0  0  0
   40.8410   30.3330   42.5850 C   0  0  0  0  0  0  0  0  0  0  0  0
   39.8760   29.8410   41.7470 C   0  0  0  0  0  0  0  0  0  0  0  0
   38.6460   29.5880   42.2660 C   0  0  0  0  0  0  0  0  0  0  0  0
   41.3020   30.9610   44.6500 H   0  0  0  0  0  0  0  0  0  0  0  0
   41.8560   30.5710   42.2820 H   0  0  0  0  0  0  0  0  0  0  0  0
   40.1350   29.6730   40.7000 H   0  0  0  0  0  0  0  0  0  0  0  0
   36.8710   30.0480   40.7600 C   0  0  0  0  0  0  0  0  0  0  0  0
   37.6370   29.0620   41.3440 C   0  0  0  0  0  0  0  0  0  0  0  0
   37.4020   27.7390   41.0280 C   0  0  0  0  0  0  0  0  0  0  0  0
   38.0550   27.0350   41.5370 H   0  0  0  0  0  0  0  0  0  0  0  0
   36.4070   27.4040   40.1340 C   0  0  0  0  0  0  0  0  0  0  0  0
   36.2680   26.3430   39.9230 H   0  0  0  0  0  0  0  0  0  0  0  0
   35.6170   28.3650   39.5280 C   0  0  0  0  0  3  0  0  0  0  0  0
   35.8650   29.6940   39.8540 C   0  0  0  0  0  3  0  0  0  0  0  0
   36.2700   32.2100   41.8040 N   0  0  0  0  0  0  0  0  0  0  0  0
   36.9190   31.4930   40.9230 C   0  0  0  0  0  0  0  0  0  0  0  0
   37.7320   32.2930   40.0750 N   0  0  0  0  0  0  0  0  0  0  0  0
   35.6300   31.7760   42.5040 H   0  0  0  0  0  0  0  0  0  0  0  0
   38.3010   32.8880   39.4380 H   0  0  0  0  0  0  0  0  0  0  0  0
   37.0770   32.7650   39.3820 H   0  0  0  0  0  0  0  0  0  0  0  0
   38.9050   30.4860   45.7380 O   0  0  0  0  0  0  0  0  0  0  0  0
   39.4140   32.5620   47.1910 O   0  0  0  0  0  0  0  0  0  0  0  0
   38.2990   31.8700   46.4900 P   0  0  1  0  0  0  0  0  0  0  0  0
   37.7200   32.8430   45.2140 O   0  0  0  0  0  0  0  0  0  0  0  0
   38.3520   33.6020   45.0440 H   0  0  0  0  0  0  0  0  0  0  0  0
   37.0130   31.4340   47.5000 O   0  0  0  0  0  0  0  0  0  0  0  0
   37.5440   30.5230   51.0360 C   0  0  0  0  0  0  0  0  0  0  0  0
   37.6510   31.3120   49.8850 C   0  0  0  0  0  0  0  0  0  0  0  0
   37.0400   30.8460   48.7190 C   0  0  0  0  0  0  0  0  0  0  0  0
   36.3740   29.6500   48.7620 N   0  0  0  0  0  0  0  0  0  0  0  0
   36.3010   28.9290   49.8960 C   0  0  0  0  0  0  0  0  0  0  0  0
   36.8880   29.3710   51.0330 N   0  0  0  0  0  0  0  0  0  0  0  0
   38.0680   31.0110   51.8700 H   0  0  0  0  0  0  0  0  0  0  0  0
   38.1580   32.2600   49.7790 H   0  0  0  0  0  0  0  0  0  0  0  0
   35.7760   27.9850   49.9340 H   0  0  0  0  0  0  0  0  0  0  0  0
  2  1  1  0  0  0  0
  2  3  1  0  0  0  0
  3 25  1  0  0  0  0
  4  3  2  0  0  0  0
  4  8  1  0  0  0  0
  5  4  1  0  0  0  0
  6  7  1  0  0  0  0
  6  5  2  0  0  0  0
  7  2  2  0  0  0  0
  9  5  1  0  0  0  0
 10  6  1  0  0  0  0
 11 20  1  0  0  0  0
 11 12  1  0  0  0  0
 12  7  1  0  0  0  0
 13 12  2  0  0  0  0
 13 14  1  0  0  0  0
 15 13  1  0  0  0  0
 16 15  1  0  0  0  0
 17 18  1  0  0  0  0
 17 15  2  0  0  0  0
 18 11  2  0  0  0  0
 19 22  1  0  0  0  0
 20 19  2  0  0  0  0
 21 20  1  0  0  0  0
 23 21  1  0  0  0  0
 24 21  1  0  0  0  0
 25 27  1  0  0  0  0
 27 26  2  1  0  0  0
 27 30  1  0  0  0  0
 28 27  1  0  0  0  0
 29 28  1  0  0  0  0
 30 33  1  0  0  0  0
 31 37  1  0  0  0  0
 32 31  2  0  0  0  0
 33 34  2  0  0  0  0
 33 32  1  0  0  0  0
 34 35  1  0  0  0  0
 35 39  1  0  0  0  0
 35 36  2  0  0  0  0
 36 31  1  0  0  0  0
 38 32  1  0  0  0  0
M  END
>  <minimizedAffinity>
-4.8220067

>  <minimizedRMSD>
0.630685329

$$$$
