
 OpenBabel03272508123D

 39 41  0  0  0  0  0  0  0  0999 V2000
   36.7410   29.3680   43.9610 Cl  0  0  0  0  0  0  0  0  0  0  0  0
   38.3850   29.8120   43.4770 C   0  0  0  0  0  0  0  0  0  0  0  0
   39.3380   30.3280   44.3430 C   0  0  0  0  0  0  0  0  0  0  0  0
   40.5940   30.6320   43.8200 C   0  0  0  0  0  0  0  0  0  0  0  0
   40.8650   30.4220   42.4880 C   0  0  0  0  0  0  0  0  0  0  0  0
   39.9300   29.9130   41.6260 C   0  0  0  0  0  0  0  0  0  0  0  0
   38.7010   29.6110   42.1200 C   0  0  0  0  0  0  0  0  0  0  0  0
   41.2710   31.0300   44.5710 H   0  0  0  0  0  0  0  0  0  0  0  0
   41.8770   30.6990   42.2060 H   0  0  0  0  0  0  0  0  0  0  0  0
   40.2120   29.7710   40.5810 H   0  0  0  0  0  0  0  0  0  0  0  0
   37.7860   27.6950   41.0600 C   0  0  0  0  0  0  0  0  0  0  0  0
   37.7250   29.0680   41.1740 C   0  0  0  0  0  0  0  0  0  0  0  0
   36.8020   29.7730   40.4280 C   0  0  0  0  0  0  0  0  0  0  0  0
   36.8290   30.8470   40.5830 H   0  0  0  0  0  0  0  0  0  0  0  0
   35.9460   29.1080   39.5730 C   0  0  0  0  0  0  0  0  0  0  0  0
   35.2380   29.7180   39.0100 H   0  0  0  0  0  0  0  0  0  0  0  0
   35.9780   27.7330   39.4330 C   0  0  0  0  0  3  0  0  0  0  0  0
   36.9110   27.0340   40.1910 C   0  0  0  0  0  3  0  0  0  0  0  0
   39.8000   26.2770   41.2950 N   0  0  0  0  0  0  0  0  0  0  0  0
   38.6550   26.7380   41.7280 C   0  0  0  0  0  0  0  0  0  0  0  0
   38.3000   26.1900   42.9900 N   0  0  0  0  0  0  0  0  0  0  0  0
   40.2080   26.5770   40.3820 H   0  0  0  0  0  0  0  0  0  0  0  0
   38.0320   25.7630   43.9010 H   0  0  0  0  0  0  0  0  0  0  0  0
   37.9640   25.1990   42.8090 H   0  0  0  0  0  0  0  0  0  0  0  0
   38.8740   30.4580   45.6100 O   0  0  0  0  0  0  0  0  0  0  0  0
   39.4180   32.5000   47.0980 O   0  0  0  0  0  0  0  0  0  0  0  0
   38.2880   31.8290   46.4010 P   0  0  1  0  0  0  0  0  0  0  0  0
   37.6940   32.8320   45.1550 O   0  0  0  0  0  0  0  0  0  0  0  0
   38.3270   33.5900   44.9910 H   0  0  0  0  0  0  0  0  0  0  0  0
   37.0160   31.3780   47.4230 O   0  0  0  0  0  0  0  0  0  0  0  0
   37.6080   30.5340   50.9660 C   0  0  0  0  0  0  0  0  0  0  0  0
   37.6990   31.2980   49.7970 C   0  0  0  0  0  0  0  0  0  0  0  0
   37.0620   30.8150   48.6530 C   0  0  0  0  0  0  0  0  0  0  0  0
   36.3860   29.6270   48.7330 N   0  0  0  0  0  0  0  0  0  0  0  0
   36.3280   28.9300   49.8830 C   0  0  0  0  0  0  0  0  0  0  0  0
   36.9420   29.3890   50.9980 N   0  0  0  0  0  0  0  0  0  0  0  0
   38.1530   31.0340   51.7800 H   0  0  0  0  0  0  0  0  0  0  0  0
   38.2130   32.2400   49.6620 H   0  0  0  0  0  0  0  0  0  0  0  0
   35.7950   27.9920   49.9500 H   0  0  0  0  0  0  0  0  0  0  0  0
  2  1  1  0  0  0  0
  2  3  1  0  0  0  0
  3 25  1  0  0  0  0
  4  3  2  0  0  0  0
  4  8  1  0  0  0  0
  5  4  1  0  0  0  0
  6  7  1  0  0  0  0
  6  5  2  0  0  0  0
  7  2  2  0  0  0  0
  9  5  1  0  0  0  0
 10  6  1  0  0  0  0
 11 12  1  0  0  0  0
 11 20  1  0  0  0  0
 12  7  1  0  0  0  0
 13 14  1  0  0  0  0
 13 12  2  0  0  0  0
 15 13  1  0  0  0  0
 16 15  1  0  0  0  0
 17 15  2  0  0  0  0
 17 18  1  0  0  0  0
 18 11  2  0  0  0  0
 19 20  2  0  0  0  0
 20 21  1  0  0  0  0
 21 23  1  0  0  0  0
 22 19  1  0  0  0  0
 24 21  1  0  0  0  0
 25 27  1  0  0  0  0
 27 26  2  1  0  0  0
 27 30  1  0  0  0  0
 28 27  1  0  0  0  0
 29 28  1  0  0  0  0
 30 33  1  0  0  0  0
 31 36  1  0  0  0  0
 31 37  1  0  0  0  0
 32 31  2  0  0  0  0
 33 34  2  0  0  0  0
 33 32  1  0  0  0  0
 34 35  1  0  0  0  0
 35 39  1  0  0  0  0
 35 36  2  0  0  0  0
 38 32  1  0  0  0  0
M  END
>  <minimizedAffinity>
-5.0291605

>  <minimizedRMSD>
0.369173169

$$$$
