
 OpenBabel03262521033D

 23 24  0  0  0  0  0  0  0  0999 V2000
   38.7050   32.2730   47.6410 C   0  0  0  0  0  0  0  0  0  0  0  0
   38.3360   32.3060   48.9690 C   0  0  0  0  0  0  0  0  0  0  0  0
   38.7620   33.3000   49.8260 C   0  0  0  0  0  0  0  0  0  0  0  0
   38.4340   33.2690   50.8670 H   0  0  0  0  0  0  0  0  0  0  0  0
   39.5850   34.3020   49.3600 C   0  0  0  0  0  0  0  0  0  0  0  0
   39.9330   35.0950   50.0180 H   0  0  0  0  0  0  0  0  0  0  0  0
   39.9600   34.2740   48.0270 C   0  0  0  0  0  3  0  0  0  0  0  0
   39.5360   33.2790   47.1570 C   0  0  0  0  0  3  0  0  0  0  0  0
   36.0890   31.4160   49.3960 C   0  0  0  0  0  0  0  0  0  0  0  0
   37.4770   31.2290   49.4440 C   0  0  0  0  0  0  0  0  0  0  0  0
   37.9500   30.0060   49.9580 C   0  0  0  0  0  0  0  0  0  0  0  0
   37.0460   29.0840   50.3750 N   0  0  0  0  0  0  0  0  0  0  0  0
   35.7060   29.3150   50.3070 C   0  0  0  0  0  0  0  0  0  0  0  0
   35.2310   30.4750   49.8200 N   0  0  0  0  0  0  0  0  0  0  0  0
   35.6750   32.3500   49.0040 H   0  0  0  0  0  0  0  0  0  0  0  0
   39.0170   29.8640   49.9990 H   0  0  0  0  0  0  0  0  0  0  0  0
   35.1320   28.4730   50.6800 H   0  0  0  0  0  0  0  0  0  0  0  0
   39.1310   30.3380   46.2850 N   0  0  0  0  0  0  0  0  0  0  0  0
   38.3080   31.2890   46.6420 C   0  0  0  0  0  0  0  0  0  0  0  0
   37.0710   31.2060   45.9430 N   0  0  0  0  0  0  0  0  0  0  0  0
   40.0760   30.2330   46.6800 H   0  0  0  0  0  0  0  0  0  0  0  0
   37.0280   31.0040   44.9140 H   0  0  0  0  0  0  0  0  0  0  0  0
   36.0550   31.2060   45.7080 H   0  0  0  0  0  0  0  0  0  0  0  0
  1  2  1  0  0  0  0
  2 10  1  0  0  0  0
  2  3  2  0  0  0  0
  3  4  1  0  0  0  0
  5  3  1  0  0  0  0
  5  6  1  0  0  0  0
  7  5  2  0  0  0  0
  8  1  2  0  0  0  0
  8  7  1  0  0  0  0
  9 10  2  0  0  0  0
  9 14  1  0  0  0  0
 10 11  1  0  0  0  0
 11 16  1  0  0  0  0
 11 12  2  0  0  0  0
 13 12  1  0  0  0  0
 13 17  1  0  0  0  0
 14 13  2  0  0  0  0
 15  9  1  0  0  0  0
 18 19  2  0  0  0  0
 18 21  1  0  0  0  0
 19  1  1  0  0  0  0
 20 19  1  0  0  0  0
 22 20  1  0  0  0  0
 23 20  1  0  0  0  0
M  END
>  <minimizedAffinity>
-5.14416456

>  <minimizedRMSD>
2.43228936

$$$$
