
 OpenBabel03262523133D

 34 36  0  0  0  0  0  0  0  0999 V2000
   35.0050   29.5250   48.3390 C   0  0  0  0  0  0  0  0  0  0  0  0
   34.5040   28.3330   48.8300 C   0  0  0  0  0  0  0  0  0  0  0  0
   33.4290   27.8500   48.1330 C   0  0  0  0  0  0  0  0  0  0  0  0
   32.8900   28.5000   47.0310 C   0  0  0  0  0  0  0  0  0  0  0  0
   33.4520   29.6870   46.6080 C   0  0  0  0  0  0  0  0  0  0  0  0
   34.5090   30.1830   47.2750 N   0  0  0  0  0  0  0  0  0  0  0  0
   34.9580   27.8740   49.6820 H   0  0  0  0  0  0  0  0  0  0  0  0
   33.0540   26.8960   48.5510 H   0  0  0  0  0  0  0  0  0  0  0  0
   32.0650   27.9440   46.6540 H   0  0  0  0  0  0  0  0  0  0  0  0
   37.6210   30.2330   50.8330 C   0  0  0  0  0  0  0  0  0  0  0  0
   38.3300   31.2740   50.2270 C   0  0  0  0  0  0  0  0  0  0  0  0
   37.9100   31.7220   48.9820 C   0  0  0  0  0  0  0  0  0  0  0  0
   36.8340   31.1190   48.4300 N   0  0  0  0  0  0  0  0  0  0  0  0
   36.1580   30.1290   49.0030 C   0  0  0  0  0  0  0  0  0  0  0  0
   36.5800   29.7010   50.2210 N   0  0  0  0  0  0  0  0  0  0  0  0
   39.1770   31.6850   50.7580 H   0  0  0  0  0  0  0  0  0  0  0  0
   38.4560   32.5320   48.5020 H   0  0  0  0  0  0  0  0  0  0  0  0
   37.9640   29.6900   52.1140 N   0  0  0  0  0  0  0  0  0  0  0  0
   37.5570   29.8290   53.0610 H   0  0  0  0  0  0  0  0  0  0  0  0
   38.7690   29.0970   51.8130 H   0  0  0  0  0  0  0  0  0  0  0  0
   33.3570   30.2950   44.1840 C   0  0  0  0  0  0  0  0  0  0  0  0
   32.8340   30.3160   45.4550 C   0  0  0  0  0  0  0  0  0  0  0  0
   31.6500   31.0050   45.5300 C   0  0  0  0  0  0  0  0  0  0  0  0
   31.1000   31.1240   46.4440 H   0  0  0  0  0  0  0  0  0  0  0  0
   31.0450   31.6120   44.4550 C   0  0  0  0  0  0  0  0  0  0  0  0
   30.1170   32.1480   44.5310 H   0  0  0  0  0  0  0  0  0  0  0  0
   31.6130   31.5580   43.2040 C   0  0  0  0  0  3  0  0  0  0  0  0
   32.8010   30.8780   43.0760 C   0  0  0  0  0  3  0  0  0  0  0  0
   35.8760   29.5930   43.8340 N   0  0  0  0  0  0  0  0  0  0  0  0
   34.6150   29.6380   43.9070 C   0  0  0  0  0  0  0  0  0  0  0  0
   34.6570   28.2670   43.4550 N   0  0  0  0  0  0  0  0  0  0  0  0
   36.3040   28.7000   43.5200 H   0  0  0  0  0  0  0  0  0  0  0  0
   34.8280   27.2460   43.4940 H   0  0  0  0  0  0  0  0  0  0  0  0
   34.3410   27.9890   42.4940 H   0  0  0  0  0  0  0  0  0  0  0  0
  1  2  1  0  0  0  0
  1 14  1  0  0  0  0
  2  7  1  0  0  0  0
  3  8  1  0  0  0  0
  3  2  2  0  0  0  0
  4  3  1  0  0  0  0
  5  4  2  0  0  0  0
  5  6  1  0  0  0  0
  6  1  2  0  0  0  0
  9  4  1  0  0  0  0
 10 18  1  0  0  0  0
 11 16  1  0  0  0  0
 11 10  1  0  0  0  0
 12 11  2  0  0  0  0
 13 12  1  0  0  0  0
 13 14  2  0  0  0  0
 14 15  1  0  0  0  0
 15 10  2  0  0  0  0
 17 12  1  0  0  0  0
 18 19  1  0  0  0  0
 20 18  1  0  0  0  0
 21 22  1  0  0  0  0
 22 23  2  0  0  0  0
 22  5  1  0  0  0  0
 23 24  1  0  0  0  0
 25 26  1  0  0  0  0
 25 23  1  0  0  0  0
 27 25  2  0  0  0  0
 28 27  1  0  0  0  0
 28 21  2  0  0  0  0
 29 30  2  0  0  0  0
 30 21  1  0  0  0  0
 31 33  1  0  0  0  0
 31 30  1  0  0  0  0
 32 29  1  0  0  0  0
 34 31  1  0  0  0  0
M  END
>  <minimizedAffinity>
-5.27932978

>  <minimizedRMSD>
2.12243223

$$$$
