
 OpenBabel03272505133D

 44 47  0  0  0  0  0  0  0  0999 V2000
   33.7910   29.1890   44.5300 Cl  0  0  0  0  0  0  0  0  0  0  0  0
   33.8240   27.9740   45.7950 C   0  0  0  0  0  0  0  0  0  0  0  0
   33.9460   28.2250   47.1540 C   0  0  0  0  0  0  0  0  0  0  0  0
   33.9580   27.1830   48.0390 C   0  0  0  0  0  0  0  0  0  0  0  0
   33.8510   25.8990   47.6080 C   0  0  0  0  0  0  0  0  0  0  0  0
   33.7250   25.5840   46.2590 C   0  0  0  0  0  0  0  0  0  0  0  0
   33.7150   26.6450   45.3760 C   0  0  0  0  0  0  0  0  0  0  0  0
   34.0570   27.4930   49.0720 H   0  0  0  0  0  0  0  0  0  0  0  0
   33.8640   25.0980   48.3490 H   0  0  0  0  0  0  0  0  0  0  0  0
   33.6430   24.5580   45.9530 H   0  0  0  0  0  0  0  0  0  0  0  0
   32.4060   26.1210   43.2670 C   0  0  0  0  0  0  0  0  0  0  0  0
   33.5810   26.2570   43.9720 C   0  0  0  0  0  0  0  0  0  0  0  0
   34.7890   26.0150   43.3300 C   0  0  0  0  0  0  0  0  0  0  0  0
   35.8000   26.0780   43.7380 H   0  0  0  0  0  0  0  0  0  0  0  0
   34.7970   25.6410   41.9960 C   0  0  0  0  0  0  0  0  0  0  0  0
   35.7030   25.4320   41.4180 H   0  0  0  0  0  0  0  0  0  0  0  0
   33.6330   25.4970   41.2700 C   0  0  0  0  0  3  0  0  0  0  0  0
   32.4490   25.7440   41.9340 C   0  0  0  0  0  3  0  0  0  0  0  0
   30.7090   27.5890   44.0130 N   0  0  0  0  0  0  0  0  0  0  0  0
   31.1810   26.3890   43.9950 C   0  0  0  0  0  0  0  0  0  0  0  0
   30.5800   25.2690   44.6500 N   0  0  0  0  0  0  0  0  0  0  0  0
   29.8180   27.7320   44.5560 H   0  0  0  0  0  0  0  0  0  0  0  0
   30.1230   24.7980   43.8230 H   0  0  0  0  0  0  0  0  0  0  0  0
   30.3430   24.6680   45.4720 H   0  0  0  0  0  0  0  0  0  0  0  0
   34.0770   29.9640   47.5610 S   0  0  0  0  0  0  0  0  0  0  0  0
   36.4110   30.9050   45.7340 Cl  0  0  0  0  0  0  0  0  0  0  0  0
   36.7090   30.7900   47.4370 C   0  0  0  0  0  0  0  0  0  0  0  0
   37.9660   31.1210   47.8930 C   0  0  0  0  0  0  0  0  0  0  0  0
   38.2080   31.0300   49.2560 C   0  0  0  0  0  0  0  0  0  0  0  0
   37.2200   30.6240   50.0970 C   0  0  0  0  0  0  0  0  0  0  0  0
   35.9650   30.3010   49.5770 C   0  0  0  0  0  0  0  0  0  0  0  0
   35.6580   30.3680   48.2470 C   0  0  0  0  0  0  0  0  0  0  0  0
   39.1970   31.2910   49.6140 H   0  0  0  0  0  0  0  0  0  0  0  0
   37.4340   30.5610   51.1580 H   0  0  0  0  0  0  0  0  0  0  0  0
   35.1950   29.9800   50.2720 H   0  0  0  0  0  0  0  0  0  0  0  0
   40.2230   33.3250   46.0670 C   0  0  0  0  0  0  0  0  0  0  0  0
   40.9230   32.4630   45.2000 C   0  0  0  0  0  0  0  0  0  0  0  0
   40.6000   31.0970   45.2610 C   0  0  0  0  0  0  0  0  0  0  0  0
   39.6420   30.6840   46.1370 N   0  0  0  0  0  0  0  0  0  0  0  0
   39.0060   31.5570   46.9400 C   0  0  0  0  0  0  0  0  0  0  0  0
   39.2940   32.8580   46.9020 N   0  0  0  0  0  0  0  0  0  0  0  0
   40.4330   34.3900   46.0610 H   0  0  0  0  0  0  0  0  0  0  0  0
   41.6780   32.8590   44.5250 H   0  0  0  0  0  0  0  0  0  0  0  0
   41.1100   30.4050   44.6190 H   0  0  0  0  0  0  0  0  0  0  0  0
  1  2  1  0  0  0  0
  2  3  1  0  0  0  0
  3 25  1  0  0  0  0
  3  4  2  0  0  0  0
  4  8  1  0  0  0  0
  5  4  1  0  0  0  0
  5  9  1  0  0  0  0
  6  5  2  0  0  0  0
  7  2  2  0  0  0  0
  7  6  1  0  0  0  0
 10  6  1  0  0  0  0
 11 12  1  0  0  0  0
 11 20  1  0  0  0  0
 12  7  1  0  0  0  0
 13 14  1  0  0  0  0
 13 12  2  0  0  0  0
 15 13  1  0  0  0  0
 16 15  1  0  0  0  0
 17 18  1  0  0  0  0
 17 15  2  0  0  0  0
 18 11  2  0  0  0  0
 19 22  1  0  0  0  0
 20 19  2  0  0  0  0
 20 21  1  0  0  0  0
 21 24  1  0  0  0  0
 23 21  1  0  0  0  0
 25 32  1  0  0  0  0
 26 27  1  0  0  0  0
 27 28  2  0  0  0  0
 27 32  1  0  0  0  0
 28 29  1  0  0  0  0
 29 33  1  0  0  0  0
 29 30  2  0  0  0  0
 30 34  1  0  0  0  0
 31 30  1  0  0  0  0
 31 35  1  0  0  0  0
 32 31  2  0  0  0  0
 36 41  1  0  0  0  0
 37 38  1  0  0  0  0
 37 36  2  0  0  0  0
 38 39  2  0  0  0  0
 39 40  1  0  0  0  0
 40 28  1  0  0  0  0
 41 40  2  0  0  0  0
 42 36  1  0  0  0  0
 43 37  1  0  0  0  0
 44 38  1  0  0  0  0
M  END
>  <minimizedAffinity>
-5.56303835

>  <minimizedRMSD>
0.43418172

$$$$
