
 OpenBabel03272505123D

 44 47  0  0  0  0  0  0  0  0999 V2000
   33.7890   29.1870   44.5290 Cl  0  0  0  0  0  0  0  0  0  0  0  0
   33.8230   27.9720   45.7940 C   0  0  0  0  0  0  0  0  0  0  0  0
   33.9450   28.2240   47.1540 C   0  0  0  0  0  0  0  0  0  0  0  0
   33.9580   27.1820   48.0380 C   0  0  0  0  0  0  0  0  0  0  0  0
   33.8510   25.8980   47.6070 C   0  0  0  0  0  0  0  0  0  0  0  0
   33.7250   25.5820   46.2580 C   0  0  0  0  0  0  0  0  0  0  0  0
   33.7140   26.6430   45.3760 C   0  0  0  0  0  0  0  0  0  0  0  0
   34.0570   27.4920   49.0710 H   0  0  0  0  0  0  0  0  0  0  0  0
   33.8650   25.0960   48.3490 H   0  0  0  0  0  0  0  0  0  0  0  0
   33.6440   24.5570   45.9530 H   0  0  0  0  0  0  0  0  0  0  0  0
   32.4050   26.1190   43.2670 C   0  0  0  0  0  0  0  0  0  0  0  0
   33.5800   26.2560   43.9720 C   0  0  0  0  0  0  0  0  0  0  0  0
   34.7880   26.0140   43.3300 C   0  0  0  0  0  0  0  0  0  0  0  0
   35.7990   26.0760   43.7370 H   0  0  0  0  0  0  0  0  0  0  0  0
   34.7950   25.6380   41.9960 C   0  0  0  0  0  0  0  0  0  0  0  0
   35.7020   25.4290   41.4180 H   0  0  0  0  0  0  0  0  0  0  0  0
   33.6310   25.4940   41.2700 C   0  0  0  0  0  3  0  0  0  0  0  0
   32.4470   25.7420   41.9340 C   0  0  0  0  0  3  0  0  0  0  0  0
   30.7080   27.5870   44.0130 N   0  0  0  0  0  0  0  0  0  0  0  0
   31.1800   26.3870   43.9950 C   0  0  0  0  0  0  0  0  0  0  0  0
   30.5790   25.2670   44.6520 N   0  0  0  0  0  0  0  0  0  0  0  0
   29.8170   27.7310   44.5550 H   0  0  0  0  0  0  0  0  0  0  0  0
   30.1220   24.7960   43.8250 H   0  0  0  0  0  0  0  0  0  0  0  0
   30.3430   24.6680   45.4740 H   0  0  0  0  0  0  0  0  0  0  0  0
   34.0750   29.9630   47.5600 S   0  0  0  0  0  0  0  0  0  0  0  0
   36.4100   30.9030   45.7340 Cl  0  0  0  0  0  0  0  0  0  0  0  0
   36.7070   30.7890   47.4370 C   0  0  0  0  0  0  0  0  0  0  0  0
   37.9650   31.1210   47.8930 C   0  0  0  0  0  0  0  0  0  0  0  0
   38.2050   31.0300   49.2560 C   0  0  0  0  0  0  0  0  0  0  0  0
   37.2180   30.6240   50.0970 C   0  0  0  0  0  0  0  0  0  0  0  0
   35.9630   30.3010   49.5770 C   0  0  0  0  0  0  0  0  0  0  0  0
   35.6560   30.3670   48.2470 C   0  0  0  0  0  0  0  0  0  0  0  0
   39.1940   31.2910   49.6140 H   0  0  0  0  0  0  0  0  0  0  0  0
   37.4310   30.5610   51.1580 H   0  0  0  0  0  0  0  0  0  0  0  0
   35.1920   29.9800   50.2720 H   0  0  0  0  0  0  0  0  0  0  0  0
   40.2230   33.3240   46.0680 C   0  0  0  0  0  0  0  0  0  0  0  0
   40.9220   32.4620   45.2010 C   0  0  0  0  0  0  0  0  0  0  0  0
   40.5980   31.0960   45.2600 C   0  0  0  0  0  0  0  0  0  0  0  0
   39.6390   30.6830   46.1360 N   0  0  0  0  0  0  0  0  0  0  0  0
   39.0040   31.5560   46.9400 C   0  0  0  0  0  0  0  0  0  0  0  0
   39.2940   32.8570   46.9040 N   0  0  0  0  0  0  0  0  0  0  0  0
   40.4350   34.3890   46.0640 H   0  0  0  0  0  0  0  0  0  0  0  0
   41.6770   32.8570   44.5250 H   0  0  0  0  0  0  0  0  0  0  0  0
   41.1060   30.4040   44.6170 H   0  0  0  0  0  0  0  0  0  0  0  0
  1  2  1  0  0  0  0
  2  3  1  0  0  0  0
  3 25  1  0  0  0  0
  3  4  2  0  0  0  0
  4  8  1  0  0  0  0
  5  4  1  0  0  0  0
  5  9  1  0  0  0  0
  6  5  2  0  0  0  0
  7  2  2  0  0  0  0
  7  6  1  0  0  0  0
 10  6  1  0  0  0  0
 11 12  1  0  0  0  0
 11 20  1  0  0  0  0
 12  7  1  0  0  0  0
 13 14  1  0  0  0  0
 13 12  2  0  0  0  0
 15 13  1  0  0  0  0
 16 15  1  0  0  0  0
 17 18  1  0  0  0  0
 17 15  2  0  0  0  0
 18 11  2  0  0  0  0
 19 22  1  0  0  0  0
 20 19  2  0  0  0  0
 20 21  1  0  0  0  0
 21 24  1  0  0  0  0
 23 21  1  0  0  0  0
 25 32  1  0  0  0  0
 26 27  1  0  0  0  0
 27 28  2  0  0  0  0
 27 32  1  0  0  0  0
 28 29  1  0  0  0  0
 29 33  1  0  0  0  0
 29 30  2  0  0  0  0
 30 34  1  0  0  0  0
 31 30  1  0  0  0  0
 31 35  1  0  0  0  0
 32 31  2  0  0  0  0
 36 41  1  0  0  0  0
 37 38  1  0  0  0  0
 37 36  2  0  0  0  0
 38 39  2  0  0  0  0
 39 40  1  0  0  0  0
 40 28  1  0  0  0  0
 41 40  2  0  0  0  0
 42 36  1  0  0  0  0
 43 37  1  0  0  0  0
 44 38  1  0  0  0  0
M  END
>  <minimizedAffinity>
-5.56136322

>  <minimizedRMSD>
0.581594169

$$$$
