
 OpenBabel03262523193D

 35 37  0  0  1  0  0  0  0  0999 V2000
   38.2440   34.2670   49.3140 C   0  0  0  0  0  0  0  0  0  0  0  0
   39.6270   34.2520   49.1020 C   0  0  0  0  0  0  0  0  0  0  0  0
   40.1650   33.2820   48.2190 C   0  0  0  0  0  0  0  0  0  0  0  0
   39.3030   32.4250   47.6300 N   0  0  0  0  0  0  0  0  0  0  0  0
   37.9860   32.4600   47.8490 C   0  0  0  0  0  0  0  0  0  0  0  0
   37.4720   33.3750   48.6830 N   0  0  0  0  0  0  0  0  0  0  0  0
   37.1390   31.5100   47.1980 N   0  0  0  0  0  0  0  0  0  0  0  0
   37.0630   31.3670   45.7520 C   0  0  0  0  0  0  0  0  0  0  0  0
   36.1910   30.1980   45.5190 C   0  0  0  0  0  0  0  0  0  0  0  0
   36.1300   29.4720   46.8550 C   0  0  0  0  0  0  0  0  0  0  0  0
   36.2540   30.5760   47.8430 C   0  0  1  0  0  0  0  0  0  0  0  0
   37.7760   34.9900   49.9820 H   0  0  0  0  0  0  0  0  0  0  0  0
   40.2380   34.9650   49.6090 H   0  0  0  0  0  0  0  0  0  0  0  0
   41.2350   33.2630   48.0490 H   0  0  0  0  0  0  0  0  0  0  0  0
   36.7520   32.3010   45.2570 H   0  0  0  0  0  0  0  0  0  0  0  0
   38.1030   31.1060   45.4030 H   0  0  0  0  0  0  0  0  0  0  0  0
   35.1690   30.5760   45.2980 H   0  0  0  0  0  0  0  0  0  0  0  0
   36.5020   29.5150   44.7090 H   0  0  0  0  0  0  0  0  0  0  0  0
   36.9240   28.7060   46.9180 H   0  0  0  0  0  0  0  0  0  0  0  0
   35.1320   28.9910   46.9030 H   0  0  0  0  0  0  0  0  0  0  0  0
   35.2590   31.0840   47.8780 H   0  0  0  0  0  0  0  0  0  0  0  0
   35.6820   29.6710   50.0120 C   0  0  0  0  0  0  0  0  0  0  0  0
   36.6850   30.1100   49.1640 C   0  0  0  0  0  0  0  0  0  0  0  0
   37.9540   30.0550   49.6470 C   0  0  0  0  0  0  0  0  0  0  0  0
   38.7470   30.3790   49.0230 H   0  0  0  0  0  0  0  0  0  0  0  0
   38.2670   29.5930   50.9060 C   0  0  0  0  0  0  0  0  0  0  0  0
   39.3000   29.5690   51.2440 H   0  0  0  0  0  0  0  0  0  0  0  0
   37.2670   29.1560   51.7480 C   0  0  0  0  0  3  0  0  0  0  0  0
   35.9730   29.2040   51.2770 C   0  0  0  0  0  3  0  0  0  0  0  0
   33.3160   29.8630   50.6270 N   0  0  0  0  0  0  0  0  0  0  0  0
   34.2530   29.6290   49.7370 C   0  0  0  0  0  0  0  0  0  0  0  0
   33.4350   29.3650   48.6040 N   0  0  0  0  0  0  0  0  0  0  0  0
   32.3400   29.7950   50.2740 H   0  0  0  0  0  0  0  0  0  0  0  0
   32.9180   30.0520   48.0240 H   0  0  0  0  0  0  0  0  0  0  0  0
   33.4670   28.3320   48.4830 H   0  0  0  0  0  0  0  0  0  0  0  0
  1 12  1  0  0  0  0
  2  1  1  0  0  0  0
  2 13  1  0  0  0  0
  3  2  2  0  0  0  0
  4  5  2  0  0  0  0
  4  3  1  0  0  0  0
  5  6  1  0  0  0  0
  6  1  2  0  0  0  0
  7 11  1  0  0  0  0
  7  5  1  0  0  0  0
  8  7  1  0  0  0  0
  9  8  1  0  0  0  0
  9 10  1  0  0  0  0
 10 20  1  0  0  0  0
 10 19  1  0  0  0  0
 10 11  1  0  0  0  0
 11 21  1  1  0  0  0
 11 23  1  0  0  0  0
 14  3  1  0  0  0  0
 15  8  1  0  0  0  0
 16  8  1  0  0  0  0
 17  9  1  0  0  0  0
 18  9  1  0  0  0  0
 22 29  1  0  0  0  0
 23 24  1  0  0  0  0
 23 22  2  0  0  0  0
 24 26  2  0  0  0  0
 25 24  1  0  0  0  0
 26 27  1  0  0  0  0
 26 28  1  0  0  0  0
 29 28  2  0  0  0  0
 31 22  1  0  0  0  0
 31 30  2  0  0  0  0
 32 31  1  0  0  0  0
 33 30  1  0  0  0  0
 34 32  1  0  0  0  0
 35 32  1  0  0  0  0
M  END
>  <minimizedAffinity>
-2.82950616

>  <minimizedRMSD>
2.67810726

$$$$
