
 OpenBabel03272505123D

 44 47  0  0  0  0  0  0  0  0999 V2000
   33.7880   29.1880   44.5310 Cl  0  0  0  0  0  0  0  0  0  0  0  0
   33.8230   27.9730   45.7950 C   0  0  0  0  0  0  0  0  0  0  0  0
   33.9450   28.2230   47.1550 C   0  0  0  0  0  0  0  0  0  0  0  0
   33.9580   27.1810   48.0380 C   0  0  0  0  0  0  0  0  0  0  0  0
   33.8520   25.8970   47.6070 C   0  0  0  0  0  0  0  0  0  0  0  0
   33.7260   25.5820   46.2580 C   0  0  0  0  0  0  0  0  0  0  0  0
   33.7150   26.6440   45.3760 C   0  0  0  0  0  0  0  0  0  0  0  0
   34.0580   27.4900   49.0720 H   0  0  0  0  0  0  0  0  0  0  0  0
   33.8660   25.0950   48.3480 H   0  0  0  0  0  0  0  0  0  0  0  0
   33.6450   24.5570   45.9510 H   0  0  0  0  0  0  0  0  0  0  0  0
   32.4050   26.1190   43.2660 C   0  0  0  0  0  0  0  0  0  0  0  0
   33.5800   26.2570   43.9720 C   0  0  0  0  0  0  0  0  0  0  0  0
   34.7890   26.0150   43.3290 C   0  0  0  0  0  0  0  0  0  0  0  0
   35.8000   26.0780   43.7370 H   0  0  0  0  0  0  0  0  0  0  0  0
   34.7970   25.6410   41.9950 C   0  0  0  0  0  0  0  0  0  0  0  0
   35.7030   25.4320   41.4170 H   0  0  0  0  0  0  0  0  0  0  0  0
   33.6320   25.4960   41.2690 C   0  0  0  0  0  3  0  0  0  0  0  0
   32.4480   25.7430   41.9330 C   0  0  0  0  0  3  0  0  0  0  0  0
   30.7080   27.5870   44.0150 N   0  0  0  0  0  0  0  0  0  0  0  0
   31.1800   26.3870   43.9950 C   0  0  0  0  0  0  0  0  0  0  0  0
   30.5800   25.2670   44.6510 N   0  0  0  0  0  0  0  0  0  0  0  0
   29.8170   27.7290   44.5570 H   0  0  0  0  0  0  0  0  0  0  0  0
   30.1230   24.7950   43.8240 H   0  0  0  0  0  0  0  0  0  0  0  0
   30.3460   24.6660   45.4730 H   0  0  0  0  0  0  0  0  0  0  0  0
   34.0750   29.9620   47.5620 S   0  0  0  0  0  0  0  0  0  0  0  0
   36.4090   30.9020   45.7350 Cl  0  0  0  0  0  0  0  0  0  0  0  0
   36.7070   30.7880   47.4380 C   0  0  0  0  0  0  0  0  0  0  0  0
   37.9640   31.1210   47.8930 C   0  0  0  0  0  0  0  0  0  0  0  0
   38.2050   31.0300   49.2560 C   0  0  0  0  0  0  0  0  0  0  0  0
   37.2180   30.6240   50.0980 C   0  0  0  0  0  0  0  0  0  0  0  0
   35.9630   30.3010   49.5780 C   0  0  0  0  0  0  0  0  0  0  0  0
   35.6560   30.3660   48.2480 C   0  0  0  0  0  0  0  0  0  0  0  0
   39.1940   31.2920   49.6140 H   0  0  0  0  0  0  0  0  0  0  0  0
   37.4310   30.5620   51.1590 H   0  0  0  0  0  0  0  0  0  0  0  0
   35.1920   29.9800   50.2730 H   0  0  0  0  0  0  0  0  0  0  0  0
   40.2230   33.3230   46.0690 C   0  0  0  0  0  0  0  0  0  0  0  0
   40.9210   32.4610   45.2000 C   0  0  0  0  0  0  0  0  0  0  0  0
   40.5950   31.0960   45.2580 C   0  0  0  0  0  0  0  0  0  0  0  0
   39.6360   30.6820   46.1350 N   0  0  0  0  0  0  0  0  0  0  0  0
   39.0030   31.5560   46.9400 C   0  0  0  0  0  0  0  0  0  0  0  0
   39.2950   32.8560   46.9050 N   0  0  0  0  0  0  0  0  0  0  0  0
   40.4370   34.3880   46.0660 H   0  0  0  0  0  0  0  0  0  0  0  0
   41.6760   32.8560   44.5240 H   0  0  0  0  0  0  0  0  0  0  0  0
   41.1010   30.4040   44.6140 H   0  0  0  0  0  0  0  0  0  0  0  0
  1  2  1  0  0  0  0
  2  3  1  0  0  0  0
  3 25  1  0  0  0  0
  3  4  2  0  0  0  0
  4  8  1  0  0  0  0
  5  4  1  0  0  0  0
  5  9  1  0  0  0  0
  6  5  2  0  0  0  0
  7  2  2  0  0  0  0
  7  6  1  0  0  0  0
 10  6  1  0  0  0  0
 11 12  1  0  0  0  0
 11 20  1  0  0  0  0
 12  7  1  0  0  0  0
 13 14  1  0  0  0  0
 13 12  2  0  0  0  0
 15 13  1  0  0  0  0
 16 15  1  0  0  0  0
 17 18  1  0  0  0  0
 17 15  2  0  0  0  0
 18 11  2  0  0  0  0
 19 22  1  0  0  0  0
 20 19  2  0  0  0  0
 20 21  1  0  0  0  0
 21 24  1  0  0  0  0
 23 21  1  0  0  0  0
 25 32  1  0  0  0  0
 26 27  1  0  0  0  0
 27 28  2  0  0  0  0
 27 32  1  0  0  0  0
 28 29  1  0  0  0  0
 29 33  1  0  0  0  0
 29 30  2  0  0  0  0
 30 34  1  0  0  0  0
 31 30  1  0  0  0  0
 31 35  1  0  0  0  0
 32 31  2  0  0  0  0
 36 41  1  0  0  0  0
 37 38  1  0  0  0  0
 37 36  2  0  0  0  0
 38 39  2  0  0  0  0
 39 40  1  0  0  0  0
 40 28  1  0  0  0  0
 41 40  2  0  0  0  0
 42 36  1  0  0  0  0
 43 37  1  0  0  0  0
 44 38  1  0  0  0  0
M  END
>  <minimizedAffinity>
-5.56507397

>  <minimizedRMSD>
0.803145468

$$$$
