
 OpenBabel03262523133D

 34 36  0  0  0  0  0  0  0  0999 V2000
   34.9420   29.3880   48.3610 C   0  0  0  0  0  0  0  0  0  0  0  0
   34.5640   28.1360   48.8130 C   0  0  0  0  0  0  0  0  0  0  0  0
   33.4830   27.6100   48.1570 C   0  0  0  0  0  0  0  0  0  0  0  0
   32.8260   28.2750   47.1310 C   0  0  0  0  0  0  0  0  0  0  0  0
   33.2700   29.5220   46.7430 C   0  0  0  0  0  0  0  0  0  0  0  0
   34.3290   30.0620   47.3710 N   0  0  0  0  0  0  0  0  0  0  0  0
   35.1060   27.6690   49.6070 H   0  0  0  0  0  0  0  0  0  0  0  0
   33.2080   26.6100   48.5410 H   0  0  0  0  0  0  0  0  0  0  0  0
   32.0210   27.6780   46.7740 H   0  0  0  0  0  0  0  0  0  0  0  0
   37.5890   30.2310   50.7790 C   0  0  0  0  0  0  0  0  0  0  0  0
   38.2500   31.2830   50.1370 C   0  0  0  0  0  0  0  0  0  0  0  0
   37.7870   31.6910   48.8940 C   0  0  0  0  0  0  0  0  0  0  0  0
   36.7190   31.0420   48.3800 N   0  0  0  0  0  0  0  0  0  0  0  0
   36.0890   30.0430   48.9870 C   0  0  0  0  0  0  0  0  0  0  0  0
   36.5530   29.6530   50.2020 N   0  0  0  0  0  0  0  0  0  0  0  0
   39.0940   31.7320   50.6400 H   0  0  0  0  0  0  0  0  0  0  0  0
   38.2940   32.5100   48.3860 H   0  0  0  0  0  0  0  0  0  0  0  0
   37.9800   29.7250   52.0630 N   0  0  0  0  0  0  0  0  0  0  0  0
   37.5900   29.8690   53.0160 H   0  0  0  0  0  0  0  0  0  0  0  0
   38.7970   29.1530   51.7540 H   0  0  0  0  0  0  0  0  0  0  0  0
   33.0980   30.6360   44.5110 C   0  0  0  0  0  0  0  0  0  0  0  0
   32.5330   30.1630   45.6690 C   0  0  0  0  0  0  0  0  0  0  0  0
   31.1750   30.3580   45.7160 C   0  0  0  0  0  0  0  0  0  0  0  0
   30.5680   30.0500   46.5460 H   0  0  0  0  0  0  0  0  0  0  0  0
   30.4520   30.9610   44.7140 C   0  0  0  0  0  0  0  0  0  0  0  0
   29.3880   31.1080   44.7650 H   0  0  0  0  0  0  0  0  0  0  0  0
   31.0700   31.4170   43.5750 C   0  0  0  0  0  3  0  0  0  0  0  0
   32.4320   31.2450   43.4800 C   0  0  0  0  0  3  0  0  0  0  0  0
   35.7250   30.8820   44.4890 N   0  0  0  0  0  0  0  0  0  0  0  0
   34.5240   30.5440   44.2870 C   0  0  0  0  0  0  0  0  0  0  0  0
   35.0720   29.5960   43.3470 N   0  0  0  0  0  0  0  0  0  0  0  0
   36.4580   30.3820   43.9500 H   0  0  0  0  0  0  0  0  0  0  0  0
   35.5800   28.7570   43.0120 H   0  0  0  0  0  0  0  0  0  0  0  0
   34.9520   29.7060   42.3120 H   0  0  0  0  0  0  0  0  0  0  0  0
  1  2  1  0  0  0  0
  1 14  1  0  0  0  0
  2  7  1  0  0  0  0
  3  8  1  0  0  0  0
  3  2  2  0  0  0  0
  4  3  1  0  0  0  0
  5  4  2  0  0  0  0
  5  6  1  0  0  0  0
  6  1  2  0  0  0  0
  9  4  1  0  0  0  0
 10 18  1  0  0  0  0
 11 16  1  0  0  0  0
 11 10  2  0  0  0  0
 12 11  1  0  0  0  0
 13 12  2  0  0  0  0
 13 14  1  0  0  0  0
 14 15  2  0  0  0  0
 15 10  1  0  0  0  0
 17 12  1  0  0  0  0
 18 19  1  0  0  0  0
 20 18  1  0  0  0  0
 21 22  1  0  0  0  0
 22 23  2  0  0  0  0
 22  5  1  0  0  0  0
 23 24  1  0  0  0  0
 25 26  1  0  0  0  0
 25 23  1  0  0  0  0
 27 25  2  0  0  0  0
 28 27  1  0  0  0  0
 28 21  2  0  0  0  0
 30 29  2  0  0  0  0
 30 21  1  0  0  0  0
 31 30  1  0  0  0  0
 32 29  1  0  0  0  0
 33 31  1  0  0  0  0
 34 31  1  0  0  0  0
M  END
>  <minimizedAffinity>
-5.56022835

>  <minimizedRMSD>
0.586599052

$$$$
