
 OpenBabel03272509133D

 45 48  0  0  1  0  0  0  0  0999 V2000
   36.0300   30.7460   46.2740 N   0  0  0  0  0  0  0  0  0  0  0  0
   37.1890   31.6130   46.6080 C   0  0  0  0  0  0  0  0  0  0  0  0
   38.1150   30.6180   47.2930 C   0  0  0  0  0  0  0  0  0  0  0  0
   37.1730   29.7010   48.0340 C   0  0  0  0  0  0  0  0  0  0  0  0
   35.7910   30.0890   47.5570 C   0  0  2  0  0  0  0  0  0  0  0  0
   36.8350   32.4030   47.2720 H   0  0  0  0  0  0  0  0  0  0  0  0
   37.6130   32.0440   45.6940 H   0  0  0  0  0  0  0  0  0  0  0  0
   38.7440   31.1190   48.0580 H   0  0  0  0  0  0  0  0  0  0  0  0
   38.7140   30.0870   46.5250 H   0  0  0  0  0  0  0  0  0  0  0  0
   37.2650   29.7910   49.1330 H   0  0  0  0  0  0  0  0  0  0  0  0
   37.4060   28.6280   47.7840 H   0  0  0  0  0  0  0  0  0  0  0  0
   35.4060   30.8610   48.2430 H   0  0  0  0  0  0  0  0  0  0  0  0
   33.8420   30.6610   45.3150 C   0  0  0  0  0  0  0  0  0  0  0  0
   35.2400   30.4700   45.1290 C   0  0  0  0  0  0  0  0  0  0  0  0
   35.6690   30.0030   43.8830 C   0  0  0  0  0  0  0  0  0  0  0  0
   34.7430   29.7530   42.9180 N   0  0  0  0  0  0  0  0  0  0  0  0
   33.4240   29.9470   43.1420 C   0  0  0  0  0  0  0  0  0  0  0  0
   32.9810   30.3950   44.3200 N   0  0  0  0  0  0  0  0  0  0  0  0
   33.4170   31.0240   46.2380 H   0  0  0  0  0  0  0  0  0  0  0  0
   32.6590   29.7550   42.3900 H   0  0  0  0  0  0  0  0  0  0  0  0
   37.0620   29.8030   43.5880 C   0  0  0  0  0  0  0  0  0  0  0  0
   37.8290   30.8880   43.2290 C   0  0  0  0  0  0  0  0  0  0  0  0
   39.1730   30.8090   42.9300 C   0  0  0  0  0  0  0  0  0  0  0  0
   39.7380   29.5450   43.0080 C   0  0  0  0  0  0  0  0  0  0  0  0
   39.0320   28.4030   43.3620 C   0  0  0  0  0  0  0  0  0  0  0  0
   37.6690   28.5750   43.6510 C   0  0  0  0  0  0  0  0  0  0  0  0
   37.3750   31.8820   43.1690 H   0  0  0  0  0  0  0  0  0  0  0  0
   39.7680   31.6670   42.6490 H   0  0  0  0  0  0  0  0  0  0  0  0
   40.7870   29.3940   42.7890 H   0  0  0  0  0  0  0  0  0  0  0  0
   39.5020   27.4300   43.4140 H   0  0  0  0  0  0  0  0  0  0  0  0
   37.0820   27.7150   43.9310 H   0  0  0  0  0  0  0  0  0  0  0  0
   34.2590   28.5260   48.6730 C   0  0  0  0  0  0  0  0  0  0  0  0
   34.8950   28.9190   47.4880 C   0  0  0  0  0  0  0  0  0  0  0  0
   34.6170   28.1430   46.3960 C   0  0  0  0  0  0  0  0  0  0  0  0
   35.0900   28.4090   45.4750 H   0  0  0  0  0  0  0  0  0  0  0  0
   33.7780   27.0490   46.4220 C   0  0  0  0  0  0  0  0  0  0  0  0
   33.6050   26.4790   45.5080 H   0  0  0  0  0  0  0  0  0  0  0  0
   33.1630   26.6810   47.5990 C   0  0  0  0  0  3  0  0  0  0  0  0
   33.4170   27.4370   48.7210 C   0  0  0  0  0  3  0  0  0  0  0  0
   33.5090   29.9840   50.4550 N   0  0  0  0  0  0  0  0  0  0  0  0
   34.4030   29.1920   49.9590 C   0  0  0  0  0  0  0  0  0  0  0  0
   35.3370   29.2650   50.9990 N   0  0  0  0  0  0  0  0  0  0  0  0
   33.6410   30.4350   51.3630 H   0  0  0  0  0  0  0  0  0  0  0  0
   35.2260   28.3330   51.4930 H   0  0  0  0  0  0  0  0  0  0  0  0
   35.9870   30.0460   51.2320 H   0  0  0  0  0  0  0  0  0  0  0  0
  1  2  1  0  0  0  0
  1  5  1  0  0  0  0
  2  6  1  0  0  0  0
  2  3  1  0  0  0  0
  3  4  1  0  0  0  0
  3  8  1  0  0  0  0
  4 10  1  0  0  0  0
  5  4  1  0  0  0  0
  5 12  1  1  0  0  0
  7  2  1  0  0  0  0
  9  3  1  0  0  0  0
 11  4  1  0  0  0  0
 13 19  1  0  0  0  0
 14 13  1  0  0  0  0
 14  1  1  0  0  0  0
 15 14  2  0  0  0  0
 16 17  2  0  0  0  0
 16 15  1  0  0  0  0
 17 18  1  0  0  0  0
 18 13  2  0  0  0  0
 20 17  1  0  0  0  0
 21 26  1  0  0  0  0
 21 15  1  0  0  0  0
 22 21  2  0  0  0  0
 23 24  2  0  0  0  0
 23 22  1  0  0  0  0
 24 25  1  0  0  0  0
 25 30  1  0  0  0  0
 25 26  2  0  0  0  0
 26 31  1  0  0  0  0
 27 22  1  0  0  0  0
 28 23  1  0  0  0  0
 29 24  1  0  0  0  0
 32 39  1  0  0  0  0
 32 41  1  0  0  0  0
 33  5  1  0  0  0  0
 33 32  2  0  0  0  0
 34 36  2  0  0  0  0
 34 33  1  0  0  0  0
 35 34  1  0  0  0  0
 36 38  1  0  0  0  0
 37 36  1  0  0  0  0
 38 39  2  0  0  0  0
 40 43  1  0  0  0  0
 41 40  2  0  0  0  0
 41 42  1  0  0  0  0
 42 45  1  0  0  0  0
 42 44  1  0  0  0  0
M  END
>  <minimizedAffinity>
-3.54144645

>  <minimizedRMSD>
2.92677641

$$$$
