
 OpenBabel03272506073D

 35 37  0  0  0  0  0  0  0  0999 V2000
   34.2760   29.0030   48.0950 C   0  0  0  0  0  0  0  0  0  0  0  0
   34.2510   29.9810   47.0330 C   0  0  0  0  0  0  0  0  0  0  0  0
   32.6550   29.6750   46.3430 S   0  0  0  0  0  0  0  0  0  0  0  0
   32.2260   28.3000   47.5400 C   0  0  0  0  0  0  0  0  0  0  0  0
   33.2110   28.2590   48.2110 N   0  0  0  0  0  0  0  0  0  0  0  0
   35.0390   30.6800   46.7870 H   0  0  0  0  0  0  0  0  0  0  0  0
   30.8170   26.5170   46.6480 C   0  0  0  0  0  0  0  0  0  0  0  0
   30.9080   27.6580   47.3850 C   0  0  0  0  0  0  0  0  0  0  0  0
   29.7510   28.1480   47.9450 C   0  0  0  0  0  0  0  0  0  0  0  0
   29.7980   29.0530   48.5350 H   0  0  0  0  0  0  0  0  0  0  0  0
   28.5790   27.4910   47.7480 C   0  0  0  0  0  0  0  0  0  0  0  0
   27.7040   27.9240   48.2130 H   0  0  0  0  0  0  0  0  0  0  0  0
   28.5050   26.3440   47.0030 C   0  0  0  0  0  3  0  0  0  0  0  0
   29.6430   25.8290   46.4300 C   0  0  0  0  0  3  0  0  0  0  0  0
   33.1620   25.4440   46.1630 N   0  0  0  0  0  0  0  0  0  0  0  0
   31.9920   25.9570   46.0460 C   0  0  0  0  0  0  0  0  0  0  0  0
   32.0990   25.8230   44.6140 N   0  0  0  0  0  0  0  0  0  0  0  0
   33.6910   25.1570   45.3120 H   0  0  0  0  0  0  0  0  0  0  0  0
   32.5690   26.2710   43.7730 H   0  0  0  0  0  0  0  0  0  0  0  0
   31.5520   25.0330   44.1670 H   0  0  0  0  0  0  0  0  0  0  0  0
   35.4960   28.9210   48.9620 C   0  0  0  0  0  0  0  0  0  0  0  0
   35.4820   27.9840   49.5560 H   0  0  0  0  0  0  0  0  0  0  0  0
   36.4100   28.8230   48.3040 H   0  0  0  0  0  0  0  0  0  0  0  0
   35.6100   30.0810   49.8850 C   0  0  0  0  0  0  0  0  0  0  0  0
   34.6750   30.6410   49.9470 H   0  0  0  0  0  0  0  0  0  0  0  0
   35.8390   29.7480   50.9340 H   0  0  0  0  0  0  0  0  0  0  0  0
   37.8300   33.0200   49.4780 C   0  0  0  0  0  0  0  0  0  0  0  0
   38.6930   32.6330   48.4550 C   0  0  0  0  0  0  0  0  0  0  0  0
   38.5040   31.3530   47.9070 C   0  0  0  0  0  0  0  0  0  0  0  0
   37.5020   30.5820   48.4050 N   0  0  0  0  0  0  0  0  0  0  0  0
   36.6950   31.0190   49.4050 C   0  0  0  0  0  0  0  0  0  0  0  0
   36.8510   32.2310   49.9430 N   0  0  0  0  0  0  0  0  0  0  0  0
   37.9240   33.9840   49.9350 H   0  0  0  0  0  0  0  0  0  0  0  0
   39.4550   33.3180   48.1310 H   0  0  0  0  0  0  0  0  0  0  0  0
   39.1550   31.0300   47.1190 H   0  0  0  0  0  0  0  0  0  0  0  0
  1  5  1  0  0  0  0
  1 21  1  0  0  0  0
  2  1  2  0  0  0  0
  3  2  1  0  0  0  0
  3  4  1  0  0  0  0
  4  5  2  0  0  0  0
  6  2  1  0  0  0  0
  7  8  1  0  0  0  0
  8  4  1  0  0  0  0
  8  9  2  0  0  0  0
  9 10  1  0  0  0  0
 11  9  1  0  0  0  0
 11 12  1  0  0  0  0
 13 11  2  0  0  0  0
 14  7  2  0  0  0  0
 14 13  1  0  0  0  0
 16 15  2  0  0  0  0
 16  7  1  0  0  0  0
 17 16  1  0  0  0  0
 18 15  1  0  0  0  0
 19 17  1  0  0  0  0
 20 17  1  0  0  0  0
 21 22  1  0  0  0  0
 21 24  1  0  0  0  0
 23 21  1  0  0  0  0
 24 25  1  0  0  0  0
 24 26  1  0  0  0  0
 27 33  1  0  0  0  0
 27 32  1  0  0  0  0
 28 27  2  0  0  0  0
 29 30  2  0  0  0  0
 29 28  1  0  0  0  0
 30 31  1  0  0  0  0
 31 24  1  0  0  0  0
 31 32  2  0  0  0  0
 34 28  1  0  0  0  0
 35 29  1  0  0  0  0
M  END
>  <minimizedAffinity>
-4.72151089

>  <minimizedRMSD>
1.88973081

$$$$
