
 OpenBabel03262523133D

 34 36  0  0  0  0  0  0  0  0999 V2000
   35.0110   29.4600   48.3570 C   0  0  0  0  0  0  0  0  0  0  0  0
   34.5720   28.2280   48.8090 C   0  0  0  0  0  0  0  0  0  0  0  0
   33.4990   27.7310   48.1190 C   0  0  0  0  0  0  0  0  0  0  0  0
   32.9050   28.4020   47.0600 C   0  0  0  0  0  0  0  0  0  0  0  0
   33.4070   29.6280   46.6740 C   0  0  0  0  0  0  0  0  0  0  0  0
   34.4600   30.1400   47.3350 N   0  0  0  0  0  0  0  0  0  0  0  0
   35.0670   27.7550   49.6300 H   0  0  0  0  0  0  0  0  0  0  0  0
   33.1750   26.7450   48.5060 H   0  0  0  0  0  0  0  0  0  0  0  0
   32.0940   27.8280   46.6800 H   0  0  0  0  0  0  0  0  0  0  0  0
   37.6190   30.2160   50.8440 C   0  0  0  0  0  0  0  0  0  0  0  0
   38.3120   31.2660   50.2340 C   0  0  0  0  0  0  0  0  0  0  0  0
   37.8830   31.7030   48.9890 C   0  0  0  0  0  0  0  0  0  0  0  0
   36.8150   31.0820   48.4410 N   0  0  0  0  0  0  0  0  0  0  0  0
   36.1550   30.0840   49.0180 C   0  0  0  0  0  0  0  0  0  0  0  0
   36.5860   29.6660   50.2360 N   0  0  0  0  0  0  0  0  0  0  0  0
   39.1530   31.6920   50.7630 H   0  0  0  0  0  0  0  0  0  0  0  0
   38.4150   32.5210   48.5050 H   0  0  0  0  0  0  0  0  0  0  0  0
   37.9730   29.6830   52.1270 N   0  0  0  0  0  0  0  0  0  0  0  0
   37.5650   29.8180   53.0740 H   0  0  0  0  0  0  0  0  0  0  0  0
   38.7870   29.1010   51.8260 H   0  0  0  0  0  0  0  0  0  0  0  0
   33.3350   30.6040   44.3720 C   0  0  0  0  0  0  0  0  0  0  0  0
   32.7340   30.2780   45.5640 C   0  0  0  0  0  0  0  0  0  0  0  0
   31.4080   30.6330   45.6050 C   0  0  0  0  0  0  0  0  0  0  0  0
   30.7820   30.4540   46.4570 H   0  0  0  0  0  0  0  0  0  0  0  0
   30.7470   31.2490   44.5690 C   0  0  0  0  0  0  0  0  0  0  0  0
   29.7080   31.5220   44.6160 H   0  0  0  0  0  0  0  0  0  0  0  0
   31.3990   31.5530   43.3980 C   0  0  0  0  0  3  0  0  0  0  0  0
   32.7290   31.2160   43.3060 C   0  0  0  0  0  3  0  0  0  0  0  0
   35.9680   30.4450   44.4090 N   0  0  0  0  0  0  0  0  0  0  0  0
   34.7370   30.3320   44.1470 C   0  0  0  0  0  0  0  0  0  0  0  0
   35.1660   29.4720   43.0690 N   0  0  0  0  0  0  0  0  0  0  0  0
   36.6350   29.9310   43.8020 H   0  0  0  0  0  0  0  0  0  0  0  0
   35.5530   28.6300   42.6060 H   0  0  0  0  0  0  0  0  0  0  0  0
   35.0980   29.7640   42.0640 H   0  0  0  0  0  0  0  0  0  0  0  0
  1  2  1  0  0  0  0
  1 14  1  0  0  0  0
  2  7  1  0  0  0  0
  3  8  1  0  0  0  0
  3  2  2  0  0  0  0
  4  3  1  0  0  0  0
  5  4  2  0  0  0  0
  5  6  1  0  0  0  0
  6  1  2  0  0  0  0
  9  4  1  0  0  0  0
 10 18  1  0  0  0  0
 11 16  1  0  0  0  0
 11 10  2  0  0  0  0
 12 11  1  0  0  0  0
 13 12  2  0  0  0  0
 13 14  1  0  0  0  0
 14 15  2  0  0  0  0
 15 10  1  0  0  0  0
 17 12  1  0  0  0  0
 18 19  1  0  0  0  0
 20 18  1  0  0  0  0
 21 22  1  0  0  0  0
 22 23  2  0  0  0  0
 22  5  1  0  0  0  0
 23 24  1  0  0  0  0
 25 26  1  0  0  0  0
 25 23  1  0  0  0  0
 27 25  2  0  0  0  0
 28 27  1  0  0  0  0
 28 21  2  0  0  0  0
 30 21  1  0  0  0  0
 30 29  2  0  0  0  0
 31 30  1  0  0  0  0
 32 29  1  0  0  0  0
 33 31  1  0  0  0  0
 34 31  1  0  0  0  0
M  END
>  <minimizedAffinity>
-5.39623737

>  <minimizedRMSD>
0.496959209

$$$$
