
 OpenBabel03262523523D

 41 43  0  0  1  0  0  0  0  0999 V2000
   38.8690   23.4640   35.1810 N   0  0  0  0  0  0  0  0  0  0  0  0
   38.1010   22.9970   36.3210 C   0  0  0  0  0  0  0  0  0  0  0  0
   38.9400   22.9920   37.5670 C   0  0  0  0  0  0  0  0  0  0  0  0
   40.2740   22.3710   37.2240 C   0  0  0  0  0  0  0  0  0  0  0  0
   41.0320   23.3180   36.3520 C   0  0  0  0  0  0  0  0  0  0  0  0
   40.0350   24.1370   35.5580 C   0  0  1  0  0  0  0  0  0  0  0  0
   37.6570   22.0160   36.1270 H   0  0  0  0  0  0  0  0  0  0  0  0
   37.2710   23.7180   36.5040 H   0  0  0  0  0  0  0  0  0  0  0  0
   38.4400   22.2550   38.2580 H   0  0  0  0  0  0  0  0  0  0  0  0
   39.0000   23.9470   38.0970 H   0  0  0  0  0  0  0  0  0  0  0  0
   40.0280   21.4590   36.6230 H   0  0  0  0  0  0  0  0  0  0  0  0
   40.8510   22.0560   38.1210 H   0  0  0  0  0  0  0  0  0  0  0  0
   41.6500   23.9810   36.9930 H   0  0  0  0  0  0  0  0  0  0  0  0
   41.7000   22.7280   35.7300 H   0  0  0  0  0  0  0  0  0  0  0  0
   39.6470   24.8460   36.3970 H   0  0  0  0  0  0  0  0  0  0  0  0
   40.1220   26.3760   34.4460 C   0  0  0  0  0  0  0  0  0  0  0  0
   40.6160   25.0640   34.5900 C   0  0  0  0  0  0  0  0  0  0  0  0
   41.6510   24.8410   33.7350 C   0  0  0  0  0  0  0  0  0  0  0  0
   42.1470   23.9070   33.7170 H   0  0  0  0  0  0  0  0  0  0  0  0
   42.1790   25.7380   32.8340 C   0  0  0  0  0  0  0  0  0  0  0  0
   43.0080   25.5050   32.1740 H   0  0  0  0  0  0  0  0  0  0  0  0
   41.6520   27.0070   32.7380 C   0  0  0  0  0  3  0  0  0  0  0  0
   40.6070   27.3240   33.5610 C   0  0  0  0  0  3  0  0  0  0  0  0
   38.7310   27.6370   36.2480 N   0  0  0  0  0  0  0  0  0  0  0  0
   39.0290   26.8870   35.2490 C   0  0  0  0  0  0  0  0  0  0  0  0
   37.6540   26.5360   34.9950 N   0  0  0  0  0  0  0  0  0  0  0  0
   37.7550   27.7830   36.5700 H   0  0  0  0  0  0  0  0  0  0  0  0
   37.0930   27.0950   34.3120 H   0  0  0  0  0  0  0  0  0  0  0  0
   37.1560   25.7280   35.4660 H   0  0  0  0  0  0  0  0  0  0  0  0
   38.7300   22.6930   34.0350 C   0  0  0  0  0  0  0  0  0  0  0  0
   38.3350   21.6660   34.3920 H   0  0  0  0  0  0  0  0  0  0  0  0
   39.5980   22.4120   33.4420 H   0  0  0  0  0  0  0  0  0  0  0  0
   37.6560   23.1670   33.1510 C   0  0  0  0  0  0  0  0  0  0  0  0
   36.7730   22.2060   32.6300 C   0  0  0  0  0  0  0  0  0  0  0  0
   35.7480   22.6120   31.7650 C   0  0  0  0  0  0  0  0  0  0  0  0
   35.6550   23.9330   31.4660 N   0  0  0  0  0  0  0  0  0  0  0  0
   36.5070   24.8430   31.9700 C   0  0  0  0  0  0  0  0  0  0  0  0
   37.4910   24.4470   32.8020 N   0  0  0  0  0  0  0  0  0  0  0  0
   36.8220   21.1480   32.8510 H   0  0  0  0  0  0  0  0  0  0  0  0
   35.0500   21.8900   31.3480 H   0  0  0  0  0  0  0  0  0  0  0  0
   36.3900   25.8890   31.7000 H   0  0  0  0  0  0  0  0  0  0  0  0
  1  6  1  0  0  0  0
  1  2  1  0  0  0  0
  2  8  1  0  0  0  0
  2  3  1  0  0  0  0
  3 10  1  0  0  0  0
  3  9  1  0  0  0  0
  4  3  1  0  0  0  0
  4 12  1  0  0  0  0
  5 13  1  0  0  0  0
  5  4  1  0  0  0  0
  6  5  1  0  0  0  0
  6 15  1  1  0  0  0
  7  2  1  0  0  0  0
 11  4  1  0  0  0  0
 14  5  1  0  0  0  0
 16 17  1  0  0  0  0
 16 25  1  0  0  0  0
 17  6  1  0  0  0  0
 18 17  2  0  0  0  0
 19 18  1  0  0  0  0
 20 18  1  0  0  0  0
 21 20  1  0  0  0  0
 22 20  2  0  0  0  0
 22 23  1  0  0  0  0
 23 16  2  0  0  0  0
 24 27  1  0  0  0  0
 25 24  2  0  0  0  0
 26 25  1  0  0  0  0
 26 29  1  0  0  0  0
 28 26  1  0  0  0  0
 30 31  1  0  0  0  0
 30  1  1  0  0  0  0
 32 30  1  0  0  0  0
 33 30  1  0  0  0  0
 34 39  1  0  0  0  0
 34 33  2  0  0  0  0
 35 34  1  0  0  0  0
 36 35  2  0  0  0  0
 36 37  1  0  0  0  0
 37 38  2  0  0  0  0
 38 33  1  0  0  0  0
 40 35  1  0  0  0  0
 41 37  1  0  0  0  0
M  END
>  <minimizedAffinity>
-5.35076475

$$$$

 OpenBabel03262523523D

 41 43  0  0  1  0  0  0  0  0999 V2000
   37.9690   25.2130   34.9400 N   0  0  0  0  0  0  0  0  0  0  0  0
   38.5100   25.9120   36.0930 C   0  0  0  0  0  0  0  0  0  0  0  0
   39.2740   27.1330   35.6690 C   0  0  0  0  0  0  0  0  0  0  0  0
   40.1630   26.7450   34.5100 C   0  0  0  0  0  0  0  0  0  0  0  0
   39.3050   26.4930   33.3140 C   0  0  0  0  0  0  0  0  0  0  0  0
   37.9520   26.0080   33.7910 C   0  0  1  0  0  0  0  0  0  0  0  0
   39.1200   25.2470   36.7120 H   0  0  0  0  0  0  0  0  0  0  0  0
   37.6590   26.2740   36.7150 H   0  0  0  0  0  0  0  0  0  0  0  0
   39.9790   27.3530   36.5210 H   0  0  0  0  0  0  0  0  0  0  0  0
   38.6720   28.0320   35.5040 H   0  0  0  0  0  0  0  0  0  0  0  0
   40.6350   25.7770   34.8150 H   0  0  0  0  0  0  0  0  0  0  0  0
   40.9710   27.4840   34.3140 H   0  0  0  0  0  0  0  0  0  0  0  0
   39.1950   27.4400   32.7450 H   0  0  0  0  0  0  0  0  0  0  0  0
   39.8250   25.7770   32.6820 H   0  0  0  0  0  0  0  0  0  0  0  0
   37.5110   27.0090   34.1910 H   0  0  0  0  0  0  0  0  0  0  0  0
   36.1510   26.5910   32.1550 C   0  0  0  0  0  0  0  0  0  0  0  0
   37.0120   25.6380   32.7350 C   0  0  0  0  0  0  0  0  0  0  0  0
   36.8240   24.4120   32.1730 C   0  0  0  0  0  0  0  0  0  0  0  0
   37.3980   23.5800   32.4860 H   0  0  0  0  0  0  0  0  0  0  0  0
   35.9300   24.0950   31.1760 C   0  0  0  0  0  0  0  0  0  0  0  0
   35.8230   23.0970   30.7640 H   0  0  0  0  0  0  0  0  0  0  0  0
   35.1130   25.0710   30.6490 C   0  0  0  0  0  3  0  0  0  0  0  0
   35.2310   26.3370   31.1530 C   0  0  0  0  0  3  0  0  0  0  0  0
   35.7880   28.8070   33.4710 N   0  0  0  0  0  0  0  0  0  0  0  0
   36.1530   27.9840   32.5540 C   0  0  0  0  0  0  0  0  0  0  0  0
   36.7440   29.0190   31.7440 N   0  0  0  0  0  0  0  0  0  0  0  0
   35.9730   29.8270   33.4170 H   0  0  0  0  0  0  0  0  0  0  0  0
   37.7610   29.2410   31.8450 H   0  0  0  0  0  0  0  0  0  0  0  0
   36.2040   29.5890   31.0310 H   0  0  0  0  0  0  0  0  0  0  0  0
   38.1600   23.8390   34.9560 C   0  0  0  0  0  0  0  0  0  0  0  0
   38.4820   23.5520   33.8840 H   0  0  0  0  0  0  0  0  0  0  0  0
   37.3260   23.1620   35.1340 H   0  0  0  0  0  0  0  0  0  0  0  0
   39.3150   23.4280   35.7670 C   0  0  0  0  0  0  0  0  0  0  0  0
   40.5760   23.4350   35.1480 C   0  0  0  0  0  0  0  0  0  0  0  0
   41.7020   23.0300   35.8780 C   0  0  0  0  0  0  0  0  0  0  0  0
   41.5180   22.6430   37.1660 N   0  0  0  0  0  0  0  0  0  0  0  0
   40.3060   22.6390   37.7470 C   0  0  0  0  0  0  0  0  0  0  0  0
   39.2260   23.0310   37.0400 N   0  0  0  0  0  0  0  0  0  0  0  0
   40.7530   23.7380   34.1240 H   0  0  0  0  0  0  0  0  0  0  0  0
   42.6900   23.0260   35.4250 H   0  0  0  0  0  0  0  0  0  0  0  0
   40.2110   22.3210   38.7820 H   0  0  0  0  0  0  0  0  0  0  0  0
  1 30  1  0  0  0  0
  1  2  1  0  0  0  0
  2  7  1  0  0  0  0
  2  8  1  0  0  0  0
  3  2  1  0  0  0  0
  3  9  1  0  0  0  0
  4 11  1  0  0  0  0
  4  3  1  0  0  0  0
  5  6  1  0  0  0  0
  5  4  1  0  0  0  0
  6 15  1  1  0  0  0
  6  1  1  0  0  0  0
 10  3  1  0  0  0  0
 12  4  1  0  0  0  0
 13  5  1  0  0  0  0
 14  5  1  0  0  0  0
 16 25  1  0  0  0  0
 16 17  1  0  0  0  0
 17  6  1  0  0  0  0
 18 19  1  0  0  0  0
 18 17  2  0  0  0  0
 20 18  1  0  0  0  0
 21 20  1  0  0  0  0
 22 23  1  0  0  0  0
 22 20  2  0  0  0  0
 23 16  2  0  0  0  0
 25 24  2  0  0  0  0
 26 28  1  0  0  0  0
 26 25  1  0  0  0  0
 27 24  1  0  0  0  0
 29 26  1  0  0  0  0
 30 32  1  0  0  0  0
 30 33  1  0  0  0  0
 31 30  1  0  0  0  0
 33 38  1  0  0  0  0
 34 33  2  0  0  0  0
 34 35  1  0  0  0  0
 35 36  2  0  0  0  0
 36 37  1  0  0  0  0
 37 41  1  0  0  0  0
 38 37  2  0  0  0  0
 39 34  1  0  0  0  0
 40 35  1  0  0  0  0
M  END
>  <minimizedAffinity>
-5.29114389

$$$$

 OpenBabel03262523523D

 41 43  0  0  1  0  0  0  0  0999 V2000
   39.4030   23.2720   33.4540 N   0  0  0  0  0  0  0  0  0  0  0  0
   40.3080   22.4850   32.6360 C   0  0  0  0  0  0  0  0  0  0  0  0
   40.3300   22.9920   31.2230 C   0  0  0  0  0  0  0  0  0  0  0  0
   38.9010   23.2250   30.7920 C   0  0  0  0  0  0  0  0  0  0  0  0
   38.3670   24.4090   31.5310 C   0  0  0  0  0  0  0  0  0  0  0  0
   39.0750   24.4960   32.8670 C   0  0  1  0  0  0  0  0  0  0  0  0
   40.0630   21.4200   32.6810 H   0  0  0  0  0  0  0  0  0  0  0  0
   41.3420   22.6150   33.0330 H   0  0  0  0  0  0  0  0  0  0  0  0
   40.6870   22.1210   30.6010 H   0  0  0  0  0  0  0  0  0  0  0  0
   41.0100   23.8280   31.0330 H   0  0  0  0  0  0  0  0  0  0  0  0
   38.3410   22.3170   31.1310 H   0  0  0  0  0  0  0  0  0  0  0  0
   38.7880   23.3180   29.6900 H   0  0  0  0  0  0  0  0  0  0  0  0
   38.5620   25.3240   30.9320 H   0  0  0  0  0  0  0  0  0  0  0  0
   37.2910   24.2830   31.6180 H   0  0  0  0  0  0  0  0  0  0  0  0
   40.1150   24.8860   32.5160 H   0  0  0  0  0  0  0  0  0  0  0  0
   39.4830   26.1860   34.6660 C   0  0  0  0  0  0  0  0  0  0  0  0
   38.6110   25.5620   33.7520 C   0  0  0  0  0  0  0  0  0  0  0  0
   37.3610   26.0930   33.8380 C   0  0  0  0  0  0  0  0  0  0  0  0
   36.5810   25.7450   33.2130 H   0  0  0  0  0  0  0  0  0  0  0  0
   36.9530   27.1010   34.6820 C   0  0  0  0  0  0  0  0  0  0  0  0
   35.9400   27.4870   34.7080 H   0  0  0  0  0  0  0  0  0  0  0  0
   37.8530   27.6720   35.5560 C   0  0  0  0  0  3  0  0  0  0  0  0
   39.1370   27.2010   35.5410 C   0  0  0  0  0  3  0  0  0  0  0  0
   41.6950   24.8670   35.0440 N   0  0  0  0  0  0  0  0  0  0  0  0
   40.8820   25.8250   34.7750 C   0  0  0  0  0  0  0  0  0  0  0  0
   41.9450   26.7680   34.5260 N   0  0  0  0  0  0  0  0  0  0  0  0
   42.7260   24.9810   35.0210 H   0  0  0  0  0  0  0  0  0  0  0  0
   42.3050   26.8990   33.5530 H   0  0  0  0  0  0  0  0  0  0  0  0
   42.4010   27.3530   35.2830 H   0  0  0  0  0  0  0  0  0  0  0  0
   38.5590   22.5240   34.2640 C   0  0  0  0  0  0  0  0  0  0  0  0
   38.8500   21.4190   34.0870 H   0  0  0  0  0  0  0  0  0  0  0  0
   37.4850   22.5100   34.0870 H   0  0  0  0  0  0  0  0  0  0  0  0
   38.8240   22.7090   35.6970 C   0  0  0  0  0  0  0  0  0  0  0  0
   37.7950   23.2560   36.4820 C   0  0  0  0  0  0  0  0  0  0  0  0
   38.0130   23.4680   37.8500 C   0  0  0  0  0  0  0  0  0  0  0  0
   39.2260   23.1320   38.3600 N   0  0  0  0  0  0  0  0  0  0  0  0
   40.2030   22.6100   37.5980 C   0  0  0  0  0  0  0  0  0  0  0  0
   39.9870   22.4060   36.2830 N   0  0  0  0  0  0  0  0  0  0  0  0
   36.8200   23.5330   36.1040 H   0  0  0  0  0  0  0  0  0  0  0  0
   37.2350   23.8900   38.4810 H   0  0  0  0  0  0  0  0  0  0  0  0
   41.1560   22.3560   38.0540 H   0  0  0  0  0  0  0  0  0  0  0  0
  1 30  1  0  0  0  0
  2  7  1  0  0  0  0
  2  8  1  0  0  0  0
  2  1  1  0  0  0  0
  3  2  1  0  0  0  0
  4 11  1  0  0  0  0
  4  3  1  0  0  0  0
  4  5  1  0  0  0  0
  5 14  1  0  0  0  0
  5  6  1  0  0  0  0
  6 15  1  6  0  0  0
  6  1  1  0  0  0  0
  6 17  1  0  0  0  0
  9  3  1  0  0  0  0
 10  3  1  0  0  0  0
 12  4  1  0  0  0  0
 13  5  1  0  0  0  0
 16 25  1  0  0  0  0
 16 23  1  0  0  0  0
 17 18  1  0  0  0  0
 17 16  2  0  0  0  0
 18 20  2  0  0  0  0
 19 18  1  0  0  0  0
 20 21  1  0  0  0  0
 20 22  1  0  0  0  0
 23 22  2  0  0  0  0
 25 24  2  0  0  0  0
 26 25  1  0  0  0  0
 26 29  1  0  0  0  0
 27 24  1  0  0  0  0
 28 26  1  0  0  0  0
 30 33  1  0  0  0  0
 31 30  1  0  0  0  0
 32 30  1  0  0  0  0
 33 38  2  0  0  0  0
 33 34  1  0  0  0  0
 34 35  2  0  0  0  0
 35 36  1  0  0  0  0
 35 40  1  0  0  0  0
 37 41  1  0  0  0  0
 37 36  2  0  0  0  0
 38 37  1  0  0  0  0
 39 34  1  0  0  0  0
M  END
>  <minimizedAffinity>
-5.21366215

$$$$

 OpenBabel03262523523D

 41 43  0  0  1  0  0  0  0  0999 V2000
   38.9310   24.8890   33.5220 N   0  0  0  0  0  0  0  0  0  0  0  0
   39.6750   25.1250   32.2970 C   0  0  0  0  0  0  0  0  0  0  0  0
   40.8350   26.0460   32.5450 C   0  0  0  0  0  0  0  0  0  0  0  0
   40.3400   27.2000   33.3860 C   0  0  0  0  0  0  0  0  0  0  0  0
   40.0520   26.6980   34.7630 C   0  0  0  0  0  0  0  0  0  0  0  0
   39.6530   25.2400   34.6650 C   0  0  1  0  0  0  0  0  0  0  0  0
   39.0240   25.4980   31.5010 H   0  0  0  0  0  0  0  0  0  0  0  0
   40.1100   24.1560   31.9590 H   0  0  0  0  0  0  0  0  0  0  0  0
   41.0770   26.4960   31.5400 H   0  0  0  0  0  0  0  0  0  0  0  0
   41.7460   25.5660   32.9150 H   0  0  0  0  0  0  0  0  0  0  0  0
   39.3730   27.5120   32.9150 H   0  0  0  0  0  0  0  0  0  0  0  0
   41.0310   28.0710   33.3810 H   0  0  0  0  0  0  0  0  0  0  0  0
   40.9660   26.8060   35.3840 H   0  0  0  0  0  0  0  0  0  0  0  0
   39.2770   27.3310   35.1870 H   0  0  0  0  0  0  0  0  0  0  0  0
   40.6940   24.7620   34.4530 H   0  0  0  0  0  0  0  0  0  0  0  0
   39.9500   23.4960   36.4340 C   0  0  0  0  0  0  0  0  0  0  0  0
   39.2590   24.6130   35.9250 C   0  0  0  0  0  0  0  0  0  0  0  0
   38.2430   24.9720   36.7570 C   0  0  0  0  0  0  0  0  0  0  0  0
   37.6250   25.8010   36.5300 H   0  0  0  0  0  0  0  0  0  0  0  0
   37.8970   24.3630   37.9410 C   0  0  0  0  0  0  0  0  0  0  0  0
   37.0740   24.6940   38.5660 H   0  0  0  0  0  0  0  0  0  0  0  0
   38.6110   23.2720   38.3870 C   0  0  0  0  0  3  0  0  0  0  0  0
   39.6530   22.8370   37.6150 C   0  0  0  0  0  3  0  0  0  0  0  0
   41.4500   22.0720   34.8540 N   0  0  0  0  0  0  0  0  0  0  0  0
   41.0910   22.9130   35.7570 C   0  0  0  0  0  0  0  0  0  0  0  0
   42.4480   23.2840   36.0710 N   0  0  0  0  0  0  0  0  0  0  0  0
   42.4450   21.8960   34.6140 H   0  0  0  0  0  0  0  0  0  0  0  0
   42.8880   24.1020   35.5900 H   0  0  0  0  0  0  0  0  0  0  0  0
   43.0510   22.7700   36.7750 H   0  0  0  0  0  0  0  0  0  0  0  0
   37.5530   24.9880   33.3880 C   0  0  0  0  0  0  0  0  0  0  0  0
   37.1430   25.1540   34.4560 H   0  0  0  0  0  0  0  0  0  0  0  0
   36.9630   24.1410   33.0450 H   0  0  0  0  0  0  0  0  0  0  0  0
   37.1300   26.2060   32.6810 C   0  0  0  0  0  0  0  0  0  0  0  0
   36.8130   27.3310   33.4620 C   0  0  0  0  0  0  0  0  0  0  0  0
   36.3850   28.5060   32.8300 C   0  0  0  0  0  0  0  0  0  0  0  0
   36.2930   28.5020   31.4750 N   0  0  0  0  0  0  0  0  0  0  0  0
   36.5980   27.4190   30.7400 C   0  0  0  0  0  0  0  0  0  0  0  0
   37.0110   26.2910   31.3530 N   0  0  0  0  0  0  0  0  0  0  0  0
   36.8770   27.3640   34.5410 H   0  0  0  0  0  0  0  0  0  0  0  0
   36.1340   29.3920   33.4080 H   0  0  0  0  0  0  0  0  0  0  0  0
   36.5090   27.4660   29.6580 H   0  0  0  0  0  0  0  0  0  0  0  0
  1  6  1  0  0  0  0
  2  3  1  0  0  0  0
  2  1  1  0  0  0  0
  3 10  1  0  0  0  0
  3  4  1  0  0  0  0
  4  5  1  0  0  0  0
  5 14  1  0  0  0  0
  5 13  1  0  0  0  0
  6 15  1  6  0  0  0
  6  5  1  0  0  0  0
  6 17  1  0  0  0  0
  7  2  1  0  0  0  0
  8  2  1  0  0  0  0
  9  3  1  0  0  0  0
 11  4  1  0  0  0  0
 12  4  1  0  0  0  0
 16 23  1  0  0  0  0
 17 16  2  0  0  0  0
 17 18  1  0  0  0  0
 18 20  2  0  0  0  0
 19 18  1  0  0  0  0
 20 22  1  0  0  0  0
 20 21  1  0  0  0  0
 23 22  2  0  0  0  0
 24 25  2  0  0  0  0
 25 26  1  0  0  0  0
 25 16  1  0  0  0  0
 26 29  1  0  0  0  0
 27 24  1  0  0  0  0
 28 26  1  0  0  0  0
 30  1  1  0  0  0  0
 30 31  1  0  0  0  0
 32 30  1  0  0  0  0
 33 30  1  0  0  0  0
 33 34  1  0  0  0  0
 34 39  1  0  0  0  0
 35 40  1  0  0  0  0
 35 34  2  0  0  0  0
 36 35  1  0  0  0  0
 37 38  1  0  0  0  0
 37 36  2  0  0  0  0
 38 33  2  0  0  0  0
 41 37  1  0  0  0  0
M  END
>  <minimizedAffinity>
-5.21225929

$$$$

 OpenBabel03262523523D

 41 43  0  0  1  0  0  0  0  0999 V2000
   38.1040   24.9830   34.1010 N   0  0  0  0  0  0  0  0  0  0  0  0
   37.5650   25.9830   35.0050 C   0  0  0  0  0  0  0  0  0  0  0  0
   38.4900   27.1610   35.1140 C   0  0  0  0  0  0  0  0  0  0  0  0
   39.8950   26.6320   35.2910 C   0  0  0  0  0  0  0  0  0  0  0  0
   40.3380   26.0160   34.0050 C   0  0  0  0  0  0  0  0  0  0  0  0
   39.1160   25.4900   33.2810 C   0  0  1  0  0  0  0  0  0  0  0  0
   37.3390   25.5530   35.9860 H   0  0  0  0  0  0  0  0  0  0  0  0
   36.6130   26.3700   34.5730 H   0  0  0  0  0  0  0  0  0  0  0  0
   38.2340   27.6500   36.0970 H   0  0  0  0  0  0  0  0  0  0  0  0
   38.3800   27.9200   34.3340 H   0  0  0  0  0  0  0  0  0  0  0  0
   39.8090   25.8220   36.0580 H   0  0  0  0  0  0  0  0  0  0  0  0
   40.6050   27.4000   35.6680 H   0  0  0  0  0  0  0  0  0  0  0  0
   40.8450   26.7900   33.3910 H   0  0  0  0  0  0  0  0  0  0  0  0
   41.0650   25.2440   34.2440 H   0  0  0  0  0  0  0  0  0  0  0  0
   38.6530   26.4950   32.9150 H   0  0  0  0  0  0  0  0  0  0  0  0
   38.4180   24.7090   31.0090 C   0  0  0  0  0  0  0  0  0  0  0  0
   39.3840   24.7820   32.0310 C   0  0  0  0  0  0  0  0  0  0  0  0
   40.5210   24.1260   31.6690 C   0  0  0  0  0  0  0  0  0  0  0  0
   41.3550   24.0900   32.3190 H   0  0  0  0  0  0  0  0  0  0  0  0
   40.7460   23.4690   30.4810 C   0  0  0  0  0  0  0  0  0  0  0  0
   41.6750   22.9620   30.2440 H   0  0  0  0  0  0  0  0  0  0  0  0
   39.7600   23.4320   29.5190 C   0  0  0  0  0  3  0  0  0  0  0  0
   38.5800   24.0650   29.7950 C   0  0  0  0  0  3  0  0  0  0  0  0
   35.9500   25.2320   31.6510 N   0  0  0  0  0  0  0  0  0  0  0  0
   37.1170   25.3380   31.1240 C   0  0  0  0  0  0  0  0  0  0  0  0
   36.7970   26.5770   30.4610 N   0  0  0  0  0  0  0  0  0  0  0  0
   35.1990   25.9330   31.5010 H   0  0  0  0  0  0  0  0  0  0  0  0
   37.0080   27.4870   30.9310 H   0  0  0  0  0  0  0  0  0  0  0  0
   36.3470   26.6330   29.5020 H   0  0  0  0  0  0  0  0  0  0  0  0
   38.0410   23.6810   34.5760 C   0  0  0  0  0  0  0  0  0  0  0  0
   38.9130   23.1170   34.0680 H   0  0  0  0  0  0  0  0  0  0  0  0
   37.1900   23.0430   34.3450 H   0  0  0  0  0  0  0  0  0  0  0  0
   38.3680   23.5730   36.0050 C   0  0  0  0  0  0  0  0  0  0  0  0
   39.6440   23.0900   36.3420 C   0  0  0  0  0  0  0  0  0  0  0  0
   39.9900   22.9510   37.6930 C   0  0  0  0  0  0  0  0  0  0  0  0
   39.0640   23.2950   38.6250 N   0  0  0  0  0  0  0  0  0  0  0  0
   37.8470   23.7550   38.2890 C   0  0  0  0  0  0  0  0  0  0  0  0
   37.5190   23.8880   36.9880 N   0  0  0  0  0  0  0  0  0  0  0  0
   40.4010   22.8090   35.6230 H   0  0  0  0  0  0  0  0  0  0  0  0
   40.9690   22.5800   37.9840 H   0  0  0  0  0  0  0  0  0  0  0  0
   37.1410   24.0180   39.0720 H   0  0  0  0  0  0  0  0  0  0  0  0
  1 30  1  0  0  0  0
  1  2  1  0  0  0  0
  2  3  1  0  0  0  0
  2  7  1  0  0  0  0
  3  4  1  0  0  0  0
  3  9  1  0  0  0  0
  4 12  1  0  0  0  0
  4 11  1  0  0  0  0
  5 14  1  0  0  0  0
  5  4  1  0  0  0  0
  6 15  1  6  0  0  0
  6  5  1  0  0  0  0
  6  1  1  0  0  0  0
  8  2  1  0  0  0  0
 10  3  1  0  0  0  0
 13  5  1  0  0  0  0
 16 25  1  0  0  0  0
 16 17  1  0  0  0  0
 17  6  1  0  0  0  0
 18 17  2  0  0  0  0
 18 19  1  0  0  0  0
 20 18  1  0  0  0  0
 21 20  1  0  0  0  0
 22 23  1  0  0  0  0
 22 20  2  0  0  0  0
 23 16  2  0  0  0  0
 25 24  2  0  0  0  0
 26 28  1  0  0  0  0
 26 25  1  0  0  0  0
 27 24  1  0  0  0  0
 29 26  1  0  0  0  0
 30 33  1  0  0  0  0
 31 30  1  0  0  0  0
 32 30  1  0  0  0  0
 33 34  2  0  0  0  0
 33 38  1  0  0  0  0
 34 35  1  0  0  0  0
 35 40  1  0  0  0  0
 35 36  2  0  0  0  0
 37 36  1  0  0  0  0
 37 41  1  0  0  0  0
 38 37  2  0  0  0  0
 39 34  1  0  0  0  0
M  END
>  <minimizedAffinity>
-4.94754696

$$$$

 OpenBabel03262523523D

 41 43  0  0  1  0  0  0  0  0999 V2000
   39.6990   25.0680   32.6790 N   0  0  0  0  0  0  0  0  0  0  0  0
   40.7710   24.3010   33.2860 C   0  0  0  0  0  0  0  0  0  0  0  0
   41.8760   25.2030   33.7560 C   0  0  0  0  0  0  0  0  0  0  0  0
   42.1620   26.1980   32.6550 C   0  0  0  0  0  0  0  0  0  0  0  0
   41.0130   27.1480   32.5610 C   0  0  0  0  0  0  0  0  0  0  0  0
   39.7580   26.4260   33.0050 C   0  0  1  0  0  0  0  0  0  0  0  0
   41.1410   23.5260   32.6070 H   0  0  0  0  0  0  0  0  0  0  0  0
   40.3690   23.7960   34.1950 H   0  0  0  0  0  0  0  0  0  0  0  0
   42.7920   24.5480   33.8070 H   0  0  0  0  0  0  0  0  0  0  0  0
   41.7340   25.6430   34.7470 H   0  0  0  0  0  0  0  0  0  0  0  0
   42.1960   25.5920   31.7140 H   0  0  0  0  0  0  0  0  0  0  0  0
   43.1390   26.7140   32.7770 H   0  0  0  0  0  0  0  0  0  0  0  0
   41.2100   28.0180   33.2220 H   0  0  0  0  0  0  0  0  0  0  0  0
   40.9670   27.5060   31.5350 H   0  0  0  0  0  0  0  0  0  0  0  0
   39.9440   26.3930   34.1550 H   0  0  0  0  0  0  0  0  0  0  0  0
   37.6770   27.3840   34.0100 C   0  0  0  0  0  0  0  0  0  0  0  0
   38.5210   27.1960   32.8980 C   0  0  0  0  0  0  0  0  0  0  0  0
   38.0140   27.8150   31.7970 C   0  0  0  0  0  0  0  0  0  0  0  0
   38.5280   27.7820   30.8720 H   0  0  0  0  0  0  0  0  0  0  0  0
   36.8450   28.5380   31.7270 C   0  0  0  0  0  0  0  0  0  0  0  0
   36.4880   29.0130   30.8190 H   0  0  0  0  0  0  0  0  0  0  0  0
   36.0600   28.6860   32.8490 C   0  0  0  0  0  3  0  0  0  0  0  0
   36.4900   28.0960   34.0060 C   0  0  0  0  0  3  0  0  0  0  0  0
   37.9280   25.7920   36.0540 N   0  0  0  0  0  0  0  0  0  0  0  0
   37.9860   26.8450   35.3190 C   0  0  0  0  0  0  0  0  0  0  0  0
   38.6010   27.6360   36.3550 N   0  0  0  0  0  0  0  0  0  0  0  0
   38.2740   25.7700   37.0320 H   0  0  0  0  0  0  0  0  0  0  0  0
   39.6440   27.7050   36.4060 H   0  0  0  0  0  0  0  0  0  0  0  0
   38.0560   28.1680   37.0920 H   0  0  0  0  0  0  0  0  0  0  0  0
   39.2330   24.5580   31.4750 C   0  0  0  0  0  0  0  0  0  0  0  0
   39.9840   23.7330   31.1710 H   0  0  0  0  0  0  0  0  0  0  0  0
   39.1990   25.1780   30.5810 H   0  0  0  0  0  0  0  0  0  0  0  0
   37.9710   23.8180   31.6140 C   0  0  0  0  0  0  0  0  0  0  0  0
   36.8060   24.4230   31.1120 C   0  0  0  0  0  0  0  0  0  0  0  0
   35.5780   23.7610   31.2430 C   0  0  0  0  0  0  0  0  0  0  0  0
   35.5710   22.5500   31.8580 N   0  0  0  0  0  0  0  0  0  0  0  0
   36.6910   21.9820   32.3340 C   0  0  0  0  0  0  0  0  0  0  0  0
   37.8710   22.6230   32.2050 N   0  0  0  0  0  0  0  0  0  0  0  0
   36.7820   25.3850   30.6180 H   0  0  0  0  0  0  0  0  0  0  0  0
   34.6610   24.2040   30.8630 H   0  0  0  0  0  0  0  0  0  0  0  0
   36.6340   21.0110   32.8180 H   0  0  0  0  0  0  0  0  0  0  0  0
  1  6  1  0  0  0  0
  1  2  1  0  0  0  0
  2  3  1  0  0  0  0
  2  8  1  0  0  0  0
  3  9  1  0  0  0  0
  3 10  1  0  0  0  0
  4 12  1  0  0  0  0
  4  3  1  0  0  0  0
  5  4  1  0  0  0  0
  5  6  1  0  0  0  0
  5 13  1  0  0  0  0
  6 15  1  1  0  0  0
  7  2  1  0  0  0  0
 11  4  1  0  0  0  0
 14  5  1  0  0  0  0
 16 25  1  0  0  0  0
 17  6  1  0  0  0  0
 17 16  2  0  0  0  0
 18 17  1  0  0  0  0
 19 18  1  0  0  0  0
 20 18  2  0  0  0  0
 20 22  1  0  0  0  0
 21 20  1  0  0  0  0
 22 23  2  0  0  0  0
 23 16  1  0  0  0  0
 24 27  1  0  0  0  0
 25 24  2  0  0  0  0
 25 26  1  0  0  0  0
 26 28  1  0  0  0  0
 26 29  1  0  0  0  0
 30 33  1  0  0  0  0
 30  1  1  0  0  0  0
 31 30  1  0  0  0  0
 32 30  1  0  0  0  0
 33 38  1  0  0  0  0
 34 35  1  0  0  0  0
 34 33  2  0  0  0  0
 35 36  2  0  0  0  0
 36 37  1  0  0  0  0
 37 41  1  0  0  0  0
 38 37  2  0  0  0  0
 39 34  1  0  0  0  0
 40 35  1  0  0  0  0
M  END
>  <minimizedAffinity>
-4.92738819

$$$$

 OpenBabel03262523523D

 41 43  0  0  1  0  0  0  0  0999 V2000
   39.1390   24.7710   33.4390 N   0  0  0  0  0  0  0  0  0  0  0  0
   39.9700   25.0300   32.2770 C   0  0  0  0  0  0  0  0  0  0  0  0
   41.0020   26.0780   32.5800 C   0  0  0  0  0  0  0  0  0  0  0  0
   40.3130   27.2090   33.3080 C   0  0  0  0  0  0  0  0  0  0  0  0
   39.9450   26.7410   34.6780 C   0  0  0  0  0  0  0  0  0  0  0  0
   39.7070   25.2460   34.6230 C   0  0  1  0  0  0  0  0  0  0  0  0
   39.3650   25.2960   31.4050 H   0  0  0  0  0  0  0  0  0  0  0  0
   40.5310   24.0980   32.0330 H   0  0  0  0  0  0  0  0  0  0  0  0
   41.2930   26.5060   31.5780 H   0  0  0  0  0  0  0  0  0  0  0  0
   41.9160   25.7150   33.0570 H   0  0  0  0  0  0  0  0  0  0  0  0
   39.3700   27.3960   32.7340 H   0  0  0  0  0  0  0  0  0  0  0  0
   40.9100   28.1470   33.3190 H   0  0  0  0  0  0  0  0  0  0  0  0
   40.7790   26.9730   35.3730 H   0  0  0  0  0  0  0  0  0  0  0  0
   39.0730   27.3070   34.9950 H   0  0  0  0  0  0  0  0  0  0  0  0
   40.8070   24.8730   34.5340 H   0  0  0  0  0  0  0  0  0  0  0  0
   39.8250   23.4380   36.3490 C   0  0  0  0  0  0  0  0  0  0  0  0
   39.2590   24.6380   35.8740 C   0  0  0  0  0  0  0  0  0  0  0  0
   38.2980   25.0890   36.7260 C   0  0  0  0  0  0  0  0  0  0  0  0
   37.7750   25.9860   36.5260 H   0  0  0  0  0  0  0  0  0  0  0  0
   37.8980   24.4940   37.9010 C   0  0  0  0  0  0  0  0  0  0  0  0
   37.1250   24.8990   38.5450 H   0  0  0  0  0  0  0  0  0  0  0  0
   38.4900   23.3190   38.3130 C   0  0  0  0  0  3  0  0  0  0  0  0
   39.4690   22.7890   37.5180 C   0  0  0  0  0  3  0  0  0  0  0  0
   42.1460   22.4960   35.6420 N   0  0  0  0  0  0  0  0  0  0  0  0
   40.8860   22.7480   35.6430 C   0  0  0  0  0  0  0  0  0  0  0  0
   40.6480   21.9850   34.4440 N   0  0  0  0  0  0  0  0  0  0  0  0
   42.6020   21.9130   34.9150 H   0  0  0  0  0  0  0  0  0  0  0  0
   40.3710   20.9790   34.5140 H   0  0  0  0  0  0  0  0  0  0  0  0
   40.7370   22.3840   33.4650 H   0  0  0  0  0  0  0  0  0  0  0  0
   37.7770   24.7170   33.1740 C   0  0  0  0  0  0  0  0  0  0  0  0
   37.6150   25.3570   32.2250 H   0  0  0  0  0  0  0  0  0  0  0  0
   37.0560   25.1470   33.8670 H   0  0  0  0  0  0  0  0  0  0  0  0
   37.3250   23.3840   32.7520 C   0  0  0  0  0  0  0  0  0  0  0  0
   36.4120   23.3170   31.6860 C   0  0  0  0  0  0  0  0  0  0  0  0
   35.9390   22.0660   31.2650 C   0  0  0  0  0  0  0  0  0  0  0  0
   36.3910   20.9640   31.9160 N   0  0  0  0  0  0  0  0  0  0  0  0
   37.2640   21.0420   32.9350 C   0  0  0  0  0  0  0  0  0  0  0  0
   37.7170   22.2470   33.3360 N   0  0  0  0  0  0  0  0  0  0  0  0
   36.0360   24.1770   31.1490 H   0  0  0  0  0  0  0  0  0  0  0  0
   35.2330   21.9840   30.4430 H   0  0  0  0  0  0  0  0  0  0  0  0
   37.5960   20.1300   33.4240 H   0  0  0  0  0  0  0  0  0  0  0  0
  1  6  1  0  0  0  0
  2  3  1  0  0  0  0
  2  1  1  0  0  0  0
  3 10  1  0  0  0  0
  3  4  1  0  0  0  0
  4 12  1  0  0  0  0
  4  5  1  0  0  0  0
  5 14  1  0  0  0  0
  5 13  1  0  0  0  0
  6 15  1  6  0  0  0
  6  5  1  0  0  0  0
  6 17  1  0  0  0  0
  7  2  1  0  0  0  0
  8  2  1  0  0  0  0
  9  3  1  0  0  0  0
 11  4  1  0  0  0  0
 16 23  1  0  0  0  0
 17 16  2  0  0  0  0
 17 18  1  0  0  0  0
 18 20  2  0  0  0  0
 19 18  1  0  0  0  0
 20 22  1  0  0  0  0
 20 21  1  0  0  0  0
 23 22  2  0  0  0  0
 24 25  2  0  0  0  0
 25 16  1  0  0  0  0
 26 28  1  0  0  0  0
 26 25  1  0  0  0  0
 27 24  1  0  0  0  0
 29 26  1  0  0  0  0
 30  1  1  0  0  0  0
 30 32  1  0  0  0  0
 31 30  1  0  0  0  0
 33 30  1  0  0  0  0
 33 38  1  0  0  0  0
 34 33  2  0  0  0  0
 35 34  1  0  0  0  0
 35 36  2  0  0  0  0
 36 37  1  0  0  0  0
 37 38  2  0  0  0  0
 37 41  1  0  0  0  0
 39 34  1  0  0  0  0
 40 35  1  0  0  0  0
M  END
>  <minimizedAffinity>
-4.91048813

$$$$

 OpenBabel03262523523D

 41 43  0  0  1  0  0  0  0  0999 V2000
   41.0710   22.6970   34.4590 N   0  0  0  0  0  0  0  0  0  0  0  0
   41.8930   21.5500   34.7990 C   0  0  0  0  0  0  0  0  0  0  0  0
   43.0450   21.9560   35.6720 C   0  0  0  0  0  0  0  0  0  0  0  0
   43.6610   23.2010   35.0760 C   0  0  0  0  0  0  0  0  0  0  0  0
   42.7160   24.3410   35.2720 C   0  0  0  0  0  0  0  0  0  0  0  0
   41.3040   23.7920   35.2960 C   0  0  1  0  0  0  0  0  0  0  0  0
   42.2290   21.0210   33.9030 H   0  0  0  0  0  0  0  0  0  0  0  0
   41.2760   20.8430   35.4020 H   0  0  0  0  0  0  0  0  0  0  0  0
   43.8200   21.1490   35.5340 H   0  0  0  0  0  0  0  0  0  0  0  0
   42.8260   22.0190   36.7420 H   0  0  0  0  0  0  0  0  0  0  0  0
   43.7400   22.9930   33.9790 H   0  0  0  0  0  0  0  0  0  0  0  0
   44.6790   23.4130   35.4690 H   0  0  0  0  0  0  0  0  0  0  0  0
   42.9500   24.8410   36.2350 H   0  0  0  0  0  0  0  0  0  0  0  0
   42.8900   25.0530   34.4690 H   0  0  0  0  0  0  0  0  0  0  0  0
   41.3000   23.2980   36.3510 H   0  0  0  0  0  0  0  0  0  0  0  0
   39.0120   24.4920   36.0140 C   0  0  0  0  0  0  0  0  0  0  0  0
   40.2450   24.7930   35.4020 C   0  0  0  0  0  0  0  0  0  0  0  0
   40.2650   26.0820   34.9660 C   0  0  0  0  0  0  0  0  0  0  0  0
   41.1220   26.4780   34.4880 H   0  0  0  0  0  0  0  0  0  0  0  0
   39.2510   27.0040   35.0820 C   0  0  0  0  0  0  0  0  0  0  0  0
   39.3220   28.0230   34.7160 H   0  0  0  0  0  0  0  0  0  0  0  0
   38.0660   26.6500   35.6910 C   0  0  0  0  0  3  0  0  0  0  0  0
   37.9530   25.3710   36.1620 C   0  0  0  0  0  3  0  0  0  0  0  0
   38.4220   21.9740   36.3060 N   0  0  0  0  0  0  0  0  0  0  0  0
   38.7250   23.1910   36.5850 C   0  0  0  0  0  0  0  0  0  0  0  0
   38.7260   22.9530   38.0070 N   0  0  0  0  0  0  0  0  0  0  0  0
   38.2780   21.2490   37.0360 H   0  0  0  0  0  0  0  0  0  0  0  0
   39.6180   22.6990   38.4900 H   0  0  0  0  0  0  0  0  0  0  0  0
   37.8600   23.0190   38.6150 H   0  0  0  0  0  0  0  0  0  0  0  0
   40.7200   22.7790   33.1190 C   0  0  0  0  0  0  0  0  0  0  0  0
   41.2330   21.8810   32.6030 H   0  0  0  0  0  0  0  0  0  0  0  0
   41.0500   23.6150   32.5060 H   0  0  0  0  0  0  0  0  0  0  0  0
   39.2920   22.5220   32.8820 C   0  0  0  0  0  0  0  0  0  0  0  0
   38.5160   23.5840   32.3880 C   0  0  0  0  0  0  0  0  0  0  0  0
   37.1460   23.3880   32.1680 C   0  0  0  0  0  0  0  0  0  0  0  0
   36.6260   22.1650   32.4460 N   0  0  0  0  0  0  0  0  0  0  0  0
   37.3790   21.1580   32.9190 C   0  0  0  0  0  0  0  0  0  0  0  0
   38.6970   21.3510   33.1280 N   0  0  0  0  0  0  0  0  0  0  0  0
   38.9020   24.5680   32.1570 H   0  0  0  0  0  0  0  0  0  0  0  0
   36.5210   24.1920   31.7850 H   0  0  0  0  0  0  0  0  0  0  0  0
   36.9160   20.1970   33.1260 H   0  0  0  0  0  0  0  0  0  0  0  0
  1  2  1  0  0  0  0
  1  6  1  0  0  0  0
  2  8  1  0  0  0  0
  2  3  1  0  0  0  0
  3 10  1  0  0  0  0
  4  5  1  0  0  0  0
  4 12  1  0  0  0  0
  4  3  1  0  0  0  0
  5  6  1  0  0  0  0
  5 13  1  0  0  0  0
  6 17  1  0  0  0  0
  6 15  1  1  0  0  0
  7  2  1  0  0  0  0
  9  3  1  0  0  0  0
 11  4  1  0  0  0  0
 14  5  1  0  0  0  0
 16 23  1  0  0  0  0
 16 25  1  0  0  0  0
 17 16  2  0  0  0  0
 18 20  2  0  0  0  0
 18 17  1  0  0  0  0
 19 18  1  0  0  0  0
 20 22  1  0  0  0  0
 21 20  1  0  0  0  0
 22 23  2  0  0  0  0
 24 25  2  0  0  0  0
 24 27  1  0  0  0  0
 25 26  1  0  0  0  0
 26 28  1  0  0  0  0
 26 29  1  0  0  0  0
 30  1  1  0  0  0  0
 31 30  1  0  0  0  0
 32 30  1  0  0  0  0
 33 30  1  0  0  0  0
 33 38  1  0  0  0  0
 34 33  2  0  0  0  0
 35 34  1  0  0  0  0
 35 36  2  0  0  0  0
 36 37  1  0  0  0  0
 37 41  1  0  0  0  0
 37 38  2  0  0  0  0
 39 34  1  0  0  0  0
 40 35  1  0  0  0  0
M  END
>  <minimizedAffinity>
-4.86650848

$$$$

 OpenBabel03262523523D

 41 43  0  0  1  0  0  0  0  0999 V2000
   38.9510   26.5890   32.5500 N   0  0  0  0  0  0  0  0  0  0  0  0
   39.6650   25.4980   31.9110 C   0  0  0  0  0  0  0  0  0  0  0  0
   38.7070   24.5100   31.3100 C   0  0  0  0  0  0  0  0  0  0  0  0
   37.6240   24.2360   32.3280 C   0  0  0  0  0  0  0  0  0  0  0  0
   36.7670   25.4530   32.4520 C   0  0  0  0  0  0  0  0  0  0  0  0
   37.6170   26.6690   32.1430 C   0  0  1  0  0  0  0  0  0  0  0  0
   40.3620   25.0170   32.6040 H   0  0  0  0  0  0  0  0  0  0  0  0
   40.2580   25.9160   31.0640 H   0  0  0  0  0  0  0  0  0  0  0  0
   39.2870   23.5460   31.2290 H   0  0  0  0  0  0  0  0  0  0  0  0
   38.3440   24.7570   30.3080 H   0  0  0  0  0  0  0  0  0  0  0  0
   38.1640   24.0860   33.2970 H   0  0  0  0  0  0  0  0  0  0  0  0
   37.0390   23.3180   32.1040 H   0  0  0  0  0  0  0  0  0  0  0  0
   35.9280   25.3770   31.7290 H   0  0  0  0  0  0  0  0  0  0  0  0
   36.3500   25.4600   33.4560 H   0  0  0  0  0  0  0  0  0  0  0  0
   37.7070   26.5600   30.9870 H   0  0  0  0  0  0  0  0  0  0  0  0
   36.9340   28.9060   31.2560 C   0  0  0  0  0  0  0  0  0  0  0  0
   36.9450   27.9570   32.2970 C   0  0  0  0  0  0  0  0  0  0  0  0
   36.2680   28.4240   33.3820 C   0  0  0  0  0  0  0  0  0  0  0  0
   36.1700   27.8320   34.2540 H   0  0  0  0  0  0  0  0  0  0  0  0
   35.6420   29.6440   33.4970 C   0  0  0  0  0  0  0  0  0  0  0  0
   35.1140   29.9640   34.3890 H   0  0  0  0  0  0  0  0  0  0  0  0
   35.6670   30.5310   32.4430 C   0  0  0  0  0  3  0  0  0  0  0  0
   36.3260   30.1480   31.3070 C   0  0  0  0  0  3  0  0  0  0  0  0
   37.3500   28.4130   28.7340 N   0  0  0  0  0  0  0  0  0  0  0  0
   37.5680   28.6620   29.9750 C   0  0  0  0  0  0  0  0  0  0  0  0
   39.0010   28.6440   29.8130 N   0  0  0  0  0  0  0  0  0  0  0  0
   38.1140   28.2850   28.0430 H   0  0  0  0  0  0  0  0  0  0  0  0
   39.5130   29.5360   29.6220 H   0  0  0  0  0  0  0  0  0  0  0  0
   39.5900   27.7650   29.8750 H   0  0  0  0  0  0  0  0  0  0  0  0
   39.4210   26.9250   33.8120 C   0  0  0  0  0  0  0  0  0  0  0  0
   38.6980   27.7350   34.2120 H   0  0  0  0  0  0  0  0  0  0  0  0
   40.3910   27.4010   33.9390 H   0  0  0  0  0  0  0  0  0  0  0  0
   39.2690   25.8380   34.7910 C   0  0  0  0  0  0  0  0  0  0  0  0
   38.2000   25.9280   35.6980 C   0  0  0  0  0  0  0  0  0  0  0  0
   38.0310   24.9240   36.6610 C   0  0  0  0  0  0  0  0  0  0  0  0
   38.9220   23.8990   36.6730 N   0  0  0  0  0  0  0  0  0  0  0  0
   39.9410   23.8260   35.8010 C   0  0  0  0  0  0  0  0  0  0  0  0
   40.0980   24.7930   34.8750 N   0  0  0  0  0  0  0  0  0  0  0  0
   37.4750   26.7310   35.7110 H   0  0  0  0  0  0  0  0  0  0  0  0
   37.2130   24.9660   37.3750 H   0  0  0  0  0  0  0  0  0  0  0  0
   40.6270   22.9840   35.8510 H   0  0  0  0  0  0  0  0  0  0  0  0
  1 30  1  0  0  0  0
  2  1  1  0  0  0  0
  2  7  1  0  0  0  0
  3  2  1  0  0  0  0
  3  4  1  0  0  0  0
  4  5  1  0  0  0  0
  4 11  1  0  0  0  0
  5 14  1  0  0  0  0
  6 15  1  6  0  0  0
  6 17  1  0  0  0  0
  6  5  1  0  0  0  0
  6  1  1  0  0  0  0
  8  2  1  0  0  0  0
  9  3  1  0  0  0  0
 10  3  1  0  0  0  0
 12  4  1  0  0  0  0
 13  5  1  0  0  0  0
 16 23  2  0  0  0  0
 16 17  1  0  0  0  0
 17 18  2  0  0  0  0
 18 20  1  0  0  0  0
 18 19  1  0  0  0  0
 20 21  1  0  0  0  0
 22 20  2  0  0  0  0
 23 22  1  0  0  0  0
 24 25  2  0  0  0  0
 25 16  1  0  0  0  0
 26 29  1  0  0  0  0
 26 25  1  0  0  0  0
 27 24  1  0  0  0  0
 28 26  1  0  0  0  0
 30 32  1  0  0  0  0
 30 31  1  0  0  0  0
 30 33  1  0  0  0  0
 33 38  2  0  0  0  0
 33 34  1  0  0  0  0
 34 39  1  0  0  0  0
 34 35  2  0  0  0  0
 35 36  1  0  0  0  0
 35 40  1  0  0  0  0
 37 41  1  0  0  0  0
 37 36  2  0  0  0  0
 38 37  1  0  0  0  0
M  END
>  <minimizedAffinity>
-4.86589003

$$$$
