
 OpenBabel03262521033D

 23 24  0  0  0  0  0  0  0  0999 V2000
   38.9060   32.1410   47.4540 C   0  0  0  0  0  0  0  0  0  0  0  0
   38.4490   32.2680   48.7490 C   0  0  0  0  0  0  0  0  0  0  0  0
   38.7820   33.3450   49.5450 C   0  0  0  0  0  0  0  0  0  0  0  0
   38.3880   33.3870   50.5620 H   0  0  0  0  0  0  0  0  0  0  0  0
   39.5960   34.3390   49.0470 C   0  0  0  0  0  0  0  0  0  0  0  0
   39.8710   35.1980   49.6560 H   0  0  0  0  0  0  0  0  0  0  0  0
   40.0580   34.2180   47.7480 C   0  0  0  0  0  3  0  0  0  0  0  0
   39.7300   33.1390   46.9390 C   0  0  0  0  0  3  0  0  0  0  0  0
   36.2100   31.3520   49.1670 C   0  0  0  0  0  0  0  0  0  0  0  0
   37.6010   31.1980   49.2590 C   0  0  0  0  0  0  0  0  0  0  0  0
   38.0850   30.0140   49.8480 C   0  0  0  0  0  0  0  0  0  0  0  0
   37.1900   29.0960   50.2910 N   0  0  0  0  0  0  0  0  0  0  0  0
   35.8480   29.2930   50.1780 C   0  0  0  0  0  0  0  0  0  0  0  0
   35.3620   30.4160   49.6190 N   0  0  0  0  0  0  0  0  0  0  0  0
   35.7880   32.2550   48.7170 H   0  0  0  0  0  0  0  0  0  0  0  0
   39.1530   29.8990   49.9220 H   0  0  0  0  0  0  0  0  0  0  0  0
   35.2820   28.4600   50.5810 H   0  0  0  0  0  0  0  0  0  0  0  0
   39.5570   30.2520   46.1230 N   0  0  0  0  0  0  0  0  0  0  0  0
   38.6110   31.0630   46.5190 C   0  0  0  0  0  0  0  0  0  0  0  0
   37.3580   30.7400   45.9250 N   0  0  0  0  0  0  0  0  0  0  0  0
   40.5330   30.3260   46.4430 H   0  0  0  0  0  0  0  0  0  0  0  0
   37.2730   30.4910   44.9100 H   0  0  0  0  0  0  0  0  0  0  0  0
   36.3440   30.5570   45.7750 H   0  0  0  0  0  0  0  0  0  0  0  0
  1  2  1  0  0  0  0
  2 10  1  0  0  0  0
  2  3  2  0  0  0  0
  3  4  1  0  0  0  0
  5  3  1  0  0  0  0
  5  6  1  0  0  0  0
  7  5  2  0  0  0  0
  8  1  2  0  0  0  0
  8  7  1  0  0  0  0
  9 10  2  0  0  0  0
  9 14  1  0  0  0  0
 10 11  1  0  0  0  0
 11 16  1  0  0  0  0
 11 12  2  0  0  0  0
 13 12  1  0  0  0  0
 13 17  1  0  0  0  0
 14 13  2  0  0  0  0
 15  9  1  0  0  0  0
 18 21  1  0  0  0  0
 18 19  2  0  0  0  0
 19  1  1  0  0  0  0
 20 19  1  0  0  0  0
 22 20  1  0  0  0  0
 23 20  1  0  0  0  0
M  END
>  <minimizedAffinity>
-5.09031296

>  <minimizedRMSD>
2.69834661

$$$$
