
 OpenBabel03272506063D

 35 37  0  0  0  0  0  0  0  0999 V2000
   34.5010   28.6430   48.6820 C   0  0  0  0  0  0  0  0  0  0  0  0
   34.4240   29.2080   47.3560 C   0  0  0  0  0  0  0  0  0  0  0  0
   32.7080   28.9890   47.0040 S   0  0  0  0  0  0  0  0  0  0  0  0
   32.3110   28.1830   48.6470 C   0  0  0  0  0  0  0  0  0  0  0  0
   33.3820   28.1850   49.1720 N   0  0  0  0  0  0  0  0  0  0  0  0
   35.2440   29.6330   46.7920 H   0  0  0  0  0  0  0  0  0  0  0  0
   30.3990   26.7490   48.1490 C   0  0  0  0  0  0  0  0  0  0  0  0
   30.9140   27.7770   48.8790 C   0  0  0  0  0  0  0  0  0  0  0  0
   30.0880   28.3800   49.7990 C   0  0  0  0  0  0  0  0  0  0  0  0
   30.4730   29.1990   50.3910 H   0  0  0  0  0  0  0  0  0  0  0  0
   28.8110   27.9410   49.9440 C   0  0  0  0  0  0  0  0  0  0  0  0
   28.2100   28.4540   50.6800 H   0  0  0  0  0  0  0  0  0  0  0  0
   28.3080   26.9060   49.2000 C   0  0  0  0  0  3  0  0  0  0  0  0
   29.1100   26.2810   48.2730 C   0  0  0  0  0  3  0  0  0  0  0  0
   32.2420   25.3600   46.9010 N   0  0  0  0  0  0  0  0  0  0  0  0
   31.2180   26.0800   47.1810 C   0  0  0  0  0  0  0  0  0  0  0  0
   30.8880   26.1200   45.7780 N   0  0  0  0  0  0  0  0  0  0  0  0
   32.4410   25.1000   45.9100 H   0  0  0  0  0  0  0  0  0  0  0  0
   31.1840   26.5870   44.8700 H   0  0  0  0  0  0  0  0  0  0  0  0
   30.0870   25.5020   45.4580 H   0  0  0  0  0  0  0  0  0  0  0  0
   35.8290   28.6280   49.3760 C   0  0  0  0  0  0  0  0  0  0  0  0
   35.9380   27.7010   49.9760 H   0  0  0  0  0  0  0  0  0  0  0  0
   36.6490   28.5600   48.6010 H   0  0  0  0  0  0  0  0  0  0  0  0
   36.0140   29.8060   50.2640 C   0  0  0  0  0  0  0  0  0  0  0  0
   35.0630   30.2850   50.5020 H   0  0  0  0  0  0  0  0  0  0  0  0
   36.4640   29.5100   51.2500 H   0  0  0  0  0  0  0  0  0  0  0  0
   37.7690   32.9500   49.3860 C   0  0  0  0  0  0  0  0  0  0  0  0
   38.5490   32.5890   48.2910 C   0  0  0  0  0  0  0  0  0  0  0  0
   38.4660   31.2540   47.8570 C   0  0  0  0  0  0  0  0  0  0  0  0
   37.6390   30.4110   48.5260 N   0  0  0  0  0  0  0  0  0  0  0  0
   36.9040   30.8270   49.5890 C   0  0  0  0  0  0  0  0  0  0  0  0
   36.9630   32.0890   50.0220 N   0  0  0  0  0  0  0  0  0  0  0  0
   37.7890   33.9520   49.7630 H   0  0  0  0  0  0  0  0  0  0  0  0
   39.1730   33.3320   47.8280 H   0  0  0  0  0  0  0  0  0  0  0  0
   39.0570   30.9500   47.0160 H   0  0  0  0  0  0  0  0  0  0  0  0
  1  5  1  0  0  0  0
  1 21  1  0  0  0  0
  2  1  2  0  0  0  0
  3  2  1  0  0  0  0
  3  4  1  0  0  0  0
  4  8  1  0  0  0  0
  4  5  2  0  0  0  0
  6  2  1  0  0  0  0
  7 14  2  0  0  0  0
  7  8  1  0  0  0  0
  8  9  2  0  0  0  0
  9 11  1  0  0  0  0
  9 10  1  0  0  0  0
 11 12  1  0  0  0  0
 13 11  2  0  0  0  0
 14 13  1  0  0  0  0
 15 16  2  0  0  0  0
 16  7  1  0  0  0  0
 17 16  1  0  0  0  0
 18 15  1  0  0  0  0
 19 17  1  0  0  0  0
 20 17  1  0  0  0  0
 21 22  1  0  0  0  0
 21 24  1  0  0  0  0
 23 21  1  0  0  0  0
 24 25  1  0  0  0  0
 24 26  1  0  0  0  0
 27 33  1  0  0  0  0
 27 32  1  0  0  0  0
 28 27  2  0  0  0  0
 29 28  1  0  0  0  0
 29 30  2  0  0  0  0
 30 31  1  0  0  0  0
 31 32  2  0  0  0  0
 31 24  1  0  0  0  0
 34 28  1  0  0  0  0
 35 29  1  0  0  0  0
M  END
>  <minimizedAffinity>
-4.69080687

>  <minimizedRMSD>
0.994266212

$$$$
