
 OpenBabel03272506063D

 35 37  0  0  0  0  0  0  0  0999 V2000
   36.1340   30.3490   48.2580 C   0  0  0  0  0  0  0  0  0  0  0  0
   36.3990   31.1050   49.4580 C   0  0  0  0  0  0  0  0  0  0  0  0
   37.6460   32.2120   48.8810 S   0  0  0  0  0  0  0  0  0  0  0  0
   37.6580   31.5400   47.1330 C   0  0  0  0  0  0  0  0  0  0  0  0
   36.8310   30.6840   47.2070 N   0  0  0  0  0  0  0  0  0  0  0  0
   35.9210   30.9690   50.4190 H   0  0  0  0  0  0  0  0  0  0  0  0
   38.2010   32.3080   44.8810 C   0  0  0  0  0  0  0  0  0  0  0  0
   38.5900   32.1620   46.1770 C   0  0  0  0  0  0  0  0  0  0  0  0
   39.8460   32.6080   46.5180 C   0  0  0  0  0  0  0  0  0  0  0  0
   40.1800   32.5040   47.5420 H   0  0  0  0  0  0  0  0  0  0  0  0
   40.6400   33.1680   45.5690 C   0  0  0  0  0  0  0  0  0  0  0  0
   41.6150   33.5010   45.8960 H   0  0  0  0  0  0  0  0  0  0  0  0
   40.2330   33.3070   44.2680 C   0  0  0  0  0  3  0  0  0  0  0  0
   38.9830   32.8710   43.8960 C   0  0  0  0  0  3  0  0  0  0  0  0
   35.9890   30.9630   44.4550 N   0  0  0  0  0  0  0  0  0  0  0  0
   36.9010   31.8660   44.4700 C   0  0  0  0  0  0  0  0  0  0  0  0
   36.0460   32.7140   43.6780 N   0  0  0  0  0  0  0  0  0  0  0  0
   35.0920   31.1380   43.9530 H   0  0  0  0  0  0  0  0  0  0  0  0
   35.6940   32.8400   42.6830 H   0  0  0  0  0  0  0  0  0  0  0  0
   35.5610   33.5110   44.1860 H   0  0  0  0  0  0  0  0  0  0  0  0
   35.1000   29.2640   48.3090 C   0  0  0  0  0  0  0  0  0  0  0  0
   35.5740   28.2940   48.5640 H   0  0  0  0  0  0  0  0  0  0  0  0
   34.3960   29.4690   49.1700 H   0  0  0  0  0  0  0  0  0  0  0  0
   34.3660   29.1240   47.0250 C   0  0  0  0  0  0  0  0  0  0  0  0
   34.3490   30.0610   46.4650 H   0  0  0  0  0  0  0  0  0  0  0  0
   34.8600   28.3720   46.3500 H   0  0  0  0  0  0  0  0  0  0  0  0
   30.7070   28.6190   46.7270 C   0  0  0  0  0  0  0  0  0  0  0  0
   30.3890   27.8870   47.8690 C   0  0  0  0  0  0  0  0  0  0  0  0
   31.4440   27.5700   48.7420 C   0  0  0  0  0  0  0  0  0  0  0  0
   32.6940   27.9930   48.4200 N   0  0  0  0  0  0  0  0  0  0  0  0
   32.9370   28.7030   47.2890 C   0  0  0  0  0  0  0  0  0  0  0  0
   31.9530   29.0190   46.4420 N   0  0  0  0  0  0  0  0  0  0  0  0
   29.9460   28.8900   46.0250 H   0  0  0  0  0  0  0  0  0  0  0  0
   29.3660   27.6000   48.0350 H   0  0  0  0  0  0  0  0  0  0  0  0
   31.2260   27.0080   49.6290 H   0  0  0  0  0  0  0  0  0  0  0  0
  1 21  1  0  0  0  0
  1  2  2  0  0  0  0
  2  6  1  0  0  0  0
  3  2  1  0  0  0  0
  4  5  2  0  0  0  0
  4  3  1  0  0  0  0
  5  1  1  0  0  0  0
  7  8  1  0  0  0  0
  8  9  2  0  0  0  0
  8  4  1  0  0  0  0
  9 10  1  0  0  0  0
 11 12  1  0  0  0  0
 11  9  1  0  0  0  0
 13 11  2  0  0  0  0
 14 13  1  0  0  0  0
 14  7  2  0  0  0  0
 15 16  2  0  0  0  0
 16  7  1  0  0  0  0
 17 20  1  0  0  0  0
 17 16  1  0  0  0  0
 18 15  1  0  0  0  0
 19 17  1  0  0  0  0
 21 22  1  0  0  0  0
 21 23  1  0  0  0  0
 24 31  1  0  0  0  0
 24 21  1  0  0  0  0
 25 24  1  0  0  0  0
 26 24  1  0  0  0  0
 27 28  1  0  0  0  0
 28 34  1  0  0  0  0
 28 29  2  0  0  0  0
 29 35  1  0  0  0  0
 30 29  1  0  0  0  0
 31 30  2  0  0  0  0
 32 27  2  0  0  0  0
 32 31  1  0  0  0  0
 33 27  1  0  0  0  0
M  END
>  <minimizedAffinity>
-5.46804714

>  <minimizedRMSD>
8.35390854

$$$$
