
 OpenBabel03272503233D

 35 37  0  0  1  0  0  0  0  0999 V2000
   36.5240   29.5810   49.2520 N   0  0  0  0  0  0  0  0  0  0  0  0
   37.7910   30.0460   48.8930 C   0  0  2  0  0  0  0  0  0  0  0  0
   38.3470   30.6350   50.1830 C   0  0  0  0  0  0  0  0  0  0  0  0
   37.2500   30.5060   51.1950 C   0  0  0  0  0  0  0  0  0  0  0  0
   36.5910   29.2550   50.6910 C   0  0  0  0  0  0  0  0  0  0  0  0
   38.4080   29.0400   48.8450 H   0  0  0  0  0  0  0  0  0  0  0  0
   39.2190   30.0820   50.5810 H   0  0  0  0  0  0  0  0  0  0  0  0
   38.7120   31.6670   50.0510 H   0  0  0  0  0  0  0  0  0  0  0  0
   37.6640   30.2920   52.2240 H   0  0  0  0  0  0  0  0  0  0  0  0
   36.5500   31.3490   51.2620 H   0  0  0  0  0  0  0  0  0  0  0  0
   37.3080   28.4180   50.8340 H   0  0  0  0  0  0  0  0  0  0  0  0
   35.6070   29.0660   51.1110 H   0  0  0  0  0  0  0  0  0  0  0  0
   35.3520   29.3560   48.5080 C   0  0  0  0  0  0  0  0  0  0  0  0
   34.9210   30.4240   47.7470 C   0  0  0  0  0  0  0  0  0  0  0  0
   33.8000   30.3400   46.9310 C   0  0  0  0  0  0  0  0  0  0  0  0
   33.1620   29.1260   46.9400 N   0  0  0  0  0  0  0  0  0  0  0  0
   33.5880   28.0950   47.6820 C   0  0  0  0  0  0  0  0  0  0  0  0
   34.6930   28.2060   48.4750 N   0  0  0  0  0  0  0  0  0  0  0  0
   35.2550   31.4220   47.5870 H   0  0  0  0  0  0  0  0  0  0  0  0
   33.3270   31.0460   46.2870 H   0  0  0  0  0  0  0  0  0  0  0  0
   33.0460   27.1470   47.6550 H   0  0  0  0  0  0  0  0  0  0  0  0
   38.3760   32.1170   47.5350 C   0  0  0  0  0  0  0  0  0  0  0  0
   38.1760   30.7420   47.7200 C   0  0  0  0  0  0  0  0  0  0  0  0
   38.4290   30.0770   46.5050 C   0  0  0  0  0  0  0  0  0  0  0  0
   38.3140   28.9820   46.4870 H   0  0  0  0  0  0  0  0  0  0  0  0
   38.8040   30.6500   45.3400 C   0  0  0  0  0  0  0  0  0  0  0  0
   38.9780   30.0610   44.4530 H   0  0  0  0  0  0  0  0  0  0  0  0
   38.9700   32.0100   45.2800 C   0  0  0  0  0  3  0  0  0  0  0  0
   38.7560   32.7670   46.3840 C   0  0  0  0  0  3  0  0  0  0  0  0
   37.4950   33.4490   49.6460 N   0  0  0  0  0  0  0  0  0  0  0  0
   38.1420   32.9860   48.6670 C   0  0  0  0  0  0  0  0  0  0  0  0
   39.1450   33.9630   49.0320 N   0  0  0  0  0  0  0  0  0  0  0  0
   37.9420   34.2270   50.1900 H   0  0  0  0  0  0  0  0  0  0  0  0
   39.3190   34.8090   48.4140 H   0  0  0  0  0  0  0  0  0  0  0  0
   39.9000   34.4070   49.6010 H   0  0  0  0  0  0  0  0  0  0  0  0
  1  5  1  0  0  0  0
  2  6  1  6  0  0  0
  2  1  1  0  0  0  0
  2  3  1  0  0  0  0
  3  7  1  0  0  0  0
  3  4  1  0  0  0  0
  4 10  1  0  0  0  0
  4  9  1  0  0  0  0
  5 11  1  0  0  0  0
  5 12  1  0  0  0  0
  5  4  1  0  0  0  0
  8  3  1  0  0  0  0
 13  1  1  0  0  0  0
 14 13  2  0  0  0  0
 15 16  2  0  0  0  0
 15 14  1  0  0  0  0
 16 17  1  0  0  0  0
 17 18  2  0  0  0  0
 18 13  1  0  0  0  0
 19 14  1  0  0  0  0
 20 15  1  0  0  0  0
 21 17  1  0  0  0  0
 22 23  1  0  0  0  0
 22 31  1  0  0  0  0
 23  2  1  0  0  0  0
 24 23  2  0  0  0  0
 25 24  1  0  0  0  0
 26 24  1  0  0  0  0
 27 26  1  0  0  0  0
 28 26  2  0  0  0  0
 28 29  1  0  0  0  0
 29 22  2  0  0  0  0
 30 33  1  0  0  0  0
 31 32  1  0  0  0  0
 31 30  2  0  0  0  0
 32 35  1  0  0  0  0
 34 32  1  0  0  0  0
M  END
>  <minimizedAffinity>
-5.67319393

>  <minimizedRMSD>
1.25994909

$$$$
