
 OpenBabel03262521033D

 23 24  0  0  0  0  0  0  0  0999 V2000
   38.7420   32.3260   47.6050 C   0  0  0  0  0  0  0  0  0  0  0  0
   38.3750   32.4060   48.9320 C   0  0  0  0  0  0  0  0  0  0  0  0
   38.8230   33.4140   49.7610 C   0  0  0  0  0  0  0  0  0  0  0  0
   38.4960   33.4210   50.8010 H   0  0  0  0  0  0  0  0  0  0  0  0
   39.6670   34.3850   49.2650 C   0  0  0  0  0  0  0  0  0  0  0  0
   40.0330   35.1900   49.9000 H   0  0  0  0  0  0  0  0  0  0  0  0
   40.0400   34.3110   47.9330 C   0  0  0  0  0  0  0  0  0  0  0  0
   39.5950   33.3000   47.0920 C   0  0  0  0  0  0  0  0  0  0  0  0
   38.0760   30.2240   50.0150 C   0  0  0  0  0  0  0  0  0  0  0  0
   37.4940   31.3610   49.4380 C   0  0  0  0  0  0  0  0  0  0  0  0
   36.0880   31.4130   49.3810 C   0  0  0  0  0  0  0  0  0  0  0  0
   35.3790   30.3690   49.8810 N   0  0  0  0  0  0  0  0  0  0  0  0
   35.9930   29.2870   50.4330 C   0  0  0  0  0  0  0  0  0  0  0  0
   37.3340   29.2160   50.4980 N   0  0  0  0  0  0  0  0  0  0  0  0
   39.1640   30.1400   50.0820 H   0  0  0  0  0  0  0  0  0  0  0  0
   35.6410   32.2840   48.9330 H   0  0  0  0  0  0  0  0  0  0  0  0
   35.2760   28.5510   50.7820 H   0  0  0  0  0  0  0  0  0  0  0  0
   39.1260   30.3450   46.3050 N   0  0  0  0  0  0  0  0  0  0  0  0
   38.3230   31.3220   46.6360 C   0  0  0  0  0  0  0  0  0  0  0  0
   37.0850   31.2460   45.9380 N   0  0  0  0  0  0  0  0  0  0  0  0
   40.0680   30.2300   46.7040 H   0  0  0  0  0  0  0  0  0  0  0  0
   37.0370   31.0160   44.9160 H   0  0  0  0  0  0  0  0  0  0  0  0
   36.0700   31.2610   45.7030 H   0  0  0  0  0  0  0  0  0  0  0  0
  1  2  1  0  0  0  0
  2 10  1  0  0  0  0
  2  3  2  0  0  0  0
  3  4  1  0  0  0  0
  5  3  1  0  0  0  0
  5  6  1  0  0  0  0
  7  5  2  0  0  0  0
  8  1  2  0  0  0  0
  8  7  1  0  0  0  0
  9 15  1  0  0  0  0
  9 14  1  0  0  0  0
 10  9  2  0  0  0  0
 11 10  1  0  0  0  0
 11 12  2  0  0  0  0
 12 13  1  0  0  0  0
 13 14  2  0  0  0  0
 13 17  1  0  0  0  0
 16 11  1  0  0  0  0
 18 19  2  0  0  0  0
 18 21  1  0  0  0  0
 19  1  1  0  0  0  0
 20 19  1  0  0  0  0
 22 20  1  0  0  0  0
 23 20  1  0  0  0  0
M  END
>  <minimizedAffinity>
-5.17946053

>  <minimizedRMSD>
2.36058831

$$$$
