
 OpenBabel03272505123D

 44 47  0  0  0  0  0  0  0  0999 V2000
   33.3770   29.4500   44.6760 Cl  0  0  0  0  0  0  0  0  0  0  0  0
   33.5900   28.1510   45.8350 C   0  0  0  0  0  0  0  0  0  0  0  0
   33.8960   28.3090   47.1790 C   0  0  0  0  0  0  0  0  0  0  0  0
   34.0340   27.2080   47.9780 C   0  0  0  0  0  0  0  0  0  0  0  0
   33.8760   25.9550   47.4750 C   0  0  0  0  0  0  0  0  0  0  0  0
   33.5690   25.7330   46.1370 C   0  0  0  0  0  0  0  0  0  0  0  0
   33.4320   26.8530   45.3420 C   0  0  0  0  0  0  0  0  0  0  0  0
   34.2730   27.4470   49.0070 H   0  0  0  0  0  0  0  0  0  0  0  0
   33.9960   25.1040   48.1490 H   0  0  0  0  0  0  0  0  0  0  0  0
   33.4510   24.7300   45.7730 H   0  0  0  0  0  0  0  0  0  0  0  0
   34.0060   26.3600   42.9210 C   0  0  0  0  0  0  0  0  0  0  0  0
   33.1090   26.5620   43.9450 C   0  0  0  0  0  0  0  0  0  0  0  0
   31.7470   26.4950   43.6770 C   0  0  0  0  0  0  0  0  0  0  0  0
   30.9110   26.6300   44.3670 H   0  0  0  0  0  0  0  0  0  0  0  0
   31.3120   26.2270   42.3900 C   0  0  0  0  0  0  0  0  0  0  0  0
   30.2590   26.1570   42.0950 H   0  0  0  0  0  0  0  0  0  0  0  0
   32.1920   26.0190   41.3470 C   0  0  0  0  0  3  0  0  0  0  0  0
   33.5370   26.0930   41.6430 C   0  0  0  0  0  3  0  0  0  0  0  0
   36.0380   25.3730   43.6210 N   0  0  0  0  0  0  0  0  0  0  0  0
   35.4120   26.4430   43.2660 C   0  0  0  0  0  0  0  0  0  0  0  0
   36.0050   27.7420   43.1840 N   0  0  0  0  0  0  0  0  0  0  0  0
   37.0570   25.4850   43.8610 H   0  0  0  0  0  0  0  0  0  0  0  0
   36.1380   27.8150   42.1390 H   0  0  0  0  0  0  0  0  0  0  0  0
   36.3740   28.6390   43.5710 H   0  0  0  0  0  0  0  0  0  0  0  0
   34.0710   30.0170   47.6870 S   0  0  0  0  0  0  0  0  0  0  0  0
   36.3500   30.9420   45.7840 Cl  0  0  0  0  0  0  0  0  0  0  0  0
   36.7180   30.7740   47.4690 C   0  0  0  0  0  0  0  0  0  0  0  0
   38.0020   31.0600   47.8780 C   0  0  0  0  0  0  0  0  0  0  0  0
   38.2990   30.9260   49.2260 C   0  0  0  0  0  0  0  0  0  0  0  0
   37.3370   30.5250   50.0990 C   0  0  0  0  0  0  0  0  0  0  0  0
   36.0530   30.2500   49.6270 C   0  0  0  0  0  0  0  0  0  0  0  0
   35.6910   30.3590   48.3130 C   0  0  0  0  0  0  0  0  0  0  0  0
   39.3100   31.1510   49.5470 H   0  0  0  0  0  0  0  0  0  0  0  0
   37.5950   30.4280   51.1480 H   0  0  0  0  0  0  0  0  0  0  0  0
   35.3040   29.9310   50.3460 H   0  0  0  0  0  0  0  0  0  0  0  0
   40.2040   33.2570   45.9780 C   0  0  0  0  0  0  0  0  0  0  0  0
   40.8740   32.3920   45.0900 C   0  0  0  0  0  0  0  0  0  0  0  0
   40.5500   31.0270   45.1620 C   0  0  0  0  0  0  0  0  0  0  0  0
   39.6190   30.6160   46.0690 N   0  0  0  0  0  0  0  0  0  0  0  0
   39.0110   31.4920   46.8910 C   0  0  0  0  0  0  0  0  0  0  0  0
   39.3020   32.7930   46.8430 N   0  0  0  0  0  0  0  0  0  0  0  0
   40.4170   34.3210   45.9650 H   0  0  0  0  0  0  0  0  0  0  0  0
   41.6080   32.7850   44.3900 H   0  0  0  0  0  0  0  0  0  0  0  0
   41.0370   30.3330   44.5050 H   0  0  0  0  0  0  0  0  0  0  0  0
  1  2  1  0  0  0  0
  2  3  1  0  0  0  0
  3 25  1  0  0  0  0
  3  4  2  0  0  0  0
  4  8  1  0  0  0  0
  5  4  1  0  0  0  0
  5  9  1  0  0  0  0
  6  5  2  0  0  0  0
  7  2  2  0  0  0  0
  7  6  1  0  0  0  0
 10  6  1  0  0  0  0
 11 20  1  0  0  0  0
 11 12  1  0  0  0  0
 12  7  1  0  0  0  0
 13 12  2  0  0  0  0
 13 14  1  0  0  0  0
 15 13  1  0  0  0  0
 16 15  1  0  0  0  0
 17 18  1  0  0  0  0
 17 15  2  0  0  0  0
 18 11  2  0  0  0  0
 19 22  1  0  0  0  0
 20 19  2  0  0  0  0
 21 20  1  0  0  0  0
 21 24  1  0  0  0  0
 23 21  1  0  0  0  0
 25 32  1  0  0  0  0
 26 27  1  0  0  0  0
 27 28  2  0  0  0  0
 27 32  1  0  0  0  0
 28 29  1  0  0  0  0
 29 33  1  0  0  0  0
 29 30  2  0  0  0  0
 30 34  1  0  0  0  0
 31 30  1  0  0  0  0
 31 35  1  0  0  0  0
 32 31  2  0  0  0  0
 36 41  1  0  0  0  0
 37 38  1  0  0  0  0
 37 36  2  0  0  0  0
 38 39  2  0  0  0  0
 39 40  1  0  0  0  0
 40 28  1  0  0  0  0
 41 40  2  0  0  0  0
 42 36  1  0  0  0  0
 43 37  1  0  0  0  0
 44 38  1  0  0  0  0
M  END
>  <minimizedAffinity>
-5.50188494

>  <minimizedRMSD>
0.673053205

$$$$
