
 OpenBabel03272508123D

 39 41  0  0  0  0  0  0  0  0999 V2000
   36.7160   29.4470   44.1410 Cl  0  0  0  0  0  0  0  0  0  0  0  0
   38.3650   29.8260   43.6190 C   0  0  0  0  0  0  0  0  0  0  0  0
   39.3510   30.3250   44.4560 C   0  0  0  0  0  0  0  0  0  0  0  0
   40.6060   30.5760   43.9050 C   0  0  0  0  0  0  0  0  0  0  0  0
   40.8440   30.3320   42.5720 C   0  0  0  0  0  0  0  0  0  0  0  0
   39.8760   29.8400   41.7380 C   0  0  0  0  0  0  0  0  0  0  0  0
   38.6470   29.5890   42.2600 C   0  0  0  0  0  0  0  0  0  0  0  0
   41.3110   30.9650   44.6350 H   0  0  0  0  0  0  0  0  0  0  0  0
   41.8590   30.5690   42.2660 H   0  0  0  0  0  0  0  0  0  0  0  0
   40.1330   29.6690   40.6900 H   0  0  0  0  0  0  0  0  0  0  0  0
   36.8680   30.0490   40.7590 C   0  0  0  0  0  0  0  0  0  0  0  0
   37.6350   29.0620   41.3420 C   0  0  0  0  0  0  0  0  0  0  0  0
   37.3980   27.7390   41.0290 C   0  0  0  0  0  0  0  0  0  0  0  0
   38.0520   27.0350   41.5370 H   0  0  0  0  0  0  0  0  0  0  0  0
   36.4000   27.4040   40.1380 C   0  0  0  0  0  0  0  0  0  0  0  0
   36.2600   26.3430   39.9300 H   0  0  0  0  0  0  0  0  0  0  0  0
   35.6100   28.3640   39.5330 C   0  0  0  0  0  3  0  0  0  0  0  0
   35.8590   29.6930   39.8560 C   0  0  0  0  0  3  0  0  0  0  0  0
   36.2720   32.2110   41.8020 N   0  0  0  0  0  0  0  0  0  0  0  0
   36.9180   31.4920   40.9200 C   0  0  0  0  0  0  0  0  0  0  0  0
   37.7290   32.2920   40.0700 N   0  0  0  0  0  0  0  0  0  0  0  0
   35.6310   31.7790   42.5040 H   0  0  0  0  0  0  0  0  0  0  0  0
   38.2970   32.8860   39.4330 H   0  0  0  0  0  0  0  0  0  0  0  0
   37.0730   32.7640   39.3780 H   0  0  0  0  0  0  0  0  0  0  0  0
   38.9170   30.4940   45.7290 O   0  0  0  0  0  0  0  0  0  0  0  0
   39.4280   32.5760   47.1740 O   0  0  0  0  0  0  0  0  0  0  0  0
   38.3110   31.8800   46.4800 P   0  0  1  0  0  0  0  0  0  0  0  0
   37.7260   32.8480   45.2020 O   0  0  0  0  0  0  0  0  0  0  0  0
   38.3550   33.6070   45.0270 H   0  0  0  0  0  0  0  0  0  0  0  0
   37.0300   31.4450   47.4960 O   0  0  0  0  0  0  0  0  0  0  0  0
   37.5870   30.5150   51.0240 C   0  0  0  0  0  0  0  0  0  0  0  0
   37.6910   31.3060   49.8740 C   0  0  0  0  0  0  0  0  0  0  0  0
   37.0630   30.8510   48.7130 C   0  0  0  0  0  0  0  0  0  0  0  0
   36.3850   29.6630   48.7580 N   0  0  0  0  0  0  0  0  0  0  0  0
   36.3150   28.9390   49.8900 C   0  0  0  0  0  0  0  0  0  0  0  0
   36.9190   29.3700   51.0220 N   0  0  0  0  0  0  0  0  0  0  0  0
   38.1250   30.9940   51.8540 H   0  0  0  0  0  0  0  0  0  0  0  0
   38.2070   32.2500   49.7670 H   0  0  0  0  0  0  0  0  0  0  0  0
   35.7810   28.0000   49.9300 H   0  0  0  0  0  0  0  0  0  0  0  0
  2  1  1  0  0  0  0
  2  3  1  0  0  0  0
  3 25  1  0  0  0  0
  4  3  2  0  0  0  0
  4  8  1  0  0  0  0
  5  4  1  0  0  0  0
  6  7  1  0  0  0  0
  6  5  2  0  0  0  0
  7  2  2  0  0  0  0
  9  5  1  0  0  0  0
 10  6  1  0  0  0  0
 11 20  1  0  0  0  0
 11 12  1  0  0  0  0
 12  7  1  0  0  0  0
 13 12  2  0  0  0  0
 13 14  1  0  0  0  0
 15 13  1  0  0  0  0
 16 15  1  0  0  0  0
 17 18  1  0  0  0  0
 17 15  2  0  0  0  0
 18 11  2  0  0  0  0
 19 22  1  0  0  0  0
 20 19  2  0  0  0  0
 21 20  1  0  0  0  0
 23 21  1  0  0  0  0
 24 21  1  0  0  0  0
 25 27  1  0  0  0  0
 27 26  2  1  0  0  0
 27 30  1  0  0  0  0
 28 27  1  0  0  0  0
 29 28  1  0  0  0  0
 30 33  1  0  0  0  0
 31 37  1  0  0  0  0
 32 31  2  0  0  0  0
 33 34  2  0  0  0  0
 33 32  1  0  0  0  0
 34 35  1  0  0  0  0
 35 39  1  0  0  0  0
 35 36  2  0  0  0  0
 36 31  1  0  0  0  0
 38 32  1  0  0  0  0
M  END
>  <minimizedAffinity>
-4.82621145

>  <minimizedRMSD>
0.41850698

$$$$
