
 OpenBabel03262521033D

 23 24  0  0  0  0  0  0  0  0999 V2000
   38.7060   32.2730   47.6400 C   0  0  0  0  0  0  0  0  0  0  0  0
   38.3370   32.3070   48.9680 C   0  0  0  0  0  0  0  0  0  0  0  0
   38.7630   33.3000   49.8260 C   0  0  0  0  0  0  0  0  0  0  0  0
   38.4360   33.2710   50.8660 H   0  0  0  0  0  0  0  0  0  0  0  0
   39.5870   34.3020   49.3590 C   0  0  0  0  0  0  0  0  0  0  0  0
   39.9350   35.0960   50.0170 H   0  0  0  0  0  0  0  0  0  0  0  0
   39.9610   34.2750   48.0270 C   0  0  0  0  0  3  0  0  0  0  0  0
   39.5370   33.2800   47.1560 C   0  0  0  0  0  3  0  0  0  0  0  0
   36.0890   31.4170   49.3960 C   0  0  0  0  0  0  0  0  0  0  0  0
   37.4780   31.2300   49.4440 C   0  0  0  0  0  0  0  0  0  0  0  0
   37.9500   30.0060   49.9580 C   0  0  0  0  0  0  0  0  0  0  0  0
   37.0460   29.0850   50.3750 N   0  0  0  0  0  0  0  0  0  0  0  0
   35.7060   29.3160   50.3070 C   0  0  0  0  0  0  0  0  0  0  0  0
   35.2320   30.4770   49.8200 N   0  0  0  0  0  0  0  0  0  0  0  0
   35.6760   32.3510   49.0040 H   0  0  0  0  0  0  0  0  0  0  0  0
   39.0170   29.8650   49.9990 H   0  0  0  0  0  0  0  0  0  0  0  0
   35.1320   28.4750   50.6810 H   0  0  0  0  0  0  0  0  0  0  0  0
   39.1310   30.3380   46.2840 N   0  0  0  0  0  0  0  0  0  0  0  0
   38.3090   31.2890   46.6420 C   0  0  0  0  0  0  0  0  0  0  0  0
   37.0720   31.2070   45.9420 N   0  0  0  0  0  0  0  0  0  0  0  0
   40.0750   30.2320   46.6810 H   0  0  0  0  0  0  0  0  0  0  0  0
   37.0290   31.0060   44.9140 H   0  0  0  0  0  0  0  0  0  0  0  0
   36.0560   31.2070   45.7070 H   0  0  0  0  0  0  0  0  0  0  0  0
  1  2  1  0  0  0  0
  2 10  1  0  0  0  0
  2  3  2  0  0  0  0
  3  4  1  0  0  0  0
  5  3  1  0  0  0  0
  5  6  1  0  0  0  0
  7  5  2  0  0  0  0
  8  1  2  0  0  0  0
  8  7  1  0  0  0  0
  9 10  2  0  0  0  0
  9 14  1  0  0  0  0
 10 11  1  0  0  0  0
 11 16  1  0  0  0  0
 11 12  2  0  0  0  0
 13 12  1  0  0  0  0
 13 17  1  0  0  0  0
 14 13  2  0  0  0  0
 15  9  1  0  0  0  0
 18 19  2  0  0  0  0
 18 21  1  0  0  0  0
 19  1  1  0  0  0  0
 20 19  1  0  0  0  0
 22 20  1  0  0  0  0
 23 20  1  0  0  0  0
M  END
>  <minimizedAffinity>
-5.14332151

>  <minimizedRMSD>
2.74041128

$$$$
