
 OpenBabel03272509143D

 45 48  0  0  1  0  0  0  0  0999 V2000
   40.3970   24.6110   33.4580 N   0  0  0  0  0  0  0  0  0  0  0  0
   41.8320   24.3430   33.7370 C   0  0  0  0  0  0  0  0  0  0  0  0
   42.0710   25.2370   34.9450 C   0  0  0  0  0  0  0  0  0  0  0  0
   41.2050   26.4430   34.6760 C   0  0  0  0  0  0  0  0  0  0  0  0
   40.3780   26.0720   33.4660 C   0  0  2  0  0  0  0  0  0  0  0  0
   42.4050   24.6400   32.8580 H   0  0  0  0  0  0  0  0  0  0  0  0
   41.9820   23.2770   33.9480 H   0  0  0  0  0  0  0  0  0  0  0  0
   43.1200   25.5940   34.9770 H   0  0  0  0  0  0  0  0  0  0  0  0
   41.7730   24.6940   35.8660 H   0  0  0  0  0  0  0  0  0  0  0  0
   41.7970   27.3620   34.5000 H   0  0  0  0  0  0  0  0  0  0  0  0
   40.5530   26.6550   35.5690 H   0  0  0  0  0  0  0  0  0  0  0  0
   40.9300   26.4030   32.5710 H   0  0  0  0  0  0  0  0  0  0  0  0
   38.8370   23.7540   31.8640 C   0  0  0  0  0  0  0  0  0  0  0  0
   39.2260   23.8450   33.2290 C   0  0  0  0  0  0  0  0  0  0  0  0
   38.4120   23.2180   34.1780 C   0  0  0  0  0  0  0  0  0  0  0  0
   37.2960   22.5630   33.7590 N   0  0  0  0  0  0  0  0  0  0  0  0
   36.9640   22.5060   32.4490 C   0  0  0  0  0  0  0  0  0  0  0  0
   37.7210   23.0910   31.5170 N   0  0  0  0  0  0  0  0  0  0  0  0
   39.4040   24.1990   31.0610 H   0  0  0  0  0  0  0  0  0  0  0  0
   36.0760   21.9900   32.0830 H   0  0  0  0  0  0  0  0  0  0  0  0
   38.7350   23.2300   35.5780 C   0  0  0  0  0  0  0  0  0  0  0  0
   37.9460   23.9620   36.4380 C   0  0  0  0  0  0  0  0  0  0  0  0
   38.1640   24.0390   37.7970 C   0  0  0  0  0  0  0  0  0  0  0  0
   39.2500   23.3230   38.2790 C   0  0  0  0  0  0  0  0  0  0  0  0
   40.0910   22.5630   37.4780 C   0  0  0  0  0  0  0  0  0  0  0  0
   39.7960   22.5400   36.1060 C   0  0  0  0  0  0  0  0  0  0  0  0
   37.0920   24.5250   36.0490 H   0  0  0  0  0  0  0  0  0  0  0  0
   37.5400   24.6170   38.4650 H   0  0  0  0  0  0  0  0  0  0  0  0
   39.4920   23.3290   39.3330 H   0  0  0  0  0  0  0  0  0  0  0  0
   40.9300   22.0150   37.8840 H   0  0  0  0  0  0  0  0  0  0  0  0
   40.4230   21.9610   35.4460 H   0  0  0  0  0  0  0  0  0  0  0  0
   38.5120   27.2160   32.3520 C   0  0  0  0  0  0  0  0  0  0  0  0
   39.0300   26.6650   33.5310 C   0  0  0  0  0  0  0  0  0  0  0  0
   38.2120   26.7640   34.6240 C   0  0  0  0  0  0  0  0  0  0  0  0
   38.5770   26.3600   35.5440 H   0  0  0  0  0  0  0  0  0  0  0  0
   36.9670   27.3550   34.6030 C   0  0  0  0  0  0  0  0  0  0  0  0
   36.3730   27.3960   35.5170 H   0  0  0  0  0  0  0  0  0  0  0  0
   36.4780   27.8910   33.4310 C   0  0  0  0  0  3  0  0  0  0  0  0
   37.2710   27.8120   32.3080 C   0  0  0  0  0  3  0  0  0  0  0  0
   38.6740   26.7820   29.9750 N   0  0  0  0  0  0  0  0  0  0  0  0
   39.1960   27.2350   31.0670 C   0  0  0  0  0  0  0  0  0  0  0  0
   40.4280   27.6480   30.5450 N   0  0  0  0  0  0  0  0  0  0  0  0
   39.1830   26.8110   29.0880 H   0  0  0  0  0  0  0  0  0  0  0  0
   40.3360   28.7050   30.5110 H   0  0  0  0  0  0  0  0  0  0  0  0
   41.2400   27.0610   30.2590 H   0  0  0  0  0  0  0  0  0  0  0  0
  1  5  1  0  0  0  0
  1  2  1  0  0  0  0
  2  7  1  0  0  0  0
  2  3  1  0  0  0  0
  3  8  1  0  0  0  0
  3  9  1  0  0  0  0
  4  3  1  0  0  0  0
  4 11  1  0  0  0  0
  5 12  1  6  0  0  0
  5 33  1  0  0  0  0
  5  4  1  0  0  0  0
  6  2  1  0  0  0  0
 10  4  1  0  0  0  0
 13 14  1  0  0  0  0
 14  1  1  0  0  0  0
 14 15  2  0  0  0  0
 15 21  1  0  0  0  0
 16 15  1  0  0  0  0
 17 16  2  0  0  0  0
 18 13  2  0  0  0  0
 18 17  1  0  0  0  0
 19 13  1  0  0  0  0
 20 17  1  0  0  0  0
 21 26  2  0  0  0  0
 21 22  1  0  0  0  0
 22 23  2  0  0  0  0
 23 24  1  0  0  0  0
 23 28  1  0  0  0  0
 24 29  1  0  0  0  0
 25 30  1  0  0  0  0
 25 24  2  0  0  0  0
 26 25  1  0  0  0  0
 27 22  1  0  0  0  0
 31 26  1  0  0  0  0
 32 33  1  0  0  0  0
 33 34  2  0  0  0  0
 34 35  1  0  0  0  0
 36 34  1  0  0  0  0
 36 37  1  0  0  0  0
 38 36  2  0  0  0  0
 39 32  2  0  0  0  0
 39 38  1  0  0  0  0
 40 41  2  0  0  0  0
 41 32  1  0  0  0  0
 42 41  1  0  0  0  0
 43 40  1  0  0  0  0
 44 42  1  0  0  0  0
 45 42  1  0  0  0  0
M  END
>  <minimizedAffinity>
-5.84228325

$$$$

 OpenBabel03272509143D

 45 48  0  0  1  0  0  0  0  0999 V2000
   38.2880   25.7600   33.8660 N   0  0  0  0  0  0  0  0  0  0  0  0
   37.1970   26.7560   34.0210 C   0  0  0  0  0  0  0  0  0  0  0  0
   37.6540   27.5050   35.2640 C   0  0  0  0  0  0  0  0  0  0  0  0
   38.3020   26.4370   36.1100 C   0  0  0  0  0  0  0  0  0  0  0  0
   38.3680   25.2160   35.2200 C   0  0  2  0  0  0  0  0  0  0  0  0
   36.2630   26.2090   34.1640 H   0  0  0  0  0  0  0  0  0  0  0  0
   37.1350   27.3900   33.1290 H   0  0  0  0  0  0  0  0  0  0  0  0
   36.7880   27.8900   35.8400 H   0  0  0  0  0  0  0  0  0  0  0  0
   38.3630   28.3060   34.9680 H   0  0  0  0  0  0  0  0  0  0  0  0
   37.7420   26.2330   37.0420 H   0  0  0  0  0  0  0  0  0  0  0  0
   39.3310   26.7690   36.4270 H   0  0  0  0  0  0  0  0  0  0  0  0
   37.4460   24.6350   35.3840 H   0  0  0  0  0  0  0  0  0  0  0  0
   40.2640   26.1490   32.5800 C   0  0  0  0  0  0  0  0  0  0  0  0
   39.1400   25.3120   32.8250 C   0  0  0  0  0  0  0  0  0  0  0  0
   38.9780   24.1890   32.0070 C   0  0  0  0  0  0  0  0  0  0  0  0
   39.8880   23.9520   31.0240 N   0  0  0  0  0  0  0  0  0  0  0  0
   40.9410   24.7790   30.8260 C   0  0  0  0  0  0  0  0  0  0  0  0
   41.1260   25.8580   31.5910 N   0  0  0  0  0  0  0  0  0  0  0  0
   40.4760   27.0320   33.1610 H   0  0  0  0  0  0  0  0  0  0  0  0
   41.6850   24.6170   30.0470 H   0  0  0  0  0  0  0  0  0  0  0  0
   37.8900   23.2680   32.1920 C   0  0  0  0  0  0  0  0  0  0  0  0
   38.1040   22.1230   32.9260 C   0  0  0  0  0  0  0  0  0  0  0  0
   37.1310   21.1770   33.1670 C   0  0  0  0  0  0  0  0  0  0  0  0
   35.8830   21.4360   32.6200 C   0  0  0  0  0  0  0  0  0  0  0  0
   35.5890   22.5660   31.8690 C   0  0  0  0  0  0  0  0  0  0  0  0
   36.6380   23.4780   31.6730 C   0  0  0  0  0  0  0  0  0  0  0  0
   39.0920   21.9250   33.3530 H   0  0  0  0  0  0  0  0  0  0  0  0
   37.3080   20.2790   33.7440 H   0  0  0  0  0  0  0  0  0  0  0  0
   35.0630   20.7450   32.7610 H   0  0  0  0  0  0  0  0  0  0  0  0
   34.6040   22.7410   31.4560 H   0  0  0  0  0  0  0  0  0  0  0  0
   36.4530   24.3700   31.0970 H   0  0  0  0  0  0  0  0  0  0  0  0
   39.4280   23.2690   36.2770 C   0  0  0  0  0  0  0  0  0  0  0  0
   39.5770   24.4170   35.4880 C   0  0  0  0  0  0  0  0  0  0  0  0
   40.8560   24.6700   35.0710 C   0  0  0  0  0  0  0  0  0  0  0  0
   41.0100   25.5420   34.4720 H   0  0  0  0  0  0  0  0  0  0  0  0
   41.9390   23.8770   35.3840 C   0  0  0  0  0  0  0  0  0  0  0  0
   42.9290   24.1460   35.0130 H   0  0  0  0  0  0  0  0  0  0  0  0
   41.7680   22.7530   36.1620 C   0  0  0  0  0  3  0  0  0  0  0  0
   40.4960   22.4630   36.6020 C   0  0  0  0  0  3  0  0  0  0  0  0
   37.7900   23.0550   38.0470 N   0  0  0  0  0  0  0  0  0  0  0  0
   38.1700   22.7990   36.8380 C   0  0  0  0  0  0  0  0  0  0  0  0
   37.0620   22.0440   36.4350 N   0  0  0  0  0  0  0  0  0  0  0  0
   36.8980   22.7100   38.4100 H   0  0  0  0  0  0  0  0  0  0  0  0
   36.5310   22.7090   35.8010 H   0  0  0  0  0  0  0  0  0  0  0  0
   36.8180   21.0640   36.6920 H   0  0  0  0  0  0  0  0  0  0  0  0
  1  2  1  0  0  0  0
  1  5  1  0  0  0  0
  2  6  1  0  0  0  0
  2  3  1  0  0  0  0
  3  8  1  0  0  0  0
  3  4  1  0  0  0  0
  4 11  1  0  0  0  0
  4 10  1  0  0  0  0
  5 12  1  1  0  0  0
  5 33  1  0  0  0  0
  5  4  1  0  0  0  0
  7  2  1  0  0  0  0
  9  3  1  0  0  0  0
 13 14  1  0  0  0  0
 13 19  1  0  0  0  0
 14  1  1  0  0  0  0
 15 21  1  0  0  0  0
 15 14  2  0  0  0  0
 16 15  1  0  0  0  0
 17 16  2  0  0  0  0
 17 18  1  0  0  0  0
 18 13  2  0  0  0  0
 20 17  1  0  0  0  0
 21 22  1  0  0  0  0
 22 23  2  0  0  0  0
 22 27  1  0  0  0  0
 23 28  1  0  0  0  0
 24 29  1  0  0  0  0
 24 23  1  0  0  0  0
 25 24  2  0  0  0  0
 26 25  1  0  0  0  0
 26 21  2  0  0  0  0
 30 25  1  0  0  0  0
 31 26  1  0  0  0  0
 32 39  1  0  0  0  0
 32 41  1  0  0  0  0
 33 32  2  0  0  0  0
 34 36  2  0  0  0  0
 34 33  1  0  0  0  0
 35 34  1  0  0  0  0
 36 38  1  0  0  0  0
 37 36  1  0  0  0  0
 38 39  2  0  0  0  0
 40 43  1  0  0  0  0
 41 40  2  0  0  0  0
 42 45  1  0  0  0  0
 42 41  1  0  0  0  0
 44 42  1  0  0  0  0
M  END
>  <minimizedAffinity>
-5.79091597

$$$$

 OpenBabel03272509143D

 45 48  0  0  1  0  0  0  0  0999 V2000
   37.9290   25.1680   34.3540 N   0  0  0  0  0  0  0  0  0  0  0  0
   37.0240   26.3410   34.4640 C   0  0  0  0  0  0  0  0  0  0  0  0
   38.0120   27.4470   34.8030 C   0  0  0  0  0  0  0  0  0  0  0  0
   39.0380   26.7600   35.6700 C   0  0  0  0  0  0  0  0  0  0  0  0
   38.6960   25.2880   35.5910 C   0  0  2  0  0  0  0  0  0  0  0  0
   36.3090   26.1380   35.2630 H   0  0  0  0  0  0  0  0  0  0  0  0
   36.4990   26.5010   33.5150 H   0  0  0  0  0  0  0  0  0  0  0  0
   37.5360   28.2300   35.4280 H   0  0  0  0  0  0  0  0  0  0  0  0
   38.4450   27.8500   33.8650 H   0  0  0  0  0  0  0  0  0  0  0  0
   39.0280   27.1260   36.7140 H   0  0  0  0  0  0  0  0  0  0  0  0
   40.0730   26.9620   35.2750 H   0  0  0  0  0  0  0  0  0  0  0  0
   38.0040   25.0620   36.4190 H   0  0  0  0  0  0  0  0  0  0  0  0
   37.7740   22.8320   33.8760 C   0  0  0  0  0  0  0  0  0  0  0  0
   38.1620   24.1240   33.4240 C   0  0  0  0  0  0  0  0  0  0  0  0
   38.7530   24.2160   32.1590 C   0  0  0  0  0  0  0  0  0  0  0  0
   38.9310   23.0820   31.4300 N   0  0  0  0  0  0  0  0  0  0  0  0
   38.5490   21.8740   31.9030 C   0  0  0  0  0  0  0  0  0  0  0  0
   37.9790   21.7510   33.1050 N   0  0  0  0  0  0  0  0  0  0  0  0
   37.3050   22.6610   34.8320 H   0  0  0  0  0  0  0  0  0  0  0  0
   38.6790   20.9490   31.3430 H   0  0  0  0  0  0  0  0  0  0  0  0
   39.1550   25.4790   31.6030 C   0  0  0  0  0  0  0  0  0  0  0  0
   38.2390   26.2120   30.8810 C   0  0  0  0  0  0  0  0  0  0  0  0
   38.5180   27.4340   30.3090 C   0  0  0  0  0  0  0  0  0  0  0  0
   39.8060   27.9120   30.4970 C   0  0  0  0  0  0  0  0  0  0  0  0
   40.7850   27.2340   31.2100 C   0  0  0  0  0  0  0  0  0  0  0  0
   40.4150   25.9970   31.7590 C   0  0  0  0  0  0  0  0  0  0  0  0
   37.2240   25.8270   30.7380 H   0  0  0  0  0  0  0  0  0  0  0  0
   37.7920   28.0030   29.7440 H   0  0  0  0  0  0  0  0  0  0  0  0
   40.1090   28.8640   30.0800 H   0  0  0  0  0  0  0  0  0  0  0  0
   41.7820   27.6340   31.3390 H   0  0  0  0  0  0  0  0  0  0  0  0
   41.1450   25.4360   32.3220 H   0  0  0  0  0  0  0  0  0  0  0  0
   39.9110   23.3790   36.5470 C   0  0  0  0  0  0  0  0  0  0  0  0
   39.9080   24.4500   35.6430 C   0  0  0  0  0  0  0  0  0  0  0  0
   41.0610   24.6000   34.9200 C   0  0  0  0  0  0  0  0  0  0  0  0
   41.0970   25.4110   34.2250 H   0  0  0  0  0  0  0  0  0  0  0  0
   42.1600   23.7780   35.0440 C   0  0  0  0  0  0  0  0  0  0  0  0
   43.0440   23.9620   34.4310 H   0  0  0  0  0  0  0  0  0  0  0  0
   42.1410   22.7310   35.9410 C   0  0  0  0  0  3  0  0  0  0  0  0
   40.9990   22.5460   36.6890 C   0  0  0  0  0  3  0  0  0  0  0  0
   38.8990   23.0090   38.7150 N   0  0  0  0  0  0  0  0  0  0  0  0
   38.8060   23.0250   37.4260 C   0  0  0  0  0  0  0  0  0  0  0  0
   37.4660   22.6340   37.3150 N   0  0  0  0  0  0  0  0  0  0  0  0
   38.1010   22.7560   39.3040 H   0  0  0  0  0  0  0  0  0  0  0  0
   36.9700   23.5360   37.0550 H   0  0  0  0  0  0  0  0  0  0  0  0
   37.0540   21.6870   37.4520 H   0  0  0  0  0  0  0  0  0  0  0  0
  1  2  1  0  0  0  0
  1  5  1  0  0  0  0
  2  3  1  0  0  0  0
  2  6  1  0  0  0  0
  3  8  1  0  0  0  0
  3  4  1  0  0  0  0
  4 10  1  0  0  0  0
  5 33  1  0  0  0  0
  5  4  1  0  0  0  0
  5 12  1  1  0  0  0
  7  2  1  0  0  0  0
  9  3  1  0  0  0  0
 11  4  1  0  0  0  0
 13 19  1  0  0  0  0
 14 13  1  0  0  0  0
 14  1  1  0  0  0  0
 15 14  2  0  0  0  0
 16 17  2  0  0  0  0
 16 15  1  0  0  0  0
 17 18  1  0  0  0  0
 18 13  2  0  0  0  0
 20 17  1  0  0  0  0
 21 26  1  0  0  0  0
 21 15  1  0  0  0  0
 22 21  2  0  0  0  0
 23 24  2  0  0  0  0
 23 22  1  0  0  0  0
 24 25  1  0  0  0  0
 25 30  1  0  0  0  0
 25 26  2  0  0  0  0
 26 31  1  0  0  0  0
 27 22  1  0  0  0  0
 28 23  1  0  0  0  0
 29 24  1  0  0  0  0
 32 39  1  0  0  0  0
 32 41  1  0  0  0  0
 33 32  2  0  0  0  0
 34 36  2  0  0  0  0
 34 33  1  0  0  0  0
 35 34  1  0  0  0  0
 36 38  1  0  0  0  0
 37 36  1  0  0  0  0
 38 39  2  0  0  0  0
 40 43  1  0  0  0  0
 41 40  2  0  0  0  0
 42 41  1  0  0  0  0
 42 45  1  0  0  0  0
 44 42  1  0  0  0  0
M  END
>  <minimizedAffinity>
-5.6443038

$$$$

 OpenBabel03272509143D

 45 48  0  0  1  0  0  0  0  0999 V2000
   38.1340   25.0240   34.6270 N   0  0  0  0  0  0  0  0  0  0  0  0
   37.2200   26.1150   35.0520 C   0  0  0  0  0  0  0  0  0  0  0  0
   38.1750   27.2990   35.1040 C   0  0  0  0  0  0  0  0  0  0  0  0
   39.4710   26.6940   35.5840 C   0  0  0  0  0  0  0  0  0  0  0  0
   39.2380   25.2000   35.5660 C   0  0  2  0  0  0  0  0  0  0  0  0
   36.8100   25.8460   36.0270 H   0  0  0  0  0  0  0  0  0  0  0  0
   36.4130   26.2380   34.3210 H   0  0  0  0  0  0  0  0  0  0  0  0
   37.8590   28.0340   35.8710 H   0  0  0  0  0  0  0  0  0  0  0  0
   38.2600   27.7440   34.0910 H   0  0  0  0  0  0  0  0  0  0  0  0
   39.7600   27.0500   36.5910 H   0  0  0  0  0  0  0  0  0  0  0  0
   40.3110   26.9860   34.8930 H   0  0  0  0  0  0  0  0  0  0  0  0
   38.8600   24.9100   36.5600 H   0  0  0  0  0  0  0  0  0  0  0  0
   37.8930   22.6990   34.1280 C   0  0  0  0  0  0  0  0  0  0  0  0
   38.1440   24.0100   33.6350 C   0  0  0  0  0  0  0  0  0  0  0  0
   38.4070   24.1480   32.2690 C   0  0  0  0  0  0  0  0  0  0  0  0
   38.4140   23.0380   31.4830 N   0  0  0  0  0  0  0  0  0  0  0  0
   38.1730   21.8110   31.9970 C   0  0  0  0  0  0  0  0  0  0  0  0
   37.9160   21.6440   33.2970 N   0  0  0  0  0  0  0  0  0  0  0  0
   37.6740   22.4940   35.1650 H   0  0  0  0  0  0  0  0  0  0  0  0
   38.1740   20.9040   31.3940 H   0  0  0  0  0  0  0  0  0  0  0  0
   38.6460   25.4340   31.6700 C   0  0  0  0  0  0  0  0  0  0  0  0
   39.9440   25.8370   31.4530 C   0  0  0  0  0  0  0  0  0  0  0  0
   40.2850   27.0450   30.8840 C   0  0  0  0  0  0  0  0  0  0  0  0
   39.2260   27.8670   30.5270 C   0  0  0  0  0  0  0  0  0  0  0  0
   37.8920   27.5330   30.7130 C   0  0  0  0  0  0  0  0  0  0  0  0
   37.6350   26.2840   31.2990 C   0  0  0  0  0  0  0  0  0  0  0  0
   40.7740   25.1820   31.7380 H   0  0  0  0  0  0  0  0  0  0  0  0
   41.3080   27.3540   30.7170 H   0  0  0  0  0  0  0  0  0  0  0  0
   39.4050   28.8330   30.0740 H   0  0  0  0  0  0  0  0  0  0  0  0
   37.0880   28.1960   30.4230 H   0  0  0  0  0  0  0  0  0  0  0  0
   36.6120   25.9830   31.4610 H   0  0  0  0  0  0  0  0  0  0  0  0
   40.7800   23.3300   35.9680 C   0  0  0  0  0  0  0  0  0  0  0  0
   40.4670   24.4660   35.2100 C   0  0  0  0  0  0  0  0  0  0  0  0
   41.3680   24.7720   34.2260 C   0  0  0  0  0  0  0  0  0  0  0  0
   41.1650   25.6370   33.6310 H   0  0  0  0  0  0  0  0  0  0  0  0
   42.5070   24.0410   33.9700 C   0  0  0  0  0  0  0  0  0  0  0  0
   43.1770   24.3480   33.1670 H   0  0  0  0  0  0  0  0  0  0  0  0
   42.7960   22.9270   34.7290 C   0  0  0  0  0  3  0  0  0  0  0  0
   41.9150   22.5850   35.7300 C   0  0  0  0  0  3  0  0  0  0  0  0
   40.3950   21.8980   37.8810 N   0  0  0  0  0  0  0  0  0  0  0  0
   39.9800   22.8130   37.0670 C   0  0  0  0  0  0  0  0  0  0  0  0
   38.7090   23.0130   37.6200 N   0  0  0  0  0  0  0  0  0  0  0  0
   39.8060   21.5570   38.6450 H   0  0  0  0  0  0  0  0  0  0  0  0
   38.8070   23.9400   38.1280 H   0  0  0  0  0  0  0  0  0  0  0  0
   37.8680   22.4010   37.5500 H   0  0  0  0  0  0  0  0  0  0  0  0
  1  2  1  0  0  0  0
  1  5  1  0  0  0  0
  2  3  1  0  0  0  0
  2  6  1  0  0  0  0
  3  4  1  0  0  0  0
  3  8  1  0  0  0  0
  4 10  1  0  0  0  0
  5  4  1  0  0  0  0
  5 12  1  1  0  0  0
  7  2  1  0  0  0  0
  9  3  1  0  0  0  0
 11  4  1  0  0  0  0
 13 19  1  0  0  0  0
 14 13  1  0  0  0  0
 14  1  1  0  0  0  0
 15 14  2  0  0  0  0
 16 17  2  0  0  0  0
 16 15  1  0  0  0  0
 17 18  1  0  0  0  0
 18 13  2  0  0  0  0
 20 17  1  0  0  0  0
 21 15  1  0  0  0  0
 22 21  1  0  0  0  0
 22 27  1  0  0  0  0
 23 22  2  0  0  0  0
 24 25  2  0  0  0  0
 24 23  1  0  0  0  0
 25 26  1  0  0  0  0
 26 31  1  0  0  0  0
 26 21  2  0  0  0  0
 28 23  1  0  0  0  0
 29 24  1  0  0  0  0
 30 25  1  0  0  0  0
 32 41  1  0  0  0  0
 33  5  1  0  0  0  0
 33 32  2  0  0  0  0
 34 33  1  0  0  0  0
 35 34  1  0  0  0  0
 36 34  2  0  0  0  0
 36 38  1  0  0  0  0
 37 36  1  0  0  0  0
 38 39  2  0  0  0  0
 39 32  1  0  0  0  0
 40 43  1  0  0  0  0
 41 42  1  0  0  0  0
 41 40  2  0  0  0  0
 42 44  1  0  0  0  0
 45 42  1  0  0  0  0
M  END
>  <minimizedAffinity>
-5.55865955

$$$$

 OpenBabel03272509143D

 45 48  0  0  1  0  0  0  0  0999 V2000
   40.7070   23.4330   33.2010 N   0  0  0  0  0  0  0  0  0  0  0  0
   40.5840   22.3520   32.1890 C   0  0  0  0  0  0  0  0  0  0  0  0
   39.3490   22.8040   31.4230 C   0  0  0  0  0  0  0  0  0  0  0  0
   38.4760   23.4280   32.4830 C   0  0  0  0  0  0  0  0  0  0  0  0
   39.3430   23.4890   33.7210 C   0  0  2  0  0  0  0  0  0  0  0  0
   40.4430   21.4100   32.7220 H   0  0  0  0  0  0  0  0  0  0  0  0
   41.4880   22.3090   31.5710 H   0  0  0  0  0  0  0  0  0  0  0  0
   38.7910   21.9350   31.0170 H   0  0  0  0  0  0  0  0  0  0  0  0
   39.6500   23.5260   30.6370 H   0  0  0  0  0  0  0  0  0  0  0  0
   37.5470   22.8540   32.6640 H   0  0  0  0  0  0  0  0  0  0  0  0
   38.1530   24.4570   32.1580 H   0  0  0  0  0  0  0  0  0  0  0  0
   39.1800   22.5580   34.2880 H   0  0  0  0  0  0  0  0  0  0  0  0
   41.9210   25.4700   32.9040 C   0  0  0  0  0  0  0  0  0  0  0  0
   41.7300   24.2920   33.6780 C   0  0  0  0  0  0  0  0  0  0  0  0
   42.5760   24.0930   34.7730 C   0  0  0  0  0  0  0  0  0  0  0  0
   43.5340   25.0200   35.0440 N   0  0  0  0  0  0  0  0  0  0  0  0
   43.6800   26.1250   34.2780 C   0  0  0  0  0  0  0  0  0  0  0  0
   42.8870   26.3470   33.2260 N   0  0  0  0  0  0  0  0  0  0  0  0
   41.3140   25.7140   32.0460 H   0  0  0  0  0  0  0  0  0  0  0  0
   44.4380   26.8840   34.4680 H   0  0  0  0  0  0  0  0  0  0  0  0
   42.4460   22.9480   35.6320 C   0  0  0  0  0  0  0  0  0  0  0  0
   43.2500   21.8530   35.4100 C   0  0  0  0  0  0  0  0  0  0  0  0
   43.2100   20.7060   36.1740 C   0  0  0  0  0  0  0  0  0  0  0  0
   42.2910   20.7020   37.2130 C   0  0  0  0  0  0  0  0  0  0  0  0
   41.4460   21.7640   37.5010 C   0  0  0  0  0  0  0  0  0  0  0  0
   41.5540   22.8930   36.6730 C   0  0  0  0  0  0  0  0  0  0  0  0
   43.9730   21.8640   34.5880 H   0  0  0  0  0  0  0  0  0  0  0  0
   43.8460   19.8500   35.9930 H   0  0  0  0  0  0  0  0  0  0  0  0
   42.1940   19.8410   37.8620 H   0  0  0  0  0  0  0  0  0  0  0  0
   40.7390   21.7310   38.3200 H   0  0  0  0  0  0  0  0  0  0  0  0
   40.9160   23.7420   36.8610 H   0  0  0  0  0  0  0  0  0  0  0  0
   38.4500   24.4830   35.7820 C   0  0  0  0  0  0  0  0  0  0  0  0
   39.0460   24.6860   34.5300 C   0  0  0  0  0  0  0  0  0  0  0  0
   39.2650   25.9950   34.1980 C   0  0  0  0  0  0  0  0  0  0  0  0
   39.7120   26.1880   33.2460 H   0  0  0  0  0  0  0  0  0  0  0  0
   38.9380   27.0600   35.0090 C   0  0  0  0  0  0  0  0  0  0  0  0
   39.1440   28.0780   34.6730 H   0  0  0  0  0  0  0  0  0  0  0  0
   38.3520   26.8380   36.2360 C   0  0  0  0  0  3  0  0  0  0  0  0
   38.1140   25.5330   36.6080 C   0  0  0  0  0  3  0  0  0  0  0  0
   38.0130   22.9680   37.6190 N   0  0  0  0  0  0  0  0  0  0  0  0
   38.1170   23.1850   36.3480 C   0  0  0  0  0  0  0  0  0  0  0  0
   37.8260   21.8920   35.8990 N   0  0  0  0  0  0  0  0  0  0  0  0
   37.7760   22.0420   37.9840 H   0  0  0  0  0  0  0  0  0  0  0  0
   36.8370   21.9810   35.5220 H   0  0  0  0  0  0  0  0  0  0  0  0
   38.4320   21.0440   35.9240 H   0  0  0  0  0  0  0  0  0  0  0  0
  1 14  1  0  0  0  0
  1  5  1  0  0  0  0
  2  6  1  0  0  0  0
  2  1  1  0  0  0  0
  3  2  1  0  0  0  0
  3  4  1  0  0  0  0
  4 10  1  0  0  0  0
  4  5  1  0  0  0  0
  5 12  1  1  0  0  0
  5 33  1  0  0  0  0
  7  2  1  0  0  0  0
  8  3  1  0  0  0  0
  9  3  1  0  0  0  0
 11  4  1  0  0  0  0
 13 18  2  0  0  0  0
 13 14  1  0  0  0  0
 14 15  2  0  0  0  0
 15 16  1  0  0  0  0
 15 21  1  0  0  0  0
 17 20  1  0  0  0  0
 17 16  2  0  0  0  0
 18 17  1  0  0  0  0
 19 13  1  0  0  0  0
 21 26  1  0  0  0  0
 22 21  2  0  0  0  0
 22 23  1  0  0  0  0
 23 24  2  0  0  0  0
 24 25  1  0  0  0  0
 24 29  1  0  0  0  0
 25 30  1  0  0  0  0
 26 31  1  0  0  0  0
 26 25  2  0  0  0  0
 27 22  1  0  0  0  0
 28 23  1  0  0  0  0
 32 41  1  0  0  0  0
 32 39  1  0  0  0  0
 33 32  2  0  0  0  0
 34 33  1  0  0  0  0
 34 36  2  0  0  0  0
 35 34  1  0  0  0  0
 36 38  1  0  0  0  0
 37 36  1  0  0  0  0
 38 39  2  0  0  0  0
 40 43  1  0  0  0  0
 41 40  2  0  0  0  0
 42 45  1  0  0  0  0
 42 41  1  0  0  0  0
 44 42  1  0  0  0  0
M  END
>  <minimizedAffinity>
-5.52290821

$$$$

 OpenBabel03272509143D

 45 48  0  0  1  0  0  0  0  0999 V2000
   39.1790   23.6220   32.1650 N   0  0  0  0  0  0  0  0  0  0  0  0
   39.9500   22.4830   31.6040 C   0  0  0  0  0  0  0  0  0  0  0  0
   40.1440   21.6180   32.8410 C   0  0  0  0  0  0  0  0  0  0  0  0
   40.3090   22.6200   33.9570 C   0  0  0  0  0  0  0  0  0  0  0  0
   39.9860   23.9600   33.3340 C   0  0  2  0  0  0  0  0  0  0  0  0
   40.8840   22.8790   31.2010 H   0  0  0  0  0  0  0  0  0  0  0  0
   39.3720   21.9900   30.8140 H   0  0  0  0  0  0  0  0  0  0  0  0
   41.0910   21.0440   32.7820 H   0  0  0  0  0  0  0  0  0  0  0  0
   39.2540   20.9690   32.9760 H   0  0  0  0  0  0  0  0  0  0  0  0
   41.3250   22.6080   34.3950 H   0  0  0  0  0  0  0  0  0  0  0  0
   39.6000   22.3780   34.7990 H   0  0  0  0  0  0  0  0  0  0  0  0
   40.9290   24.3880   32.9570 H   0  0  0  0  0  0  0  0  0  0  0  0
   38.1920   25.6940   31.4960 C   0  0  0  0  0  0  0  0  0  0  0  0
   37.9920   24.3280   31.8410 C   0  0  0  0  0  0  0  0  0  0  0  0
   36.6770   23.8520   31.8630 C   0  0  0  0  0  0  0  0  0  0  0  0
   35.6620   24.7050   31.5610 N   0  0  0  0  0  0  0  0  0  0  0  0
   35.9010   25.9980   31.2410 C   0  0  0  0  0  0  0  0  0  0  0  0
   37.1450   26.4840   31.2090 N   0  0  0  0  0  0  0  0  0  0  0  0
   39.1690   26.1490   31.4460 H   0  0  0  0  0  0  0  0  0  0  0  0
   35.1090   26.7050   30.9960 H   0  0  0  0  0  0  0  0  0  0  0  0
   36.3730   22.4820   32.1730 C   0  0  0  0  0  0  0  0  0  0  0  0
   36.0770   21.6150   31.1450 C   0  0  0  0  0  0  0  0  0  0  0  0
   35.7760   20.2830   31.3300 C   0  0  0  0  0  0  0  0  0  0  0  0
   35.7830   19.8370   32.6430 C   0  0  0  0  0  0  0  0  0  0  0  0
   36.0710   20.6470   33.7330 C   0  0  0  0  0  0  0  0  0  0  0  0
   36.3670   21.9900   33.4540 C   0  0  0  0  0  0  0  0  0  0  0  0
   36.0730   21.9760   30.1120 H   0  0  0  0  0  0  0  0  0  0  0  0
   35.5450   19.6090   30.5160 H   0  0  0  0  0  0  0  0  0  0  0  0
   35.5580   18.8050   32.8780 H   0  0  0  0  0  0  0  0  0  0  0  0
   36.0690   20.2680   34.7470 H   0  0  0  0  0  0  0  0  0  0  0  0
   36.5970   22.6550   34.2710 H   0  0  0  0  0  0  0  0  0  0  0  0
   39.8710   26.1350   34.4710 C   0  0  0  0  0  0  0  0  0  0  0  0
   39.3220   24.8570   34.2980 C   0  0  0  0  0  0  0  0  0  0  0  0
   38.2270   24.5880   35.0740 C   0  0  0  0  0  0  0  0  0  0  0  0
   37.7860   23.6200   34.9740 H   0  0  0  0  0  0  0  0  0  0  0  0
   37.6790   25.4810   35.9680 C   0  0  0  0  0  0  0  0  0  0  0  0
   36.8040   25.1920   36.5520 H   0  0  0  0  0  0  0  0  0  0  0  0
   38.2360   26.7320   36.1220 C   0  0  0  0  0  3  0  0  0  0  0  0
   39.3390   27.0430   35.3600 C   0  0  0  0  0  3  0  0  0  0  0  0
   42.1880   26.8190   34.3210 N   0  0  0  0  0  0  0  0  0  0  0  0
   41.0350   26.6470   33.7630 C   0  0  0  0  0  0  0  0  0  0  0  0
   41.3680   27.0800   32.4740 N   0  0  0  0  0  0  0  0  0  0  0  0
   42.9870   27.1800   33.7930 H   0  0  0  0  0  0  0  0  0  0  0  0
   41.4280   26.1770   31.9210 H   0  0  0  0  0  0  0  0  0  0  0  0
   41.5170   28.0550   32.1360 H   0  0  0  0  0  0  0  0  0  0  0  0
  1  5  1  0  0  0  0
  2  1  1  0  0  0  0
  2  3  1  0  0  0  0
  3  9  1  0  0  0  0
  3  4  1  0  0  0  0
  4 10  1  0  0  0  0
  4 11  1  0  0  0  0
  5 12  1  6  0  0  0
  5  4  1  0  0  0  0
  5 33  1  0  0  0  0
  6  2  1  0  0  0  0
  7  2  1  0  0  0  0
  8  3  1  0  0  0  0
 13 14  1  0  0  0  0
 14 15  2  0  0  0  0
 14  1  1  0  0  0  0
 15 21  1  0  0  0  0
 16 15  1  0  0  0  0
 17 16  2  0  0  0  0
 18 17  1  0  0  0  0
 18 13  2  0  0  0  0
 19 13  1  0  0  0  0
 20 17  1  0  0  0  0
 21 26  1  0  0  0  0
 22 23  1  0  0  0  0
 22 21  2  0  0  0  0
 23 24  2  0  0  0  0
 24 29  1  0  0  0  0
 24 25  1  0  0  0  0
 25 30  1  0  0  0  0
 26 25  2  0  0  0  0
 26 31  1  0  0  0  0
 27 22  1  0  0  0  0
 28 23  1  0  0  0  0
 32 39  1  0  0  0  0
 33 32  2  0  0  0  0
 33 34  1  0  0  0  0
 34 36  2  0  0  0  0
 35 34  1  0  0  0  0
 36 38  1  0  0  0  0
 36 37  1  0  0  0  0
 39 38  2  0  0  0  0
 41 40  2  0  0  0  0
 41 32  1  0  0  0  0
 42 41  1  0  0  0  0
 43 40  1  0  0  0  0
 44 42  1  0  0  0  0
 45 42  1  0  0  0  0
M  END
>  <minimizedAffinity>
-5.49641371

$$$$

 OpenBabel03272509143D

 45 48  0  0  1  0  0  0  0  0999 V2000
   39.3070   26.0870   33.5650 N   0  0  0  0  0  0  0  0  0  0  0  0
   39.6380   27.0250   34.6690 C   0  0  0  0  0  0  0  0  0  0  0  0
   38.7300   26.5100   35.7760 C   0  0  0  0  0  0  0  0  0  0  0  0
   37.4890   26.0600   35.0440 C   0  0  0  0  0  0  0  0  0  0  0  0
   37.8480   26.1410   33.5770 C   0  0  2  0  0  0  0  0  0  0  0  0
   39.3870   28.0340   34.3370 H   0  0  0  0  0  0  0  0  0  0  0  0
   40.7040   26.9580   34.9140 H   0  0  0  0  0  0  0  0  0  0  0  0
   38.4220   27.3310   36.4550 H   0  0  0  0  0  0  0  0  0  0  0  0
   39.2370   25.6790   36.3090 H   0  0  0  0  0  0  0  0  0  0  0  0
   36.6040   26.6790   35.2830 H   0  0  0  0  0  0  0  0  0  0  0  0
   37.2270   25.0060   35.3440 H   0  0  0  0  0  0  0  0  0  0  0  0
   37.5630   27.1450   33.2200 H   0  0  0  0  0  0  0  0  0  0  0  0
   39.9290   25.6850   31.2930 C   0  0  0  0  0  0  0  0  0  0  0  0
   40.0220   25.2720   32.6510 C   0  0  0  0  0  0  0  0  0  0  0  0
   40.7560   24.1140   32.9260 C   0  0  0  0  0  0  0  0  0  0  0  0
   41.3370   23.4410   31.8970 N   0  0  0  0  0  0  0  0  0  0  0  0
   41.2190   23.8700   30.6200 C   0  0  0  0  0  0  0  0  0  0  0  0
   40.5270   24.9740   30.3220 N   0  0  0  0  0  0  0  0  0  0  0  0
   39.3910   26.5680   30.9830 H   0  0  0  0  0  0  0  0  0  0  0  0
   41.6700   23.3520   29.7750 H   0  0  0  0  0  0  0  0  0  0  0  0
   40.9320   23.6310   34.2690 C   0  0  0  0  0  0  0  0  0  0  0  0
   42.1010   23.9230   34.9350 C   0  0  0  0  0  0  0  0  0  0  0  0
   42.3690   23.5130   36.2230 C   0  0  0  0  0  0  0  0  0  0  0  0
   41.3770   22.7660   36.8420 C   0  0  0  0  0  0  0  0  0  0  0  0
   40.1730   22.4300   36.2370 C   0  0  0  0  0  0  0  0  0  0  0  0
   39.9820   22.8890   34.9250 C   0  0  0  0  0  0  0  0  0  0  0  0
   42.8780   24.5120   34.4400 H   0  0  0  0  0  0  0  0  0  0  0  0
   43.2900   23.7470   36.7400 H   0  0  0  0  0  0  0  0  0  0  0  0
   41.5070   22.4040   37.8530 H   0  0  0  0  0  0  0  0  0  0  0  0
   39.4180   21.8460   36.7470 H   0  0  0  0  0  0  0  0  0  0  0  0
   39.0610   22.6520   34.4170 H   0  0  0  0  0  0  0  0  0  0  0  0
   36.3410   25.4680   31.7580 C   0  0  0  0  0  0  0  0  0  0  0  0
   37.1900   25.0740   32.8000 C   0  0  0  0  0  0  0  0  0  0  0  0
   37.2910   23.7220   32.9850 C   0  0  0  0  0  0  0  0  0  0  0  0
   37.9250   23.3850   33.7770 H   0  0  0  0  0  0  0  0  0  0  0  0
   36.6230   22.7880   32.2230 C   0  0  0  0  0  0  0  0  0  0  0  0
   36.7560   21.7260   32.4320 H   0  0  0  0  0  0  0  0  0  0  0  0
   35.7920   23.1990   31.2020 C   0  0  0  0  0  3  0  0  0  0  0  0
   35.6630   24.5520   30.9840 C   0  0  0  0  0  3  0  0  0  0  0  0
   36.3430   27.3270   30.2060 N   0  0  0  0  0  0  0  0  0  0  0  0
   36.0710   26.8460   31.3750 C   0  0  0  0  0  0  0  0  0  0  0  0
   35.5280   28.0030   31.9470 N   0  0  0  0  0  0  0  0  0  0  0  0
   36.1380   28.3010   29.9700 H   0  0  0  0  0  0  0  0  0  0  0  0
   34.4850   27.8020   31.9600 H   0  0  0  0  0  0  0  0  0  0  0  0
   36.0250   28.8550   32.2820 H   0  0  0  0  0  0  0  0  0  0  0  0
  1  5  1  0  0  0  0
  1  2  1  0  0  0  0
  2  7  1  0  0  0  0
  2  3  1  0  0  0  0
  3  9  1  0  0  0  0
  3  8  1  0  0  0  0
  4 10  1  0  0  0  0
  4 11  1  0  0  0  0
  4  3  1  0  0  0  0
  5 12  1  6  0  0  0
  5  4  1  0  0  0  0
  6  2  1  0  0  0  0
 13 14  1  0  0  0  0
 14 15  2  0  0  0  0
 14  1  1  0  0  0  0
 15 21  1  0  0  0  0
 16 15  1  0  0  0  0
 17 16  2  0  0  0  0
 18 17  1  0  0  0  0
 18 13  2  0  0  0  0
 19 13  1  0  0  0  0
 20 17  1  0  0  0  0
 21 26  2  0  0  0  0
 21 22  1  0  0  0  0
 22 23  2  0  0  0  0
 23 28  1  0  0  0  0
 23 24  1  0  0  0  0
 24 29  1  0  0  0  0
 25 30  1  0  0  0  0
 25 24  2  0  0  0  0
 26 25  1  0  0  0  0
 27 22  1  0  0  0  0
 31 26  1  0  0  0  0
 32 33  1  0  0  0  0
 33 34  2  0  0  0  0
 33  5  1  0  0  0  0
 34 35  1  0  0  0  0
 36 37  1  0  0  0  0
 36 34  1  0  0  0  0
 38 36  2  0  0  0  0
 39 38  1  0  0  0  0
 39 32  2  0  0  0  0
 40 41  2  0  0  0  0
 41 32  1  0  0  0  0
 41 42  1  0  0  0  0
 42 44  1  0  0  0  0
 42 45  1  0  0  0  0
 43 40  1  0  0  0  0
M  END
>  <minimizedAffinity>
-5.4505682

$$$$

 OpenBabel03272509143D

 45 48  0  0  1  0  0  0  0  0999 V2000
   39.7050   23.6290   32.4980 N   0  0  0  0  0  0  0  0  0  0  0  0
   40.9430   23.6380   31.6770 C   0  0  0  0  0  0  0  0  0  0  0  0
   41.9290   22.9660   32.6210 C   0  0  0  0  0  0  0  0  0  0  0  0
   41.5060   23.4480   33.9870 C   0  0  0  0  0  0  0  0  0  0  0  0
   40.1990   24.1750   33.7590 C   0  0  2  0  0  0  0  0  0  0  0  0
   41.1920   24.6780   31.4600 H   0  0  0  0  0  0  0  0  0  0  0  0
   40.7830   23.0820   30.7460 H   0  0  0  0  0  0  0  0  0  0  0  0
   42.9600   23.3380   32.4540 H   0  0  0  0  0  0  0  0  0  0  0  0
   41.8460   21.8650   32.5120 H   0  0  0  0  0  0  0  0  0  0  0  0
   42.2610   24.1050   34.4600 H   0  0  0  0  0  0  0  0  0  0  0  0
   41.3720   22.5710   34.6800 H   0  0  0  0  0  0  0  0  0  0  0  0
   40.4350   25.2360   33.5770 H   0  0  0  0  0  0  0  0  0  0  0  0
   38.1130   21.8480   32.4410 C   0  0  0  0  0  0  0  0  0  0  0  0
   38.3510   23.2450   32.3230 C   0  0  0  0  0  0  0  0  0  0  0  0
   37.2590   24.0640   32.0160 C   0  0  0  0  0  0  0  0  0  0  0  0
   36.0360   23.4940   31.8420 N   0  0  0  0  0  0  0  0  0  0  0  0
   35.8590   22.1590   31.9610 C   0  0  0  0  0  0  0  0  0  0  0  0
   36.8800   21.3490   32.2560 N   0  0  0  0  0  0  0  0  0  0  0  0
   38.8900   21.1380   32.6810 H   0  0  0  0  0  0  0  0  0  0  0  0
   34.8930   21.6740   31.8260 H   0  0  0  0  0  0  0  0  0  0  0  0
   37.3910   25.4910   31.9030 C   0  0  0  0  0  0  0  0  0  0  0  0
   36.7140   26.2960   32.7910 C   0  0  0  0  0  0  0  0  0  0  0  0
   36.7740   27.6730   32.7740 C   0  0  0  0  0  0  0  0  0  0  0  0
   37.5730   28.2330   31.7880 C   0  0  0  0  0  0  0  0  0  0  0  0
   38.2850   27.4910   30.8570 C   0  0  0  0  0  0  0  0  0  0  0  0
   38.1680   26.0940   30.9470 C   0  0  0  0  0  0  0  0  0  0  0  0
   36.0860   25.8460   33.5660 H   0  0  0  0  0  0  0  0  0  0  0  0
   36.2380   28.2980   33.4760 H   0  0  0  0  0  0  0  0  0  0  0  0
   37.6750   29.3070   31.7040 H   0  0  0  0  0  0  0  0  0  0  0  0
   38.9010   27.9570   30.0990 H   0  0  0  0  0  0  0  0  0  0  0  0
   38.7060   25.4790   30.2440 H   0  0  0  0  0  0  0  0  0  0  0  0
   38.8770   25.1620   35.5800 C   0  0  0  0  0  0  0  0  0  0  0  0
   39.2810   24.0050   34.9010 C   0  0  0  0  0  0  0  0  0  0  0  0
   38.7790   22.8340   35.4020 C   0  0  0  0  0  0  0  0  0  0  0  0
   39.0700   21.9300   34.9130 H   0  0  0  0  0  0  0  0  0  0  0  0
   37.9370   22.7610   36.4910 C   0  0  0  0  0  0  0  0  0  0  0  0
   37.5780   21.7900   36.8320 H   0  0  0  0  0  0  0  0  0  0  0  0
   37.5530   23.9130   37.1440 C   0  0  0  0  0  3  0  0  0  0  0  0
   38.0380   25.1120   36.6710 C   0  0  0  0  0  3  0  0  0  0  0  0
   38.9180   27.5600   35.9050 N   0  0  0  0  0  0  0  0  0  0  0  0
   39.2830   26.5160   35.2360 C   0  0  0  0  0  0  0  0  0  0  0  0
   40.0620   27.1600   34.2670 N   0  0  0  0  0  0  0  0  0  0  0  0
   39.2230   28.4990   35.6360 H   0  0  0  0  0  0  0  0  0  0  0  0
   41.0560   26.9380   34.5670 H   0  0  0  0  0  0  0  0  0  0  0  0
   39.7450   27.7210   33.4480 H   0  0  0  0  0  0  0  0  0  0  0  0
  1  5  1  0  0  0  0
  2  1  1  0  0  0  0
  2  3  1  0  0  0  0
  3  4  1  0  0  0  0
  4 10  1  0  0  0  0
  4 11  1  0  0  0  0
  5 12  1  6  0  0  0
  5  4  1  0  0  0  0
  5 33  1  0  0  0  0
  6  2  1  0  0  0  0
  7  2  1  0  0  0  0
  8  3  1  0  0  0  0
  9  3  1  0  0  0  0
 13 19  1  0  0  0  0
 14 13  1  0  0  0  0
 14  1  1  0  0  0  0
 15 14  2  0  0  0  0
 16 17  2  0  0  0  0
 16 15  1  0  0  0  0
 17 18  1  0  0  0  0
 18 13  2  0  0  0  0
 20 17  1  0  0  0  0
 21 15  1  0  0  0  0
 21 22  1  0  0  0  0
 22 27  1  0  0  0  0
 23 22  2  0  0  0  0
 23 28  1  0  0  0  0
 24 23  1  0  0  0  0
 25 26  1  0  0  0  0
 25 24  2  0  0  0  0
 26 21  2  0  0  0  0
 29 24  1  0  0  0  0
 30 25  1  0  0  0  0
 31 26  1  0  0  0  0
 32 39  1  0  0  0  0
 33 34  1  0  0  0  0
 33 32  2  0  0  0  0
 34 36  2  0  0  0  0
 35 34  1  0  0  0  0
 36 37  1  0  0  0  0
 36 38  1  0  0  0  0
 39 38  2  0  0  0  0
 41 32  1  0  0  0  0
 41 40  2  0  0  0  0
 42 44  1  0  0  0  0
 42 41  1  0  0  0  0
 43 40  1  0  0  0  0
 45 42  1  0  0  0  0
M  END
>  <minimizedAffinity>
-5.44962549

$$$$

 OpenBabel03272509143D

 45 48  0  0  1  0  0  0  0  0999 V2000
   39.8530   24.9500   32.0510 N   0  0  0  0  0  0  0  0  0  0  0  0
   40.7380   24.7550   30.8740 C   0  0  0  0  0  0  0  0  0  0  0  0
   41.2690   26.1660   30.6660 C   0  0  0  0  0  0  0  0  0  0  0  0
   40.1020   27.0480   31.0360 C   0  0  0  0  0  0  0  0  0  0  0  0
   39.0730   26.1100   31.6280 C   0  0  2  0  0  0  0  0  0  0  0  0
   40.1220   24.3990   30.0470 H   0  0  0  0  0  0  0  0  0  0  0  0
   41.5220   24.0260   31.1080 H   0  0  0  0  0  0  0  0  0  0  0  0
   41.4900   26.3570   29.5960 H   0  0  0  0  0  0  0  0  0  0  0  0
   42.1500   26.3250   31.3220 H   0  0  0  0  0  0  0  0  0  0  0  0
   39.6960   27.6040   30.1690 H   0  0  0  0  0  0  0  0  0  0  0  0
   40.4280   27.8240   31.7840 H   0  0  0  0  0  0  0  0  0  0  0  0
   38.4190   25.7730   30.8070 H   0  0  0  0  0  0  0  0  0  0  0  0
   40.5810   24.7270   34.3160 C   0  0  0  0  0  0  0  0  0  0  0  0
   39.6550   24.3300   33.3110 C   0  0  0  0  0  0  0  0  0  0  0  0
   38.7010   23.3670   33.6540 C   0  0  0  0  0  0  0  0  0  0  0  0
   38.7030   22.8560   34.9150 N   0  0  0  0  0  0  0  0  0  0  0  0
   39.6050   23.2620   35.8360 C   0  0  0  0  0  0  0  0  0  0  0  0
   40.5290   24.1820   35.5420 N   0  0  0  0  0  0  0  0  0  0  0  0
   41.3480   25.4670   34.1480 H   0  0  0  0  0  0  0  0  0  0  0  0
   39.6330   22.8710   36.8520 H   0  0  0  0  0  0  0  0  0  0  0  0
   37.7060   22.9210   32.7170 C   0  0  0  0  0  0  0  0  0  0  0  0
   37.9200   21.7500   32.0250 C   0  0  0  0  0  0  0  0  0  0  0  0
   37.0310   21.2300   31.1080 C   0  0  0  0  0  0  0  0  0  0  0  0
   35.8710   21.9640   30.9050 C   0  0  0  0  0  0  0  0  0  0  0  0
   35.5830   23.1520   31.5620 C   0  0  0  0  0  0  0  0  0  0  0  0
   36.5430   23.6080   32.4790 C   0  0  0  0  0  0  0  0  0  0  0  0
   38.8370   21.1770   32.1920 H   0  0  0  0  0  0  0  0  0  0  0  0
   37.2070   20.3090   30.5690 H   0  0  0  0  0  0  0  0  0  0  0  0
   35.1210   21.6270   30.2020 H   0  0  0  0  0  0  0  0  0  0  0  0
   34.6690   23.7010   31.3820 H   0  0  0  0  0  0  0  0  0  0  0  0
   36.3600   24.5270   33.0130 H   0  0  0  0  0  0  0  0  0  0  0  0
   37.0580   27.2990   32.3770 C   0  0  0  0  0  0  0  0  0  0  0  0
   38.3080   26.7600   32.7080 C   0  0  0  0  0  0  0  0  0  0  0  0
   38.6820   26.9250   34.0150 C   0  0  0  0  0  0  0  0  0  0  0  0
   39.6340   26.5320   34.3020 H   0  0  0  0  0  0  0  0  0  0  0  0
   37.9120   27.5650   34.9610 C   0  0  0  0  0  0  0  0  0  0  0  0
   38.2790   27.6560   35.9840 H   0  0  0  0  0  0  0  0  0  0  0  0
   36.6850   28.0880   34.6130 C   0  0  0  0  0  3  0  0  0  0  0  0
   36.2720   27.9440   33.3070 C   0  0  0  0  0  3  0  0  0  0  0  0
   36.4780   28.2430   30.2250 N   0  0  0  0  0  0  0  0  0  0  0  0
   36.4520   27.2520   31.0550 C   0  0  0  0  0  0  0  0  0  0  0  0
   35.7400   26.3440   30.2620 N   0  0  0  0  0  0  0  0  0  0  0  0
   36.0420   28.1760   29.3010 H   0  0  0  0  0  0  0  0  0  0  0  0
   36.4870   25.6600   29.9440 H   0  0  0  0  0  0  0  0  0  0  0  0
   34.7220   26.3380   30.0390 H   0  0  0  0  0  0  0  0  0  0  0  0
  1 14  1  0  0  0  0
  2  7  1  0  0  0  0
  2  1  1  0  0  0  0
  3  2  1  0  0  0  0
  3  4  1  0  0  0  0
  3  9  1  0  0  0  0
  4  5  1  0  0  0  0
  4 11  1  0  0  0  0
  5 12  1  6  0  0  0
  5  1  1  0  0  0  0
  5 33  1  0  0  0  0
  6  2  1  0  0  0  0
  8  3  1  0  0  0  0
 10  4  1  0  0  0  0
 13 18  1  0  0  0  0
 14 15  1  0  0  0  0
 14 13  2  0  0  0  0
 15 16  2  0  0  0  0
 16 17  1  0  0  0  0
 17 20  1  0  0  0  0
 18 17  2  0  0  0  0
 19 13  1  0  0  0  0
 21 15  1  0  0  0  0
 22 27  1  0  0  0  0
 22 21  2  0  0  0  0
 23 22  1  0  0  0  0
 24 23  2  0  0  0  0
 24 25  1  0  0  0  0
 25 26  2  0  0  0  0
 26 21  1  0  0  0  0
 26 31  1  0  0  0  0
 28 23  1  0  0  0  0
 29 24  1  0  0  0  0
 30 25  1  0  0  0  0
 32 33  2  0  0  0  0
 32 39  1  0  0  0  0
 33 34  1  0  0  0  0
 34 35  1  0  0  0  0
 34 36  2  0  0  0  0
 36 37  1  0  0  0  0
 38 36  1  0  0  0  0
 39 38  2  0  0  0  0
 40 41  2  0  0  0  0
 41 32  1  0  0  0  0
 42 41  1  0  0  0  0
 43 40  1  0  0  0  0
 44 42  1  0  0  0  0
 45 42  1  0  0  0  0
M  END
>  <minimizedAffinity>
-5.44104433

$$$$
