
 OpenBabel03272506063D

 35 37  0  0  0  0  0  0  0  0999 V2000
   33.4640   28.3210   48.3680 C   0  0  0  0  0  0  0  0  0  0  0  0
   33.6150   28.9450   47.0750 C   0  0  0  0  0  0  0  0  0  0  0  0
   31.9490   28.9050   46.4940 S   0  0  0  0  0  0  0  0  0  0  0  0
   31.2660   28.0730   48.0260 C   0  0  0  0  0  0  0  0  0  0  0  0
   32.2530   27.9520   48.6840 N   0  0  0  0  0  0  0  0  0  0  0  0
   34.5370   29.3130   46.6460 H   0  0  0  0  0  0  0  0  0  0  0  0
   29.3510   26.7030   47.3870 C   0  0  0  0  0  0  0  0  0  0  0  0
   29.8200   27.7920   48.0540 C   0  0  0  0  0  0  0  0  0  0  0  0
   28.9040   28.5740   48.7180 C   0  0  0  0  0  0  0  0  0  0  0  0
   29.2520   29.4460   49.2560 H   0  0  0  0  0  0  0  0  0  0  0  0
   27.5880   28.2410   48.6880 C   0  0  0  0  0  0  0  0  0  0  0  0
   26.9170   28.8930   49.2280 H   0  0  0  0  0  0  0  0  0  0  0  0
   27.1320   27.1410   48.0120 C   0  0  0  0  0  3  0  0  0  0  0  0
   28.0220   26.3380   47.3370 C   0  0  0  0  0  3  0  0  0  0  0  0
   31.2010   24.9760   46.6970 N   0  0  0  0  0  0  0  0  0  0  0  0
   30.2610   25.8480   46.6820 C   0  0  0  0  0  0  0  0  0  0  0  0
   30.2770   25.8120   45.2410 N   0  0  0  0  0  0  0  0  0  0  0  0
   31.5830   24.6070   45.7980 H   0  0  0  0  0  0  0  0  0  0  0  0
   30.8440   26.1540   44.4100 H   0  0  0  0  0  0  0  0  0  0  0  0
   29.4880   25.2830   44.7680 H   0  0  0  0  0  0  0  0  0  0  0  0
   34.6800   28.1510   49.2260 C   0  0  0  0  0  0  0  0  0  0  0  0
   34.6070   27.2140   49.8150 H   0  0  0  0  0  0  0  0  0  0  0  0
   35.5810   27.9960   48.5610 H   0  0  0  0  0  0  0  0  0  0  0  0
   34.8780   29.2950   50.1550 C   0  0  0  0  0  0  0  0  0  0  0  0
   33.9760   29.9020   50.2460 H   0  0  0  0  0  0  0  0  0  0  0  0
   35.1170   28.9410   51.1960 H   0  0  0  0  0  0  0  0  0  0  0  0
   37.2070   32.1380   49.6810 C   0  0  0  0  0  0  0  0  0  0  0  0
   38.0560   31.6940   48.6700 C   0  0  0  0  0  0  0  0  0  0  0  0
   37.8210   30.4090   48.1530 C   0  0  0  0  0  0  0  0  0  0  0  0
   36.7900   29.6880   48.6670 N   0  0  0  0  0  0  0  0  0  0  0  0
   35.9990   30.1800   49.6540 C   0  0  0  0  0  0  0  0  0  0  0  0
   36.2000   31.3980   50.1630 N   0  0  0  0  0  0  0  0  0  0  0  0
   37.3370   33.1090   50.1140 H   0  0  0  0  0  0  0  0  0  0  0  0
   38.8450   32.3410   48.3310 H   0  0  0  0  0  0  0  0  0  0  0  0
   38.4600   30.0420   47.3740 H   0  0  0  0  0  0  0  0  0  0  0  0
  1  5  1  0  0  0  0
  1 21  1  0  0  0  0
  2  1  2  0  0  0  0
  3  2  1  0  0  0  0
  3  4  1  0  0  0  0
  4  8  1  0  0  0  0
  4  5  2  0  0  0  0
  6  2  1  0  0  0  0
  7  8  1  0  0  0  0
  8  9  2  0  0  0  0
  9 10  1  0  0  0  0
 11  9  1  0  0  0  0
 11 12  1  0  0  0  0
 13 11  2  0  0  0  0
 14  7  2  0  0  0  0
 14 13  1  0  0  0  0
 16 15  2  0  0  0  0
 16  7  1  0  0  0  0
 17 16  1  0  0  0  0
 18 15  1  0  0  0  0
 19 17  1  0  0  0  0
 20 17  1  0  0  0  0
 21 22  1  0  0  0  0
 21 24  1  0  0  0  0
 23 21  1  0  0  0  0
 24 25  1  0  0  0  0
 24 26  1  0  0  0  0
 27 33  1  0  0  0  0
 27 32  1  0  0  0  0
 28 27  2  0  0  0  0
 29 30  2  0  0  0  0
 29 28  1  0  0  0  0
 30 31  1  0  0  0  0
 31 24  1  0  0  0  0
 31 32  2  0  0  0  0
 34 28  1  0  0  0  0
 35 29  1  0  0  0  0
M  END
>  <minimizedAffinity>
-5.12561607

>  <minimizedRMSD>
2.12731314

$$$$
