
 OpenBabel03262521033D

 23 24  0  0  0  0  0  0  0  0999 V2000
   39.4860   23.4000   36.8830 C   0  0  0  0  0  0  0  0  0  0  0  0
   39.9020   24.1870   35.8290 C   0  0  0  0  0  0  0  0  0  0  0  0
   41.1570   24.0650   35.2690 C   0  0  0  0  0  0  0  0  0  0  0  0
   41.4240   24.7160   34.4360 H   0  0  0  0  0  0  0  0  0  0  0  0
   42.0410   23.1310   35.7650 C   0  0  0  0  0  0  0  0  0  0  0  0
   43.0360   23.0160   35.3380 H   0  0  0  0  0  0  0  0  0  0  0  0
   41.6310   22.3380   36.8240 C   0  0  0  0  0  3  0  0  0  0  0  0
   40.3710   22.4530   37.3950 C   0  0  0  0  0  3  0  0  0  0  0  0
   38.1740   24.8460   34.2150 C   0  0  0  0  0  0  0  0  0  0  0  0
   38.9550   25.1770   35.3310 C   0  0  0  0  0  0  0  0  0  0  0  0
   38.7750   26.4550   35.8930 C   0  0  0  0  0  0  0  0  0  0  0  0
   37.8650   27.2900   35.3300 N   0  0  0  0  0  0  0  0  0  0  0  0
   37.1300   26.9190   34.2460 C   0  0  0  0  0  0  0  0  0  0  0  0
   37.2850   25.7030   33.6920 N   0  0  0  0  0  0  0  0  0  0  0  0
   38.2790   23.8640   33.7450 H   0  0  0  0  0  0  0  0  0  0  0  0
   39.3790   26.7110   36.7480 H   0  0  0  0  0  0  0  0  0  0  0  0
   36.4530   27.7060   33.9300 H   0  0  0  0  0  0  0  0  0  0  0  0
   37.2330   22.6220   37.1630 N   0  0  0  0  0  0  0  0  0  0  0  0
   38.1880   23.4290   37.5440 C   0  0  0  0  0  0  0  0  0  0  0  0
   37.7720   24.2710   38.6130 N   0  0  0  0  0  0  0  0  0  0  0  0
   37.3430   21.9380   36.4030 H   0  0  0  0  0  0  0  0  0  0  0  0
   36.8300   24.7320   38.6220 H   0  0  0  0  0  0  0  0  0  0  0  0
   37.7450   24.8170   39.5010 H   0  0  0  0  0  0  0  0  0  0  0  0
  1  8  1  0  0  0  0
  1 19  1  0  0  0  0
  2  1  2  0  0  0  0
  3  5  2  0  0  0  0
  3  2  1  0  0  0  0
  4  3  1  0  0  0  0
  5  7  1  0  0  0  0
  6  5  1  0  0  0  0
  7  8  2  0  0  0  0
  9 10  1  0  0  0  0
 10  2  1  0  0  0  0
 10 11  2  0  0  0  0
 11 16  1  0  0  0  0
 12 11  1  0  0  0  0
 13 12  2  0  0  0  0
 14  9  2  0  0  0  0
 14 13  1  0  0  0  0
 15  9  1  0  0  0  0
 17 13  1  0  0  0  0
 18 19  2  0  0  0  0
 19 20  1  0  0  0  0
 20 22  1  0  0  0  0
 20 23  1  0  0  0  0
 21 18  1  0  0  0  0
M  END
>  <minimizedAffinity>
-4.51309824

$$$$

 OpenBabel03262521033D

 23 24  0  0  0  0  0  0  0  0999 V2000
   38.8000   25.8720   34.1680 C   0  0  0  0  0  0  0  0  0  0  0  0
   38.3930   24.5840   34.4480 C   0  0  0  0  0  0  0  0  0  0  0  0
   37.8200   23.7690   33.4930 C   0  0  0  0  0  0  0  0  0  0  0  0
   37.5190   22.7600   33.7780 H   0  0  0  0  0  0  0  0  0  0  0  0
   37.6400   24.2380   32.2100 C   0  0  0  0  0  0  0  0  0  0  0  0
   37.1910   23.6130   31.4400 H   0  0  0  0  0  0  0  0  0  0  0  0
   38.0460   25.5300   31.9220 C   0  0  0  0  0  3  0  0  0  0  0  0
   38.6230   26.3580   32.8760 C   0  0  0  0  0  3  0  0  0  0  0  0
   39.7490   23.4030   36.1190 C   0  0  0  0  0  0  0  0  0  0  0  0
   38.5790   24.1140   35.8150 C   0  0  0  0  0  0  0  0  0  0  0  0
   37.6560   24.3220   36.8580 C   0  0  0  0  0  0  0  0  0  0  0  0
   37.9440   23.8270   38.0890 N   0  0  0  0  0  0  0  0  0  0  0  0
   39.0960   23.1420   38.3320 C   0  0  0  0  0  0  0  0  0  0  0  0
   39.9920   22.9320   37.3510 N   0  0  0  0  0  0  0  0  0  0  0  0
   40.4950   23.2180   35.3410 H   0  0  0  0  0  0  0  0  0  0  0  0
   36.7560   24.8640   36.6230 H   0  0  0  0  0  0  0  0  0  0  0  0
   39.1630   22.8220   39.3660 H   0  0  0  0  0  0  0  0  0  0  0  0
   40.7220   26.9890   35.0750 N   0  0  0  0  0  0  0  0  0  0  0  0
   39.4260   26.8150   35.0850 C   0  0  0  0  0  0  0  0  0  0  0  0
   38.7930   27.6270   36.0680 N   0  0  0  0  0  0  0  0  0  0  0  0
   41.3520   26.4890   34.4340 H   0  0  0  0  0  0  0  0  0  0  0  0
   39.1900   27.7430   37.0320 H   0  0  0  0  0  0  0  0  0  0  0  0
   38.1310   28.2640   36.5600 H   0  0  0  0  0  0  0  0  0  0  0  0
  1  2  1  0  0  0  0
  1 19  1  0  0  0  0
  2 10  1  0  0  0  0
  3  4  1  0  0  0  0
  3  2  2  0  0  0  0
  5  3  1  0  0  0  0
  6  5  1  0  0  0  0
  7  5  2  0  0  0  0
  7  8  1  0  0  0  0
  8  1  2  0  0  0  0
  9 14  1  0  0  0  0
 10  9  2  0  0  0  0
 10 11  1  0  0  0  0
 11 12  2  0  0  0  0
 12 13  1  0  0  0  0
 13 17  1  0  0  0  0
 14 13  2  0  0  0  0
 15  9  1  0  0  0  0
 16 11  1  0  0  0  0
 18 19  2  0  0  0  0
 19 20  1  0  0  0  0
 20 23  1  0  0  0  0
 20 22  1  0  0  0  0
 21 18  1  0  0  0  0
M  END
>  <minimizedAffinity>
-4.49084806

$$$$

 OpenBabel03262521033D

 23 24  0  0  0  0  0  0  0  0999 V2000
   39.0430   24.2930   36.2990 C   0  0  0  0  0  0  0  0  0  0  0  0
   40.1860   24.4780   35.5490 C   0  0  0  0  0  0  0  0  0  0  0  0
   40.4680   25.6740   34.9200 C   0  0  0  0  0  0  0  0  0  0  0  0
   41.3890   25.7570   34.3420 H   0  0  0  0  0  0  0  0  0  0  0  0
   39.5920   26.7320   35.0330 C   0  0  0  0  0  0  0  0  0  0  0  0
   39.7940   27.6850   34.5470 H   0  0  0  0  0  0  0  0  0  0  0  0
   38.4420   26.5520   35.7850 C   0  0  0  0  0  3  0  0  0  0  0  0
   38.1490   25.3530   36.4200 C   0  0  0  0  0  3  0  0  0  0  0  0
   42.1400   23.2300   36.3530 C   0  0  0  0  0  0  0  0  0  0  0  0
   41.0910   23.3420   35.4310 C   0  0  0  0  0  0  0  0  0  0  0  0
   40.9860   22.3440   34.4430 C   0  0  0  0  0  0  0  0  0  0  0  0
   41.8980   21.3390   34.4360 N   0  0  0  0  0  0  0  0  0  0  0  0
   42.9000   21.2760   35.3560 C   0  0  0  0  0  0  0  0  0  0  0  0
   43.0190   22.2180   36.3090 N   0  0  0  0  0  0  0  0  0  0  0  0
   42.2610   23.9820   37.1390 H   0  0  0  0  0  0  0  0  0  0  0  0
   40.1830   22.4330   33.7310 H   0  0  0  0  0  0  0  0  0  0  0  0
   43.5340   20.4090   35.2030 H   0  0  0  0  0  0  0  0  0  0  0  0
   37.7820   22.2590   36.4920 N   0  0  0  0  0  0  0  0  0  0  0  0
   38.6480   23.0870   37.0150 C   0  0  0  0  0  0  0  0  0  0  0  0
   39.0890   22.6490   38.2950 N   0  0  0  0  0  0  0  0  0  0  0  0
   37.3490   22.4050   35.5700 H   0  0  0  0  0  0  0  0  0  0  0  0
   38.4250   22.2600   39.0080 H   0  0  0  0  0  0  0  0  0  0  0  0
   39.6810   22.4160   39.1200 H   0  0  0  0  0  0  0  0  0  0  0  0
  1  8  1  0  0  0  0
  1 19  1  0  0  0  0
  2  1  2  0  0  0  0
  3  5  2  0  0  0  0
  3  2  1  0  0  0  0
  4  3  1  0  0  0  0
  5  7  1  0  0  0  0
  6  5  1  0  0  0  0
  7  8  2  0  0  0  0
  9 15  1  0  0  0  0
 10  2  1  0  0  0  0
 10  9  2  0  0  0  0
 11 10  1  0  0  0  0
 12 11  2  0  0  0  0
 12 13  1  0  0  0  0
 13 14  2  0  0  0  0
 14  9  1  0  0  0  0
 16 11  1  0  0  0  0
 17 13  1  0  0  0  0
 18 19  2  0  0  0  0
 19 20  1  0  0  0  0
 20 22  1  0  0  0  0
 20 23  1  0  0  0  0
 21 18  1  0  0  0  0
M  END
>  <minimizedAffinity>
-4.45162535

$$$$

 OpenBabel03262521033D

 23 24  0  0  0  0  0  0  0  0999 V2000
   38.6270   25.2940   36.1780 C   0  0  0  0  0  0  0  0  0  0  0  0
   39.6660   24.6420   35.5470 C   0  0  0  0  0  0  0  0  0  0  0  0
   40.1210   23.4070   35.9610 C   0  0  0  0  0  0  0  0  0  0  0  0
   40.9460   22.9430   35.4190 H   0  0  0  0  0  0  0  0  0  0  0  0
   39.5310   22.7860   37.0410 C   0  0  0  0  0  0  0  0  0  0  0  0
   39.8720   21.8120   37.3860 H   0  0  0  0  0  0  0  0  0  0  0  0
   38.4870   23.4360   37.6810 C   0  0  0  0  0  3  0  0  0  0  0  0
   38.0230   24.6790   37.2710 C   0  0  0  0  0  3  0  0  0  0  0  0
   41.3670   26.1770   34.6660 C   0  0  0  0  0  0  0  0  0  0  0  0
   40.2840   25.3230   34.4160 C   0  0  0  0  0  0  0  0  0  0  0  0
   39.8610   25.1860   33.0800 C   0  0  0  0  0  0  0  0  0  0  0  0
   40.5170   25.8810   32.1160 N   0  0  0  0  0  0  0  0  0  0  0  0
   41.5640   26.6980   32.4130 C   0  0  0  0  0  0  0  0  0  0  0  0
   41.9860   26.8440   33.6810 N   0  0  0  0  0  0  0  0  0  0  0  0
   41.7310   26.3140   35.6890 H   0  0  0  0  0  0  0  0  0  0  0  0
   39.0250   24.5340   32.8880 H   0  0  0  0  0  0  0  0  0  0  0  0
   41.9690   27.1730   31.5250 H   0  0  0  0  0  0  0  0  0  0  0  0
   38.5350   27.6870   36.3400 N   0  0  0  0  0  0  0  0  0  0  0  0
   38.0550   26.5860   35.8230 C   0  0  0  0  0  0  0  0  0  0  0  0
   36.9690   26.8470   34.9420 N   0  0  0  0  0  0  0  0  0  0  0  0
   39.3230   27.7030   37.0000 H   0  0  0  0  0  0  0  0  0  0  0  0
   36.2170   27.5400   35.1770 H   0  0  0  0  0  0  0  0  0  0  0  0
   36.3170   26.8290   34.1290 H   0  0  0  0  0  0  0  0  0  0  0  0
  1  8  1  0  0  0  0
  2  3  1  0  0  0  0
  2  1  2  0  0  0  0
  3  5  2  0  0  0  0
  4  3  1  0  0  0  0
  5  6  1  0  0  0  0
  5  7  1  0  0  0  0
  8  7  2  0  0  0  0
  9 15  1  0  0  0  0
 10  9  1  0  0  0  0
 10  2  1  0  0  0  0
 11 10  2  0  0  0  0
 12 13  2  0  0  0  0
 12 11  1  0  0  0  0
 13 14  1  0  0  0  0
 14  9  2  0  0  0  0
 16 11  1  0  0  0  0
 17 13  1  0  0  0  0
 18 21  1  0  0  0  0
 19  1  1  0  0  0  0
 19 18  2  0  0  0  0
 20 22  1  0  0  0  0
 20 19  1  0  0  0  0
 23 20  1  0  0  0  0
M  END
>  <minimizedAffinity>
-4.27033329

$$$$

 OpenBabel03262521033D

 23 24  0  0  0  0  0  0  0  0999 V2000
   40.7500   23.1430   36.3530 C   0  0  0  0  0  0  0  0  0  0  0  0
   40.8770   24.1280   35.3960 C   0  0  0  0  0  0  0  0  0  0  0  0
   42.1050   24.5360   34.9170 C   0  0  0  0  0  0  0  0  0  0  0  0
   42.1380   25.3200   34.1590 H   0  0  0  0  0  0  0  0  0  0  0  0
   43.2570   23.9520   35.3980 C   0  0  0  0  0  0  0  0  0  0  0  0
   44.2370   24.2560   35.0340 H   0  0  0  0  0  0  0  0  0  0  0  0
   43.1370   22.9620   36.3590 C   0  0  0  0  0  3  0  0  0  0  0  0
   41.9060   22.5450   36.8480 C   0  0  0  0  0  3  0  0  0  0  0  0
   39.0860   25.7870   35.6620 C   0  0  0  0  0  0  0  0  0  0  0  0
   39.6470   24.7420   34.9130 C   0  0  0  0  0  0  0  0  0  0  0  0
   38.9740   24.3520   33.7380 C   0  0  0  0  0  0  0  0  0  0  0  0
   37.8300   25.0000   33.4000 N   0  0  0  0  0  0  0  0  0  0  0  0
   37.3280   26.0090   34.1620 C   0  0  0  0  0  0  0  0  0  0  0  0
   37.9530   26.3990   35.2870 N   0  0  0  0  0  0  0  0  0  0  0  0
   39.5750   26.1240   36.5800 H   0  0  0  0  0  0  0  0  0  0  0  0
   39.4020   23.5470   33.1660 H   0  0  0  0  0  0  0  0  0  0  0  0
   36.4120   26.4130   33.7440 H   0  0  0  0  0  0  0  0  0  0  0  0
   39.2410   22.7970   38.1880 N   0  0  0  0  0  0  0  0  0  0  0  0
   39.5130   22.6230   36.9210 C   0  0  0  0  0  0  0  0  0  0  0  0
   38.4870   21.8940   36.2570 N   0  0  0  0  0  0  0  0  0  0  0  0
   39.8640   23.3010   38.8330 H   0  0  0  0  0  0  0  0  0  0  0  0
   38.0350   21.0520   36.6890 H   0  0  0  0  0  0  0  0  0  0  0  0
   37.7850   21.5720   35.5570 H   0  0  0  0  0  0  0  0  0  0  0  0
  1  8  1  0  0  0  0
  1 19  1  0  0  0  0
  2  1  2  0  0  0  0
  3  2  1  0  0  0  0
  3  5  2  0  0  0  0
  4  3  1  0  0  0  0
  5  7  1  0  0  0  0
  6  5  1  0  0  0  0
  7  8  2  0  0  0  0
  9 15  1  0  0  0  0
 10  2  1  0  0  0  0
 10  9  2  0  0  0  0
 11 10  1  0  0  0  0
 12 11  2  0  0  0  0
 12 13  1  0  0  0  0
 13 14  2  0  0  0  0
 14  9  1  0  0  0  0
 16 11  1  0  0  0  0
 17 13  1  0  0  0  0
 18 21  1  0  0  0  0
 19 18  2  0  0  0  0
 20 22  1  0  0  0  0
 20 19  1  0  0  0  0
 23 20  1  0  0  0  0
M  END
>  <minimizedAffinity>
-4.25643539

$$$$

 OpenBabel03262521033D

 23 24  0  0  0  0  0  0  0  0999 V2000
   39.8580   26.1200   35.0070 C   0  0  0  0  0  0  0  0  0  0  0  0
   40.1500   24.7990   35.2800 C   0  0  0  0  0  0  0  0  0  0  0  0
   41.3880   24.2490   35.0180 C   0  0  0  0  0  0  0  0  0  0  0  0
   41.5550   23.1980   35.2580 H   0  0  0  0  0  0  0  0  0  0  0  0
   42.3810   25.0280   34.4660 C   0  0  0  0  0  0  0  0  0  0  0  0
   43.3660   24.6160   34.2510 H   0  0  0  0  0  0  0  0  0  0  0  0
   42.0950   26.3550   34.1890 C   0  0  0  0  0  3  0  0  0  0  0  0
   40.8530   26.9180   34.4480 C   0  0  0  0  0  3  0  0  0  0  0  0
   38.4790   23.0170   35.0410 C   0  0  0  0  0  0  0  0  0  0  0  0
   39.0800   23.9910   35.8510 C   0  0  0  0  0  0  0  0  0  0  0  0
   38.6000   24.1250   37.1680 C   0  0  0  0  0  0  0  0  0  0  0  0
   37.5920   23.3140   37.5780 N   0  0  0  0  0  0  0  0  0  0  0  0
   37.0420   22.3840   36.7510 C   0  0  0  0  0  0  0  0  0  0  0  0
   37.4840   22.2370   35.4890 N   0  0  0  0  0  0  0  0  0  0  0  0
   38.8180   22.8760   34.0100 H   0  0  0  0  0  0  0  0  0  0  0  0
   39.0600   24.8760   37.7880 H   0  0  0  0  0  0  0  0  0  0  0  0
   36.2520   21.8250   37.2420 H   0  0  0  0  0  0  0  0  0  0  0  0
   38.4990   27.6850   36.2190 N   0  0  0  0  0  0  0  0  0  0  0  0
   38.5990   26.8110   35.2510 C   0  0  0  0  0  0  0  0  0  0  0  0
   37.3700   26.6590   34.5490 N   0  0  0  0  0  0  0  0  0  0  0  0
   39.2830   27.9300   36.8390 H   0  0  0  0  0  0  0  0  0  0  0  0
   36.4500   26.6020   35.0480 H   0  0  0  0  0  0  0  0  0  0  0  0
   36.6590   26.5520   33.7950 H   0  0  0  0  0  0  0  0  0  0  0  0
  1 19  1  0  0  0  0
  1  2  1  0  0  0  0
  2 10  1  0  0  0  0
  3  4  1  0  0  0  0
  3  2  2  0  0  0  0
  5  3  1  0  0  0  0
  6  5  1  0  0  0  0
  7  8  1  0  0  0  0
  7  5  2  0  0  0  0
  8  1  2  0  0  0  0
  9 14  2  0  0  0  0
  9 10  1  0  0  0  0
 10 11  2  0  0  0  0
 11 12  1  0  0  0  0
 11 16  1  0  0  0  0
 13 17  1  0  0  0  0
 13 12  2  0  0  0  0
 14 13  1  0  0  0  0
 15  9  1  0  0  0  0
 18 21  1  0  0  0  0
 19 18  2  0  0  0  0
 20 22  1  0  0  0  0
 20 19  1  0  0  0  0
 23 20  1  0  0  0  0
M  END
>  <minimizedAffinity>
-4.24995279

$$$$

 OpenBabel03262521033D

 23 24  0  0  0  0  0  0  0  0999 V2000
   38.0530   25.3430   35.6680 C   0  0  0  0  0  0  0  0  0  0  0  0
   38.2460   24.4470   34.6370 C   0  0  0  0  0  0  0  0  0  0  0  0
   38.3550   23.0880   34.8530 C   0  0  0  0  0  0  0  0  0  0  0  0
   38.5070   22.4320   33.9950 H   0  0  0  0  0  0  0  0  0  0  0  0
   38.2720   22.5890   36.1350 C   0  0  0  0  0  0  0  0  0  0  0  0
   38.3550   21.5210   36.3290 H   0  0  0  0  0  0  0  0  0  0  0  0
   38.0790   23.4840   37.1750 C   0  0  0  0  0  3  0  0  0  0  0  0
   37.9680   24.8520   36.9680 C   0  0  0  0  0  3  0  0  0  0  0  0
   37.2120   24.9490   32.4680 C   0  0  0  0  0  0  0  0  0  0  0  0
   38.3450   24.9990   33.2920 C   0  0  0  0  0  0  0  0  0  0  0  0
   39.5120   25.5780   32.7560 C   0  0  0  0  0  0  0  0  0  0  0  0
   39.4770   26.0500   31.4840 N   0  0  0  0  0  0  0  0  0  0  0  0
   38.3500   25.9770   30.7250 C   0  0  0  0  0  0  0  0  0  0  0  0
   37.2240   25.4290   31.2150 N   0  0  0  0  0  0  0  0  0  0  0  0
   36.2830   24.5080   32.8410 H   0  0  0  0  0  0  0  0  0  0  0  0
   40.3830   25.6120   33.3880 H   0  0  0  0  0  0  0  0  0  0  0  0
   38.5010   26.4020   29.7380 H   0  0  0  0  0  0  0  0  0  0  0  0
   38.7940   27.5850   36.1010 N   0  0  0  0  0  0  0  0  0  0  0  0
   37.9090   26.7890   35.5600 C   0  0  0  0  0  0  0  0  0  0  0  0
   36.8700   27.5170   34.9160 N   0  0  0  0  0  0  0  0  0  0  0  0
   39.6200   27.2450   36.6120 H   0  0  0  0  0  0  0  0  0  0  0  0
   36.4330   28.3650   35.3530 H   0  0  0  0  0  0  0  0  0  0  0  0
   36.1510   27.8360   34.2320 H   0  0  0  0  0  0  0  0  0  0  0  0
  1  8  1  0  0  0  0
  2  3  1  0  0  0  0
  2  1  2  0  0  0  0
  3  5  2  0  0  0  0
  4  3  1  0  0  0  0
  5  6  1  0  0  0  0
  5  7  1  0  0  0  0
  8  7  2  0  0  0  0
  9 15  1  0  0  0  0
  9 10  1  0  0  0  0
 10  2  1  0  0  0  0
 11 10  2  0  0  0  0
 11 16  1  0  0  0  0
 12 11  1  0  0  0  0
 13 14  1  0  0  0  0
 13 12  2  0  0  0  0
 14  9  2  0  0  0  0
 17 13  1  0  0  0  0
 18 21  1  0  0  0  0
 19  1  1  0  0  0  0
 19 18  2  0  0  0  0
 20 22  1  0  0  0  0
 20 19  1  0  0  0  0
 23 20  1  0  0  0  0
M  END
>  <minimizedAffinity>
-4.16932583

$$$$

 OpenBabel03262521033D

 23 24  0  0  0  0  0  0  0  0999 V2000
   39.7800   26.9350   34.0700 C   0  0  0  0  0  0  0  0  0  0  0  0
   39.5180   27.0450   32.7210 C   0  0  0  0  0  0  0  0  0  0  0  0
   40.5200   27.2240   31.7890 C   0  0  0  0  0  0  0  0  0  0  0  0
   40.2480   27.3040   30.7350 H   0  0  0  0  0  0  0  0  0  0  0  0
   41.8330   27.2990   32.2000 C   0  0  0  0  0  0  0  0  0  0  0  0
   42.6410   27.4390   31.4830 H   0  0  0  0  0  0  0  0  0  0  0  0
   42.1030   27.1900   33.5540 C   0  0  0  0  0  3  0  0  0  0  0  0
   41.1020   27.0090   34.5000 C   0  0  0  0  0  3  0  0  0  0  0  0
   37.6240   25.7520   31.8450 C   0  0  0  0  0  0  0  0  0  0  0  0
   38.1220   26.9770   32.3100 C   0  0  0  0  0  0  0  0  0  0  0  0
   37.2320   28.0690   32.3430 C   0  0  0  0  0  0  0  0  0  0  0  0
   35.9540   27.8780   31.9260 N   0  0  0  0  0  0  0  0  0  0  0  0
   35.5210   26.6660   31.4830 C   0  0  0  0  0  0  0  0  0  0  0  0
   36.3520   25.6100   31.4440 N   0  0  0  0  0  0  0  0  0  0  0  0
   38.2780   24.8760   31.8030 H   0  0  0  0  0  0  0  0  0  0  0  0
   37.6160   29.0110   32.6960 H   0  0  0  0  0  0  0  0  0  0  0  0
   34.4760   26.6940   31.1920 H   0  0  0  0  0  0  0  0  0  0  0  0
   38.5380   27.6940   35.9790 N   0  0  0  0  0  0  0  0  0  0  0  0
   38.8110   26.7300   35.1390 C   0  0  0  0  0  0  0  0  0  0  0  0
   38.0710   25.5500   35.4330 N   0  0  0  0  0  0  0  0  0  0  0  0
   38.9730   28.6250   35.9300 H   0  0  0  0  0  0  0  0  0  0  0  0
   37.9460   25.2030   36.4150 H   0  0  0  0  0  0  0  0  0  0  0  0
   37.4980   24.6840   35.3440 H   0  0  0  0  0  0  0  0  0  0  0  0
  1  8  1  0  0  0  0
  1 19  1  0  0  0  0
  2  1  2  0  0  0  0
  3  5  2  0  0  0  0
  3  2  1  0  0  0  0
  4  3  1  0  0  0  0
  5  7  1  0  0  0  0
  6  5  1  0  0  0  0
  7  8  2  0  0  0  0
  9 10  1  0  0  0  0
 10 11  2  0  0  0  0
 10  2  1  0  0  0  0
 11 16  1  0  0  0  0
 12 11  1  0  0  0  0
 13 12  2  0  0  0  0
 14 13  1  0  0  0  0
 14  9  2  0  0  0  0
 15  9  1  0  0  0  0
 17 13  1  0  0  0  0
 19 20  1  0  0  0  0
 19 18  2  0  0  0  0
 20 22  1  0  0  0  0
 21 18  1  0  0  0  0
 23 20  1  0  0  0  0
M  END
>  <minimizedAffinity>
-4.11717367

$$$$

 OpenBabel03262521033D

 23 24  0  0  0  0  0  0  0  0999 V2000
   33.4070   30.8200   35.3230 C   0  0  0  0  0  0  0  0  0  0  0  0
   34.7780   30.9170   35.2070 C   0  0  0  0  0  0  0  0  0  0  0  0
   35.5360   31.6960   36.0570 C   0  0  0  0  0  0  0  0  0  0  0  0
   36.6160   31.7300   35.9130 H   0  0  0  0  0  0  0  0  0  0  0  0
   34.9210   32.4100   37.0640 C   0  0  0  0  0  0  0  0  0  0  0  0
   35.4980   33.0300   37.7470 H   0  0  0  0  0  0  0  0  0  0  0  0
   33.5440   32.3170   37.1850 C   0  0  0  0  0  3  0  0  0  0  0  0
   32.7730   31.5370   36.3350 C   0  0  0  0  0  3  0  0  0  0  0  0
   35.6020   30.8090   32.8970 C   0  0  0  0  0  0  0  0  0  0  0  0
   35.4040   30.1660   34.1270 C   0  0  0  0  0  0  0  0  0  0  0  0
   35.8230   28.8250   34.2320 C   0  0  0  0  0  0  0  0  0  0  0  0
   36.3880   28.2340   33.1490 N   0  0  0  0  0  0  0  0  0  0  0  0
   36.5580   28.9040   31.9770 C   0  0  0  0  0  0  0  0  0  0  0  0
   36.1660   30.1850   31.8530 N   0  0  0  0  0  0  0  0  0  0  0  0
   35.2940   31.8510   32.7690 H   0  0  0  0  0  0  0  0  0  0  0  0
   35.6660   28.3290   35.1760 H   0  0  0  0  0  0  0  0  0  0  0  0
   37.0250   28.2820   31.2200 H   0  0  0  0  0  0  0  0  0  0  0  0
   32.0700   28.8670   34.9200 N   0  0  0  0  0  0  0  0  0  0  0  0
   32.5090   30.0240   34.4970 C   0  0  0  0  0  0  0  0  0  0  0  0
   32.0090   30.3350   33.2010 N   0  0  0  0  0  0  0  0  0  0  0  0
   32.3210   28.4700   35.8350 H   0  0  0  0  0  0  0  0  0  0  0  0
   31.9650   29.6180   32.4370 H   0  0  0  0  0  0  0  0  0  0  0  0
   31.6080   30.8370   32.3810 H   0  0  0  0  0  0  0  0  0  0  0  0
  1  8  1  0  0  0  0
  2  1  2  0  0  0  0
  2  3  1  0  0  0  0
  3  5  2  0  0  0  0
  4  3  1  0  0  0  0
  5  7  1  0  0  0  0
  5  6  1  0  0  0  0
  8  7  2  0  0  0  0
  9 10  1  0  0  0  0
 10 11  2  0  0  0  0
 10  2  1  0  0  0  0
 11 16  1  0  0  0  0
 12 11  1  0  0  0  0
 13 12  2  0  0  0  0
 14 13  1  0  0  0  0
 14  9  2  0  0  0  0
 15  9  1  0  0  0  0
 17 13  1  0  0  0  0
 18 21  1  0  0  0  0
 19 18  2  0  0  0  0
 19  1  1  0  0  0  0
 20 19  1  0  0  0  0
 22 20  1  0  0  0  0
 23 20  1  0  0  0  0
M  END
>  <minimizedAffinity>
-4.10217619

$$$$
