
 OpenBabel03262523133D

 34 36  0  0  0  0  0  0  0  0999 V2000
   34.9420   29.3880   48.3620 C   0  0  0  0  0  0  0  0  0  0  0  0
   34.5630   28.1360   48.8130 C   0  0  0  0  0  0  0  0  0  0  0  0
   33.4830   27.6100   48.1580 C   0  0  0  0  0  0  0  0  0  0  0  0
   32.8250   28.2750   47.1320 C   0  0  0  0  0  0  0  0  0  0  0  0
   33.2690   29.5220   46.7450 C   0  0  0  0  0  0  0  0  0  0  0  0
   34.3290   30.0620   47.3720 N   0  0  0  0  0  0  0  0  0  0  0  0
   35.1060   27.6690   49.6080 H   0  0  0  0  0  0  0  0  0  0  0  0
   33.2080   26.6090   48.5420 H   0  0  0  0  0  0  0  0  0  0  0  0
   32.0200   27.6780   46.7750 H   0  0  0  0  0  0  0  0  0  0  0  0
   37.5890   30.2300   50.7800 C   0  0  0  0  0  0  0  0  0  0  0  0
   38.2500   31.2830   50.1380 C   0  0  0  0  0  0  0  0  0  0  0  0
   37.7860   31.6910   48.8950 C   0  0  0  0  0  0  0  0  0  0  0  0
   36.7180   31.0420   48.3800 N   0  0  0  0  0  0  0  0  0  0  0  0
   36.0890   30.0430   48.9880 C   0  0  0  0  0  0  0  0  0  0  0  0
   36.5530   29.6530   50.2030 N   0  0  0  0  0  0  0  0  0  0  0  0
   39.0940   31.7320   50.6410 H   0  0  0  0  0  0  0  0  0  0  0  0
   38.2930   32.5100   48.3870 H   0  0  0  0  0  0  0  0  0  0  0  0
   37.9800   29.7250   52.0630 N   0  0  0  0  0  0  0  0  0  0  0  0
   37.5900   29.8690   53.0160 H   0  0  0  0  0  0  0  0  0  0  0  0
   38.7970   29.1530   51.7540 H   0  0  0  0  0  0  0  0  0  0  0  0
   33.0980   30.6350   44.5120 C   0  0  0  0  0  0  0  0  0  0  0  0
   32.5320   30.1630   45.6710 C   0  0  0  0  0  0  0  0  0  0  0  0
   31.1740   30.3570   45.7170 C   0  0  0  0  0  0  0  0  0  0  0  0
   30.5660   30.0500   46.5460 H   0  0  0  0  0  0  0  0  0  0  0  0
   30.4510   30.9620   44.7140 C   0  0  0  0  0  0  0  0  0  0  0  0
   29.3880   31.1090   44.7650 H   0  0  0  0  0  0  0  0  0  0  0  0
   31.0710   31.4170   43.5750 C   0  0  0  0  0  3  0  0  0  0  0  0
   32.4320   31.2430   43.4800 C   0  0  0  0  0  3  0  0  0  0  0  0
   35.7250   30.8810   44.4910 N   0  0  0  0  0  0  0  0  0  0  0  0
   34.5240   30.5430   44.2890 C   0  0  0  0  0  0  0  0  0  0  0  0
   35.0720   29.5930   43.3490 N   0  0  0  0  0  0  0  0  0  0  0  0
   36.4590   30.3800   43.9530 H   0  0  0  0  0  0  0  0  0  0  0  0
   35.5790   28.7530   43.0160 H   0  0  0  0  0  0  0  0  0  0  0  0
   34.9530   29.7030   42.3150 H   0  0  0  0  0  0  0  0  0  0  0  0
  1  2  1  0  0  0  0
  1 14  1  0  0  0  0
  2  7  1  0  0  0  0
  3  8  1  0  0  0  0
  3  2  2  0  0  0  0
  4  3  1  0  0  0  0
  5  4  2  0  0  0  0
  5  6  1  0  0  0  0
  6  1  2  0  0  0  0
  9  4  1  0  0  0  0
 10 18  1  0  0  0  0
 11 16  1  0  0  0  0
 11 10  2  0  0  0  0
 12 11  1  0  0  0  0
 13 12  2  0  0  0  0
 13 14  1  0  0  0  0
 14 15  2  0  0  0  0
 15 10  1  0  0  0  0
 17 12  1  0  0  0  0
 18 19  1  0  0  0  0
 20 18  1  0  0  0  0
 21 22  1  0  0  0  0
 22 23  2  0  0  0  0
 22  5  1  0  0  0  0
 23 24  1  0  0  0  0
 25 26  1  0  0  0  0
 25 23  1  0  0  0  0
 27 25  2  0  0  0  0
 28 27  1  0  0  0  0
 28 21  2  0  0  0  0
 30 29  2  0  0  0  0
 30 21  1  0  0  0  0
 31 30  1  0  0  0  0
 32 29  1  0  0  0  0
 33 31  1  0  0  0  0
 34 31  1  0  0  0  0
M  END
>  <minimizedAffinity>
-5.56027985

>  <minimizedRMSD>
1.11685419

$$$$
