
 OpenBabel03272505133D

 44 47  0  0  0  0  0  0  0  0999 V2000
   33.7890   29.1880   44.5300 Cl  0  0  0  0  0  0  0  0  0  0  0  0
   33.8230   27.9730   45.7950 C   0  0  0  0  0  0  0  0  0  0  0  0
   33.9460   28.2240   47.1540 C   0  0  0  0  0  0  0  0  0  0  0  0
   33.9580   27.1810   48.0380 C   0  0  0  0  0  0  0  0  0  0  0  0
   33.8520   25.8970   47.6070 C   0  0  0  0  0  0  0  0  0  0  0  0
   33.7250   25.5820   46.2580 C   0  0  0  0  0  0  0  0  0  0  0  0
   33.7150   26.6440   45.3760 C   0  0  0  0  0  0  0  0  0  0  0  0
   34.0580   27.4910   49.0720 H   0  0  0  0  0  0  0  0  0  0  0  0
   33.8660   25.0960   48.3480 H   0  0  0  0  0  0  0  0  0  0  0  0
   33.6440   24.5570   45.9520 H   0  0  0  0  0  0  0  0  0  0  0  0
   32.4050   26.1190   43.2670 C   0  0  0  0  0  0  0  0  0  0  0  0
   33.5800   26.2570   43.9720 C   0  0  0  0  0  0  0  0  0  0  0  0
   34.7890   26.0140   43.3290 C   0  0  0  0  0  0  0  0  0  0  0  0
   35.8000   26.0770   43.7370 H   0  0  0  0  0  0  0  0  0  0  0  0
   34.7960   25.6390   41.9960 C   0  0  0  0  0  0  0  0  0  0  0  0
   35.7030   25.4300   41.4180 H   0  0  0  0  0  0  0  0  0  0  0  0
   33.6310   25.4950   41.2690 C   0  0  0  0  0  3  0  0  0  0  0  0
   32.4480   25.7420   41.9330 C   0  0  0  0  0  3  0  0  0  0  0  0
   30.7080   27.5880   44.0120 N   0  0  0  0  0  0  0  0  0  0  0  0
   31.1800   26.3870   43.9950 C   0  0  0  0  0  0  0  0  0  0  0  0
   30.5790   25.2680   44.6520 N   0  0  0  0  0  0  0  0  0  0  0  0
   29.8170   27.7310   44.5550 H   0  0  0  0  0  0  0  0  0  0  0  0
   30.1230   24.7960   43.8250 H   0  0  0  0  0  0  0  0  0  0  0  0
   30.3440   24.6690   45.4740 H   0  0  0  0  0  0  0  0  0  0  0  0
   34.0750   29.9630   47.5610 S   0  0  0  0  0  0  0  0  0  0  0  0
   36.4100   30.9030   45.7350 Cl  0  0  0  0  0  0  0  0  0  0  0  0
   36.7070   30.7880   47.4380 C   0  0  0  0  0  0  0  0  0  0  0  0
   37.9650   31.1210   47.8930 C   0  0  0  0  0  0  0  0  0  0  0  0
   38.2060   31.0300   49.2560 C   0  0  0  0  0  0  0  0  0  0  0  0
   37.2180   30.6240   50.0980 C   0  0  0  0  0  0  0  0  0  0  0  0
   35.9630   30.3010   49.5780 C   0  0  0  0  0  0  0  0  0  0  0  0
   35.6560   30.3670   48.2480 C   0  0  0  0  0  0  0  0  0  0  0  0
   39.1950   31.2910   49.6140 H   0  0  0  0  0  0  0  0  0  0  0  0
   37.4320   30.5610   51.1590 H   0  0  0  0  0  0  0  0  0  0  0  0
   35.1930   29.9790   50.2730 H   0  0  0  0  0  0  0  0  0  0  0  0
   40.2230   33.3240   46.0690 C   0  0  0  0  0  0  0  0  0  0  0  0
   40.9220   32.4620   45.2010 C   0  0  0  0  0  0  0  0  0  0  0  0
   40.5970   31.0960   45.2590 C   0  0  0  0  0  0  0  0  0  0  0  0
   39.6380   30.6830   46.1360 N   0  0  0  0  0  0  0  0  0  0  0  0
   39.0040   31.5560   46.9400 C   0  0  0  0  0  0  0  0  0  0  0  0
   39.2940   32.8570   46.9040 N   0  0  0  0  0  0  0  0  0  0  0  0
   40.4350   34.3890   46.0650 H   0  0  0  0  0  0  0  0  0  0  0  0
   41.6770   32.8570   44.5250 H   0  0  0  0  0  0  0  0  0  0  0  0
   41.1040   30.4040   44.6160 H   0  0  0  0  0  0  0  0  0  0  0  0
  1  2  1  0  0  0  0
  2  3  1  0  0  0  0
  3 25  1  0  0  0  0
  3  4  2  0  0  0  0
  4  8  1  0  0  0  0
  5  4  1  0  0  0  0
  5  9  1  0  0  0  0
  6  5  2  0  0  0  0
  7  2  2  0  0  0  0
  7  6  1  0  0  0  0
 10  6  1  0  0  0  0
 11 12  1  0  0  0  0
 11 20  1  0  0  0  0
 12  7  1  0  0  0  0
 13 14  1  0  0  0  0
 13 12  2  0  0  0  0
 15 13  1  0  0  0  0
 16 15  1  0  0  0  0
 17 18  1  0  0  0  0
 17 15  2  0  0  0  0
 18 11  2  0  0  0  0
 19 22  1  0  0  0  0
 20 19  2  0  0  0  0
 20 21  1  0  0  0  0
 21 24  1  0  0  0  0
 23 21  1  0  0  0  0
 25 32  1  0  0  0  0
 26 27  1  0  0  0  0
 27 28  2  0  0  0  0
 27 32  1  0  0  0  0
 28 29  1  0  0  0  0
 29 33  1  0  0  0  0
 29 30  2  0  0  0  0
 30 34  1  0  0  0  0
 31 30  1  0  0  0  0
 31 35  1  0  0  0  0
 32 31  2  0  0  0  0
 36 41  1  0  0  0  0
 37 38  1  0  0  0  0
 37 36  2  0  0  0  0
 38 39  2  0  0  0  0
 39 40  1  0  0  0  0
 40 28  1  0  0  0  0
 41 40  2  0  0  0  0
 42 36  1  0  0  0  0
 43 37  1  0  0  0  0
 44 38  1  0  0  0  0
M  END
>  <minimizedAffinity>
-5.56428432

>  <minimizedRMSD>
1.23904598

$$$$
