
 OpenBabel03262523133D

 34 36  0  0  0  0  0  0  0  0999 V2000
   34.6310   28.9730   48.3550 C   0  0  0  0  0  0  0  0  0  0  0  0
   34.5960   27.6150   48.6200 C   0  0  0  0  0  0  0  0  0  0  0  0
   33.5630   26.9540   48.0130 C   0  0  0  0  0  0  0  0  0  0  0  0
   32.6320   27.5900   47.2030 C   0  0  0  0  0  0  0  0  0  0  0  0
   32.7400   28.9490   46.9920 C   0  0  0  0  0  0  0  0  0  0  0  0
   33.7460   29.6230   47.5760 N   0  0  0  0  0  0  0  0  0  0  0  0
   35.3390   27.1770   49.2510 H   0  0  0  0  0  0  0  0  0  0  0  0
   33.5650   25.8720   48.2450 H   0  0  0  0  0  0  0  0  0  0  0  0
   31.9250   26.8810   46.8430 H   0  0  0  0  0  0  0  0  0  0  0  0
   37.1850   30.1910   50.7110 C   0  0  0  0  0  0  0  0  0  0  0  0
   37.7030   31.3000   50.0360 C   0  0  0  0  0  0  0  0  0  0  0  0
   37.1780   31.6190   48.7910 C   0  0  0  0  0  0  0  0  0  0  0  0
   36.1910   30.8320   48.3080 N   0  0  0  0  0  0  0  0  0  0  0  0
   35.6960   29.7780   48.9470 C   0  0  0  0  0  0  0  0  0  0  0  0
   36.2200   29.4770   50.1640 N   0  0  0  0  0  0  0  0  0  0  0  0
   38.4930   31.8610   50.5150 H   0  0  0  0  0  0  0  0  0  0  0  0
   37.5750   32.4800   48.2570 H   0  0  0  0  0  0  0  0  0  0  0  0
   37.6510   29.7680   52.0000 N   0  0  0  0  0  0  0  0  0  0  0  0
   37.2580   29.8860   52.9550 H   0  0  0  0  0  0  0  0  0  0  0  0
   38.5280   29.2920   51.6910 H   0  0  0  0  0  0  0  0  0  0  0  0
   30.3760   29.3540   46.2810 C   0  0  0  0  0  0  0  0  0  0  0  0
   31.7290   29.5500   46.1400 C   0  0  0  0  0  0  0  0  0  0  0  0
   32.0390   30.3840   45.0950 C   0  0  0  0  0  0  0  0  0  0  0  0
   33.0460   30.6490   44.8370 H   0  0  0  0  0  0  0  0  0  0  0  0
   31.1010   30.9650   44.2730 C   0  0  0  0  0  0  0  0  0  0  0  0
   31.3610   31.6160   43.4570 H   0  0  0  0  0  0  0  0  0  0  0  0
   29.7600   30.7340   44.4610 C   0  0  0  0  0  3  0  0  0  0  0  0
   29.3970   29.9050   45.4970 C   0  0  0  0  0  3  0  0  0  0  0  0
   29.5250   27.3610   47.7860 N   0  0  0  0  0  0  0  0  0  0  0  0
   29.8530   28.4870   47.3130 C   0  0  0  0  0  0  0  0  0  0  0  0
   29.4100   29.0170   48.5800 N   0  0  0  0  0  0  0  0  0  0  0  0
   29.1360   27.3430   48.7500 H   0  0  0  0  0  0  0  0  0  0  0  0
   29.4190   29.2120   49.5970 H   0  0  0  0  0  0  0  0  0  0  0  0
   28.5360   29.5890   48.6680 H   0  0  0  0  0  0  0  0  0  0  0  0
  1  2  1  0  0  0  0
  1 14  1  0  0  0  0
  2  7  1  0  0  0  0
  3  8  1  0  0  0  0
  3  2  2  0  0  0  0
  4  3  1  0  0  0  0
  5  4  2  0  0  0  0
  5  6  1  0  0  0  0
  6  1  2  0  0  0  0
  9  4  1  0  0  0  0
 10 18  1  0  0  0  0
 11 16  1  0  0  0  0
 11 10  2  0  0  0  0
 12 11  1  0  0  0  0
 13 12  2  0  0  0  0
 13 14  1  0  0  0  0
 14 15  2  0  0  0  0
 15 10  1  0  0  0  0
 17 12  1  0  0  0  0
 18 19  1  0  0  0  0
 20 18  1  0  0  0  0
 21 30  1  0  0  0  0
 22 21  1  0  0  0  0
 22  5  1  0  0  0  0
 23 22  2  0  0  0  0
 24 23  1  0  0  0  0
 25 27  2  0  0  0  0
 25 23  1  0  0  0  0
 26 25  1  0  0  0  0
 27 28  1  0  0  0  0
 28 21  2  0  0  0  0
 29 32  1  0  0  0  0
 30 29  2  0  0  0  0
 30 31  1  0  0  0  0
 31 34  1  0  0  0  0
 31 33  1  0  0  0  0
M  END
>  <minimizedAffinity>
-5.4778657

>  <minimizedRMSD>
1.13457239

$$$$
