
 OpenBabel03262523133D

 34 36  0  0  0  0  0  0  0  0999 V2000
   34.9100   29.3100   48.4220 C   0  0  0  0  0  0  0  0  0  0  0  0
   34.5640   28.0560   48.8920 C   0  0  0  0  0  0  0  0  0  0  0  0
   33.4840   27.5020   48.2590 C   0  0  0  0  0  0  0  0  0  0  0  0
   32.7970   28.1430   47.2370 C   0  0  0  0  0  0  0  0  0  0  0  0
   33.2090   29.3940   46.8310 C   0  0  0  0  0  0  0  0  0  0  0  0
   34.2680   29.9620   47.4360 N   0  0  0  0  0  0  0  0  0  0  0  0
   35.1280   27.6080   49.6810 H   0  0  0  0  0  0  0  0  0  0  0  0
   33.2350   26.4990   48.6570 H   0  0  0  0  0  0  0  0  0  0  0  0
   31.9980   27.5260   46.9000 H   0  0  0  0  0  0  0  0  0  0  0  0
   37.5760   30.2320   50.7900 C   0  0  0  0  0  0  0  0  0  0  0  0
   38.2070   31.2890   50.1250 C   0  0  0  0  0  0  0  0  0  0  0  0
   37.7180   31.6730   48.8850 C   0  0  0  0  0  0  0  0  0  0  0  0
   36.6550   30.9980   48.3940 N   0  0  0  0  0  0  0  0  0  0  0  0
   36.0530   29.9940   49.0230 C   0  0  0  0  0  0  0  0  0  0  0  0
   36.5430   29.6280   50.2360 N   0  0  0  0  0  0  0  0  0  0  0  0
   39.0500   31.7600   50.6100 H   0  0  0  0  0  0  0  0  0  0  0  0
   38.2020   32.4940   48.3590 H   0  0  0  0  0  0  0  0  0  0  0  0
   37.9950   29.7510   52.0730 N   0  0  0  0  0  0  0  0  0  0  0  0
   37.6160   29.8990   53.0300 H   0  0  0  0  0  0  0  0  0  0  0  0
   38.8180   29.1900   51.7590 H   0  0  0  0  0  0  0  0  0  0  0  0
   32.9850   30.5140   44.6050 C   0  0  0  0  0  0  0  0  0  0  0  0
   32.4420   30.0090   45.7630 C   0  0  0  0  0  0  0  0  0  0  0  0
   31.0780   30.1470   45.8130 C   0  0  0  0  0  0  0  0  0  0  0  0
   30.4860   29.8090   46.6420 H   0  0  0  0  0  0  0  0  0  0  0  0
   30.3270   30.7260   44.8160 C   0  0  0  0  0  0  0  0  0  0  0  0
   29.2580   30.8270   44.8710 H   0  0  0  0  0  0  0  0  0  0  0  0
   30.9240   31.2140   43.6780 C   0  0  0  0  0  3  0  0  0  0  0  0
   32.2910   31.1000   43.5800 C   0  0  0  0  0  3  0  0  0  0  0  0
   35.6000   30.8600   44.5910 N   0  0  0  0  0  0  0  0  0  0  0  0
   34.4130   30.4830   44.3770 C   0  0  0  0  0  0  0  0  0  0  0  0
   34.9940   29.5890   43.4060 N   0  0  0  0  0  0  0  0  0  0  0  0
   36.3520   30.4060   44.0350 H   0  0  0  0  0  0  0  0  0  0  0  0
   35.5330   28.7820   43.0430 H   0  0  0  0  0  0  0  0  0  0  0  0
   34.8690   29.7300   42.3750 H   0  0  0  0  0  0  0  0  0  0  0  0
  1  2  1  0  0  0  0
  1 14  1  0  0  0  0
  2  7  1  0  0  0  0
  3  8  1  0  0  0  0
  3  2  2  0  0  0  0
  4  3  1  0  0  0  0
  5  4  2  0  0  0  0
  5  6  1  0  0  0  0
  6  1  2  0  0  0  0
  9  4  1  0  0  0  0
 10 18  1  0  0  0  0
 11 16  1  0  0  0  0
 11 10  2  0  0  0  0
 12 11  1  0  0  0  0
 13 12  2  0  0  0  0
 13 14  1  0  0  0  0
 14 15  2  0  0  0  0
 15 10  1  0  0  0  0
 17 12  1  0  0  0  0
 18 19  1  0  0  0  0
 20 18  1  0  0  0  0
 21 22  1  0  0  0  0
 22 23  2  0  0  0  0
 22  5  1  0  0  0  0
 23 24  1  0  0  0  0
 25 26  1  0  0  0  0
 25 23  1  0  0  0  0
 27 25  2  0  0  0  0
 28 27  1  0  0  0  0
 28 21  2  0  0  0  0
 30 29  2  0  0  0  0
 30 21  1  0  0  0  0
 31 30  1  0  0  0  0
 32 29  1  0  0  0  0
 33 31  1  0  0  0  0
 34 31  1  0  0  0  0
M  END
>  <minimizedAffinity>
-5.55062532

>  <minimizedRMSD>
1.87721789

$$$$
