
 OpenBabel03272508093D

 27 29  0  0  0  0  0  0  0  0999 V2000
   39.0420   32.8980   48.1760 O   0  0  0  0  0  0  0  0  0  0  0  0
   38.7260   31.8510   47.1520 P   0  0  2  0  0  0  0  0  0  0  0  0
   37.6950   32.5110   45.9620 O   0  0  0  0  0  0  0  0  0  0  0  0
   37.7230   33.4880   46.0260 H   0  0  0  0  0  0  0  0  0  0  0  0
   38.1060   30.4220   47.7740 O   0  0  0  0  0  0  0  0  0  0  0  0
   37.3380   30.2400   51.3900 C   0  0  0  0  0  0  0  0  0  0  0  0
   38.0590   30.6000   50.2470 C   0  0  0  0  0  0  0  0  0  0  0  0
   37.5790   30.1930   49.0110 C   0  0  0  0  0  0  0  0  0  0  0  0
   36.4210   29.4590   48.9670 N   0  0  0  0  0  0  0  0  0  0  0  0
   35.7580   29.1350   50.1000 C   0  0  0  0  0  0  0  0  0  0  0  0
   36.2150   29.5240   51.3020 N   0  0  0  0  0  0  0  0  0  0  0  0
   37.7360   30.5690   52.3270 H   0  0  0  0  0  0  0  0  0  0  0  0
   38.9630   31.1650   50.2100 H   0  0  0  0  0  0  0  0  0  0  0  0
   34.8350   28.5470   50.0240 H   0  0  0  0  0  0  0  0  0  0  0  0
   40.1790   31.4990   46.3390 O   0  0  0  0  0  0  0  0  0  0  0  0
   39.9080   29.0320   45.0590 H   0  0  0  0  0  0  0  0  0  0  0  0
   39.9730   29.8900   44.4710 N   0  0  0  0  0  0  0  0  0  0  0  0
   40.1060   31.1360   44.9910 C   0  0  0  0  0  0  0  0  0  0  0  0
   40.1510   31.9300   43.9020 N   0  0  0  0  0  0  0  0  0  0  0  0
   40.0540   31.2360   42.7730 C   0  0  0  0  0  0  0  0  0  0  0  0
   40.0390   31.4800   41.4130 C   0  0  0  0  0  0  0  0  0  0  0  0
   40.1270   32.5010   41.0790 H   0  0  0  0  0  0  0  0  0  0  0  0
   39.9210   30.4950   40.5130 N   0  0  0  0  0  0  0  0  0  0  0  0
   39.8100   29.2100   40.9390 C   0  0  0  0  0  0  0  0  0  0  0  0
   39.7120   28.3930   40.2070 H   0  0  0  0  0  0  0  0  0  0  0  0
   39.8180   28.9180   42.2540 N   0  0  0  0  0  0  0  0  0  0  0  0
   39.9380   29.9190   43.1410 C   0  0  0  0  0  0  0  0  0  0  0  0
  2  5  1  0  0  0  0
  2  1  2  1  0  0  0
  3  4  1  0  0  0  0
  3  2  1  0  0  0  0
  5  8  1  0  0  0  0
  6 12  1  0  0  0  0
  7  6  2  0  0  0  0
  8  7  1  0  0  0  0
  9  8  2  0  0  0  0
  9 10  1  0  0  0  0
 10 11  2  0  0  0  0
 11  6  1  0  0  0  0
 13  7  1  0  0  0  0
 14 10  1  0  0  0  0
 15  2  1  0  0  0  0
 17 18  1  0  0  0  0
 17 16  1  0  0  0  0
 18 15  1  0  0  0  0
 19 18  2  0  0  0  0
 20 27  1  0  0  0  0
 20 19  1  0  0  0  0
 21 20  2  0  0  0  0
 22 21  1  0  0  0  0
 23 24  2  0  0  0  0
 23 21  1  0  0  0  0
 24 26  1  0  0  0  0
 25 24  1  0  0  0  0
 26 27  2  0  0  0  0
 27 17  1  0  0  0  0
M  END
>  <minimizedAffinity>
-5.81489038

>  <minimizedRMSD>
1.75419152

$$$$
