
 OpenBabel03272501083D

 43 47  0  0  1  0  0  0  0  0999 V2000
   40.6820   32.0030   44.4700 Cl  0  0  0  0  0  0  0  0  0  0  0  0
   39.1570   31.1720   44.3700 C   0  0  0  0  0  0  0  0  0  0  0  0
   38.2530   31.5080   45.3620 C   0  0  0  0  0  0  0  0  0  0  0  0
   37.0360   30.8450   45.2870 C   0  0  0  0  0  0  0  0  0  0  0  0
   36.7410   29.9230   44.3090 C   0  0  0  0  0  0  0  0  0  0  0  0
   37.6860   29.6410   43.3590 C   0  0  0  0  0  0  0  0  0  0  0  0
   38.9310   30.2580   43.3590 C   0  0  0  0  0  0  0  0  0  0  0  0
   36.2140   30.9830   45.9790 H   0  0  0  0  0  0  0  0  0  0  0  0
   35.8030   29.3930   44.2280 H   0  0  0  0  0  0  0  0  0  0  0  0
   37.5580   28.9260   42.5370 H   0  0  0  0  0  0  0  0  0  0  0  0
   39.9830   30.0410   42.4230 N   0  0  0  0  0  0  0  0  0  0  0  0
   41.0730   29.2580   42.5170 C   0  0  0  0  0  0  0  0  0  0  0  0
   41.3210   28.6380   43.3780 H   0  0  0  0  0  0  0  0  0  0  0  0
   41.7520   29.4050   41.3650 N   0  0  0  0  0  0  0  0  0  0  0  0
   41.1000   30.2640   40.5670 C   0  0  0  0  0  0  0  0  0  0  0  0
   41.3540   30.7650   39.2870 C   0  0  0  0  0  0  0  0  0  0  0  0
   42.2430   30.4430   38.7580 H   0  0  0  0  0  0  0  0  0  0  0  0
   40.5130   31.6500   38.6830 N   0  0  0  0  0  0  0  0  0  0  0  0
   39.4200   32.0260   39.3710 C   0  0  0  0  0  0  0  0  0  0  0  0
   38.6450   32.7220   39.0380 H   0  0  0  0  0  0  0  0  0  0  0  0
   39.1430   31.5620   40.6050 N   0  0  0  0  0  0  0  0  0  0  0  0
   39.9500   30.6840   41.2410 C   0  0  0  0  0  0  0  0  0  0  0  0
   38.3070   32.3600   46.4050 O   0  0  0  0  0  0  0  0  0  0  0  0
   38.9630   32.4440   47.5860 C   0  0  2  0  0  0  0  0  0  0  0  0
   37.9880   32.6240   48.7910 C   0  0  2  0  0  0  0  0  0  0  0  0
   38.8480   33.3190   49.7360 C   0  0  0  0  0  0  0  0  0  0  0  0
   39.6660   34.1820   49.0220 O   0  0  0  0  0  0  0  0  0  0  0  0
   39.5890   33.8640   47.7040 C   0  0  0  0  0  0  0  0  0  0  0  0
   39.7290   31.7160   47.8420 H   0  0  0  0  0  0  0  0  0  0  0  0
   37.1990   33.2980   48.3930 H   0  0  0  0  0  0  0  0  0  0  0  0
   39.5120   32.7100   50.3530 H   0  0  0  0  0  0  0  0  0  0  0  0
   38.2220   33.9490   50.4100 H   0  0  0  0  0  0  0  0  0  0  0  0
   40.6090   33.8270   47.2570 H   0  0  0  0  0  0  0  0  0  0  0  0
   38.9650   34.5380   47.0930 H   0  0  0  0  0  0  0  0  0  0  0  0
   37.3530   29.3260   50.4810 C   0  0  0  0  0  0  0  0  0  0  0  0
   38.0090   30.5420   50.1420 C   0  0  0  0  0  0  0  0  0  0  0  0
   37.3720   31.3820   49.1860 C   0  0  0  0  0  0  0  0  0  0  0  0
   36.1720   30.9890   48.6430 N   0  0  0  0  0  0  0  0  0  0  0  0
   35.5970   29.8350   48.9940 C   0  0  0  0  0  0  0  0  0  0  0  0
   36.1690   28.9990   49.9040 N   0  0  0  0  0  0  0  0  0  0  0  0
   37.8420   28.6940   51.2080 H   0  0  0  0  0  0  0  0  0  0  0  0
   38.9530   30.8000   50.6030 H   0  0  0  0  0  0  0  0  0  0  0  0
   34.6690   29.4550   48.6210 H   0  0  0  0  0  0  0  0  0  0  0  0
  2  1  1  0  0  0  0
  2  3  1  0  0  0  0
  3 23  1  0  0  0  0
  4  3  2  0  0  0  0
  4  8  1  0  0  0  0
  5  4  1  0  0  0  0
  6  5  2  0  0  0  0
  7  6  1  0  0  0  0
  7  2  2  0  0  0  0
  9  5  1  0  0  0  0
 10  6  1  0  0  0  0
 11 12  1  0  0  0  0
 11  7  1  0  0  0  0
 12 13  1  0  0  0  0
 14 12  2  0  0  0  0
 15 22  1  0  0  0  0
 15 14  1  0  0  0  0
 16 15  2  0  0  0  0
 17 16  1  0  0  0  0
 18 16  1  0  0  0  0
 18 19  2  0  0  0  0
 19 21  1  0  0  0  0
 20 19  1  0  0  0  0
 21 22  2  0  0  0  0
 22 11  1  0  0  0  0
 23 24  1  0  0  0  0
 24 28  1  0  0  0  0
 24 29  1  1  0  0  0
 24 25  1  0  0  0  0
 25 30  1  6  0  0  0
 25 37  1  0  0  0  0
 25 26  1  0  0  0  0
 26 31  1  0  0  0  0
 26 32  1  0  0  0  0
 27 26  1  0  0  0  0
 28 27  1  0  0  0  0
 33 28  1  0  0  0  0
 34 28  1  0  0  0  0
 35 41  1  0  0  0  0
 36 35  1  0  0  0  0
 36 42  1  0  0  0  0
 37 36  2  0  0  0  0
 38 39  2  0  0  0  0
 38 37  1  0  0  0  0
 39 40  1  0  0  0  0
 40 35  2  0  0  0  0
 43 39  1  0  0  0  0
M  END
>  <minimizedAffinity>
-6.38115406

>  <minimizedRMSD>
1.48815799

$$$$
