
 OpenBabel03272504093D

 36 39  0  0  0  0  0  0  0  0999 V2000
   37.8570   30.1170   49.9860 C   0  0  0  0  0  0  0  0  0  0  0  0
   37.2500   30.5620   48.8280 C   0  0  0  0  0  0  0  0  0  0  0  0
   35.8500   30.4420   48.6600 C   0  0  0  0  0  0  0  0  0  0  0  0
   35.1480   29.8770   49.6790 N   0  0  0  0  0  0  0  0  0  0  0  0
   35.7910   29.4460   50.8190 C   0  0  0  0  0  0  0  0  0  0  0  0
   37.1400   29.5670   50.9670 N   0  0  0  0  0  0  0  0  0  0  0  0
   34.9680   28.8630   51.8410 N   0  0  0  0  0  0  0  0  0  0  0  0
   38.9230   30.1930   50.1490 H   0  0  0  0  0  0  0  0  0  0  0  0
   34.5190   29.3960   52.6350 H   0  0  0  0  0  0  0  0  0  0  0  0
   34.7580   27.8410   51.8590 H   0  0  0  0  0  0  0  0  0  0  0  0
   38.2630   33.4180   49.0480 Cl  0  0  0  0  0  0  0  0  0  0  0  0
   38.6480   32.4120   47.6980 C   0  0  0  0  0  0  0  0  0  0  0  0
   38.1080   31.1600   47.7800 C   0  0  0  0  0  0  0  0  0  0  0  0
   38.3750   30.2600   46.7230 C   0  0  0  0  0  0  0  0  0  0  0  0
   39.1330   30.6040   45.6550 C   0  0  0  0  0  0  0  0  0  0  0  0
   39.6660   31.8900   45.6020 C   0  0  0  0  0  0  0  0  0  0  0  0
   40.6500   32.3800   44.2480 Cl  0  0  0  0  0  0  0  0  0  0  0  0
   39.4150   32.7590   46.6170 C   0  0  0  0  0  0  0  0  0  0  0  0
   38.0160   29.2410   46.6820 H   0  0  0  0  0  0  0  0  0  0  0  0
   39.3610   29.9490   44.8250 H   0  0  0  0  0  0  0  0  0  0  0  0
   39.8080   33.7800   46.6260 H   0  0  0  0  0  0  0  0  0  0  0  0
   35.2220   30.9260   47.4470 C   0  0  0  0  0  0  0  0  0  0  0  0
   34.3200   31.5210   47.7730 H   0  0  0  0  0  0  0  0  0  0  0  0
   35.7880   31.6130   46.8110 H   0  0  0  0  0  0  0  0  0  0  0  0
   34.7800   29.7830   46.6310 N   0  0  0  0  0  0  0  0  0  0  0  0
   35.2070   29.4920   45.3900 C   0  0  0  0  0  0  0  0  0  0  0  0
   35.9210   30.0280   44.8080 H   0  0  0  0  0  0  0  0  0  0  0  0
   34.5920   28.3830   44.9460 N   0  0  0  0  0  0  0  0  0  0  0  0
   33.7640   27.9570   45.9070 C   0  0  0  0  0  0  0  0  0  0  0  0
   32.9110   26.8650   45.9430 C   0  0  0  0  0  0  0  0  0  0  0  0
   32.8230   26.1770   45.1080 H   0  0  0  0  0  0  0  0  0  0  0  0
   32.2080   26.7240   47.0820 N   0  0  0  0  0  0  0  0  0  0  0  0
   32.2950   27.5580   48.1320 C   0  0  0  0  0  0  0  0  0  0  0  0
   31.6750   27.3360   48.9950 H   0  0  0  0  0  0  0  0  0  0  0  0
   33.1350   28.6340   48.0960 N   0  0  0  0  0  0  0  0  0  0  0  0
   33.8810   28.8470   46.9810 C   0  0  0  0  0  0  0  0  0  0  0  0
  1  8  1  0  0  0  0
  1  6  1  0  0  0  0
  2  1  2  0  0  0  0
  3  2  1  0  0  0  0
  3  4  2  0  0  0  0
  4  5  1  0  0  0  0
  5  6  2  0  0  0  0
  5  7  1  0  0  0  0
  7 10  1  0  0  0  0
  7  9  1  0  0  0  0
 12 13  1  0  0  0  0
 12 11  1  0  0  0  0
 13  2  1  0  0  0  0
 14 13  2  0  0  0  0
 15 14  1  0  0  0  0
 16 15  2  0  0  0  0
 16 18  1  0  0  0  0
 17 16  1  0  0  0  0
 18 21  1  0  0  0  0
 18 12  2  0  0  0  0
 19 14  1  0  0  0  0
 20 15  1  0  0  0  0
 22 23  1  0  0  0  0
 22  3  1  0  0  0  0
 24 22  1  0  0  0  0
 25 36  1  0  0  0  0
 25 22  1  0  0  0  0
 26 25  1  0  0  0  0
 27 26  1  0  0  0  0
 28 26  2  0  0  0  0
 28 29  1  0  0  0  0
 29 30  2  0  0  0  0
 29 36  1  0  0  0  0
 30 32  1  0  0  0  0
 31 30  1  0  0  0  0
 32 33  2  0  0  0  0
 33 34  1  0  0  0  0
 35 33  1  0  0  0  0
 36 35  2  0  0  0  0
M  END
>  <minimizedAffinity>
-5.17128277

>  <minimizedRMSD>
1.71675777

$$$$
