
 OpenBabel03272507473D

 49 54  0  0  0  0  0  0  0  0999 V2000
   32.7600   28.3240   47.3870 N   0  0  0  0  0  0  0  0  0  0  0  0
   33.2670   27.9010   48.6460 C   0  0  0  0  0  0  0  0  0  0  0  0
   34.4380   28.6390   49.1760 C   0  0  0  0  0  0  0  0  0  0  0  0
   35.4530   29.0470   48.2060 C   0  0  0  0  0  0  0  0  0  0  0  0
   34.8410   29.4190   46.8430 C   0  0  0  0  0  0  0  0  0  0  0  0
   33.8600   28.3000   46.4650 C   0  0  0  0  0  0  0  0  0  0  0  0
   32.4360   27.9330   49.4070 H   0  0  0  0  0  0  0  0  0  0  0  0
   33.5510   26.8320   48.5490 H   0  0  0  0  0  0  0  0  0  0  0  0
   33.9500   29.5980   49.5550 H   0  0  0  0  0  0  0  0  0  0  0  0
   34.8360   28.1200   50.0580 H   0  0  0  0  0  0  0  0  0  0  0  0
   36.1760   28.2290   47.9550 H   0  0  0  0  0  0  0  0  0  0  0  0
   34.3130   30.3710   46.8610 H   0  0  0  0  0  0  0  0  0  0  0  0
   35.6550   29.3730   46.0830 H   0  0  0  0  0  0  0  0  0  0  0  0
   33.4550   28.4820   45.4600 H   0  0  0  0  0  0  0  0  0  0  0  0
   34.3880   27.3280   46.4240 H   0  0  0  0  0  0  0  0  0  0  0  0
   31.4220   28.7070   47.0550 C   0  0  0  0  0  0  0  0  0  0  0  0
   31.0270   29.3870   45.9070 C   0  0  0  0  0  0  0  0  0  0  0  0
   29.6720   29.6660   45.7670 C   0  0  0  0  0  0  0  0  0  0  0  0
   28.8110   29.2670   46.7470 N   0  0  0  0  0  0  0  0  0  0  0  0
   29.2240   28.6130   47.8420 C   0  0  0  0  0  0  0  0  0  0  0  0
   30.5200   28.3370   47.9930 N   0  0  0  0  0  0  0  0  0  0  0  0
   31.8260   29.6280   45.2380 H   0  0  0  0  0  0  0  0  0  0  0  0
   29.4080   30.1900   44.8700 H   0  0  0  0  0  0  0  0  0  0  0  0
   28.2690   28.2250   48.8250 N   0  0  0  0  0  0  0  0  0  0  0  0
   28.2290   27.3110   49.8130 C   0  0  0  0  0  0  0  0  0  0  0  0
   29.1490   26.7220   49.8790 H   0  0  0  0  0  0  0  0  0  0  0  0
   27.0450   27.3860   50.4470 N   0  0  0  0  0  0  0  0  0  0  0  0
   26.3320   28.3580   49.8530 C   0  0  0  0  0  0  0  0  0  0  0  0
   25.0580   28.7770   50.1790 C   0  0  0  0  0  0  0  0  0  0  0  0
   24.5010   28.3280   50.9890 H   0  0  0  0  0  0  0  0  0  0  0  0
   24.5150   29.7890   49.4410 N   0  0  0  0  0  0  0  0  0  0  0  0
   25.2550   30.3100   48.4460 C   0  0  0  0  0  0  0  0  0  0  0  0
   24.9390   31.1210   47.7820 H   0  0  0  0  0  0  0  0  0  0  0  0
   26.5080   29.9190   48.1020 N   0  0  0  0  0  0  0  0  0  0  0  0
   27.0880   28.9110   48.8160 C   0  0  0  0  0  0  0  0  0  0  0  0
   36.0640   30.7330   49.8810 C   0  0  0  0  0  0  0  0  0  0  0  0
   36.2540   30.2300   48.6040 C   0  0  0  0  0  0  0  0  0  0  0  0
   37.1150   30.7740   47.6880 C   0  0  0  0  0  0  0  0  0  0  0  0
   37.8360   31.9030   48.0760 C   0  0  0  0  0  0  0  0  0  0  0  0
   37.6530   32.4070   49.3380 C   0  0  0  0  0  0  0  0  0  0  0  0
   36.7780   31.8520   50.2680 C   0  0  0  0  0  0  0  0  0  0  0  0
   38.4640   33.5340   49.5300 O   0  0  0  0  0  0  0  0  0  0  0  0
   39.3850   33.5070   48.4490 C   0  0  0  0  0  0  0  0  0  0  0  0
   38.7820   32.7210   47.4520 O   0  0  0  0  0  0  0  0  0  0  0  0
   35.4300   30.3860   50.6840 H   0  0  0  0  0  0  0  0  0  0  0  0
   37.2330   30.3610   46.7210 H   0  0  0  0  0  0  0  0  0  0  0  0
   36.6840   32.3130   51.2670 H   0  0  0  0  0  0  0  0  0  0  0  0
   39.4980   34.5770   48.1200 H   0  0  0  0  0  0  0  0  0  0  0  0
   40.3850   33.1340   48.7420 H   0  0  0  0  0  0  0  0  0  0  0  0
  1  2  1  0  0  0  0
  2  3  1  0  0  0  0
  2  7  1  0  0  0  0
  3  9  1  0  0  0  0
  3 10  1  0  0  0  0
  4 37  1  0  0  0  0
  4  3  1  0  0  0  0
  5 12  1  0  0  0  0
  5  4  1  0  0  0  0
  6  5  1  0  0  0  0
  6  1  1  0  0  0  0
  8  2  1  0  0  0  0
 11  4  1  0  0  0  0
 13  5  1  0  0  0  0
 14  6  1  0  0  0  0
 15  6  1  0  0  0  0
 16  1  1  0  0  0  0
 16 21  1  0  0  0  0
 17 16  2  0  0  0  0
 18 17  1  0  0  0  0
 18 19  2  0  0  0  0
 19 20  1  0  0  0  0
 20 21  2  0  0  0  0
 20 24  1  0  0  0  0
 22 17  1  0  0  0  0
 23 18  1  0  0  0  0
 24 25  1  0  0  0  0
 25 26  1  0  0  0  0
 25 27  2  0  0  0  0
 28 29  1  0  0  0  0
 28 27  1  0  0  0  0
 29 30  1  0  0  0  0
 31 29  2  0  0  0  0
 32 31  1  0  0  0  0
 33 32  1  0  0  0  0
 34 32  2  0  0  0  0
 34 35  1  0  0  0  0
 35 24  1  0  0  0  0
 35 28  2  0  0  0  0
 36 41  1  0  0  0  0
 36 45  1  0  0  0  0
 37 36  2  0  0  0  0
 38 39  2  0  0  0  0
 38 37  1  0  0  0  0
 39 40  1  0  0  0  0
 40 42  1  0  0  0  0
 40 41  2  0  0  0  0
 41 47  1  0  0  0  0
 43 49  1  0  0  0  0
 43 42  1  0  0  0  0
 44 39  1  0  0  0  0
 44 43  1  0  0  0  0
 46 38  1  0  0  0  0
 48 43  1  0  0  0  0
M  END
>  <minimizedAffinity>
-8.08280182

>  <minimizedRMSD>
0.506860316

$$$$
