
 OpenBabel03272507013D

 49 53  0  0  1  0  0  0  0  0999 V2000
   36.6380   30.0330   49.5280 C   0  0  2  0  0  0  0  0  0  0  0  0
   36.1480   29.0980   48.4730 C   0  0  0  0  0  0  0  0  0  0  0  0
   34.6730   29.2170   48.2350 C   0  0  2  0  0  0  0  0  0  0  0  0
   33.8400   29.0560   49.4530 C   0  0  0  0  0  0  0  0  0  0  0  0
   34.4550   29.7000   50.6780 C   0  0  0  0  0  0  0  0  0  0  0  0
   35.5330   30.7000   50.3000 C   0  0  0  0  0  0  0  0  0  0  0  0
   37.2830   29.5470   50.3200 H   0  0  0  0  0  0  0  0  0  0  0  0
   36.5080   28.1230   48.7770 H   0  0  0  0  0  0  0  0  0  0  0  0
   36.5700   29.2940   47.4750 H   0  0  0  0  0  0  0  0  0  0  0  0
   34.5180   30.2430   47.8370 H   0  0  0  0  0  0  0  0  0  0  0  0
   33.4720   28.0260   49.6370 H   0  0  0  0  0  0  0  0  0  0  0  0
   32.8910   29.6450   49.2730 H   0  0  0  0  0  0  0  0  0  0  0  0
   34.9570   28.8890   51.2460 H   0  0  0  0  0  0  0  0  0  0  0  0
   33.7160   30.1370   51.3480 H   0  0  0  0  0  0  0  0  0  0  0  0
   35.9500   31.0990   51.2430 H   0  0  0  0  0  0  0  0  0  0  0  0
   35.0600   31.5140   49.7210 H   0  0  0  0  0  0  0  0  0  0  0  0
   34.3500   28.2980   47.2120 N   0  0  1  0  0  0  0  0  0  0  0  0
   33.7510   27.0640   47.6230 C   0  0  0  0  0  0  0  0  0  0  0  0
   33.8470   26.2570   46.3260 C   0  0  0  0  0  0  0  0  0  0  0  0
   33.4880   27.3410   45.3230 C   0  0  0  0  0  0  0  0  0  0  0  0
   33.9840   28.6550   45.9820 C   0  0  1  0  0  0  0  0  0  0  0  0
   32.6750   27.1820   47.8800 H   0  0  0  0  0  0  0  0  0  0  0  0
   34.3400   26.5330   48.3760 H   0  0  0  0  0  0  0  0  0  0  0  0
   33.0780   25.4650   46.3670 H   0  0  0  0  0  0  0  0  0  0  0  0
   34.8730   25.8990   46.1850 H   0  0  0  0  0  0  0  0  0  0  0  0
   33.9430   27.1640   44.3400 H   0  0  0  0  0  0  0  0  0  0  0  0
   32.4140   27.3090   45.1860 H   0  0  0  0  0  0  0  0  0  0  0  0
   34.9970   28.7590   45.4420 H   0  0  0  0  0  0  0  0  0  0  0  0
   33.1910   29.6860   45.4950 N   0  0  0  0  0  0  0  0  0  0  0  0
   31.9270   30.0160   45.9160 C   0  0  0  0  0  0  0  0  0  0  0  0
   31.3000   29.5480   46.6920 H   0  0  0  0  0  0  0  0  0  0  0  0
   31.3930   31.0430   45.2940 N   0  0  0  0  0  0  0  0  0  0  0  0
   32.3010   31.4660   44.3980 C   0  0  0  0  0  0  0  0  0  0  0  0
   32.3480   32.4820   43.4530 C   0  0  0  0  0  0  0  0  0  0  0  0
   31.5010   33.1460   43.3370 H   0  0  0  0  0  0  0  0  0  0  0  0
   33.4230   32.6730   42.6670 N   0  0  0  0  0  0  0  0  0  0  0  0
   34.4780   31.8500   42.8090 C   0  0  0  0  0  0  0  0  0  0  0  0
   35.4370   31.8300   42.2800 H   0  0  0  0  0  0  0  0  0  0  0  0
   34.4310   30.8850   43.7090 N   0  0  0  0  0  0  0  0  0  0  0  0
   33.3930   30.6360   44.5260 C   0  0  0  0  0  0  0  0  0  0  0  0
   37.4980   31.0950   48.9620 C   0  0  0  0  0  0  0  0  0  0  0  0
   38.1140   30.7590   47.7550 C   0  0  0  0  0  0  0  0  0  0  0  0
   38.9290   31.7400   47.1720 C   0  0  0  0  0  0  0  0  0  0  0  0
   39.0800   32.9620   47.8060 N   0  0  0  0  0  0  0  0  0  0  0  0
   38.4530   33.2380   48.9890 C   0  0  0  0  0  0  0  0  0  0  0  0
   37.6880   32.3070   49.5290 N   0  0  0  0  0  0  0  0  0  0  0  0
   38.1980   29.9400   47.0730 H   0  0  0  0  0  0  0  0  0  0  0  0
   39.5040   31.7600   46.2790 H   0  0  0  0  0  0  0  0  0  0  0  0
   38.5710   34.1800   49.4780 H   0  0  0  0  0  0  0  0  0  0  0  0
  1  6  1  0  0  0  0
  1  7  1  1  0  0  0
  2  8  1  0  0  0  0
  2  1  1  0  0  0  0
  3 10  1  6  0  0  0
  3  2  1  0  0  0  0
  3  4  1  0  0  0  0
  4 11  1  0  0  0  0
  4  5  1  0  0  0  0
  5 13  1  0  0  0  0
  5 14  1  0  0  0  0
  6  5  1  0  0  0  0
  6 15  1  0  0  0  0
  9  2  1  0  0  0  0
 12  4  1  0  0  0  0
 16  6  1  0  0  0  0
 17 18  1  1  0  0  0
 17  3  1  0  0  0  0
 18 22  1  0  0  0  0
 18 23  1  0  0  0  0
 19 24  1  0  0  0  0
 19 18  1  0  0  0  0
 20 21  1  0  0  0  0
 20 19  1  0  0  0  0
 21 28  1  6  0  0  0
 21 17  1  0  0  0  0
 25 19  1  0  0  0  0
 26 20  1  0  0  0  0
 27 20  1  0  0  0  0
 29 30  1  0  0  0  0
 29 21  1  0  0  0  0
 30 31  1  0  0  0  0
 32 30  2  0  0  0  0
 33 40  1  0  0  0  0
 33 32  1  0  0  0  0
 34 33  2  0  0  0  0
 35 34  1  0  0  0  0
 36 37  2  0  0  0  0
 36 34  1  0  0  0  0
 37 39  1  0  0  0  0
 38 37  1  0  0  0  0
 39 40  2  0  0  0  0
 40 29  1  0  0  0  0
 41  1  1  0  0  0  0
 41 46  1  0  0  0  0
 42 41  2  0  0  0  0
 43 42  1  0  0  0  0
 43 44  2  0  0  0  0
 44 45  1  0  0  0  0
 45 49  1  0  0  0  0
 45 46  2  0  0  0  0
 47 42  1  0  0  0  0
 48 43  1  0  0  0  0
M  END
>  <minimizedAffinity>
-5.71565247

>  <minimizedRMSD>
6.46174097

$$$$
