
 OpenBabel03272508373D

 47 51  0  0  1  0  0  0  0  0999 V2000
   40.1770   31.7860   43.5230 N   0  0  0  0  0  0  0  0  0  0  0  0
   39.5670   32.9080   42.9370 C   0  0  0  0  0  0  0  0  0  0  0  0
   38.1600   32.7460   42.4930 C   0  0  0  0  0  0  0  0  0  0  0  0
   37.9150   31.5040   41.8910 O   0  0  0  0  0  0  0  0  0  0  0  0
   38.3050   30.4880   42.7090 C   0  0  0  0  0  0  0  0  0  0  0  0
   39.7510   30.5570   43.0220 C   0  0  1  0  0  0  0  0  0  0  0  0
   39.7600   33.9020   43.2920 H   0  0  0  0  0  0  0  0  0  0  0  0
   40.1800   32.9400   41.9720 H   0  0  0  0  0  0  0  0  0  0  0  0
   37.3590   33.2110   43.0270 H   0  0  0  0  0  0  0  0  0  0  0  0
   38.0980   33.3980   41.5370 H   0  0  0  0  0  0  0  0  0  0  0  0
   38.2440   29.5970   42.0240 H   0  0  0  0  0  0  0  0  0  0  0  0
   37.6330   30.1900   43.5060 H   0  0  0  0  0  0  0  0  0  0  0  0
   39.9070   29.8040   43.8520 H   0  0  0  0  0  0  0  0  0  0  0  0
   40.6030   30.0680   41.9410 N   0  0  0  0  0  0  0  0  0  0  0  0
   41.5070   29.0690   42.0230 C   0  0  0  0  0  0  0  0  0  0  0  0
   41.7620   28.4620   42.8750 H   0  0  0  0  0  0  0  0  0  0  0  0
   42.1260   28.8700   40.8380 N   0  0  0  0  0  0  0  0  0  0  0  0
   41.6240   29.7480   39.9670 C   0  0  0  0  0  0  0  0  0  0  0  0
   41.8340   30.0440   38.6330 C   0  0  0  0  0  0  0  0  0  0  0  0
   42.5650   29.4770   38.0860 H   0  0  0  0  0  0  0  0  0  0  0  0
   41.1280   31.0380   38.0220 N   0  0  0  0  0  0  0  0  0  0  0  0
   40.2240   31.7390   38.7040 C   0  0  0  0  0  0  0  0  0  0  0  0
   39.6870   32.5230   38.1730 H   0  0  0  0  0  0  0  0  0  0  0  0
   39.9940   31.4710   40.0190 N   0  0  0  0  0  0  0  0  0  0  0  0
   40.6910   30.4820   40.6430 C   0  0  0  0  0  0  0  0  0  0  0  0
   40.5890   31.8930   44.8540 C   0  0  0  0  0  0  0  0  0  0  0  0
   41.6890   32.1130   44.8440 H   0  0  0  0  0  0  0  0  0  0  0  0
   40.5570   30.8470   45.2870 H   0  0  0  0  0  0  0  0  0  0  0  0
   39.8400   32.7610   45.7380 C   0  0  0  0  0  0  0  0  0  0  0  0
   39.3540   33.6750   45.4250 H   0  0  0  0  0  0  0  0  0  0  0  0
   40.5760   33.1320   46.5200 H   0  0  0  0  0  0  0  0  0  0  0  0
   37.6990   31.0540   48.0630 C   0  0  0  0  0  0  0  0  0  0  0  0
   36.9630   30.9390   46.9000 C   0  0  0  0  0  0  0  0  0  0  0  0
   37.6950   31.5730   45.8900 C   0  0  0  0  0  0  0  0  0  0  0  0
   38.8080   32.0300   46.4640 N   0  0  0  0  0  0  0  0  0  0  0  0
   38.8130   31.7210   47.7620 N   0  0  0  0  0  0  0  0  0  0  0  0
   35.9810   30.4350   46.8110 H   0  0  0  0  0  0  0  0  0  0  0  0
   37.2620   31.5620   44.9580 H   0  0  0  0  0  0  0  0  0  0  0  0
   37.3920   30.0940   51.6830 C   0  0  0  0  0  0  0  0  0  0  0  0
   37.9330   30.6650   50.5290 C   0  0  0  0  0  0  0  0  0  0  0  0
   37.2620   30.5190   49.3260 C   0  0  0  0  0  0  0  0  0  0  0  0
   36.1060   29.8090   49.3850 N   0  0  0  0  0  0  0  0  0  0  0  0
   35.6000   29.2650   50.5110 C   0  0  0  0  0  0  0  0  0  0  0  0
   36.2510   29.4140   51.6520 N   0  0  0  0  0  0  0  0  0  0  0  0
   37.9700   30.2460   52.6020 H   0  0  0  0  0  0  0  0  0  0  0  0
   38.8490   31.2190   50.5170 H   0  0  0  0  0  0  0  0  0  0  0  0
   34.6710   28.7130   50.4730 H   0  0  0  0  0  0  0  0  0  0  0  0
  1 26  1  0  0  0  0
  2  7  1  0  0  0  0
  2  1  1  0  0  0  0
  3  2  1  0  0  0  0
  3  9  1  0  0  0  0
  4  3  1  0  0  0  0
  4  5  1  0  0  0  0
  5  6  1  0  0  0  0
  5 12  1  0  0  0  0
  6  1  1  0  0  0  0
  6 13  1  1  0  0  0
  8  2  1  0  0  0  0
 10  3  1  0  0  0  0
 11  5  1  0  0  0  0
 14 15  1  0  0  0  0
 14  6  1  0  0  0  0
 15 16  1  0  0  0  0
 17 15  2  0  0  0  0
 18 25  1  0  0  0  0
 18 17  1  0  0  0  0
 19 18  2  0  0  0  0
 20 19  1  0  0  0  0
 21 19  1  0  0  0  0
 21 22  2  0  0  0  0
 22 24  1  0  0  0  0
 23 22  1  0  0  0  0
 24 25  2  0  0  0  0
 25 14  1  0  0  0  0
 26 28  1  0  0  0  0
 26 29  1  0  0  0  0
 27 26  1  0  0  0  0
 29 35  1  0  0  0  0
 29 31  1  0  0  0  0
 30 29  1  0  0  0  0
 32 41  1  0  0  0  0
 33 32  1  0  0  0  0
 34 35  1  0  0  0  0
 34 33  2  0  0  0  0
 35 36  1  0  0  0  0
 36 32  2  0  0  0  0
 37 33  1  0  0  0  0
 38 34  1  0  0  0  0
 39 45  1  0  0  0  0
 40 39  2  0  0  0  0
 41 42  2  0  0  0  0
 41 40  1  0  0  0  0
 42 43  1  0  0  0  0
 43 44  2  0  0  0  0
 44 39  1  0  0  0  0
 46 40  1  0  0  0  0
 47 43  1  0  0  0  0
M  END
>  <minimizedAffinity>
-6.13064098

>  <minimizedRMSD>
0.619921267

$$$$
