
 OpenBabel03272503073D

 35 38  0  0  0  0  0  0  0  0999 V2000
   40.1490   24.1730   34.6110 F   0  0  0  0  0  0  0  0  0  0  0  0
   39.6130   23.9200   35.8260 C   0  0  0  0  0  0  0  0  0  0  0  0
   40.3270   23.1810   36.7430 C   0  0  0  0  0  0  0  0  0  0  0  0
   39.7300   22.9600   37.9510 C   0  0  0  0  0  0  0  0  0  0  0  0
   38.4750   23.4400   38.2680 C   0  0  0  0  0  0  0  0  0  0  0  0
   37.7780   24.1810   37.3240 C   0  0  0  0  0  0  0  0  0  0  0  0
   38.3610   24.4230   36.0830 C   0  0  0  0  0  0  0  0  0  0  0  0
   40.2680   22.3820   38.6890 H   0  0  0  0  0  0  0  0  0  0  0  0
   38.0110   23.2580   39.2300 H   0  0  0  0  0  0  0  0  0  0  0  0
   36.7980   24.5830   37.5110 H   0  0  0  0  0  0  0  0  0  0  0  0
   44.0590   22.9490   36.1780 C   0  0  0  0  0  0  0  0  0  0  0  0
   42.8010   23.4270   36.5550 C   0  0  0  0  0  0  0  0  0  0  0  0
   41.6480   22.6980   36.3570 C   0  0  0  0  0  0  0  0  0  0  0  0
   41.7970   21.4690   35.7660 N   0  0  0  0  0  0  0  0  0  0  0  0
   43.0130   21.0120   35.4040 C   0  0  0  0  0  0  0  0  0  0  0  0
   44.1150   21.7300   35.6040 N   0  0  0  0  0  0  0  0  0  0  0  0
   44.9460   23.5510   36.3500 H   0  0  0  0  0  0  0  0  0  0  0  0
   42.7400   24.4050   37.0180 H   0  0  0  0  0  0  0  0  0  0  0  0
   42.9840   20.0280   34.9490 H   0  0  0  0  0  0  0  0  0  0  0  0
   37.7940   26.6030   35.2590 C   0  0  0  0  0  0  0  0  0  0  0  0
   38.5060   26.9580   36.2580 O   0  0  0  0  0  0  0  0  0  0  0  0
   37.6710   25.1820   35.0930 N   0  0  0  0  0  0  0  0  0  0  0  0
   37.0980   24.8560   34.2800 H   0  0  0  0  0  0  0  0  0  0  0  0
   35.7290   28.6090   35.4260 H   0  0  0  0  0  0  0  0  0  0  0  0
   36.1610   28.4420   34.4910 N   0  0  0  0  0  0  0  0  0  0  0  0
   37.1350   27.5220   34.3240 C   0  0  0  0  0  0  0  0  0  0  0  0
   37.4960   27.5330   33.0130 N   0  0  0  0  0  0  0  0  0  0  0  0
   36.7850   28.4290   32.3400 C   0  0  0  0  0  0  0  0  0  0  0  0
   36.6590   28.9170   31.0560 C   0  0  0  0  0  0  0  0  0  0  0  0
   37.3210   28.4680   30.3110 H   0  0  0  0  0  0  0  0  0  0  0  0
   35.7710   29.8950   30.7140 N   0  0  0  0  0  0  0  0  0  0  0  0
   34.9650   30.4240   31.6800 C   0  0  0  0  0  0  0  0  0  0  0  0
   34.2930   31.1930   31.3270 H   0  0  0  0  0  0  0  0  0  0  0  0
   35.0550   29.9770   32.9490 N   0  0  0  0  0  0  0  0  0  0  0  0
   35.9410   29.0010   33.2860 C   0  0  0  0  0  0  0  0  0  0  0  0
  1  2  1  0  0  0  0
  2  7  2  0  0  0  0
  2  3  1  0  0  0  0
  3  4  2  0  0  0  0
  4  5  1  0  0  0  0
  4  8  1  0  0  0  0
  5  9  1  0  0  0  0
  6 10  1  0  0  0  0
  6  5  2  0  0  0  0
  7  6  1  0  0  0  0
 11 17  1  0  0  0  0
 11 12  1  0  0  0  0
 12 18  1  0  0  0  0
 13 12  2  0  0  0  0
 13  3  1  0  0  0  0
 14 13  1  0  0  0  0
 15 16  1  0  0  0  0
 15 14  2  0  0  0  0
 16 11  2  0  0  0  0
 19 15  1  0  0  0  0
 20 21  2  0  0  0  0
 22 20  1  0  0  0  0
 22  7  1  0  0  0  0
 23 22  1  0  0  0  0
 25 24  1  0  0  0  0
 26 25  1  0  0  0  0
 26 20  1  0  0  0  0
 27 26  2  0  0  0  0
 28 27  1  0  0  0  0
 28 35  1  0  0  0  0
 29 28  2  0  0  0  0
 30 29  1  0  0  0  0
 31 29  1  0  0  0  0
 31 32  2  0  0  0  0
 32 34  1  0  0  0  0
 33 32  1  0  0  0  0
 34 35  2  0  0  0  0
 35 25  1  0  0  0  0
M  END
>  <minimizedAffinity>
-5.95417738

$$$$

 OpenBabel03272503073D

 35 38  0  0  0  0  0  0  0  0999 V2000
   35.9060   28.0760   34.6410 F   0  0  0  0  0  0  0  0  0  0  0  0
   36.0770   28.8140   33.5220 C   0  0  0  0  0  0  0  0  0  0  0  0
   35.6470   30.1230   33.4980 C   0  0  0  0  0  0  0  0  0  0  0  0
   35.8490   30.8140   32.3380 C   0  0  0  0  0  0  0  0  0  0  0  0
   36.4520   30.2570   31.2270 C   0  0  0  0  0  0  0  0  0  0  0  0
   36.8750   28.9370   31.2790 C   0  0  0  0  0  0  0  0  0  0  0  0
   36.6820   28.2060   32.4490 C   0  0  0  0  0  0  0  0  0  0  0  0
   35.5210   31.8430   32.2910 H   0  0  0  0  0  0  0  0  0  0  0  0
   36.6070   30.8150   30.3110 H   0  0  0  0  0  0  0  0  0  0  0  0
   37.3510   28.4470   30.4480 H   0  0  0  0  0  0  0  0  0  0  0  0
   35.0730   31.9400   36.7630 C   0  0  0  0  0  0  0  0  0  0  0  0
   35.6930   31.4340   35.6180 C   0  0  0  0  0  0  0  0  0  0  0  0
   35.0170   30.6600   34.6980 C   0  0  0  0  0  0  0  0  0  0  0  0
   33.6950   30.4100   34.9650 N   0  0  0  0  0  0  0  0  0  0  0  0
   33.1020   30.9010   36.0710 C   0  0  0  0  0  0  0  0  0  0  0  0
   33.7690   31.6460   36.9480 N   0  0  0  0  0  0  0  0  0  0  0  0
   35.6360   32.5470   37.4660 H   0  0  0  0  0  0  0  0  0  0  0  0
   36.7400   31.6620   35.4550 H   0  0  0  0  0  0  0  0  0  0  0  0
   32.0560   30.6260   36.1560 H   0  0  0  0  0  0  0  0  0  0  0  0
   36.2210   25.9210   31.8870 C   0  0  0  0  0  0  0  0  0  0  0  0
   35.2040   26.4600   31.3350 O   0  0  0  0  0  0  0  0  0  0  0  0
   37.1070   26.8480   32.5340 N   0  0  0  0  0  0  0  0  0  0  0  0
   37.9540   26.4400   32.9920 H   0  0  0  0  0  0  0  0  0  0  0  0
   38.3310   24.2360   32.9000 H   0  0  0  0  0  0  0  0  0  0  0  0
   37.5440   23.7700   32.3980 N   0  0  0  0  0  0  0  0  0  0  0  0
   36.5150   24.4840   31.8910 C   0  0  0  0  0  0  0  0  0  0  0  0
   35.6550   23.6110   31.3020 N   0  0  0  0  0  0  0  0  0  0  0  0
   36.1020   22.3660   31.4150 C   0  0  0  0  0  0  0  0  0  0  0  0
   35.7350   21.0850   31.0600 C   0  0  0  0  0  0  0  0  0  0  0  0
   34.7940   20.9960   30.5130 H   0  0  0  0  0  0  0  0  0  0  0  0
   36.4830   19.9840   31.3620 N   0  0  0  0  0  0  0  0  0  0  0  0
   37.6510   20.1470   32.0490 C   0  0  0  0  0  0  0  0  0  0  0  0
   38.1820   19.2270   32.2480 H   0  0  0  0  0  0  0  0  0  0  0  0
   38.0490   21.3820   32.4160 N   0  0  0  0  0  0  0  0  0  0  0  0
   37.3010   22.4770   32.1120 C   0  0  0  0  0  0  0  0  0  0  0  0
  2  1  1  0  0  0  0
  3  2  1  0  0  0  0
  3 13  1  0  0  0  0
  4  3  2  0  0  0  0
  5  6  2  0  0  0  0
  5  4  1  0  0  0  0
  6  7  1  0  0  0  0
  7 22  1  0  0  0  0
  7  2  2  0  0  0  0
  8  4  1  0  0  0  0
  9  5  1  0  0  0  0
 10  6  1  0  0  0  0
 11 16  1  0  0  0  0
 11 17  1  0  0  0  0
 12 11  2  0  0  0  0
 13 14  2  0  0  0  0
 13 12  1  0  0  0  0
 14 15  1  0  0  0  0
 15 19  1  0  0  0  0
 15 16  2  0  0  0  0
 18 12  1  0  0  0  0
 20 26  1  0  0  0  0
 20 22  1  0  0  0  0
 21 20  2  0  0  0  0
 22 23  1  0  0  0  0
 25 24  1  0  0  0  0
 26 25  1  0  0  0  0
 27 28  1  0  0  0  0
 27 26  2  0  0  0  0
 28 35  1  0  0  0  0
 29 31  1  0  0  0  0
 29 28  2  0  0  0  0
 30 29  1  0  0  0  0
 31 32  2  0  0  0  0
 32 33  1  0  0  0  0
 32 34  1  0  0  0  0
 35 25  1  0  0  0  0
 35 34  2  0  0  0  0
M  END
>  <minimizedAffinity>
-5.91766882

$$$$

 OpenBabel03272503073D

 35 38  0  0  0  0  0  0  0  0999 V2000
   36.5740   27.4860   35.2720 F   0  0  0  0  0  0  0  0  0  0  0  0
   36.7370   27.8140   33.9710 C   0  0  0  0  0  0  0  0  0  0  0  0
   36.1410   28.9540   33.4780 C   0  0  0  0  0  0  0  0  0  0  0  0
   36.3450   29.2300   32.1570 C   0  0  0  0  0  0  0  0  0  0  0  0
   37.1060   28.4270   31.3300 C   0  0  0  0  0  0  0  0  0  0  0  0
   37.6950   27.2850   31.8530 C   0  0  0  0  0  0  0  0  0  0  0  0
   37.5050   26.9770   33.1990 C   0  0  0  0  0  0  0  0  0  0  0  0
   35.8880   30.1180   31.7430 H   0  0  0  0  0  0  0  0  0  0  0  0
   37.2610   28.6560   30.2820 H   0  0  0  0  0  0  0  0  0  0  0  0
   38.2990   26.6200   31.2610 H   0  0  0  0  0  0  0  0  0  0  0  0
   35.1190   31.5220   36.0570 C   0  0  0  0  0  0  0  0  0  0  0  0
   35.8940   30.7540   35.1850 C   0  0  0  0  0  0  0  0  0  0  0  0
   35.3490   29.7650   34.3940 C   0  0  0  0  0  0  0  0  0  0  0  0
   33.9950   29.5700   34.5070 N   0  0  0  0  0  0  0  0  0  0  0  0
   33.2520   30.3140   35.3510 C   0  0  0  0  0  0  0  0  0  0  0  0
   33.7960   31.2650   36.1060 N   0  0  0  0  0  0  0  0  0  0  0  0
   35.5830   32.2930   36.6650 H   0  0  0  0  0  0  0  0  0  0  0  0
   36.9590   30.9500   35.1340 H   0  0  0  0  0  0  0  0  0  0  0  0
   32.1990   30.0540   35.3390 H   0  0  0  0  0  0  0  0  0  0  0  0
   39.4000   26.0350   34.3270 C   0  0  0  0  0  0  0  0  0  0  0  0
   39.8140   27.2390   34.2340 O   0  0  0  0  0  0  0  0  0  0  0  0
   38.0970   25.8110   33.7660 N   0  0  0  0  0  0  0  0  0  0  0  0
   37.7240   24.8360   33.8290 H   0  0  0  0  0  0  0  0  0  0  0  0
   42.0210   24.8720   34.0230 H   0  0  0  0  0  0  0  0  0  0  0  0
   41.3880   24.4480   34.7360 N   0  0  0  0  0  0  0  0  0  0  0  0
   40.1440   24.9310   34.9440 C   0  0  0  0  0  0  0  0  0  0  0  0
   39.5670   24.1850   35.9230 N   0  0  0  0  0  0  0  0  0  0  0  0
   40.4020   23.2440   36.3460 C   0  0  0  0  0  0  0  0  0  0  0  0
   40.4420   22.2130   37.2630 C   0  0  0  0  0  0  0  0  0  0  0  0
   39.5370   22.0740   37.8590 H   0  0  0  0  0  0  0  0  0  0  0  0
   41.5290   21.4070   37.4310 N   0  0  0  0  0  0  0  0  0  0  0  0
   42.6360   21.6210   36.6610 C   0  0  0  0  0  0  0  0  0  0  0  0
   43.4520   20.9400   36.8570 H   0  0  0  0  0  0  0  0  0  0  0  0
   42.6410   22.6170   35.7520 N   0  0  0  0  0  0  0  0  0  0  0  0
   41.5550   23.4180   35.5870 C   0  0  0  0  0  0  0  0  0  0  0  0
  2  1  1  0  0  0  0
  3  2  1  0  0  0  0
  3 13  1  0  0  0  0
  4  3  2  0  0  0  0
  5  6  2  0  0  0  0
  5  4  1  0  0  0  0
  6  7  1  0  0  0  0
  7 22  1  0  0  0  0
  7  2  2  0  0  0  0
  8  4  1  0  0  0  0
  9  5  1  0  0  0  0
 10  6  1  0  0  0  0
 11 16  1  0  0  0  0
 11 17  1  0  0  0  0
 12 11  2  0  0  0  0
 13 14  2  0  0  0  0
 13 12  1  0  0  0  0
 14 15  1  0  0  0  0
 15 16  2  0  0  0  0
 18 12  1  0  0  0  0
 19 15  1  0  0  0  0
 20 26  1  0  0  0  0
 21 20  2  0  0  0  0
 22 23  1  0  0  0  0
 22 20  1  0  0  0  0
 24 25  1  0  0  0  0
 25 26  1  0  0  0  0
 25 35  1  0  0  0  0
 26 27  2  0  0  0  0
 27 28  1  0  0  0  0
 28 29  1  0  0  0  0
 29 31  2  0  0  0  0
 29 30  1  0  0  0  0
 32 33  1  0  0  0  0
 32 31  1  0  0  0  0
 34 32  2  0  0  0  0
 35 34  1  0  0  0  0
 35 28  2  0  0  0  0
M  END
>  <minimizedAffinity>
-5.7207098

$$$$

 OpenBabel03272503073D

 35 38  0  0  0  0  0  0  0  0999 V2000
   38.7660   25.2290   34.2650 F   0  0  0  0  0  0  0  0  0  0  0  0
   38.2890   24.0840   33.7290 C   0  0  0  0  0  0  0  0  0  0  0  0
   38.0860   22.9880   34.5380 C   0  0  0  0  0  0  0  0  0  0  0  0
   37.6040   21.8620   33.9360 C   0  0  0  0  0  0  0  0  0  0  0  0
   37.3230   21.7930   32.5860 C   0  0  0  0  0  0  0  0  0  0  0  0
   37.5380   22.9120   31.7940 C   0  0  0  0  0  0  0  0  0  0  0  0
   38.0290   24.0760   32.3800 C   0  0  0  0  0  0  0  0  0  0  0  0
   37.4360   20.9860   34.5480 H   0  0  0  0  0  0  0  0  0  0  0  0
   36.9410   20.8930   32.1190 H   0  0  0  0  0  0  0  0  0  0  0  0
   37.3380   22.9210   30.7370 H   0  0  0  0  0  0  0  0  0  0  0  0
   39.8670   22.8050   37.8690 C   0  0  0  0  0  0  0  0  0  0  0  0
   39.5850   22.6750   36.5070 C   0  0  0  0  0  0  0  0  0  0  0  0
   38.3990   23.1150   35.9570 C   0  0  0  0  0  0  0  0  0  0  0  0
   37.5020   23.6910   36.8210 N   0  0  0  0  0  0  0  0  0  0  0  0
   37.7800   23.8140   38.1340 C   0  0  0  0  0  0  0  0  0  0  0  0
   38.9300   23.3840   38.6470 N   0  0  0  0  0  0  0  0  0  0  0  0
   40.8120   22.4470   38.2670 H   0  0  0  0  0  0  0  0  0  0  0  0
   40.3280   22.2130   35.8680 H   0  0  0  0  0  0  0  0  0  0  0  0
   36.9840   24.2870   38.6990 H   0  0  0  0  0  0  0  0  0  0  0  0
   37.1070   26.0880   31.4570 C   0  0  0  0  0  0  0  0  0  0  0  0
   36.0670   25.6650   32.0650 O   0  0  0  0  0  0  0  0  0  0  0  0
   38.2600   25.2420   31.5930 N   0  0  0  0  0  0  0  0  0  0  0  0
   39.1310   25.5610   31.1110 H   0  0  0  0  0  0  0  0  0  0  0  0
   38.2310   26.8730   28.9190 H   0  0  0  0  0  0  0  0  0  0  0  0
   37.7360   27.6060   29.4720 N   0  0  0  0  0  0  0  0  0  0  0  0
   37.1800   27.3240   30.6710 C   0  0  0  0  0  0  0  0  0  0  0  0
   36.6140   28.4660   31.1440 N   0  0  0  0  0  0  0  0  0  0  0  0
   36.7900   29.4650   30.2880 C   0  0  0  0  0  0  0  0  0  0  0  0
   36.4850   30.8050   30.1640 C   0  0  0  0  0  0  0  0  0  0  0  0
   35.9260   31.2430   30.9930 H   0  0  0  0  0  0  0  0  0  0  0  0
   36.8480   31.5550   29.0830 N   0  0  0  0  0  0  0  0  0  0  0  0
   37.5470   30.9620   28.0710 C   0  0  0  0  0  0  0  0  0  0  0  0
   37.7950   31.6250   27.2540 H   0  0  0  0  0  0  0  0  0  0  0  0
   37.8670   29.6540   28.1510 N   0  0  0  0  0  0  0  0  0  0  0  0
   37.5030   28.9100   29.2300 C   0  0  0  0  0  0  0  0  0  0  0  0
  2  1  1  0  0  0  0
  2  3  1  0  0  0  0
  3 13  1  0  0  0  0
  4  3  2  0  0  0  0
  4  8  1  0  0  0  0
  5  4  1  0  0  0  0
  6  7  1  0  0  0  0
  6  5  2  0  0  0  0
  7  2  2  0  0  0  0
  9  5  1  0  0  0  0
 10  6  1  0  0  0  0
 11 17  1  0  0  0  0
 11 16  1  0  0  0  0
 12 11  2  0  0  0  0
 13 12  1  0  0  0  0
 13 14  2  0  0  0  0
 14 15  1  0  0  0  0
 15 16  2  0  0  0  0
 15 19  1  0  0  0  0
 18 12  1  0  0  0  0
 20 22  1  0  0  0  0
 20 21  2  0  0  0  0
 22  7  1  0  0  0  0
 23 22  1  0  0  0  0
 24 25  1  0  0  0  0
 25 26  1  0  0  0  0
 26 27  2  0  0  0  0
 26 20  1  0  0  0  0
 28 27  1  0  0  0  0
 29 28  1  0  0  0  0
 29 30  1  0  0  0  0
 31 29  2  0  0  0  0
 32 34  2  0  0  0  0
 32 31  1  0  0  0  0
 33 32  1  0  0  0  0
 34 35  1  0  0  0  0
 35 25  1  0  0  0  0
 35 28  2  0  0  0  0
M  END
>  <minimizedAffinity>
-5.63752842

$$$$

 OpenBabel03272503073D

 35 38  0  0  0  0  0  0  0  0999 V2000
   36.1160   28.2320   34.4140 F   0  0  0  0  0  0  0  0  0  0  0  0
   36.3770   28.4160   33.1010 C   0  0  0  0  0  0  0  0  0  0  0  0
   35.5270   29.1900   32.3420 C   0  0  0  0  0  0  0  0  0  0  0  0
   35.8470   29.3370   31.0230 C   0  0  0  0  0  0  0  0  0  0  0  0
   36.9590   28.7540   30.4490 C   0  0  0  0  0  0  0  0  0  0  0  0
   37.7970   27.9790   31.2370 C   0  0  0  0  0  0  0  0  0  0  0  0
   37.4980   27.8100   32.5870 C   0  0  0  0  0  0  0  0  0  0  0  0
   35.1960   29.9390   30.4030 H   0  0  0  0  0  0  0  0  0  0  0  0
   37.2020   28.8780   29.4000 H   0  0  0  0  0  0  0  0  0  0  0  0
   38.6780   27.4990   30.8490 H   0  0  0  0  0  0  0  0  0  0  0  0
   32.0040   29.8200   33.5600 C   0  0  0  0  0  0  0  0  0  0  0  0
   33.1030   29.2380   32.9240 C   0  0  0  0  0  0  0  0  0  0  0  0
   34.3680   29.7830   32.9980 C   0  0  0  0  0  0  0  0  0  0  0  0
   34.4940   30.9350   33.7320 N   0  0  0  0  0  0  0  0  0  0  0  0
   33.4300   31.4930   34.3420 C   0  0  0  0  0  0  0  0  0  0  0  0
   32.2170   30.9520   34.2610 N   0  0  0  0  0  0  0  0  0  0  0  0
   31.0220   29.3620   33.4800 H   0  0  0  0  0  0  0  0  0  0  0  0
   32.9490   28.3270   32.3580 H   0  0  0  0  0  0  0  0  0  0  0  0
   33.6720   32.3990   34.8870 H   0  0  0  0  0  0  0  0  0  0  0  0
   37.9500   25.6420   33.5060 C   0  0  0  0  0  0  0  0  0  0  0  0
   36.9190   25.3430   32.8140 O   0  0  0  0  0  0  0  0  0  0  0  0
   38.3400   27.0210   33.4230 N   0  0  0  0  0  0  0  0  0  0  0  0
   39.1840   27.3000   33.9750 H   0  0  0  0  0  0  0  0  0  0  0  0
   40.1320   23.8040   33.0850 H   0  0  0  0  0  0  0  0  0  0  0  0
   39.7350   23.8660   34.0480 N   0  0  0  0  0  0  0  0  0  0  0  0
   38.7130   24.7000   34.3330 C   0  0  0  0  0  0  0  0  0  0  0  0
   38.4180   24.5610   35.6530 N   0  0  0  0  0  0  0  0  0  0  0  0
   39.2190   23.6670   36.2190 C   0  0  0  0  0  0  0  0  0  0  0  0
   39.4400   23.0900   37.4520 C   0  0  0  0  0  0  0  0  0  0  0  0
   38.7880   23.4310   38.2590 H   0  0  0  0  0  0  0  0  0  0  0  0
   40.4060   22.1520   37.6740 N   0  0  0  0  0  0  0  0  0  0  0  0
   41.1970   21.7580   36.6330 C   0  0  0  0  0  0  0  0  0  0  0  0
   41.9360   21.0130   36.8930 H   0  0  0  0  0  0  0  0  0  0  0  0
   41.0150   22.2960   35.4100 N   0  0  0  0  0  0  0  0  0  0  0  0
   40.0520   23.2310   35.1930 C   0  0  0  0  0  0  0  0  0  0  0  0
  2  1  1  0  0  0  0
  3 13  1  0  0  0  0
  3  2  2  0  0  0  0
  4  3  1  0  0  0  0
  5  4  2  0  0  0  0
  5  6  1  0  0  0  0
  6  7  2  0  0  0  0
  7  2  1  0  0  0  0
  7 22  1  0  0  0  0
  8  4  1  0  0  0  0
  9  5  1  0  0  0  0
 10  6  1  0  0  0  0
 11 16  1  0  0  0  0
 12 13  1  0  0  0  0
 12 11  2  0  0  0  0
 13 14  2  0  0  0  0
 14 15  1  0  0  0  0
 15 19  1  0  0  0  0
 16 15  2  0  0  0  0
 17 11  1  0  0  0  0
 18 12  1  0  0  0  0
 20 26  1  0  0  0  0
 21 20  2  0  0  0  0
 22 20  1  0  0  0  0
 22 23  1  0  0  0  0
 24 25  1  0  0  0  0
 25 26  1  0  0  0  0
 25 35  1  0  0  0  0
 26 27  2  0  0  0  0
 27 28  1  0  0  0  0
 28 29  1  0  0  0  0
 29 31  2  0  0  0  0
 29 30  1  0  0  0  0
 32 33  1  0  0  0  0
 32 31  1  0  0  0  0
 34 32  2  0  0  0  0
 35 34  1  0  0  0  0
 35 28  2  0  0  0  0
M  END
>  <minimizedAffinity>
-5.44085503

$$$$

 OpenBabel03272503073D

 35 38  0  0  0  0  0  0  0  0999 V2000
   38.2290   27.0730   31.5420 F   0  0  0  0  0  0  0  0  0  0  0  0
   37.3850   27.7490   32.3520 C   0  0  0  0  0  0  0  0  0  0  0  0
   36.8180   28.9250   31.9120 C   0  0  0  0  0  0  0  0  0  0  0  0
   35.9740   29.5600   32.7770 C   0  0  0  0  0  0  0  0  0  0  0  0
   35.6820   29.0740   34.0360 C   0  0  0  0  0  0  0  0  0  0  0  0
   36.2680   27.8870   34.4530 C   0  0  0  0  0  0  0  0  0  0  0  0
   37.1330   27.2160   33.5920 C   0  0  0  0  0  0  0  0  0  0  0  0
   35.5160   30.4860   32.4580 H   0  0  0  0  0  0  0  0  0  0  0  0
   35.0110   29.5870   34.7140 H   0  0  0  0  0  0  0  0  0  0  0  0
   36.0800   27.4560   35.4210 H   0  0  0  0  0  0  0  0  0  0  0  0
   37.8790   29.0150   28.2840 C   0  0  0  0  0  0  0  0  0  0  0  0
   37.5550   28.5470   29.5600 C   0  0  0  0  0  0  0  0  0  0  0  0
   37.1610   29.3940   30.5750 C   0  0  0  0  0  0  0  0  0  0  0  0
   37.1030   30.7300   30.2670 N   0  0  0  0  0  0  0  0  0  0  0  0
   37.4170   31.1750   29.0340 C   0  0  0  0  0  0  0  0  0  0  0  0
   37.7950   30.3430   28.0670 N   0  0  0  0  0  0  0  0  0  0  0  0
   38.1860   28.3180   27.5090 H   0  0  0  0  0  0  0  0  0  0  0  0
   37.6170   27.4820   29.7500 H   0  0  0  0  0  0  0  0  0  0  0  0
   37.3280   32.2510   28.9300 H   0  0  0  0  0  0  0  0  0  0  0  0
   38.8480   26.1660   34.9000 C   0  0  0  0  0  0  0  0  0  0  0  0
   39.0910   27.3810   35.2090 O   0  0  0  0  0  0  0  0  0  0  0  0
   37.7490   25.9940   33.9910 N   0  0  0  0  0  0  0  0  0  0  0  0
   37.5200   25.0100   33.7200 H   0  0  0  0  0  0  0  0  0  0  0  0
   38.2690   23.8970   36.5820 H   0  0  0  0  0  0  0  0  0  0  0  0
   39.2350   23.9730   36.1950 N   0  0  0  0  0  0  0  0  0  0  0  0
   39.5910   25.0040   35.3990 C   0  0  0  0  0  0  0  0  0  0  0  0
   40.8950   24.8310   35.0550 N   0  0  0  0  0  0  0  0  0  0  0  0
   41.3810   23.7260   35.6060 C   0  0  0  0  0  0  0  0  0  0  0  0
   42.5610   23.0120   35.6580 C   0  0  0  0  0  0  0  0  0  0  0  0
   43.3950   23.4330   35.0930 H   0  0  0  0  0  0  0  0  0  0  0  0
   42.7010   21.8530   36.3650 N   0  0  0  0  0  0  0  0  0  0  0  0
   41.6280   21.3670   37.0560 C   0  0  0  0  0  0  0  0  0  0  0  0
   41.8230   20.4470   37.5880 H   0  0  0  0  0  0  0  0  0  0  0  0
   40.4560   22.0320   37.0330 N   0  0  0  0  0  0  0  0  0  0  0  0
   40.3200   23.1880   36.3270 C   0  0  0  0  0  0  0  0  0  0  0  0
  1  2  1  0  0  0  0
  2  7  1  0  0  0  0
  3  2  2  0  0  0  0
  3  4  1  0  0  0  0
  4  5  2  0  0  0  0
  5  6  1  0  0  0  0
  5  9  1  0  0  0  0
  6 10  1  0  0  0  0
  7 22  1  0  0  0  0
  7  6  2  0  0  0  0
  8  4  1  0  0  0  0
 11 12  1  0  0  0  0
 12 18  1  0  0  0  0
 12 13  2  0  0  0  0
 13  3  1  0  0  0  0
 14 13  1  0  0  0  0
 15 14  2  0  0  0  0
 16 11  2  0  0  0  0
 16 15  1  0  0  0  0
 17 11  1  0  0  0  0
 19 15  1  0  0  0  0
 20 21  2  0  0  0  0
 20 26  1  0  0  0  0
 22 20  1  0  0  0  0
 23 22  1  0  0  0  0
 25 35  1  0  0  0  0
 25 24  1  0  0  0  0
 26 25  1  0  0  0  0
 27 26  2  0  0  0  0
 27 28  1  0  0  0  0
 28 29  2  0  0  0  0
 28 35  1  0  0  0  0
 29 31  1  0  0  0  0
 30 29  1  0  0  0  0
 31 32  2  0  0  0  0
 32 33  1  0  0  0  0
 34 32  1  0  0  0  0
 35 34  2  0  0  0  0
M  END
>  <minimizedAffinity>
-5.43631554

$$$$

 OpenBabel03272503073D

 35 38  0  0  0  0  0  0  0  0999 V2000
   39.1460   24.8530   34.0780 F   0  0  0  0  0  0  0  0  0  0  0  0
   38.4170   23.8060   33.6320 C   0  0  0  0  0  0  0  0  0  0  0  0
   38.0290   22.8230   34.5160 C   0  0  0  0  0  0  0  0  0  0  0  0
   37.2950   21.7930   34.0030 C   0  0  0  0  0  0  0  0  0  0  0  0
   36.9430   21.7110   32.6700 C   0  0  0  0  0  0  0  0  0  0  0  0
   37.3480   22.7140   31.8030 C   0  0  0  0  0  0  0  0  0  0  0  0
   38.0980   23.7790   32.2970 C   0  0  0  0  0  0  0  0  0  0  0  0
   36.9770   21.0070   34.6750 H   0  0  0  0  0  0  0  0  0  0  0  0
   36.3600   20.8880   32.2740 H   0  0  0  0  0  0  0  0  0  0  0  0
   37.1050   22.7080   30.7550 H   0  0  0  0  0  0  0  0  0  0  0  0
   40.0170   22.6770   37.7290 C   0  0  0  0  0  0  0  0  0  0  0  0
   39.6520   22.5390   36.3870 C   0  0  0  0  0  0  0  0  0  0  0  0
   38.4280   22.9590   35.9120 C   0  0  0  0  0  0  0  0  0  0  0  0
   37.5780   23.5230   36.8290 N   0  0  0  0  0  0  0  0  0  0  0  0
   37.9350   23.6530   38.1230 C   0  0  0  0  0  0  0  0  0  0  0  0
   39.1210   23.2430   38.5630 N   0  0  0  0  0  0  0  0  0  0  0  0
   40.9900   22.3350   38.0680 H   0  0  0  0  0  0  0  0  0  0  0  0
   40.3620   22.0860   35.7040 H   0  0  0  0  0  0  0  0  0  0  0  0
   37.1690   24.1150   38.7360 H   0  0  0  0  0  0  0  0  0  0  0  0
   37.6180   25.9350   31.3610 C   0  0  0  0  0  0  0  0  0  0  0  0
   36.5770   25.8090   32.0890 O   0  0  0  0  0  0  0  0  0  0  0  0
   38.5280   24.8260   31.4300 N   0  0  0  0  0  0  0  0  0  0  0  0
   39.3950   24.8990   30.8500 H   0  0  0  0  0  0  0  0  0  0  0  0
   36.1300   27.6210   29.5550 H   0  0  0  0  0  0  0  0  0  0  0  0
   37.1450   27.8290   29.6810 N   0  0  0  0  0  0  0  0  0  0  0  0
   37.9160   27.0900   30.5070 C   0  0  0  0  0  0  0  0  0  0  0  0
   39.1770   27.5960   30.4630 N   0  0  0  0  0  0  0  0  0  0  0  0
   39.2350   28.6330   29.6360 C   0  0  0  0  0  0  0  0  0  0  0  0
   40.1550   29.5450   29.1610 C   0  0  0  0  0  0  0  0  0  0  0  0
   41.1720   29.4360   29.5460 H   0  0  0  0  0  0  0  0  0  0  0  0
   39.8400   30.5280   28.2690 N   0  0  0  0  0  0  0  0  0  0  0  0
   38.5550   30.6230   27.8180 C   0  0  0  0  0  0  0  0  0  0  0  0
   38.3890   31.4270   27.1150 H   0  0  0  0  0  0  0  0  0  0  0  0
   37.6220   29.7520   28.2550 N   0  0  0  0  0  0  0  0  0  0  0  0
   37.9410   28.7740   29.1440 C   0  0  0  0  0  0  0  0  0  0  0  0
  2  1  1  0  0  0  0
  2  3  1  0  0  0  0
  3 13  1  0  0  0  0
  4  3  2  0  0  0  0
  4  8  1  0  0  0  0
  5  4  1  0  0  0  0
  6  7  1  0  0  0  0
  6  5  2  0  0  0  0
  7  2  2  0  0  0  0
  9  5  1  0  0  0  0
 10  6  1  0  0  0  0
 11 17  1  0  0  0  0
 11 16  1  0  0  0  0
 12 11  2  0  0  0  0
 13 12  1  0  0  0  0
 13 14  2  0  0  0  0
 14 15  1  0  0  0  0
 15 16  2  0  0  0  0
 15 19  1  0  0  0  0
 18 12  1  0  0  0  0
 20 22  1  0  0  0  0
 20 21  2  0  0  0  0
 22  7  1  0  0  0  0
 23 22  1  0  0  0  0
 24 25  1  0  0  0  0
 25 26  1  0  0  0  0
 26 20  1  0  0  0  0
 27 26  2  0  0  0  0
 28 27  1  0  0  0  0
 29 30  1  0  0  0  0
 29 28  1  0  0  0  0
 31 29  2  0  0  0  0
 32 34  2  0  0  0  0
 32 31  1  0  0  0  0
 33 32  1  0  0  0  0
 34 35  1  0  0  0  0
 35 28  2  0  0  0  0
 35 25  1  0  0  0  0
M  END
>  <minimizedAffinity>
-5.3753624

$$$$

 OpenBabel03272503073D

 35 38  0  0  0  0  0  0  0  0999 V2000
   35.7830   28.9690   33.4690 F   0  0  0  0  0  0  0  0  0  0  0  0
   36.2840   28.7800   32.2290 C   0  0  0  0  0  0  0  0  0  0  0  0
   36.1180   29.7570   31.2730 C   0  0  0  0  0  0  0  0  0  0  0  0
   36.6480   29.5060   30.0400 C   0  0  0  0  0  0  0  0  0  0  0  0
   37.3220   28.3390   29.7350 C   0  0  0  0  0  0  0  0  0  0  0  0
   37.4730   27.3710   30.7170 C   0  0  0  0  0  0  0  0  0  0  0  0
   36.9440   27.6000   31.9850 C   0  0  0  0  0  0  0  0  0  0  0  0
   36.5320   30.2560   29.2700 H   0  0  0  0  0  0  0  0  0  0  0  0
   37.7370   28.1500   28.7530 H   0  0  0  0  0  0  0  0  0  0  0  0
   37.9880   26.4430   30.5420 H   0  0  0  0  0  0  0  0  0  0  0  0
   35.3110   33.2180   32.5660 C   0  0  0  0  0  0  0  0  0  0  0  0
   36.0170   32.0640   32.2130 C   0  0  0  0  0  0  0  0  0  0  0  0
   35.3990   30.9690   31.6480 C   0  0  0  0  0  0  0  0  0  0  0  0
   34.0450   31.0680   31.4480 N   0  0  0  0  0  0  0  0  0  0  0  0
   33.3700   32.1830   31.7900 C   0  0  0  0  0  0  0  0  0  0  0  0
   33.9830   33.2300   32.3350 N   0  0  0  0  0  0  0  0  0  0  0  0
   35.8320   34.0610   33.0100 H   0  0  0  0  0  0  0  0  0  0  0  0
   37.0860   32.0390   32.3930 H   0  0  0  0  0  0  0  0  0  0  0  0
   32.3080   32.1250   31.5770 H   0  0  0  0  0  0  0  0  0  0  0  0
   38.3940   26.5830   33.6030 C   0  0  0  0  0  0  0  0  0  0  0  0
   39.2180   27.4280   33.1140 O   0  0  0  0  0  0  0  0  0  0  0  0
   37.0840   26.6250   33.0160 N   0  0  0  0  0  0  0  0  0  0  0  0
   36.3820   25.9490   33.3960 H   0  0  0  0  0  0  0  0  0  0  0  0
   40.3750   24.5380   34.0570 H   0  0  0  0  0  0  0  0  0  0  0  0
   39.6630   24.6900   34.8040 N   0  0  0  0  0  0  0  0  0  0  0  0
   38.7000   25.6280   34.6730 C   0  0  0  0  0  0  0  0  0  0  0  0
   37.9310   25.5930   35.7940 N   0  0  0  0  0  0  0  0  0  0  0  0
   38.3730   24.6650   36.6340 C   0  0  0  0  0  0  0  0  0  0  0  0
   38.0670   24.1440   37.8750 C   0  0  0  0  0  0  0  0  0  0  0  0
   37.2040   24.5880   38.3760 H   0  0  0  0  0  0  0  0  0  0  0  0
   38.7810   23.1380   38.4580 N   0  0  0  0  0  0  0  0  0  0  0  0
   39.8520   22.6160   37.7910 C   0  0  0  0  0  0  0  0  0  0  0  0
   40.3630   21.8250   38.3210 H   0  0  0  0  0  0  0  0  0  0  0  0
   40.1870   23.0950   36.5760 N   0  0  0  0  0  0  0  0  0  0  0  0
   39.4720   24.0980   35.9980 C   0  0  0  0  0  0  0  0  0  0  0  0
  2  1  1  0  0  0  0
  3 13  1  0  0  0  0
  3  2  2  0  0  0  0
  4  3  1  0  0  0  0
  5  4  2  0  0  0  0
  5  6  1  0  0  0  0
  6  7  2  0  0  0  0
  7  2  1  0  0  0  0
  7 22  1  0  0  0  0
  8  4  1  0  0  0  0
  9  5  1  0  0  0  0
 10  6  1  0  0  0  0
 11 17  1  0  0  0  0
 12 18  1  0  0  0  0
 12 11  2  0  0  0  0
 13 12  1  0  0  0  0
 14 13  2  0  0  0  0
 14 15  1  0  0  0  0
 15 16  2  0  0  0  0
 16 11  1  0  0  0  0
 19 15  1  0  0  0  0
 20 26  1  0  0  0  0
 21 20  2  0  0  0  0
 22 23  1  0  0  0  0
 22 20  1  0  0  0  0
 24 25  1  0  0  0  0
 25 35  1  0  0  0  0
 26 25  1  0  0  0  0
 26 27  2  0  0  0  0
 27 28  1  0  0  0  0
 28 29  1  0  0  0  0
 29 30  1  0  0  0  0
 29 31  2  0  0  0  0
 32 33  1  0  0  0  0
 32 31  1  0  0  0  0
 34 32  2  0  0  0  0
 35 34  1  0  0  0  0
 35 28  2  0  0  0  0
M  END
>  <minimizedAffinity>
-5.271945

$$$$

 OpenBabel03272503073D

 35 38  0  0  0  0  0  0  0  0999 V2000
   34.9400   28.2850   32.5090 F   0  0  0  0  0  0  0  0  0  0  0  0
   35.6890   29.0780   31.7100 C   0  0  0  0  0  0  0  0  0  0  0  0
   35.7760   30.4260   31.9800 C   0  0  0  0  0  0  0  0  0  0  0  0
   36.5470   31.1720   31.1360 C   0  0  0  0  0  0  0  0  0  0  0  0
   37.2190   30.6310   30.0570 C   0  0  0  0  0  0  0  0  0  0  0  0
   37.1130   29.2710   29.8090 C   0  0  0  0  0  0  0  0  0  0  0  0
   36.3330   28.4840   30.6530 C   0  0  0  0  0  0  0  0  0  0  0  0
   36.6330   32.2330   31.3240 H   0  0  0  0  0  0  0  0  0  0  0  0
   37.8290   31.2330   29.3940 H   0  0  0  0  0  0  0  0  0  0  0  0
   37.6120   28.7910   28.9860 H   0  0  0  0  0  0  0  0  0  0  0  0
   33.1160   32.0180   34.1460 C   0  0  0  0  0  0  0  0  0  0  0  0
   33.8000   31.5260   33.0310 C   0  0  0  0  0  0  0  0  0  0  0  0
   35.0460   30.9440   33.1310 C   0  0  0  0  0  0  0  0  0  0  0  0
   35.5860   30.8710   34.3910 N   0  0  0  0  0  0  0  0  0  0  0  0
   34.9210   31.3470   35.4630 C   0  0  0  0  0  0  0  0  0  0  0  0
   33.7200   31.9050   35.3460 N   0  0  0  0  0  0  0  0  0  0  0  0
   32.1360   32.4700   34.0290 H   0  0  0  0  0  0  0  0  0  0  0  0
   33.3280   31.6090   32.0580 H   0  0  0  0  0  0  0  0  0  0  0  0
   35.4640   31.2240   36.3940 H   0  0  0  0  0  0  0  0  0  0  0  0
   37.1180   26.2820   31.1910 C   0  0  0  0  0  0  0  0  0  0  0  0
   37.8910   26.9510   31.9560 O   0  0  0  0  0  0  0  0  0  0  0  0
   36.2050   27.0830   30.4240 N   0  0  0  0  0  0  0  0  0  0  0  0
   35.5530   26.5660   29.7890 H   0  0  0  0  0  0  0  0  0  0  0  0
   39.0320   24.2590   30.4410 H   0  0  0  0  0  0  0  0  0  0  0  0
   38.0720   23.9400   30.6990 N   0  0  0  0  0  0  0  0  0  0  0  0
   37.1150   24.8210   31.0620 C   0  0  0  0  0  0  0  0  0  0  0  0
   35.9860   24.1160   31.3380 N   0  0  0  0  0  0  0  0  0  0  0  0
   36.1910   22.8160   31.1620 C   0  0  0  0  0  0  0  0  0  0  0  0
   35.5050   21.6240   31.2620 C   0  0  0  0  0  0  0  0  0  0  0  0
   34.4630   21.7020   31.5790 H   0  0  0  0  0  0  0  0  0  0  0  0
   36.0700   20.4130   30.9860 N   0  0  0  0  0  0  0  0  0  0  0  0
   37.3770   20.3670   30.5920 C   0  0  0  0  0  0  0  0  0  0  0  0
   37.7470   19.3720   30.3940 H   0  0  0  0  0  0  0  0  0  0  0  0
   38.0860   21.5090   30.4810 N   0  0  0  0  0  0  0  0  0  0  0  0
   37.5180   22.7140   30.7560 C   0  0  0  0  0  0  0  0  0  0  0  0
  2  3  1  0  0  0  0
  2  1  1  0  0  0  0
  3 13  1  0  0  0  0
  4  8  1  0  0  0  0
  4  3  2  0  0  0  0
  5  4  1  0  0  0  0
  6  5  2  0  0  0  0
  6  7  1  0  0  0  0
  7  2  2  0  0  0  0
  9  5  1  0  0  0  0
 10  6  1  0  0  0  0
 11 16  1  0  0  0  0
 12 13  1  0  0  0  0
 12 11  2  0  0  0  0
 13 14  2  0  0  0  0
 14 15  1  0  0  0  0
 15 19  1  0  0  0  0
 16 15  2  0  0  0  0
 17 11  1  0  0  0  0
 18 12  1  0  0  0  0
 20 21  2  0  0  0  0
 22  7  1  0  0  0  0
 22 20  1  0  0  0  0
 23 22  1  0  0  0  0
 24 25  1  0  0  0  0
 25 35  1  0  0  0  0
 25 26  1  0  0  0  0
 26 20  1  0  0  0  0
 26 27  2  0  0  0  0
 28 29  1  0  0  0  0
 28 27  1  0  0  0  0
 29 30  1  0  0  0  0
 31 29  2  0  0  0  0
 32 31  1  0  0  0  0
 33 32  1  0  0  0  0
 34 32  2  0  0  0  0
 34 35  1  0  0  0  0
 35 28  2  0  0  0  0
M  END
>  <minimizedAffinity>
-5.24579525

$$$$
