
 OpenBabel03272505113D

 42 46  0  0  0  0  0  0  0  0999 V2000
   33.7030   29.2150   44.5090 Cl  0  0  0  0  0  0  0  0  0  0  0  0
   33.7590   27.9700   45.7510 C   0  0  0  0  0  0  0  0  0  0  0  0
   33.9130   28.2140   47.1200 C   0  0  0  0  0  0  0  0  0  0  0  0
   33.9420   27.1640   47.9950 C   0  0  0  0  0  0  0  0  0  0  0  0
   33.8240   25.8770   47.5520 C   0  0  0  0  0  0  0  0  0  0  0  0
   33.6690   25.5770   46.1990 C   0  0  0  0  0  0  0  0  0  0  0  0
   33.6430   26.6490   45.3470 C   0  0  0  0  0  0  0  0  0  0  0  0
   34.0650   27.4540   49.0360 H   0  0  0  0  0  0  0  0  0  0  0  0
   33.8550   25.0930   48.2970 H   0  0  0  0  0  0  0  0  0  0  0  0
   33.5770   24.5540   45.8760 H   0  0  0  0  0  0  0  0  0  0  0  0
   33.4830   26.3610   43.9400 N   0  0  0  0  0  0  0  0  0  0  0  0
   34.3530   26.1490   42.9380 C   0  0  0  0  0  0  0  0  0  0  0  0
   35.4220   26.1850   43.1550 H   0  0  0  0  0  0  0  0  0  0  0  0
   33.6330   25.9230   41.8150 N   0  0  0  0  0  0  0  0  0  0  0  0
   32.3240   25.9990   42.1400 C   0  0  0  0  0  0  0  0  0  0  0  0
   31.2560   25.8320   41.2900 C   0  0  0  0  0  0  0  0  0  0  0  0
   31.3850   25.6140   40.2350 H   0  0  0  0  0  0  0  0  0  0  0  0
   30.0320   25.9560   41.8520 N   0  0  0  0  0  0  0  0  0  0  0  0
   29.8920   26.2290   43.1720 C   0  0  0  0  0  0  0  0  0  0  0  0
   28.8830   26.3220   43.5870 H   0  0  0  0  0  0  0  0  0  0  0  0
   30.9510   26.3860   43.9690 N   0  0  0  0  0  0  0  0  0  0  0  0
   32.2050   26.2750   43.4760 C   0  0  0  0  0  0  0  0  0  0  0  0
   34.0560   29.9600   47.5460 S   0  0  0  0  0  0  0  0  0  0  0  0
   36.3950   30.9210   45.7180 Cl  0  0  0  0  0  0  0  0  0  0  0  0
   36.6940   30.7660   47.4280 C   0  0  0  0  0  0  0  0  0  0  0  0
   37.9620   31.0800   47.8900 C   0  0  0  0  0  0  0  0  0  0  0  0
   38.2080   30.9600   49.2410 C   0  0  0  0  0  0  0  0  0  0  0  0
   37.2150   30.5430   50.0870 C   0  0  0  0  0  0  0  0  0  0  0  0
   35.9570   30.2420   49.5540 C   0  0  0  0  0  0  0  0  0  0  0  0
   35.6440   30.3380   48.2250 C   0  0  0  0  0  0  0  0  0  0  0  0
   39.2070   31.2130   49.5690 H   0  0  0  0  0  0  0  0  0  0  0  0
   37.4210   30.4540   51.1440 H   0  0  0  0  0  0  0  0  0  0  0  0
   35.1920   29.9140   50.2520 H   0  0  0  0  0  0  0  0  0  0  0  0
   40.2050   33.3270   46.0810 C   0  0  0  0  0  0  0  0  0  0  0  0
   40.9130   32.4650   45.1990 C   0  0  0  0  0  0  0  0  0  0  0  0
   40.6010   31.1060   45.2460 C   0  0  0  0  0  0  0  0  0  0  0  0
   39.6450   30.6720   46.1190 N   0  0  0  0  0  0  0  0  0  0  0  0
   39.0040   31.5290   46.9330 C   0  0  0  0  0  0  0  0  0  0  0  0
   39.2860   32.8310   46.9060 N   0  0  0  0  0  0  0  0  0  0  0  0
   40.4260   34.3760   46.0660 H   0  0  0  0  0  0  0  0  0  0  0  0
   41.6600   32.8410   44.5240 H   0  0  0  0  0  0  0  0  0  0  0  0
   41.1130   30.4240   44.5960 H   0  0  0  0  0  0  0  0  0  0  0  0
  1  2  1  0  0  0  0
  2  3  1  0  0  0  0
  3 23  1  0  0  0  0
  3  4  2  0  0  0  0
  4  8  1  0  0  0  0
  5  4  1  0  0  0  0
  5  9  1  0  0  0  0
  6  5  2  0  0  0  0
  7  2  2  0  0  0  0
  7  6  1  0  0  0  0
 10  6  1  0  0  0  0
 11  7  1  0  0  0  0
 12 13  1  0  0  0  0
 12 11  1  0  0  0  0
 14 15  1  0  0  0  0
 14 12  2  0  0  0  0
 15 22  1  0  0  0  0
 16 18  1  0  0  0  0
 16 15  2  0  0  0  0
 17 16  1  0  0  0  0
 18 19  2  0  0  0  0
 19 20  1  0  0  0  0
 19 21  1  0  0  0  0
 22 11  1  0  0  0  0
 22 21  2  0  0  0  0
 23 30  1  0  0  0  0
 24 25  1  0  0  0  0
 25 26  2  0  0  0  0
 25 30  1  0  0  0  0
 26 27  1  0  0  0  0
 27 31  1  0  0  0  0
 27 28  2  0  0  0  0
 28 32  1  0  0  0  0
 29 28  1  0  0  0  0
 29 33  1  0  0  0  0
 30 29  2  0  0  0  0
 34 39  1  0  0  0  0
 35 36  1  0  0  0  0
 35 34  2  0  0  0  0
 36 37  2  0  0  0  0
 37 38  1  0  0  0  0
 38 26  1  0  0  0  0
 39 38  2  0  0  0  0
 40 34  1  0  0  0  0
 41 35  1  0  0  0  0
 42 36  1  0  0  0  0
M  END
>  <minimizedAffinity>
-5.61537361

>  <minimizedRMSD>
0.888069689

$$$$
