
 OpenBabel03272508083D

 27 29  0  0  0  0  0  0  0  0999 V2000
   38.9180   32.9620   48.1650 O   0  0  0  0  0  0  0  0  0  0  0  0
   38.6610   31.8790   47.1610 P   0  0  2  0  0  0  0  0  0  0  0  0
   37.5680   32.4470   45.9790 O   0  0  0  0  0  0  0  0  0  0  0  0
   37.5280   33.4250   46.0290 H   0  0  0  0  0  0  0  0  0  0  0  0
   38.1510   30.4210   47.8140 O   0  0  0  0  0  0  0  0  0  0  0  0
   37.3100   30.2190   51.4130 C   0  0  0  0  0  0  0  0  0  0  0  0
   38.0550   30.5830   50.2870 C   0  0  0  0  0  0  0  0  0  0  0  0
   37.5990   30.1860   49.0390 C   0  0  0  0  0  0  0  0  0  0  0  0
   36.4390   29.4550   48.9670 N   0  0  0  0  0  0  0  0  0  0  0  0
   35.7540   29.1260   50.0850 C   0  0  0  0  0  0  0  0  0  0  0  0
   36.1880   29.5070   51.2980 N   0  0  0  0  0  0  0  0  0  0  0  0
   37.6910   30.5420   52.3600 H   0  0  0  0  0  0  0  0  0  0  0  0
   38.9610   31.1470   50.2710 H   0  0  0  0  0  0  0  0  0  0  0  0
   34.8300   28.5410   49.9870 H   0  0  0  0  0  0  0  0  0  0  0  0
   40.1210   31.6160   46.3300 O   0  0  0  0  0  0  0  0  0  0  0  0
   38.6100   29.4140   45.5080 H   0  0  0  0  0  0  0  0  0  0  0  0
   39.2930   29.8260   44.8350 N   0  0  0  0  0  0  0  0  0  0  0  0
   40.0750   30.8940   45.1330 C   0  0  0  0  0  0  0  0  0  0  0  0
   40.7900   31.0860   44.0060 N   0  0  0  0  0  0  0  0  0  0  0  0
   40.4820   30.2020   43.0620 C   0  0  0  0  0  0  0  0  0  0  0  0
   40.8570   29.9110   41.7660 C   0  0  0  0  0  0  0  0  0  0  0  0
   41.6130   30.5250   41.3040 H   0  0  0  0  0  0  0  0  0  0  0  0
   40.3140   28.8980   41.0760 N   0  0  0  0  0  0  0  0  0  0  0  0
   39.3610   28.1260   41.6620 C   0  0  0  0  0  0  0  0  0  0  0  0
   38.9080   27.2930   41.1040 H   0  0  0  0  0  0  0  0  0  0  0  0
   38.9590   28.3700   42.9240 N   0  0  0  0  0  0  0  0  0  0  0  0
   39.5160   29.3890   43.5980 C   0  0  0  0  0  0  0  0  0  0  0  0
  2  5  1  0  0  0  0
  2  1  2  1  0  0  0
  3  4  1  0  0  0  0
  3  2  1  0  0  0  0
  5  8  1  0  0  0  0
  6 12  1  0  0  0  0
  7  6  2  0  0  0  0
  8  7  1  0  0  0  0
  9  8  2  0  0  0  0
  9 10  1  0  0  0  0
 10 11  2  0  0  0  0
 11  6  1  0  0  0  0
 13  7  1  0  0  0  0
 14 10  1  0  0  0  0
 15  2  1  0  0  0  0
 17 18  1  0  0  0  0
 17 16  1  0  0  0  0
 18 15  1  0  0  0  0
 19 18  2  0  0  0  0
 20 27  1  0  0  0  0
 20 19  1  0  0  0  0
 21 20  2  0  0  0  0
 22 21  1  0  0  0  0
 23 24  2  0  0  0  0
 23 21  1  0  0  0  0
 24 26  1  0  0  0  0
 25 24  1  0  0  0  0
 26 27  2  0  0  0  0
 27 17  1  0  0  0  0
M  END
>  <minimizedAffinity>
-5.75321674

>  <minimizedRMSD>
1.08079982

$$$$
