
 OpenBabel03272508113D

 37 40  0  0  0  0  0  0  0  0999 V2000
   36.7020   29.5650   44.0890 Cl  0  0  0  0  0  0  0  0  0  0  0  0
   38.3500   29.9280   43.5530 C   0  0  0  0  0  0  0  0  0  0  0  0
   39.3550   30.3870   44.4040 C   0  0  0  0  0  0  0  0  0  0  0  0
   40.5950   30.6320   43.8550 C   0  0  0  0  0  0  0  0  0  0  0  0
   40.8220   30.4250   42.5130 C   0  0  0  0  0  0  0  0  0  0  0  0
   39.8430   29.9730   41.6640 C   0  0  0  0  0  0  0  0  0  0  0  0
   38.6050   29.7260   42.1950 C   0  0  0  0  0  0  0  0  0  0  0  0
   41.3100   30.9860   44.5890 H   0  0  0  0  0  0  0  0  0  0  0  0
   41.8210   30.6370   42.1470 H   0  0  0  0  0  0  0  0  0  0  0  0
   40.0580   29.8210   40.6040 H   0  0  0  0  0  0  0  0  0  0  0  0
   37.6010   29.2570   41.3010 N   0  0  0  0  0  0  0  0  0  0  0  0
   37.3770   27.9720   40.9340 C   0  0  0  0  0  0  0  0  0  0  0  0
   37.9220   27.0820   41.2580 H   0  0  0  0  0  0  0  0  0  0  0  0
   36.3450   27.8850   40.0710 N   0  0  0  0  0  0  0  0  0  0  0  0
   35.8750   29.1430   39.8620 C   0  0  0  0  0  0  0  0  0  0  0  0
   34.8630   29.7180   39.1090 C   0  0  0  0  0  0  0  0  0  0  0  0
   34.2430   29.0610   38.5060 H   0  0  0  0  0  0  0  0  0  0  0  0
   34.6810   31.0660   39.1500 N   0  0  0  0  0  0  0  0  0  0  0  0
   35.4520   31.8720   39.8990 C   0  0  0  0  0  0  0  0  0  0  0  0
   35.3140   32.9480   39.9380 H   0  0  0  0  0  0  0  0  0  0  0  0
   36.4260   31.2740   40.6180 N   0  0  0  0  0  0  0  0  0  0  0  0
   36.6700   29.9680   40.6350 C   0  0  0  0  0  0  0  0  0  0  0  0
   38.9250   30.5260   45.6920 O   0  0  0  0  0  0  0  0  0  0  0  0
   39.4510   32.5600   47.1980 O   0  0  0  0  0  0  0  0  0  0  0  0
   38.3390   31.8740   46.4830 P   0  0  1  0  0  0  0  0  0  0  0  0
   37.7590   32.8920   45.2360 O   0  0  0  0  0  0  0  0  0  0  0  0
   38.3910   33.6430   45.1160 H   0  0  0  0  0  0  0  0  0  0  0  0
   37.0430   31.4250   47.4850 O   0  0  0  0  0  0  0  0  0  0  0  0
   37.5940   30.5180   51.0160 C   0  0  0  0  0  0  0  0  0  0  0  0
   37.7030   31.3070   49.8650 C   0  0  0  0  0  0  0  0  0  0  0  0
   37.0740   30.8420   48.7010 C   0  0  0  0  0  0  0  0  0  0  0  0
   36.3960   29.6570   48.7540 N   0  0  0  0  0  0  0  0  0  0  0  0
   36.3220   28.9390   49.8860 C   0  0  0  0  0  0  0  0  0  0  0  0
   36.9150   29.3600   51.0150 N   0  0  0  0  0  0  0  0  0  0  0  0
   38.1050   30.9310   51.8950 H   0  0  0  0  0  0  0  0  0  0  0  0
   38.2140   32.2320   49.7640 H   0  0  0  0  0  0  0  0  0  0  0  0
   35.7870   27.9970   49.9390 H   0  0  0  0  0  0  0  0  0  0  0  0
  2  1  1  0  0  0  0
  2  3  1  0  0  0  0
  3 23  1  0  0  0  0
  4  3  2  0  0  0  0
  4  8  1  0  0  0  0
  5  4  1  0  0  0  0
  6  7  1  0  0  0  0
  6  5  2  0  0  0  0
  7  2  2  0  0  0  0
  9  5  1  0  0  0  0
 10  6  1  0  0  0  0
 11  7  1  0  0  0  0
 12 13  1  0  0  0  0
 12 11  1  0  0  0  0
 14 12  2  0  0  0  0
 15 14  1  0  0  0  0
 15 22  1  0  0  0  0
 16 18  1  0  0  0  0
 16 15  2  0  0  0  0
 17 16  1  0  0  0  0
 18 19  2  0  0  0  0
 19 20  1  0  0  0  0
 19 21  1  0  0  0  0
 21 22  2  0  0  0  0
 22 11  1  0  0  0  0
 23 25  1  0  0  0  0
 25 24  2  1  0  0  0
 25 28  1  0  0  0  0
 26 25  1  0  0  0  0
 27 26  1  0  0  0  0
 28 31  1  0  0  0  0
 29 35  1  0  0  0  0
 30 29  2  0  0  0  0
 31 32  2  0  0  0  0
 31 30  1  0  0  0  0
 32 33  1  0  0  0  0
 33 37  1  0  0  0  0
 33 34  2  0  0  0  0
 34 29  1  0  0  0  0
 36 30  1  0  0  0  0
M  END
>  <minimizedAffinity>
-4.93610477

>  <minimizedRMSD>
1.42247117

$$$$
