
 OpenBabel03272503323D

 44 48  0  0  1  0  0  0  0  0999 V2000
   34.8060   29.4150   47.9600 C   0  0  0  0  0  0  0  0  0  0  0  0
   34.5380   30.2310   46.8500 C   0  0  0  0  0  0  0  0  0  0  0  0
   33.3490   29.9980   46.1540 C   0  0  0  0  0  0  0  0  0  0  0  0
   32.5330   28.9870   46.6150 N   0  0  0  0  0  0  0  0  0  0  0  0
   32.8280   28.2390   47.6730 C   0  0  0  0  0  0  0  0  0  0  0  0
   33.9670   28.4490   48.3510 N   0  0  0  0  0  0  0  0  0  0  0  0
   35.1830   31.0210   46.4950 H   0  0  0  0  0  0  0  0  0  0  0  0
   33.0620   30.5750   45.2900 H   0  0  0  0  0  0  0  0  0  0  0  0
   36.0310   29.6590   48.6710 N   0  0  0  0  0  0  0  0  0  0  0  0
   37.1780   30.3700   48.1930 C   0  0  0  0  0  0  0  0  0  0  0  0
   37.7830   30.9180   49.4830 C   0  0  2  0  0  0  0  0  0  0  0  0
   36.8120   30.5480   50.5960 C   0  0  0  0  0  0  0  0  0  0  0  0
   36.3360   29.2240   50.0220 C   0  0  0  0  0  0  0  0  0  0  0  0
   37.9200   29.7220   47.6830 H   0  0  0  0  0  0  0  0  0  0  0  0
   36.8470   31.2250   47.5970 H   0  0  0  0  0  0  0  0  0  0  0  0
   38.7350   30.3910   49.7050 H   0  0  0  0  0  0  0  0  0  0  0  0
   37.3000   30.4350   51.5620 H   0  0  0  0  0  0  0  0  0  0  0  0
   35.9500   31.2350   50.5870 H   0  0  0  0  0  0  0  0  0  0  0  0
   35.4390   28.8720   50.5630 H   0  0  0  0  0  0  0  0  0  0  0  0
   37.1510   28.4840   50.0230 H   0  0  0  0  0  0  0  0  0  0  0  0
   38.0270   32.3980   49.4240 C   0  0  0  0  0  0  0  0  0  0  0  0
   36.9170   33.0060   49.9730 F   0  0  0  0  0  0  0  0  0  0  0  0
   38.0450   32.7470   48.0860 F   0  0  0  0  0  0  0  0  0  0  0  0
   39.1820   32.7860   50.0410 F   0  0  0  0  0  0  0  0  0  0  0  0
   31.7290   26.9480   48.2150 S   0  0  0  0  0  0  0  0  0  0  0  0
   30.2900   27.3890   48.9670 C   0  0  0  0  0  0  0  0  0  0  0  0
   29.6560   27.3360   50.1720 C   0  0  0  0  0  0  0  0  0  0  0  0
   28.4130   27.8160   50.4300 C   0  0  0  0  0  0  0  0  0  0  0  0
   27.7710   28.4330   49.2360 C   0  0  0  0  0  0  0  0  0  0  0  0
   29.0100   28.2510   47.9110 S   0  0  0  0  0  0  0  0  0  0  0  0
   30.2820   26.8550   50.9060 H   0  0  0  0  0  0  0  0  0  0  0  0
   27.9260   27.7670   51.3830 H   0  0  0  0  0  0  0  0  0  0  0  0
   26.5040   28.9790   49.2960 N   0  0  0  0  0  0  0  0  0  0  0  0
   25.3370   28.5770   49.8780 C   0  0  0  0  0  0  0  0  0  0  0  0
   25.2680   27.6460   50.4400 H   0  0  0  0  0  0  0  0  0  0  0  0
   24.3990   29.5050   49.6180 N   0  0  0  0  0  0  0  0  0  0  0  0
   24.9360   30.5010   48.8790 C   0  0  0  0  0  0  0  0  0  0  0  0
   24.3230   31.6390   48.4000 C   0  0  0  0  0  0  0  0  0  0  0  0
   23.2770   31.8440   48.5930 H   0  0  0  0  0  0  0  0  0  0  0  0
   25.0910   32.4990   47.6710 N   0  0  0  0  0  0  0  0  0  0  0  0
   26.3990   32.1680   47.4730 C   0  0  0  0  0  0  0  0  0  0  0  0
   27.0910   32.7990   46.9000 H   0  0  0  0  0  0  0  0  0  0  0  0
   26.9820   31.0530   47.9480 N   0  0  0  0  0  0  0  0  0  0  0  0
   26.2610   30.1710   48.6760 C   0  0  0  0  0  0  0  0  0  0  0  0
  1  6  1  0  0  0  0
  1  9  1  0  0  0  0
  2  1  2  0  0  0  0
  3  4  2  0  0  0  0
  3  2  1  0  0  0  0
  4  5  1  0  0  0  0
  5 25  1  0  0  0  0
  5  6  2  0  0  0  0
  7  2  1  0  0  0  0
  8  3  1  0  0  0  0
  9 13  1  0  0  0  0
 10  9  1  0  0  0  0
 10 11  1  0  0  0  0
 11 16  1  1  0  0  0
 11 12  1  0  0  0  0
 12 17  1  0  0  0  0
 13 20  1  0  0  0  0
 13 19  1  0  0  0  0
 13 12  1  0  0  0  0
 14 10  1  0  0  0  0
 15 10  1  0  0  0  0
 18 12  1  0  0  0  0
 21 11  1  0  0  0  0
 21 22  1  0  0  0  0
 21 24  1  0  0  0  0
 23 21  1  0  0  0  0
 25 26  1  0  0  0  0
 26 27  2  0  0  0  0
 27 28  1  0  0  0  0
 27 31  1  0  0  0  0
 28 32  1  0  0  0  0
 29 33  1  0  0  0  0
 29 28  2  0  0  0  0
 30 26  1  0  0  0  0
 30 29  1  0  0  0  0
 33 34  1  0  0  0  0
 34 35  1  0  0  0  0
 36 34  2  0  0  0  0
 37 36  1  0  0  0  0
 38 39  1  0  0  0  0
 38 37  2  0  0  0  0
 40 38  1  0  0  0  0
 41 40  2  0  0  0  0
 41 43  1  0  0  0  0
 42 41  1  0  0  0  0
 43 44  2  0  0  0  0
 44 37  1  0  0  0  0
 44 33  1  0  0  0  0
M  END
>  <minimizedAffinity>
-7.64338875

>  <minimizedRMSD>
0.944079757

$$$$
