
 OpenBabel03272504393D

 45 48  0  0  0  0  0  0  0  0999 V2000
   34.8210   29.3310   48.8660 C   0  0  0  0  0  0  0  0  0  0  0  0
   35.7490   29.2500   49.4730 H   0  0  0  0  0  0  0  0  0  0  0  0
   34.2830   30.2080   49.3340 H   0  0  0  0  0  0  0  0  0  0  0  0
   37.5620   30.4150   48.5370 Cl  0  0  0  0  0  0  0  0  0  0  0  0
   36.4040   30.2620   47.2170 C   0  0  0  0  0  0  0  0  0  0  0  0
   36.7650   30.6630   45.9660 C   0  0  0  0  0  0  0  0  0  0  0  0
   35.8760   30.5520   44.9320 C   0  0  0  0  0  0  0  0  0  0  0  0
   34.6200   30.0310   45.1820 C   0  0  0  0  0  0  0  0  0  0  0  0
   34.3000   29.6340   46.4810 C   0  0  0  0  0  0  0  0  0  0  0  0
   35.1700   29.7370   47.5230 C   0  0  0  0  0  0  0  0  0  0  0  0
   36.2050   30.8860   43.9410 H   0  0  0  0  0  0  0  0  0  0  0  0
   33.9980   29.9870   44.2940 H   0  0  0  0  0  0  0  0  0  0  0  0
   33.3300   29.2740   46.4640 H   0  0  0  0  0  0  0  0  0  0  0  0
   39.7580   32.8280   46.0060 C   0  0  0  0  0  0  0  0  0  0  0  0
   40.6230   32.1110   45.1340 C   0  0  0  0  0  0  0  0  0  0  0  0
   40.1440   30.9230   44.5740 C   0  0  0  0  0  0  0  0  0  0  0  0
   38.8870   30.4970   44.8760 N   0  0  0  0  0  0  0  0  0  0  0  0
   38.0920   31.2130   45.7150 C   0  0  0  0  0  0  0  0  0  0  0  0
   38.5320   32.3510   46.2590 N   0  0  0  0  0  0  0  0  0  0  0  0
   40.0900   33.7470   46.4560 H   0  0  0  0  0  0  0  0  0  0  0  0
   41.5790   32.5560   44.9850 H   0  0  0  0  0  0  0  0  0  0  0  0
   41.0230   30.2320   43.7140 N   0  0  0  0  0  0  0  0  0  0  0  0
   41.8500   29.8940   44.2510 H   0  0  0  0  0  0  0  0  0  0  0  0
   40.5560   30.2720   42.7610 H   0  0  0  0  0  0  0  0  0  0  0  0
   34.0160   28.1330   49.0640 C   0  0  0  0  0  0  0  0  0  0  0  0
   33.9740   27.5550   48.0980 H   0  0  0  0  0  0  0  0  0  0  0  0
   34.4480   27.4250   49.8120 H   0  0  0  0  0  0  0  0  0  0  0  0
   32.7420   28.4310   49.4760 O   0  0  0  0  0  0  0  0  0  0  0  0
   32.2080   26.3970   47.8980 O   0  0  0  0  0  0  0  0  0  0  0  0
   31.6080   27.6230   48.5400 P   0  0  2  0  0  0  0  0  0  0  0  0
   31.0620   28.7440   47.3600 O   0  0  0  0  0  0  0  0  0  0  0  0
   30.8640   29.5800   47.8720 H   0  0  0  0  0  0  0  0  0  0  0  0
   30.2690   27.1740   49.4290 O   0  0  0  0  0  0  0  0  0  0  0  0
   29.7790   29.9750   49.2770 H   0  0  0  0  0  0  0  0  0  0  0  0
   29.0080   29.2720   49.2710 N   0  0  0  0  0  0  0  0  0  0  0  0
   29.0870   27.9130   49.3360 C   0  0  0  0  0  0  0  0  0  0  0  0
   27.8170   27.4700   49.2920 N   0  0  0  0  0  0  0  0  0  0  0  0
   26.9450   28.4840   49.2020 C   0  0  0  0  0  0  0  0  0  0  0  0
   25.5620   28.4890   49.1320 C   0  0  0  0  0  0  0  0  0  0  0  0
   25.0500   27.5250   49.1500 H   0  0  0  0  0  0  0  0  0  0  0  0
   24.9360   29.6760   49.0460 N   0  0  0  0  0  0  0  0  0  0  0  0
   25.6900   30.8000   49.0340 C   0  0  0  0  0  0  0  0  0  0  0  0
   25.1930   31.7610   48.9650 H   0  0  0  0  0  0  0  0  0  0  0  0
   27.0300   30.7920   49.1010 N   0  0  0  0  0  0  0  0  0  0  0  0
   27.7160   29.6410   49.1880 C   0  0  0  0  0  0  0  0  0  0  0  0
  1 25  1  0  0  0  0
  1  3  1  0  0  0  0
  1  2  1  0  0  0  0
  5 10  1  0  0  0  0
  5  4  1  0  0  0  0
  6  5  2  0  0  0  0
  7  8  2  0  0  0  0
  7  6  1  0  0  0  0
  8  9  1  0  0  0  0
  9 10  2  0  0  0  0
 10  1  1  0  0  0  0
 11  7  1  0  0  0  0
 12  8  1  0  0  0  0
 13  9  1  0  0  0  0
 14 19  1  0  0  0  0
 14 20  1  0  0  0  0
 15 14  2  0  0  0  0
 16 17  2  0  0  0  0
 16 15  1  0  0  0  0
 17 18  1  0  0  0  0
 18  6  1  0  0  0  0
 18 19  2  0  0  0  0
 21 15  1  0  0  0  0
 22 23  1  0  0  0  0
 22 16  1  0  0  0  0
 24 22  1  0  0  0  0
 25 28  1  0  0  0  0
 25 27  1  0  0  0  0
 26 25  1  0  0  0  0
 30 29  2  6  0  0  0
 30 33  1  0  0  0  0
 30 28  1  0  0  0  0
 31 32  1  0  0  0  0
 31 30  1  0  0  0  0
 35 34  1  0  0  0  0
 35 36  1  0  0  0  0
 36 33  1  0  0  0  0
 37 36  2  0  0  0  0
 38 37  1  0  0  0  0
 39 40  1  0  0  0  0
 39 38  2  0  0  0  0
 41 39  1  0  0  0  0
 42 41  2  0  0  0  0
 42 44  1  0  0  0  0
 43 42  1  0  0  0  0
 44 45  2  0  0  0  0
 45 38  1  0  0  0  0
 45 35  1  0  0  0  0
M  END
>  <minimizedAffinity>
-7.16954565

>  <minimizedRMSD>
1.7298367

$$$$
