
 OpenBabel03272505113D

 42 46  0  0  0  0  0  0  0  0999 V2000
   33.6580   29.1970   44.4710 Cl  0  0  0  0  0  0  0  0  0  0  0  0
   33.7220   27.9490   45.7090 C   0  0  0  0  0  0  0  0  0  0  0  0
   33.8850   28.1910   47.0780 C   0  0  0  0  0  0  0  0  0  0  0  0
   33.9200   27.1390   47.9500 C   0  0  0  0  0  0  0  0  0  0  0  0
   33.7990   25.8530   47.5060 C   0  0  0  0  0  0  0  0  0  0  0  0
   33.6360   25.5560   46.1530 C   0  0  0  0  0  0  0  0  0  0  0  0
   33.6040   26.6290   45.3040 C   0  0  0  0  0  0  0  0  0  0  0  0
   34.0500   27.4270   48.9910 H   0  0  0  0  0  0  0  0  0  0  0  0
   33.8360   25.0670   48.2490 H   0  0  0  0  0  0  0  0  0  0  0  0
   33.5420   24.5330   45.8290 H   0  0  0  0  0  0  0  0  0  0  0  0
   33.4340   26.3430   43.8970 N   0  0  0  0  0  0  0  0  0  0  0  0
   32.3560   26.2380   43.1010 C   0  0  0  0  0  0  0  0  0  0  0  0
   31.3670   26.3870   43.5350 H   0  0  0  0  0  0  0  0  0  0  0  0
   32.7970   25.9510   41.8540 N   0  0  0  0  0  0  0  0  0  0  0  0
   34.1460   25.8830   41.8980 C   0  0  0  0  0  0  0  0  0  0  0  0
   34.9900   25.6120   40.8470 C   0  0  0  0  0  0  0  0  0  0  0  0
   34.6200   25.4240   39.8440 H   0  0  0  0  0  0  0  0  0  0  0  0
   36.3100   25.5970   41.1400 N   0  0  0  0  0  0  0  0  0  0  0  0
   36.7510   25.8360   42.3980 C   0  0  0  0  0  0  0  0  0  0  0  0
   37.8270   25.8140   42.5930 H   0  0  0  0  0  0  0  0  0  0  0  0
   35.9040   26.0950   43.3970 N   0  0  0  0  0  0  0  0  0  0  0  0
   34.5710   26.1260   43.1780 C   0  0  0  0  0  0  0  0  0  0  0  0
   34.0300   29.9360   47.5070 S   0  0  0  0  0  0  0  0  0  0  0  0
   36.3760   30.9070   45.6920 Cl  0  0  0  0  0  0  0  0  0  0  0  0
   36.6690   30.7420   47.4020 C   0  0  0  0  0  0  0  0  0  0  0  0
   37.9360   31.0530   47.8690 C   0  0  0  0  0  0  0  0  0  0  0  0
   38.1770   30.9240   49.2200 C   0  0  0  0  0  0  0  0  0  0  0  0
   37.1810   30.5030   50.0610 C   0  0  0  0  0  0  0  0  0  0  0  0
   35.9250   30.2050   49.5220 C   0  0  0  0  0  0  0  0  0  0  0  0
   35.6170   30.3090   48.1930 C   0  0  0  0  0  0  0  0  0  0  0  0
   39.1760   31.1750   49.5530 H   0  0  0  0  0  0  0  0  0  0  0  0
   37.3850   30.4070   51.1180 H   0  0  0  0  0  0  0  0  0  0  0  0
   35.1570   29.8720   50.2150 H   0  0  0  0  0  0  0  0  0  0  0  0
   40.1880   33.3090   46.0850 C   0  0  0  0  0  0  0  0  0  0  0  0
   40.8960   32.4530   45.1970 C   0  0  0  0  0  0  0  0  0  0  0  0
   40.5790   31.0950   45.2300 C   0  0  0  0  0  0  0  0  0  0  0  0
   39.6200   30.6560   46.0980 N   0  0  0  0  0  0  0  0  0  0  0  0
   38.9800   31.5070   46.9180 C   0  0  0  0  0  0  0  0  0  0  0  0
   39.2660   32.8090   46.9040 N   0  0  0  0  0  0  0  0  0  0  0  0
   40.4120   34.3580   46.0800 H   0  0  0  0  0  0  0  0  0  0  0  0
   41.6450   32.8330   44.5260 H   0  0  0  0  0  0  0  0  0  0  0  0
   41.0910   30.4180   44.5760 H   0  0  0  0  0  0  0  0  0  0  0  0
  1  2  1  0  0  0  0
  2  3  1  0  0  0  0
  3 23  1  0  0  0  0
  3  4  2  0  0  0  0
  4  8  1  0  0  0  0
  5  4  1  0  0  0  0
  5  9  1  0  0  0  0
  6  5  2  0  0  0  0
  7  2  2  0  0  0  0
  7  6  1  0  0  0  0
 10  6  1  0  0  0  0
 11  7  1  0  0  0  0
 12 13  1  0  0  0  0
 12 11  1  0  0  0  0
 14 15  1  0  0  0  0
 14 12  2  0  0  0  0
 15 22  1  0  0  0  0
 16 18  1  0  0  0  0
 16 15  2  0  0  0  0
 17 16  1  0  0  0  0
 18 19  2  0  0  0  0
 19 20  1  0  0  0  0
 19 21  1  0  0  0  0
 22 21  2  0  0  0  0
 22 11  1  0  0  0  0
 23 30  1  0  0  0  0
 24 25  1  0  0  0  0
 25 26  2  0  0  0  0
 25 30  1  0  0  0  0
 26 27  1  0  0  0  0
 27 31  1  0  0  0  0
 27 28  2  0  0  0  0
 28 32  1  0  0  0  0
 29 28  1  0  0  0  0
 29 33  1  0  0  0  0
 30 29  2  0  0  0  0
 34 39  1  0  0  0  0
 35 36  1  0  0  0  0
 35 34  2  0  0  0  0
 36 37  2  0  0  0  0
 37 38  1  0  0  0  0
 38 26  1  0  0  0  0
 39 38  2  0  0  0  0
 40 34  1  0  0  0  0
 41 35  1  0  0  0  0
 42 36  1  0  0  0  0
M  END
>  <minimizedAffinity>
-5.7183404

>  <minimizedRMSD>
0.629479706

$$$$
