
 OpenBabel03272506563D

 23 25  0  0  0  0  0  0  0  0999 V2000
   40.6360   23.6030   35.8330 C   0  0  0  0  0  0  0  0  0  0  0  0
   39.9050   22.5000   36.3110 C   0  0  0  0  0  0  0  0  0  0  0  0
   38.5480   22.4310   35.8960 C   0  0  0  0  0  0  0  0  0  0  0  0
   38.0640   23.4170   35.0840 N   0  0  0  0  0  0  0  0  0  0  0  0
   38.8200   24.4410   34.6670 C   0  0  0  0  0  0  0  0  0  0  0  0
   40.1130   24.5550   35.0290 N   0  0  0  0  0  0  0  0  0  0  0  0
   41.6850   23.6920   36.1300 H   0  0  0  0  0  0  0  0  0  0  0  0
   37.9640   21.6110   36.2370 H   0  0  0  0  0  0  0  0  0  0  0  0
   38.1000   25.3480   33.8260 N   0  0  0  0  0  0  0  0  0  0  0  0
   38.1530   26.6950   33.8200 C   0  0  0  0  0  0  0  0  0  0  0  0
   38.7940   27.2670   34.5010 H   0  0  0  0  0  0  0  0  0  0  0  0
   37.3220   27.1720   32.8770 N   0  0  0  0  0  0  0  0  0  0  0  0
   36.7140   26.1290   32.2560 C   0  0  0  0  0  0  0  0  0  0  0  0
   35.7890   26.1430   31.2300 C   0  0  0  0  0  0  0  0  0  0  0  0
   35.4370   27.0480   30.7980 H   0  0  0  0  0  0  0  0  0  0  0  0
   35.3630   24.9130   30.8190 N   0  0  0  0  0  0  0  0  0  0  0  0
   35.8440   23.7920   31.4050 C   0  0  0  0  0  0  0  0  0  0  0  0
   35.4800   22.8270   31.0510 H   0  0  0  0  0  0  0  0  0  0  0  0
   36.7360   23.8410   32.3890 N   0  0  0  0  0  0  0  0  0  0  0  0
   37.2220   24.9840   32.8740 C   0  0  0  0  0  0  0  0  0  0  0  0
   40.5090   21.5240   37.1570 N   0  0  0  0  0  0  0  0  0  0  0  0
   41.4430   21.1350   36.8430 H   0  0  0  0  0  0  0  0  0  0  0  0
   40.0300   21.2280   38.0350 H   0  0  0  0  0  0  0  0  0  0  0  0
  1  7  1  0  0  0  0
  1  2  1  0  0  0  0
  2 21  1  0  0  0  0
  3  8  1  0  0  0  0
  3  2  2  0  0  0  0
  4  3  1  0  0  0  0
  5  6  1  0  0  0  0
  5  4  2  0  0  0  0
  6  1  2  0  0  0  0
  9  5  1  0  0  0  0
 10  9  1  0  0  0  0
 10 11  1  0  0  0  0
 12 10  2  0  0  0  0
 13 20  1  0  0  0  0
 13 12  1  0  0  0  0
 14 13  2  0  0  0  0
 15 14  1  0  0  0  0
 16 14  1  0  0  0  0
 16 17  2  0  0  0  0
 17 19  1  0  0  0  0
 18 17  1  0  0  0  0
 19 20  2  0  0  0  0
 20  9  1  0  0  0  0
 21 23  1  0  0  0  0
 22 21  1  0  0  0  0
M  END
>  <minimizedAffinity>
-4.68070936

$$$$

 OpenBabel03272506563D

 23 25  0  0  0  0  0  0  0  0999 V2000
   38.1460   22.7030   36.2360 C   0  0  0  0  0  0  0  0  0  0  0  0
   38.2420   23.3810   37.4660 C   0  0  0  0  0  0  0  0  0  0  0  0
   38.2840   24.7990   37.3860 C   0  0  0  0  0  0  0  0  0  0  0  0
   38.2300   25.3850   36.1540 N   0  0  0  0  0  0  0  0  0  0  0  0
   38.1380   24.6750   35.0230 C   0  0  0  0  0  0  0  0  0  0  0  0
   38.0950   23.3280   35.0390 N   0  0  0  0  0  0  0  0  0  0  0  0
   38.1110   21.6100   36.2550 H   0  0  0  0  0  0  0  0  0  0  0  0
   38.3570   25.3470   38.2950 H   0  0  0  0  0  0  0  0  0  0  0  0
   38.0950   25.5020   33.8560 N   0  0  0  0  0  0  0  0  0  0  0  0
   38.7120   25.3040   32.6740 C   0  0  0  0  0  0  0  0  0  0  0  0
   39.3480   24.4340   32.4740 H   0  0  0  0  0  0  0  0  0  0  0  0
   38.4150   26.3140   31.8380 N   0  0  0  0  0  0  0  0  0  0  0  0
   37.5940   27.1880   32.4760 C   0  0  0  0  0  0  0  0  0  0  0  0
   37.0380   28.3630   32.0090 C   0  0  0  0  0  0  0  0  0  0  0  0
   37.2190   28.7220   31.0250 H   0  0  0  0  0  0  0  0  0  0  0  0
   36.2470   29.0240   32.9040 N   0  0  0  0  0  0  0  0  0  0  0  0
   36.0520   28.5210   34.1460 C   0  0  0  0  0  0  0  0  0  0  0  0
   35.4140   29.0770   34.8330 H   0  0  0  0  0  0  0  0  0  0  0  0
   36.6140   27.3820   34.5390 N   0  0  0  0  0  0  0  0  0  0  0  0
   37.4060   26.6520   33.7530 C   0  0  0  0  0  0  0  0  0  0  0  0
   38.2930   22.6710   38.7000 N   0  0  0  0  0  0  0  0  0  0  0  0
   37.5630   21.9170   38.8450 H   0  0  0  0  0  0  0  0  0  0  0  0
   39.0250   22.9040   39.4060 H   0  0  0  0  0  0  0  0  0  0  0  0
  1  7  1  0  0  0  0
  1  2  1  0  0  0  0
  2 21  1  0  0  0  0
  3  2  2  0  0  0  0
  3  8  1  0  0  0  0
  4  3  1  0  0  0  0
  5  6  1  0  0  0  0
  5  4  2  0  0  0  0
  6  1  2  0  0  0  0
  9  5  1  0  0  0  0
 10  9  1  0  0  0  0
 11 10  1  0  0  0  0
 12 13  1  0  0  0  0
 12 10  2  0  0  0  0
 13 20  1  0  0  0  0
 14 13  2  0  0  0  0
 14 16  1  0  0  0  0
 15 14  1  0  0  0  0
 16 17  2  0  0  0  0
 17 19  1  0  0  0  0
 17 18  1  0  0  0  0
 20  9  1  0  0  0  0
 20 19  2  0  0  0  0
 21 22  1  0  0  0  0
 21 23  1  0  0  0  0
M  END
>  <minimizedAffinity>
-4.67123795

$$$$

 OpenBabel03272506563D

 23 25  0  0  0  0  0  0  0  0999 V2000
   36.5290   28.5440   31.3300 C   0  0  0  0  0  0  0  0  0  0  0  0
   37.2080   27.8870   30.2870 C   0  0  0  0  0  0  0  0  0  0  0  0
   38.0960   26.8520   30.6850 C   0  0  0  0  0  0  0  0  0  0  0  0
   38.2230   26.5780   32.0170 N   0  0  0  0  0  0  0  0  0  0  0  0
   37.5430   27.2460   32.9570 C   0  0  0  0  0  0  0  0  0  0  0  0
   36.6880   28.2370   32.6360 N   0  0  0  0  0  0  0  0  0  0  0  0
   35.8350   29.3480   31.0650 H   0  0  0  0  0  0  0  0  0  0  0  0
   38.6270   26.3320   29.9240 H   0  0  0  0  0  0  0  0  0  0  0  0
   37.8370   26.7860   34.2790 N   0  0  0  0  0  0  0  0  0  0  0  0
   38.0130   27.5210   35.3950 C   0  0  0  0  0  0  0  0  0  0  0  0
   37.9430   28.6150   35.4030 H   0  0  0  0  0  0  0  0  0  0  0  0
   38.2730   26.7070   36.4330 N   0  0  0  0  0  0  0  0  0  0  0  0
   38.2690   25.4210   35.9960 C   0  0  0  0  0  0  0  0  0  0  0  0
   38.4850   24.2570   36.7080 C   0  0  0  0  0  0  0  0  0  0  0  0
   38.6940   24.2620   37.7500 H   0  0  0  0  0  0  0  0  0  0  0  0
   38.4140   23.1090   35.9740 N   0  0  0  0  0  0  0  0  0  0  0  0
   38.1450   23.1610   34.6470 C   0  0  0  0  0  0  0  0  0  0  0  0
   38.0960   22.2230   34.0930 H   0  0  0  0  0  0  0  0  0  0  0  0
   37.9440   24.3130   34.0160 N   0  0  0  0  0  0  0  0  0  0  0  0
   37.9910   25.4960   34.6290 C   0  0  0  0  0  0  0  0  0  0  0  0
   37.0020   28.2530   28.9250 N   0  0  0  0  0  0  0  0  0  0  0  0
   35.9960   28.3390   28.6030 H   0  0  0  0  0  0  0  0  0  0  0  0
   37.8210   28.4210   28.3010 H   0  0  0  0  0  0  0  0  0  0  0  0
  1  6  1  0  0  0  0
  2  3  1  0  0  0  0
  2  1  2  0  0  0  0
  3  4  2  0  0  0  0
  4  5  1  0  0  0  0
  5  9  1  0  0  0  0
  6  5  2  0  0  0  0
  7  1  1  0  0  0  0
  8  3  1  0  0  0  0
  9 20  1  0  0  0  0
  9 10  1  0  0  0  0
 10 11  1  0  0  0  0
 10 12  2  0  0  0  0
 13 12  1  0  0  0  0
 13 14  1  0  0  0  0
 14 15  1  0  0  0  0
 16 14  2  0  0  0  0
 17 16  1  0  0  0  0
 18 17  1  0  0  0  0
 19 20  1  0  0  0  0
 19 17  2  0  0  0  0
 20 13  2  0  0  0  0
 21  2  1  0  0  0  0
 22 21  1  0  0  0  0
 23 21  1  0  0  0  0
M  END
>  <minimizedAffinity>
-4.6371603

$$$$

 OpenBabel03272506563D

 23 25  0  0  0  0  0  0  0  0999 V2000
   36.7780   19.5760   31.9560 C   0  0  0  0  0  0  0  0  0  0  0  0
   35.3830   19.4140   32.0500 C   0  0  0  0  0  0  0  0  0  0  0  0
   34.6410   20.5980   32.3080 C   0  0  0  0  0  0  0  0  0  0  0  0
   35.3190   21.7760   32.4440 N   0  0  0  0  0  0  0  0  0  0  0  0
   36.6510   21.8550   32.3410 C   0  0  0  0  0  0  0  0  0  0  0  0
   37.4040   20.7640   32.0970 N   0  0  0  0  0  0  0  0  0  0  0  0
   37.3850   18.6880   31.7570 H   0  0  0  0  0  0  0  0  0  0  0  0
   33.5840   20.5160   32.3850 H   0  0  0  0  0  0  0  0  0  0  0  0
   37.1370   23.1890   32.5180 N   0  0  0  0  0  0  0  0  0  0  0  0
   38.2310   23.5910   33.1950 C   0  0  0  0  0  0  0  0  0  0  0  0
   38.9020   22.8930   33.7090 H   0  0  0  0  0  0  0  0  0  0  0  0
   38.3380   24.9300   33.1210 N   0  0  0  0  0  0  0  0  0  0  0  0
   37.3020   25.4150   32.3900 C   0  0  0  0  0  0  0  0  0  0  0  0
   37.0060   26.7220   32.0550 C   0  0  0  0  0  0  0  0  0  0  0  0
   37.6130   27.5360   32.3680 H   0  0  0  0  0  0  0  0  0  0  0  0
   35.8810   26.8850   31.2990 N   0  0  0  0  0  0  0  0  0  0  0  0
   35.1440   25.8110   30.9300 C   0  0  0  0  0  0  0  0  0  0  0  0
   34.2520   25.9800   30.3260 H   0  0  0  0  0  0  0  0  0  0  0  0
   35.4800   24.5740   31.2820 N   0  0  0  0  0  0  0  0  0  0  0  0
   36.5550   24.2930   32.0190 C   0  0  0  0  0  0  0  0  0  0  0  0
   34.7750   18.1340   31.8920 N   0  0  0  0  0  0  0  0  0  0  0  0
   35.0730   17.5670   31.0480 H   0  0  0  0  0  0  0  0  0  0  0  0
   34.0740   17.8020   32.5890 H   0  0  0  0  0  0  0  0  0  0  0  0
  1  2  2  0  0  0  0
  1  6  1  0  0  0  0
  2  3  1  0  0  0  0
  3  8  1  0  0  0  0
  3  4  2  0  0  0  0
  5  4  1  0  0  0  0
  5  9  1  0  0  0  0
  6  5  2  0  0  0  0
  7  1  1  0  0  0  0
  9 10  1  0  0  0  0
 10 11  1  0  0  0  0
 12 10  2  0  0  0  0
 13 12  1  0  0  0  0
 14 15  1  0  0  0  0
 14 13  1  0  0  0  0
 16 14  2  0  0  0  0
 17 19  2  0  0  0  0
 17 16  1  0  0  0  0
 18 17  1  0  0  0  0
 19 20  1  0  0  0  0
 20 13  2  0  0  0  0
 20  9  1  0  0  0  0
 21  2  1  0  0  0  0
 21 23  1  0  0  0  0
 22 21  1  0  0  0  0
M  END
>  <minimizedAffinity>
-4.63114643

$$$$

 OpenBabel03272506563D

 23 25  0  0  0  0  0  0  0  0999 V2000
   39.7340   22.9520   37.1490 C   0  0  0  0  0  0  0  0  0  0  0  0
   38.6280   23.3280   37.9340 C   0  0  0  0  0  0  0  0  0  0  0  0
   37.9140   24.4720   37.4850 C   0  0  0  0  0  0  0  0  0  0  0  0
   38.3430   25.1060   36.3540 N   0  0  0  0  0  0  0  0  0  0  0  0
   39.4070   24.6910   35.6560 C   0  0  0  0  0  0  0  0  0  0  0  0
   40.1210   23.6120   36.0350 N   0  0  0  0  0  0  0  0  0  0  0  0
   40.3100   22.0760   37.4610 H   0  0  0  0  0  0  0  0  0  0  0  0
   37.0720   24.7870   38.0520 H   0  0  0  0  0  0  0  0  0  0  0  0
   39.6660   25.5080   34.5100 N   0  0  0  0  0  0  0  0  0  0  0  0
   40.8580   25.9280   34.0420 C   0  0  0  0  0  0  0  0  0  0  0  0
   41.8090   25.6680   34.5200 H   0  0  0  0  0  0  0  0  0  0  0  0
   40.6690   26.6790   32.9420 N   0  0  0  0  0  0  0  0  0  0  0  0
   39.3380   26.7560   32.6840 C   0  0  0  0  0  0  0  0  0  0  0  0
   38.6840   27.4160   31.6630 C   0  0  0  0  0  0  0  0  0  0  0  0
   39.2070   27.9720   30.9230 H   0  0  0  0  0  0  0  0  0  0  0  0
   37.3240   27.3010   31.6770 N   0  0  0  0  0  0  0  0  0  0  0  0
   36.7090   26.5790   32.6440 C   0  0  0  0  0  0  0  0  0  0  0  0
   35.6210   26.5100   32.6230 H   0  0  0  0  0  0  0  0  0  0  0  0
   37.3930   25.9640   33.6030 N   0  0  0  0  0  0  0  0  0  0  0  0
   38.7230   26.0070   33.6910 C   0  0  0  0  0  0  0  0  0  0  0  0
   38.2660   22.5940   39.1010 N   0  0  0  0  0  0  0  0  0  0  0  0
   38.2000   21.5410   38.9980 H   0  0  0  0  0  0  0  0  0  0  0  0
   38.0810   23.0970   39.9950 H   0  0  0  0  0  0  0  0  0  0  0  0
  1  7  1  0  0  0  0
  1  2  1  0  0  0  0
  2 21  1  0  0  0  0
  3  2  2  0  0  0  0
  3  8  1  0  0  0  0
  4  3  1  0  0  0  0
  5  6  1  0  0  0  0
  5  4  2  0  0  0  0
  6  1  2  0  0  0  0
  9  5  1  0  0  0  0
 10  9  1  0  0  0  0
 10 11  1  0  0  0  0
 12 10  2  0  0  0  0
 13 12  1  0  0  0  0
 13 20  1  0  0  0  0
 14 16  1  0  0  0  0
 14 13  2  0  0  0  0
 15 14  1  0  0  0  0
 16 17  2  0  0  0  0
 17 19  1  0  0  0  0
 18 17  1  0  0  0  0
 19 20  2  0  0  0  0
 20  9  1  0  0  0  0
 21 23  1  0  0  0  0
 22 21  1  0  0  0  0
M  END
>  <minimizedAffinity>
-4.5191412

$$$$

 OpenBabel03272506563D

 23 25  0  0  0  0  0  0  0  0999 V2000
   36.3300   30.0970   31.0140 C   0  0  0  0  0  0  0  0  0  0  0  0
   36.1600   28.7000   31.0250 C   0  0  0  0  0  0  0  0  0  0  0  0
   35.6750   28.1480   32.2410 C   0  0  0  0  0  0  0  0  0  0  0  0
   35.4140   28.9920   33.2830 N   0  0  0  0  0  0  0  0  0  0  0  0
   35.5990   30.3150   33.2000 C   0  0  0  0  0  0  0  0  0  0  0  0
   36.0580   30.8930   32.0710 N   0  0  0  0  0  0  0  0  0  0  0  0
   36.7020   30.5610   30.0960 H   0  0  0  0  0  0  0  0  0  0  0  0
   35.5330   27.0950   32.2880 H   0  0  0  0  0  0  0  0  0  0  0  0
   35.2590   30.9940   34.4120 N   0  0  0  0  0  0  0  0  0  0  0  0
   35.9130   32.0140   35.0050 C   0  0  0  0  0  0  0  0  0  0  0  0
   36.8270   32.4540   34.5900 H   0  0  0  0  0  0  0  0  0  0  0  0
   35.2680   32.3670   36.1300 N   0  0  0  0  0  0  0  0  0  0  0  0
   34.1780   31.5710   36.2820 C   0  0  0  0  0  0  0  0  0  0  0  0
   33.2290   31.5730   37.2850 C   0  0  0  0  0  0  0  0  0  0  0  0
   33.2700   32.2540   38.1000 H   0  0  0  0  0  0  0  0  0  0  0  0
   32.2440   30.6380   37.1520 N   0  0  0  0  0  0  0  0  0  0  0  0
   32.2420   29.7940   36.0930 C   0  0  0  0  0  0  0  0  0  0  0  0
   31.4390   29.0600   36.0200 H   0  0  0  0  0  0  0  0  0  0  0  0
   33.1830   29.8400   35.1560 N   0  0  0  0  0  0  0  0  0  0  0  0
   34.1940   30.7090   35.1820 C   0  0  0  0  0  0  0  0  0  0  0  0
   36.4640   27.9090   29.8790 N   0  0  0  0  0  0  0  0  0  0  0  0
   36.0630   28.2390   28.9550 H   0  0  0  0  0  0  0  0  0  0  0  0
   37.0520   27.0540   29.9770 H   0  0  0  0  0  0  0  0  0  0  0  0
  1  2  2  0  0  0  0
  1  6  1  0  0  0  0
  2  3  1  0  0  0  0
  3  8  1  0  0  0  0
  3  4  2  0  0  0  0
  5  4  1  0  0  0  0
  5  9  1  0  0  0  0
  6  5  2  0  0  0  0
  7  1  1  0  0  0  0
  9 10  1  0  0  0  0
  9 20  1  0  0  0  0
 10 12  2  0  0  0  0
 11 10  1  0  0  0  0
 12 13  1  0  0  0  0
 13 14  1  0  0  0  0
 14 15  1  0  0  0  0
 16 14  2  0  0  0  0
 17 16  1  0  0  0  0
 18 17  1  0  0  0  0
 19 20  1  0  0  0  0
 19 17  2  0  0  0  0
 20 13  2  0  0  0  0
 21 23  1  0  0  0  0
 21  2  1  0  0  0  0
 22 21  1  0  0  0  0
M  END
>  <minimizedAffinity>
-4.495821

$$$$

 OpenBabel03272506563D

 23 25  0  0  0  0  0  0  0  0999 V2000
   40.1180   22.4570   36.9240 C   0  0  0  0  0  0  0  0  0  0  0  0
   39.0580   23.0230   37.6560 C   0  0  0  0  0  0  0  0  0  0  0  0
   37.8450   23.2100   36.9400 C   0  0  0  0  0  0  0  0  0  0  0  0
   37.7980   22.8360   35.6270 N   0  0  0  0  0  0  0  0  0  0  0  0
   38.8490   22.3010   34.9940 C   0  0  0  0  0  0  0  0  0  0  0  0
   40.0240   22.1010   35.6240 N   0  0  0  0  0  0  0  0  0  0  0  0
   41.0690   22.2960   37.4400 H   0  0  0  0  0  0  0  0  0  0  0  0
   37.0200   23.6350   37.4590 H   0  0  0  0  0  0  0  0  0  0  0  0
   38.5660   21.9880   33.6270 N   0  0  0  0  0  0  0  0  0  0  0  0
   39.3610   22.1650   32.5520 C   0  0  0  0  0  0  0  0  0  0  0  0
   40.3670   22.5930   32.6220 H   0  0  0  0  0  0  0  0  0  0  0  0
   38.7220   21.7410   31.4470 N   0  0  0  0  0  0  0  0  0  0  0  0
   37.4940   21.2810   31.7970 C   0  0  0  0  0  0  0  0  0  0  0  0
   36.4990   20.7530   30.9970 C   0  0  0  0  0  0  0  0  0  0  0  0
   36.6140   20.6510   29.9450 H   0  0  0  0  0  0  0  0  0  0  0  0
   35.3650   20.3760   31.6570 N   0  0  0  0  0  0  0  0  0  0  0  0
   35.2720   20.5290   32.9990 C   0  0  0  0  0  0  0  0  0  0  0  0
   34.3510   20.2170   33.4920 H   0  0  0  0  0  0  0  0  0  0  0  0
   36.2650   21.0440   33.7170 N   0  0  0  0  0  0  0  0  0  0  0  0
   37.4180   21.4480   33.1820 C   0  0  0  0  0  0  0  0  0  0  0  0
   39.2130   23.3790   39.0270 N   0  0  0  0  0  0  0  0  0  0  0  0
   39.6410   22.6470   39.6630 H   0  0  0  0  0  0  0  0  0  0  0  0
   38.9100   24.3210   39.3580 H   0  0  0  0  0  0  0  0  0  0  0  0
  1  7  1  0  0  0  0
  1  2  1  0  0  0  0
  2 21  1  0  0  0  0
  3  8  1  0  0  0  0
  3  2  2  0  0  0  0
  4  3  1  0  0  0  0
  5  6  1  0  0  0  0
  5  4  2  0  0  0  0
  6  1  2  0  0  0  0
  9  5  1  0  0  0  0
 10 11  1  0  0  0  0
 10  9  1  0  0  0  0
 12 13  1  0  0  0  0
 12 10  2  0  0  0  0
 13 20  1  0  0  0  0
 14 16  1  0  0  0  0
 14 13  2  0  0  0  0
 15 14  1  0  0  0  0
 16 17  2  0  0  0  0
 17 18  1  0  0  0  0
 17 19  1  0  0  0  0
 20  9  1  0  0  0  0
 20 19  2  0  0  0  0
 21 23  1  0  0  0  0
 21 22  1  0  0  0  0
M  END
>  <minimizedAffinity>
-4.45900679

$$$$

 OpenBabel03272506563D

 23 25  0  0  0  0  0  0  0  0999 V2000
   38.4400   26.6370   31.2920 C   0  0  0  0  0  0  0  0  0  0  0  0
   37.0530   26.4050   31.2210 C   0  0  0  0  0  0  0  0  0  0  0  0
   36.5390   25.4560   32.1450 C   0  0  0  0  0  0  0  0  0  0  0  0
   37.4060   24.8530   33.0110 N   0  0  0  0  0  0  0  0  0  0  0  0
   38.7160   25.1240   33.0220 C   0  0  0  0  0  0  0  0  0  0  0  0
   39.2580   26.0160   32.1690 N   0  0  0  0  0  0  0  0  0  0  0  0
   38.8750   27.3620   30.5980 H   0  0  0  0  0  0  0  0  0  0  0  0
   35.4950   25.2540   32.1220 H   0  0  0  0  0  0  0  0  0  0  0  0
   39.4240   24.3740   34.0150 N   0  0  0  0  0  0  0  0  0  0  0  0
   40.6310   23.7830   33.9050 C   0  0  0  0  0  0  0  0  0  0  0  0
   41.2300   23.8210   32.9880 H   0  0  0  0  0  0  0  0  0  0  0  0
   40.9410   23.1780   35.0660 N   0  0  0  0  0  0  0  0  0  0  0  0
   39.9270   23.3700   35.9480 C   0  0  0  0  0  0  0  0  0  0  0  0
   39.8110   22.9330   37.2530 C   0  0  0  0  0  0  0  0  0  0  0  0
   40.5680   22.3550   37.7250 H   0  0  0  0  0  0  0  0  0  0  0  0
   38.6560   23.2950   37.8840 N   0  0  0  0  0  0  0  0  0  0  0  0
   37.7240   24.0320   37.2340 C   0  0  0  0  0  0  0  0  0  0  0  0
   36.8140   24.3020   37.7700 H   0  0  0  0  0  0  0  0  0  0  0  0
   37.8920   24.4260   35.9760 N   0  0  0  0  0  0  0  0  0  0  0  0
   38.9780   24.1300   35.2600 C   0  0  0  0  0  0  0  0  0  0  0  0
   36.2370   27.0900   30.2750 N   0  0  0  0  0  0  0  0  0  0  0  0
   36.3550   28.1420   30.2190 H   0  0  0  0  0  0  0  0  0  0  0  0
   35.5660   26.5550   29.6820 H   0  0  0  0  0  0  0  0  0  0  0  0
  1  6  1  0  0  0  0
  2  1  2  0  0  0  0
  2  3  1  0  0  0  0
  3  4  2  0  0  0  0
  4  5  1  0  0  0  0
  5  9  1  0  0  0  0
  6  5  2  0  0  0  0
  7  1  1  0  0  0  0
  8  3  1  0  0  0  0
  9 20  1  0  0  0  0
 10  9  1  0  0  0  0
 10 12  2  0  0  0  0
 11 10  1  0  0  0  0
 12 13  1  0  0  0  0
 13 14  1  0  0  0  0
 14 15  1  0  0  0  0
 14 16  2  0  0  0  0
 17 18  1  0  0  0  0
 17 16  1  0  0  0  0
 19 17  2  0  0  0  0
 20 13  2  0  0  0  0
 20 19  1  0  0  0  0
 21  2  1  0  0  0  0
 22 21  1  0  0  0  0
 23 21  1  0  0  0  0
M  END
>  <minimizedAffinity>
-4.35053635

$$$$

 OpenBabel03272506563D

 23 25  0  0  0  0  0  0  0  0999 V2000
   40.0910   22.8780   37.1880 C   0  0  0  0  0  0  0  0  0  0  0  0
   38.8430   23.1300   37.7890 C   0  0  0  0  0  0  0  0  0  0  0  0
   37.8780   23.7660   36.9630 C   0  0  0  0  0  0  0  0  0  0  0  0
   38.2240   24.0790   35.6790 N   0  0  0  0  0  0  0  0  0  0  0  0
   39.4330   23.8090   35.1730 C   0  0  0  0  0  0  0  0  0  0  0  0
   40.3870   23.2070   35.9120 N   0  0  0  0  0  0  0  0  0  0  0  0
   40.8610   22.3890   37.7920 H   0  0  0  0  0  0  0  0  0  0  0  0
   36.9230   23.9730   37.3810 H   0  0  0  0  0  0  0  0  0  0  0  0
   39.5650   24.2260   33.8110 N   0  0  0  0  0  0  0  0  0  0  0  0
   40.6250   24.8150   33.2220 C   0  0  0  0  0  0  0  0  0  0  0  0
   41.5510   25.0470   33.7600 H   0  0  0  0  0  0  0  0  0  0  0  0
   40.3470   25.0480   31.9260 N   0  0  0  0  0  0  0  0  0  0  0  0
   39.0900   24.6090   31.6600 C   0  0  0  0  0  0  0  0  0  0  0  0
   38.3880   24.6400   30.4710 C   0  0  0  0  0  0  0  0  0  0  0  0
   38.8030   25.0470   29.5810 H   0  0  0  0  0  0  0  0  0  0  0  0
   37.1300   24.1150   30.5280 N   0  0  0  0  0  0  0  0  0  0  0  0
   36.6520   23.6100   31.6900 C   0  0  0  0  0  0  0  0  0  0  0  0
   35.6420   23.1980   31.6970 H   0  0  0  0  0  0  0  0  0  0  0  0
   37.3750   23.6060   32.8040 N   0  0  0  0  0  0  0  0  0  0  0  0
   38.6150   24.0930   32.8690 C   0  0  0  0  0  0  0  0  0  0  0  0
   38.5850   22.7610   39.1420 N   0  0  0  0  0  0  0  0  0  0  0  0
   38.8450   21.7730   39.4220 H   0  0  0  0  0  0  0  0  0  0  0  0
   38.1620   23.4520   39.7980 H   0  0  0  0  0  0  0  0  0  0  0  0
  1  2  1  0  0  0  0
  1  7  1  0  0  0  0
  2 21  1  0  0  0  0
  3  8  1  0  0  0  0
  3  2  2  0  0  0  0
  4  3  1  0  0  0  0
  5  4  2  0  0  0  0
  5  6  1  0  0  0  0
  6  1  2  0  0  0  0
  9  5  1  0  0  0  0
 10 11  1  0  0  0  0
 10  9  1  0  0  0  0
 12 10  2  0  0  0  0
 13 12  1  0  0  0  0
 13 20  1  0  0  0  0
 14 16  1  0  0  0  0
 14 13  2  0  0  0  0
 15 14  1  0  0  0  0
 16 17  2  0  0  0  0
 17 18  1  0  0  0  0
 17 19  1  0  0  0  0
 19 20  2  0  0  0  0
 20  9  1  0  0  0  0
 21 22  1  0  0  0  0
 21 23  1  0  0  0  0
M  END
>  <minimizedAffinity>
-4.26388121

$$$$
