
 OpenBabel03272505113D

 42 46  0  0  0  0  0  0  0  0999 V2000
   33.7040   29.2160   44.5100 Cl  0  0  0  0  0  0  0  0  0  0  0  0
   33.7600   27.9710   45.7510 C   0  0  0  0  0  0  0  0  0  0  0  0
   33.9130   28.2140   47.1210 C   0  0  0  0  0  0  0  0  0  0  0  0
   33.9420   27.1640   47.9950 C   0  0  0  0  0  0  0  0  0  0  0  0
   33.8240   25.8770   47.5520 C   0  0  0  0  0  0  0  0  0  0  0  0
   33.6690   25.5780   46.1990 C   0  0  0  0  0  0  0  0  0  0  0  0
   33.6430   26.6500   45.3470 C   0  0  0  0  0  0  0  0  0  0  0  0
   34.0650   27.4540   49.0360 H   0  0  0  0  0  0  0  0  0  0  0  0
   33.8550   25.0930   48.2970 H   0  0  0  0  0  0  0  0  0  0  0  0
   33.5770   24.5540   45.8760 H   0  0  0  0  0  0  0  0  0  0  0  0
   33.4830   26.3610   43.9400 N   0  0  0  0  0  0  0  0  0  0  0  0
   34.3530   26.1500   42.9390 C   0  0  0  0  0  0  0  0  0  0  0  0
   35.4220   26.1860   43.1550 H   0  0  0  0  0  0  0  0  0  0  0  0
   33.6340   25.9230   41.8150 N   0  0  0  0  0  0  0  0  0  0  0  0
   32.3240   26.0000   42.1400 C   0  0  0  0  0  0  0  0  0  0  0  0
   31.2550   25.8330   41.2910 C   0  0  0  0  0  0  0  0  0  0  0  0
   31.3850   25.6150   40.2350 H   0  0  0  0  0  0  0  0  0  0  0  0
   30.0320   25.9580   41.8520 N   0  0  0  0  0  0  0  0  0  0  0  0
   29.8910   26.2300   43.1720 C   0  0  0  0  0  0  0  0  0  0  0  0
   28.8840   26.3230   43.5880 H   0  0  0  0  0  0  0  0  0  0  0  0
   30.9520   26.3860   43.9690 N   0  0  0  0  0  0  0  0  0  0  0  0
   32.2050   26.2750   43.4760 C   0  0  0  0  0  0  0  0  0  0  0  0
   34.0560   29.9600   47.5470 S   0  0  0  0  0  0  0  0  0  0  0  0
   36.3960   30.9210   45.7190 Cl  0  0  0  0  0  0  0  0  0  0  0  0
   36.6940   30.7660   47.4290 C   0  0  0  0  0  0  0  0  0  0  0  0
   37.9630   31.0800   47.8900 C   0  0  0  0  0  0  0  0  0  0  0  0
   38.2090   30.9600   49.2410 C   0  0  0  0  0  0  0  0  0  0  0  0
   37.2160   30.5430   50.0870 C   0  0  0  0  0  0  0  0  0  0  0  0
   35.9580   30.2420   49.5550 C   0  0  0  0  0  0  0  0  0  0  0  0
   35.6450   30.3380   48.2260 C   0  0  0  0  0  0  0  0  0  0  0  0
   39.2080   31.2120   49.5690 H   0  0  0  0  0  0  0  0  0  0  0  0
   37.4230   30.4530   51.1440 H   0  0  0  0  0  0  0  0  0  0  0  0
   35.1930   29.9130   50.2520 H   0  0  0  0  0  0  0  0  0  0  0  0
   40.2050   33.3270   46.0810 C   0  0  0  0  0  0  0  0  0  0  0  0
   40.9140   32.4660   45.1990 C   0  0  0  0  0  0  0  0  0  0  0  0
   40.6010   31.1070   45.2460 C   0  0  0  0  0  0  0  0  0  0  0  0
   39.6450   30.6720   46.1190 N   0  0  0  0  0  0  0  0  0  0  0  0
   39.0040   31.5290   46.9330 C   0  0  0  0  0  0  0  0  0  0  0  0
   39.2870   32.8310   46.9070 N   0  0  0  0  0  0  0  0  0  0  0  0
   40.4270   34.3760   46.0670 H   0  0  0  0  0  0  0  0  0  0  0  0
   41.6600   32.8410   44.5240 H   0  0  0  0  0  0  0  0  0  0  0  0
   41.1130   30.4250   44.5960 H   0  0  0  0  0  0  0  0  0  0  0  0
  1  2  1  0  0  0  0
  2  3  1  0  0  0  0
  3 23  1  0  0  0  0
  3  4  2  0  0  0  0
  4  8  1  0  0  0  0
  5  4  1  0  0  0  0
  5  9  1  0  0  0  0
  6  5  2  0  0  0  0
  7  2  2  0  0  0  0
  7  6  1  0  0  0  0
 10  6  1  0  0  0  0
 11  7  1  0  0  0  0
 12 13  1  0  0  0  0
 12 11  1  0  0  0  0
 14 15  1  0  0  0  0
 14 12  2  0  0  0  0
 15 22  1  0  0  0  0
 16 18  1  0  0  0  0
 16 15  2  0  0  0  0
 17 16  1  0  0  0  0
 18 19  2  0  0  0  0
 19 20  1  0  0  0  0
 19 21  1  0  0  0  0
 22 11  1  0  0  0  0
 22 21  2  0  0  0  0
 23 30  1  0  0  0  0
 24 25  1  0  0  0  0
 25 26  2  0  0  0  0
 25 30  1  0  0  0  0
 26 27  1  0  0  0  0
 27 31  1  0  0  0  0
 27 28  2  0  0  0  0
 28 32  1  0  0  0  0
 29 28  1  0  0  0  0
 29 33  1  0  0  0  0
 30 29  2  0  0  0  0
 34 39  1  0  0  0  0
 35 36  1  0  0  0  0
 35 34  2  0  0  0  0
 36 37  2  0  0  0  0
 37 38  1  0  0  0  0
 38 26  1  0  0  0  0
 39 38  2  0  0  0  0
 40 34  1  0  0  0  0
 41 35  1  0  0  0  0
 42 36  1  0  0  0  0
M  END
>  <minimizedAffinity>
-5.61521578

>  <minimizedRMSD>
1.14597309

$$$$
