
 OpenBabel03272505443D

 27 29  0  0  0  0  0  0  0  0999 V2000
   32.3760   28.0630   48.9180 O   0  0  0  0  0  0  0  0  0  0  0  0
   33.8260   28.2470   48.5180 P   0  0  2  0  0  0  0  0  0  0  0  0
   34.1660   26.9760   47.4490 O   0  0  0  0  0  0  0  0  0  0  0  0
   33.4020   26.7880   46.8580 H   0  0  0  0  0  0  0  0  0  0  0  0
   34.7970   28.1680   49.9160 O   0  0  0  0  0  0  0  0  0  0  0  0
   37.2900   30.3420   51.4410 C   0  0  0  0  0  0  0  0  0  0  0  0
   38.0560   30.6830   50.3010 C   0  0  0  0  0  0  0  0  0  0  0  0
   37.6690   30.1430   49.0700 C   0  0  0  0  0  0  0  0  0  0  0  0
   36.5820   29.3280   49.0610 N   0  0  0  0  0  0  0  0  0  0  0  0
   35.8700   29.0190   50.1540 C   0  0  0  0  0  0  0  0  0  0  0  0
   36.2230   29.5270   51.3510 N   0  0  0  0  0  0  0  0  0  0  0  0
   37.5890   30.7620   52.4010 H   0  0  0  0  0  0  0  0  0  0  0  0
   38.9060   31.3240   50.3300 H   0  0  0  0  0  0  0  0  0  0  0  0
   38.1820   30.3340   48.1320 H   0  0  0  0  0  0  0  0  0  0  0  0
   33.9330   29.6880   47.6820 O   0  0  0  0  0  0  0  0  0  0  0  0
   36.1940   31.2280   46.9080 H   0  0  0  0  0  0  0  0  0  0  0  0
   35.7070   30.5940   46.2430 N   0  0  0  0  0  0  0  0  0  0  0  0
   34.6360   29.8190   46.4850 C   0  0  0  0  0  0  0  0  0  0  0  0
   34.3060   29.1450   45.3620 N   0  0  0  0  0  0  0  0  0  0  0  0
   35.1650   29.4770   44.3710 C   0  0  0  0  0  0  0  0  0  0  0  0
   35.2450   29.0630   43.0570 C   0  0  0  0  0  0  0  0  0  0  0  0
   34.5540   28.3490   42.6260 H   0  0  0  0  0  0  0  0  0  0  0  0
   36.2430   29.6110   42.3530 N   0  0  0  0  0  0  0  0  0  0  0  0
   37.0920   30.4890   42.8850 C   0  0  0  0  0  0  0  0  0  0  0  0
   37.8860   30.9060   42.2740 H   0  0  0  0  0  0  0  0  0  0  0  0
   36.9980   30.8860   44.1870 N   0  0  0  0  0  0  0  0  0  0  0  0
   36.0140   30.3770   44.9660 C   0  0  0  0  0  0  0  0  0  0  0  0
  2  1  2  1  0  0  0
  2  5  1  0  0  0  0
  3  2  1  0  0  0  0
  4  3  1  0  0  0  0
  5 10  1  0  0  0  0
  6 12  1  0  0  0  0
  7 13  1  0  0  0  0
  7  6  2  0  0  0  0
  8  7  1  0  0  0  0
  9  8  2  0  0  0  0
  9 10  1  0  0  0  0
 10 11  2  0  0  0  0
 11  6  1  0  0  0  0
 14  8  1  0  0  0  0
 15  2  1  0  0  0  0
 17 18  1  0  0  0  0
 17 16  1  0  0  0  0
 18 15  1  0  0  0  0
 19 18  2  0  0  0  0
 20 27  1  0  0  0  0
 20 19  1  0  0  0  0
 21 20  2  0  0  0  0
 22 21  1  0  0  0  0
 23 24  2  0  0  0  0
 23 21  1  0  0  0  0
 24 26  1  0  0  0  0
 25 24  1  0  0  0  0
 26 27  2  0  0  0  0
 27 17  1  0  0  0  0
M  END
>  <minimizedAffinity>
-4.69226217

>  <minimizedRMSD>
1.27711666

$$$$
