
 OpenBabel03262523473D

 41 45  0  0  0  0  0  0  0  0999 V2000
   36.8860   32.6100   43.4860 Cl  0  0  0  0  0  0  0  0  0  0  0  0
   37.8190   31.1520   43.1910 C   0  0  0  0  0  0  0  0  0  0  0  0
   38.5630   30.6910   44.2630 C   0  0  0  0  0  0  0  0  0  0  0  0
   39.3410   29.5370   44.1270 C   0  0  0  0  0  0  0  0  0  0  0  0
   39.3670   28.8460   42.9180 C   0  0  0  0  0  0  0  0  0  0  0  0
   38.6150   29.3340   41.8790 C   0  0  0  0  0  0  0  0  0  0  0  0
   37.8400   30.4750   41.9930 C   0  0  0  0  0  0  0  0  0  0  0  0
   39.9390   29.1340   44.9260 H   0  0  0  0  0  0  0  0  0  0  0  0
   39.9700   27.9440   42.8020 H   0  0  0  0  0  0  0  0  0  0  0  0
   38.5840   28.8590   40.9190 H   0  0  0  0  0  0  0  0  0  0  0  0
   37.0450   31.0060   40.9250 N   0  0  0  0  0  0  0  0  0  0  0  0
   37.7000   31.7610   40.0240 C   0  0  0  0  0  0  0  0  0  0  0  0
   38.6940   32.1140   39.8400 H   0  0  0  0  0  0  0  0  0  0  0  0
   36.7710   32.1570   39.1100 N   0  0  0  0  0  0  0  0  0  0  0  0
   35.5730   31.6610   39.4370 C   0  0  0  0  0  0  0  0  0  0  0  0
   34.2710   31.6840   38.9510 C   0  0  0  0  0  0  0  0  0  0  0  0
   34.1050   32.2510   38.0480 H   0  0  0  0  0  0  0  0  0  0  0  0
   33.3150   31.0170   39.6160 N   0  0  0  0  0  0  0  0  0  0  0  0
   33.5440   30.3170   40.7420 C   0  0  0  0  0  0  0  0  0  0  0  0
   32.6870   29.8270   41.1770 H   0  0  0  0  0  0  0  0  0  0  0  0
   34.7860   30.2290   41.3030 N   0  0  0  0  0  0  0  0  0  0  0  0
   35.7350   30.9180   40.6030 C   0  0  0  0  0  0  0  0  0  0  0  0
   38.6830   32.9440   49.7850 Cl  0  0  0  0  0  0  0  0  0  0  0  0
   38.6450   32.2780   48.1600 C   0  0  0  0  0  0  0  0  0  0  0  0
   37.8980   31.1620   47.8790 C   0  0  0  0  0  0  0  0  0  0  0  0
   37.9110   30.6910   46.5880 C   0  0  0  0  0  0  0  0  0  0  0  0
   38.6420   31.3000   45.5930 C   0  0  0  0  0  0  0  0  0  0  0  0
   39.3860   32.4280   45.9190 C   0  0  0  0  0  0  0  0  0  0  0  0
   40.2940   33.1580   44.6120 Cl  0  0  0  0  0  0  0  0  0  0  0  0
   39.3990   32.9280   47.1940 C   0  0  0  0  0  0  0  0  0  0  0  0
   37.3160   29.8090   46.3790 H   0  0  0  0  0  0  0  0  0  0  0  0
   39.9870   33.8130   47.4350 H   0  0  0  0  0  0  0  0  0  0  0  0
   37.0300   29.3620   51.1040 C   0  0  0  0  0  0  0  0  0  0  0  0
   37.7770   29.9270   50.0600 C   0  0  0  0  0  0  0  0  0  0  0  0
   37.1380   30.5590   48.9930 C   0  0  0  0  0  0  0  0  0  0  0  0
   35.7680   30.5970   49.0220 N   0  0  0  0  0  0  0  0  0  0  0  0
   35.0940   30.0390   50.0490 C   0  0  0  0  0  0  0  0  0  0  0  0
   35.6960   29.4390   51.0620 N   0  0  0  0  0  0  0  0  0  0  0  0
   37.5690   28.8860   51.9050 H   0  0  0  0  0  0  0  0  0  0  0  0
   38.8620   29.8730   50.0790 H   0  0  0  0  0  0  0  0  0  0  0  0
   34.0240   30.1320   49.9610 H   0  0  0  0  0  0  0  0  0  0  0  0
  2  1  1  0  0  0  0
  2  3  1  0  0  0  0
  3 27  1  0  0  0  0
  4  3  2  0  0  0  0
  4  8  1  0  0  0  0
  5  4  1  0  0  0  0
  6  7  1  0  0  0  0
  6  5  2  0  0  0  0
  7  2  2  0  0  0  0
  9  5  1  0  0  0  0
 10  6  1  0  0  0  0
 11  7  1  0  0  0  0
 12 11  1  0  0  0  0
 13 12  1  0  0  0  0
 14 15  1  0  0  0  0
 14 12  2  0  0  0  0
 15 22  1  0  0  0  0
 16 15  2  0  0  0  0
 16 18  1  0  0  0  0
 17 16  1  0  0  0  0
 18 19  2  0  0  0  0
 19 20  1  0  0  0  0
 19 21  1  0  0  0  0
 22 11  1  0  0  0  0
 22 21  2  0  0  0  0
 24 23  1  0  0  0  0
 25 24  1  0  0  0  0
 25 35  1  0  0  0  0
 26 25  2  0  0  0  0
 27 28  2  0  0  0  0
 27 26  1  0  0  0  0
 28 30  1  0  0  0  0
 29 28  1  0  0  0  0
 30 32  1  0  0  0  0
 30 24  2  0  0  0  0
 31 26  1  0  0  0  0
 33 39  1  0  0  0  0
 34 40  1  0  0  0  0
 34 33  2  0  0  0  0
 35 36  2  0  0  0  0
 35 34  1  0  0  0  0
 36 37  1  0  0  0  0
 37 38  2  0  0  0  0
 38 33  1  0  0  0  0
 41 37  1  0  0  0  0
M  END
>  <minimizedAffinity>
-6.45675135

>  <minimizedRMSD>
0.685002267

$$$$
