
 OpenBabel03272501093D

 43 47  0  0  1  0  0  0  0  0999 V2000
   37.6830   26.9610   33.4970 Cl  0  0  0  0  0  0  0  0  0  0  0  0
   36.7260   25.9690   32.4360 C   0  0  0  0  0  0  0  0  0  0  0  0
   36.9290   24.6090   32.5810 C   0  0  0  0  0  0  0  0  0  0  0  0
   36.1690   23.8140   31.7340 C   0  0  0  0  0  0  0  0  0  0  0  0
   35.2810   24.3280   30.8170 C   0  0  0  0  0  0  0  0  0  0  0  0
   35.1320   25.6870   30.7300 C   0  0  0  0  0  0  0  0  0  0  0  0
   35.8530   26.5550   31.5400 C   0  0  0  0  0  0  0  0  0  0  0  0
   36.2000   22.7310   31.7090 H   0  0  0  0  0  0  0  0  0  0  0  0
   34.6780   23.7330   30.1460 H   0  0  0  0  0  0  0  0  0  0  0  0
   34.4550   26.2020   30.0380 H   0  0  0  0  0  0  0  0  0  0  0  0
   35.7760   27.9780   31.5340 N   0  0  0  0  0  0  0  0  0  0  0  0
   35.1380   28.8110   32.3750 C   0  0  0  0  0  0  0  0  0  0  0  0
   34.5520   28.4960   33.2380 H   0  0  0  0  0  0  0  0  0  0  0  0
   35.3770   30.0590   31.9350 N   0  0  0  0  0  0  0  0  0  0  0  0
   36.1480   30.0090   30.8380 C   0  0  0  0  0  0  0  0  0  0  0  0
   36.6840   30.9860   29.9960 C   0  0  0  0  0  0  0  0  0  0  0  0
   36.4810   32.0310   30.1990 H   0  0  0  0  0  0  0  0  0  0  0  0
   37.4550   30.6630   28.9210 N   0  0  0  0  0  0  0  0  0  0  0  0
   37.6840   29.3550   28.7000 C   0  0  0  0  0  0  0  0  0  0  0  0
   38.2770   28.9240   27.8890 H   0  0  0  0  0  0  0  0  0  0  0  0
   37.1840   28.3870   29.4910 N   0  0  0  0  0  0  0  0  0  0  0  0
   36.4150   28.6630   30.5660 C   0  0  0  0  0  0  0  0  0  0  0  0
   37.7260   23.8780   33.3870 O   0  0  0  0  0  0  0  0  0  0  0  0
   39.0520   23.6510   33.5320 C   0  0  2  0  0  0  0  0  0  0  0  0
   39.6930   24.5720   34.6160 C   0  0  2  0  0  0  0  0  0  0  0  0
   41.0680   24.6350   34.1420 C   0  0  0  0  0  0  0  0  0  0  0  0
   41.0460   24.6500   32.7550 O   0  0  0  0  0  0  0  0  0  0  0  0
   39.8010   24.3060   32.3360 C   0  0  0  0  0  0  0  0  0  0  0  0
   39.4250   22.6360   33.6480 H   0  0  0  0  0  0  0  0  0  0  0  0
   39.1740   25.5440   34.4760 H   0  0  0  0  0  0  0  0  0  0  0  0
   41.7350   23.8190   34.4280 H   0  0  0  0  0  0  0  0  0  0  0  0
   41.5260   25.5960   34.4700 H   0  0  0  0  0  0  0  0  0  0  0  0
   39.8650   23.5530   31.5180 H   0  0  0  0  0  0  0  0  0  0  0  0
   39.1720   25.1440   31.9890 H   0  0  0  0  0  0  0  0  0  0  0  0
   38.1360   24.1190   38.0090 C   0  0  0  0  0  0  0  0  0  0  0  0
   38.3300   24.6170   36.6900 C   0  0  0  0  0  0  0  0  0  0  0  0
   39.4340   24.1030   35.9550 C   0  0  0  0  0  0  0  0  0  0  0  0
   40.2510   23.1650   36.5400 N   0  0  0  0  0  0  0  0  0  0  0  0
   40.0270   22.7300   37.7830 C   0  0  0  0  0  0  0  0  0  0  0  0
   38.9830   23.1920   38.5250 N   0  0  0  0  0  0  0  0  0  0  0  0
   37.2960   24.5130   38.5610 H   0  0  0  0  0  0  0  0  0  0  0  0
   37.6540   25.3550   36.2810 H   0  0  0  0  0  0  0  0  0  0  0  0
   40.6110   22.0060   38.3120 H   0  0  0  0  0  0  0  0  0  0  0  0
  2  3  1  0  0  0  0
  2  1  1  0  0  0  0
  3 23  1  0  0  0  0
  4  3  2  0  0  0  0
  5  4  1  0  0  0  0
  6  5  2  0  0  0  0
  6  7  1  0  0  0  0
  7  2  2  0  0  0  0
  8  4  1  0  0  0  0
  9  5  1  0  0  0  0
 10  6  1  0  0  0  0
 11  7  1  0  0  0  0
 11 12  1  0  0  0  0
 12 13  1  0  0  0  0
 14 12  2  0  0  0  0
 15 14  1  0  0  0  0
 16 17  1  0  0  0  0
 16 15  2  0  0  0  0
 18 16  1  0  0  0  0
 19 18  2  0  0  0  0
 19 21  1  0  0  0  0
 20 19  1  0  0  0  0
 21 22  2  0  0  0  0
 22 15  1  0  0  0  0
 22 11  1  0  0  0  0
 23 24  1  0  0  0  0
 24 29  1  1  0  0  0
 24 25  1  0  0  0  0
 25 30  1  6  0  0  0
 25 37  1  0  0  0  0
 26 31  1  0  0  0  0
 26 32  1  0  0  0  0
 26 25  1  0  0  0  0
 27 26  1  0  0  0  0
 28 27  1  0  0  0  0
 28 24  1  0  0  0  0
 33 28  1  0  0  0  0
 34 28  1  0  0  0  0
 35 40  1  0  0  0  0
 35 41  1  0  0  0  0
 36 35  2  0  0  0  0
 37 38  2  0  0  0  0
 37 36  1  0  0  0  0
 38 39  1  0  0  0  0
 39 43  1  0  0  0  0
 39 40  2  0  0  0  0
 42 36  1  0  0  0  0
M  END
>  <minimizedAffinity>
-6.18694305

$$$$

 OpenBabel03272501093D

 43 47  0  0  1  0  0  0  0  0999 V2000
   36.2150   28.3580   34.3910 Cl  0  0  0  0  0  0  0  0  0  0  0  0
   36.2020   29.2860   32.9190 C   0  0  0  0  0  0  0  0  0  0  0  0
   35.5920   30.5240   33.0250 C   0  0  0  0  0  0  0  0  0  0  0  0
   35.5770   31.2660   31.8520 C   0  0  0  0  0  0  0  0  0  0  0  0
   36.1210   30.8170   30.6710 C   0  0  0  0  0  0  0  0  0  0  0  0
   36.7090   29.5800   30.6420 C   0  0  0  0  0  0  0  0  0  0  0  0
   36.7680   28.7710   31.7700 C   0  0  0  0  0  0  0  0  0  0  0  0
   35.1420   32.2530   31.7510 H   0  0  0  0  0  0  0  0  0  0  0  0
   36.1220   31.3730   29.7450 H   0  0  0  0  0  0  0  0  0  0  0  0
   37.1730   29.1240   29.7580 H   0  0  0  0  0  0  0  0  0  0  0  0
   37.3540   27.4740   31.8510 N   0  0  0  0  0  0  0  0  0  0  0  0
   38.6020   27.1120   32.1960 C   0  0  0  0  0  0  0  0  0  0  0  0
   39.3950   27.8020   32.4820 H   0  0  0  0  0  0  0  0  0  0  0  0
   38.6490   25.7700   32.1150 N   0  0  0  0  0  0  0  0  0  0  0  0
   37.4530   25.3020   31.7260 C   0  0  0  0  0  0  0  0  0  0  0  0
   36.9570   24.0180   31.4870 C   0  0  0  0  0  0  0  0  0  0  0  0
   37.6100   23.1630   31.6190 H   0  0  0  0  0  0  0  0  0  0  0  0
   35.6720   23.8070   31.0900 N   0  0  0  0  0  0  0  0  0  0  0  0
   34.8910   24.8930   30.9340 C   0  0  0  0  0  0  0  0  0  0  0  0
   33.8430   24.9050   30.6240 H   0  0  0  0  0  0  0  0  0  0  0  0
   35.3360   26.1440   31.1550 N   0  0  0  0  0  0  0  0  0  0  0  0
   36.6020   26.3980   31.5510 C   0  0  0  0  0  0  0  0  0  0  0  0
   34.9980   31.1720   34.0470 O   0  0  0  0  0  0  0  0  0  0  0  0
   34.7600   30.9500   35.3610 C   0  0  2  0  0  0  0  0  0  0  0  0
   33.2670   31.1970   35.7400 C   0  0  2  0  0  0  0  0  0  0  0  0
   33.3970   31.5450   37.1470 C   0  0  0  0  0  0  0  0  0  0  0  0
   34.5650   32.2770   37.3040 O   0  0  0  0  0  0  0  0  0  0  0  0
   35.3090   32.1570   36.1750 C   0  0  0  0  0  0  0  0  0  0  0  0
   35.1110   30.0360   35.8340 H   0  0  0  0  0  0  0  0  0  0  0  0
   32.9830   32.0810   35.1300 H   0  0  0  0  0  0  0  0  0  0  0  0
   33.4530   30.7230   37.8640 H   0  0  0  0  0  0  0  0  0  0  0  0
   32.5540   32.2120   37.4400 H   0  0  0  0  0  0  0  0  0  0  0  0
   36.3700   31.9410   36.4350 H   0  0  0  0  0  0  0  0  0  0  0  0
   35.2870   33.0300   35.5010 H   0  0  0  0  0  0  0  0  0  0  0  0
   31.1910   28.0660   35.9080 C   0  0  0  0  0  0  0  0  0  0  0  0
   32.0210   29.1370   36.3440 C   0  0  0  0  0  0  0  0  0  0  0  0
   32.4180   30.0920   35.3670 C   0  0  0  0  0  0  0  0  0  0  0  0
   31.9910   29.9420   34.0690 N   0  0  0  0  0  0  0  0  0  0  0  0
   31.2130   28.9170   33.7100 C   0  0  0  0  0  0  0  0  0  0  0  0
   30.8060   27.9790   34.6090 N   0  0  0  0  0  0  0  0  0  0  0  0
   30.8920   27.3450   36.6540 H   0  0  0  0  0  0  0  0  0  0  0  0
   32.3260   29.2040   37.3790 H   0  0  0  0  0  0  0  0  0  0  0  0
   30.8370   28.7260   32.7260 H   0  0  0  0  0  0  0  0  0  0  0  0
  2  3  1  0  0  0  0
  2  1  1  0  0  0  0
  3 23  1  0  0  0  0
  4  3  2  0  0  0  0
  5  4  1  0  0  0  0
  6  5  2  0  0  0  0
  6  7  1  0  0  0  0
  7 11  1  0  0  0  0
  7  2  2  0  0  0  0
  8  4  1  0  0  0  0
  9  5  1  0  0  0  0
 10  6  1  0  0  0  0
 11 12  1  0  0  0  0
 12 13  1  0  0  0  0
 14 12  2  0  0  0  0
 15 14  1  0  0  0  0
 16 17  1  0  0  0  0
 16 15  2  0  0  0  0
 18 16  1  0  0  0  0
 19 18  2  0  0  0  0
 19 21  1  0  0  0  0
 20 19  1  0  0  0  0
 21 22  2  0  0  0  0
 22 15  1  0  0  0  0
 22 11  1  0  0  0  0
 23 24  1  0  0  0  0
 24 25  1  0  0  0  0
 24 29  1  1  0  0  0
 24 28  1  0  0  0  0
 25 30  1  6  0  0  0
 25 26  1  0  0  0  0
 26 27  1  0  0  0  0
 26 32  1  0  0  0  0
 26 31  1  0  0  0  0
 28 33  1  0  0  0  0
 28 27  1  0  0  0  0
 34 28  1  0  0  0  0
 35 36  1  0  0  0  0
 35 41  1  0  0  0  0
 36 42  1  0  0  0  0
 37 25  1  0  0  0  0
 37 36  2  0  0  0  0
 38 37  1  0  0  0  0
 39 38  2  0  0  0  0
 39 40  1  0  0  0  0
 40 35  2  0  0  0  0
 43 39  1  0  0  0  0
M  END
>  <minimizedAffinity>
-6.05232

$$$$

 OpenBabel03272501093D

 43 47  0  0  1  0  0  0  0  0999 V2000
   36.6780   27.8000   34.5360 Cl  0  0  0  0  0  0  0  0  0  0  0  0
   36.1290   28.8590   33.2700 C   0  0  0  0  0  0  0  0  0  0  0  0
   35.3120   29.8910   33.6970 C   0  0  0  0  0  0  0  0  0  0  0  0
   34.8700   30.7370   32.6900 C   0  0  0  0  0  0  0  0  0  0  0  0
   35.2090   30.5720   31.3670 C   0  0  0  0  0  0  0  0  0  0  0  0
   36.0230   29.5270   31.0180 C   0  0  0  0  0  0  0  0  0  0  0  0
   36.5110   28.6320   31.9620 C   0  0  0  0  0  0  0  0  0  0  0  0
   34.2250   31.5940   32.8410 H   0  0  0  0  0  0  0  0  0  0  0  0
   34.8790   31.2140   30.5630 H   0  0  0  0  0  0  0  0  0  0  0  0
   36.3550   29.3020   29.9970 H   0  0  0  0  0  0  0  0  0  0  0  0
   37.3600   27.5160   31.7110 N   0  0  0  0  0  0  0  0  0  0  0  0
   38.7030   27.4450   31.6790 C   0  0  0  0  0  0  0  0  0  0  0  0
   39.3760   28.2830   31.8520 H   0  0  0  0  0  0  0  0  0  0  0  0
   39.0120   26.1660   31.4000 N   0  0  0  0  0  0  0  0  0  0  0  0
   37.8850   25.4510   31.2590 C   0  0  0  0  0  0  0  0  0  0  0  0
   37.6300   24.1080   30.9720 C   0  0  0  0  0  0  0  0  0  0  0  0
   38.4620   23.4310   30.8150 H   0  0  0  0  0  0  0  0  0  0  0  0
   36.3620   23.6210   30.8820 N   0  0  0  0  0  0  0  0  0  0  0  0
   35.3540   24.4920   31.0820 C   0  0  0  0  0  0  0  0  0  0  0  0
   34.2840   24.2710   31.0470 H   0  0  0  0  0  0  0  0  0  0  0  0
   35.5630   25.7920   31.3600 N   0  0  0  0  0  0  0  0  0  0  0  0
   36.8040   26.3160   31.4580 C   0  0  0  0  0  0  0  0  0  0  0  0
   34.8470   30.2550   34.9100 O   0  0  0  0  0  0  0  0  0  0  0  0
   33.9310   31.1200   35.4040 C   0  0  2  0  0  0  0  0  0  0  0  0
   34.4780   31.9260   36.6220 C   0  0  2  0  0  0  0  0  0  0  0  0
   33.2420   32.2250   37.3290 C   0  0  0  0  0  0  0  0  0  0  0  0
   32.3950   31.1340   37.1980 O   0  0  0  0  0  0  0  0  0  0  0  0
   32.8850   30.3170   36.2300 C   0  0  0  0  0  0  0  0  0  0  0  0
   33.3910   31.7880   34.7360 H   0  0  0  0  0  0  0  0  0  0  0  0
   35.0900   31.1830   37.1760 H   0  0  0  0  0  0  0  0  0  0  0  0
   32.6720   33.0950   36.9980 H   0  0  0  0  0  0  0  0  0  0  0  0
   33.4580   32.3390   38.4160 H   0  0  0  0  0  0  0  0  0  0  0  0
   32.0680   30.0060   35.5390 H   0  0  0  0  0  0  0  0  0  0  0  0
   33.3980   29.4100   36.5940 H   0  0  0  0  0  0  0  0  0  0  0  0
   35.7910   35.3860   35.9520 C   0  0  0  0  0  0  0  0  0  0  0  0
   34.9020   34.3600   36.3790 C   0  0  0  0  0  0  0  0  0  0  0  0
   35.3340   33.0140   36.2180 C   0  0  0  0  0  0  0  0  0  0  0  0
   36.5690   32.7680   35.6670 N   0  0  0  0  0  0  0  0  0  0  0  0
   37.3670   33.7670   35.2790 C   0  0  0  0  0  0  0  0  0  0  0  0
   36.9970   35.0700   35.4140 N   0  0  0  0  0  0  0  0  0  0  0  0
   35.4560   36.4050   36.0780 H   0  0  0  0  0  0  0  0  0  0  0  0
   33.9420   34.6130   36.8070 H   0  0  0  0  0  0  0  0  0  0  0  0
   38.3390   33.6650   34.8430 H   0  0  0  0  0  0  0  0  0  0  0  0
  2  3  1  0  0  0  0
  2  1  1  0  0  0  0
  3 23  1  0  0  0  0
  4  8  1  0  0  0  0
  4  3  2  0  0  0  0
  5  4  1  0  0  0  0
  6  5  2  0  0  0  0
  6  7  1  0  0  0  0
  7  2  2  0  0  0  0
  9  5  1  0  0  0  0
 10  6  1  0  0  0  0
 11  7  1  0  0  0  0
 12 11  1  0  0  0  0
 12 13  1  0  0  0  0
 14 12  2  0  0  0  0
 15 14  1  0  0  0  0
 15 22  1  0  0  0  0
 16 15  2  0  0  0  0
 17 16  1  0  0  0  0
 18 16  1  0  0  0  0
 18 19  2  0  0  0  0
 19 21  1  0  0  0  0
 20 19  1  0  0  0  0
 21 22  2  0  0  0  0
 22 11  1  0  0  0  0
 23 24  1  0  0  0  0
 24 29  1  6  0  0  0
 24 28  1  0  0  0  0
 24 25  1  0  0  0  0
 25 30  1  1  0  0  0
 25 26  1  0  0  0  0
 26 32  1  0  0  0  0
 27 26  1  0  0  0  0
 28 34  1  0  0  0  0
 28 27  1  0  0  0  0
 31 26  1  0  0  0  0
 33 28  1  0  0  0  0
 35 41  1  0  0  0  0
 35 36  1  0  0  0  0
 36 42  1  0  0  0  0
 37 36  2  0  0  0  0
 37 25  1  0  0  0  0
 38 37  1  0  0  0  0
 39 40  1  0  0  0  0
 39 38  2  0  0  0  0
 40 35  2  0  0  0  0
 43 39  1  0  0  0  0
M  END
>  <minimizedAffinity>
-5.98818207

$$$$

 OpenBabel03272501093D

 43 47  0  0  1  0  0  0  0  0999 V2000
   38.4250   26.9240   32.7300 Cl  0  0  0  0  0  0  0  0  0  0  0  0
   37.1730   25.9470   32.0200 C   0  0  0  0  0  0  0  0  0  0  0  0
   37.4380   24.5890   32.0120 C   0  0  0  0  0  0  0  0  0  0  0  0
   36.4430   23.8060   31.4440 C   0  0  0  0  0  0  0  0  0  0  0  0
   35.2800   24.3280   30.9250 C   0  0  0  0  0  0  0  0  0  0  0  0
   35.0870   25.6840   30.9690 C   0  0  0  0  0  0  0  0  0  0  0  0
   36.0310   26.5410   31.5200 C   0  0  0  0  0  0  0  0  0  0  0  0
   36.4810   22.7280   31.3520 H   0  0  0  0  0  0  0  0  0  0  0  0
   34.4900   23.7430   30.4770 H   0  0  0  0  0  0  0  0  0  0  0  0
   34.2010   26.2050   30.5860 H   0  0  0  0  0  0  0  0  0  0  0  0
   35.9330   27.9590   31.6170 N   0  0  0  0  0  0  0  0  0  0  0  0
   35.3620   28.7200   32.5670 C   0  0  0  0  0  0  0  0  0  0  0  0
   34.8640   28.3370   33.4560 H   0  0  0  0  0  0  0  0  0  0  0  0
   35.5410   30.0000   32.1930 N   0  0  0  0  0  0  0  0  0  0  0  0
   36.2080   30.0380   31.0290 C   0  0  0  0  0  0  0  0  0  0  0  0
   36.6480   31.0800   30.2090 C   0  0  0  0  0  0  0  0  0  0  0  0
   36.4490   32.1050   30.5000 H   0  0  0  0  0  0  0  0  0  0  0  0
   37.3220   30.8460   29.0490 N   0  0  0  0  0  0  0  0  0  0  0  0
   37.5490   29.5600   28.7200 C   0  0  0  0  0  0  0  0  0  0  0  0
   38.0710   29.1960   27.8310 H   0  0  0  0  0  0  0  0  0  0  0  0
   37.1390   28.5320   29.4860 N   0  0  0  0  0  0  0  0  0  0  0  0
   36.4690   28.7190   30.6430 C   0  0  0  0  0  0  0  0  0  0  0  0
   38.4800   23.8520   32.4480 O   0  0  0  0  0  0  0  0  0  0  0  0
   38.7880   23.1170   33.5430 C   0  0  2  0  0  0  0  0  0  0  0  0
   37.5320   22.4350   34.1670 C   0  0  2  0  0  0  0  0  0  0  0  0
   37.9520   22.3100   35.5550 C   0  0  0  0  0  0  0  0  0  0  0  0
   38.7020   23.4300   35.8820 O   0  0  0  0  0  0  0  0  0  0  0  0
   39.0260   24.0860   34.7370 C   0  0  0  0  0  0  0  0  0  0  0  0
   39.6130   22.4090   33.5130 H   0  0  0  0  0  0  0  0  0  0  0  0
   36.7340   23.1990   34.0550 H   0  0  0  0  0  0  0  0  0  0  0  0
   38.5650   21.4450   35.8180 H   0  0  0  0  0  0  0  0  0  0  0  0
   37.0530   22.3180   36.2140 H   0  0  0  0  0  0  0  0  0  0  0  0
   40.1050   24.3620   34.7440 H   0  0  0  0  0  0  0  0  0  0  0  0
   38.4350   24.9940   34.5310 H   0  0  0  0  0  0  0  0  0  0  0  0
   35.5310   19.5020   32.9290 C   0  0  0  0  0  0  0  0  0  0  0  0
   35.8540   20.6750   33.6670 C   0  0  0  0  0  0  0  0  0  0  0  0
   37.1370   21.2510   33.4460 C   0  0  0  0  0  0  0  0  0  0  0  0
   37.9910   20.6590   32.5460 N   0  0  0  0  0  0  0  0  0  0  0  0
   37.6400   19.5560   31.8790 C   0  0  0  0  0  0  0  0  0  0  0  0
   36.4250   18.9700   32.0570 N   0  0  0  0  0  0  0  0  0  0  0  0
   34.5560   19.0710   33.1020 H   0  0  0  0  0  0  0  0  0  0  0  0
   35.1410   21.0970   34.3610 H   0  0  0  0  0  0  0  0  0  0  0  0
   38.2420   19.0340   31.1650 H   0  0  0  0  0  0  0  0  0  0  0  0
  2  1  1  0  0  0  0
  3  2  1  0  0  0  0
  3 23  1  0  0  0  0
  4  3  2  0  0  0  0
  5  6  2  0  0  0  0
  5  4  1  0  0  0  0
  6  7  1  0  0  0  0
  7 11  1  0  0  0  0
  7  2  2  0  0  0  0
  8  4  1  0  0  0  0
  9  5  1  0  0  0  0
 10  6  1  0  0  0  0
 11 12  1  0  0  0  0
 12 13  1  0  0  0  0
 14 12  2  0  0  0  0
 15 14  1  0  0  0  0
 16 17  1  0  0  0  0
 16 15  2  0  0  0  0
 18 16  1  0  0  0  0
 19 18  2  0  0  0  0
 19 21  1  0  0  0  0
 20 19  1  0  0  0  0
 21 22  2  0  0  0  0
 22 15  1  0  0  0  0
 22 11  1  0  0  0  0
 23 24  1  0  0  0  0
 24 29  1  6  0  0  0
 24 25  1  0  0  0  0
 24 28  1  0  0  0  0
 25 30  1  6  0  0  0
 25 26  1  0  0  0  0
 26 31  1  0  0  0  0
 26 27  1  0  0  0  0
 26 32  1  0  0  0  0
 28 33  1  0  0  0  0
 28 27  1  0  0  0  0
 34 28  1  0  0  0  0
 35 41  1  0  0  0  0
 35 36  1  0  0  0  0
 36 42  1  0  0  0  0
 37 36  2  0  0  0  0
 37 25  1  0  0  0  0
 38 37  1  0  0  0  0
 39 40  1  0  0  0  0
 39 38  2  0  0  0  0
 40 35  2  0  0  0  0
 43 39  1  0  0  0  0
M  END
>  <minimizedAffinity>
-5.94147825

$$$$

 OpenBabel03272501093D

 43 47  0  0  1  0  0  0  0  0999 V2000
   36.5080   27.7100   34.8000 Cl  0  0  0  0  0  0  0  0  0  0  0  0
   36.5540   28.1120   33.1080 C   0  0  0  0  0  0  0  0  0  0  0  0
   37.3280   27.2640   32.3360 C   0  0  0  0  0  0  0  0  0  0  0  0
   37.3690   27.5830   30.9860 C   0  0  0  0  0  0  0  0  0  0  0  0
   36.6990   28.6560   30.4460 C   0  0  0  0  0  0  0  0  0  0  0  0
   35.9510   29.4530   31.2730 C   0  0  0  0  0  0  0  0  0  0  0  0
   35.8540   29.2060   32.6360 C   0  0  0  0  0  0  0  0  0  0  0  0
   37.9240   27.0310   30.2370 H   0  0  0  0  0  0  0  0  0  0  0  0
   36.7150   28.9280   29.4010 H   0  0  0  0  0  0  0  0  0  0  0  0
   35.3780   30.3310   30.9500 H   0  0  0  0  0  0  0  0  0  0  0  0
   35.1080   29.9660   33.5830 N   0  0  0  0  0  0  0  0  0  0  0  0
   35.5240   30.8960   34.4610 C   0  0  0  0  0  0  0  0  0  0  0  0
   36.5550   31.2240   34.5790 H   0  0  0  0  0  0  0  0  0  0  0  0
   34.4310   31.3130   35.1240 N   0  0  0  0  0  0  0  0  0  0  0  0
   33.3520   30.6550   34.6720 C   0  0  0  0  0  0  0  0  0  0  0  0
   31.9950   30.6940   35.0020 C   0  0  0  0  0  0  0  0  0  0  0  0
   31.6570   31.3720   35.7780 H   0  0  0  0  0  0  0  0  0  0  0  0
   31.0810   29.9030   34.3770 N   0  0  0  0  0  0  0  0  0  0  0  0
   31.5380   29.0740   33.4200 C   0  0  0  0  0  0  0  0  0  0  0  0
   30.9460   28.3760   32.8230 H   0  0  0  0  0  0  0  0  0  0  0  0
   32.8380   29.0090   33.0770 N   0  0  0  0  0  0  0  0  0  0  0  0
   33.7780   29.7760   33.6710 C   0  0  0  0  0  0  0  0  0  0  0  0
   38.0640   26.1720   32.6250 O   0  0  0  0  0  0  0  0  0  0  0  0
   39.2870   25.9060   33.1410 C   0  0  2  0  0  0  0  0  0  0  0  0
   39.3110   26.0350   34.6960 C   0  0  2  0  0  0  0  0  0  0  0  0
   40.7110   26.3630   34.9200 C   0  0  0  0  0  0  0  0  0  0  0  0
   41.1350   27.1770   33.8800 O   0  0  0  0  0  0  0  0  0  0  0  0
   40.2090   27.1340   32.8880 C   0  0  0  0  0  0  0  0  0  0  0  0
   39.8270   25.0120   32.8400 H   0  0  0  0  0  0  0  0  0  0  0  0
   38.6550   26.9080   34.8980 H   0  0  0  0  0  0  0  0  0  0  0  0
   41.4200   25.5340   34.9680 H   0  0  0  0  0  0  0  0  0  0  0  0
   40.8030   26.9600   35.8570 H   0  0  0  0  0  0  0  0  0  0  0  0
   40.7060   26.9920   31.9020 H   0  0  0  0  0  0  0  0  0  0  0  0
   39.5490   28.0170   32.8210 H   0  0  0  0  0  0  0  0  0  0  0  0
   37.6220   23.8240   37.2260 C   0  0  0  0  0  0  0  0  0  0  0  0
   38.1490   25.0050   36.6330 C   0  0  0  0  0  0  0  0  0  0  0  0
   38.7500   24.8780   35.3490 C   0  0  0  0  0  0  0  0  0  0  0  0
   38.7940   23.6420   34.7490 N   0  0  0  0  0  0  0  0  0  0  0  0
   38.2870   22.5620   35.3490 C   0  0  0  0  0  0  0  0  0  0  0  0
   37.7020   22.6340   36.5760 N   0  0  0  0  0  0  0  0  0  0  0  0
   37.1670   23.9280   38.2000 H   0  0  0  0  0  0  0  0  0  0  0  0
   38.0850   25.9520   37.1520 H   0  0  0  0  0  0  0  0  0  0  0  0
   38.2800   21.5670   34.9540 H   0  0  0  0  0  0  0  0  0  0  0  0
  2  1  1  0  0  0  0
  3 23  1  0  0  0  0
  3  2  2  0  0  0  0
  4  3  1  0  0  0  0
  5  4  2  0  0  0  0
  5  6  1  0  0  0  0
  6  7  2  0  0  0  0
  7  2  1  0  0  0  0
  7 11  1  0  0  0  0
  8  4  1  0  0  0  0
  9  5  1  0  0  0  0
 10  6  1  0  0  0  0
 11 22  1  0  0  0  0
 11 12  1  0  0  0  0
 12 13  1  0  0  0  0
 12 14  2  0  0  0  0
 15 16  1  0  0  0  0
 15 14  1  0  0  0  0
 16 17  1  0  0  0  0
 18 16  2  0  0  0  0
 19 18  1  0  0  0  0
 20 19  1  0  0  0  0
 21 19  2  0  0  0  0
 21 22  1  0  0  0  0
 22 15  2  0  0  0  0
 23 24  1  0  0  0  0
 24 29  1  6  0  0  0
 24 25  1  0  0  0  0
 25 30  1  1  0  0  0
 25 26  1  0  0  0  0
 25 37  1  0  0  0  0
 26 31  1  0  0  0  0
 26 32  1  0  0  0  0
 27 26  1  0  0  0  0
 28 24  1  0  0  0  0
 28 27  1  0  0  0  0
 33 28  1  0  0  0  0
 34 28  1  0  0  0  0
 35 41  1  0  0  0  0
 36 42  1  0  0  0  0
 36 35  1  0  0  0  0
 37 36  2  0  0  0  0
 38 37  1  0  0  0  0
 38 39  2  0  0  0  0
 39 40  1  0  0  0  0
 40 35  2  0  0  0  0
 43 39  1  0  0  0  0
M  END
>  <minimizedAffinity>
-5.92473745

$$$$

 OpenBabel03272501093D

 43 47  0  0  1  0  0  0  0  0999 V2000
   38.3850   26.3890   34.0210 Cl  0  0  0  0  0  0  0  0  0  0  0  0
   37.5660   25.1380   33.1300 C   0  0  0  0  0  0  0  0  0  0  0  0
   36.5550   25.5900   32.3010 C   0  0  0  0  0  0  0  0  0  0  0  0
   35.8980   24.5960   31.5900 C   0  0  0  0  0  0  0  0  0  0  0  0
   36.2170   23.2620   31.6950 C   0  0  0  0  0  0  0  0  0  0  0  0
   37.2310   22.8880   32.5370 C   0  0  0  0  0  0  0  0  0  0  0  0
   37.9410   23.8180   33.2850 C   0  0  0  0  0  0  0  0  0  0  0  0
   35.0830   24.7660   30.8970 H   0  0  0  0  0  0  0  0  0  0  0  0
   35.7220   22.4680   31.1550 H   0  0  0  0  0  0  0  0  0  0  0  0
   37.5680   21.8570   32.6960 H   0  0  0  0  0  0  0  0  0  0  0  0
   39.0100   23.5410   34.1860 N   0  0  0  0  0  0  0  0  0  0  0  0
   40.3190   23.3560   33.9410 C   0  0  0  0  0  0  0  0  0  0  0  0
   40.7790   23.3940   32.9550 H   0  0  0  0  0  0  0  0  0  0  0  0
   40.9040   23.1260   35.1300 N   0  0  0  0  0  0  0  0  0  0  0  0
   39.9780   23.1640   36.1010 C   0  0  0  0  0  0  0  0  0  0  0  0
   40.0330   22.9970   37.4870 C   0  0  0  0  0  0  0  0  0  0  0  0
   40.9860   22.7870   37.9580 H   0  0  0  0  0  0  0  0  0  0  0  0
   38.9210   23.0890   38.2660 N   0  0  0  0  0  0  0  0  0  0  0  0
   37.7550   23.3490   37.6440 C   0  0  0  0  0  0  0  0  0  0  0  0
   36.7740   23.4550   38.1140 H   0  0  0  0  0  0  0  0  0  0  0  0
   37.6650   23.5160   36.3110 N   0  0  0  0  0  0  0  0  0  0  0  0
   38.7430   23.4340   35.5020 C   0  0  0  0  0  0  0  0  0  0  0  0
   36.0650   26.8180   32.0330 O   0  0  0  0  0  0  0  0  0  0  0  0
   36.5600   28.0470   31.7560 C   0  0  2  0  0  0  0  0  0  0  0  0
   35.4310   29.1050   31.5530 C   0  0  2  0  0  0  0  0  0  0  0  0
   36.1020   30.0530   30.6760 C   0  0  0  0  0  0  0  0  0  0  0  0
   36.9190   29.3390   29.8120 O   0  0  0  0  0  0  0  0  0  0  0  0
   37.0340   28.0670   30.2740 C   0  0  0  0  0  0  0  0  0  0  0  0
   37.3520   28.4700   32.3690 H   0  0  0  0  0  0  0  0  0  0  0  0
   34.6400   28.5450   31.0110 H   0  0  0  0  0  0  0  0  0  0  0  0
   36.7370   30.8070   31.1440 H   0  0  0  0  0  0  0  0  0  0  0  0
   35.3420   30.5740   30.0480 H   0  0  0  0  0  0  0  0  0  0  0  0
   38.1000   27.7440   30.2500 H   0  0  0  0  0  0  0  0  0  0  0  0
   36.4310   27.3140   29.7380 H   0  0  0  0  0  0  0  0  0  0  0  0
   35.1310   30.6630   34.9620 C   0  0  0  0  0  0  0  0  0  0  0  0
   35.7270   30.2350   33.7430 C   0  0  0  0  0  0  0  0  0  0  0  0
   34.8880   29.5720   32.8040 C   0  0  0  0  0  0  0  0  0  0  0  0
   33.5630   29.3760   33.1110 N   0  0  0  0  0  0  0  0  0  0  0  0
   33.0510   29.7950   34.2720 C   0  0  0  0  0  0  0  0  0  0  0  0
   33.8130   30.4350   35.2000 N   0  0  0  0  0  0  0  0  0  0  0  0
   35.7730   31.1660   35.6700 H   0  0  0  0  0  0  0  0  0  0  0  0
   36.7760   30.4170   33.5550 H   0  0  0  0  0  0  0  0  0  0  0  0
   32.0350   29.6840   34.5880 H   0  0  0  0  0  0  0  0  0  0  0  0
  2  7  1  0  0  0  0
  2  1  1  0  0  0  0
  3  2  2  0  0  0  0
  4  5  2  0  0  0  0
  4  3  1  0  0  0  0
  5  6  1  0  0  0  0
  6 10  1  0  0  0  0
  6  7  2  0  0  0  0
  7 11  1  0  0  0  0
  8  4  1  0  0  0  0
  9  5  1  0  0  0  0
 11 22  1  0  0  0  0
 12 11  1  0  0  0  0
 12 14  2  0  0  0  0
 13 12  1  0  0  0  0
 14 15  1  0  0  0  0
 15 16  1  0  0  0  0
 16 17  1  0  0  0  0
 16 18  2  0  0  0  0
 19 20  1  0  0  0  0
 19 18  1  0  0  0  0
 21 19  2  0  0  0  0
 22 15  2  0  0  0  0
 22 21  1  0  0  0  0
 23  3  1  0  0  0  0
 24 23  1  0  0  0  0
 24 29  1  1  0  0  0
 25 30  1  6  0  0  0
 25 24  1  0  0  0  0
 25 37  1  0  0  0  0
 26 31  1  0  0  0  0
 26 25  1  0  0  0  0
 27 28  1  0  0  0  0
 27 26  1  0  0  0  0
 28 24  1  0  0  0  0
 32 26  1  0  0  0  0
 33 28  1  0  0  0  0
 34 28  1  0  0  0  0
 35 40  1  0  0  0  0
 35 41  1  0  0  0  0
 36 35  2  0  0  0  0
 37 38  2  0  0  0  0
 37 36  1  0  0  0  0
 38 39  1  0  0  0  0
 39 43  1  0  0  0  0
 39 40  2  0  0  0  0
 42 36  1  0  0  0  0
M  END
>  <minimizedAffinity>
-5.92468596

$$$$

 OpenBabel03272501093D

 43 47  0  0  1  0  0  0  0  0999 V2000
   38.8230   26.9890   34.4380 Cl  0  0  0  0  0  0  0  0  0  0  0  0
   37.9000   25.9220   33.4200 C   0  0  0  0  0  0  0  0  0  0  0  0
   36.9660   26.5560   32.6200 C   0  0  0  0  0  0  0  0  0  0  0  0
   36.2250   25.7090   31.8080 C   0  0  0  0  0  0  0  0  0  0  0  0
   36.3970   24.3440   31.7910 C   0  0  0  0  0  0  0  0  0  0  0  0
   37.3420   23.7860   32.6110 C   0  0  0  0  0  0  0  0  0  0  0  0
   38.1270   24.5600   33.4560 C   0  0  0  0  0  0  0  0  0  0  0  0
   35.4520   26.0310   31.1200 H   0  0  0  0  0  0  0  0  0  0  0  0
   35.8340   23.6620   31.1710 H   0  0  0  0  0  0  0  0  0  0  0  0
   37.5620   22.7140   32.6780 H   0  0  0  0  0  0  0  0  0  0  0  0
   39.1350   24.0870   34.3450 N   0  0  0  0  0  0  0  0  0  0  0  0
   40.4370   23.8390   34.1180 C   0  0  0  0  0  0  0  0  0  0  0  0
   40.9400   23.9750   33.1620 H   0  0  0  0  0  0  0  0  0  0  0  0
   40.9550   23.4090   35.2830 N   0  0  0  0  0  0  0  0  0  0  0  0
   39.9940   23.3860   36.2200 C   0  0  0  0  0  0  0  0  0  0  0  0
   39.9790   23.0310   37.5710 C   0  0  0  0  0  0  0  0  0  0  0  0
   40.8950   22.6900   38.0400 H   0  0  0  0  0  0  0  0  0  0  0  0
   38.8440   23.1010   38.3190 N   0  0  0  0  0  0  0  0  0  0  0  0
   37.7260   23.5280   37.7020 C   0  0  0  0  0  0  0  0  0  0  0  0
   36.7360   23.6420   38.1500 H   0  0  0  0  0  0  0  0  0  0  0  0
   37.7040   23.8770   36.4020 N   0  0  0  0  0  0  0  0  0  0  0  0
   38.8070   23.8240   35.6240 C   0  0  0  0  0  0  0  0  0  0  0  0
   36.6170   27.8490   32.4610 O   0  0  0  0  0  0  0  0  0  0  0  0
   35.6940   28.5510   31.7610 C   0  0  2  0  0  0  0  0  0  0  0  0
   36.2060   29.9710   31.3700 C   0  0  2  0  0  0  0  0  0  0  0  0
   34.9470   30.6950   31.2670 C   0  0  0  0  0  0  0  0  0  0  0  0
   34.0920   30.2160   32.2490 O   0  0  0  0  0  0  0  0  0  0  0  0
   34.6080   29.0640   32.7500 C   0  0  0  0  0  0  0  0  0  0  0  0
   35.1890   28.0970   30.9120 H   0  0  0  0  0  0  0  0  0  0  0  0
   36.7860   30.2960   32.2590 H   0  0  0  0  0  0  0  0  0  0  0  0
   34.4010   30.6220   30.3250 H   0  0  0  0  0  0  0  0  0  0  0  0
   35.1240   31.7730   31.4890 H   0  0  0  0  0  0  0  0  0  0  0  0
   33.8140   28.2860   32.8210 H   0  0  0  0  0  0  0  0  0  0  0  0
   35.0950   29.1550   33.7360 H   0  0  0  0  0  0  0  0  0  0  0  0
   38.0840   28.7960   28.3310 C   0  0  0  0  0  0  0  0  0  0  0  0
   37.1850   28.7640   29.4340 C   0  0  0  0  0  0  0  0  0  0  0  0
   37.0900   29.9400   30.2320 C   0  0  0  0  0  0  0  0  0  0  0  0
   37.8560   31.0330   29.9070 N   0  0  0  0  0  0  0  0  0  0  0  0
   38.6870   31.0120   28.8610 C   0  0  0  0  0  0  0  0  0  0  0  0
   38.8120   29.9120   28.0690 N   0  0  0  0  0  0  0  0  0  0  0  0
   38.1510   27.9010   27.7310 H   0  0  0  0  0  0  0  0  0  0  0  0
   36.6070   27.8750   29.6420 H   0  0  0  0  0  0  0  0  0  0  0  0
   39.3160   31.8160   28.5400 H   0  0  0  0  0  0  0  0  0  0  0  0
  2  7  1  0  0  0  0
  2  1  1  0  0  0  0
  3  2  2  0  0  0  0
  4  3  1  0  0  0  0
  5  4  2  0  0  0  0
  5  6  1  0  0  0  0
  6 10  1  0  0  0  0
  6  7  2  0  0  0  0
  7 11  1  0  0  0  0
  8  4  1  0  0  0  0
  9  5  1  0  0  0  0
 11 22  1  0  0  0  0
 12 11  1  0  0  0  0
 12 14  2  0  0  0  0
 13 12  1  0  0  0  0
 14 15  1  0  0  0  0
 15 16  1  0  0  0  0
 16 17  1  0  0  0  0
 16 18  2  0  0  0  0
 19 20  1  0  0  0  0
 19 18  1  0  0  0  0
 21 19  2  0  0  0  0
 22 15  2  0  0  0  0
 22 21  1  0  0  0  0
 23  3  1  0  0  0  0
 24 29  1  6  0  0  0
 24 23  1  0  0  0  0
 24 28  1  0  0  0  0
 25 24  1  0  0  0  0
 25 30  1  1  0  0  0
 26 25  1  0  0  0  0
 26 32  1  0  0  0  0
 26 27  1  0  0  0  0
 27 28  1  0  0  0  0
 28 33  1  0  0  0  0
 28 34  1  0  0  0  0
 31 26  1  0  0  0  0
 35 36  1  0  0  0  0
 36 42  1  0  0  0  0
 36 37  2  0  0  0  0
 37 25  1  0  0  0  0
 38 37  1  0  0  0  0
 39 38  2  0  0  0  0
 40 35  2  0  0  0  0
 40 39  1  0  0  0  0
 41 35  1  0  0  0  0
 43 39  1  0  0  0  0
M  END
>  <minimizedAffinity>
-5.778234

$$$$

 OpenBabel03272501093D

 43 47  0  0  1  0  0  0  0  0999 V2000
   36.3320   28.2390   34.8050 Cl  0  0  0  0  0  0  0  0  0  0  0  0
   36.0290   29.1280   33.3410 C   0  0  0  0  0  0  0  0  0  0  0  0
   36.3440   28.4470   32.1780 C   0  0  0  0  0  0  0  0  0  0  0  0
   36.1060   29.1550   31.0080 C   0  0  0  0  0  0  0  0  0  0  0  0
   35.6000   30.4330   30.9920 C   0  0  0  0  0  0  0  0  0  0  0  0
   35.3110   31.0450   32.1840 C   0  0  0  0  0  0  0  0  0  0  0  0
   35.5180   30.4100   33.4020 C   0  0  0  0  0  0  0  0  0  0  0  0
   36.2940   28.7790   30.0100 H   0  0  0  0  0  0  0  0  0  0  0  0
   35.4060   31.0070   30.0970 H   0  0  0  0  0  0  0  0  0  0  0  0
   34.9050   32.0590   32.2880 H   0  0  0  0  0  0  0  0  0  0  0  0
   35.2540   30.9500   34.6930 N   0  0  0  0  0  0  0  0  0  0  0  0
   36.0710   31.6070   35.5370 C   0  0  0  0  0  0  0  0  0  0  0  0
   37.1170   31.8350   35.3390 H   0  0  0  0  0  0  0  0  0  0  0  0
   35.3400   31.9060   36.6250 N   0  0  0  0  0  0  0  0  0  0  0  0
   34.0890   31.4440   36.4670 C   0  0  0  0  0  0  0  0  0  0  0  0
   32.9450   31.4780   37.2680 C   0  0  0  0  0  0  0  0  0  0  0  0
   32.9910   31.9580   38.2390 H   0  0  0  0  0  0  0  0  0  0  0  0
   31.7700   30.9210   36.8640 N   0  0  0  0  0  0  0  0  0  0  0  0
   31.7520   30.3330   35.6540 C   0  0  0  0  0  0  0  0  0  0  0  0
   30.8990   29.8420   35.1790 H   0  0  0  0  0  0  0  0  0  0  0  0
   32.8350   30.2820   34.8560 N   0  0  0  0  0  0  0  0  0  0  0  0
   34.0200   30.8210   35.2160 C   0  0  0  0  0  0  0  0  0  0  0  0
   36.8420   27.2170   31.9390 O   0  0  0  0  0  0  0  0  0  0  0  0
   36.4880   25.9350   32.1920 C   0  0  2  0  0  0  0  0  0  0  0  0
   37.6490   24.9350   31.9030 C   0  0  2  0  0  0  0  0  0  0  0  0
   36.8980   23.7250   31.6030 C   0  0  0  0  0  0  0  0  0  0  0  0
   35.7480   24.0900   30.9190 O   0  0  0  0  0  0  0  0  0  0  0  0
   35.5820   25.4330   31.0310 C   0  0  0  0  0  0  0  0  0  0  0  0
   36.0060   25.6750   33.1320 H   0  0  0  0  0  0  0  0  0  0  0  0
   38.1310   25.3470   30.9910 H   0  0  0  0  0  0  0  0  0  0  0  0
   36.5700   23.1150   32.4470 H   0  0  0  0  0  0  0  0  0  0  0  0
   37.4950   23.0830   30.9150 H   0  0  0  0  0  0  0  0  0  0  0  0
   34.5250   25.6690   31.2940 H   0  0  0  0  0  0  0  0  0  0  0  0
   35.8580   26.0180   30.1380 H   0  0  0  0  0  0  0  0  0  0  0  0
   39.2220   25.0000   35.3180 C   0  0  0  0  0  0  0  0  0  0  0  0
   38.2080   25.0250   34.3200 C   0  0  0  0  0  0  0  0  0  0  0  0
   38.6250   24.9080   32.9640 C   0  0  0  0  0  0  0  0  0  0  0  0
   39.9640   24.7800   32.6830 N   0  0  0  0  0  0  0  0  0  0  0  0
   40.8780   24.7640   33.6570 C   0  0  0  0  0  0  0  0  0  0  0  0
   40.5280   24.8720   34.9680 N   0  0  0  0  0  0  0  0  0  0  0  0
   38.8990   25.0890   36.3440 H   0  0  0  0  0  0  0  0  0  0  0  0
   37.1690   25.1270   34.6000 H   0  0  0  0  0  0  0  0  0  0  0  0
   41.9360   24.6680   33.5270 H   0  0  0  0  0  0  0  0  0  0  0  0
  2  7  1  0  0  0  0
  2  1  1  0  0  0  0
  3  2  2  0  0  0  0
  4  3  1  0  0  0  0
  5  4  2  0  0  0  0
  5  6  1  0  0  0  0
  6 10  1  0  0  0  0
  6  7  2  0  0  0  0
  7 11  1  0  0  0  0
  8  4  1  0  0  0  0
  9  5  1  0  0  0  0
 11 22  1  0  0  0  0
 11 12  1  0  0  0  0
 12 14  2  0  0  0  0
 13 12  1  0  0  0  0
 15 14  1  0  0  0  0
 15 16  1  0  0  0  0
 16 17  1  0  0  0  0
 18 16  2  0  0  0  0
 19 18  1  0  0  0  0
 20 19  1  0  0  0  0
 21 22  1  0  0  0  0
 21 19  2  0  0  0  0
 22 15  2  0  0  0  0
 23  3  1  0  0  0  0
 23 24  1  0  0  0  0
 24 29  1  1  0  0  0
 25 30  1  6  0  0  0
 25 24  1  0  0  0  0
 25 37  1  0  0  0  0
 26 25  1  0  0  0  0
 26 31  1  0  0  0  0
 27 28  1  0  0  0  0
 27 26  1  0  0  0  0
 28 33  1  0  0  0  0
 28 24  1  0  0  0  0
 32 26  1  0  0  0  0
 34 28  1  0  0  0  0
 35 41  1  0  0  0  0
 36 42  1  0  0  0  0
 36 35  2  0  0  0  0
 37 36  1  0  0  0  0
 38 37  2  0  0  0  0
 38 39  1  0  0  0  0
 39 40  2  0  0  0  0
 40 35  1  0  0  0  0
 43 39  1  0  0  0  0
M  END
>  <minimizedAffinity>
-5.70623493

$$$$

 OpenBabel03272501093D

 43 47  0  0  1  0  0  0  0  0999 V2000
   37.8100   27.8730   35.6360 Cl  0  0  0  0  0  0  0  0  0  0  0  0
   37.1730   27.5740   34.0450 C   0  0  0  0  0  0  0  0  0  0  0  0
   36.2920   28.5370   33.5880 C   0  0  0  0  0  0  0  0  0  0  0  0
   35.7790   28.3000   32.3200 C   0  0  0  0  0  0  0  0  0  0  0  0
   36.1130   27.1980   31.5680 C   0  0  0  0  0  0  0  0  0  0  0  0
   36.9930   26.2850   32.0870 C   0  0  0  0  0  0  0  0  0  0  0  0
   37.5540   26.4440   33.3480 C   0  0  0  0  0  0  0  0  0  0  0  0
   35.0780   28.9460   31.8060 H   0  0  0  0  0  0  0  0  0  0  0  0
   35.7290   26.9880   30.5800 H   0  0  0  0  0  0  0  0  0  0  0  0
   37.3280   25.3740   31.5760 H   0  0  0  0  0  0  0  0  0  0  0  0
   38.4760   25.5610   33.9810 N   0  0  0  0  0  0  0  0  0  0  0  0
   38.2620   24.3770   34.5830 C   0  0  0  0  0  0  0  0  0  0  0  0
   37.2910   23.8930   34.6750 H   0  0  0  0  0  0  0  0  0  0  0  0
   39.4590   23.9460   35.0190 N   0  0  0  0  0  0  0  0  0  0  0  0
   40.4040   24.8440   34.6990 C   0  0  0  0  0  0  0  0  0  0  0  0
   41.7840   24.9000   34.9070 C   0  0  0  0  0  0  0  0  0  0  0  0
   42.2750   24.0870   35.4290 H   0  0  0  0  0  0  0  0  0  0  0  0
   42.5330   25.9490   34.4710 N   0  0  0  0  0  0  0  0  0  0  0  0
   41.8880   26.9400   33.8270 C   0  0  0  0  0  0  0  0  0  0  0  0
   42.3330   27.8490   33.4140 H   0  0  0  0  0  0  0  0  0  0  0  0
   40.5590   26.9190   33.6100 N   0  0  0  0  0  0  0  0  0  0  0  0
   39.7790   25.8980   34.0250 C   0  0  0  0  0  0  0  0  0  0  0  0
   35.8170   29.6790   34.1250 O   0  0  0  0  0  0  0  0  0  0  0  0
   35.2790   30.0740   35.3030 C   0  0  2  0  0  0  0  0  0  0  0  0
   33.8940   30.7670   35.1160 C   0  0  2  0  0  0  0  0  0  0  0  0
   33.8600   31.6280   36.2890 C   0  0  0  0  0  0  0  0  0  0  0  0
   35.1460   32.0940   36.5200 O   0  0  0  0  0  0  0  0  0  0  0  0
   36.0140   31.3630   35.7740 C   0  0  0  0  0  0  0  0  0  0  0  0
   35.2340   29.3860   36.1440 H   0  0  0  0  0  0  0  0  0  0  0  0
   34.0190   31.3590   34.1850 H   0  0  0  0  0  0  0  0  0  0  0  0
   33.5220   31.1850   37.2280 H   0  0  0  0  0  0  0  0  0  0  0  0
   33.2260   32.5190   36.0720 H   0  0  0  0  0  0  0  0  0  0  0  0
   36.8870   31.0530   36.3930 H   0  0  0  0  0  0  0  0  0  0  0  0
   36.3910   31.8630   34.8660 H   0  0  0  0  0  0  0  0  0  0  0  0
   31.2990   28.5970   33.4730 C   0  0  0  0  0  0  0  0  0  0  0  0
   32.3580   29.5400   33.6010 C   0  0  0  0  0  0  0  0  0  0  0  0
   32.8300   29.8150   34.9150 C   0  0  0  0  0  0  0  0  0  0  0  0
   32.2530   29.1700   35.9830 N   0  0  0  0  0  0  0  0  0  0  0  0
   31.2600   28.2940   35.8100 C   0  0  0  0  0  0  0  0  0  0  0  0
   30.7760   27.9980   34.5730 N   0  0  0  0  0  0  0  0  0  0  0  0
   30.9460   28.3930   32.4730 H   0  0  0  0  0  0  0  0  0  0  0  0
   32.7730   30.0160   32.7240 H   0  0  0  0  0  0  0  0  0  0  0  0
   30.7580   27.7500   36.5830 H   0  0  0  0  0  0  0  0  0  0  0  0
  2  1  1  0  0  0  0
  3  2  1  0  0  0  0
  3 23  1  0  0  0  0
  4  3  2  0  0  0  0
  5  6  2  0  0  0  0
  5  4  1  0  0  0  0
  6  7  1  0  0  0  0
  7 11  1  0  0  0  0
  7  2  2  0  0  0  0
  8  4  1  0  0  0  0
  9  5  1  0  0  0  0
 10  6  1  0  0  0  0
 11 22  1  0  0  0  0
 11 12  1  0  0  0  0
 12 13  1  0  0  0  0
 12 14  2  0  0  0  0
 15 16  1  0  0  0  0
 15 14  1  0  0  0  0
 16 17  1  0  0  0  0
 18 16  2  0  0  0  0
 19 18  1  0  0  0  0
 20 19  1  0  0  0  0
 21 19  2  0  0  0  0
 21 22  1  0  0  0  0
 22 15  2  0  0  0  0
 23 24  1  0  0  0  0
 24 28  1  0  0  0  0
 24 29  1  1  0  0  0
 25 30  1  6  0  0  0
 25 24  1  0  0  0  0
 25 26  1  0  0  0  0
 26 27  1  0  0  0  0
 26 31  1  0  0  0  0
 28 33  1  0  0  0  0
 28 27  1  0  0  0  0
 32 26  1  0  0  0  0
 34 28  1  0  0  0  0
 35 36  2  0  0  0  0
 35 40  1  0  0  0  0
 36 37  1  0  0  0  0
 37 25  1  0  0  0  0
 37 38  2  0  0  0  0
 39 38  1  0  0  0  0
 39 43  1  0  0  0  0
 40 39  2  0  0  0  0
 41 35  1  0  0  0  0
 42 36  1  0  0  0  0
M  END
>  <minimizedAffinity>
-5.66714001

$$$$
