
 OpenBabel03272506553D

 23 25  0  0  0  0  0  0  0  0999 V2000
   36.2830   30.5300   50.0680 C   0  0  0  0  0  0  0  0  0  0  0  0
   37.5940   30.6590   49.5720 C   0  0  0  0  0  0  0  0  0  0  0  0
   37.7520   30.4270   48.1790 C   0  0  0  0  0  0  0  0  0  0  0  0
   36.6480   30.1050   47.4420 N   0  0  0  0  0  0  0  0  0  0  0  0
   35.4270   30.0010   47.9830 C   0  0  0  0  0  0  0  0  0  0  0  0
   35.2200   30.2100   49.2980 N   0  0  0  0  0  0  0  0  0  0  0  0
   36.1200   30.7010   51.1360 H   0  0  0  0  0  0  0  0  0  0  0  0
   38.7280   30.5150   47.7670 H   0  0  0  0  0  0  0  0  0  0  0  0
   34.4270   29.6560   47.0200 N   0  0  0  0  0  0  0  0  0  0  0  0
   33.2570   29.0220   47.2300 C   0  0  0  0  0  0  0  0  0  0  0  0
   32.9310   28.6880   48.2210 H   0  0  0  0  0  0  0  0  0  0  0  0
   32.6030   28.8880   46.0600 N   0  0  0  0  0  0  0  0  0  0  0  0
   33.3530   29.4380   45.0720 C   0  0  0  0  0  0  0  0  0  0  0  0
   33.0820   29.5300   43.7200 C   0  0  0  0  0  0  0  0  0  0  0  0
   32.1870   29.1460   43.2960 H   0  0  0  0  0  0  0  0  0  0  0  0
   34.0470   30.1470   42.9780 N   0  0  0  0  0  0  0  0  0  0  0  0
   35.1690   30.6190   43.5700 C   0  0  0  0  0  0  0  0  0  0  0  0
   35.9170   31.1070   42.9450 H   0  0  0  0  0  0  0  0  0  0  0  0
   35.3740   30.5010   44.8780 N   0  0  0  0  0  0  0  0  0  0  0  0
   34.5030   29.9180   45.7020 C   0  0  0  0  0  0  0  0  0  0  0  0
   38.6790   31.0000   50.4310 N   0  0  0  0  0  0  0  0  0  0  0  0
   38.5330   31.8290   51.0740 H   0  0  0  0  0  0  0  0  0  0  0  0
   39.5600   30.4420   50.4030 H   0  0  0  0  0  0  0  0  0  0  0  0
  1  7  1  0  0  0  0
  2  1  1  0  0  0  0
  2 21  1  0  0  0  0
  3  2  2  0  0  0  0
  4  5  2  0  0  0  0
  4  3  1  0  0  0  0
  5  6  1  0  0  0  0
  6  1  2  0  0  0  0
  8  3  1  0  0  0  0
  9 10  1  0  0  0  0
  9  5  1  0  0  0  0
 10 11  1  0  0  0  0
 12 10  2  0  0  0  0
 13 20  1  0  0  0  0
 13 12  1  0  0  0  0
 14 13  2  0  0  0  0
 15 14  1  0  0  0  0
 16 17  2  0  0  0  0
 16 14  1  0  0  0  0
 17 19  1  0  0  0  0
 18 17  1  0  0  0  0
 19 20  2  0  0  0  0
 20  9  1  0  0  0  0
 21 22  1  0  0  0  0
 23 21  1  0  0  0  0
M  END
>  <minimizedAffinity>
-3.97120476

>  <minimizedRMSD>
3.33184552

$$$$
