
 OpenBabel03272508113D

 37 40  0  0  0  0  0  0  0  0999 V2000
   36.7230   29.4610   43.9990 Cl  0  0  0  0  0  0  0  0  0  0  0  0
   38.3840   29.8450   43.5240 C   0  0  0  0  0  0  0  0  0  0  0  0
   39.3470   30.3330   44.4080 C   0  0  0  0  0  0  0  0  0  0  0  0
   40.6040   30.5910   43.9050 C   0  0  0  0  0  0  0  0  0  0  0  0
   40.8870   30.3710   42.5760 C   0  0  0  0  0  0  0  0  0  0  0  0
   39.9500   29.8910   41.6950 C   0  0  0  0  0  0  0  0  0  0  0  0
   38.6960   29.6300   42.1800 C   0  0  0  0  0  0  0  0  0  0  0  0
   41.2830   30.9670   44.6620 H   0  0  0  0  0  0  0  0  0  0  0  0
   41.8970   30.5950   42.2470 H   0  0  0  0  0  0  0  0  0  0  0  0
   40.2100   29.7290   40.6470 H   0  0  0  0  0  0  0  0  0  0  0  0
   37.7370   29.1330   41.2530 N   0  0  0  0  0  0  0  0  0  0  0  0
   37.5360   27.8390   40.9080 C   0  0  0  0  0  0  0  0  0  0  0  0
   38.0690   26.9600   41.2780 H   0  0  0  0  0  0  0  0  0  0  0  0
   36.5450   27.7240   40.0010 N   0  0  0  0  0  0  0  0  0  0  0  0
   36.0800   28.9750   39.7390 C   0  0  0  0  0  0  0  0  0  0  0  0
   35.1010   29.5240   38.9270 C   0  0  0  0  0  0  0  0  0  0  0  0
   34.5120   28.8500   38.3110 H   0  0  0  0  0  0  0  0  0  0  0  0
   34.9110   30.8720   38.9260 N   0  0  0  0  0  0  0  0  0  0  0  0
   35.6420   31.7010   39.6890 C   0  0  0  0  0  0  0  0  0  0  0  0
   35.4990   32.7770   39.6950 H   0  0  0  0  0  0  0  0  0  0  0  0
   36.5860   31.1270   40.4660 N   0  0  0  0  0  0  0  0  0  0  0  0
   36.8350   29.8230   40.5260 C   0  0  0  0  0  0  0  0  0  0  0  0
   38.8640   30.4810   45.6750 O   0  0  0  0  0  0  0  0  0  0  0  0
   39.4230   32.5390   47.1370 O   0  0  0  0  0  0  0  0  0  0  0  0
   38.2960   31.8470   46.4490 P   0  0  1  0  0  0  0  0  0  0  0  0
   37.7050   32.8450   45.1920 O   0  0  0  0  0  0  0  0  0  0  0  0
   38.3400   33.5900   45.0500 H   0  0  0  0  0  0  0  0  0  0  0  0
   37.0120   31.4240   47.4780 O   0  0  0  0  0  0  0  0  0  0  0  0
   37.5970   30.5200   51.0040 C   0  0  0  0  0  0  0  0  0  0  0  0
   37.6940   31.3090   49.8520 C   0  0  0  0  0  0  0  0  0  0  0  0
   37.0560   30.8420   48.6930 C   0  0  0  0  0  0  0  0  0  0  0  0
   36.3820   29.6540   48.7530 N   0  0  0  0  0  0  0  0  0  0  0  0
   36.3210   28.9360   49.8860 C   0  0  0  0  0  0  0  0  0  0  0  0
   36.9220   29.3590   51.0090 N   0  0  0  0  0  0  0  0  0  0  0  0
   38.1150   30.9340   51.8780 H   0  0  0  0  0  0  0  0  0  0  0  0
   38.2010   32.2350   49.7460 H   0  0  0  0  0  0  0  0  0  0  0  0
   35.7890   27.9920   49.9430 H   0  0  0  0  0  0  0  0  0  0  0  0
  2  1  1  0  0  0  0
  2  3  1  0  0  0  0
  3 23  1  0  0  0  0
  4  3  2  0  0  0  0
  4  8  1  0  0  0  0
  5  4  1  0  0  0  0
  6  7  1  0  0  0  0
  6  5  2  0  0  0  0
  7  2  2  0  0  0  0
  9  5  1  0  0  0  0
 10  6  1  0  0  0  0
 11  7  1  0  0  0  0
 12 11  1  0  0  0  0
 12 13  1  0  0  0  0
 14 12  2  0  0  0  0
 15 14  1  0  0  0  0
 15 22  1  0  0  0  0
 16 15  2  0  0  0  0
 17 16  1  0  0  0  0
 18 16  1  0  0  0  0
 18 19  2  0  0  0  0
 19 20  1  0  0  0  0
 19 21  1  0  0  0  0
 21 22  2  0  0  0  0
 22 11  1  0  0  0  0
 23 25  1  0  0  0  0
 25 24  2  1  0  0  0
 25 28  1  0  0  0  0
 26 25  1  0  0  0  0
 27 26  1  0  0  0  0
 28 31  1  0  0  0  0
 29 34  1  0  0  0  0
 29 35  1  0  0  0  0
 30 29  2  0  0  0  0
 31 32  2  0  0  0  0
 31 30  1  0  0  0  0
 32 33  1  0  0  0  0
 33 37  1  0  0  0  0
 33 34  2  0  0  0  0
 36 30  1  0  0  0  0
M  END
>  <minimizedAffinity>
-4.89788008

>  <minimizedRMSD>
0.889499426

$$$$
