
 OpenBabel03272506093D

 47 51  0  0  0  0  0  0  0  0999 V2000
   35.1100   28.5670   48.9340 C   0  0  0  0  0  0  0  0  0  0  0  0
   35.9840   28.5410   48.2500 H   0  0  0  0  0  0  0  0  0  0  0  0
   35.2420   27.7110   49.6410 H   0  0  0  0  0  0  0  0  0  0  0  0
   33.8340   28.3550   48.1520 C   0  0  0  0  0  0  0  0  0  0  0  0
   33.8700   28.4920   46.7100 C   0  0  0  0  0  0  0  0  0  0  0  0
   32.1750   28.1550   46.3130 S   0  0  0  0  0  0  0  0  0  0  0  0
   31.6430   27.8790   48.0980 C   0  0  0  0  0  0  0  0  0  0  0  0
   32.6800   28.0570   48.6540 N   0  0  0  0  0  0  0  0  0  0  0  0
   30.3480   27.5430   48.6680 N   0  0  0  0  0  0  0  0  0  0  0  0
   29.4640   26.7990   47.8290 C   0  0  0  0  0  0  0  0  0  0  0  0
   28.0520   26.7730   48.2930 C   0  0  0  0  0  0  0  0  0  0  0  0
   27.7840   27.7320   49.3660 N   0  0  0  0  0  0  0  0  0  0  0  0
   28.7380   27.3770   50.4190 C   0  0  0  0  0  0  0  0  0  0  0  0
   30.0540   27.9770   50.0120 C   0  0  0  0  0  0  0  0  0  0  0  0
   34.6980   28.7270   46.1210 H   0  0  0  0  0  0  0  0  0  0  0  0
   29.8630   25.7890   47.5880 H   0  0  0  0  0  0  0  0  0  0  0  0
   29.4570   27.3210   46.8260 H   0  0  0  0  0  0  0  0  0  0  0  0
   27.3060   27.0240   47.4970 H   0  0  0  0  0  0  0  0  0  0  0  0
   27.8260   25.7370   48.6190 H   0  0  0  0  0  0  0  0  0  0  0  0
   26.8420   27.4770   49.7640 H   0  0  0  0  0  0  0  0  0  0  0  0
   28.4060   27.6510   51.4190 H   0  0  0  0  0  0  0  0  0  0  0  0
   28.8860   26.2610   50.4300 H   0  0  0  0  0  0  0  0  0  0  0  0
   29.9260   29.0840   49.9970 H   0  0  0  0  0  0  0  0  0  0  0  0
   30.8950   27.6900   50.6750 H   0  0  0  0  0  0  0  0  0  0  0  0
   35.0720   29.8450   49.6980 C   0  0  0  0  0  0  0  0  0  0  0  0
   35.2860   29.6770   50.7710 H   0  0  0  0  0  0  0  0  0  0  0  0
   34.1050   30.3270   49.5040 H   0  0  0  0  0  0  0  0  0  0  0  0
   37.5820   32.5740   49.4880 C   0  0  0  0  0  0  0  0  0  0  0  0
   38.2020   32.3460   48.2710 C   0  0  0  0  0  0  0  0  0  0  0  0
   37.7570   31.2550   47.5260 C   0  0  0  0  0  0  0  0  0  0  0  0
   36.7590   30.4770   48.0050 N   0  0  0  0  0  0  0  0  0  0  0  0
   36.1920   30.7560   49.2080 C   0  0  0  0  0  0  0  0  0  0  0  0
   36.6040   31.7850   49.9230 N   0  0  0  0  0  0  0  0  0  0  0  0
   37.9780   33.4350   50.0110 H   0  0  0  0  0  0  0  0  0  0  0  0
   39.0000   32.8870   47.7850 H   0  0  0  0  0  0  0  0  0  0  0  0
   38.2210   30.8000   46.2480 N   0  0  0  0  0  0  0  0  0  0  0  0
   39.4990   30.5160   45.8650 C   0  0  0  0  0  0  0  0  0  0  0  0
   40.3370   30.6150   46.5430 H   0  0  0  0  0  0  0  0  0  0  0  0
   39.4310   30.1250   44.5690 N   0  0  0  0  0  0  0  0  0  0  0  0
   38.1580   30.1590   44.1400 C   0  0  0  0  0  0  0  0  0  0  0  0
   37.5040   29.8790   42.9560 C   0  0  0  0  0  0  0  0  0  0  0  0
   38.0910   29.5420   42.1100 H   0  0  0  0  0  0  0  0  0  0  0  0
   36.1500   30.0270   42.8620 N   0  0  0  0  0  0  0  0  0  0  0  0
   35.4240   30.4510   43.9290 C   0  0  0  0  0  0  0  0  0  0  0  0
   34.3390   30.5440   43.7730 H   0  0  0  0  0  0  0  0  0  0  0  0
   36.0260   30.7330   45.1000 N   0  0  0  0  0  0  0  0  0  0  0  0
   37.3780   30.5870   45.2010 C   0  0  0  0  0  0  0  0  0  0  0  0
  1  3  1  0  0  0  0
  1 25  1  0  0  0  0
  2  1  1  0  0  0  0
  4  8  1  0  0  0  0
  4  1  1  0  0  0  0
  5  4  2  0  0  0  0
  6  5  1  0  0  0  0
  6  7  1  0  0  0  0
  7  8  2  0  0  0  0
  7  9  1  0  0  0  0
  9 14  1  0  0  0  0
 10 11  1  0  0  0  0
 10  9  1  0  0  0  0
 11 19  1  0  0  0  0
 11 12  1  0  0  0  0
 12 20  1  0  0  0  0
 12 13  1  0  0  0  0
 13 22  1  0  0  0  0
 13 21  1  0  0  0  0
 14 13  1  0  0  0  0
 14 24  1  0  0  0  0
 15  5  1  0  0  0  0
 16 10  1  0  0  0  0
 17 10  1  0  0  0  0
 18 11  1  0  0  0  0
 23 14  1  0  0  0  0
 25 26  1  0  0  0  0
 27 25  1  0  0  0  0
 28 33  1  0  0  0  0
 28 34  1  0  0  0  0
 29 28  2  0  0  0  0
 30 31  2  0  0  0  0
 30 29  1  0  0  0  0
 31 32  1  0  0  0  0
 32 25  1  0  0  0  0
 32 33  2  0  0  0  0
 35 29  1  0  0  0  0
 36 30  1  0  0  0  0
 37 36  1  0  0  0  0
 37 38  1  0  0  0  0
 39 37  2  0  0  0  0
 40 39  1  0  0  0  0
 40 47  1  0  0  0  0
 41 40  2  0  0  0  0
 42 41  1  0  0  0  0
 43 41  1  0  0  0  0
 43 44  2  0  0  0  0
 44 46  1  0  0  0  0
 45 44  1  0  0  0  0
 46 47  2  0  0  0  0
 47 36  1  0  0  0  0
M  END
>  <minimizedAffinity>
-6.34715176

>  <minimizedRMSD>
1.01316547

$$$$
