
 OpenBabel03272508113D

 37 40  0  0  0  0  0  0  0  0999 V2000
   36.7210   29.4360   44.0370 Cl  0  0  0  0  0  0  0  0  0  0  0  0
   38.3760   29.8240   43.5440 C   0  0  0  0  0  0  0  0  0  0  0  0
   39.3430   30.3290   44.4130 C   0  0  0  0  0  0  0  0  0  0  0  0
   40.5940   30.5890   43.8970 C   0  0  0  0  0  0  0  0  0  0  0  0
   40.8680   30.3540   42.5690 C   0  0  0  0  0  0  0  0  0  0  0  0
   39.9270   29.8570   41.7020 C   0  0  0  0  0  0  0  0  0  0  0  0
   38.6780   29.5940   42.2000 C   0  0  0  0  0  0  0  0  0  0  0  0
   41.2770   30.9790   44.6440 H   0  0  0  0  0  0  0  0  0  0  0  0
   41.8730   30.5800   42.2280 H   0  0  0  0  0  0  0  0  0  0  0  0
   40.1790   29.6830   40.6540 H   0  0  0  0  0  0  0  0  0  0  0  0
   37.7150   29.0800   41.2870 N   0  0  0  0  0  0  0  0  0  0  0  0
   36.9190   29.7960   40.4580 C   0  0  0  0  0  0  0  0  0  0  0  0
   36.8780   30.8820   40.3460 H   0  0  0  0  0  0  0  0  0  0  0  0
   36.1230   28.9890   39.7280 N   0  0  0  0  0  0  0  0  0  0  0  0
   36.4000   27.7060   40.0840 C   0  0  0  0  0  0  0  0  0  0  0  0
   35.9430   26.4490   39.7200 C   0  0  0  0  0  0  0  0  0  0  0  0
   35.1680   26.3890   38.9620 H   0  0  0  0  0  0  0  0  0  0  0  0
   36.4750   25.3460   40.3140 N   0  0  0  0  0  0  0  0  0  0  0  0
   37.4340   25.4270   41.2520 C   0  0  0  0  0  0  0  0  0  0  0  0
   37.8630   24.5530   41.7300 H   0  0  0  0  0  0  0  0  0  0  0  0
   37.8510   26.6680   41.5800 N   0  0  0  0  0  0  0  0  0  0  0  0
   37.3850   27.7940   41.0480 C   0  0  0  0  0  0  0  0  0  0  0  0
   38.8690   30.4900   45.6830 O   0  0  0  0  0  0  0  0  0  0  0  0
   39.4360   32.5590   47.1260 O   0  0  0  0  0  0  0  0  0  0  0  0
   38.3060   31.8640   46.4470 P   0  0  1  0  0  0  0  0  0  0  0  0
   37.7140   32.8530   45.1830 O   0  0  0  0  0  0  0  0  0  0  0  0
   38.3500   33.5950   45.0330 H   0  0  0  0  0  0  0  0  0  0  0  0
   37.0230   31.4530   47.4820 O   0  0  0  0  0  0  0  0  0  0  0  0
   37.6080   30.5180   51.0000 C   0  0  0  0  0  0  0  0  0  0  0  0
   37.7040   31.3170   49.8550 C   0  0  0  0  0  0  0  0  0  0  0  0
   37.0680   30.8590   48.6920 C   0  0  0  0  0  0  0  0  0  0  0  0
   36.3960   29.6700   48.7400 N   0  0  0  0  0  0  0  0  0  0  0  0
   36.3360   28.9410   49.8670 C   0  0  0  0  0  0  0  0  0  0  0  0
   36.9350   29.3550   50.9950 N   0  0  0  0  0  0  0  0  0  0  0  0
   38.1240   30.9250   51.8780 H   0  0  0  0  0  0  0  0  0  0  0  0
   38.2090   32.2450   49.7590 H   0  0  0  0  0  0  0  0  0  0  0  0
   35.8060   27.9960   49.9150 H   0  0  0  0  0  0  0  0  0  0  0  0
  2  1  1  0  0  0  0
  2  3  1  0  0  0  0
  3 23  1  0  0  0  0
  4  3  2  0  0  0  0
  4  8  1  0  0  0  0
  5  4  1  0  0  0  0
  6  7  1  0  0  0  0
  6  5  2  0  0  0  0
  7  2  2  0  0  0  0
  9  5  1  0  0  0  0
 10  6  1  0  0  0  0
 11  7  1  0  0  0  0
 12 11  1  0  0  0  0
 13 12  1  0  0  0  0
 14 15  1  0  0  0  0
 14 12  2  0  0  0  0
 15 22  1  0  0  0  0
 16 15  2  0  0  0  0
 16 18  1  0  0  0  0
 17 16  1  0  0  0  0
 18 19  2  0  0  0  0
 19 21  1  0  0  0  0
 19 20  1  0  0  0  0
 22 11  1  0  0  0  0
 22 21  2  0  0  0  0
 23 25  1  0  0  0  0
 25 24  2  1  0  0  0
 25 28  1  0  0  0  0
 26 25  1  0  0  0  0
 27 26  1  0  0  0  0
 28 31  1  0  0  0  0
 29 35  1  0  0  0  0
 30 29  2  0  0  0  0
 31 32  2  0  0  0  0
 31 30  1  0  0  0  0
 32 33  1  0  0  0  0
 33 37  1  0  0  0  0
 33 34  2  0  0  0  0
 34 29  1  0  0  0  0
 36 30  1  0  0  0  0
M  END
>  <minimizedAffinity>
-4.94847822

>  <minimizedRMSD>
0.191532314

$$$$
