
 OpenBabel03272509263D

 28 30  0  0  0  0  0  0  0  0999 V2000
   37.7470   25.2840   36.0070 C   0  0  0  0  0  0  0  0  0  0  0  0
   38.1310   24.7140   35.1080 H   0  0  0  0  0  0  0  0  0  0  0  0
   36.6990   25.4730   35.7910 H   0  0  0  0  0  0  0  0  0  0  0  0
   38.6280   26.5070   36.0850 C   0  0  0  0  0  0  0  0  0  0  0  0
   37.9640   27.3400   36.4180 H   0  0  0  0  0  0  0  0  0  0  0  0
   39.4200   26.3160   36.8620 H   0  0  0  0  0  0  0  0  0  0  0  0
   41.1150   27.1400   33.3210 C   0  0  0  0  0  0  0  0  0  0  0  0
   40.6300   26.8860   34.5940 C   0  0  0  0  0  0  0  0  0  0  0  0
   39.2750   26.7740   34.7930 C   0  0  0  0  0  0  0  0  0  0  0  0
   38.4700   26.9220   33.6990 N   0  0  0  0  0  0  0  0  0  0  0  0
   38.9500   27.1690   32.4600 C   0  0  0  0  0  0  0  0  0  0  0  0
   40.2860   27.2800   32.2700 N   0  0  0  0  0  0  0  0  0  0  0  0
   42.1910   27.2160   33.2410 H   0  0  0  0  0  0  0  0  0  0  0  0
   41.2810   26.7740   35.4300 H   0  0  0  0  0  0  0  0  0  0  0  0
   38.2520   27.2770   31.6330 H   0  0  0  0  0  0  0  0  0  0  0  0
   38.0590   24.1850   37.4090 S   0  0  0  0  0  0  0  0  0  0  0  0
   39.8530   22.2800   38.9270 H   0  0  0  0  0  0  0  0  0  0  0  0
   40.0590   22.4050   37.9160 N   0  0  0  0  0  0  0  0  0  0  0  0
   39.4620   23.1690   36.9680 C   0  0  0  0  0  0  0  0  0  0  0  0
   40.0900   23.0000   35.7870 N   0  0  0  0  0  0  0  0  0  0  0  0
   41.1150   22.1160   35.9500 C   0  0  0  0  0  0  0  0  0  0  0  0
   42.0810   21.5650   35.1360 C   0  0  0  0  0  0  0  0  0  0  0  0
   42.0930   21.8540   34.1060 H   0  0  0  0  0  0  0  0  0  0  0  0
   42.9910   20.6910   35.5900 N   0  0  0  0  0  0  0  0  0  0  0  0
   42.9410   20.3520   36.8930 C   0  0  0  0  0  0  0  0  0  0  0  0
   43.5670   19.6760   37.4640 H   0  0  0  0  0  0  0  0  0  0  0  0
   42.0050   20.8770   37.7140 N   0  0  0  0  0  0  0  0  0  0  0  0
   41.0730   21.7570   37.3010 C   0  0  0  0  0  0  0  0  0  0  0  0
  1  4  1  0  0  0  0
  1 16  1  0  0  0  0
  2  1  1  0  0  0  0
  3  1  1  0  0  0  0
  4  5  1  0  0  0  0
  4  6  1  0  0  0  0
  7  8  1  0  0  0  0
  8  9  2  0  0  0  0
  8 14  1  0  0  0  0
  9  4  1  0  0  0  0
 10  9  1  0  0  0  0
 11 10  2  0  0  0  0
 12 11  1  0  0  0  0
 12  7  2  0  0  0  0
 13  7  1  0  0  0  0
 15 11  1  0  0  0  0
 18 17  1  0  0  0  0
 19 16  1  0  0  0  0
 19 18  1  0  0  0  0
 20 21  1  0  0  0  0
 20 19  2  0  0  0  0
 21 28  1  0  0  0  0
 22 24  1  0  0  0  0
 22 21  2  0  0  0  0
 23 22  1  0  0  0  0
 24 25  2  0  0  0  0
 25 26  1  0  0  0  0
 25 27  1  0  0  0  0
 28 27  2  0  0  0  0
 28 18  1  0  0  0  0
M  END
>  <minimizedAffinity>
-4.46263266

$$$$

 OpenBabel03272509263D

 28 30  0  0  0  0  0  0  0  0999 V2000
   36.6570   25.5550   32.1020 C   0  0  0  0  0  0  0  0  0  0  0  0
   35.9540   25.1560   32.8930 H   0  0  0  0  0  0  0  0  0  0  0  0
   36.0310   26.1600   31.4520 H   0  0  0  0  0  0  0  0  0  0  0  0
   37.2550   24.3220   31.4700 C   0  0  0  0  0  0  0  0  0  0  0  0
   37.0290   24.3990   30.3790 H   0  0  0  0  0  0  0  0  0  0  0  0
   38.3690   24.3540   31.6330 H   0  0  0  0  0  0  0  0  0  0  0  0
   35.1290   21.3440   32.3830 C   0  0  0  0  0  0  0  0  0  0  0  0
   35.5300   22.4960   31.7270 C   0  0  0  0  0  0  0  0  0  0  0  0
   36.7120   23.1010   32.0810 C   0  0  0  0  0  0  0  0  0  0  0  0
   37.4370   22.5150   33.0810 N   0  0  0  0  0  0  0  0  0  0  0  0
   37.0390   21.3910   33.7170 C   0  0  0  0  0  0  0  0  0  0  0  0
   35.8730   20.8010   33.3640 N   0  0  0  0  0  0  0  0  0  0  0  0
   34.1880   20.9250   32.0510 H   0  0  0  0  0  0  0  0  0  0  0  0
   34.9460   22.9310   30.9500 H   0  0  0  0  0  0  0  0  0  0  0  0
   37.6650   20.9790   34.5040 H   0  0  0  0  0  0  0  0  0  0  0  0
   37.9130   26.4680   33.0300 S   0  0  0  0  0  0  0  0  0  0  0  0
   39.9390   24.3730   33.8420 H   0  0  0  0  0  0  0  0  0  0  0  0
   39.2450   24.6520   34.5640 N   0  0  0  0  0  0  0  0  0  0  0  0
   38.2240   25.5430   34.5280 C   0  0  0  0  0  0  0  0  0  0  0  0
   37.5940   25.5600   35.7190 N   0  0  0  0  0  0  0  0  0  0  0  0
   38.2010   24.6720   36.5570 C   0  0  0  0  0  0  0  0  0  0  0  0
   38.0160   24.2590   37.8590 C   0  0  0  0  0  0  0  0  0  0  0  0
   37.2160   24.7010   38.4160 H   0  0  0  0  0  0  0  0  0  0  0  0
   38.7960   23.3350   38.4390 N   0  0  0  0  0  0  0  0  0  0  0  0
   39.7920   22.8040   37.7030 C   0  0  0  0  0  0  0  0  0  0  0  0
   40.5310   22.0550   37.9650 H   0  0  0  0  0  0  0  0  0  0  0  0
   39.9970   23.1900   36.4240 N   0  0  0  0  0  0  0  0  0  0  0  0
   39.2380   24.1130   35.8030 C   0  0  0  0  0  0  0  0  0  0  0  0
  1  2  1  0  0  0  0
  1 16  1  0  0  0  0
  3  1  1  0  0  0  0
  4  6  1  0  0  0  0
  4  9  1  0  0  0  0
  4  1  1  0  0  0  0
  5  4  1  0  0  0  0
  7 12  1  0  0  0  0
  8  9  1  0  0  0  0
  8  7  2  0  0  0  0
  9 10  2  0  0  0  0
 10 11  1  0  0  0  0
 11 15  1  0  0  0  0
 12 11  2  0  0  0  0
 13  7  1  0  0  0  0
 14  8  1  0  0  0  0
 16 19  1  0  0  0  0
 17 18  1  0  0  0  0
 18 28  1  0  0  0  0
 19 18  1  0  0  0  0
 19 20  2  0  0  0  0
 20 21  1  0  0  0  0
 21 22  1  0  0  0  0
 22 23  1  0  0  0  0
 22 24  2  0  0  0  0
 25 26  1  0  0  0  0
 25 24  1  0  0  0  0
 27 25  2  0  0  0  0
 28 27  1  0  0  0  0
 28 21  2  0  0  0  0
M  END
>  <minimizedAffinity>
-4.41912794

$$$$

 OpenBabel03272509263D

 28 30  0  0  0  0  0  0  0  0999 V2000
   38.8480   26.8580   35.1960 C   0  0  0  0  0  0  0  0  0  0  0  0
   39.8270   26.3230   35.3830 H   0  0  0  0  0  0  0  0  0  0  0  0
   38.9340   27.7960   35.7390 H   0  0  0  0  0  0  0  0  0  0  0  0
   37.7930   25.9050   35.7010 C   0  0  0  0  0  0  0  0  0  0  0  0
   37.0890   26.5240   36.3070 H   0  0  0  0  0  0  0  0  0  0  0  0
   37.2550   25.4770   34.8100 H   0  0  0  0  0  0  0  0  0  0  0  0
   38.6620   23.3660   38.3510 C   0  0  0  0  0  0  0  0  0  0  0  0
   38.0080   24.4170   37.7300 C   0  0  0  0  0  0  0  0  0  0  0  0
   38.3980   24.8100   36.4720 C   0  0  0  0  0  0  0  0  0  0  0  0
   39.4300   24.1240   35.8970 N   0  0  0  0  0  0  0  0  0  0  0  0
   40.0650   23.0990   36.5080 C   0  0  0  0  0  0  0  0  0  0  0  0
   39.6770   22.7170   37.7480 N   0  0  0  0  0  0  0  0  0  0  0  0
   38.3020   23.1130   39.3380 H   0  0  0  0  0  0  0  0  0  0  0  0
   37.2050   24.9340   38.2010 H   0  0  0  0  0  0  0  0  0  0  0  0
   40.8800   22.5980   35.9930 H   0  0  0  0  0  0  0  0  0  0  0  0
   38.7540   27.0150   33.3960 S   0  0  0  0  0  0  0  0  0  0  0  0
   39.6860   24.1570   33.0580 H   0  0  0  0  0  0  0  0  0  0  0  0
   38.7110   24.3640   32.7680 N   0  0  0  0  0  0  0  0  0  0  0  0
   37.9950   25.5160   32.7850 C   0  0  0  0  0  0  0  0  0  0  0  0
   36.7580   25.2910   32.3020 N   0  0  0  0  0  0  0  0  0  0  0  0
   36.6470   23.9760   31.9590 C   0  0  0  0  0  0  0  0  0  0  0  0
   35.6580   23.1740   31.4300 C   0  0  0  0  0  0  0  0  0  0  0  0
   34.7130   23.6250   31.2060 H   0  0  0  0  0  0  0  0  0  0  0  0
   35.8420   21.8670   31.1910 N   0  0  0  0  0  0  0  0  0  0  0  0
   37.0450   21.3390   31.4870 C   0  0  0  0  0  0  0  0  0  0  0  0
   37.4080   20.3230   31.3780 H   0  0  0  0  0  0  0  0  0  0  0  0
   38.0330   22.1000   32.0070 N   0  0  0  0  0  0  0  0  0  0  0  0
   37.8920   23.4150   32.2620 C   0  0  0  0  0  0  0  0  0  0  0  0
  1  2  1  0  0  0  0
  1  4  1  0  0  0  0
  1  3  1  0  0  0  0
  4  5  1  0  0  0  0
  4  9  1  0  0  0  0
  6  4  1  0  0  0  0
  7 13  1  0  0  0  0
  8 14  1  0  0  0  0
  8  7  2  0  0  0  0
  9  8  1  0  0  0  0
 10  9  2  0  0  0  0
 10 11  1  0  0  0  0
 11 12  2  0  0  0  0
 12  7  1  0  0  0  0
 15 11  1  0  0  0  0
 16  1  1  0  0  0  0
 18 19  1  0  0  0  0
 18 17  1  0  0  0  0
 19 16  1  0  0  0  0
 20 19  2  0  0  0  0
 21 28  1  0  0  0  0
 21 20  1  0  0  0  0
 22 21  2  0  0  0  0
 23 22  1  0  0  0  0
 24 22  1  0  0  0  0
 24 25  2  0  0  0  0
 25 27  1  0  0  0  0
 26 25  1  0  0  0  0
 27 28  2  0  0  0  0
 28 18  1  0  0  0  0
M  END
>  <minimizedAffinity>
-4.25028133

$$$$

 OpenBabel03272509263D

 28 30  0  0  0  0  0  0  0  0999 V2000
   40.7740   26.6510   34.5790 C   0  0  0  0  0  0  0  0  0  0  0  0
   40.9770   25.5380   34.5640 H   0  0  0  0  0  0  0  0  0  0  0  0
   41.6270   27.0820   35.0970 H   0  0  0  0  0  0  0  0  0  0  0  0
   39.4470   26.7860   35.2840 C   0  0  0  0  0  0  0  0  0  0  0  0
   39.6200   27.4960   36.1270 H   0  0  0  0  0  0  0  0  0  0  0  0
   38.7110   27.2280   34.5560 H   0  0  0  0  0  0  0  0  0  0  0  0
   37.6420   23.9880   37.0550 C   0  0  0  0  0  0  0  0  0  0  0  0
   38.0240   25.2770   36.7250 C   0  0  0  0  0  0  0  0  0  0  0  0
   38.9530   25.4760   35.7330 C   0  0  0  0  0  0  0  0  0  0  0  0
   39.4550   24.3640   35.1180 N   0  0  0  0  0  0  0  0  0  0  0  0
   39.0780   23.1080   35.4440 C   0  0  0  0  0  0  0  0  0  0  0  0
   38.1630   22.9190   36.4240 N   0  0  0  0  0  0  0  0  0  0  0  0
   36.9070   23.9090   37.8450 H   0  0  0  0  0  0  0  0  0  0  0  0
   37.6160   26.1270   37.2210 H   0  0  0  0  0  0  0  0  0  0  0  0
   39.5190   22.2670   34.9140 H   0  0  0  0  0  0  0  0  0  0  0  0
   40.6190   27.1070   32.8360 S   0  0  0  0  0  0  0  0  0  0  0  0
   39.4120   24.3870   32.2930 H   0  0  0  0  0  0  0  0  0  0  0  0
   38.7920   25.2070   32.1450 N   0  0  0  0  0  0  0  0  0  0  0  0
   39.0140   26.5370   32.2930 C   0  0  0  0  0  0  0  0  0  0  0  0
   37.8970   27.2220   31.9790 N   0  0  0  0  0  0  0  0  0  0  0  0
   36.9220   26.3410   31.6170 C   0  0  0  0  0  0  0  0  0  0  0  0
   35.6090   26.4350   31.2060 C   0  0  0  0  0  0  0  0  0  0  0  0
   35.1780   27.4120   31.1270 H   0  0  0  0  0  0  0  0  0  0  0  0
   34.8680   25.3580   30.9080 N   0  0  0  0  0  0  0  0  0  0  0  0
   35.4490   24.1480   31.0210 C   0  0  0  0  0  0  0  0  0  0  0  0
   35.0440   23.1590   30.8350 H   0  0  0  0  0  0  0  0  0  0  0  0
   36.7330   24.0240   31.4220 N   0  0  0  0  0  0  0  0  0  0  0  0
   37.5120   25.0790   31.7310 C   0  0  0  0  0  0  0  0  0  0  0  0
  1  3  1  0  0  0  0
  1  4  1  0  0  0  0
  2  1  1  0  0  0  0
  4  9  1  0  0  0  0
  4  5  1  0  0  0  0
  6  4  1  0  0  0  0
  7 13  1  0  0  0  0
  8  7  1  0  0  0  0
  8 14  1  0  0  0  0
  9  8  2  0  0  0  0
 10 11  2  0  0  0  0
 10  9  1  0  0  0  0
 11 12  1  0  0  0  0
 12  7  2  0  0  0  0
 15 11  1  0  0  0  0
 16  1  1  0  0  0  0
 18 19  1  0  0  0  0
 18 17  1  0  0  0  0
 19 16  1  0  0  0  0
 20 19  2  0  0  0  0
 21 28  1  0  0  0  0
 21 20  1  0  0  0  0
 22 21  2  0  0  0  0
 23 22  1  0  0  0  0
 24 25  2  0  0  0  0
 24 22  1  0  0  0  0
 25 27  1  0  0  0  0
 26 25  1  0  0  0  0
 27 28  2  0  0  0  0
 28 18  1  0  0  0  0
M  END
>  <minimizedAffinity>
-4.19925022

$$$$

 OpenBabel03272509263D

 28 30  0  0  0  0  0  0  0  0999 V2000
   38.1660   25.5010   36.2320 C   0  0  0  0  0  0  0  0  0  0  0  0
   37.1670   25.4110   35.7090 H   0  0  0  0  0  0  0  0  0  0  0  0
   37.9310   25.4460   37.2920 H   0  0  0  0  0  0  0  0  0  0  0  0
   38.7260   26.8190   35.7560 C   0  0  0  0  0  0  0  0  0  0  0  0
   38.5800   27.5350   36.6000 H   0  0  0  0  0  0  0  0  0  0  0  0
   39.8260   26.6780   35.5610 H   0  0  0  0  0  0  0  0  0  0  0  0
   36.2940   28.1560   33.2020 C   0  0  0  0  0  0  0  0  0  0  0  0
   36.8020   27.7840   34.4360 C   0  0  0  0  0  0  0  0  0  0  0  0
   38.0670   27.2540   34.5160 C   0  0  0  0  0  0  0  0  0  0  0  0
   38.7640   27.1240   33.3480 N   0  0  0  0  0  0  0  0  0  0  0  0
   38.2620   27.4890   32.1470 C   0  0  0  0  0  0  0  0  0  0  0  0
   37.0150   28.0100   32.0750 N   0  0  0  0  0  0  0  0  0  0  0  0
   35.2930   28.5650   33.2170 H   0  0  0  0  0  0  0  0  0  0  0  0
   36.2370   27.8970   35.3320 H   0  0  0  0  0  0  0  0  0  0  0  0
   38.8720   27.3570   31.2570 H   0  0  0  0  0  0  0  0  0  0  0  0
   39.1430   24.1230   35.5860 S   0  0  0  0  0  0  0  0  0  0  0  0
   37.8800   21.3870   35.3150 H   0  0  0  0  0  0  0  0  0  0  0  0
   37.7280   22.0490   34.5280 N   0  0  0  0  0  0  0  0  0  0  0  0
   38.1470   23.3240   34.3350 C   0  0  0  0  0  0  0  0  0  0  0  0
   37.6960   23.7760   33.1480 N   0  0  0  0  0  0  0  0  0  0  0  0
   36.9700   22.7920   32.5440 C   0  0  0  0  0  0  0  0  0  0  0  0
   36.2810   22.6620   31.3570 C   0  0  0  0  0  0  0  0  0  0  0  0
   36.2660   23.5000   30.6920 H   0  0  0  0  0  0  0  0  0  0  0  0
   35.6380   21.5350   31.0180 N   0  0  0  0  0  0  0  0  0  0  0  0
   35.6810   20.5040   31.8840 C   0  0  0  0  0  0  0  0  0  0  0  0
   35.2400   19.5160   31.8160 H   0  0  0  0  0  0  0  0  0  0  0  0
   36.3490   20.6030   33.0550 N   0  0  0  0  0  0  0  0  0  0  0  0
   37.0070   21.7150   33.4350 C   0  0  0  0  0  0  0  0  0  0  0  0
  1  3  1  0  0  0  0
  2  1  1  0  0  0  0
  4  1  1  0  0  0  0
  4  5  1  0  0  0  0
  6  4  1  0  0  0  0
  7 13  1  0  0  0  0
  7  8  1  0  0  0  0
  8  9  2  0  0  0  0
  8 14  1  0  0  0  0
  9  4  1  0  0  0  0
 10  9  1  0  0  0  0
 11 10  2  0  0  0  0
 12 11  1  0  0  0  0
 12  7  2  0  0  0  0
 15 11  1  0  0  0  0
 16  1  1  0  0  0  0
 18 17  1  0  0  0  0
 19 18  1  0  0  0  0
 19 16  1  0  0  0  0
 20 19  2  0  0  0  0
 21 20  1  0  0  0  0
 21 28  1  0  0  0  0
 22 21  2  0  0  0  0
 23 22  1  0  0  0  0
 24 22  1  0  0  0  0
 24 25  2  0  0  0  0
 25 27  1  0  0  0  0
 26 25  1  0  0  0  0
 27 28  2  0  0  0  0
 28 18  1  0  0  0  0
M  END
>  <minimizedAffinity>
-4.15522575

$$$$

 OpenBabel03272509263D

 28 30  0  0  0  0  0  0  0  0999 V2000
   36.0530   29.8800   32.4330 C   0  0  0  0  0  0  0  0  0  0  0  0
   36.8890   29.4860   33.0860 H   0  0  0  0  0  0  0  0  0  0  0  0
   36.2440   30.9470   32.3480 H   0  0  0  0  0  0  0  0  0  0  0  0
   34.7890   29.5000   33.1630 C   0  0  0  0  0  0  0  0  0  0  0  0
   33.9550   29.6830   32.4440 H   0  0  0  0  0  0  0  0  0  0  0  0
   34.8460   28.4030   33.4090 H   0  0  0  0  0  0  0  0  0  0  0  0
   33.4780   31.1890   36.2700 C   0  0  0  0  0  0  0  0  0  0  0  0
   33.4770   30.4390   35.1060 C   0  0  0  0  0  0  0  0  0  0  0  0
   34.6490   30.2680   34.4080 C   0  0  0  0  0  0  0  0  0  0  0  0
   35.7690   30.8620   34.9170 N   0  0  0  0  0  0  0  0  0  0  0  0
   35.7630   31.5920   36.0540 C   0  0  0  0  0  0  0  0  0  0  0  0
   34.6060   31.7580   36.7360 N   0  0  0  0  0  0  0  0  0  0  0  0
   32.5200   31.2800   36.7640 H   0  0  0  0  0  0  0  0  0  0  0  0
   32.5880   29.9870   34.7310 H   0  0  0  0  0  0  0  0  0  0  0  0
   36.6920   32.0370   36.4030 H   0  0  0  0  0  0  0  0  0  0  0  0
   36.2040   28.9460   30.8910 S   0  0  0  0  0  0  0  0  0  0  0  0
   35.0220   26.3370   29.9150 H   0  0  0  0  0  0  0  0  0  0  0  0
   35.7140   26.2730   30.6880 N   0  0  0  0  0  0  0  0  0  0  0  0
   36.4160   27.2300   31.3450 C   0  0  0  0  0  0  0  0  0  0  0  0
   37.1960   26.6580   32.2820 N   0  0  0  0  0  0  0  0  0  0  0  0
   37.0130   25.3070   32.2510 C   0  0  0  0  0  0  0  0  0  0  0  0
   37.5150   24.2260   32.9440 C   0  0  0  0  0  0  0  0  0  0  0  0
   38.2330   24.4160   33.7150 H   0  0  0  0  0  0  0  0  0  0  0  0
   37.1370   22.9660   32.6850 N   0  0  0  0  0  0  0  0  0  0  0  0
   36.2310   22.7720   31.7070 C   0  0  0  0  0  0  0  0  0  0  0  0
   35.7910   21.8540   31.3360 H   0  0  0  0  0  0  0  0  0  0  0  0
   35.7220   23.8120   31.0110 N   0  0  0  0  0  0  0  0  0  0  0  0
   36.0740   25.0920   31.2370 C   0  0  0  0  0  0  0  0  0  0  0  0
  1  2  1  0  0  0  0
  1  4  1  0  0  0  0
  3  1  1  0  0  0  0
  4  6  1  0  0  0  0
  4  9  1  0  0  0  0
  5  4  1  0  0  0  0
  7 12  1  0  0  0  0
  7 13  1  0  0  0  0
  8  7  2  0  0  0  0
  9 10  2  0  0  0  0
  9  8  1  0  0  0  0
 10 11  1  0  0  0  0
 11 15  1  0  0  0  0
 11 12  2  0  0  0  0
 14  8  1  0  0  0  0
 16 19  1  0  0  0  0
 16  1  1  0  0  0  0
 17 18  1  0  0  0  0
 18 28  1  0  0  0  0
 18 19  1  0  0  0  0
 19 20  2  0  0  0  0
 21 20  1  0  0  0  0
 21 22  1  0  0  0  0
 22 23  1  0  0  0  0
 24 22  2  0  0  0  0
 25 24  1  0  0  0  0
 26 25  1  0  0  0  0
 27 28  1  0  0  0  0
 27 25  2  0  0  0  0
 28 21  2  0  0  0  0
M  END
>  <minimizedAffinity>
-4.14107609

$$$$

 OpenBabel03272509263D

 28 30  0  0  0  0  0  0  0  0999 V2000
   39.3110   25.3410   35.2160 C   0  0  0  0  0  0  0  0  0  0  0  0
   40.0270   25.8520   35.9260 H   0  0  0  0  0  0  0  0  0  0  0  0
   39.6360   25.6450   34.2240 H   0  0  0  0  0  0  0  0  0  0  0  0
   37.9460   25.8320   35.6340 C   0  0  0  0  0  0  0  0  0  0  0  0
   37.3800   24.9250   35.9520 H   0  0  0  0  0  0  0  0  0  0  0  0
   38.0810   26.5260   36.5110 H   0  0  0  0  0  0  0  0  0  0  0  0
   36.2120   28.4210   33.5090 C   0  0  0  0  0  0  0  0  0  0  0  0
   36.8130   27.8470   34.6170 C   0  0  0  0  0  0  0  0  0  0  0  0
   37.2900   26.5610   34.5380 C   0  0  0  0  0  0  0  0  0  0  0  0
   37.1420   25.9130   33.3450 N   0  0  0  0  0  0  0  0  0  0  0  0
   36.5550   26.4790   32.2670 C   0  0  0  0  0  0  0  0  0  0  0  0
   36.0850   27.7460   32.3510 N   0  0  0  0  0  0  0  0  0  0  0  0
   35.8600   29.4350   33.6450 H   0  0  0  0  0  0  0  0  0  0  0  0
   36.9160   28.3750   35.5360 H   0  0  0  0  0  0  0  0  0  0  0  0
   36.4690   25.9050   31.3480 H   0  0  0  0  0  0  0  0  0  0  0  0
   39.4910   23.5780   35.5800 S   0  0  0  0  0  0  0  0  0  0  0  0
   38.5730   23.7060   32.7000 H   0  0  0  0  0  0  0  0  0  0  0  0
   38.0840   23.0250   33.3130 N   0  0  0  0  0  0  0  0  0  0  0  0
   38.2450   22.7220   34.6250 C   0  0  0  0  0  0  0  0  0  0  0  0
   37.3700   21.7620   34.9820 N   0  0  0  0  0  0  0  0  0  0  0  0
   36.6170   21.4220   33.8970 C   0  0  0  0  0  0  0  0  0  0  0  0
   35.5940   20.5330   33.6460 C   0  0  0  0  0  0  0  0  0  0  0  0
   35.2500   19.9220   34.4560 H   0  0  0  0  0  0  0  0  0  0  0  0
   35.0250   20.4110   32.4380 N   0  0  0  0  0  0  0  0  0  0  0  0
   35.4880   21.1980   31.4460 C   0  0  0  0  0  0  0  0  0  0  0  0
   35.1810   21.2660   30.4080 H   0  0  0  0  0  0  0  0  0  0  0  0
   36.4890   22.0780   31.6630 N   0  0  0  0  0  0  0  0  0  0  0  0
   37.0880   22.2320   32.8600 C   0  0  0  0  0  0  0  0  0  0  0  0
  1 16  1  0  0  0  0
  1  4  1  0  0  0  0
  1  2  1  0  0  0  0
  3  1  1  0  0  0  0
  4  5  1  0  0  0  0
  4  6  1  0  0  0  0
  7 13  1  0  0  0  0
  7  8  1  0  0  0  0
  8 14  1  0  0  0  0
  9  8  2  0  0  0  0
  9  4  1  0  0  0  0
 10  9  1  0  0  0  0
 11 12  1  0  0  0  0
 11 10  2  0  0  0  0
 12  7  2  0  0  0  0
 15 11  1  0  0  0  0
 17 18  1  0  0  0  0
 18 19  1  0  0  0  0
 19 20  2  0  0  0  0
 19 16  1  0  0  0  0
 21 20  1  0  0  0  0
 22 21  1  0  0  0  0
 22 23  1  0  0  0  0
 24 22  2  0  0  0  0
 25 27  2  0  0  0  0
 25 24  1  0  0  0  0
 26 25  1  0  0  0  0
 27 28  1  0  0  0  0
 28 18  1  0  0  0  0
 28 21  2  0  0  0  0
M  END
>  <minimizedAffinity>
-4.14053822

$$$$

 OpenBabel03272509263D

 28 30  0  0  0  0  0  0  0  0999 V2000
   39.1930   24.7970   33.9320 C   0  0  0  0  0  0  0  0  0  0  0  0
   40.2140   24.3200   34.0230 H   0  0  0  0  0  0  0  0  0  0  0  0
   39.2790   25.7430   34.4600 H   0  0  0  0  0  0  0  0  0  0  0  0
   38.2480   23.7930   34.5440 C   0  0  0  0  0  0  0  0  0  0  0  0
   37.2210   24.1420   34.2820 H   0  0  0  0  0  0  0  0  0  0  0  0
   38.4450   22.7930   34.0640 H   0  0  0  0  0  0  0  0  0  0  0  0
   37.9630   24.0540   38.2960 C   0  0  0  0  0  0  0  0  0  0  0  0
   37.6490   24.2290   36.9580 C   0  0  0  0  0  0  0  0  0  0  0  0
   38.4620   23.6830   35.9940 C   0  0  0  0  0  0  0  0  0  0  0  0
   39.5550   22.9840   36.4230 N   0  0  0  0  0  0  0  0  0  0  0  0
   39.8550   22.8160   37.7300 C   0  0  0  0  0  0  0  0  0  0  0  0
   39.0510   23.3570   38.6750 N   0  0  0  0  0  0  0  0  0  0  0  0
   37.2790   24.5120   38.9970 H   0  0  0  0  0  0  0  0  0  0  0  0
   36.7910   24.7790   36.6510 H   0  0  0  0  0  0  0  0  0  0  0  0
   40.7410   22.2480   38.0010 H   0  0  0  0  0  0  0  0  0  0  0  0
   38.9120   24.9320   32.1500 S   0  0  0  0  0  0  0  0  0  0  0  0
   36.8610   26.4140   33.8090 H   0  0  0  0  0  0  0  0  0  0  0  0
   37.0680   26.8050   32.8680 N   0  0  0  0  0  0  0  0  0  0  0  0
   37.9150   26.3940   31.8930 C   0  0  0  0  0  0  0  0  0  0  0  0
   37.8360   27.2300   30.8390 N   0  0  0  0  0  0  0  0  0  0  0  0
   36.9270   28.2080   31.1150 C   0  0  0  0  0  0  0  0  0  0  0  0
   36.4300   29.3090   30.4500 C   0  0  0  0  0  0  0  0  0  0  0  0
   36.8050   29.5130   29.4680 H   0  0  0  0  0  0  0  0  0  0  0  0
   35.5080   30.1200   30.9890 N   0  0  0  0  0  0  0  0  0  0  0  0
   35.0640   29.8290   32.2280 C   0  0  0  0  0  0  0  0  0  0  0  0
   34.3330   30.3380   32.8450 H   0  0  0  0  0  0  0  0  0  0  0  0
   35.5330   28.7550   32.9020 N   0  0  0  0  0  0  0  0  0  0  0  0
   36.4580   27.9160   32.3990 C   0  0  0  0  0  0  0  0  0  0  0  0
  1  2  1  0  0  0  0
  1  3  1  0  0  0  0
  1  4  1  0  0  0  0
  4  9  1  0  0  0  0
  5  4  1  0  0  0  0
  6  4  1  0  0  0  0
  7 12  1  0  0  0  0
  7 13  1  0  0  0  0
  8  7  2  0  0  0  0
  9 10  2  0  0  0  0
  9  8  1  0  0  0  0
 10 11  1  0  0  0  0
 11 15  1  0  0  0  0
 11 12  2  0  0  0  0
 14  8  1  0  0  0  0
 16  1  1  0  0  0  0
 18 17  1  0  0  0  0
 19 16  1  0  0  0  0
 19 18  1  0  0  0  0
 20 21  1  0  0  0  0
 20 19  2  0  0  0  0
 21 28  1  0  0  0  0
 22 24  1  0  0  0  0
 22 21  2  0  0  0  0
 23 22  1  0  0  0  0
 24 25  2  0  0  0  0
 25 26  1  0  0  0  0
 25 27  1  0  0  0  0
 28 18  1  0  0  0  0
 28 27  2  0  0  0  0
M  END
>  <minimizedAffinity>
-4.1357069

$$$$

 OpenBabel03272509263D

 28 30  0  0  0  0  0  0  0  0999 V2000
   38.8430   26.6960   34.8830 C   0  0  0  0  0  0  0  0  0  0  0  0
   39.8160   26.1240   34.9610 H   0  0  0  0  0  0  0  0  0  0  0  0
   39.0610   27.6750   35.3040 H   0  0  0  0  0  0  0  0  0  0  0  0
   37.8500   25.8610   35.6540 C   0  0  0  0  0  0  0  0  0  0  0  0
   37.3300   26.5670   36.3450 H   0  0  0  0  0  0  0  0  0  0  0  0
   37.1130   25.4320   34.9190 H   0  0  0  0  0  0  0  0  0  0  0  0
   40.1110   23.0030   36.6260 C   0  0  0  0  0  0  0  0  0  0  0  0
   39.5620   24.0160   35.8570 C   0  0  0  0  0  0  0  0  0  0  0  0
   38.5230   24.7610   36.3600 C   0  0  0  0  0  0  0  0  0  0  0  0
   38.0840   24.4520   37.6160 N   0  0  0  0  0  0  0  0  0  0  0  0
   38.6240   23.4620   38.3620 C   0  0  0  0  0  0  0  0  0  0  0  0
   39.6470   22.7300   37.8610 N   0  0  0  0  0  0  0  0  0  0  0  0
   40.9240   22.4590   36.1660 H   0  0  0  0  0  0  0  0  0  0  0  0
   39.9240   24.2360   34.8800 H   0  0  0  0  0  0  0  0  0  0  0  0
   38.2260   23.2690   39.3550 H   0  0  0  0  0  0  0  0  0  0  0  0
   38.4490   26.6850   33.1180 S   0  0  0  0  0  0  0  0  0  0  0  0
   37.6680   28.5220   30.8450 H   0  0  0  0  0  0  0  0  0  0  0  0
   37.0750   28.5600   31.6970 N   0  0  0  0  0  0  0  0  0  0  0  0
   37.1470   27.8850   32.8710 C   0  0  0  0  0  0  0  0  0  0  0  0
   36.1480   28.2780   33.6840 N   0  0  0  0  0  0  0  0  0  0  0  0
   35.4020   29.2250   33.0470 C   0  0  0  0  0  0  0  0  0  0  0  0
   34.2880   29.9770   33.3560 C   0  0  0  0  0  0  0  0  0  0  0  0
   33.8410   29.8380   34.3190 H   0  0  0  0  0  0  0  0  0  0  0  0
   33.7580   30.8630   32.5010 N   0  0  0  0  0  0  0  0  0  0  0  0
   34.3510   31.0070   31.3000 C   0  0  0  0  0  0  0  0  0  0  0  0
   34.0960   31.6540   30.4680 H   0  0  0  0  0  0  0  0  0  0  0  0
   35.4430   30.2840   30.9700 N   0  0  0  0  0  0  0  0  0  0  0  0
   36.0090   29.3840   31.7970 C   0  0  0  0  0  0  0  0  0  0  0  0
  1  2  1  0  0  0  0
  1  3  1  0  0  0  0
  1  4  1  0  0  0  0
  4  5  1  0  0  0  0
  4  9  1  0  0  0  0
  6  4  1  0  0  0  0
  7 12  1  0  0  0  0
  8  9  1  0  0  0  0
  8  7  2  0  0  0  0
  9 10  2  0  0  0  0
 10 11  1  0  0  0  0
 11 15  1  0  0  0  0
 12 11  2  0  0  0  0
 13  7  1  0  0  0  0
 14  8  1  0  0  0  0
 16  1  1  0  0  0  0
 17 18  1  0  0  0  0
 18 28  1  0  0  0  0
 18 19  1  0  0  0  0
 19 16  1  0  0  0  0
 19 20  2  0  0  0  0
 21 22  1  0  0  0  0
 21 20  1  0  0  0  0
 22 23  1  0  0  0  0
 24 22  2  0  0  0  0
 25 24  1  0  0  0  0
 26 25  1  0  0  0  0
 27 25  2  0  0  0  0
 27 28  1  0  0  0  0
 28 21  2  0  0  0  0
M  END
>  <minimizedAffinity>
-4.10871649

$$$$
