
 OpenBabel03272506383D

 40 43  0  0  1  0  0  0  0  0999 V2000
   34.6890   28.7250   50.1020 O   0  0  0  0  0  0  0  0  0  0  0  0
   34.4780   29.0470   48.9220 C   0  0  0  0  0  0  0  0  0  0  0  0
   35.2210   30.1130   48.2830 C   0  0  2  0  0  0  0  0  0  0  0  0
   34.7230   29.9720   46.8060 C   0  0  0  0  0  0  0  0  0  0  0  0
   33.3580   29.3720   46.9720 C   0  0  0  0  0  0  0  0  0  0  0  0
   33.5000   28.4210   48.0620 N   0  0  0  0  0  0  0  0  0  0  0  0
   35.0250   31.1390   48.6060 H   0  0  0  0  0  0  0  0  0  0  0  0
   35.4150   29.3540   46.2350 H   0  0  0  0  0  0  0  0  0  0  0  0
   34.7450   30.9830   46.3870 H   0  0  0  0  0  0  0  0  0  0  0  0
   32.5620   30.1020   47.1050 H   0  0  0  0  0  0  0  0  0  0  0  0
   33.1390   28.7610   46.0580 H   0  0  0  0  0  0  0  0  0  0  0  0
   32.8250   27.1540   48.2350 C   0  0  0  0  0  0  0  0  0  0  0  0
   33.0290   26.4710   47.4020 H   0  0  0  0  0  0  0  0  0  0  0  0
   33.3040   26.6840   49.1440 H   0  0  0  0  0  0  0  0  0  0  0  0
   31.4310   27.3060   48.5240 N   0  0  0  0  0  0  0  0  0  0  0  0
   30.8750   27.9900   49.5650 C   0  0  0  0  0  0  0  0  0  0  0  0
   31.4860   28.5000   50.2970 H   0  0  0  0  0  0  0  0  0  0  0  0
   29.5150   27.9220   49.5230 N   0  0  0  0  0  0  0  0  0  0  0  0
   29.1840   27.1850   48.4410 C   0  0  0  0  0  0  0  0  0  0  0  0
   27.9640   26.7970   47.9170 C   0  0  0  0  0  0  0  0  0  0  0  0
   27.0740   27.1130   48.4260 H   0  0  0  0  0  0  0  0  0  0  0  0
   28.0140   26.0500   46.8030 N   0  0  0  0  0  0  0  0  0  0  0  0
   29.1740   25.6860   46.2100 C   0  0  0  0  0  0  0  0  0  0  0  0
   29.0750   25.0800   45.3130 H   0  0  0  0  0  0  0  0  0  0  0  0
   30.3660   26.0510   46.7010 N   0  0  0  0  0  0  0  0  0  0  0  0
   30.3680   26.8110   47.8330 C   0  0  0  0  0  0  0  0  0  0  0  0
   36.6310   29.8980   48.2320 O   0  0  0  0  0  0  0  0  0  0  0  0
   37.4540   31.0200   48.2820 C   0  0  0  0  0  0  0  0  0  0  0  0
   37.6180   31.6160   49.5200 C   0  0  0  0  0  0  0  0  0  0  0  0
   38.4320   32.7380   49.6030 C   0  0  0  0  0  0  0  0  0  0  0  0
   39.0290   33.2000   48.4700 N   0  0  0  0  0  0  0  0  0  0  0  0
   38.8600   32.6100   47.2780 C   0  0  0  0  0  0  0  0  0  0  0  0
   38.0820   31.5410   47.2130 N   0  0  0  0  0  0  0  0  0  0  0  0
   40.3680   32.1740   45.5020 C   0  0  0  0  0  0  0  0  0  0  0  0
   40.6150   30.9950   45.8660 O   0  0  0  0  0  0  0  0  0  0  0  0
   39.4990   33.1230   46.1140 N   0  0  0  0  0  0  0  0  0  0  0  0
   37.1660   31.2850   50.4350 H   0  0  0  0  0  0  0  0  0  0  0  0
   38.5810   33.2280   50.5550 H   0  0  0  0  0  0  0  0  0  0  0  0
   40.9320   32.4080   44.6030 H   0  0  0  0  0  0  0  0  0  0  0  0
   39.3950   34.0580   45.7020 H   0  0  0  0  0  0  0  0  0  0  0  0
  2  1  2  0  0  0  0
  3  7  1  1  0  0  0
  3  2  1  0  0  0  0
  4  5  1  0  0  0  0
  4  3  1  0  0  0  0
  5 10  1  0  0  0  0
  5  6  1  0  0  0  0
  6 12  1  0  0  0  0
  6  2  1  0  0  0  0
  8  4  1  0  0  0  0
  9  4  1  0  0  0  0
 11  5  1  0  0  0  0
 12 15  1  0  0  0  0
 12 14  1  0  0  0  0
 13 12  1  0  0  0  0
 15 16  1  0  0  0  0
 16 17  1  0  0  0  0
 18 16  2  0  0  0  0
 19 18  1  0  0  0  0
 20 21  1  0  0  0  0
 20 19  1  0  0  0  0
 22 20  2  0  0  0  0
 23 25  2  0  0  0  0
 23 22  1  0  0  0  0
 24 23  1  0  0  0  0
 25 26  1  0  0  0  0
 26 19  2  0  0  0  0
 26 15  1  0  0  0  0
 27 28  1  0  0  0  0
 27  3  1  0  0  0  0
 28 29  1  0  0  0  0
 29 30  2  0  0  0  0
 29 37  1  0  0  0  0
 30 38  1  0  0  0  0
 31 30  1  0  0  0  0
 32 31  2  0  0  0  0
 33 32  1  0  0  0  0
 33 28  2  0  0  0  0
 34 35  2  0  0  0  0
 34 36  1  0  0  0  0
 36 32  1  0  0  0  0
 39 34  1  0  0  0  0
 40 36  1  0  0  0  0
M  END
>  <minimizedAffinity>
-6.38948202

>  <minimizedRMSD>
1.00873327

$$$$
