
 OpenBabel03272508083D

 27 29  0  0  0  0  0  0  0  0999 V2000
   39.0580   32.7540   48.1190 O   0  0  0  0  0  0  0  0  0  0  0  0
   38.6540   31.7390   47.0940 P   0  0  2  0  0  0  0  0  0  0  0  0
   37.6660   32.4810   45.9160 O   0  0  0  0  0  0  0  0  0  0  0  0
   37.7700   33.4540   45.9830 H   0  0  0  0  0  0  0  0  0  0  0  0
   37.9320   30.3590   47.7150 O   0  0  0  0  0  0  0  0  0  0  0  0
   37.3390   30.1860   51.3650 C   0  0  0  0  0  0  0  0  0  0  0  0
   38.0160   30.5230   50.1880 C   0  0  0  0  0  0  0  0  0  0  0  0
   37.4590   30.1430   48.9760 C   0  0  0  0  0  0  0  0  0  0  0  0
   36.2720   29.4550   48.9870 N   0  0  0  0  0  0  0  0  0  0  0  0
   35.6550   29.1510   50.1510 C   0  0  0  0  0  0  0  0  0  0  0  0
   36.1860   29.5150   51.3300 N   0  0  0  0  0  0  0  0  0  0  0  0
   37.7960   30.4940   52.2820 H   0  0  0  0  0  0  0  0  0  0  0  0
   38.9380   31.0540   50.1080 H   0  0  0  0  0  0  0  0  0  0  0  0
   34.7060   28.5990   50.1190 H   0  0  0  0  0  0  0  0  0  0  0  0
   40.0680   31.2800   46.2660 O   0  0  0  0  0  0  0  0  0  0  0  0
   40.5950   32.7090   43.9250 H   0  0  0  0  0  0  0  0  0  0  0  0
   40.2460   31.7300   43.8390 N   0  0  0  0  0  0  0  0  0  0  0  0
   39.9590   30.9490   44.9120 C   0  0  0  0  0  0  0  0  0  0  0  0
   39.5490   29.7900   44.3580 N   0  0  0  0  0  0  0  0  0  0  0  0
   39.5750   29.8340   43.0300 C   0  0  0  0  0  0  0  0  0  0  0  0
   39.2850   29.0010   41.9670 C   0  0  0  0  0  0  0  0  0  0  0  0
   38.9290   28.0060   42.1850 H   0  0  0  0  0  0  0  0  0  0  0  0
   39.4330   29.3890   40.6940 N   0  0  0  0  0  0  0  0  0  0  0  0
   39.8830   30.6430   40.4270 C   0  0  0  0  0  0  0  0  0  0  0  0
   40.0080   30.9730   39.3840 H   0  0  0  0  0  0  0  0  0  0  0  0
   40.1800   31.4960   41.4270 N   0  0  0  0  0  0  0  0  0  0  0  0
   40.0250   31.0870   42.6960 C   0  0  0  0  0  0  0  0  0  0  0  0
  2  5  1  0  0  0  0
  2  1  2  1  0  0  0
  3  4  1  0  0  0  0
  3  2  1  0  0  0  0
  5  8  1  0  0  0  0
  6 12  1  0  0  0  0
  7  6  2  0  0  0  0
  8  9  2  0  0  0  0
  8  7  1  0  0  0  0
  9 10  1  0  0  0  0
 10 11  2  0  0  0  0
 11  6  1  0  0  0  0
 13  7  1  0  0  0  0
 14 10  1  0  0  0  0
 15  2  1  0  0  0  0
 17 16  1  0  0  0  0
 17 18  1  0  0  0  0
 18 15  1  0  0  0  0
 19 18  2  0  0  0  0
 20 19  1  0  0  0  0
 21 22  1  0  0  0  0
 21 20  2  0  0  0  0
 23 21  1  0  0  0  0
 24 23  2  0  0  0  0
 24 26  1  0  0  0  0
 25 24  1  0  0  0  0
 26 27  2  0  0  0  0
 27 20  1  0  0  0  0
 27 17  1  0  0  0  0
M  END
>  <minimizedAffinity>
-5.52564335

>  <minimizedRMSD>
1.73212981

$$$$
