
 OpenBabel03262521103D

 27 29  0  0  0  0  0  0  0  0999 V2000
   35.3930   29.8130   46.1780 O   0  0  0  0  0  0  0  0  0  0  0  0
   34.2500   29.4490   47.1210 P   0  0  1  0  0  0  0  0  0  0  0  0
   34.3600   27.8330   47.5990 O   0  0  0  0  0  0  0  0  0  0  0  0
   34.1440   27.7150   48.5530 H   0  0  0  0  0  0  0  0  0  0  0  0
   34.2920   30.3920   48.5620 O   0  0  0  0  0  0  0  0  0  0  0  0
   35.3470   30.3370   49.4580 C   0  0  0  0  0  0  0  0  0  0  0  0
   35.4820   29.4300   50.5230 C   0  0  0  0  0  0  0  0  0  0  0  0
   36.6100   29.5220   51.3210 C   0  0  0  0  0  0  0  0  0  0  0  0
   37.5420   30.4830   51.0470 N   0  0  0  0  0  0  0  0  0  0  0  0
   37.3800   31.3540   50.0010 C   0  0  0  0  0  0  0  0  0  0  0  0
   36.2790   31.2640   49.2210 N   0  0  0  0  0  0  0  0  0  0  0  0
   34.6670   28.7250   50.6180 H   0  0  0  0  0  0  0  0  0  0  0  0
   36.6890   28.8250   52.1180 H   0  0  0  0  0  0  0  0  0  0  0  0
   38.1700   32.0870   49.8540 H   0  0  0  0  0  0  0  0  0  0  0  0
   32.8270   29.7690   46.2820 O   0  0  0  0  0  0  0  0  0  0  0  0
   30.1110   30.5040   45.8570 H   0  0  0  0  0  0  0  0  0  0  0  0
   30.3490   29.6900   46.4390 N   0  0  0  0  0  0  0  0  0  0  0  0
   31.6090   29.2590   46.7010 C   0  0  0  0  0  0  0  0  0  0  0  0
   31.5150   28.1750   47.4920 N   0  0  0  0  0  0  0  0  0  0  0  0
   30.2320   27.9070   47.7380 C   0  0  0  0  0  0  0  0  0  0  0  0
   29.4800   26.9850   48.4380 C   0  0  0  0  0  0  0  0  0  0  0  0
   30.0300   26.2150   48.9740 H   0  0  0  0  0  0  0  0  0  0  0  0
   28.1230   27.0450   48.4480 N   0  0  0  0  0  0  0  0  0  0  0  0
   27.4650   27.9970   47.7840 C   0  0  0  0  0  0  0  0  0  0  0  0
   26.3820   28.0930   47.7580 H   0  0  0  0  0  0  0  0  0  0  0  0
   28.1050   28.9580   47.0600 N   0  0  0  0  0  0  0  0  0  0  0  0
   29.4660   28.8650   47.0730 C   0  0  0  0  0  0  0  0  0  0  0  0
  2  1  2  6  0  0  0
  2  3  1  0  0  0  0
  2  5  1  0  0  0  0
  3  4  1  0  0  0  0
  5  6  1  0  0  0  0
  6  7  1  0  0  0  0
  7 12  1  0  0  0  0
  7  8  2  0  0  0  0
  8 13  1  0  0  0  0
  9  8  1  0  0  0  0
 10  9  2  0  0  0  0
 11  6  2  0  0  0  0
 11 10  1  0  0  0  0
 14 10  1  0  0  0  0
 15 18  1  0  0  0  0
 15  2  1  0  0  0  0
 16 17  1  0  0  0  0
 17 18  1  0  0  0  0
 17 27  1  0  0  0  0
 18 19  2  0  0  0  0
 19 20  1  0  0  0  0
 20 21  1  0  0  0  0
 21 23  2  0  0  0  0
 21 22  1  0  0  0  0
 24 23  1  0  0  0  0
 25 24  1  0  0  0  0
 26 27  1  0  0  0  0
 26 24  2  0  0  0  0
 27 20  2  0  0  0  0
M  END
>  <minimizedAffinity>
-4.63516665

>  <minimizedRMSD>
2.94995856

$$$$
