
 OpenBabel03272508113D

 37 40  0  0  0  0  0  0  0  0999 V2000
   36.7220   29.4320   44.0340 Cl  0  0  0  0  0  0  0  0  0  0  0  0
   38.3770   29.8230   43.5410 C   0  0  0  0  0  0  0  0  0  0  0  0
   39.3430   30.3290   44.4110 C   0  0  0  0  0  0  0  0  0  0  0  0
   40.5930   30.5910   43.8950 C   0  0  0  0  0  0  0  0  0  0  0  0
   40.8680   30.3570   42.5670 C   0  0  0  0  0  0  0  0  0  0  0  0
   39.9280   29.8590   41.6990 C   0  0  0  0  0  0  0  0  0  0  0  0
   38.6800   29.5940   42.1970 C   0  0  0  0  0  0  0  0  0  0  0  0
   41.2750   30.9810   44.6430 H   0  0  0  0  0  0  0  0  0  0  0  0
   41.8730   30.5850   42.2270 H   0  0  0  0  0  0  0  0  0  0  0  0
   40.1810   29.6860   40.6510 H   0  0  0  0  0  0  0  0  0  0  0  0
   37.7170   29.0790   41.2840 N   0  0  0  0  0  0  0  0  0  0  0  0
   36.9210   29.7940   40.4550 C   0  0  0  0  0  0  0  0  0  0  0  0
   36.8790   30.8810   40.3450 H   0  0  0  0  0  0  0  0  0  0  0  0
   36.1260   28.9850   39.7250 N   0  0  0  0  0  0  0  0  0  0  0  0
   36.4040   27.7040   40.0790 C   0  0  0  0  0  0  0  0  0  0  0  0
   35.9510   26.4470   39.7140 C   0  0  0  0  0  0  0  0  0  0  0  0
   35.1760   26.3860   38.9550 H   0  0  0  0  0  0  0  0  0  0  0  0
   36.4840   25.3430   40.3060 N   0  0  0  0  0  0  0  0  0  0  0  0
   37.4430   25.4260   41.2440 C   0  0  0  0  0  0  0  0  0  0  0  0
   37.8740   24.5510   41.7240 H   0  0  0  0  0  0  0  0  0  0  0  0
   37.8570   26.6670   41.5730 N   0  0  0  0  0  0  0  0  0  0  0  0
   37.3900   27.7930   41.0440 C   0  0  0  0  0  0  0  0  0  0  0  0
   38.8680   30.4880   45.6810 O   0  0  0  0  0  0  0  0  0  0  0  0
   39.4330   32.5570   47.1250 O   0  0  0  0  0  0  0  0  0  0  0  0
   38.3040   31.8610   46.4450 P   0  0  1  0  0  0  0  0  0  0  0  0
   37.7110   32.8500   45.1820 O   0  0  0  0  0  0  0  0  0  0  0  0
   38.3460   33.5930   45.0330 H   0  0  0  0  0  0  0  0  0  0  0  0
   37.0210   31.4480   47.4790 O   0  0  0  0  0  0  0  0  0  0  0  0
   37.6070   30.5180   50.9990 C   0  0  0  0  0  0  0  0  0  0  0  0
   37.7030   31.3160   49.8530 C   0  0  0  0  0  0  0  0  0  0  0  0
   37.0660   30.8560   48.6910 C   0  0  0  0  0  0  0  0  0  0  0  0
   36.3940   29.6670   48.7410 N   0  0  0  0  0  0  0  0  0  0  0  0
   36.3340   28.9400   49.8690 C   0  0  0  0  0  0  0  0  0  0  0  0
   36.9340   29.3560   50.9960 N   0  0  0  0  0  0  0  0  0  0  0  0
   38.1240   30.9270   51.8760 H   0  0  0  0  0  0  0  0  0  0  0  0
   38.2080   32.2440   49.7550 H   0  0  0  0  0  0  0  0  0  0  0  0
   35.8040   27.9950   49.9190 H   0  0  0  0  0  0  0  0  0  0  0  0
  2  1  1  0  0  0  0
  2  3  1  0  0  0  0
  3 23  1  0  0  0  0
  4  3  2  0  0  0  0
  4  8  1  0  0  0  0
  5  4  1  0  0  0  0
  6  7  1  0  0  0  0
  6  5  2  0  0  0  0
  7  2  2  0  0  0  0
  9  5  1  0  0  0  0
 10  6  1  0  0  0  0
 11  7  1  0  0  0  0
 12 11  1  0  0  0  0
 13 12  1  0  0  0  0
 14 15  1  0  0  0  0
 14 12  2  0  0  0  0
 15 22  1  0  0  0  0
 16 15  2  0  0  0  0
 16 18  1  0  0  0  0
 17 16  1  0  0  0  0
 18 19  2  0  0  0  0
 19 21  1  0  0  0  0
 19 20  1  0  0  0  0
 22 11  1  0  0  0  0
 22 21  2  0  0  0  0
 23 25  1  0  0  0  0
 25 24  2  1  0  0  0
 25 28  1  0  0  0  0
 26 25  1  0  0  0  0
 27 26  1  0  0  0  0
 28 31  1  0  0  0  0
 29 35  1  0  0  0  0
 30 29  2  0  0  0  0
 31 32  2  0  0  0  0
 31 30  1  0  0  0  0
 32 33  1  0  0  0  0
 33 37  1  0  0  0  0
 33 34  2  0  0  0  0
 34 29  1  0  0  0  0
 36 30  1  0  0  0  0
M  END
>  <minimizedAffinity>
-4.94989252

>  <minimizedRMSD>
0.397663623

$$$$
