
 OpenBabel03272501483D

 23 25  0  0  0  0  0  0  0  0999 V2000
   37.1690   30.3970   51.1770 C   0  0  0  0  0  0  0  0  0  0  0  0
   37.7660   31.0860   50.1170 C   0  0  0  0  0  0  0  0  0  0  0  0
   37.3850   30.7180   48.8050 C   0  0  0  0  0  0  0  0  0  0  0  0
   36.4610   29.7170   48.6630 N   0  0  0  0  0  0  0  0  0  0  0  0
   35.9230   29.0920   49.7170 C   0  0  0  0  0  0  0  0  0  0  0  0
   36.2670   29.4210   50.9890 N   0  0  0  0  0  0  0  0  0  0  0  0
   34.9790   28.0750   49.4200 N   0  0  0  0  0  0  0  0  0  0  0  0
   37.4070   30.6180   52.2010 H   0  0  0  0  0  0  0  0  0  0  0  0
   38.4870   31.8650   50.3020 H   0  0  0  0  0  0  0  0  0  0  0  0
   34.9600   27.0550   49.6310 H   0  0  0  0  0  0  0  0  0  0  0  0
   34.1310   28.4240   48.8800 H   0  0  0  0  0  0  0  0  0  0  0  0
   37.9630   31.3900   47.6910 N   0  0  0  0  0  0  0  0  0  0  0  0
   39.0540   32.1800   47.8940 C   0  0  0  0  0  0  0  0  0  0  0  0
   39.6030   32.4140   48.7900 H   0  0  0  0  0  0  0  0  0  0  0  0
   39.4570   32.7280   46.7340 N   0  0  0  0  0  0  0  0  0  0  0  0
   38.6230   32.2900   45.7770 C   0  0  0  0  0  0  0  0  0  0  0  0
   38.4530   32.4440   44.4000 C   0  0  0  0  0  0  0  0  0  0  0  0
   39.1680   33.0930   43.8940 H   0  0  0  0  0  0  0  0  0  0  0  0
   37.4450   31.8050   43.7730 N   0  0  0  0  0  0  0  0  0  0  0  0
   36.5750   31.0100   44.4080 C   0  0  0  0  0  0  0  0  0  0  0  0
   35.8320   30.5730   43.7850 H   0  0  0  0  0  0  0  0  0  0  0  0
   36.6900   30.8200   45.7520 N   0  0  0  0  0  0  0  0  0  0  0  0
   37.6970   31.4600   46.3730 C   0  0  0  0  0  0  0  0  0  0  0  0
  1  8  1  0  0  0  0
  2  9  1  0  0  0  0
  2  1  2  0  0  0  0
  3  2  1  0  0  0  0
  4  3  2  0  0  0  0
  4  5  1  0  0  0  0
  5  6  2  0  0  0  0
  6  1  1  0  0  0  0
  7 10  1  0  0  0  0
  7  5  1  0  0  0  0
 11  7  1  0  0  0  0
 12 13  1  0  0  0  0
 12  3  1  0  0  0  0
 13 14  1  0  0  0  0
 15 13  2  0  0  0  0
 16 23  1  0  0  0  0
 16 15  1  0  0  0  0
 17 16  2  0  0  0  0
 18 17  1  0  0  0  0
 19 17  1  0  0  0  0
 19 20  2  0  0  0  0
 20 22  1  0  0  0  0
 21 20  1  0  0  0  0
 22 23  2  0  0  0  0
 23 12  1  0  0  0  0
M  END
>  <minimizedAffinity>
-5.43122244

>  <minimizedRMSD>
0.772805214

$$$$
