
 OpenBabel03272505143D

 42 46  0  0  0  0  0  0  0  0999 V2000
   36.8280   28.0530   34.5800 Cl  0  0  0  0  0  0  0  0  0  0  0  0
   36.5860   28.6750   32.9520 C   0  0  0  0  0  0  0  0  0  0  0  0
   37.4280   28.4170   31.8650 C   0  0  0  0  0  0  0  0  0  0  0  0
   37.1400   28.9560   30.6430 C   0  0  0  0  0  0  0  0  0  0  0  0
   36.0380   29.7450   30.4650 C   0  0  0  0  0  0  0  0  0  0  0  0
   35.1650   30.0340   31.5140 C   0  0  0  0  0  0  0  0  0  0  0  0
   35.4810   29.4800   32.7260 C   0  0  0  0  0  0  0  0  0  0  0  0
   37.8520   28.6990   29.8620 H   0  0  0  0  0  0  0  0  0  0  0  0
   35.8680   30.1400   29.4720 H   0  0  0  0  0  0  0  0  0  0  0  0
   34.3040   30.6580   31.3470 H   0  0  0  0  0  0  0  0  0  0  0  0
   34.5890   29.7670   33.8260 N   0  0  0  0  0  0  0  0  0  0  0  0
   33.4200   29.2400   34.2270 C   0  0  0  0  0  0  0  0  0  0  0  0
   32.9900   28.4190   33.6510 H   0  0  0  0  0  0  0  0  0  0  0  0
   33.0280   29.9100   35.3350 N   0  0  0  0  0  0  0  0  0  0  0  0
   33.9670   30.8460   35.6050 C   0  0  0  0  0  0  0  0  0  0  0  0
   33.9550   31.7420   36.6480 C   0  0  0  0  0  0  0  0  0  0  0  0
   33.1510   31.7720   37.3760 H   0  0  0  0  0  0  0  0  0  0  0  0
   35.0110   32.5850   36.7090 N   0  0  0  0  0  0  0  0  0  0  0  0
   36.0050   32.5320   35.7900 C   0  0  0  0  0  0  0  0  0  0  0  0
   36.8400   33.2320   35.8760 H   0  0  0  0  0  0  0  0  0  0  0  0
   35.9830   31.6480   34.7900 N   0  0  0  0  0  0  0  0  0  0  0  0
   34.9600   30.7740   34.6660 C   0  0  0  0  0  0  0  0  0  0  0  0
   38.8370   27.3620   32.2580 S   0  0  0  0  0  0  0  0  0  0  0  0
   39.5470   26.3400   35.1200 Cl  0  0  0  0  0  0  0  0  0  0  0  0
   38.6280   25.2920   34.0740 C   0  0  0  0  0  0  0  0  0  0  0  0
   38.2570   24.0530   34.5710 C   0  0  0  0  0  0  0  0  0  0  0  0
   37.5300   23.2170   33.7510 C   0  0  0  0  0  0  0  0  0  0  0  0
   37.1910   23.6180   32.4860 C   0  0  0  0  0  0  0  0  0  0  0  0
   37.5970   24.8830   32.0470 C   0  0  0  0  0  0  0  0  0  0  0  0
   38.3210   25.7620   32.8070 C   0  0  0  0  0  0  0  0  0  0  0  0
   37.2560   22.2570   34.1680 H   0  0  0  0  0  0  0  0  0  0  0  0
   36.6210   22.9530   31.8540 H   0  0  0  0  0  0  0  0  0  0  0  0
   37.3130   25.1700   31.0390 H   0  0  0  0  0  0  0  0  0  0  0  0
   38.0760   23.6860   38.2020 C   0  0  0  0  0  0  0  0  0  0  0  0
   39.2740   22.9970   38.5360 C   0  0  0  0  0  0  0  0  0  0  0  0
   40.1340   22.6670   37.4880 C   0  0  0  0  0  0  0  0  0  0  0  0
   39.7940   23.0150   36.2120 N   0  0  0  0  0  0  0  0  0  0  0  0
   38.6480   23.6650   35.9500 C   0  0  0  0  0  0  0  0  0  0  0  0
   37.8100   23.9910   36.9340 N   0  0  0  0  0  0  0  0  0  0  0  0
   37.3960   23.9520   38.9880 H   0  0  0  0  0  0  0  0  0  0  0  0
   39.5100   22.7400   39.5520 H   0  0  0  0  0  0  0  0  0  0  0  0
   41.0480   22.1480   37.7000 H   0  0  0  0  0  0  0  0  0  0  0  0
  2  1  1  0  0  0  0
  3 23  1  0  0  0  0
  3  2  2  0  0  0  0
  4  3  1  0  0  0  0
  5  4  2  0  0  0  0
  5  6  1  0  0  0  0
  6  7  2  0  0  0  0
  7  2  1  0  0  0  0
  7 11  1  0  0  0  0
  8  4  1  0  0  0  0
  9  5  1  0  0  0  0
 10  6  1  0  0  0  0
 11 12  1  0  0  0  0
 11 22  1  0  0  0  0
 12 14  2  0  0  0  0
 13 12  1  0  0  0  0
 14 15  1  0  0  0  0
 15 16  1  0  0  0  0
 16 18  2  0  0  0  0
 16 17  1  0  0  0  0
 19 20  1  0  0  0  0
 19 18  1  0  0  0  0
 21 19  2  0  0  0  0
 22 21  1  0  0  0  0
 22 15  2  0  0  0  0
 23 30  1  0  0  0  0
 25 26  1  0  0  0  0
 25 24  1  0  0  0  0
 26 38  1  0  0  0  0
 27 31  1  0  0  0  0
 27 26  2  0  0  0  0
 28 27  1  0  0  0  0
 29 28  2  0  0  0  0
 29 30  1  0  0  0  0
 30 25  2  0  0  0  0
 32 28  1  0  0  0  0
 33 29  1  0  0  0  0
 34 35  1  0  0  0  0
 34 40  1  0  0  0  0
 35 41  1  0  0  0  0
 36 42  1  0  0  0  0
 36 35  2  0  0  0  0
 37 36  1  0  0  0  0
 38 37  2  0  0  0  0
 38 39  1  0  0  0  0
 39 34  2  0  0  0  0
M  END
>  <minimizedAffinity>
-6.21687555

$$$$

 OpenBabel03272505143D

 42 46  0  0  0  0  0  0  0  0999 V2000
   36.3150   27.6540   34.9200 Cl  0  0  0  0  0  0  0  0  0  0  0  0
   36.2750   28.3670   33.3130 C   0  0  0  0  0  0  0  0  0  0  0  0
   36.7140   27.7320   32.1460 C   0  0  0  0  0  0  0  0  0  0  0  0
   36.6340   28.3860   30.9480 C   0  0  0  0  0  0  0  0  0  0  0  0
   36.1300   29.6540   30.8730 C   0  0  0  0  0  0  0  0  0  0  0  0
   35.6770   30.3330   32.0040 C   0  0  0  0  0  0  0  0  0  0  0  0
   35.7700   29.6520   33.1880 C   0  0  0  0  0  0  0  0  0  0  0  0
   37.0000   27.8120   30.1010 H   0  0  0  0  0  0  0  0  0  0  0  0
   36.0940   30.1140   29.8940 H   0  0  0  0  0  0  0  0  0  0  0  0
   35.2830   31.3310   31.9170 H   0  0  0  0  0  0  0  0  0  0  0  0
   35.3060   30.3380   34.3730 N   0  0  0  0  0  0  0  0  0  0  0  0
   35.8990   31.1630   35.2520 C   0  0  0  0  0  0  0  0  0  0  0  0
   36.9500   31.4170   35.1070 H   0  0  0  0  0  0  0  0  0  0  0  0
   34.9740   31.5070   36.1770 N   0  0  0  0  0  0  0  0  0  0  0  0
   33.8160   30.8850   35.8550 C   0  0  0  0  0  0  0  0  0  0  0  0
   32.6250   30.9650   36.5360 C   0  0  0  0  0  0  0  0  0  0  0  0
   32.5110   31.5660   37.4340 H   0  0  0  0  0  0  0  0  0  0  0  0
   31.6020   30.2500   36.0170 N   0  0  0  0  0  0  0  0  0  0  0  0
   31.7640   29.5070   34.8960 C   0  0  0  0  0  0  0  0  0  0  0  0
   30.9110   28.9420   34.5090 H   0  0  0  0  0  0  0  0  0  0  0  0
   32.9370   29.4520   34.2590 N   0  0  0  0  0  0  0  0  0  0  0  0
   34.0030   30.1420   34.7210 C   0  0  0  0  0  0  0  0  0  0  0  0
   37.3530   26.0660   32.4090 S   0  0  0  0  0  0  0  0  0  0  0  0
   38.1890   23.6460   34.1920 Cl  0  0  0  0  0  0  0  0  0  0  0  0
   39.2590   25.0190   34.1100 C   0  0  0  0  0  0  0  0  0  0  0  0
   40.4330   24.9630   34.8450 C   0  0  0  0  0  0  0  0  0  0  0  0
   41.2850   26.0450   34.7860 C   0  0  0  0  0  0  0  0  0  0  0  0
   40.9650   27.1330   34.0180 C   0  0  0  0  0  0  0  0  0  0  0  0
   39.7640   27.1230   33.3010 C   0  0  0  0  0  0  0  0  0  0  0  0
   38.8720   26.0850   33.3140 C   0  0  0  0  0  0  0  0  0  0  0  0
   42.1930   25.9710   35.3710 H   0  0  0  0  0  0  0  0  0  0  0  0
   41.6430   27.9740   33.9810 H   0  0  0  0  0  0  0  0  0  0  0  0
   39.5400   28.0010   32.7020 H   0  0  0  0  0  0  0  0  0  0  0  0
   42.0220   21.8390   35.8740 C   0  0  0  0  0  0  0  0  0  0  0  0
   41.3700   21.5090   37.0940 C   0  0  0  0  0  0  0  0  0  0  0  0
   40.3800   22.3830   37.5450 C   0  0  0  0  0  0  0  0  0  0  0  0
   40.0870   23.4950   36.8090 N   0  0  0  0  0  0  0  0  0  0  0  0
   40.7340   23.7610   35.6610 C   0  0  0  0  0  0  0  0  0  0  0  0
   41.6830   22.9410   35.2100 N   0  0  0  0  0  0  0  0  0  0  0  0
   42.7870   21.1840   35.5040 H   0  0  0  0  0  0  0  0  0  0  0  0
   41.6250   20.6250   37.6480 H   0  0  0  0  0  0  0  0  0  0  0  0
   39.8650   22.1690   38.4600 H   0  0  0  0  0  0  0  0  0  0  0  0
  2  1  1  0  0  0  0
  3 23  1  0  0  0  0
  3  2  2  0  0  0  0
  4  3  1  0  0  0  0
  5  4  2  0  0  0  0
  5  6  1  0  0  0  0
  6  7  2  0  0  0  0
  7  2  1  0  0  0  0
  7 11  1  0  0  0  0
  8  4  1  0  0  0  0
  9  5  1  0  0  0  0
 10  6  1  0  0  0  0
 11 22  1  0  0  0  0
 11 12  1  0  0  0  0
 12 14  2  0  0  0  0
 13 12  1  0  0  0  0
 15 14  1  0  0  0  0
 15 16  1  0  0  0  0
 16 17  1  0  0  0  0
 18 16  2  0  0  0  0
 19 18  1  0  0  0  0
 20 19  1  0  0  0  0
 21 22  1  0  0  0  0
 21 19  2  0  0  0  0
 22 15  2  0  0  0  0
 23 30  1  0  0  0  0
 25 24  1  0  0  0  0
 25 26  1  0  0  0  0
 26 38  1  0  0  0  0
 27 26  2  0  0  0  0
 27 31  1  0  0  0  0
 28 27  1  0  0  0  0
 29 30  1  0  0  0  0
 29 28  2  0  0  0  0
 30 25  2  0  0  0  0
 32 28  1  0  0  0  0
 33 29  1  0  0  0  0
 34 35  1  0  0  0  0
 35 36  2  0  0  0  0
 35 41  1  0  0  0  0
 36 42  1  0  0  0  0
 37 36  1  0  0  0  0
 38 37  2  0  0  0  0
 39 38  1  0  0  0  0
 39 34  2  0  0  0  0
 40 34  1  0  0  0  0
M  END
>  <minimizedAffinity>
-6.19846201

$$$$

 OpenBabel03272505143D

 42 46  0  0  0  0  0  0  0  0999 V2000
   37.7900   23.9070   34.1940 Cl  0  0  0  0  0  0  0  0  0  0  0  0
   39.0170   25.1580   34.0450 C   0  0  0  0  0  0  0  0  0  0  0  0
   38.9570   26.2340   33.1530 C   0  0  0  0  0  0  0  0  0  0  0  0
   39.9730   27.1480   33.1260 C   0  0  0  0  0  0  0  0  0  0  0  0
   41.0500   27.0270   33.9590 C   0  0  0  0  0  0  0  0  0  0  0  0
   41.1600   25.9750   34.8670 C   0  0  0  0  0  0  0  0  0  0  0  0
   40.1280   25.0750   34.8710 C   0  0  0  0  0  0  0  0  0  0  0  0
   39.8360   27.9470   32.4000 H   0  0  0  0  0  0  0  0  0  0  0  0
   41.8190   27.7850   33.8860 H   0  0  0  0  0  0  0  0  0  0  0  0
   42.0190   25.9030   35.5130 H   0  0  0  0  0  0  0  0  0  0  0  0
   40.2230   23.9770   35.8050 N   0  0  0  0  0  0  0  0  0  0  0  0
   39.4940   23.6080   36.8720 C   0  0  0  0  0  0  0  0  0  0  0  0
   38.6330   24.2170   37.1550 H   0  0  0  0  0  0  0  0  0  0  0  0
   40.0490   22.4830   37.3770 N   0  0  0  0  0  0  0  0  0  0  0  0
   41.1180   22.1700   36.6100 C   0  0  0  0  0  0  0  0  0  0  0  0
   41.9630   21.0980   36.7780 C   0  0  0  0  0  0  0  0  0  0  0  0
   41.8310   20.3780   37.5810 H   0  0  0  0  0  0  0  0  0  0  0  0
   42.9670   20.9950   35.8790 N   0  0  0  0  0  0  0  0  0  0  0  0
   43.1140   21.9030   34.8840 C   0  0  0  0  0  0  0  0  0  0  0  0
   43.9400   21.7830   34.1780 H   0  0  0  0  0  0  0  0  0  0  0  0
   42.2740   22.9330   34.7510 N   0  0  0  0  0  0  0  0  0  0  0  0
   41.2470   23.0990   35.6130 C   0  0  0  0  0  0  0  0  0  0  0  0
   37.4780   26.2550   32.1220 S   0  0  0  0  0  0  0  0  0  0  0  0
   36.3050   27.7430   34.6020 Cl  0  0  0  0  0  0  0  0  0  0  0  0
   36.2850   28.5610   33.0630 C   0  0  0  0  0  0  0  0  0  0  0  0
   35.7460   29.8370   33.0210 C   0  0  0  0  0  0  0  0  0  0  0  0
   35.7260   30.4920   31.8070 C   0  0  0  0  0  0  0  0  0  0  0  0
   36.2290   29.8830   30.6880 C   0  0  0  0  0  0  0  0  0  0  0  0
   36.7580   28.5930   30.8020 C   0  0  0  0  0  0  0  0  0  0  0  0
   36.8100   27.8860   31.9720 C   0  0  0  0  0  0  0  0  0  0  0  0
   35.2990   31.4860   31.8080 H   0  0  0  0  0  0  0  0  0  0  0  0
   36.2070   30.4070   29.7440 H   0  0  0  0  0  0  0  0  0  0  0  0
   37.1480   28.1380   29.8950 H   0  0  0  0  0  0  0  0  0  0  0  0
   35.6820   31.7520   36.1310 C   0  0  0  0  0  0  0  0  0  0  0  0
   34.3370   31.6360   36.5760 C   0  0  0  0  0  0  0  0  0  0  0  0
   33.4640   30.8880   35.7840 C   0  0  0  0  0  0  0  0  0  0  0  0
   33.9330   30.3120   34.6380 N   0  0  0  0  0  0  0  0  0  0  0  0
   35.2150   30.4530   34.2610 C   0  0  0  0  0  0  0  0  0  0  0  0
   36.0670   31.1630   35.0020 N   0  0  0  0  0  0  0  0  0  0  0  0
   36.3740   32.3220   36.7210 H   0  0  0  0  0  0  0  0  0  0  0  0
   34.0020   32.1020   37.4840 H   0  0  0  0  0  0  0  0  0  0  0  0
   32.4420   30.7760   36.0870 H   0  0  0  0  0  0  0  0  0  0  0  0
  2  1  1  0  0  0  0
  2  7  1  0  0  0  0
  3  2  2  0  0  0  0
  4  3  1  0  0  0  0
  4  5  2  0  0  0  0
  5  6  1  0  0  0  0
  6  7  2  0  0  0  0
  6 10  1  0  0  0  0
  7 11  1  0  0  0  0
  8  4  1  0  0  0  0
  9  5  1  0  0  0  0
 11 12  1  0  0  0  0
 12 13  1  0  0  0  0
 12 14  2  0  0  0  0
 15 16  1  0  0  0  0
 15 14  1  0  0  0  0
 16 17  1  0  0  0  0
 18 16  2  0  0  0  0
 19 18  1  0  0  0  0
 20 19  1  0  0  0  0
 21 19  2  0  0  0  0
 21 22  1  0  0  0  0
 22 11  1  0  0  0  0
 22 15  2  0  0  0  0
 23  3  1  0  0  0  0
 25 24  1  0  0  0  0
 26 25  1  0  0  0  0
 26 38  1  0  0  0  0
 27 31  1  0  0  0  0
 27 26  2  0  0  0  0
 28 29  2  0  0  0  0
 28 27  1  0  0  0  0
 29 30  1  0  0  0  0
 30 23  1  0  0  0  0
 30 25  2  0  0  0  0
 32 28  1  0  0  0  0
 33 29  1  0  0  0  0
 34 35  1  0  0  0  0
 34 40  1  0  0  0  0
 35 41  1  0  0  0  0
 36 42  1  0  0  0  0
 36 35  2  0  0  0  0
 37 36  1  0  0  0  0
 38 37  2  0  0  0  0
 38 39  1  0  0  0  0
 39 34  2  0  0  0  0
M  END
>  <minimizedAffinity>
-6.05621719

$$$$

 OpenBabel03272505143D

 42 46  0  0  0  0  0  0  0  0999 V2000
   39.6850   25.6180   33.5200 Cl  0  0  0  0  0  0  0  0  0  0  0  0
   38.3870   24.6200   32.8790 C   0  0  0  0  0  0  0  0  0  0  0  0
   37.4880   25.0210   31.8840 C   0  0  0  0  0  0  0  0  0  0  0  0
   36.5160   24.1570   31.4630 C   0  0  0  0  0  0  0  0  0  0  0  0
   36.4080   22.9040   31.9980 C   0  0  0  0  0  0  0  0  0  0  0  0
   37.2780   22.4540   32.9920 C   0  0  0  0  0  0  0  0  0  0  0  0
   38.2400   23.3410   33.3930 C   0  0  0  0  0  0  0  0  0  0  0  0
   35.8670   24.5590   30.6880 H   0  0  0  0  0  0  0  0  0  0  0  0
   35.6170   22.2700   31.6200 H   0  0  0  0  0  0  0  0  0  0  0  0
   37.1720   21.4610   33.3970 H   0  0  0  0  0  0  0  0  0  0  0  0
   39.1520   22.8940   34.4220 N   0  0  0  0  0  0  0  0  0  0  0  0
   40.3140   22.2200   34.3940 C   0  0  0  0  0  0  0  0  0  0  0  0
   40.7190   21.9120   33.4280 H   0  0  0  0  0  0  0  0  0  0  0  0
   40.7330   22.0760   35.6720 N   0  0  0  0  0  0  0  0  0  0  0  0
   39.8190   22.6660   36.4750 C   0  0  0  0  0  0  0  0  0  0  0  0
   39.8620   22.7460   37.8470 C   0  0  0  0  0  0  0  0  0  0  0  0
   40.6770   22.3210   38.4260 H   0  0  0  0  0  0  0  0  0  0  0  0
   38.8260   23.3900   38.4310 N   0  0  0  0  0  0  0  0  0  0  0  0
   37.8190   23.9140   37.6910 C   0  0  0  0  0  0  0  0  0  0  0  0
   37.0000   24.4260   38.2030 H   0  0  0  0  0  0  0  0  0  0  0  0
   37.8090   23.8170   36.3590 N   0  0  0  0  0  0  0  0  0  0  0  0
   38.8130   23.1880   35.7080 C   0  0  0  0  0  0  0  0  0  0  0  0
   37.7580   26.6980   31.2790 S   0  0  0  0  0  0  0  0  0  0  0  0
   36.7080   29.3690   30.0530 Cl  0  0  0  0  0  0  0  0  0  0  0  0
   36.4570   29.0860   31.7550 C   0  0  0  0  0  0  0  0  0  0  0  0
   35.8000   30.0690   32.4790 C   0  0  0  0  0  0  0  0  0  0  0  0
   35.5980   29.8540   33.8250 C   0  0  0  0  0  0  0  0  0  0  0  0
   36.0380   28.6980   34.4120 C   0  0  0  0  0  0  0  0  0  0  0  0
   36.6940   27.7480   33.6230 C   0  0  0  0  0  0  0  0  0  0  0  0
   36.9290   27.8950   32.2830 C   0  0  0  0  0  0  0  0  0  0  0  0
   35.0820   30.6400   34.3620 H   0  0  0  0  0  0  0  0  0  0  0  0
   35.8720   28.5430   35.4690 H   0  0  0  0  0  0  0  0  0  0  0  0
   37.0320   26.8420   34.1190 H   0  0  0  0  0  0  0  0  0  0  0  0
   33.5890   32.3810   30.7140 C   0  0  0  0  0  0  0  0  0  0  0  0
   34.3910   33.5380   30.5170 C   0  0  0  0  0  0  0  0  0  0  0  0
   35.6990   33.4990   31.0040 C   0  0  0  0  0  0  0  0  0  0  0  0
   36.1410   32.3720   31.6350 N   0  0  0  0  0  0  0  0  0  0  0  0
   35.3420   31.3040   31.7960 C   0  0  0  0  0  0  0  0  0  0  0  0
   34.0890   31.3180   31.3400 N   0  0  0  0  0  0  0  0  0  0  0  0
   32.5800   32.3840   30.3500 H   0  0  0  0  0  0  0  0  0  0  0  0
   34.0110   34.4080   30.0150 H   0  0  0  0  0  0  0  0  0  0  0  0
   36.3350   34.3520   30.8740 H   0  0  0  0  0  0  0  0  0  0  0  0
  2  7  1  0  0  0  0
  2  1  1  0  0  0  0
  3  2  2  0  0  0  0
  4  3  1  0  0  0  0
  4  5  2  0  0  0  0
  5  6  1  0  0  0  0
  6  7  2  0  0  0  0
  6 10  1  0  0  0  0
  7 11  1  0  0  0  0
  8  4  1  0  0  0  0
  9  5  1  0  0  0  0
 11 22  1  0  0  0  0
 12 11  1  0  0  0  0
 12 14  2  0  0  0  0
 13 12  1  0  0  0  0
 14 15  1  0  0  0  0
 15 16  1  0  0  0  0
 16 17  1  0  0  0  0
 16 18  2  0  0  0  0
 19 20  1  0  0  0  0
 19 18  1  0  0  0  0
 21 19  2  0  0  0  0
 22 21  1  0  0  0  0
 22 15  2  0  0  0  0
 23  3  1  0  0  0  0
 23 30  1  0  0  0  0
 24 25  1  0  0  0  0
 25 30  2  0  0  0  0
 25 26  1  0  0  0  0
 26 27  2  0  0  0  0
 27 31  1  0  0  0  0
 27 28  1  0  0  0  0
 28 32  1  0  0  0  0
 29 33  1  0  0  0  0
 29 28  2  0  0  0  0
 30 29  1  0  0  0  0
 34 39  1  0  0  0  0
 35 34  2  0  0  0  0
 35 36  1  0  0  0  0
 36 37  2  0  0  0  0
 37 38  1  0  0  0  0
 38 26  1  0  0  0  0
 39 38  2  0  0  0  0
 40 34  1  0  0  0  0
 41 35  1  0  0  0  0
 42 36  1  0  0  0  0
M  END
>  <minimizedAffinity>
-6.053689

$$$$

 OpenBabel03272505143D

 42 46  0  0  0  0  0  0  0  0999 V2000
   40.3280   25.7680   34.9060 Cl  0  0  0  0  0  0  0  0  0  0  0  0
   39.1680   24.8580   33.9470 C   0  0  0  0  0  0  0  0  0  0  0  0
   38.6840   25.2510   32.6940 C   0  0  0  0  0  0  0  0  0  0  0  0
   37.7810   24.4600   32.0400 C   0  0  0  0  0  0  0  0  0  0  0  0
   37.3430   23.2890   32.5900 C   0  0  0  0  0  0  0  0  0  0  0  0
   37.7930   22.8500   33.8360 C   0  0  0  0  0  0  0  0  0  0  0  0
   38.6960   23.6630   34.4670 C   0  0  0  0  0  0  0  0  0  0  0  0
   37.4650   24.8490   31.0750 H   0  0  0  0  0  0  0  0  0  0  0  0
   36.6290   22.7110   32.0200 H   0  0  0  0  0  0  0  0  0  0  0  0
   37.4320   21.9220   34.2480 H   0  0  0  0  0  0  0  0  0  0  0  0
   39.1750   23.2260   35.7590 N   0  0  0  0  0  0  0  0  0  0  0  0
   38.7370   23.4120   37.0160 C   0  0  0  0  0  0  0  0  0  0  0  0
   37.8360   24.0070   37.1740 H   0  0  0  0  0  0  0  0  0  0  0  0
   39.5880   22.7650   37.8450 N   0  0  0  0  0  0  0  0  0  0  0  0
   40.5450   22.1860   37.0840 C   0  0  0  0  0  0  0  0  0  0  0  0
   41.6040   21.4320   37.5320 C   0  0  0  0  0  0  0  0  0  0  0  0
   41.7650   21.2300   38.5870 H   0  0  0  0  0  0  0  0  0  0  0  0
   42.4320   20.9560   36.5750 N   0  0  0  0  0  0  0  0  0  0  0  0
   42.2140   21.2190   35.2640 C   0  0  0  0  0  0  0  0  0  0  0  0
   42.9080   20.8150   34.5220 H   0  0  0  0  0  0  0  0  0  0  0  0
   41.1740   21.9560   34.8650 N   0  0  0  0  0  0  0  0  0  0  0  0
   40.3040   22.4640   35.7660 C   0  0  0  0  0  0  0  0  0  0  0  0
   39.3550   26.8160   32.1030 S   0  0  0  0  0  0  0  0  0  0  0  0
   37.1230   27.8220   34.0390 Cl  0  0  0  0  0  0  0  0  0  0  0  0
   37.0800   28.3560   32.3810 C   0  0  0  0  0  0  0  0  0  0  0  0
   36.0510   29.2060   32.0060 C   0  0  0  0  0  0  0  0  0  0  0  0
   36.0080   29.6340   30.6960 C   0  0  0  0  0  0  0  0  0  0  0  0
   36.9650   29.2220   29.8060 C   0  0  0  0  0  0  0  0  0  0  0  0
   37.9760   28.3640   30.2510 C   0  0  0  0  0  0  0  0  0  0  0  0
   38.0790   27.9010   31.5350 C   0  0  0  0  0  0  0  0  0  0  0  0
   35.1930   30.2950   30.4360 H   0  0  0  0  0  0  0  0  0  0  0  0
   36.9190   29.5650   28.7830 H   0  0  0  0  0  0  0  0  0  0  0  0
   38.7180   28.0550   29.5200 H   0  0  0  0  0  0  0  0  0  0  0  0
   34.5620   31.0030   34.8180 C   0  0  0  0  0  0  0  0  0  0  0  0
   33.2470   30.4700   34.9050 C   0  0  0  0  0  0  0  0  0  0  0  0
   32.8930   29.4870   33.9800 C   0  0  0  0  0  0  0  0  0  0  0  0
   33.8080   29.0880   33.0490 N   0  0  0  0  0  0  0  0  0  0  0  0
   35.0400   29.6240   33.0090 C   0  0  0  0  0  0  0  0  0  0  0  0
   35.4010   30.5640   33.8820 N   0  0  0  0  0  0  0  0  0  0  0  0
   34.8610   31.7600   35.5160 H   0  0  0  0  0  0  0  0  0  0  0  0
   32.5520   30.8070   35.6520 H   0  0  0  0  0  0  0  0  0  0  0  0
   31.9100   29.0610   34.0140 H   0  0  0  0  0  0  0  0  0  0  0  0
  2  7  1  0  0  0  0
  2  1  1  0  0  0  0
  3  2  2  0  0  0  0
  4  5  2  0  0  0  0
  4  3  1  0  0  0  0
  5  6  1  0  0  0  0
  6 10  1  0  0  0  0
  6  7  2  0  0  0  0
  7 11  1  0  0  0  0
  8  4  1  0  0  0  0
  9  5  1  0  0  0  0
 11 22  1  0  0  0  0
 11 12  1  0  0  0  0
 12 13  1  0  0  0  0
 12 14  2  0  0  0  0
 15 16  1  0  0  0  0
 15 14  1  0  0  0  0
 16 17  1  0  0  0  0
 18 16  2  0  0  0  0
 19 18  1  0  0  0  0
 20 19  1  0  0  0  0
 21 19  2  0  0  0  0
 21 22  1  0  0  0  0
 22 15  2  0  0  0  0
 23  3  1  0  0  0  0
 25 24  1  0  0  0  0
 26 25  1  0  0  0  0
 26 38  1  0  0  0  0
 27 26  2  0  0  0  0
 28 29  2  0  0  0  0
 28 27  1  0  0  0  0
 29 30  1  0  0  0  0
 30 23  1  0  0  0  0
 30 25  2  0  0  0  0
 31 27  1  0  0  0  0
 32 28  1  0  0  0  0
 33 29  1  0  0  0  0
 34 35  1  0  0  0  0
 34 40  1  0  0  0  0
 35 41  1  0  0  0  0
 36 42  1  0  0  0  0
 36 35  2  0  0  0  0
 37 36  1  0  0  0  0
 38 37  2  0  0  0  0
 38 39  1  0  0  0  0
 39 34  2  0  0  0  0
M  END
>  <minimizedAffinity>
-6.04599667

$$$$

 OpenBabel03272505143D

 42 46  0  0  0  0  0  0  0  0999 V2000
   37.0640   28.1800   34.5090 Cl  0  0  0  0  0  0  0  0  0  0  0  0
   36.8010   28.6920   32.8470 C   0  0  0  0  0  0  0  0  0  0  0  0
   37.5950   28.3130   31.7590 C   0  0  0  0  0  0  0  0  0  0  0  0
   37.2940   28.7750   30.5080 C   0  0  0  0  0  0  0  0  0  0  0  0
   36.2260   29.6020   30.3030 C   0  0  0  0  0  0  0  0  0  0  0  0
   35.4010   30.0110   31.3510 C   0  0  0  0  0  0  0  0  0  0  0  0
   35.7280   29.5320   32.5920 C   0  0  0  0  0  0  0  0  0  0  0  0
   37.9680   28.4260   29.7290 H   0  0  0  0  0  0  0  0  0  0  0  0
   36.0430   29.9310   29.2880 H   0  0  0  0  0  0  0  0  0  0  0  0
   34.5650   30.6630   31.1620 H   0  0  0  0  0  0  0  0  0  0  0  0
   34.8860   29.9440   33.6920 N   0  0  0  0  0  0  0  0  0  0  0  0
   35.1010   30.6900   34.7880 C   0  0  0  0  0  0  0  0  0  0  0  0
   36.0960   31.1080   34.9510 H   0  0  0  0  0  0  0  0  0  0  0  0
   33.9400   30.7450   35.4790 N   0  0  0  0  0  0  0  0  0  0  0  0
   33.0190   30.0280   34.7960 C   0  0  0  0  0  0  0  0  0  0  0  0
   31.7060   29.8280   35.1520 C   0  0  0  0  0  0  0  0  0  0  0  0
   31.2800   30.2520   36.0570 H   0  0  0  0  0  0  0  0  0  0  0  0
   30.9760   29.0710   34.3030 N   0  0  0  0  0  0  0  0  0  0  0  0
   31.5250   28.5500   33.1780 C   0  0  0  0  0  0  0  0  0  0  0  0
   30.8990   27.9430   32.5190 H   0  0  0  0  0  0  0  0  0  0  0  0
   32.8040   28.7650   32.8640 N   0  0  0  0  0  0  0  0  0  0  0  0
   33.5940   29.5130   33.6650 C   0  0  0  0  0  0  0  0  0  0  0  0
   38.9640   27.2220   32.1910 S   0  0  0  0  0  0  0  0  0  0  0  0
   39.5950   26.2790   35.0980 Cl  0  0  0  0  0  0  0  0  0  0  0  0
   38.6610   25.2240   34.0730 C   0  0  0  0  0  0  0  0  0  0  0  0
   38.2440   24.0150   34.6060 C   0  0  0  0  0  0  0  0  0  0  0  0
   37.5040   23.1730   33.8020 C   0  0  0  0  0  0  0  0  0  0  0  0
   37.1990   23.5400   32.5180 C   0  0  0  0  0  0  0  0  0  0  0  0
   37.6520   24.7750   32.0430 C   0  0  0  0  0  0  0  0  0  0  0  0
   38.3890   25.6580   32.7850 C   0  0  0  0  0  0  0  0  0  0  0  0
   37.1940   22.2370   34.2470 H   0  0  0  0  0  0  0  0  0  0  0  0
   36.6190   22.8710   31.8990 H   0  0  0  0  0  0  0  0  0  0  0  0
   37.3940   25.0360   31.0200 H   0  0  0  0  0  0  0  0  0  0  0  0
   37.9690   23.7420   38.2380 C   0  0  0  0  0  0  0  0  0  0  0  0
   39.1590   23.0650   38.6210 C   0  0  0  0  0  0  0  0  0  0  0  0
   40.0470   22.7100   37.6050 C   0  0  0  0  0  0  0  0  0  0  0  0
   39.7390   23.0230   36.3120 N   0  0  0  0  0  0  0  0  0  0  0  0
   38.5990   23.6640   36.0030 C   0  0  0  0  0  0  0  0  0  0  0  0
   37.7350   24.0130   36.9570 N   0  0  0  0  0  0  0  0  0  0  0  0
   37.2680   24.0260   39.0000 H   0  0  0  0  0  0  0  0  0  0  0  0
   39.3700   22.8350   39.6490 H   0  0  0  0  0  0  0  0  0  0  0  0
   40.9560   22.1990   37.8540 H   0  0  0  0  0  0  0  0  0  0  0  0
  2  1  1  0  0  0  0
  3 23  1  0  0  0  0
  3  2  2  0  0  0  0
  4  3  1  0  0  0  0
  5  4  2  0  0  0  0
  5  6  1  0  0  0  0
  6  7  2  0  0  0  0
  7  2  1  0  0  0  0
  7 11  1  0  0  0  0
  8  4  1  0  0  0  0
  9  5  1  0  0  0  0
 10  6  1  0  0  0  0
 11 12  1  0  0  0  0
 12 13  1  0  0  0  0
 12 14  2  0  0  0  0
 15 16  1  0  0  0  0
 15 14  1  0  0  0  0
 16 17  1  0  0  0  0
 18 16  2  0  0  0  0
 19 18  1  0  0  0  0
 20 19  1  0  0  0  0
 21 19  2  0  0  0  0
 21 22  1  0  0  0  0
 22 11  1  0  0  0  0
 22 15  2  0  0  0  0
 23 30  1  0  0  0  0
 25 26  1  0  0  0  0
 25 24  1  0  0  0  0
 26 38  1  0  0  0  0
 27 31  1  0  0  0  0
 27 26  2  0  0  0  0
 28 27  1  0  0  0  0
 29 28  2  0  0  0  0
 29 30  1  0  0  0  0
 30 25  2  0  0  0  0
 32 28  1  0  0  0  0
 33 29  1  0  0  0  0
 34 35  1  0  0  0  0
 34 40  1  0  0  0  0
 35 41  1  0  0  0  0
 36 42  1  0  0  0  0
 36 35  2  0  0  0  0
 37 36  1  0  0  0  0
 38 37  2  0  0  0  0
 38 39  1  0  0  0  0
 39 34  2  0  0  0  0
M  END
>  <minimizedAffinity>
-6.04470158

$$$$

 OpenBabel03272505143D

 42 46  0  0  0  0  0  0  0  0999 V2000
   40.4880   25.6630   33.9520 Cl  0  0  0  0  0  0  0  0  0  0  0  0
   39.0950   24.9650   33.1360 C   0  0  0  0  0  0  0  0  0  0  0  0
   38.4230   25.5520   32.0580 C   0  0  0  0  0  0  0  0  0  0  0  0
   37.3500   24.9150   31.5020 C   0  0  0  0  0  0  0  0  0  0  0  0
   36.9210   23.7100   31.9820 C   0  0  0  0  0  0  0  0  0  0  0  0
   37.5540   23.0800   33.0540 C   0  0  0  0  0  0  0  0  0  0  0  0
   38.6260   23.7420   33.5900 C   0  0  0  0  0  0  0  0  0  0  0  0
   36.8950   25.4500   30.6710 H   0  0  0  0  0  0  0  0  0  0  0  0
   36.0660   23.2600   31.4960 H   0  0  0  0  0  0  0  0  0  0  0  0
   37.1960   22.1300   33.4130 H   0  0  0  0  0  0  0  0  0  0  0  0
   39.2960   23.1060   34.7020 N   0  0  0  0  0  0  0  0  0  0  0  0
   40.2760   22.1910   34.7860 C   0  0  0  0  0  0  0  0  0  0  0  0
   40.7080   21.7990   33.8630 H   0  0  0  0  0  0  0  0  0  0  0  0
   40.5080   21.9610   36.0980 N   0  0  0  0  0  0  0  0  0  0  0  0
   39.6630   22.7410   36.8100 C   0  0  0  0  0  0  0  0  0  0  0  0
   39.5700   22.8120   38.1800 C   0  0  0  0  0  0  0  0  0  0  0  0
   40.2010   22.2180   38.8350 H   0  0  0  0  0  0  0  0  0  0  0  0
   38.6440   23.6710   38.6620 N   0  0  0  0  0  0  0  0  0  0  0  0
   37.8660   24.4040   37.8280 C   0  0  0  0  0  0  0  0  0  0  0  0
   37.1280   25.0860   38.2600 H   0  0  0  0  0  0  0  0  0  0  0  0
   37.9830   24.3090   36.5020 N   0  0  0  0  0  0  0  0  0  0  0  0
   38.8890   23.4710   35.9500 C   0  0  0  0  0  0  0  0  0  0  0  0
   39.1070   27.1380   31.5400 S   0  0  0  0  0  0  0  0  0  0  0  0
   37.0550   27.8630   33.7780 Cl  0  0  0  0  0  0  0  0  0  0  0  0
   36.9170   28.6690   32.2390 C   0  0  0  0  0  0  0  0  0  0  0  0
   35.8980   29.5950   32.0880 C   0  0  0  0  0  0  0  0  0  0  0  0
   35.7800   30.2380   30.8740 C   0  0  0  0  0  0  0  0  0  0  0  0
   36.6560   29.9560   29.8590 C   0  0  0  0  0  0  0  0  0  0  0  0
   37.6620   29.0100   30.0780 C   0  0  0  0  0  0  0  0  0  0  0  0
   37.8360   28.3350   31.2560 C   0  0  0  0  0  0  0  0  0  0  0  0
   34.9750   30.9550   30.7880 H   0  0  0  0  0  0  0  0  0  0  0  0
   36.5520   30.4670   28.9120 H   0  0  0  0  0  0  0  0  0  0  0  0
   38.3390   28.8090   29.2530 H   0  0  0  0  0  0  0  0  0  0  0  0
   32.8950   29.4420   34.1640 C   0  0  0  0  0  0  0  0  0  0  0  0
   33.1940   30.2960   35.2600 C   0  0  0  0  0  0  0  0  0  0  0  0
   34.4430   30.9170   35.2640 C   0  0  0  0  0  0  0  0  0  0  0  0
   35.3070   30.6830   34.2330 N   0  0  0  0  0  0  0  0  0  0  0  0
   34.9760   29.8660   33.2190 C   0  0  0  0  0  0  0  0  0  0  0  0
   33.7880   29.2600   33.1940 N   0  0  0  0  0  0  0  0  0  0  0  0
   31.9420   28.9510   34.1360 H   0  0  0  0  0  0  0  0  0  0  0  0
   32.4900   30.4590   36.0550 H   0  0  0  0  0  0  0  0  0  0  0  0
   34.7060   31.5690   36.0740 H   0  0  0  0  0  0  0  0  0  0  0  0
  2  7  1  0  0  0  0
  2  1  1  0  0  0  0
  3  2  2  0  0  0  0
  4  5  2  0  0  0  0
  4  3  1  0  0  0  0
  5  6  1  0  0  0  0
  6 10  1  0  0  0  0
  6  7  2  0  0  0  0
  7 11  1  0  0  0  0
  8  4  1  0  0  0  0
  9  5  1  0  0  0  0
 11 12  1  0  0  0  0
 11 22  1  0  0  0  0
 12 14  2  0  0  0  0
 13 12  1  0  0  0  0
 14 15  1  0  0  0  0
 15 16  1  0  0  0  0
 16 18  2  0  0  0  0
 16 17  1  0  0  0  0
 19 20  1  0  0  0  0
 19 18  1  0  0  0  0
 21 19  2  0  0  0  0
 22 21  1  0  0  0  0
 22 15  2  0  0  0  0
 23  3  1  0  0  0  0
 25 24  1  0  0  0  0
 26 25  1  0  0  0  0
 26 38  1  0  0  0  0
 27 26  2  0  0  0  0
 28 29  2  0  0  0  0
 28 27  1  0  0  0  0
 29 30  1  0  0  0  0
 30 23  1  0  0  0  0
 30 25  2  0  0  0  0
 31 27  1  0  0  0  0
 32 28  1  0  0  0  0
 33 29  1  0  0  0  0
 34 35  1  0  0  0  0
 35 36  2  0  0  0  0
 35 41  1  0  0  0  0
 36 42  1  0  0  0  0
 37 36  1  0  0  0  0
 38 37  2  0  0  0  0
 39 38  1  0  0  0  0
 39 34  2  0  0  0  0
 40 34  1  0  0  0  0
M  END
>  <minimizedAffinity>
-6.02306318

$$$$

 OpenBabel03272505143D

 42 46  0  0  0  0  0  0  0  0999 V2000
   39.4030   26.4710   33.4740 Cl  0  0  0  0  0  0  0  0  0  0  0  0
   37.9520   25.8580   32.6920 C   0  0  0  0  0  0  0  0  0  0  0  0
   37.0550   26.6340   31.9500 C   0  0  0  0  0  0  0  0  0  0  0  0
   35.9570   26.0460   31.3860 C   0  0  0  0  0  0  0  0  0  0  0  0
   35.7220   24.7090   31.5350 C   0  0  0  0  0  0  0  0  0  0  0  0
   36.5830   23.8890   32.2640 C   0  0  0  0  0  0  0  0  0  0  0  0
   37.6730   24.5050   32.8170 C   0  0  0  0  0  0  0  0  0  0  0  0
   35.3210   26.7310   30.8300 H   0  0  0  0  0  0  0  0  0  0  0  0
   34.8350   24.3070   31.0630 H   0  0  0  0  0  0  0  0  0  0  0  0
   36.3740   22.8370   32.3660 H   0  0  0  0  0  0  0  0  0  0  0  0
   38.5780   23.6730   33.5770 N   0  0  0  0  0  0  0  0  0  0  0  0
   39.5530   22.8160   33.2290 C   0  0  0  0  0  0  0  0  0  0  0  0
   39.7650   22.6640   32.1700 H   0  0  0  0  0  0  0  0  0  0  0  0
   40.0770   22.3100   34.3690 N   0  0  0  0  0  0  0  0  0  0  0  0
   39.4140   22.8650   35.4100 C   0  0  0  0  0  0  0  0  0  0  0  0
   39.6350   22.6230   36.7460 C   0  0  0  0  0  0  0  0  0  0  0  0
   40.3980   21.9320   37.0900 H   0  0  0  0  0  0  0  0  0  0  0  0
   38.8410   23.3010   37.6040 N   0  0  0  0  0  0  0  0  0  0  0  0
   37.8940   24.1600   37.1540 C   0  0  0  0  0  0  0  0  0  0  0  0
   37.2730   24.6890   37.8830 H   0  0  0  0  0  0  0  0  0  0  0  0
   37.7070   24.3710   35.8490 N   0  0  0  0  0  0  0  0  0  0  0  0
   38.4650   23.7280   34.9330 C   0  0  0  0  0  0  0  0  0  0  0  0
   37.5020   28.3780   31.8450 S   0  0  0  0  0  0  0  0  0  0  0  0
   36.0160   28.6940   34.5710 Cl  0  0  0  0  0  0  0  0  0  0  0  0
   35.4140   29.5770   33.1950 C   0  0  0  0  0  0  0  0  0  0  0  0
   34.2990   30.3790   33.3850 C   0  0  0  0  0  0  0  0  0  0  0  0
   33.8150   31.0810   32.3020 C   0  0  0  0  0  0  0  0  0  0  0  0
   34.4310   30.9780   31.0830 C   0  0  0  0  0  0  0  0  0  0  0  0
   35.5520   30.1500   30.9610 C   0  0  0  0  0  0  0  0  0  0  0  0
   36.0850   29.4250   31.9920 C   0  0  0  0  0  0  0  0  0  0  0  0
   32.9440   31.6980   32.4830 H   0  0  0  0  0  0  0  0  0  0  0  0
   34.0410   31.5340   30.2430 H   0  0  0  0  0  0  0  0  0  0  0  0
   36.0170   30.0900   29.9810 H   0  0  0  0  0  0  0  0  0  0  0  0
   32.1140   29.5410   36.1910 C   0  0  0  0  0  0  0  0  0  0  0  0
   32.4380   30.5120   37.1770 C   0  0  0  0  0  0  0  0  0  0  0  0
   33.4170   31.4510   36.8520 C   0  0  0  0  0  0  0  0  0  0  0  0
   34.0100   31.3970   35.6230 N   0  0  0  0  0  0  0  0  0  0  0  0
   33.6680   30.4570   34.7260 C   0  0  0  0  0  0  0  0  0  0  0  0
   32.7350   29.5500   35.0140 N   0  0  0  0  0  0  0  0  0  0  0  0
   31.3650   28.8070   36.4140 H   0  0  0  0  0  0  0  0  0  0  0  0
   31.9500   30.5260   38.1340 H   0  0  0  0  0  0  0  0  0  0  0  0
   33.6890   32.2000   37.5690 H   0  0  0  0  0  0  0  0  0  0  0  0
  2  7  1  0  0  0  0
  2  1  1  0  0  0  0
  3  2  2  0  0  0  0
  4  5  2  0  0  0  0
  4  3  1  0  0  0  0
  5  6  1  0  0  0  0
  6 10  1  0  0  0  0
  6  7  2  0  0  0  0
  7 11  1  0  0  0  0
  8  4  1  0  0  0  0
  9  5  1  0  0  0  0
 11 22  1  0  0  0  0
 12 11  1  0  0  0  0
 12 14  2  0  0  0  0
 13 12  1  0  0  0  0
 14 15  1  0  0  0  0
 15 16  1  0  0  0  0
 16 17  1  0  0  0  0
 16 18  2  0  0  0  0
 19 18  1  0  0  0  0
 19 20  1  0  0  0  0
 21 19  2  0  0  0  0
 22 15  2  0  0  0  0
 22 21  1  0  0  0  0
 23  3  1  0  0  0  0
 23 30  1  0  0  0  0
 25 26  1  0  0  0  0
 25 24  1  0  0  0  0
 26 38  1  0  0  0  0
 27 31  1  0  0  0  0
 27 26  2  0  0  0  0
 28 27  1  0  0  0  0
 29 28  2  0  0  0  0
 29 30  1  0  0  0  0
 30 25  2  0  0  0  0
 32 28  1  0  0  0  0
 33 29  1  0  0  0  0
 34 40  1  0  0  0  0
 34 35  1  0  0  0  0
 35 41  1  0  0  0  0
 36 35  2  0  0  0  0
 36 42  1  0  0  0  0
 37 36  1  0  0  0  0
 38 39  1  0  0  0  0
 38 37  2  0  0  0  0
 39 34  2  0  0  0  0
M  END
>  <minimizedAffinity>
-5.9980979

$$$$

 OpenBabel03272505143D

 42 46  0  0  0  0  0  0  0  0999 V2000
   36.1530   25.2240   31.8980 Cl  0  0  0  0  0  0  0  0  0  0  0  0
   37.7640   25.9250   31.8200 C   0  0  0  0  0  0  0  0  0  0  0  0
   38.0720   27.1530   31.2240 C   0  0  0  0  0  0  0  0  0  0  0  0
   39.3640   27.5990   31.2230 C   0  0  0  0  0  0  0  0  0  0  0  0
   40.3620   26.8630   31.7970 C   0  0  0  0  0  0  0  0  0  0  0  0
   40.1100   25.6330   32.4040 C   0  0  0  0  0  0  0  0  0  0  0  0
   38.8070   25.2120   32.3900 C   0  0  0  0  0  0  0  0  0  0  0  0
   39.5040   28.5620   30.7370 H   0  0  0  0  0  0  0  0  0  0  0  0
   41.3630   27.2730   31.7620 H   0  0  0  0  0  0  0  0  0  0  0  0
   40.9150   25.0720   32.8500 H   0  0  0  0  0  0  0  0  0  0  0  0
   38.5250   23.9400   33.0140 N   0  0  0  0  0  0  0  0  0  0  0  0
   38.4750   22.6780   32.5550 C   0  0  0  0  0  0  0  0  0  0  0  0
   38.6800   22.4970   31.4980 H   0  0  0  0  0  0  0  0  0  0  0  0
   38.1580   21.8770   33.5970 N   0  0  0  0  0  0  0  0  0  0  0  0
   38.0150   22.6580   34.6910 C   0  0  0  0  0  0  0  0  0  0  0  0
   37.6930   22.2410   35.9610 C   0  0  0  0  0  0  0  0  0  0  0  0
   37.5210   21.1960   36.2000 H   0  0  0  0  0  0  0  0  0  0  0  0
   37.6080   23.2150   36.8950 N   0  0  0  0  0  0  0  0  0  0  0  0
   37.8270   24.5130   36.5760 C   0  0  0  0  0  0  0  0  0  0  0  0
   37.7480   25.2700   37.3620 H   0  0  0  0  0  0  0  0  0  0  0  0
   38.1380   24.8830   35.3320 N   0  0  0  0  0  0  0  0  0  0  0  0
   38.2410   23.9640   34.3470 C   0  0  0  0  0  0  0  0  0  0  0  0
   36.6510   28.0040   30.5120 S   0  0  0  0  0  0  0  0  0  0  0  0
   35.3610   28.7210   33.2610 Cl  0  0  0  0  0  0  0  0  0  0  0  0
   35.9830   30.0180   32.2780 C   0  0  0  0  0  0  0  0  0  0  0  0
   35.8720   31.3080   32.7720 C   0  0  0  0  0  0  0  0  0  0  0  0
   36.3610   32.3410   32.0020 C   0  0  0  0  0  0  0  0  0  0  0  0
   36.9380   32.0810   30.7870 C   0  0  0  0  0  0  0  0  0  0  0  0
   37.0180   30.7550   30.3480 C   0  0  0  0  0  0  0  0  0  0  0  0
   36.5530   29.6830   31.0610 C   0  0  0  0  0  0  0  0  0  0  0  0
   36.2590   33.3360   32.4150 H   0  0  0  0  0  0  0  0  0  0  0  0
   37.3170   32.9000   30.1930 H   0  0  0  0  0  0  0  0  0  0  0  0
   37.4800   30.5820   29.3800 H   0  0  0  0  0  0  0  0  0  0  0  0
   33.2640   31.9320   35.2540 C   0  0  0  0  0  0  0  0  0  0  0  0
   33.9690   31.9720   36.4880 C   0  0  0  0  0  0  0  0  0  0  0  0
   35.3500   31.7800   36.4410 C   0  0  0  0  0  0  0  0  0  0  0  0
   35.9530   31.5670   35.2340 N   0  0  0  0  0  0  0  0  0  0  0  0
   35.2400   31.5380   34.0950 C   0  0  0  0  0  0  0  0  0  0  0  0
   33.9190   31.7190   34.1150 N   0  0  0  0  0  0  0  0  0  0  0  0
   32.2010   32.0760   35.2610 H   0  0  0  0  0  0  0  0  0  0  0  0
   33.4630   32.1420   37.4200 H   0  0  0  0  0  0  0  0  0  0  0  0
   35.9180   31.8030   37.3500 H   0  0  0  0  0  0  0  0  0  0  0  0
  2  1  1  0  0  0  0
  2  7  1  0  0  0  0
  3  2  2  0  0  0  0
  4  3  1  0  0  0  0
  4  5  2  0  0  0  0
  5  6  1  0  0  0  0
  6 10  1  0  0  0  0
  7  6  2  0  0  0  0
  7 11  1  0  0  0  0
  8  4  1  0  0  0  0
  9  5  1  0  0  0  0
 11 22  1  0  0  0  0
 12 11  1  0  0  0  0
 12 14  2  0  0  0  0
 13 12  1  0  0  0  0
 14 15  1  0  0  0  0
 15 16  1  0  0  0  0
 16 17  1  0  0  0  0
 16 18  2  0  0  0  0
 19 18  1  0  0  0  0
 19 20  1  0  0  0  0
 21 19  2  0  0  0  0
 22 15  2  0  0  0  0
 22 21  1  0  0  0  0
 23 30  1  0  0  0  0
 23  3  1  0  0  0  0
 25 26  1  0  0  0  0
 25 24  1  0  0  0  0
 26 38  1  0  0  0  0
 27 31  1  0  0  0  0
 27 26  2  0  0  0  0
 28 27  1  0  0  0  0
 29 28  2  0  0  0  0
 29 30  1  0  0  0  0
 30 25  2  0  0  0  0
 32 28  1  0  0  0  0
 33 29  1  0  0  0  0
 34 40  1  0  0  0  0
 34 35  1  0  0  0  0
 35 41  1  0  0  0  0
 36 35  2  0  0  0  0
 36 42  1  0  0  0  0
 37 36  1  0  0  0  0
 38 39  1  0  0  0  0
 38 37  2  0  0  0  0
 39 34  2  0  0  0  0
M  END
>  <minimizedAffinity>
-5.97387123

$$$$
