
 OpenBabel03272504083D

 36 39  0  0  0  0  0  0  0  0999 V2000
   37.8470   30.4810   50.1370 C   0  0  0  0  0  0  0  0  0  0  0  0
   37.3090   30.6550   48.8780 C   0  0  0  0  0  0  0  0  0  0  0  0
   35.9700   30.2830   48.6110 C   0  0  0  0  0  0  0  0  0  0  0  0
   35.2560   29.7540   49.6400 N   0  0  0  0  0  0  0  0  0  0  0  0
   35.8280   29.5960   50.8830 C   0  0  0  0  0  0  0  0  0  0  0  0
   37.1190   29.9590   51.1270 N   0  0  0  0  0  0  0  0  0  0  0  0
   34.9960   29.0300   51.9080 N   0  0  0  0  0  0  0  0  0  0  0  0
   38.8640   30.7540   50.3780 H   0  0  0  0  0  0  0  0  0  0  0  0
   34.3880   29.5840   52.5690 H   0  0  0  0  0  0  0  0  0  0  0  0
   34.9440   27.9990   52.0630 H   0  0  0  0  0  0  0  0  0  0  0  0
   38.3580   33.5000   49.0880 Cl  0  0  0  0  0  0  0  0  0  0  0  0
   38.7310   32.4840   47.7420 C   0  0  0  0  0  0  0  0  0  0  0  0
   38.1750   31.2390   47.8280 C   0  0  0  0  0  0  0  0  0  0  0  0
   38.4320   30.3320   46.7750 C   0  0  0  0  0  0  0  0  0  0  0  0
   39.1940   30.6620   45.7060 C   0  0  0  0  0  0  0  0  0  0  0  0
   39.7440   31.9410   45.6490 C   0  0  0  0  0  0  0  0  0  0  0  0
   40.7350   32.4140   44.2940 Cl  0  0  0  0  0  0  0  0  0  0  0  0
   39.5030   32.8180   46.6600 C   0  0  0  0  0  0  0  0  0  0  0  0
   38.0600   29.3180   46.7370 H   0  0  0  0  0  0  0  0  0  0  0  0
   39.4150   30.0020   44.8790 H   0  0  0  0  0  0  0  0  0  0  0  0
   39.9090   33.8330   46.6660 H   0  0  0  0  0  0  0  0  0  0  0  0
   35.4120   30.4850   47.2880 C   0  0  0  0  0  0  0  0  0  0  0  0
   35.0260   31.5460   47.2660 H   0  0  0  0  0  0  0  0  0  0  0  0
   36.0860   30.4210   46.4280 H   0  0  0  0  0  0  0  0  0  0  0  0
   34.2890   29.5560   47.0790 N   0  0  0  0  0  0  0  0  0  0  0  0
   34.2690   28.2590   47.4300 C   0  0  0  0  0  0  0  0  0  0  0  0
   35.0430   27.7040   47.9090 H   0  0  0  0  0  0  0  0  0  0  0  0
   33.0870   27.7150   47.0890 N   0  0  0  0  0  0  0  0  0  0  0  0
   32.3440   28.6660   46.5150 C   0  0  0  0  0  0  0  0  0  0  0  0
   31.0600   28.6180   45.9940 C   0  0  0  0  0  0  0  0  0  0  0  0
   30.4720   27.7060   46.0030 H   0  0  0  0  0  0  0  0  0  0  0  0
   30.6040   29.7760   45.4840 N   0  0  0  0  0  0  0  0  0  0  0  0
   31.3070   30.9200   45.4590 C   0  0  0  0  0  0  0  0  0  0  0  0
   30.8270   31.7890   45.0180 H   0  0  0  0  0  0  0  0  0  0  0  0
   32.5730   30.9690   45.9720 N   0  0  0  0  0  0  0  0  0  0  0  0
   33.1070   29.8420   46.5080 C   0  0  0  0  0  0  0  0  0  0  0  0
  1  8  1  0  0  0  0
  1  6  1  0  0  0  0
  2  1  2  0  0  0  0
  3  2  1  0  0  0  0
  3  4  2  0  0  0  0
  4  5  1  0  0  0  0
  5  6  2  0  0  0  0
  5  7  1  0  0  0  0
  7 10  1  0  0  0  0
  7  9  1  0  0  0  0
 12 13  1  0  0  0  0
 12 11  1  0  0  0  0
 13  2  1  0  0  0  0
 14 13  2  0  0  0  0
 15 14  1  0  0  0  0
 16 15  2  0  0  0  0
 16 18  1  0  0  0  0
 17 16  1  0  0  0  0
 18 21  1  0  0  0  0
 18 12  2  0  0  0  0
 19 14  1  0  0  0  0
 20 15  1  0  0  0  0
 22  3  1  0  0  0  0
 23 22  1  0  0  0  0
 24 22  1  0  0  0  0
 25 22  1  0  0  0  0
 25 26  1  0  0  0  0
 26 27  1  0  0  0  0
 28 26  2  0  0  0  0
 29 28  1  0  0  0  0
 30 31  1  0  0  0  0
 30 29  2  0  0  0  0
 32 30  1  0  0  0  0
 33 32  2  0  0  0  0
 33 35  1  0  0  0  0
 34 33  1  0  0  0  0
 35 36  2  0  0  0  0
 36 29  1  0  0  0  0
 36 25  1  0  0  0  0
M  END
>  <minimizedAffinity>
-6.13225698

>  <minimizedRMSD>
0.812720656

$$$$
