
 OpenBabel03272505263D

 34 37  0  0  0  0  0  0  0  0999 V2000
   37.3920   31.1620   46.9640 N   0  0  0  0  0  0  0  0  0  0  0  0
   36.7730   30.8700   45.7880 C   0  0  0  0  0  0  0  0  0  0  0  0
   37.2310   31.3540   44.5710 C   0  0  0  0  0  0  0  0  0  0  0  0
   38.3710   32.1670   44.5940 C   0  0  0  0  0  0  0  0  0  0  0  0
   38.8260   32.6310   43.5240 O   0  0  0  0  0  0  0  0  0  0  0  0
   38.9950   32.4630   45.7750 N   0  0  0  0  0  0  0  0  0  0  0  0
   38.4590   31.9370   46.8830 C   0  0  0  0  0  0  0  0  0  0  0  0
   39.0520   32.2280   47.9440 O   0  0  0  0  0  0  0  0  0  0  0  0
   35.8870   30.2290   45.8230 H   0  0  0  0  0  0  0  0  0  0  0  0
   36.5800   31.0470   43.3410 N   0  0  0  0  0  0  0  0  0  0  0  0
   36.6980   29.8990   42.6520 C   0  0  0  0  0  0  0  0  0  0  0  0
   37.3040   29.0460   42.9390 H   0  0  0  0  0  0  0  0  0  0  0  0
   35.9660   29.9250   41.5500 N   0  0  0  0  0  0  0  0  0  0  0  0
   35.3330   31.1090   41.4730 C   0  0  0  0  0  0  0  0  0  0  0  0
   34.4650   31.6650   40.5620 C   0  0  0  0  0  0  0  0  0  0  0  0
   34.1810   31.0870   39.6900 H   0  0  0  0  0  0  0  0  0  0  0  0
   34.0220   32.9060   40.8200 N   0  0  0  0  0  0  0  0  0  0  0  0
   34.3900   33.6080   41.9150 C   0  0  0  0  0  0  0  0  0  0  0  0
   33.9990   34.6230   42.0830 H   0  0  0  0  0  0  0  0  0  0  0  0
   35.2520   33.0470   42.8140 N   0  0  0  0  0  0  0  0  0  0  0  0
   35.7350   31.8010   42.6120 C   0  0  0  0  0  0  0  0  0  0  0  0
   37.2710   29.6000   50.3290 C   0  0  0  0  0  0  0  0  0  0  0  0
   37.7460   30.0920   49.1060 C   0  0  0  0  0  0  0  0  0  0  0  0
   36.9140   30.6640   48.1810 C   0  0  0  0  0  0  0  0  0  0  0  0
   35.5930   30.7420   48.4840 N   0  0  0  0  0  0  0  0  0  0  0  0
   35.1000   30.2720   49.6630 C   0  0  0  0  0  0  0  0  0  0  0  0
   35.9320   29.7040   50.5810 N   0  0  0  0  0  0  0  0  0  0  0  0
   37.8540   29.1440   51.0960 H   0  0  0  0  0  0  0  0  0  0  0  0
   38.8060   29.9320   49.0460 H   0  0  0  0  0  0  0  0  0  0  0  0
   34.0400   30.3890   49.7880 H   0  0  0  0  0  0  0  0  0  0  0  0
   40.1730   33.3020   45.8000 C   0  0  0  0  0  0  0  0  0  0  0  0
   40.0720   34.2680   44.8430 F   0  0  0  0  0  0  0  0  0  0  0  0
   41.3390   32.6030   45.5380 F   0  0  0  0  0  0  0  0  0  0  0  0
   40.2510   33.9320   47.0360 F   0  0  0  0  0  0  0  0  0  0  0  0
  1 24  1  0  0  0  0
  2  9  1  0  0  0  0
  2  1  1  0  0  0  0
  3  4  1  0  0  0  0
  3  2  2  0  0  0  0
  4  6  1  0  0  0  0
  5  4  2  0  0  0  0
  6 31  1  0  0  0  0
  6  7  1  0  0  0  0
  7  1  1  0  0  0  0
  7  8  2  0  0  0  0
 10  3  1  0  0  0  0
 11 12  1  0  0  0  0
 11 10  1  0  0  0  0
 13 11  2  0  0  0  0
 14 13  1  0  0  0  0
 14 21  1  0  0  0  0
 15 17  1  0  0  0  0
 15 14  2  0  0  0  0
 16 15  1  0  0  0  0
 17 18  2  0  0  0  0
 18 19  1  0  0  0  0
 18 20  1  0  0  0  0
 21 20  2  0  0  0  0
 21 10  1  0  0  0  0
 22 27  1  0  0  0  0
 22 28  1  0  0  0  0
 23 22  2  0  0  0  0
 24 25  2  0  0  0  0
 24 23  1  0  0  0  0
 25 26  1  0  0  0  0
 26 30  1  0  0  0  0
 26 27  2  0  0  0  0
 29 23  1  0  0  0  0
 31 34  1  0  0  0  0
 32 31  1  0  0  0  0
 33 31  1  0  0  0  0
M  END
>  <minimizedAffinity>
-6.45185232

>  <minimizedRMSD>
0.916018069

$$$$
