
 OpenBabel03272509313D

 41 44  0  0  1  0  0  0  0  0999 V2000
   36.3610   30.6960   49.0430 C   0  0  2  0  0  0  0  0  0  0  0  0
   37.3500   31.4980   49.8350 C   0  0  0  0  0  0  0  0  0  0  0  0
   38.1620   30.6510   50.7900 C   0  0  0  0  0  0  0  0  0  0  0  0
   37.2460   29.8750   51.7340 C   0  0  0  0  0  0  0  0  0  0  0  0
   35.9710   29.3930   51.0880 C   0  0  0  0  0  0  0  0  0  0  0  0
   36.2130   29.3080   49.5690 C   0  0  1  0  0  0  0  0  0  0  0  0
   35.3100   31.1240   49.0700 H   0  0  0  0  0  0  0  0  0  0  0  0
   37.9630   32.2000   49.3050 H   0  0  0  0  0  0  0  0  0  0  0  0
   36.7050   32.1380   50.5280 H   0  0  0  0  0  0  0  0  0  0  0  0
   38.7820   31.3520   51.3680 H   0  0  0  0  0  0  0  0  0  0  0  0
   38.7940   29.9060   50.2870 H   0  0  0  0  0  0  0  0  0  0  0  0
   37.0740   30.5360   52.6000 H   0  0  0  0  0  0  0  0  0  0  0  0
   37.7900   28.9800   52.1010 H   0  0  0  0  0  0  0  0  0  0  0  0
   35.6440   28.4290   51.4860 H   0  0  0  0  0  0  0  0  0  0  0  0
   35.2150   30.1950   51.2160 H   0  0  0  0  0  0  0  0  0  0  0  0
   37.1400   28.7870   49.5640 H   0  0  0  0  0  0  0  0  0  0  0  0
   36.7510   30.6320   47.6120 C   0  0  0  0  0  0  0  0  0  0  0  0
   38.1150   30.8280   47.3430 C   0  0  0  0  0  0  0  0  0  0  0  0
   38.5110   30.7690   46.0020 C   0  0  0  0  0  0  0  0  0  0  0  0
   37.5530   30.5230   45.0420 N   0  0  0  0  0  0  0  0  0  0  0  0
   36.2340   30.3360   45.3580 C   0  0  0  0  0  0  0  0  0  0  0  0
   35.8560   30.3950   46.6450 N   0  0  0  0  0  0  0  0  0  0  0  0
   38.9560   31.0160   47.9800 H   0  0  0  0  0  0  0  0  0  0  0  0
   39.5160   30.9000   45.6460 H   0  0  0  0  0  0  0  0  0  0  0  0
   35.5720   30.1510   44.5300 H   0  0  0  0  0  0  0  0  0  0  0  0
   33.9020   28.3780   49.0830 C   0  0  0  0  0  0  0  0  0  0  0  0
   33.1180   28.9970   49.8890 O   0  0  0  0  0  0  0  0  0  0  0  0
   35.2970   28.4920   48.8580 N   0  0  0  0  0  0  0  0  0  0  0  0
   35.6510   27.8780   48.0550 H   0  0  0  0  0  0  0  0  0  0  0  0
   34.6040   25.9530   47.6620 H   0  0  0  0  0  0  0  0  0  0  0  0
   33.5960   26.2920   47.6830 N   0  0  0  0  0  0  0  0  0  0  0  0
   33.1100   27.3990   48.2990 C   0  0  0  0  0  0  0  0  0  0  0  0
   31.8240   27.3240   48.0000 N   0  0  0  0  0  0  0  0  0  0  0  0
   31.4890   26.2780   47.2630 C   0  0  0  0  0  0  0  0  0  0  0  0
   30.3000   25.8270   46.7410 C   0  0  0  0  0  0  0  0  0  0  0  0
   29.3840   26.3990   46.9300 H   0  0  0  0  0  0  0  0  0  0  0  0
   30.3410   24.6770   46.0100 N   0  0  0  0  0  0  0  0  0  0  0  0
   31.4810   24.0120   45.8060 C   0  0  0  0  0  0  0  0  0  0  0  0
   31.5010   23.0980   45.2220 H   0  0  0  0  0  0  0  0  0  0  0  0
   32.6480   24.4610   46.3210 N   0  0  0  0  0  0  0  0  0  0  0  0
   32.6510   25.5910   47.0480 C   0  0  0  0  0  0  0  0  0  0  0  0
  1  7  1  1  0  0  0
  1  6  1  0  0  0  0
  1  2  1  0  0  0  0
  2  9  1  0  0  0  0
  2  3  1  0  0  0  0
  3 10  1  0  0  0  0
  3  4  1  0  0  0  0
  4 13  1  0  0  0  0
  4 12  1  0  0  0  0
  5 15  1  0  0  0  0
  5 14  1  0  0  0  0
  5  4  1  0  0  0  0
  6 16  1  6  0  0  0
  6  5  1  0  0  0  0
  8  2  1  0  0  0  0
 11  3  1  0  0  0  0
 17  1  1  0  0  0  0
 18 17  1  0  0  0  0
 18 23  1  0  0  0  0
 19 18  2  0  0  0  0
 20 21  2  0  0  0  0
 20 19  1  0  0  0  0
 21 22  1  0  0  0  0
 22 17  2  0  0  0  0
 24 19  1  0  0  0  0
 25 21  1  0  0  0  0
 26 27  2  0  0  0  0
 28 26  1  0  0  0  0
 28  6  1  0  0  0  0
 29 28  1  0  0  0  0
 30 31  1  0  0  0  0
 31 32  1  0  0  0  0
 32 26  1  0  0  0  0
 33 32  2  0  0  0  0
 34 33  1  0  0  0  0
 35 36  1  0  0  0  0
 35 34  2  0  0  0  0
 37 35  1  0  0  0  0
 38 37  2  0  0  0  0
 38 40  1  0  0  0  0
 39 38  1  0  0  0  0
 40 41  2  0  0  0  0
 41 34  1  0  0  0  0
 41 31  1  0  0  0  0
M  END
>  <minimizedAffinity>
-6.07450342

>  <minimizedRMSD>
1.00372052

$$$$
