
 OpenBabel03272505113D

 42 46  0  0  0  0  0  0  0  0999 V2000
   33.7800   28.9570   44.3330 Cl  0  0  0  0  0  0  0  0  0  0  0  0
   33.7880   27.7640   45.6250 C   0  0  0  0  0  0  0  0  0  0  0  0
   33.8930   28.0630   46.9880 C   0  0  0  0  0  0  0  0  0  0  0  0
   33.8880   27.0490   47.9050 C   0  0  0  0  0  0  0  0  0  0  0  0
   33.7820   25.7460   47.5110 C   0  0  0  0  0  0  0  0  0  0  0  0
   33.6740   25.3910   46.1660 C   0  0  0  0  0  0  0  0  0  0  0  0
   33.6820   26.4280   45.2710 C   0  0  0  0  0  0  0  0  0  0  0  0
   33.9740   27.3820   48.9370 H   0  0  0  0  0  0  0  0  0  0  0  0
   33.7840   24.9920   48.2880 H   0  0  0  0  0  0  0  0  0  0  0  0
   33.5910   24.3560   45.8820 H   0  0  0  0  0  0  0  0  0  0  0  0
   33.5710   26.0820   43.8720 N   0  0  0  0  0  0  0  0  0  0  0  0
   32.5290   25.9530   43.0340 C   0  0  0  0  0  0  0  0  0  0  0  0
   31.5230   26.1300   43.4180 H   0  0  0  0  0  0  0  0  0  0  0  0
   33.0200   25.6070   41.8220 N   0  0  0  0  0  0  0  0  0  0  0  0
   34.3660   25.5260   41.9300 C   0  0  0  0  0  0  0  0  0  0  0  0
   35.2510   25.2020   40.9290 C   0  0  0  0  0  0  0  0  0  0  0  0
   34.9240   24.9730   39.9190 H   0  0  0  0  0  0  0  0  0  0  0  0
   36.5560   25.1880   41.2810 N   0  0  0  0  0  0  0  0  0  0  0  0
   36.9450   25.4770   42.5460 C   0  0  0  0  0  0  0  0  0  0  0  0
   38.0110   25.4530   42.7890 H   0  0  0  0  0  0  0  0  0  0  0  0
   36.0570   25.7880   43.4940 N   0  0  0  0  0  0  0  0  0  0  0  0
   34.7360   25.8220   43.2140 C   0  0  0  0  0  0  0  0  0  0  0  0
   34.0260   29.8250   47.3470 S   0  0  0  0  0  0  0  0  0  0  0  0
   36.3930   30.8200   45.5730 Cl  0  0  0  0  0  0  0  0  0  0  0  0
   36.6530   30.6720   47.2900 C   0  0  0  0  0  0  0  0  0  0  0  0
   37.9060   31.0060   47.7800 C   0  0  0  0  0  0  0  0  0  0  0  0
   38.1220   30.8910   49.1370 C   0  0  0  0  0  0  0  0  0  0  0  0
   37.1160   30.4600   49.9600 C   0  0  0  0  0  0  0  0  0  0  0  0
   35.8750   30.1390   49.3990 C   0  0  0  0  0  0  0  0  0  0  0  0
   35.5920   30.2280   48.0630 C   0  0  0  0  0  0  0  0  0  0  0  0
   39.1090   31.1600   49.4880 H   0  0  0  0  0  0  0  0  0  0  0  0
   37.2990   30.3750   51.0220 H   0  0  0  0  0  0  0  0  0  0  0  0
   35.0990   29.7990   50.0790 H   0  0  0  0  0  0  0  0  0  0  0  0
   40.1620   33.2840   46.0280 C   0  0  0  0  0  0  0  0  0  0  0  0
   40.8980   32.4340   45.1580 C   0  0  0  0  0  0  0  0  0  0  0  0
   40.5980   31.0720   45.1920 C   0  0  0  0  0  0  0  0  0  0  0  0
   39.6290   30.6240   46.0440 N   0  0  0  0  0  0  0  0  0  0  0  0
   38.9620   31.4700   46.8470 C   0  0  0  0  0  0  0  0  0  0  0  0
   39.2310   32.7750   46.8320 N   0  0  0  0  0  0  0  0  0  0  0  0
   40.3720   34.3360   46.0230 H   0  0  0  0  0  0  0  0  0  0  0  0
   41.6540   32.8200   44.5000 H   0  0  0  0  0  0  0  0  0  0  0  0
   41.1310   30.3980   44.5500 H   0  0  0  0  0  0  0  0  0  0  0  0
  1  2  1  0  0  0  0
  2  3  1  0  0  0  0
  3 23  1  0  0  0  0
  3  4  2  0  0  0  0
  4  8  1  0  0  0  0
  5  4  1  0  0  0  0
  5  9  1  0  0  0  0
  6  5  2  0  0  0  0
  7  2  2  0  0  0  0
  7  6  1  0  0  0  0
 10  6  1  0  0  0  0
 11  7  1  0  0  0  0
 12 13  1  0  0  0  0
 12 11  1  0  0  0  0
 14 15  1  0  0  0  0
 14 12  2  0  0  0  0
 15 22  1  0  0  0  0
 16 18  1  0  0  0  0
 16 15  2  0  0  0  0
 17 16  1  0  0  0  0
 18 19  2  0  0  0  0
 19 20  1  0  0  0  0
 19 21  1  0  0  0  0
 22 21  2  0  0  0  0
 22 11  1  0  0  0  0
 23 30  1  0  0  0  0
 24 25  1  0  0  0  0
 25 26  2  0  0  0  0
 25 30  1  0  0  0  0
 26 27  1  0  0  0  0
 27 31  1  0  0  0  0
 27 28  2  0  0  0  0
 28 32  1  0  0  0  0
 29 28  1  0  0  0  0
 29 33  1  0  0  0  0
 30 29  2  0  0  0  0
 34 39  1  0  0  0  0
 35 36  1  0  0  0  0
 35 34  2  0  0  0  0
 36 37  2  0  0  0  0
 37 38  1  0  0  0  0
 38 26  1  0  0  0  0
 39 38  2  0  0  0  0
 40 34  1  0  0  0  0
 41 35  1  0  0  0  0
 42 36  1  0  0  0  0
M  END
>  <minimizedAffinity>
-5.7251091

>  <minimizedRMSD>
1.42491364

$$$$
