
 OpenBabel03272509313D

 41 44  0  0  1  0  0  0  0  0999 V2000
   36.3780   30.7050   49.0450 C   0  0  2  0  0  0  0  0  0  0  0  0
   37.3710   31.5020   49.8350 C   0  0  0  0  0  0  0  0  0  0  0  0
   38.1810   30.6520   50.7890 C   0  0  0  0  0  0  0  0  0  0  0  0
   37.2630   29.8810   51.7360 C   0  0  0  0  0  0  0  0  0  0  0  0
   35.9840   29.4040   51.0910 C   0  0  0  0  0  0  0  0  0  0  0  0
   36.2240   29.3170   49.5720 C   0  0  1  0  0  0  0  0  0  0  0  0
   35.3290   31.1380   49.0730 H   0  0  0  0  0  0  0  0  0  0  0  0
   37.9880   32.2010   49.3030 H   0  0  0  0  0  0  0  0  0  0  0  0
   36.7310   32.1450   50.5280 H   0  0  0  0  0  0  0  0  0  0  0  0
   38.8050   31.3500   51.3660 H   0  0  0  0  0  0  0  0  0  0  0  0
   38.8090   29.9030   50.2860 H   0  0  0  0  0  0  0  0  0  0  0  0
   37.0950   30.5430   52.6010 H   0  0  0  0  0  0  0  0  0  0  0  0
   37.8030   28.9830   52.1020 H   0  0  0  0  0  0  0  0  0  0  0  0
   35.6530   28.4420   51.4910 H   0  0  0  0  0  0  0  0  0  0  0  0
   35.2320   30.2100   51.2200 H   0  0  0  0  0  0  0  0  0  0  0  0
   37.1480   28.7910   49.5660 H   0  0  0  0  0  0  0  0  0  0  0  0
   36.7660   30.6370   47.6130 C   0  0  0  0  0  0  0  0  0  0  0  0
   38.1290   30.8300   47.3420 C   0  0  0  0  0  0  0  0  0  0  0  0
   38.5230   30.7680   46.0000 C   0  0  0  0  0  0  0  0  0  0  0  0
   37.5630   30.5230   45.0430 N   0  0  0  0  0  0  0  0  0  0  0  0
   36.2440   30.3390   45.3600 C   0  0  0  0  0  0  0  0  0  0  0  0
   35.8680   30.4000   46.6490 N   0  0  0  0  0  0  0  0  0  0  0  0
   38.9710   31.0170   47.9770 H   0  0  0  0  0  0  0  0  0  0  0  0
   39.5280   30.8970   45.6430 H   0  0  0  0  0  0  0  0  0  0  0  0
   35.5810   30.1540   44.5340 H   0  0  0  0  0  0  0  0  0  0  0  0
   33.9080   28.3940   49.0940 C   0  0  0  0  0  0  0  0  0  0  0  0
   33.1300   29.0130   49.9050 O   0  0  0  0  0  0  0  0  0  0  0  0
   35.3030   28.5050   48.8630 N   0  0  0  0  0  0  0  0  0  0  0  0
   35.6520   27.8930   48.0570 H   0  0  0  0  0  0  0  0  0  0  0  0
   34.5990   25.9730   47.6600 H   0  0  0  0  0  0  0  0  0  0  0  0
   33.5910   26.3130   47.6870 N   0  0  0  0  0  0  0  0  0  0  0  0
   33.1100   27.4190   48.3110 C   0  0  0  0  0  0  0  0  0  0  0  0
   31.8230   27.3460   48.0190 N   0  0  0  0  0  0  0  0  0  0  0  0
   31.4820   26.3050   47.2790 C   0  0  0  0  0  0  0  0  0  0  0  0
   30.2900   25.8560   46.7630 C   0  0  0  0  0  0  0  0  0  0  0  0
   29.3760   26.4300   46.9590 H   0  0  0  0  0  0  0  0  0  0  0  0
   30.3250   24.7100   46.0280 N   0  0  0  0  0  0  0  0  0  0  0  0
   31.4640   24.0440   45.8140 C   0  0  0  0  0  0  0  0  0  0  0  0
   31.4780   23.1310   45.2270 H   0  0  0  0  0  0  0  0  0  0  0  0
   32.6330   24.4890   46.3240 N   0  0  0  0  0  0  0  0  0  0  0  0
   32.6420   25.6160   47.0550 C   0  0  0  0  0  0  0  0  0  0  0  0
  1  7  1  1  0  0  0
  1  6  1  0  0  0  0
  1  2  1  0  0  0  0
  2  9  1  0  0  0  0
  2  3  1  0  0  0  0
  3 10  1  0  0  0  0
  3  4  1  0  0  0  0
  4 13  1  0  0  0  0
  4 12  1  0  0  0  0
  5 15  1  0  0  0  0
  5 14  1  0  0  0  0
  5  4  1  0  0  0  0
  6 16  1  6  0  0  0
  6  5  1  0  0  0  0
  8  2  1  0  0  0  0
 11  3  1  0  0  0  0
 17  1  1  0  0  0  0
 18 17  1  0  0  0  0
 18 23  1  0  0  0  0
 19 18  2  0  0  0  0
 20 21  2  0  0  0  0
 20 19  1  0  0  0  0
 21 22  1  0  0  0  0
 22 17  2  0  0  0  0
 24 19  1  0  0  0  0
 25 21  1  0  0  0  0
 26 27  2  0  0  0  0
 28 26  1  0  0  0  0
 28  6  1  0  0  0  0
 29 28  1  0  0  0  0
 30 31  1  0  0  0  0
 31 32  1  0  0  0  0
 32 26  1  0  0  0  0
 33 32  2  0  0  0  0
 34 33  1  0  0  0  0
 35 36  1  0  0  0  0
 35 34  2  0  0  0  0
 37 35  1  0  0  0  0
 38 37  2  0  0  0  0
 38 40  1  0  0  0  0
 39 38  1  0  0  0  0
 40 41  2  0  0  0  0
 41 34  1  0  0  0  0
 41 31  1  0  0  0  0
M  END
>  <minimizedAffinity>
-6.08046389

>  <minimizedRMSD>
0.636630774

$$$$
