
 OpenBabel03272501483D

 23 25  0  0  0  0  0  0  0  0999 V2000
   37.2870   30.1600   51.3730 C   0  0  0  0  0  0  0  0  0  0  0  0
   37.8710   30.8800   50.3260 C   0  0  0  0  0  0  0  0  0  0  0  0
   37.3490   30.6790   49.0260 C   0  0  0  0  0  0  0  0  0  0  0  0
   36.3100   29.7970   48.8830 N   0  0  0  0  0  0  0  0  0  0  0  0
   35.7910   29.1360   49.9240 C   0  0  0  0  0  0  0  0  0  0  0  0
   36.2700   29.3060   51.1840 N   0  0  0  0  0  0  0  0  0  0  0  0
   34.7190   28.2540   49.6270 N   0  0  0  0  0  0  0  0  0  0  0  0
   37.6280   30.2580   52.3860 H   0  0  0  0  0  0  0  0  0  0  0  0
   38.6880   31.5600   50.5110 H   0  0  0  0  0  0  0  0  0  0  0  0
   34.6030   27.2270   49.7510 H   0  0  0  0  0  0  0  0  0  0  0  0
   33.8760   28.7390   49.1950 H   0  0  0  0  0  0  0  0  0  0  0  0
   37.9090   31.3880   47.9270 N   0  0  0  0  0  0  0  0  0  0  0  0
   38.9100   32.2810   48.1620 C   0  0  0  0  0  0  0  0  0  0  0  0
   39.3950   32.5790   49.0760 H   0  0  0  0  0  0  0  0  0  0  0  0
   39.3100   32.8500   47.0120 N   0  0  0  0  0  0  0  0  0  0  0  0
   38.5630   32.3230   46.0260 C   0  0  0  0  0  0  0  0  0  0  0  0
   38.4380   32.4420   44.6410 C   0  0  0  0  0  0  0  0  0  0  0  0
   39.1090   33.1500   44.1550 H   0  0  0  0  0  0  0  0  0  0  0  0
   37.5240   31.7020   43.9840 N   0  0  0  0  0  0  0  0  0  0  0  0
   36.7060   30.8360   44.5950 C   0  0  0  0  0  0  0  0  0  0  0  0
   36.0360   30.3220   43.9500 H   0  0  0  0  0  0  0  0  0  0  0  0
   36.7800   30.6750   45.9460 N   0  0  0  0  0  0  0  0  0  0  0  0
   37.6950   31.4160   46.5980 C   0  0  0  0  0  0  0  0  0  0  0  0
  1  8  1  0  0  0  0
  2  9  1  0  0  0  0
  2  1  2  0  0  0  0
  3  2  1  0  0  0  0
  4  3  2  0  0  0  0
  4  5  1  0  0  0  0
  5  6  2  0  0  0  0
  6  1  1  0  0  0  0
  7 10  1  0  0  0  0
  7  5  1  0  0  0  0
 11  7  1  0  0  0  0
 12 13  1  0  0  0  0
 12  3  1  0  0  0  0
 13 14  1  0  0  0  0
 15 13  2  0  0  0  0
 16 23  1  0  0  0  0
 16 15  1  0  0  0  0
 17 16  2  0  0  0  0
 18 17  1  0  0  0  0
 19 20  2  0  0  0  0
 19 17  1  0  0  0  0
 20 22  1  0  0  0  0
 21 20  1  0  0  0  0
 22 23  2  0  0  0  0
 23 12  1  0  0  0  0
M  END
>  <minimizedAffinity>
-5.67896891

>  <minimizedRMSD>
0.884343207

$$$$
