
 OpenBabel03272506383D

 40 43  0  0  1  0  0  0  0  0999 V2000
   34.6900   28.7210   50.1020 O   0  0  0  0  0  0  0  0  0  0  0  0
   34.4790   29.0450   48.9230 C   0  0  0  0  0  0  0  0  0  0  0  0
   35.2220   30.1120   48.2850 C   0  0  2  0  0  0  0  0  0  0  0  0
   34.7230   29.9740   46.8090 C   0  0  0  0  0  0  0  0  0  0  0  0
   33.3580   29.3750   46.9740 C   0  0  0  0  0  0  0  0  0  0  0  0
   33.5010   28.4210   48.0620 N   0  0  0  0  0  0  0  0  0  0  0  0
   35.0260   31.1380   48.6110 H   0  0  0  0  0  0  0  0  0  0  0  0
   35.4150   29.3580   46.2360 H   0  0  0  0  0  0  0  0  0  0  0  0
   34.7450   30.9870   46.3920 H   0  0  0  0  0  0  0  0  0  0  0  0
   32.5620   30.1050   47.1090 H   0  0  0  0  0  0  0  0  0  0  0  0
   33.1380   28.7650   46.0590 H   0  0  0  0  0  0  0  0  0  0  0  0
   32.8250   27.1540   48.2330 C   0  0  0  0  0  0  0  0  0  0  0  0
   33.0290   26.4720   47.3990 H   0  0  0  0  0  0  0  0  0  0  0  0
   33.3040   26.6830   49.1410 H   0  0  0  0  0  0  0  0  0  0  0  0
   31.4310   27.3050   48.5220 N   0  0  0  0  0  0  0  0  0  0  0  0
   30.8750   27.9880   49.5640 C   0  0  0  0  0  0  0  0  0  0  0  0
   31.4860   28.4980   50.2960 H   0  0  0  0  0  0  0  0  0  0  0  0
   29.5150   27.9180   49.5220 N   0  0  0  0  0  0  0  0  0  0  0  0
   29.1840   27.1810   48.4400 C   0  0  0  0  0  0  0  0  0  0  0  0
   27.9650   26.7930   47.9160 C   0  0  0  0  0  0  0  0  0  0  0  0
   27.0740   27.1080   48.4260 H   0  0  0  0  0  0  0  0  0  0  0  0
   28.0150   26.0470   46.8020 N   0  0  0  0  0  0  0  0  0  0  0  0
   29.1750   25.6840   46.2080 C   0  0  0  0  0  0  0  0  0  0  0  0
   29.0770   25.0770   45.3100 H   0  0  0  0  0  0  0  0  0  0  0  0
   30.3670   26.0490   46.6990 N   0  0  0  0  0  0  0  0  0  0  0  0
   30.3680   26.8090   47.8310 C   0  0  0  0  0  0  0  0  0  0  0  0
   36.6320   29.8970   48.2340 O   0  0  0  0  0  0  0  0  0  0  0  0
   37.4540   31.0200   48.2830 C   0  0  0  0  0  0  0  0  0  0  0  0
   37.6190   31.6160   49.5200 C   0  0  0  0  0  0  0  0  0  0  0  0
   38.4330   32.7380   49.6040 C   0  0  0  0  0  0  0  0  0  0  0  0
   39.0290   33.1990   48.4700 N   0  0  0  0  0  0  0  0  0  0  0  0
   38.8600   32.6090   47.2780 C   0  0  0  0  0  0  0  0  0  0  0  0
   38.0820   31.5400   47.2130 N   0  0  0  0  0  0  0  0  0  0  0  0
   40.3680   32.1730   45.5010 C   0  0  0  0  0  0  0  0  0  0  0  0
   40.6150   30.9940   45.8650 O   0  0  0  0  0  0  0  0  0  0  0  0
   39.4990   33.1220   46.1140 N   0  0  0  0  0  0  0  0  0  0  0  0
   37.1670   31.2840   50.4360 H   0  0  0  0  0  0  0  0  0  0  0  0
   38.5830   33.2270   50.5550 H   0  0  0  0  0  0  0  0  0  0  0  0
   40.9320   32.4070   44.6030 H   0  0  0  0  0  0  0  0  0  0  0  0
   39.3950   34.0570   45.7020 H   0  0  0  0  0  0  0  0  0  0  0  0
  2  1  2  0  0  0  0
  3  7  1  1  0  0  0
  3  2  1  0  0  0  0
  4  5  1  0  0  0  0
  4  3  1  0  0  0  0
  5 10  1  0  0  0  0
  5  6  1  0  0  0  0
  6 12  1  0  0  0  0
  6  2  1  0  0  0  0
  8  4  1  0  0  0  0
  9  4  1  0  0  0  0
 11  5  1  0  0  0  0
 12 15  1  0  0  0  0
 12 14  1  0  0  0  0
 13 12  1  0  0  0  0
 15 16  1  0  0  0  0
 16 17  1  0  0  0  0
 18 16  2  0  0  0  0
 19 18  1  0  0  0  0
 20 21  1  0  0  0  0
 20 19  1  0  0  0  0
 22 20  2  0  0  0  0
 23 25  2  0  0  0  0
 23 22  1  0  0  0  0
 24 23  1  0  0  0  0
 25 26  1  0  0  0  0
 26 19  2  0  0  0  0
 26 15  1  0  0  0  0
 27 28  1  0  0  0  0
 27  3  1  0  0  0  0
 28 29  1  0  0  0  0
 29 30  2  0  0  0  0
 29 37  1  0  0  0  0
 30 38  1  0  0  0  0
 31 30  1  0  0  0  0
 32 31  2  0  0  0  0
 33 32  1  0  0  0  0
 33 28  2  0  0  0  0
 34 35  2  0  0  0  0
 34 36  1  0  0  0  0
 36 32  1  0  0  0  0
 39 34  1  0  0  0  0
 40 36  1  0  0  0  0
M  END
>  <minimizedAffinity>
-6.39028215

>  <minimizedRMSD>
1.51849806

$$$$
