
 OpenBabel03262523103D

 23 25  0  0  0  0  0  0  0  0999 V2000
   39.6830   22.8520   37.5190 C   0  0  0  0  0  0  0  0  0  0  0  0
   38.7020   23.2610   38.4720 C   0  0  0  0  0  0  0  0  0  0  0  0
   37.9220   24.3700   38.0960 C   0  0  0  0  0  0  0  0  0  0  0  0
   38.1360   24.9620   36.9020 N   0  0  0  0  0  0  0  0  0  0  0  0
   39.0770   24.5350   36.0390 C   0  0  0  0  0  0  0  0  0  0  0  0
   39.8390   23.4860   36.3570 N   0  0  0  0  0  0  0  0  0  0  0  0
   38.6130   22.7240   39.3880 H   0  0  0  0  0  0  0  0  0  0  0  0
   37.1800   24.7010   38.7850 H   0  0  0  0  0  0  0  0  0  0  0  0
   39.3160   25.1480   34.7750 N   0  0  0  0  0  0  0  0  0  0  0  0
   40.4640   24.8830   34.1270 C   0  0  0  0  0  0  0  0  0  0  0  0
   41.3380   24.2740   34.3160 H   0  0  0  0  0  0  0  0  0  0  0  0
   40.4360   25.5840   32.9700 N   0  0  0  0  0  0  0  0  0  0  0  0
   39.2730   26.2780   32.9120 C   0  0  0  0  0  0  0  0  0  0  0  0
   38.6700   27.1570   32.0050 C   0  0  0  0  0  0  0  0  0  0  0  0
   39.2370   27.3730   31.0990 H   0  0  0  0  0  0  0  0  0  0  0  0
   37.4620   27.6780   32.2830 N   0  0  0  0  0  0  0  0  0  0  0  0
   36.8210   27.3650   33.4240 C   0  0  0  0  0  0  0  0  0  0  0  0
   35.8440   27.7810   33.6570 H   0  0  0  0  0  0  0  0  0  0  0  0
   37.3480   26.5160   34.3530 N   0  0  0  0  0  0  0  0  0  0  0  0
   38.5570   25.9980   34.0700 C   0  0  0  0  0  0  0  0  0  0  0  0
   40.5470   21.7280   37.7870 N   0  0  0  0  0  0  0  0  0  0  0  0
   40.1500   20.8150   37.4690 H   0  0  0  0  0  0  0  0  0  0  0  0
   41.4010   22.1060   38.2550 H   0  0  0  0  0  0  0  0  0  0  0  0
  1 21  1  0  0  0  0
  1  2  1  0  0  0  0
  2  7  1  0  0  0  0
  3  2  2  0  0  0  0
  3  8  1  0  0  0  0
  4  3  1  0  0  0  0
  5  6  1  0  0  0  0
  5  4  2  0  0  0  0
  6  1  2  0  0  0  0
  9  5  1  0  0  0  0
 10 11  1  0  0  0  0
 10  9  1  0  0  0  0
 12 10  2  0  0  0  0
 13 12  1  0  0  0  0
 13 20  1  0  0  0  0
 14 16  1  0  0  0  0
 14 13  2  0  0  0  0
 15 14  1  0  0  0  0
 16 17  2  0  0  0  0
 17 18  1  0  0  0  0
 17 19  1  0  0  0  0
 20 19  2  0  0  0  0
 20  9  1  0  0  0  0
 21 23  1  0  0  0  0
 22 21  1  0  0  0  0
M  END
>  <minimizedAffinity>
-5.01516914

$$$$

 OpenBabel03262523103D

 23 25  0  0  0  0  0  0  0  0999 V2000
   39.3990   23.0260   37.2520 C   0  0  0  0  0  0  0  0  0  0  0  0
   40.2150   22.0670   36.5780 C   0  0  0  0  0  0  0  0  0  0  0  0
   40.3850   22.2830   35.1990 C   0  0  0  0  0  0  0  0  0  0  0  0
   39.7910   23.3420   34.6110 N   0  0  0  0  0  0  0  0  0  0  0  0
   39.0300   24.2190   35.2940 C   0  0  0  0  0  0  0  0  0  0  0  0
   38.8430   24.0500   36.6050 N   0  0  0  0  0  0  0  0  0  0  0  0
   40.6390   21.2640   37.1370 H   0  0  0  0  0  0  0  0  0  0  0  0
   40.9890   21.5850   34.6670 H   0  0  0  0  0  0  0  0  0  0  0  0
   38.3960   25.3420   34.6890 N   0  0  0  0  0  0  0  0  0  0  0  0
   37.4070   25.9680   35.3510 C   0  0  0  0  0  0  0  0  0  0  0  0
   36.9120   25.8440   36.3050 H   0  0  0  0  0  0  0  0  0  0  0  0
   36.9860   26.9840   34.5630 N   0  0  0  0  0  0  0  0  0  0  0  0
   37.7170   26.9790   33.4210 C   0  0  0  0  0  0  0  0  0  0  0  0
   37.7630   27.7480   32.2520 C   0  0  0  0  0  0  0  0  0  0  0  0
   37.0520   28.5730   32.1940 H   0  0  0  0  0  0  0  0  0  0  0  0
   38.6510   27.4450   31.2890 N   0  0  0  0  0  0  0  0  0  0  0  0
   39.4980   26.4100   31.4320 C   0  0  0  0  0  0  0  0  0  0  0  0
   40.2200   26.1570   30.6580 H   0  0  0  0  0  0  0  0  0  0  0  0
   39.5100   25.6180   32.5430 N   0  0  0  0  0  0  0  0  0  0  0  0
   38.6190   25.9260   33.5040 C   0  0  0  0  0  0  0  0  0  0  0  0
   39.1480   22.9150   38.6680 N   0  0  0  0  0  0  0  0  0  0  0  0
   39.8580   23.4070   39.2550 H   0  0  0  0  0  0  0  0  0  0  0  0
   38.2780   22.3460   38.7780 H   0  0  0  0  0  0  0  0  0  0  0  0
  1 21  1  0  0  0  0
  2  7  1  0  0  0  0
  2  1  2  0  0  0  0
  3  2  1  0  0  0  0
  4  3  2  0  0  0  0
  4  5  1  0  0  0  0
  5  6  2  0  0  0  0
  6  1  1  0  0  0  0
  8  3  1  0  0  0  0
  9  5  1  0  0  0  0
  9 10  1  0  0  0  0
 10 11  1  0  0  0  0
 12 10  2  0  0  0  0
 13 20  1  0  0  0  0
 13 12  1  0  0  0  0
 14 13  2  0  0  0  0
 15 14  1  0  0  0  0
 16 17  2  0  0  0  0
 16 14  1  0  0  0  0
 17 19  1  0  0  0  0
 18 17  1  0  0  0  0
 19 20  2  0  0  0  0
 20  9  1  0  0  0  0
 21 23  1  0  0  0  0
 21 22  1  0  0  0  0
M  END
>  <minimizedAffinity>
-4.53115654

$$$$

 OpenBabel03262523103D

 23 25  0  0  0  0  0  0  0  0999 V2000
   36.8250   28.1520   30.3030 C   0  0  0  0  0  0  0  0  0  0  0  0
   36.2850   29.2560   31.0300 C   0  0  0  0  0  0  0  0  0  0  0  0
   36.1780   29.0680   32.4200 C   0  0  0  0  0  0  0  0  0  0  0  0
   36.5760   27.9010   32.9690 N   0  0  0  0  0  0  0  0  0  0  0  0
   37.0800   26.8900   32.2360 C   0  0  0  0  0  0  0  0  0  0  0  0
   37.1980   27.0260   30.9130 N   0  0  0  0  0  0  0  0  0  0  0  0
   36.0010   30.1360   30.4990 H   0  0  0  0  0  0  0  0  0  0  0  0
   35.7790   29.8740   32.9910 H   0  0  0  0  0  0  0  0  0  0  0  0
   37.5040   25.6520   32.7990 N   0  0  0  0  0  0  0  0  0  0  0  0
   37.6800   24.5930   31.9890 C   0  0  0  0  0  0  0  0  0  0  0  0
   37.5810   24.4020   30.9280 H   0  0  0  0  0  0  0  0  0  0  0  0
   38.0790   23.5610   32.7690 N   0  0  0  0  0  0  0  0  0  0  0  0
   38.1450   23.9890   34.0530 C   0  0  0  0  0  0  0  0  0  0  0  0
   38.4810   23.4200   35.2880 C   0  0  0  0  0  0  0  0  0  0  0  0
   38.7700   22.3680   35.2670 H   0  0  0  0  0  0  0  0  0  0  0  0
   38.4330   24.1700   36.4030 N   0  0  0  0  0  0  0  0  0  0  0  0
   38.0670   25.4630   36.3500 C   0  0  0  0  0  0  0  0  0  0  0  0
   38.0260   26.0770   37.2470 H   0  0  0  0  0  0  0  0  0  0  0  0
   37.7270   26.0830   35.1830 N   0  0  0  0  0  0  0  0  0  0  0  0
   37.7760   25.3280   34.0710 C   0  0  0  0  0  0  0  0  0  0  0  0
   36.9860   28.2190   28.8710 N   0  0  0  0  0  0  0  0  0  0  0  0
   37.9100   28.6060   28.5750 H   0  0  0  0  0  0  0  0  0  0  0  0
   36.1040   27.8500   28.4490 H   0  0  0  0  0  0  0  0  0  0  0  0
  1  6  2  0  0  0  0
  1  2  1  0  0  0  0
  2  3  2  0  0  0  0
  3  4  1  0  0  0  0
  3  8  1  0  0  0  0
  5  9  1  0  0  0  0
  5  4  2  0  0  0  0
  6  5  1  0  0  0  0
  7  2  1  0  0  0  0
  9 20  1  0  0  0  0
 10 12  2  0  0  0  0
 10  9  1  0  0  0  0
 11 10  1  0  0  0  0
 12 13  1  0  0  0  0
 13 20  2  0  0  0  0
 13 14  1  0  0  0  0
 14 16  2  0  0  0  0
 15 14  1  0  0  0  0
 17 16  1  0  0  0  0
 17 18  1  0  0  0  0
 19 17  2  0  0  0  0
 20 19  1  0  0  0  0
 21  1  1  0  0  0  0
 22 21  1  0  0  0  0
 23 21  1  0  0  0  0
M  END
>  <minimizedAffinity>
-4.51508045

$$$$

 OpenBabel03262523103D

 23 25  0  0  0  0  0  0  0  0999 V2000
   35.4560   19.3320   31.9420 C   0  0  0  0  0  0  0  0  0  0  0  0
   36.0560   19.8170   30.7410 C   0  0  0  0  0  0  0  0  0  0  0  0
   36.9370   20.9020   30.9030 C   0  0  0  0  0  0  0  0  0  0  0  0
   37.1590   21.4040   32.1350 N   0  0  0  0  0  0  0  0  0  0  0  0
   36.5670   20.9080   33.2380 C   0  0  0  0  0  0  0  0  0  0  0  0
   35.7220   19.8790   33.1290 N   0  0  0  0  0  0  0  0  0  0  0  0
   35.8130   19.3480   29.8150 H   0  0  0  0  0  0  0  0  0  0  0  0
   37.4020   21.2870   30.0250 H   0  0  0  0  0  0  0  0  0  0  0  0
   36.7890   21.4250   34.5460 N   0  0  0  0  0  0  0  0  0  0  0  0
   35.9310   21.1050   35.5300 C   0  0  0  0  0  0  0  0  0  0  0  0
   35.0340   20.5050   35.6130 H   0  0  0  0  0  0  0  0  0  0  0  0
   36.3690   21.7200   36.6530 N   0  0  0  0  0  0  0  0  0  0  0  0
   37.4940   22.4160   36.3550 C   0  0  0  0  0  0  0  0  0  0  0  0
   38.3880   23.2320   37.0580 C   0  0  0  0  0  0  0  0  0  0  0  0
   38.1730   23.3770   38.1170 H   0  0  0  0  0  0  0  0  0  0  0  0
   39.4350   23.7800   36.4170 N   0  0  0  0  0  0  0  0  0  0  0  0
   39.6370   23.5560   35.1060 C   0  0  0  0  0  0  0  0  0  0  0  0
   40.4820   23.9950   34.5790 H   0  0  0  0  0  0  0  0  0  0  0  0
   38.8070   22.7730   34.3590 N   0  0  0  0  0  0  0  0  0  0  0  0
   37.7610   22.2270   35.0050 C   0  0  0  0  0  0  0  0  0  0  0  0
   34.5320   18.2240   31.9110 N   0  0  0  0  0  0  0  0  0  0  0  0
   34.9980   17.2940   32.0060 H   0  0  0  0  0  0  0  0  0  0  0  0
   33.5760   18.6290   31.7950 H   0  0  0  0  0  0  0  0  0  0  0  0
  1  6  1  0  0  0  0
  2  3  1  0  0  0  0
  2  1  2  0  0  0  0
  3  4  2  0  0  0  0
  4  5  1  0  0  0  0
  5  9  1  0  0  0  0
  6  5  2  0  0  0  0
  7  2  1  0  0  0  0
  8  3  1  0  0  0  0
  9 20  1  0  0  0  0
  9 10  1  0  0  0  0
 10 11  1  0  0  0  0
 10 12  2  0  0  0  0
 13 12  1  0  0  0  0
 13 14  1  0  0  0  0
 14 15  1  0  0  0  0
 16 14  2  0  0  0  0
 17 16  1  0  0  0  0
 18 17  1  0  0  0  0
 19 20  1  0  0  0  0
 19 17  2  0  0  0  0
 20 13  2  0  0  0  0
 21  1  1  0  0  0  0
 21 22  1  0  0  0  0
 23 21  1  0  0  0  0
M  END
>  <minimizedAffinity>
-4.49688959

$$$$

 OpenBabel03262523103D

 23 25  0  0  0  0  0  0  0  0999 V2000
   37.9990   27.0600   35.1370 C   0  0  0  0  0  0  0  0  0  0  0  0
   37.2260   27.8760   34.2570 C   0  0  0  0  0  0  0  0  0  0  0  0
   36.7070   27.2200   33.1270 C   0  0  0  0  0  0  0  0  0  0  0  0
   36.9580   25.9070   32.9430 N   0  0  0  0  0  0  0  0  0  0  0  0
   37.6940   25.1810   33.8060 C   0  0  0  0  0  0  0  0  0  0  0  0
   38.2070   25.7660   34.8920 N   0  0  0  0  0  0  0  0  0  0  0  0
   37.0870   28.9060   34.4950 H   0  0  0  0  0  0  0  0  0  0  0  0
   36.1250   27.8010   32.4500 H   0  0  0  0  0  0  0  0  0  0  0  0
   37.9690   23.7950   33.6270 N   0  0  0  0  0  0  0  0  0  0  0  0
   38.9630   23.2300   34.3350 C   0  0  0  0  0  0  0  0  0  0  0  0
   39.6790   23.5670   35.0730 H   0  0  0  0  0  0  0  0  0  0  0  0
   39.0090   21.9250   33.9790 N   0  0  0  0  0  0  0  0  0  0  0  0
   38.0450   21.6940   33.0540 C   0  0  0  0  0  0  0  0  0  0  0  0
   37.5980   20.5880   32.3210 C   0  0  0  0  0  0  0  0  0  0  0  0
   38.1240   19.6500   32.5020 H   0  0  0  0  0  0  0  0  0  0  0  0
   36.5770   20.7280   31.4580 N   0  0  0  0  0  0  0  0  0  0  0  0
   35.9760   21.9200   31.2880 C   0  0  0  0  0  0  0  0  0  0  0  0
   35.1490   22.0430   30.5920 H   0  0  0  0  0  0  0  0  0  0  0  0
   36.3580   23.0390   31.9680 N   0  0  0  0  0  0  0  0  0  0  0  0
   37.3810   22.8930   32.8290 C   0  0  0  0  0  0  0  0  0  0  0  0
   38.5880   27.6150   36.3320 N   0  0  0  0  0  0  0  0  0  0  0  0
   37.9590   27.5650   37.1650 H   0  0  0  0  0  0  0  0  0  0  0  0
   39.5430   27.9490   36.0730 H   0  0  0  0  0  0  0  0  0  0  0  0
  1 21  1  0  0  0  0
  2  7  1  0  0  0  0
  2  1  2  0  0  0  0
  3  2  1  0  0  0  0
  4  3  2  0  0  0  0
  4  5  1  0  0  0  0
  5  6  2  0  0  0  0
  6  1  1  0  0  0  0
  8  3  1  0  0  0  0
  9  5  1  0  0  0  0
  9 10  1  0  0  0  0
 10 11  1  0  0  0  0
 12 10  2  0  0  0  0
 13 12  1  0  0  0  0
 14 15  1  0  0  0  0
 14 13  2  0  0  0  0
 16 14  1  0  0  0  0
 17 16  2  0  0  0  0
 17 19  1  0  0  0  0
 18 17  1  0  0  0  0
 19 20  2  0  0  0  0
 20 13  1  0  0  0  0
 20  9  1  0  0  0  0
 21 22  1  0  0  0  0
 23 21  1  0  0  0  0
M  END
>  <minimizedAffinity>
-4.46821785

$$$$

 OpenBabel03262523103D

 23 25  0  0  0  0  0  0  0  0999 V2000
   39.4410   22.9990   37.6670 C   0  0  0  0  0  0  0  0  0  0  0  0
   40.7080   22.3600   37.5060 C   0  0  0  0  0  0  0  0  0  0  0  0
   41.4040   22.6880   36.3290 C   0  0  0  0  0  0  0  0  0  0  0  0
   40.8580   23.5550   35.4510 N   0  0  0  0  0  0  0  0  0  0  0  0
   39.6580   24.1320   35.6510 C   0  0  0  0  0  0  0  0  0  0  0  0
   38.9640   23.8470   36.7560 N   0  0  0  0  0  0  0  0  0  0  0  0
   41.0490   21.6890   38.2620 H   0  0  0  0  0  0  0  0  0  0  0  0
   42.3530   22.2280   36.1790 H   0  0  0  0  0  0  0  0  0  0  0  0
   39.0670   25.0490   34.7350 N   0  0  0  0  0  0  0  0  0  0  0  0
   37.7540   25.3200   34.8370 C   0  0  0  0  0  0  0  0  0  0  0  0
   36.9450   25.0070   35.4840 H   0  0  0  0  0  0  0  0  0  0  0  0
   37.4570   26.2080   33.8600 N   0  0  0  0  0  0  0  0  0  0  0  0
   38.5870   26.4780   33.1620 C   0  0  0  0  0  0  0  0  0  0  0  0
   38.9260   27.2880   32.0710 C   0  0  0  0  0  0  0  0  0  0  0  0
   38.1130   27.8690   31.6340 H   0  0  0  0  0  0  0  0  0  0  0  0
   40.1940   27.3100   31.6250 N   0  0  0  0  0  0  0  0  0  0  0  0
   41.1460   26.5640   32.2160 C   0  0  0  0  0  0  0  0  0  0  0  0
   42.1750   26.5750   31.8620 H   0  0  0  0  0  0  0  0  0  0  0  0
   40.8880   25.7530   33.2820 N   0  0  0  0  0  0  0  0  0  0  0  0
   39.6170   25.7340   33.7230 C   0  0  0  0  0  0  0  0  0  0  0  0
   38.6290   22.7450   38.8320 N   0  0  0  0  0  0  0  0  0  0  0  0
   38.8300   23.3930   39.6270 H   0  0  0  0  0  0  0  0  0  0  0  0
   38.0050   21.9400   38.5980 H   0  0  0  0  0  0  0  0  0  0  0  0
  1 21  1  0  0  0  0
  2  1  1  0  0  0  0
  2  7  1  0  0  0  0
  3  2  2  0  0  0  0
  4  5  2  0  0  0  0
  4  3  1  0  0  0  0
  5  6  1  0  0  0  0
  6  1  2  0  0  0  0
  8  3  1  0  0  0  0
  9 10  1  0  0  0  0
  9  5  1  0  0  0  0
 10 11  1  0  0  0  0
 12 10  2  0  0  0  0
 13 20  1  0  0  0  0
 13 12  1  0  0  0  0
 14 13  2  0  0  0  0
 15 14  1  0  0  0  0
 16 14  1  0  0  0  0
 16 17  2  0  0  0  0
 17 19  1  0  0  0  0
 18 17  1  0  0  0  0
 19 20  2  0  0  0  0
 20  9  1  0  0  0  0
 21 22  1  0  0  0  0
 23 21  1  0  0  0  0
M  END
>  <minimizedAffinity>
-4.43382072

$$$$

 OpenBabel03262523103D

 23 25  0  0  0  0  0  0  0  0999 V2000
   37.9390   27.3240   32.3200 C   0  0  0  0  0  0  0  0  0  0  0  0
   36.8980   28.1330   32.8690 C   0  0  0  0  0  0  0  0  0  0  0  0
   36.4580   27.7600   34.1520 C   0  0  0  0  0  0  0  0  0  0  0  0
   37.0220   26.7020   34.7700 N   0  0  0  0  0  0  0  0  0  0  0  0
   38.0030   25.9710   34.2070 C   0  0  0  0  0  0  0  0  0  0  0  0
   38.4500   26.2900   32.9890 N   0  0  0  0  0  0  0  0  0  0  0  0
   36.5200   28.9500   32.2970 H   0  0  0  0  0  0  0  0  0  0  0  0
   35.6820   28.3440   34.5900 H   0  0  0  0  0  0  0  0  0  0  0  0
   38.6090   24.8510   34.8450 N   0  0  0  0  0  0  0  0  0  0  0  0
   39.3300   23.9900   34.1050 C   0  0  0  0  0  0  0  0  0  0  0  0
   39.6060   23.9040   33.0620 H   0  0  0  0  0  0  0  0  0  0  0  0
   39.7870   23.0330   34.9460 N   0  0  0  0  0  0  0  0  0  0  0  0
   39.3430   23.3080   36.1970 C   0  0  0  0  0  0  0  0  0  0  0  0
   39.4680   22.7190   37.4620 C   0  0  0  0  0  0  0  0  0  0  0  0
   40.0610   21.8050   37.5080 H   0  0  0  0  0  0  0  0  0  0  0  0
   38.8700   23.2870   38.5240 N   0  0  0  0  0  0  0  0  0  0  0  0
   38.1530   24.4170   38.3890 C   0  0  0  0  0  0  0  0  0  0  0  0
   37.6660   24.8840   39.2430 H   0  0  0  0  0  0  0  0  0  0  0  0
   37.9900   25.0460   37.1900 N   0  0  0  0  0  0  0  0  0  0  0  0
   38.5890   24.4730   36.1300 C   0  0  0  0  0  0  0  0  0  0  0  0
   38.4760   27.6020   31.0110 N   0  0  0  0  0  0  0  0  0  0  0  0
   39.2790   28.2700   31.0250 H   0  0  0  0  0  0  0  0  0  0  0  0
   37.9130   27.0470   30.3270 H   0  0  0  0  0  0  0  0  0  0  0  0
  1  2  2  0  0  0  0
  1  6  1  0  0  0  0
  2  3  1  0  0  0  0
  3  8  1  0  0  0  0
  3  4  2  0  0  0  0
  5  4  1  0  0  0  0
  5  9  1  0  0  0  0
  6  5  2  0  0  0  0
  7  2  1  0  0  0  0
  9 20  1  0  0  0  0
 10  9  1  0  0  0  0
 10 12  2  0  0  0  0
 11 10  1  0  0  0  0
 12 13  1  0  0  0  0
 13 14  1  0  0  0  0
 14 15  1  0  0  0  0
 14 16  2  0  0  0  0
 17 16  1  0  0  0  0
 17 18  1  0  0  0  0
 19 17  2  0  0  0  0
 20 13  2  0  0  0  0
 20 19  1  0  0  0  0
 21 22  1  0  0  0  0
 21  1  1  0  0  0  0
 23 21  1  0  0  0  0
M  END
>  <minimizedAffinity>
-4.3827939

$$$$

 OpenBabel03262523103D

 23 25  0  0  0  0  0  0  0  0999 V2000
   40.5300   22.3860   36.4980 C   0  0  0  0  0  0  0  0  0  0  0  0
   41.5520   23.3460   36.2290 C   0  0  0  0  0  0  0  0  0  0  0  0
   41.3740   24.1030   35.0560 C   0  0  0  0  0  0  0  0  0  0  0  0
   40.2910   23.8880   34.2810 N   0  0  0  0  0  0  0  0  0  0  0  0
   39.3550   22.9680   34.5810 C   0  0  0  0  0  0  0  0  0  0  0  0
   39.4850   22.2270   35.6850 N   0  0  0  0  0  0  0  0  0  0  0  0
   42.3680   23.4380   36.9080 H   0  0  0  0  0  0  0  0  0  0  0  0
   42.1190   24.8290   34.8270 H   0  0  0  0  0  0  0  0  0  0  0  0
   38.2060   22.7280   33.7730 N   0  0  0  0  0  0  0  0  0  0  0  0
   37.5060   21.5940   33.9540 C   0  0  0  0  0  0  0  0  0  0  0  0
   37.5790   20.7320   34.6050 H   0  0  0  0  0  0  0  0  0  0  0  0
   36.4810   21.6180   33.0710 N   0  0  0  0  0  0  0  0  0  0  0  0
   36.5550   22.7640   32.3520 C   0  0  0  0  0  0  0  0  0  0  0  0
   35.8140   23.3550   31.3220 C   0  0  0  0  0  0  0  0  0  0  0  0
   34.9470   22.7930   30.9720 H   0  0  0  0  0  0  0  0  0  0  0  0
   36.1920   24.5470   30.8270 N   0  0  0  0  0  0  0  0  0  0  0  0
   37.2750   25.1820   31.3100 C   0  0  0  0  0  0  0  0  0  0  0  0
   37.5880   26.1470   30.9160 H   0  0  0  0  0  0  0  0  0  0  0  0
   38.0430   24.6660   32.3120 N   0  0  0  0  0  0  0  0  0  0  0  0
   37.6610   23.4730   32.8020 C   0  0  0  0  0  0  0  0  0  0  0  0
   40.5960   21.5470   37.6700 N   0  0  0  0  0  0  0  0  0  0  0  0
   40.1390   21.9690   38.5080 H   0  0  0  0  0  0  0  0  0  0  0  0
   41.1070   20.6780   37.3930 H   0  0  0  0  0  0  0  0  0  0  0  0
  1 21  1  0  0  0  0
  2  1  1  0  0  0  0
  2  7  1  0  0  0  0
  3  2  2  0  0  0  0
  4  5  2  0  0  0  0
  4  3  1  0  0  0  0
  5  6  1  0  0  0  0
  6  1  2  0  0  0  0
  8  3  1  0  0  0  0
  9 10  1  0  0  0  0
  9  5  1  0  0  0  0
 10 11  1  0  0  0  0
 12 10  2  0  0  0  0
 13 20  1  0  0  0  0
 13 12  1  0  0  0  0
 14 13  2  0  0  0  0
 15 14  1  0  0  0  0
 16 17  2  0  0  0  0
 16 14  1  0  0  0  0
 17 19  1  0  0  0  0
 18 17  1  0  0  0  0
 19 20  2  0  0  0  0
 20  9  1  0  0  0  0
 21 22  1  0  0  0  0
 23 21  1  0  0  0  0
M  END
>  <minimizedAffinity>
-4.34327507

$$$$

 OpenBabel03262523103D

 23 25  0  0  0  0  0  0  0  0999 V2000
   38.1560   23.5360   37.8120 C   0  0  0  0  0  0  0  0  0  0  0  0
   38.0870   24.9480   38.0130 C   0  0  0  0  0  0  0  0  0  0  0  0
   38.0610   25.7230   36.8390 C   0  0  0  0  0  0  0  0  0  0  0  0
   38.1010   25.1130   35.6360 N   0  0  0  0  0  0  0  0  0  0  0  0
   38.1650   23.7750   35.5020 C   0  0  0  0  0  0  0  0  0  0  0  0
   38.1930   23.0020   36.5910 N   0  0  0  0  0  0  0  0  0  0  0  0
   38.0590   25.3290   39.0080 H   0  0  0  0  0  0  0  0  0  0  0  0
   38.0090   26.7800   36.9540 H   0  0  0  0  0  0  0  0  0  0  0  0
   38.2090   23.1150   34.2400 N   0  0  0  0  0  0  0  0  0  0  0  0
   38.5990   21.8300   34.1880 C   0  0  0  0  0  0  0  0  0  0  0  0
   38.9190   21.0860   34.9070 H   0  0  0  0  0  0  0  0  0  0  0  0
   38.5500   21.4540   32.8890 N   0  0  0  0  0  0  0  0  0  0  0  0
   38.1310   22.5090   32.1480 C   0  0  0  0  0  0  0  0  0  0  0  0
   37.8840   22.7520   30.7920 C   0  0  0  0  0  0  0  0  0  0  0  0
   38.0570   21.9130   30.1160 H   0  0  0  0  0  0  0  0  0  0  0  0
   37.4610   23.9660   30.3970 N   0  0  0  0  0  0  0  0  0  0  0  0
   37.2700   24.9530   31.2900 C   0  0  0  0  0  0  0  0  0  0  0  0
   36.9270   25.9390   30.9800 H   0  0  0  0  0  0  0  0  0  0  0  0
   37.4900   24.7890   32.6260 N   0  0  0  0  0  0  0  0  0  0  0  0
   37.9140   23.5730   33.0150 C   0  0  0  0  0  0  0  0  0  0  0  0
   38.1890   22.6320   38.9360 N   0  0  0  0  0  0  0  0  0  0  0  0
   37.2400   22.3360   39.2580 H   0  0  0  0  0  0  0  0  0  0  0  0
   39.1950   22.4790   39.1730 H   0  0  0  0  0  0  0  0  0  0  0  0
  1  2  1  0  0  0  0
  1 21  1  0  0  0  0
  2  7  1  0  0  0  0
  3  8  1  0  0  0  0
  3  2  2  0  0  0  0
  4  3  1  0  0  0  0
  5  4  2  0  0  0  0
  5  6  1  0  0  0  0
  6  1  2  0  0  0  0
  9  5  1  0  0  0  0
 10  9  1  0  0  0  0
 10 11  1  0  0  0  0
 12 10  2  0  0  0  0
 13 12  1  0  0  0  0
 13 20  1  0  0  0  0
 14 13  2  0  0  0  0
 15 14  1  0  0  0  0
 16 14  1  0  0  0  0
 16 17  2  0  0  0  0
 17 19  1  0  0  0  0
 18 17  1  0  0  0  0
 19 20  2  0  0  0  0
 20  9  1  0  0  0  0
 21 23  1  0  0  0  0
 21 22  1  0  0  0  0
M  END
>  <minimizedAffinity>
-4.34178591

$$$$
