
 OpenBabel03272505513D

 47 51  0  0  1  0  0  0  0  0999 V2000
   35.2290   29.3880   45.5820 N   0  0  2  0  0  0  0  0  0  0  0  0
   36.2630   30.2920   45.0750 C   0  0  0  0  0  0  0  0  0  0  0  0
   36.3480   30.0680   43.5830 C   0  0  0  0  0  0  0  0  0  0  0  0
   35.4190   28.9380   43.3450 C   0  0  0  0  0  0  0  0  0  0  0  0
   34.3910   29.0690   44.4820 C   0  0  1  0  0  0  0  0  0  0  0  0
   37.2100   30.2150   45.6060 H   0  0  0  0  0  0  0  0  0  0  0  0
   35.8180   31.3230   45.2030 H   0  0  0  0  0  0  0  0  0  0  0  0
   36.1330   30.9730   42.9850 H   0  0  0  0  0  0  0  0  0  0  0  0
   37.3880   29.7310   43.3780 H   0  0  0  0  0  0  0  0  0  0  0  0
   34.9530   29.0900   42.3470 H   0  0  0  0  0  0  0  0  0  0  0  0
   35.8810   27.9500   43.3240 H   0  0  0  0  0  0  0  0  0  0  0  0
   33.7600   29.8490   44.0700 H   0  0  0  0  0  0  0  0  0  0  0  0
   37.2530   29.2760   50.5400 C   0  0  0  0  0  0  0  0  0  0  0  0
   37.4230   30.6480   50.7850 C   0  0  0  0  0  0  0  0  0  0  0  0
   36.6770   31.5240   50.0030 C   0  0  0  0  0  0  0  0  0  0  0  0
   35.8440   31.0010   49.0640 N   0  0  0  0  0  0  0  0  0  0  0  0
   35.7180   29.6920   48.8690 C   0  0  0  0  0  0  0  0  0  0  0  0
   36.4180   28.8280   49.6020 N   0  0  0  0  0  0  0  0  0  0  0  0
   34.8280   29.2150   47.8730 N   0  0  0  0  0  0  0  0  0  0  0  0
   34.1830   27.9110   47.9830 C   0  0  0  0  0  0  0  0  0  0  0  0
   32.7040   28.0640   47.8520 C   0  0  0  0  0  0  0  0  0  0  0  0
   32.2440   29.2490   47.3300 N   0  0  0  0  0  0  0  0  0  0  0  0
   33.0770   30.0900   46.5050 C   0  0  0  0  0  0  0  0  0  0  0  0
   34.5100   29.9970   46.6910 C   0  0  2  0  0  0  0  0  0  0  0  0
   37.8620   28.6620   51.1830 H   0  0  0  0  0  0  0  0  0  0  0  0
   38.0500   31.1270   51.4970 H   0  0  0  0  0  0  0  0  0  0  0  0
   36.7190   32.5980   50.0970 H   0  0  0  0  0  0  0  0  0  0  0  0
   34.6560   27.1770   47.3320 H   0  0  0  0  0  0  0  0  0  0  0  0
   34.4150   27.5410   49.0300 H   0  0  0  0  0  0  0  0  0  0  0  0
   32.2080   27.8660   48.8240 H   0  0  0  0  0  0  0  0  0  0  0  0
   32.3620   27.2110   47.1990 H   0  0  0  0  0  0  0  0  0  0  0  0
   31.3640   29.6610   47.6470 H   0  0  0  0  0  0  0  0  0  0  0  0
   32.6050   30.0840   45.5370 H   0  0  0  0  0  0  0  0  0  0  0  0
   32.7790   31.1320   46.8860 H   0  0  0  0  0  0  0  0  0  0  0  0
   34.9990   31.0080   46.8460 H   0  0  0  0  0  0  0  0  0  0  0  0
   33.7890   27.7510   44.4900 N   0  0  0  0  0  0  0  0  0  0  0  0
   34.2980   26.4920   44.6620 C   0  0  0  0  0  0  0  0  0  0  0  0
   35.3790   26.3830   44.8280 H   0  0  0  0  0  0  0  0  0  0  0  0
   33.3100   25.5820   44.5880 N   0  0  0  0  0  0  0  0  0  0  0  0
   32.1400   26.2380   44.3670 C   0  0  0  0  0  0  0  0  0  0  0  0
   30.8970   25.6580   44.2310 C   0  0  0  0  0  0  0  0  0  0  0  0
   30.7540   24.5880   44.2940 H   0  0  0  0  0  0  0  0  0  0  0  0
   29.8760   26.5180   44.0150 N   0  0  0  0  0  0  0  0  0  0  0  0
   30.1240   27.8380   43.9480 C   0  0  0  0  0  0  0  0  0  0  0  0
   29.2860   28.5280   43.7710 H   0  0  0  0  0  0  0  0  0  0  0  0
   31.3600   28.3360   44.0890 N   0  0  0  0  0  0  0  0  0  0  0  0
   32.4450   27.5840   44.3060 C   0  0  0  0  0  0  0  0  0  0  0  0
  1  2  1  6  0  0  0
  1 24  1  0  0  0  0
  2  7  1  0  0  0  0
  2  6  1  0  0  0  0
  3  2  1  0  0  0  0
  4  3  1  0  0  0  0
  4  5  1  0  0  0  0
  5 12  1  6  0  0  0
  5 36  1  0  0  0  0
  5  1  1  0  0  0  0
  8  3  1  0  0  0  0
  9  3  1  0  0  0  0
 10  4  1  0  0  0  0
 11  4  1  0  0  0  0
 13 14  1  0  0  0  0
 13 25  1  0  0  0  0
 14 26  1  0  0  0  0
 15 27  1  0  0  0  0
 15 14  2  0  0  0  0
 16 15  1  0  0  0  0
 17 16  2  0  0  0  0
 17 18  1  0  0  0  0
 18 13  2  0  0  0  0
 19 20  1  0  0  0  0
 19 17  1  0  0  0  0
 20 29  1  0  0  0  0
 21 20  1  0  0  0  0
 21 30  1  0  0  0  0
 22 32  1  0  0  0  0
 22 21  1  0  0  0  0
 23 24  1  0  0  0  0
 23 34  1  0  0  0  0
 23 22  1  0  0  0  0
 24 35  1  1  0  0  0
 24 19  1  0  0  0  0
 28 20  1  0  0  0  0
 31 21  1  0  0  0  0
 33 23  1  0  0  0  0
 36 37  1  0  0  0  0
 37 38  1  0  0  0  0
 39 37  2  0  0  0  0
 40 39  1  0  0  0  0
 41 42  1  0  0  0  0
 41 40  2  0  0  0  0
 43 41  1  0  0  0  0
 44 43  2  0  0  0  0
 44 46  1  0  0  0  0
 45 44  1  0  0  0  0
 46 47  2  0  0  0  0
 47 40  1  0  0  0  0
 47 36  1  0  0  0  0
M  END
>  <minimizedAffinity>
-4.80694771

>  <minimizedRMSD>
0.595426977

$$$$
