
 OpenBabel03272501483D

 23 25  0  0  0  0  0  0  0  0999 V2000
   37.7770   32.6100   49.5650 C   0  0  0  0  0  0  0  0  0  0  0  0
   38.4410   32.9080   48.3710 C   0  0  0  0  0  0  0  0  0  0  0  0
   38.2810   32.0040   47.2940 C   0  0  0  0  0  0  0  0  0  0  0  0
   37.4900   30.9040   47.4940 N   0  0  0  0  0  0  0  0  0  0  0  0
   36.8780   30.6710   48.6610 C   0  0  0  0  0  0  0  0  0  0  0  0
   37.0110   31.5190   49.7140 N   0  0  0  0  0  0  0  0  0  0  0  0
   36.0900   29.4920   48.7240 N   0  0  0  0  0  0  0  0  0  0  0  0
   37.8500   33.2470   50.4270 H   0  0  0  0  0  0  0  0  0  0  0  0
   39.0490   33.7940   48.2840 H   0  0  0  0  0  0  0  0  0  0  0  0
   36.1440   28.6460   49.3280 H   0  0  0  0  0  0  0  0  0  0  0  0
   35.2940   29.4730   48.0190 H   0  0  0  0  0  0  0  0  0  0  0  0
   38.9360   32.2620   46.0580 N   0  0  0  0  0  0  0  0  0  0  0  0
   40.2920   32.3930   46.0470 C   0  0  0  0  0  0  0  0  0  0  0  0
   41.0170   32.3360   46.8420 H   0  0  0  0  0  0  0  0  0  0  0  0
   40.7300   32.6320   44.7980 N   0  0  0  0  0  0  0  0  0  0  0  0
   39.6520   32.6560   43.9970 C   0  0  0  0  0  0  0  0  0  0  0  0
   39.3680   32.8430   42.6420 C   0  0  0  0  0  0  0  0  0  0  0  0
   40.2240   33.0270   41.9920 H   0  0  0  0  0  0  0  0  0  0  0  0
   38.0930   32.7910   42.2100 N   0  0  0  0  0  0  0  0  0  0  0  0
   37.0530   32.5630   43.0220 C   0  0  0  0  0  0  0  0  0  0  0  0
   36.1060   32.5490   42.5410 H   0  0  0  0  0  0  0  0  0  0  0  0
   37.2660   32.3730   44.3540 N   0  0  0  0  0  0  0  0  0  0  0  0
   38.5410   32.4260   44.7810 C   0  0  0  0  0  0  0  0  0  0  0  0
  1  6  1  0  0  0  0
  1  8  1  0  0  0  0
  2  1  2  0  0  0  0
  3  4  2  0  0  0  0
  3  2  1  0  0  0  0
  4  5  1  0  0  0  0
  5  7  1  0  0  0  0
  5  6  2  0  0  0  0
  7 10  1  0  0  0  0
  9  2  1  0  0  0  0
 11  7  1  0  0  0  0
 12  3  1  0  0  0  0
 13 12  1  0  0  0  0
 13 14  1  0  0  0  0
 15 13  2  0  0  0  0
 16 23  1  0  0  0  0
 16 15  1  0  0  0  0
 17 16  2  0  0  0  0
 18 17  1  0  0  0  0
 19 17  1  0  0  0  0
 19 20  2  0  0  0  0
 20 22  1  0  0  0  0
 21 20  1  0  0  0  0
 22 23  2  0  0  0  0
 23 12  1  0  0  0  0
M  END
>  <minimizedAffinity>
-5.26237631

>  <minimizedRMSD>
2.45671248

$$$$
