
 OpenBabel03272505263D

 34 37  0  0  0  0  0  0  0  0999 V2000
   37.4330   31.0510   47.1190 N   0  0  0  0  0  0  0  0  0  0  0  0
   36.8920   30.6720   45.9290 C   0  0  0  0  0  0  0  0  0  0  0  0
   37.3830   31.1290   44.7150 C   0  0  0  0  0  0  0  0  0  0  0  0
   38.4720   32.0090   44.7560 C   0  0  0  0  0  0  0  0  0  0  0  0
   38.9550   32.4520   43.6880 O   0  0  0  0  0  0  0  0  0  0  0  0
   39.0170   32.3920   45.9510 N   0  0  0  0  0  0  0  0  0  0  0  0
   38.4560   31.8840   47.0540 C   0  0  0  0  0  0  0  0  0  0  0  0
   38.9770   32.2550   48.1280 O   0  0  0  0  0  0  0  0  0  0  0  0
   36.0430   29.9820   45.9510 H   0  0  0  0  0  0  0  0  0  0  0  0
   36.8150   30.7310   43.4700 N   0  0  0  0  0  0  0  0  0  0  0  0
   35.7470   31.2910   42.8760 C   0  0  0  0  0  0  0  0  0  0  0  0
   35.1690   32.1240   43.2630 H   0  0  0  0  0  0  0  0  0  0  0  0
   35.4690   30.6930   41.7290 N   0  0  0  0  0  0  0  0  0  0  0  0
   36.3590   29.7050   41.5240 C   0  0  0  0  0  0  0  0  0  0  0  0
   36.5410   28.7820   40.5190 C   0  0  0  0  0  0  0  0  0  0  0  0
   35.8610   28.7880   39.6750 H   0  0  0  0  0  0  0  0  0  0  0  0
   37.5630   27.9240   40.6580 N   0  0  0  0  0  0  0  0  0  0  0  0
   38.3990   27.9350   41.7200 C   0  0  0  0  0  0  0  0  0  0  0  0
   39.2240   27.2100   41.7870 H   0  0  0  0  0  0  0  0  0  0  0  0
   38.2090   28.8550   42.7120 N   0  0  0  0  0  0  0  0  0  0  0  0
   37.1980   29.7470   42.6340 C   0  0  0  0  0  0  0  0  0  0  0  0
   37.2120   29.5010   50.4840 C   0  0  0  0  0  0  0  0  0  0  0  0
   37.7190   29.9670   49.2650 C   0  0  0  0  0  0  0  0  0  0  0  0
   36.9220   30.5790   48.3330 C   0  0  0  0  0  0  0  0  0  0  0  0
   35.6050   30.7230   48.6270 N   0  0  0  0  0  0  0  0  0  0  0  0
   35.0810   30.2780   49.8030 C   0  0  0  0  0  0  0  0  0  0  0  0
   35.8780   29.6720   50.7270 N   0  0  0  0  0  0  0  0  0  0  0  0
   37.7660   29.0170   51.2560 H   0  0  0  0  0  0  0  0  0  0  0  0
   38.7700   29.7540   49.2110 H   0  0  0  0  0  0  0  0  0  0  0  0
   34.0280   30.4480   49.9210 H   0  0  0  0  0  0  0  0  0  0  0  0
   40.1430   33.3000   45.9940 C   0  0  0  0  0  0  0  0  0  0  0  0
   39.9810   34.2800   45.0590 F   0  0  0  0  0  0  0  0  0  0  0  0
   41.3480   32.6790   45.7140 F   0  0  0  0  0  0  0  0  0  0  0  0
   40.1850   33.9050   47.2440 F   0  0  0  0  0  0  0  0  0  0  0  0
  1 24  1  0  0  0  0
  2  9  1  0  0  0  0
  2  1  1  0  0  0  0
  3  4  1  0  0  0  0
  3  2  2  0  0  0  0
  4  6  1  0  0  0  0
  5  4  2  0  0  0  0
  6 31  1  0  0  0  0
  6  7  1  0  0  0  0
  7  1  1  0  0  0  0
  7  8  2  0  0  0  0
 10  3  1  0  0  0  0
 11 12  1  0  0  0  0
 11 10  1  0  0  0  0
 13 11  2  0  0  0  0
 14 13  1  0  0  0  0
 14 21  1  0  0  0  0
 15 17  1  0  0  0  0
 15 14  2  0  0  0  0
 16 15  1  0  0  0  0
 17 18  2  0  0  0  0
 18 19  1  0  0  0  0
 18 20  1  0  0  0  0
 21 20  2  0  0  0  0
 21 10  1  0  0  0  0
 22 27  1  0  0  0  0
 22 28  1  0  0  0  0
 23 22  2  0  0  0  0
 24 25  2  0  0  0  0
 24 23  1  0  0  0  0
 25 26  1  0  0  0  0
 26 30  1  0  0  0  0
 26 27  2  0  0  0  0
 29 23  1  0  0  0  0
 31 34  1  0  0  0  0
 32 31  1  0  0  0  0
 33 31  1  0  0  0  0
M  END
>  <minimizedAffinity>
-6.25236177

>  <minimizedRMSD>
1.44773674

$$$$
