
 OpenBabel03272500293D

 31 34  0  0  0  0  0  0  0  0999 V2000
   36.5830   30.0410   46.1240 Cl  0  0  0  0  0  0  0  0  0  0  0  0
   36.7930   30.4020   47.8230 C   0  0  0  0  0  0  0  0  0  0  0  0
   37.9180   31.1370   48.1640 C   0  0  0  0  0  0  0  0  0  0  0  0
   38.1090   31.4390   49.5200 C   0  0  0  0  0  0  0  0  0  0  0  0
   37.1850   31.0000   50.4400 C   0  0  0  0  0  0  0  0  0  0  0  0
   36.0900   30.2740   50.0290 C   0  0  0  0  0  0  0  0  0  0  0  0
   35.8500   29.9480   48.7170 C   0  0  0  0  0  0  0  0  0  0  0  0
   38.9720   32.0110   49.8330 H   0  0  0  0  0  0  0  0  0  0  0  0
   37.3070   31.2170   51.4800 H   0  0  0  0  0  0  0  0  0  0  0  0
   35.3750   29.9390   50.7780 H   0  0  0  0  0  0  0  0  0  0  0  0
   34.7410   29.2050   48.2500 N   0  0  0  0  0  0  0  0  0  0  0  0
   34.5350   27.9200   48.5930 C   0  0  0  0  0  0  0  0  0  0  0  0
   35.1370   27.2920   49.2310 H   0  0  0  0  0  0  0  0  0  0  0  0
   33.3840   27.5440   47.9620 N   0  0  0  0  0  0  0  0  0  0  0  0
   32.9180   28.5970   47.2560 C   0  0  0  0  0  0  0  0  0  0  0  0
   31.7790   28.6990   46.4540 C   0  0  0  0  0  0  0  0  0  0  0  0
   31.1320   27.8230   46.3480 H   0  0  0  0  0  0  0  0  0  0  0  0
   31.5130   29.8800   45.8340 N   0  0  0  0  0  0  0  0  0  0  0  0
   32.4010   30.8910   46.0510 C   0  0  0  0  0  0  0  0  0  0  0  0
   32.1140   31.7960   45.5210 H   0  0  0  0  0  0  0  0  0  0  0  0
   33.5160   30.8340   46.8200 N   0  0  0  0  0  0  0  0  0  0  0  0
   33.7830   29.6770   47.4310 C   0  0  0  0  0  0  0  0  0  0  0  0
   40.0530   33.3510   46.2020 C   0  0  0  0  0  0  0  0  0  0  0  0
   40.6550   32.5120   45.2630 C   0  0  0  0  0  0  0  0  0  0  0  0
   40.3070   31.1520   45.3200 C   0  0  0  0  0  0  0  0  0  0  0  0
   39.4190   30.7260   46.2670 N   0  0  0  0  0  0  0  0  0  0  0  0
   38.8690   31.5800   47.1470 C   0  0  0  0  0  0  0  0  0  0  0  0
   39.1900   32.8880   47.1080 N   0  0  0  0  0  0  0  0  0  0  0  0
   40.3550   34.3860   46.1150 H   0  0  0  0  0  0  0  0  0  0  0  0
   41.3510   32.7360   44.4920 H   0  0  0  0  0  0  0  0  0  0  0  0
   40.6440   30.3260   44.7010 H   0  0  0  0  0  0  0  0  0  0  0  0
  1  2  1  0  0  0  0
  2  3  2  0  0  0  0
  2  7  1  0  0  0  0
  3  4  1  0  0  0  0
  4  8  1  0  0  0  0
  4  5  2  0  0  0  0
  5  9  1  0  0  0  0
  6  5  1  0  0  0  0
  6 10  1  0  0  0  0
  7  6  2  0  0  0  0
 11 12  1  0  0  0  0
 11  7  1  0  0  0  0
 12 13  1  0  0  0  0
 14 12  2  0  0  0  0
 15 22  1  0  0  0  0
 15 14  1  0  0  0  0
 16 15  2  0  0  0  0
 17 16  1  0  0  0  0
 18 19  2  0  0  0  0
 18 16  1  0  0  0  0
 19 21  1  0  0  0  0
 20 19  1  0  0  0  0
 21 22  2  0  0  0  0
 22 11  1  0  0  0  0
 23 28  1  0  0  0  0
 24 25  1  0  0  0  0
 24 23  2  0  0  0  0
 25 26  2  0  0  0  0
 26 27  1  0  0  0  0
 27  3  1  0  0  0  0
 28 27  2  0  0  0  0
 29 23  1  0  0  0  0
 30 24  1  0  0  0  0
 31 25  1  0  0  0  0
M  END
>  <minimizedAffinity>
-6.15675974

>  <minimizedRMSD>
0.537539601

$$$$
