
 OpenBabel03272508363D

 47 51  0  0  1  0  0  0  0  0999 V2000
   40.1060   31.3340   43.0280 N   0  0  0  0  0  0  0  0  0  0  0  0
   39.5910   32.5480   42.5430 C   0  0  0  0  0  0  0  0  0  0  0  0
   38.1730   32.5430   42.1060 C   0  0  0  0  0  0  0  0  0  0  0  0
   37.8180   31.3800   41.4080 O   0  0  0  0  0  0  0  0  0  0  0  0
   38.1250   30.2700   42.1350 C   0  0  0  0  0  0  0  0  0  0  0  0
   39.5730   30.1910   42.4340 C   0  0  1  0  0  0  0  0  0  0  0  0
   39.8710   33.4890   42.9750 H   0  0  0  0  0  0  0  0  0  0  0  0
   40.1990   32.6070   41.5760 H   0  0  0  0  0  0  0  0  0  0  0  0
   37.4180   33.0300   42.6850 H   0  0  0  0  0  0  0  0  0  0  0  0
   38.1620   33.2740   41.2060 H   0  0  0  0  0  0  0  0  0  0  0  0
   37.9830   29.4480   41.3810 H   0  0  0  0  0  0  0  0  0  0  0  0
   37.4340   29.9670   42.9140 H   0  0  0  0  0  0  0  0  0  0  0  0
   39.6690   29.3610   43.1990 H   0  0  0  0  0  0  0  0  0  0  0  0
   40.3740   29.7210   41.3060 N   0  0  0  0  0  0  0  0  0  0  0  0
   41.2530   30.4500   40.5880 C   0  0  0  0  0  0  0  0  0  0  0  0
   41.5220   31.4870   40.7080 H   0  0  0  0  0  0  0  0  0  0  0  0
   41.8230   29.7100   39.6120 N   0  0  0  0  0  0  0  0  0  0  0  0
   41.3120   28.4800   39.6890 C   0  0  0  0  0  0  0  0  0  0  0  0
   41.4840   27.2970   38.9930 C   0  0  0  0  0  0  0  0  0  0  0  0
   42.1780   27.2730   38.1750 H   0  0  0  0  0  0  0  0  0  0  0  0
   40.7830   26.1790   39.3410 N   0  0  0  0  0  0  0  0  0  0  0  0
   39.9230   26.2120   40.3570 C   0  0  0  0  0  0  0  0  0  0  0  0
   39.3870   25.2950   40.5960 H   0  0  0  0  0  0  0  0  0  0  0  0
   39.7340   27.3630   41.0610 N   0  0  0  0  0  0  0  0  0  0  0  0
   40.4250   28.4860   40.7270 C   0  0  0  0  0  0  0  0  0  0  0  0
   40.5330   31.2950   44.3580 C   0  0  0  0  0  0  0  0  0  0  0  0
   41.6550   31.2960   44.3460 H   0  0  0  0  0  0  0  0  0  0  0  0
   40.2980   30.2570   44.7440 H   0  0  0  0  0  0  0  0  0  0  0  0
   39.9700   32.2510   45.2890 C   0  0  0  0  0  0  0  0  0  0  0  0
   39.5940   33.2250   45.0070 H   0  0  0  0  0  0  0  0  0  0  0  0
   40.8010   32.5130   46.0180 H   0  0  0  0  0  0  0  0  0  0  0  0
   37.7710   30.8570   47.7630 C   0  0  0  0  0  0  0  0  0  0  0  0
   36.9660   30.8050   46.6420 C   0  0  0  0  0  0  0  0  0  0  0  0
   37.7130   31.3270   45.5790 C   0  0  0  0  0  0  0  0  0  0  0  0
   38.9010   31.6620   46.0840 N   0  0  0  0  0  0  0  0  0  0  0  0
   38.9380   31.3820   47.3890 N   0  0  0  0  0  0  0  0  0  0  0  0
   35.9290   30.4190   46.6150 H   0  0  0  0  0  0  0  0  0  0  0  0
   37.2340   31.3480   44.6710 H   0  0  0  0  0  0  0  0  0  0  0  0
   37.4450   30.1940   51.4470 C   0  0  0  0  0  0  0  0  0  0  0  0
   37.9730   30.7000   50.2570 C   0  0  0  0  0  0  0  0  0  0  0  0
   37.3420   30.4050   49.0600 C   0  0  0  0  0  0  0  0  0  0  0  0
   36.2350   29.6250   49.1610 N   0  0  0  0  0  0  0  0  0  0  0  0
   35.7410   29.1470   50.3220 C   0  0  0  0  0  0  0  0  0  0  0  0
   36.3540   29.4380   51.4570 N   0  0  0  0  0  0  0  0  0  0  0  0
   37.9900   30.4640   52.3590 H   0  0  0  0  0  0  0  0  0  0  0  0
   38.8500   31.3120   50.2130 H   0  0  0  0  0  0  0  0  0  0  0  0
   34.8510   28.5310   50.3160 H   0  0  0  0  0  0  0  0  0  0  0  0
  1 26  1  0  0  0  0
  2  7  1  0  0  0  0
  2  1  1  0  0  0  0
  3  2  1  0  0  0  0
  3  9  1  0  0  0  0
  4  3  1  0  0  0  0
  4  5  1  0  0  0  0
  5  6  1  0  0  0  0
  5 12  1  0  0  0  0
  6  1  1  0  0  0  0
  6 13  1  1  0  0  0
  8  2  1  0  0  0  0
 10  3  1  0  0  0  0
 11  5  1  0  0  0  0
 14  6  1  0  0  0  0
 15 16  1  0  0  0  0
 15 14  1  0  0  0  0
 17 18  1  0  0  0  0
 17 15  2  0  0  0  0
 18 25  1  0  0  0  0
 19 21  1  0  0  0  0
 19 18  2  0  0  0  0
 20 19  1  0  0  0  0
 21 22  2  0  0  0  0
 22 23  1  0  0  0  0
 22 24  1  0  0  0  0
 25 24  2  0  0  0  0
 25 14  1  0  0  0  0
 26 28  1  0  0  0  0
 26 29  1  0  0  0  0
 27 26  1  0  0  0  0
 29 31  1  0  0  0  0
 29 35  1  0  0  0  0
 30 29  1  0  0  0  0
 32 41  1  0  0  0  0
 33 32  1  0  0  0  0
 34 35  1  0  0  0  0
 34 33  2  0  0  0  0
 35 36  1  0  0  0  0
 36 32  2  0  0  0  0
 37 33  1  0  0  0  0
 38 34  1  0  0  0  0
 39 44  1  0  0  0  0
 39 45  1  0  0  0  0
 40 39  2  0  0  0  0
 41 42  2  0  0  0  0
 41 40  1  0  0  0  0
 42 43  1  0  0  0  0
 43 44  2  0  0  0  0
 46 40  1  0  0  0  0
 47 43  1  0  0  0  0
M  END
>  <minimizedAffinity>
-5.83341312

>  <minimizedRMSD>
2.2582674

$$$$
