
 OpenBabel03272501083D

 43 47  0  0  1  0  0  0  0  0999 V2000
   40.6650   32.0130   44.4270 Cl  0  0  0  0  0  0  0  0  0  0  0  0
   39.1520   31.1590   44.3410 C   0  0  0  0  0  0  0  0  0  0  0  0
   38.2490   31.4850   45.3380 C   0  0  0  0  0  0  0  0  0  0  0  0
   37.0420   30.8040   45.2750 C   0  0  0  0  0  0  0  0  0  0  0  0
   36.7540   29.8740   44.3030 C   0  0  0  0  0  0  0  0  0  0  0  0
   37.6970   29.6020   43.3470 C   0  0  0  0  0  0  0  0  0  0  0  0
   38.9320   30.2380   43.3360 C   0  0  0  0  0  0  0  0  0  0  0  0
   36.2220   30.9320   45.9710 H   0  0  0  0  0  0  0  0  0  0  0  0
   35.8240   29.3290   44.2300 H   0  0  0  0  0  0  0  0  0  0  0  0
   37.5740   28.8820   42.5290 H   0  0  0  0  0  0  0  0  0  0  0  0
   39.9810   30.0330   42.3930 N   0  0  0  0  0  0  0  0  0  0  0  0
   41.0750   29.2550   42.4780 C   0  0  0  0  0  0  0  0  0  0  0  0
   41.3320   28.6310   43.3330 H   0  0  0  0  0  0  0  0  0  0  0  0
   41.7480   29.4140   41.3250 N   0  0  0  0  0  0  0  0  0  0  0  0
   41.0890   30.2750   40.5340 C   0  0  0  0  0  0  0  0  0  0  0  0
   41.3330   30.7860   39.2570 C   0  0  0  0  0  0  0  0  0  0  0  0
   42.2220   30.4730   38.7210 H   0  0  0  0  0  0  0  0  0  0  0  0
   40.4850   31.6690   38.6630 N   0  0  0  0  0  0  0  0  0  0  0  0
   39.3910   32.0340   39.3580 C   0  0  0  0  0  0  0  0  0  0  0  0
   38.6120   32.7280   39.0340 H   0  0  0  0  0  0  0  0  0  0  0  0
   39.1240   31.5620   40.5900 N   0  0  0  0  0  0  0  0  0  0  0  0
   39.9390   30.6840   41.2170 C   0  0  0  0  0  0  0  0  0  0  0  0
   38.2970   32.3430   46.3780 O   0  0  0  0  0  0  0  0  0  0  0  0
   39.0220   32.4890   47.5120 C   0  0  2  0  0  0  0  0  0  0  0  0
   38.1240   32.8000   48.7490 C   0  0  2  0  0  0  0  0  0  0  0  0
   39.0620   33.5290   49.5900 C   0  0  0  0  0  0  0  0  0  0  0  0
   39.8690   34.3010   48.7680 O   0  0  0  0  0  0  0  0  0  0  0  0
   39.7060   33.8870   47.4850 C   0  0  0  0  0  0  0  0  0  0  0  0
   39.7740   31.7520   47.7820 H   0  0  0  0  0  0  0  0  0  0  0  0
   37.3400   33.4740   48.3430 H   0  0  0  0  0  0  0  0  0  0  0  0
   39.7370   32.9410   50.2160 H   0  0  0  0  0  0  0  0  0  0  0  0
   38.4980   34.2330   50.2450 H   0  0  0  0  0  0  0  0  0  0  0  0
   40.6960   33.7750   46.9880 H   0  0  0  0  0  0  0  0  0  0  0  0
   39.0730   34.5370   46.8570 H   0  0  0  0  0  0  0  0  0  0  0  0
   37.4240   29.7200   50.7900 C   0  0  0  0  0  0  0  0  0  0  0  0
   38.1010   30.8820   50.3250 C   0  0  0  0  0  0  0  0  0  0  0  0
   37.4870   31.6180   49.2730 C   0  0  0  0  0  0  0  0  0  0  0  0
   36.2880   31.1810   48.7610 N   0  0  0  0  0  0  0  0  0  0  0  0
   35.6930   30.0810   49.2320 C   0  0  0  0  0  0  0  0  0  0  0  0
   36.2420   29.3460   50.2370 N   0  0  0  0  0  0  0  0  0  0  0  0
   37.8960   29.1670   51.5880 H   0  0  0  0  0  0  0  0  0  0  0  0
   39.0430   31.1790   50.7670 H   0  0  0  0  0  0  0  0  0  0  0  0
   34.7640   29.6730   48.8920 H   0  0  0  0  0  0  0  0  0  0  0  0
  2  1  1  0  0  0  0
  2  3  1  0  0  0  0
  3 23  1  0  0  0  0
  4  3  2  0  0  0  0
  4  8  1  0  0  0  0
  5  4  1  0  0  0  0
  6  5  2  0  0  0  0
  7  6  1  0  0  0  0
  7  2  2  0  0  0  0
  9  5  1  0  0  0  0
 10  6  1  0  0  0  0
 11 12  1  0  0  0  0
 11  7  1  0  0  0  0
 12 13  1  0  0  0  0
 14 12  2  0  0  0  0
 15 22  1  0  0  0  0
 15 14  1  0  0  0  0
 16 15  2  0  0  0  0
 17 16  1  0  0  0  0
 18 16  1  0  0  0  0
 18 19  2  0  0  0  0
 19 21  1  0  0  0  0
 20 19  1  0  0  0  0
 21 22  2  0  0  0  0
 22 11  1  0  0  0  0
 23 24  1  0  0  0  0
 24 29  1  1  0  0  0
 24 25  1  0  0  0  0
 25 30  1  6  0  0  0
 25 37  1  0  0  0  0
 25 26  1  0  0  0  0
 26 31  1  0  0  0  0
 26 32  1  0  0  0  0
 27 26  1  0  0  0  0
 28 24  1  0  0  0  0
 28 27  1  0  0  0  0
 33 28  1  0  0  0  0
 34 28  1  0  0  0  0
 35 41  1  0  0  0  0
 36 42  1  0  0  0  0
 36 35  1  0  0  0  0
 37 36  2  0  0  0  0
 38 39  2  0  0  0  0
 38 37  1  0  0  0  0
 39 40  1  0  0  0  0
 40 35  2  0  0  0  0
 43 39  1  0  0  0  0
M  END
>  <minimizedAffinity>
-6.35920334

>  <minimizedRMSD>
2.41290283

$$$$
