
 OpenBabel03272506273D

 45 49  0  0  0  0  0  0  0  0999 V2000
   31.2290   29.1050   46.2990 S   0  0  0  0  0  0  0  0  0  0  0  0
   29.9640   26.7740   46.6830 C   0  0  0  0  0  0  0  0  0  0  0  0
   29.6600   25.4760   46.3190 C   0  0  0  0  0  0  0  0  0  0  0  0
   30.1550   24.8500   45.1690 C   0  0  0  0  0  0  0  0  0  0  0  0
   31.0170   25.5900   44.3280 C   0  0  0  0  0  0  0  0  0  0  0  0
   31.3050   26.8700   44.7070 C   0  0  0  0  0  0  0  0  0  0  0  0
   30.8230   27.4750   45.8290 C   0  0  0  0  0  0  0  0  0  0  0  0
   28.9960   24.8830   46.9490 H   0  0  0  0  0  0  0  0  0  0  0  0
   29.8390   23.8130   44.9890 H   0  0  0  0  0  0  0  0  0  0  0  0
   31.3160   24.9930   43.4920 H   0  0  0  0  0  0  0  0  0  0  0  0
   31.9450   27.2390   43.9400 H   0  0  0  0  0  0  0  0  0  0  0  0
   30.0190   27.0190   49.0810 C   0  0  0  0  0  0  0  0  0  0  0  0
   29.3490   27.2700   47.8770 C   0  0  0  0  0  0  0  0  0  0  0  0
   28.1420   27.9770   47.9330 C   0  0  0  0  0  0  0  0  0  0  0  0
   27.6730   28.3880   49.1410 N   0  0  0  0  0  0  0  0  0  0  0  0
   28.3500   28.1290   50.2980 C   0  0  0  0  0  0  0  0  0  0  0  0
   29.5230   27.4440   50.2610 N   0  0  0  0  0  0  0  0  0  0  0  0
   30.9470   26.4800   49.0810 H   0  0  0  0  0  0  0  0  0  0  0  0
   27.9210   28.4840   51.2220 H   0  0  0  0  0  0  0  0  0  0  0  0
   27.3130   28.3150   46.7330 C   0  0  0  0  0  0  0  0  0  0  0  0
   26.0890   28.8630   47.1560 F   0  0  0  0  0  0  0  0  0  0  0  0
   27.8800   29.1540   45.8470 F   0  0  0  0  0  0  0  0  0  0  0  0
   26.9380   27.1390   46.0830 F   0  0  0  0  0  0  0  0  0  0  0  0
   33.0480   28.9550   48.8200 Cl  0  0  0  0  0  0  0  0  0  0  0  0
   33.6960   29.4170   47.2710 C   0  0  0  0  0  0  0  0  0  0  0  0
   32.9390   29.5140   46.1190 C   0  0  0  0  0  0  0  0  0  0  0  0
   33.4960   29.8970   44.9290 C   0  0  0  0  0  0  0  0  0  0  0  0
   34.8650   30.1860   44.9120 C   0  0  0  0  0  0  0  0  0  0  0  0
   35.6370   30.0890   46.0700 C   0  0  0  0  0  0  0  0  0  0  0  0
   35.0620   29.7040   47.2650 C   0  0  0  0  0  0  0  0  0  0  0  0
   33.0040   30.0340   44.0040 H   0  0  0  0  0  0  0  0  0  0  0  0
   35.3940   30.4930   44.0280 H   0  0  0  0  0  0  0  0  0  0  0  0
   36.7020   30.3160   46.0530 H   0  0  0  0  0  0  0  0  0  0  0  0
   35.8760   29.6160   48.4320 N   0  0  0  0  0  0  0  0  0  0  0  0
   35.9670   28.7060   49.4390 C   0  0  0  0  0  0  0  0  0  0  0  0
   35.3420   27.8420   49.4530 H   0  0  0  0  0  0  0  0  0  0  0  0
   36.9210   29.1330   50.2870 N   0  0  0  0  0  0  0  0  0  0  0  0
   37.4260   30.2870   49.8320 C   0  0  0  0  0  0  0  0  0  0  0  0
   38.4200   31.0760   50.3780 C   0  0  0  0  0  0  0  0  0  0  0  0
   38.9300   30.8260   51.3000 H   0  0  0  0  0  0  0  0  0  0  0  0
   38.7460   32.2010   49.7160 N   0  0  0  0  0  0  0  0  0  0  0  0
   38.1170   32.5310   48.5580 C   0  0  0  0  0  0  0  0  0  0  0  0
   38.2990   33.4060   47.9460 H   0  0  0  0  0  0  0  0  0  0  0  0
   37.1510   31.7550   48.0340 N   0  0  0  0  0  0  0  0  0  0  0  0
   36.7760   30.6170   48.6470 C   0  0  0  0  0  0  0  0  0  0  0  0
  2 13  1  0  0  0  0
  3  2  1  0  0  0  0
  3  8  1  0  0  0  0
  4  3  2  0  0  0  0
  5  6  2  0  0  0  0
  5  4  1  0  0  0  0
  6  7  1  0  0  0  0
  7  1  1  0  0  0  0
  7  2  2  0  0  0  0
  9  4  1  0  0  0  0
 10  5  1  0  0  0  0
 11  6  1  0  0  0  0
 12 18  1  0  0  0  0
 12 17  1  0  0  0  0
 13 14  1  0  0  0  0
 13 12  2  0  0  0  0
 14 15  2  0  0  0  0
 15 16  1  0  0  0  0
 16 19  1  0  0  0  0
 17 16  2  0  0  0  0
 20 21  1  0  0  0  0
 20 14  1  0  0  0  0
 22 20  1  0  0  0  0
 23 20  1  0  0  0  0
 25 24  1  0  0  0  0
 26  1  1  0  0  0  0
 26 25  2  0  0  0  0
 27 26  1  0  0  0  0
 28 27  2  0  0  0  0
 28 29  1  0  0  0  0
 29 30  2  0  0  0  0
 30 25  1  0  0  0  0
 30 34  1  0  0  0  0
 31 27  1  0  0  0  0
 32 28  1  0  0  0  0
 33 29  1  0  0  0  0
 34 45  1  0  0  0  0
 34 35  1  0  0  0  0
 35 36  1  0  0  0  0
 35 37  2  0  0  0  0
 38 37  1  0  0  0  0
 38 39  1  0  0  0  0
 39 40  1  0  0  0  0
 41 39  2  0  0  0  0
 42 41  1  0  0  0  0
 43 42  1  0  0  0  0
 44 42  2  0  0  0  0
 44 45  1  0  0  0  0
 45 38  2  0  0  0  0
M  END
>  <minimizedAffinity>
-5.926373

>  <minimizedRMSD>
4.79467297

$$$$
