
 OpenBabel03272501083D

 43 47  0  0  1  0  0  0  0  0999 V2000
   39.8700   31.5430   44.5800 Cl  0  0  0  0  0  0  0  0  0  0  0  0
   38.3060   30.8900   44.1860 C   0  0  0  0  0  0  0  0  0  0  0  0
   37.3770   30.9660   45.2080 C   0  0  0  0  0  0  0  0  0  0  0  0
   36.1290   30.4430   44.8990 C   0  0  0  0  0  0  0  0  0  0  0  0
   35.8280   29.8890   43.6770 C   0  0  0  0  0  0  0  0  0  0  0  0
   36.8000   29.8480   42.7120 C   0  0  0  0  0  0  0  0  0  0  0  0
   38.0760   30.3490   42.9360 C   0  0  0  0  0  0  0  0  0  0  0  0
   35.2840   30.4180   45.5770 H   0  0  0  0  0  0  0  0  0  0  0  0
   34.8670   29.4750   43.4100 H   0  0  0  0  0  0  0  0  0  0  0  0
   36.6700   29.4310   41.7050 H   0  0  0  0  0  0  0  0  0  0  0  0
   39.1570   30.3580   42.0080 N   0  0  0  0  0  0  0  0  0  0  0  0
   39.8750   31.3920   41.5320 C   0  0  0  0  0  0  0  0  0  0  0  0
   39.7230   32.4360   41.8060 H   0  0  0  0  0  0  0  0  0  0  0  0
   40.7790   30.8720   40.6830 N   0  0  0  0  0  0  0  0  0  0  0  0
   40.6300   29.5400   40.6290 C   0  0  0  0  0  0  0  0  0  0  0  0
   41.2880   28.5280   39.9250 C   0  0  0  0  0  0  0  0  0  0  0  0
   42.1030   28.7890   39.2590 H   0  0  0  0  0  0  0  0  0  0  0  0
   40.9340   27.2200   40.0500 N   0  0  0  0  0  0  0  0  0  0  0  0
   39.9180   26.9340   40.8850 C   0  0  0  0  0  0  0  0  0  0  0  0
   39.5080   25.9440   41.1010 H   0  0  0  0  0  0  0  0  0  0  0  0
   39.2610   27.8840   41.5800 N   0  0  0  0  0  0  0  0  0  0  0  0
   39.5800   29.1930   41.4860 C   0  0  0  0  0  0  0  0  0  0  0  0
   37.4300   31.4500   46.4660 O   0  0  0  0  0  0  0  0  0  0  0  0
   37.8130   31.0070   47.6860 C   0  0  2  0  0  0  0  0  0  0  0  0
   36.7000   31.2030   48.7610 C   0  0  2  0  0  0  0  0  0  0  0  0
   37.5040   31.3010   49.9700 C   0  0  0  0  0  0  0  0  0  0  0  0
   38.6720   31.9810   49.6580 O   0  0  0  0  0  0  0  0  0  0  0  0
   38.7890   32.0490   48.3070 C   0  0  0  0  0  0  0  0  0  0  0  0
   38.2590   30.0210   47.7960 H   0  0  0  0  0  0  0  0  0  0  0  0
   36.2490   32.1830   48.4970 H   0  0  0  0  0  0  0  0  0  0  0  0
   37.8110   30.3680   50.4460 H   0  0  0  0  0  0  0  0  0  0  0  0
   36.9610   31.9180   50.7240 H   0  0  0  0  0  0  0  0  0  0  0  0
   39.8230   31.7770   47.9960 H   0  0  0  0  0  0  0  0  0  0  0  0
   38.5360   33.0250   47.8610 H   0  0  0  0  0  0  0  0  0  0  0  0
   34.7360   28.0490   49.3410 C   0  0  0  0  0  0  0  0  0  0  0  0
   35.7740   29.0140   49.4750 C   0  0  0  0  0  0  0  0  0  0  0  0
   35.6770   30.1910   48.6800 C   0  0  0  0  0  0  0  0  0  0  0  0
   34.6050   30.3410   47.8340 N   0  0  0  0  0  0  0  0  0  0  0  0
   33.6570   29.4050   47.7430 C   0  0  0  0  0  0  0  0  0  0  0  0
   33.7050   28.2630   48.4830 N   0  0  0  0  0  0  0  0  0  0  0  0
   34.8150   27.1590   49.9470 H   0  0  0  0  0  0  0  0  0  0  0  0
   36.5940   28.8420   50.1590 H   0  0  0  0  0  0  0  0  0  0  0  0
   32.7930   29.4430   47.1120 H   0  0  0  0  0  0  0  0  0  0  0  0
  2  1  1  0  0  0  0
  2  3  1  0  0  0  0
  3 23  1  0  0  0  0
  4  3  2  0  0  0  0
  4  8  1  0  0  0  0
  5  4  1  0  0  0  0
  6  7  1  0  0  0  0
  6  5  2  0  0  0  0
  7  2  2  0  0  0  0
  9  5  1  0  0  0  0
 10  6  1  0  0  0  0
 11  7  1  0  0  0  0
 12 13  1  0  0  0  0
 12 11  1  0  0  0  0
 14 12  2  0  0  0  0
 15 14  1  0  0  0  0
 15 22  1  0  0  0  0
 16 18  1  0  0  0  0
 16 15  2  0  0  0  0
 17 16  1  0  0  0  0
 18 19  2  0  0  0  0
 19 20  1  0  0  0  0
 19 21  1  0  0  0  0
 22 21  2  0  0  0  0
 22 11  1  0  0  0  0
 23 24  1  0  0  0  0
 24 29  1  6  0  0  0
 24 28  1  0  0  0  0
 24 25  1  0  0  0  0
 25 30  1  6  0  0  0
 25 26  1  0  0  0  0
 26 31  1  0  0  0  0
 26 32  1  0  0  0  0
 27 26  1  0  0  0  0
 28 27  1  0  0  0  0
 33 28  1  0  0  0  0
 34 28  1  0  0  0  0
 35 36  1  0  0  0  0
 35 41  1  0  0  0  0
 36 42  1  0  0  0  0
 37 25  1  0  0  0  0
 37 36  2  0  0  0  0
 38 37  1  0  0  0  0
 39 38  2  0  0  0  0
 39 40  1  0  0  0  0
 40 35  2  0  0  0  0
 43 39  1  0  0  0  0
M  END
>  <minimizedAffinity>
-5.83338642

>  <minimizedRMSD>
2.97197723

$$$$
