
 OpenBabel03272508083D

 27 29  0  0  0  0  0  0  0  0999 V2000
   38.9960   32.8350   48.1380 O   0  0  0  0  0  0  0  0  0  0  0  0
   38.6580   31.7850   47.1240 P   0  0  2  0  0  0  0  0  0  0  0  0
   37.6230   32.4490   45.9400 O   0  0  0  0  0  0  0  0  0  0  0  0
   37.6630   33.4270   45.9970 H   0  0  0  0  0  0  0  0  0  0  0  0
   38.0270   30.3680   47.7630 O   0  0  0  0  0  0  0  0  0  0  0  0
   37.3220   30.2000   51.3920 C   0  0  0  0  0  0  0  0  0  0  0  0
   38.0320   30.5400   50.2360 C   0  0  0  0  0  0  0  0  0  0  0  0
   37.5170   30.1520   49.0090 C   0  0  0  0  0  0  0  0  0  0  0  0
   36.3360   29.4530   48.9850 N   0  0  0  0  0  0  0  0  0  0  0  0
   35.6860   29.1480   50.1310 C   0  0  0  0  0  0  0  0  0  0  0  0
   36.1770   29.5190   51.3240 N   0  0  0  0  0  0  0  0  0  0  0  0
   37.7490   30.5150   52.3220 H   0  0  0  0  0  0  0  0  0  0  0  0
   38.9520   31.0780   50.1830 H   0  0  0  0  0  0  0  0  0  0  0  0
   34.7430   28.5880   50.0710 H   0  0  0  0  0  0  0  0  0  0  0  0
   40.0970   31.4090   46.2990 O   0  0  0  0  0  0  0  0  0  0  0  0
   41.8800   31.1810   44.1620 H   0  0  0  0  0  0  0  0  0  0  0  0
   40.9370   30.7450   44.0680 N   0  0  0  0  0  0  0  0  0  0  0  0
   39.9960   30.7980   45.0460 C   0  0  0  0  0  0  0  0  0  0  0  0
   38.9550   30.1250   44.5190 N   0  0  0  0  0  0  0  0  0  0  0  0
   39.2170   29.6770   43.2950 C   0  0  0  0  0  0  0  0  0  0  0  0
   38.5770   28.9600   42.3020 C   0  0  0  0  0  0  0  0  0  0  0  0
   37.5690   28.6250   42.4870 H   0  0  0  0  0  0  0  0  0  0  0  0
   39.1680   28.6750   41.1330 N   0  0  0  0  0  0  0  0  0  0  0  0
   40.4380   29.1010   40.9050 C   0  0  0  0  0  0  0  0  0  0  0  0
   40.9320   28.8720   39.9490 H   0  0  0  0  0  0  0  0  0  0  0  0
   41.1050   29.8040   41.8410 N   0  0  0  0  0  0  0  0  0  0  0  0
   40.4970   30.0790   43.0050 C   0  0  0  0  0  0  0  0  0  0  0  0
  2  5  1  0  0  0  0
  2  1  2  1  0  0  0
  3  4  1  0  0  0  0
  3  2  1  0  0  0  0
  5  8  1  0  0  0  0
  6 12  1  0  0  0  0
  7  6  2  0  0  0  0
  8  7  1  0  0  0  0
  9  8  2  0  0  0  0
  9 10  1  0  0  0  0
 10 11  2  0  0  0  0
 11  6  1  0  0  0  0
 13  7  1  0  0  0  0
 14 10  1  0  0  0  0
 15  2  1  0  0  0  0
 17 16  1  0  0  0  0
 17 18  1  0  0  0  0
 18 15  1  0  0  0  0
 19 18  2  0  0  0  0
 20 19  1  0  0  0  0
 21 22  1  0  0  0  0
 21 20  2  0  0  0  0
 23 21  1  0  0  0  0
 24 23  2  0  0  0  0
 24 26  1  0  0  0  0
 25 24  1  0  0  0  0
 26 27  2  0  0  0  0
 27 20  1  0  0  0  0
 27 17  1  0  0  0  0
M  END
>  <minimizedAffinity>
-5.73351669

>  <minimizedRMSD>
1.20384157

$$$$
