
 OpenBabel03272507473D

 49 54  0  0  0  0  0  0  0  0999 V2000
   32.1210   28.2730   47.1810 N   0  0  0  0  0  0  0  0  0  0  0  0
   32.4200   27.8080   48.4900 C   0  0  0  0  0  0  0  0  0  0  0  0
   33.6530   28.3350   49.1210 C   0  0  0  0  0  0  0  0  0  0  0  0
   34.8120   28.5160   48.2480 C   0  0  0  0  0  0  0  0  0  0  0  0
   34.4110   28.9470   46.8260 C   0  0  0  0  0  0  0  0  0  0  0  0
   33.2780   28.0140   46.3710 C   0  0  0  0  0  0  0  0  0  0  0  0
   31.5420   28.0190   49.1650 H   0  0  0  0  0  0  0  0  0  0  0  0
   32.5080   26.7020   48.4400 H   0  0  0  0  0  0  0  0  0  0  0  0
   33.3190   29.3810   49.4330 H   0  0  0  0  0  0  0  0  0  0  0  0
   33.8630   27.7830   50.0460 H   0  0  0  0  0  0  0  0  0  0  0  0
   35.3910   27.5700   48.0840 H   0  0  0  0  0  0  0  0  0  0  0  0
   34.0710   29.9800   46.7760 H   0  0  0  0  0  0  0  0  0  0  0  0
   35.2690   28.7250   46.1510 H   0  0  0  0  0  0  0  0  0  0  0  0
   33.0110   28.2330   45.3290 H   0  0  0  0  0  0  0  0  0  0  0  0
   33.6170   26.9610   46.3990 H   0  0  0  0  0  0  0  0  0  0  0  0
   30.9150   28.8840   46.7120 C   0  0  0  0  0  0  0  0  0  0  0  0
   30.7810   29.6490   45.5580 C   0  0  0  0  0  0  0  0  0  0  0  0
   29.5170   30.1560   45.2730 C   0  0  0  0  0  0  0  0  0  0  0  0
   28.4890   29.8820   46.1260 N   0  0  0  0  0  0  0  0  0  0  0  0
   28.6510   29.1400   47.2310 C   0  0  0  0  0  0  0  0  0  0  0  0
   29.8560   28.6460   47.5200 N   0  0  0  0  0  0  0  0  0  0  0  0
   31.6850   29.7700   44.9990 H   0  0  0  0  0  0  0  0  0  0  0  0
   29.4550   30.7400   44.3760 H   0  0  0  0  0  0  0  0  0  0  0  0
   27.5310   28.8930   48.0770 N   0  0  0  0  0  0  0  0  0  0  0  0
   26.2050   29.1060   47.9970 C   0  0  0  0  0  0  0  0  0  0  0  0
   25.9110   29.5820   47.0570 H   0  0  0  0  0  0  0  0  0  0  0  0
   25.6100   28.6610   49.1190 N   0  0  0  0  0  0  0  0  0  0  0  0
   26.5730   28.1630   49.9130 C   0  0  0  0  0  0  0  0  0  0  0  0
   26.4140   27.6020   51.1630 C   0  0  0  0  0  0  0  0  0  0  0  0
   25.4430   27.5130   51.6300 H   0  0  0  0  0  0  0  0  0  0  0  0
   27.5340   27.1560   51.8050 N   0  0  0  0  0  0  0  0  0  0  0  0
   28.7150   27.2930   51.1770 C   0  0  0  0  0  0  0  0  0  0  0  0
   29.6850   26.9780   51.5790 H   0  0  0  0  0  0  0  0  0  0  0  0
   28.9010   27.8390   49.9500 N   0  0  0  0  0  0  0  0  0  0  0  0
   27.8080   28.2990   49.2750 C   0  0  0  0  0  0  0  0  0  0  0  0
   36.0610   29.6050   50.0590 C   0  0  0  0  0  0  0  0  0  0  0  0
   35.7790   29.5450   48.7030 C   0  0  0  0  0  0  0  0  0  0  0  0
   36.3200   30.3910   47.7720 C   0  0  0  0  0  0  0  0  0  0  0  0
   37.2050   31.3670   48.2280 C   0  0  0  0  0  0  0  0  0  0  0  0
   37.4880   31.4340   49.5670 C   0  0  0  0  0  0  0  0  0  0  0  0
   36.9380   30.5730   50.5130 C   0  0  0  0  0  0  0  0  0  0  0  0
   38.3910   32.4750   49.8190 O   0  0  0  0  0  0  0  0  0  0  0  0
   38.8950   32.8360   48.5410 C   0  0  0  0  0  0  0  0  0  0  0  0
   37.9410   32.3830   47.6130 O   0  0  0  0  0  0  0  0  0  0  0  0
   35.7090   28.9920   50.8760 H   0  0  0  0  0  0  0  0  0  0  0  0
   36.0800   30.3130   46.7440 H   0  0  0  0  0  0  0  0  0  0  0  0
   37.2140   30.6860   51.5760 H   0  0  0  0  0  0  0  0  0  0  0  0
   38.9640   33.9590   48.5480 H   0  0  0  0  0  0  0  0  0  0  0  0
   39.9070   32.4340   48.3460 H   0  0  0  0  0  0  0  0  0  0  0  0
  1  2  1  0  0  0  0
  2  3  1  0  0  0  0
  2  7  1  0  0  0  0
  3  9  1  0  0  0  0
  3 10  1  0  0  0  0
  4 37  1  0  0  0  0
  4  3  1  0  0  0  0
  5  4  1  0  0  0  0
  6 15  1  0  0  0  0
  6  5  1  0  0  0  0
  6  1  1  0  0  0  0
  8  2  1  0  0  0  0
 11  4  1  0  0  0  0
 12  5  1  0  0  0  0
 13  5  1  0  0  0  0
 14  6  1  0  0  0  0
 16  1  1  0  0  0  0
 16 21  1  0  0  0  0
 17 16  2  0  0  0  0
 18 17  1  0  0  0  0
 18 19  2  0  0  0  0
 19 20  1  0  0  0  0
 20 21  2  0  0  0  0
 20 24  1  0  0  0  0
 22 17  1  0  0  0  0
 23 18  1  0  0  0  0
 24 35  1  0  0  0  0
 25 24  1  0  0  0  0
 25 27  2  0  0  0  0
 26 25  1  0  0  0  0
 27 28  1  0  0  0  0
 28 29  1  0  0  0  0
 29 30  1  0  0  0  0
 29 31  2  0  0  0  0
 32 33  1  0  0  0  0
 32 31  1  0  0  0  0
 34 32  2  0  0  0  0
 35 28  2  0  0  0  0
 35 34  1  0  0  0  0
 36 41  1  0  0  0  0
 36 45  1  0  0  0  0
 37 36  2  0  0  0  0
 38 39  2  0  0  0  0
 38 37  1  0  0  0  0
 39 40  1  0  0  0  0
 40 42  1  0  0  0  0
 40 41  2  0  0  0  0
 41 47  1  0  0  0  0
 43 48  1  0  0  0  0
 43 42  1  0  0  0  0
 44 39  1  0  0  0  0
 44 43  1  0  0  0  0
 46 38  1  0  0  0  0
 49 43  1  0  0  0  0
M  END
>  <minimizedAffinity>
-8.78233337

>  <minimizedRMSD>
1.39824462

$$$$
