
 OpenBabel03272508083D

 27 29  0  0  0  0  0  0  0  0999 V2000
   39.0270   32.8600   48.1680 O   0  0  0  0  0  0  0  0  0  0  0  0
   38.6820   31.8030   47.1640 P   0  0  2  0  0  0  0  0  0  0  0  0
   37.5950   32.4430   46.0140 O   0  0  0  0  0  0  0  0  0  0  0  0
   37.6130   33.4210   46.0710 H   0  0  0  0  0  0  0  0  0  0  0  0
   38.1060   30.3710   47.8190 O   0  0  0  0  0  0  0  0  0  0  0  0
   37.3110   30.2220   51.4310 C   0  0  0  0  0  0  0  0  0  0  0  0
   38.0470   30.5600   50.2910 C   0  0  0  0  0  0  0  0  0  0  0  0
   37.5660   30.1590   49.0540 C   0  0  0  0  0  0  0  0  0  0  0  0
   36.3920   29.4500   49.0060 N   0  0  0  0  0  0  0  0  0  0  0  0
   35.7160   29.1470   50.1360 C   0  0  0  0  0  0  0  0  0  0  0  0
   36.1730   29.5310   51.3390 N   0  0  0  0  0  0  0  0  0  0  0  0
   37.7110   30.5470   52.3690 H   0  0  0  0  0  0  0  0  0  0  0  0
   38.9640   31.1060   50.2570 H   0  0  0  0  0  0  0  0  0  0  0  0
   34.7790   28.5790   50.0570 H   0  0  0  0  0  0  0  0  0  0  0  0
   40.1040   31.4630   46.2940 O   0  0  0  0  0  0  0  0  0  0  0  0
   41.2480   32.2220   43.8620 H   0  0  0  0  0  0  0  0  0  0  0  0
   40.5860   31.4160   43.8670 N   0  0  0  0  0  0  0  0  0  0  0  0
   39.9750   30.9650   44.9940 C   0  0  0  0  0  0  0  0  0  0  0  0
   39.2260   29.9340   44.5560 N   0  0  0  0  0  0  0  0  0  0  0  0
   39.3530   29.7450   43.2460 C   0  0  0  0  0  0  0  0  0  0  0  0
   38.8610   28.8920   42.2780 C   0  0  0  0  0  0  0  0  0  0  0  0
   38.1670   28.1240   42.5820 H   0  0  0  0  0  0  0  0  0  0  0  0
   39.2190   28.9900   40.9900 N   0  0  0  0  0  0  0  0  0  0  0  0
   40.0930   29.9590   40.6130 C   0  0  0  0  0  0  0  0  0  0  0  0
   40.3930   30.0490   39.5570 H   0  0  0  0  0  0  0  0  0  0  0  0
   40.6010   30.8170   41.5170 N   0  0  0  0  0  0  0  0  0  0  0  0
   40.2310   30.7020   42.8030 C   0  0  0  0  0  0  0  0  0  0  0  0
  2  5  1  0  0  0  0
  2  1  2  1  0  0  0
  3  4  1  0  0  0  0
  3  2  1  0  0  0  0
  5  8  1  0  0  0  0
  6 12  1  0  0  0  0
  7  6  2  0  0  0  0
  8  7  1  0  0  0  0
  9  8  2  0  0  0  0
  9 10  1  0  0  0  0
 10 11  2  0  0  0  0
 11  6  1  0  0  0  0
 13  7  1  0  0  0  0
 14 10  1  0  0  0  0
 15  2  1  0  0  0  0
 16 17  1  0  0  0  0
 17 18  1  0  0  0  0
 18 15  1  0  0  0  0
 19 18  2  0  0  0  0
 20 19  1  0  0  0  0
 21 22  1  0  0  0  0
 21 20  2  0  0  0  0
 23 21  1  0  0  0  0
 24 23  2  0  0  0  0
 24 26  1  0  0  0  0
 25 24  1  0  0  0  0
 26 27  2  0  0  0  0
 27 20  1  0  0  0  0
 27 17  1  0  0  0  0
M  END
>  <minimizedAffinity>
-5.58620453

>  <minimizedRMSD>
1.46637022

$$$$
