
 OpenBabel03272508093D

 27 29  0  0  0  0  0  0  0  0999 V2000
   39.0540   32.7540   48.1160 O   0  0  0  0  0  0  0  0  0  0  0  0
   38.6510   31.7380   47.0910 P   0  0  2  0  0  0  0  0  0  0  0  0
   37.6640   32.4810   45.9120 O   0  0  0  0  0  0  0  0  0  0  0  0
   37.7680   33.4530   45.9790 H   0  0  0  0  0  0  0  0  0  0  0  0
   37.9270   30.3600   47.7130 O   0  0  0  0  0  0  0  0  0  0  0  0
   37.3400   30.1850   51.3640 C   0  0  0  0  0  0  0  0  0  0  0  0
   38.0150   30.5230   50.1860 C   0  0  0  0  0  0  0  0  0  0  0  0
   37.4560   30.1440   48.9750 C   0  0  0  0  0  0  0  0  0  0  0  0
   36.2680   29.4560   48.9880 N   0  0  0  0  0  0  0  0  0  0  0  0
   35.6530   29.1520   50.1530 C   0  0  0  0  0  0  0  0  0  0  0  0
   36.1870   29.5150   51.3310 N   0  0  0  0  0  0  0  0  0  0  0  0
   37.8000   30.4920   52.2800 H   0  0  0  0  0  0  0  0  0  0  0  0
   38.9380   31.0530   50.1040 H   0  0  0  0  0  0  0  0  0  0  0  0
   34.7040   28.6010   50.1220 H   0  0  0  0  0  0  0  0  0  0  0  0
   40.0650   31.2780   46.2660 O   0  0  0  0  0  0  0  0  0  0  0  0
   40.5940   32.7080   43.9260 H   0  0  0  0  0  0  0  0  0  0  0  0
   40.2460   31.7290   43.8390 N   0  0  0  0  0  0  0  0  0  0  0  0
   39.9570   30.9480   44.9110 C   0  0  0  0  0  0  0  0  0  0  0  0
   39.5490   29.7890   44.3570 N   0  0  0  0  0  0  0  0  0  0  0  0
   39.5770   29.8340   43.0280 C   0  0  0  0  0  0  0  0  0  0  0  0
   39.2880   29.0010   41.9660 C   0  0  0  0  0  0  0  0  0  0  0  0
   38.9310   28.0070   42.1810 H   0  0  0  0  0  0  0  0  0  0  0  0
   39.4370   29.3900   40.6920 N   0  0  0  0  0  0  0  0  0  0  0  0
   39.8870   30.6440   40.4250 C   0  0  0  0  0  0  0  0  0  0  0  0
   40.0140   30.9740   39.3830 H   0  0  0  0  0  0  0  0  0  0  0  0
   40.1820   31.4960   41.4270 N   0  0  0  0  0  0  0  0  0  0  0  0
   40.0270   31.0870   42.6960 C   0  0  0  0  0  0  0  0  0  0  0  0
  2  5  1  0  0  0  0
  2  1  2  1  0  0  0
  3  4  1  0  0  0  0
  3  2  1  0  0  0  0
  5  8  1  0  0  0  0
  6 12  1  0  0  0  0
  7  6  2  0  0  0  0
  8  9  2  0  0  0  0
  8  7  1  0  0  0  0
  9 10  1  0  0  0  0
 10 11  2  0  0  0  0
 11  6  1  0  0  0  0
 13  7  1  0  0  0  0
 14 10  1  0  0  0  0
 15  2  1  0  0  0  0
 17 16  1  0  0  0  0
 17 18  1  0  0  0  0
 18 15  1  0  0  0  0
 19 18  2  0  0  0  0
 20 19  1  0  0  0  0
 21 22  1  0  0  0  0
 21 20  2  0  0  0  0
 23 21  1  0  0  0  0
 24 23  2  0  0  0  0
 24 26  1  0  0  0  0
 25 24  1  0  0  0  0
 26 27  2  0  0  0  0
 27 20  1  0  0  0  0
 27 17  1  0  0  0  0
M  END
>  <minimizedAffinity>
-5.5255723

>  <minimizedRMSD>
1.80394423

$$$$
