
 OpenBabel03272506233D

 34 37  0  0  0  0  0  0  0  0999 V2000
   35.6930   29.5040   47.8830 C   0  0  0  0  0  0  0  0  0  0  0  0
   34.5430   28.8060   47.6200 C   0  0  0  0  0  0  0  0  0  0  0  0
   33.9060   28.7720   46.3960 C   0  0  0  0  0  0  0  0  0  0  0  0
   34.4810   29.5130   45.3280 C   0  0  0  0  0  0  0  0  0  0  0  0
   35.6430   30.2170   45.5960 C   0  0  0  0  0  0  0  0  0  0  0  0
   36.2530   30.2300   46.8300 C   0  0  0  0  0  0  0  0  0  0  0  0
   34.0490   28.2190   48.3850 H   0  0  0  0  0  0  0  0  0  0  0  0
   33.0000   28.2110   46.2210 H   0  0  0  0  0  0  0  0  0  0  0  0
   33.9980   29.4960   44.3710 H   0  0  0  0  0  0  0  0  0  0  0  0
   36.1010   30.7930   44.7920 H   0  0  0  0  0  0  0  0  0  0  0  0
   37.4430   30.9460   47.1200 N   0  0  0  0  0  0  0  0  0  0  0  0
   38.6890   30.9390   46.5670 C   0  0  0  0  0  0  0  0  0  0  0  0
   38.8780   30.2630   45.7200 H   0  0  0  0  0  0  0  0  0  0  0  0
   39.4800   31.8170   47.2170 N   0  0  0  0  0  0  0  0  0  0  0  0
   38.7480   32.4050   48.2030 C   0  0  0  0  0  0  0  0  0  0  0  0
   39.1480   33.3610   49.1100 C   0  0  0  0  0  0  0  0  0  0  0  0
   40.1640   33.7300   49.0840 H   0  0  0  0  0  0  0  0  0  0  0  0
   38.1830   33.7560   49.9800 N   0  0  0  0  0  0  0  0  0  0  0  0
   36.9390   33.2190   49.9150 C   0  0  0  0  0  0  0  0  0  0  0  0
   36.2300   33.6060   50.6610 H   0  0  0  0  0  0  0  0  0  0  0  0
   36.5490   32.2860   49.0290 N   0  0  0  0  0  0  0  0  0  0  0  0
   37.4660   31.8550   48.1400 C   0  0  0  0  0  0  0  0  0  0  0  0
   37.6110   29.1330   49.3610 C   0  0  0  0  0  0  0  0  0  0  0  0
   36.2190   29.4230   49.2280 C   0  0  0  0  0  0  0  0  0  0  0  0
   35.4890   29.6010   50.4000 C   0  0  0  0  0  0  0  0  0  0  0  0
   36.1340   29.4920   51.5910 N   0  0  0  0  0  0  0  0  0  0  0  0
   37.4630   29.2150   51.6880 C   0  0  0  0  0  0  0  0  0  0  0  0
   38.1990   29.0370   50.5550 N   0  0  0  0  0  0  0  0  0  0  0  0
   38.2350   28.9840   48.4880 H   0  0  0  0  0  0  0  0  0  0  0  0
   37.8490   29.1560   52.6960 H   0  0  0  0  0  0  0  0  0  0  0  0
   34.0510   29.9030   50.4110 C   0  0  0  0  0  0  0  0  0  0  0  0
   33.5890   29.9830   51.7410 F   0  0  0  0  0  0  0  0  0  0  0  0
   33.6440   31.0140   49.7530 F   0  0  0  0  0  0  0  0  0  0  0  0
   33.3220   28.8160   49.9100 F   0  0  0  0  0  0  0  0  0  0  0  0
  1 24  1  0  0  0  0
  2  1  1  0  0  0  0
  2  7  1  0  0  0  0
  3  2  2  0  0  0  0
  4  5  2  0  0  0  0
  4  3  1  0  0  0  0
  5  6  1  0  0  0  0
  6 11  1  0  0  0  0
  6  1  2  0  0  0  0
  8  3  1  0  0  0  0
  9  4  1  0  0  0  0
 10  5  1  0  0  0  0
 11 22  1  0  0  0  0
 12 11  1  0  0  0  0
 12 14  2  0  0  0  0
 13 12  1  0  0  0  0
 14 15  1  0  0  0  0
 15 16  1  0  0  0  0
 16 18  2  0  0  0  0
 17 16  1  0  0  0  0
 19 18  1  0  0  0  0
 19 20  1  0  0  0  0
 21 19  2  0  0  0  0
 22 15  2  0  0  0  0
 22 21  1  0  0  0  0
 23 28  1  0  0  0  0
 24 23  2  0  0  0  0
 24 25  1  0  0  0  0
 25 31  1  0  0  0  0
 25 26  2  0  0  0  0
 26 27  1  0  0  0  0
 27 30  1  0  0  0  0
 28 27  2  0  0  0  0
 29 23  1  0  0  0  0
 31 32  1  0  0  0  0
 33 31  1  0  0  0  0
 34 31  1  0  0  0  0
M  END
>  <minimizedAffinity>
-3.43206239

>  <minimizedRMSD>
3.76382422

$$$$
