
 OpenBabel03272504093D

 36 39  0  0  0  0  0  0  0  0999 V2000
   37.8480   30.4820   50.1370 C   0  0  0  0  0  0  0  0  0  0  0  0
   37.3110   30.6560   48.8770 C   0  0  0  0  0  0  0  0  0  0  0  0
   35.9720   30.2830   48.6110 C   0  0  0  0  0  0  0  0  0  0  0  0
   35.2580   29.7540   49.6400 N   0  0  0  0  0  0  0  0  0  0  0  0
   35.8300   29.5960   50.8830 C   0  0  0  0  0  0  0  0  0  0  0  0
   37.1210   29.9600   51.1260 N   0  0  0  0  0  0  0  0  0  0  0  0
   34.9990   29.0300   51.9080 N   0  0  0  0  0  0  0  0  0  0  0  0
   38.8660   30.7550   50.3770 H   0  0  0  0  0  0  0  0  0  0  0  0
   34.3900   29.5840   52.5690 H   0  0  0  0  0  0  0  0  0  0  0  0
   34.9460   27.9990   52.0630 H   0  0  0  0  0  0  0  0  0  0  0  0
   38.3590   33.5010   49.0870 Cl  0  0  0  0  0  0  0  0  0  0  0  0
   38.7320   32.4850   47.7410 C   0  0  0  0  0  0  0  0  0  0  0  0
   38.1770   31.2400   47.8280 C   0  0  0  0  0  0  0  0  0  0  0  0
   38.4330   30.3330   46.7740 C   0  0  0  0  0  0  0  0  0  0  0  0
   39.1950   30.6630   45.7050 C   0  0  0  0  0  0  0  0  0  0  0  0
   39.7450   31.9410   45.6480 C   0  0  0  0  0  0  0  0  0  0  0  0
   40.7350   32.4140   44.2930 Cl  0  0  0  0  0  0  0  0  0  0  0  0
   39.5040   32.8180   46.6590 C   0  0  0  0  0  0  0  0  0  0  0  0
   38.0610   29.3180   46.7370 H   0  0  0  0  0  0  0  0  0  0  0  0
   39.4160   30.0020   44.8780 H   0  0  0  0  0  0  0  0  0  0  0  0
   39.9100   33.8330   46.6650 H   0  0  0  0  0  0  0  0  0  0  0  0
   35.4130   30.4850   47.2880 C   0  0  0  0  0  0  0  0  0  0  0  0
   35.0270   31.5460   47.2660 H   0  0  0  0  0  0  0  0  0  0  0  0
   36.0870   30.4200   46.4280 H   0  0  0  0  0  0  0  0  0  0  0  0
   34.2900   29.5560   47.0800 N   0  0  0  0  0  0  0  0  0  0  0  0
   34.2690   28.2600   47.4310 C   0  0  0  0  0  0  0  0  0  0  0  0
   35.0450   27.7040   47.9090 H   0  0  0  0  0  0  0  0  0  0  0  0
   33.0890   27.7150   47.0910 N   0  0  0  0  0  0  0  0  0  0  0  0
   32.3450   28.6670   46.5160 C   0  0  0  0  0  0  0  0  0  0  0  0
   31.0610   28.6180   45.9950 C   0  0  0  0  0  0  0  0  0  0  0  0
   30.4730   27.7050   46.0040 H   0  0  0  0  0  0  0  0  0  0  0  0
   30.6050   29.7760   45.4840 N   0  0  0  0  0  0  0  0  0  0  0  0
   31.3080   30.9200   45.4600 C   0  0  0  0  0  0  0  0  0  0  0  0
   30.8280   31.7890   45.0180 H   0  0  0  0  0  0  0  0  0  0  0  0
   32.5730   30.9690   45.9730 N   0  0  0  0  0  0  0  0  0  0  0  0
   33.1080   29.8410   46.5080 C   0  0  0  0  0  0  0  0  0  0  0  0
  1  8  1  0  0  0  0
  1  6  1  0  0  0  0
  2  1  2  0  0  0  0
  3  2  1  0  0  0  0
  3  4  2  0  0  0  0
  4  5  1  0  0  0  0
  5  6  2  0  0  0  0
  5  7  1  0  0  0  0
  7 10  1  0  0  0  0
  7  9  1  0  0  0  0
 12 13  1  0  0  0  0
 12 11  1  0  0  0  0
 13  2  1  0  0  0  0
 14 13  2  0  0  0  0
 15 14  1  0  0  0  0
 16 15  2  0  0  0  0
 16 18  1  0  0  0  0
 17 16  1  0  0  0  0
 18 21  1  0  0  0  0
 18 12  2  0  0  0  0
 19 14  1  0  0  0  0
 20 15  1  0  0  0  0
 22  3  1  0  0  0  0
 23 22  1  0  0  0  0
 24 22  1  0  0  0  0
 25 22  1  0  0  0  0
 25 26  1  0  0  0  0
 26 27  1  0  0  0  0
 28 26  2  0  0  0  0
 29 28  1  0  0  0  0
 30 31  1  0  0  0  0
 30 29  2  0  0  0  0
 32 30  1  0  0  0  0
 33 32  2  0  0  0  0
 33 35  1  0  0  0  0
 34 33  1  0  0  0  0
 35 36  2  0  0  0  0
 36 29  1  0  0  0  0
 36 25  1  0  0  0  0
M  END
>  <minimizedAffinity>
-6.13251686

>  <minimizedRMSD>
0.951307058

$$$$
