
 OpenBabel03272506273D

 45 49  0  0  0  0  0  0  0  0999 V2000
   32.5540   30.4410   43.6940 S   0  0  0  0  0  0  0  0  0  0  0  0
   31.6190   30.7950   41.2080 C   0  0  0  0  0  0  0  0  0  0  0  0
   31.5160   30.4290   39.8800 C   0  0  0  0  0  0  0  0  0  0  0  0
   32.1760   29.3300   39.3180 C   0  0  0  0  0  0  0  0  0  0  0  0
   33.0000   28.5480   40.1580 C   0  0  0  0  0  0  0  0  0  0  0  0
   33.0880   28.9280   41.4670 C   0  0  0  0  0  0  0  0  0  0  0  0
   32.4410   29.9970   42.0120 C   0  0  0  0  0  0  0  0  0  0  0  0
   30.8870   31.0150   39.2080 H   0  0  0  0  0  0  0  0  0  0  0  0
   32.0120   29.1420   38.2470 H   0  0  0  0  0  0  0  0  0  0  0  0
   33.4400   27.7480   39.6010 H   0  0  0  0  0  0  0  0  0  0  0  0
   33.7570   28.2240   41.9060 H   0  0  0  0  0  0  0  0  0  0  0  0
   29.5870   31.7700   42.0620 C   0  0  0  0  0  0  0  0  0  0  0  0
   30.8980   31.9650   41.6130 C   0  0  0  0  0  0  0  0  0  0  0  0
   31.3990   33.2720   41.5930 C   0  0  0  0  0  0  0  0  0  0  0  0
   30.6000   34.2910   42.0060 N   0  0  0  0  0  0  0  0  0  0  0  0
   29.3240   34.0690   42.4390 C   0  0  0  0  0  0  0  0  0  0  0  0
   28.8230   32.8070   42.4650 N   0  0  0  0  0  0  0  0  0  0  0  0
   29.1660   30.7840   42.0930 H   0  0  0  0  0  0  0  0  0  0  0  0
   28.7440   34.9240   42.7530 H   0  0  0  0  0  0  0  0  0  0  0  0
   32.7780   33.6340   41.1350 C   0  0  0  0  0  0  0  0  0  0  0  0
   32.9500   35.0250   41.2430 F   0  0  0  0  0  0  0  0  0  0  0  0
   33.7880   33.0210   41.7780 F   0  0  0  0  0  0  0  0  0  0  0  0
   32.8880   33.3960   39.7640 F   0  0  0  0  0  0  0  0  0  0  0  0
   32.9810   29.7440   46.6970 Cl  0  0  0  0  0  0  0  0  0  0  0  0
   34.3270   30.1500   45.6690 C   0  0  0  0  0  0  0  0  0  0  0  0
   34.2010   30.4810   44.3330 C   0  0  0  0  0  0  0  0  0  0  0  0
   35.2910   30.8060   43.5730 C   0  0  0  0  0  0  0  0  0  0  0  0
   36.5470   30.7920   44.1920 C   0  0  0  0  0  0  0  0  0  0  0  0
   36.6830   30.4590   45.5400 C   0  0  0  0  0  0  0  0  0  0  0  0
   35.5740   30.1340   46.2970 C   0  0  0  0  0  0  0  0  0  0  0  0
   35.3010   31.1040   42.5600 H   0  0  0  0  0  0  0  0  0  0  0  0
   37.4610   31.0320   43.6800 H   0  0  0  0  0  0  0  0  0  0  0  0
   37.6600   30.4500   46.0180 H   0  0  0  0  0  0  0  0  0  0  0  0
   35.7440   29.7990   47.6710 N   0  0  0  0  0  0  0  0  0  0  0  0
   35.1300   28.9110   48.4980 C   0  0  0  0  0  0  0  0  0  0  0  0
   34.3420   28.2860   48.1410 H   0  0  0  0  0  0  0  0  0  0  0  0
   35.7030   29.0200   49.7100 N   0  0  0  0  0  0  0  0  0  0  0  0
   36.6600   29.9560   49.6590 C   0  0  0  0  0  0  0  0  0  0  0  0
   37.5010   30.3960   50.6640 C   0  0  0  0  0  0  0  0  0  0  0  0
   37.4700   30.0010   51.6710 H   0  0  0  0  0  0  0  0  0  0  0  0
   38.3860   31.3590   50.3470 N   0  0  0  0  0  0  0  0  0  0  0  0
   38.4380   31.8650   49.0880 C   0  0  0  0  0  0  0  0  0  0  0  0
   39.1070   32.6370   48.7260 H   0  0  0  0  0  0  0  0  0  0  0  0
   37.6160   31.4300   48.1180 N   0  0  0  0  0  0  0  0  0  0  0  0
   36.7070   30.4680   48.3660 C   0  0  0  0  0  0  0  0  0  0  0  0
  1 26  1  0  0  0  0
  2 13  1  0  0  0  0
  2  7  1  0  0  0  0
  3  2  2  0  0  0  0
  4  3  1  0  0  0  0
  4  5  2  0  0  0  0
  5  6  1  0  0  0  0
  6 11  1  0  0  0  0
  6  7  2  0  0  0  0
  7  1  1  0  0  0  0
  8  3  1  0  0  0  0
  9  4  1  0  0  0  0
 10  5  1  0  0  0  0
 12 18  1  0  0  0  0
 12 17  1  0  0  0  0
 13 12  2  0  0  0  0
 14 13  1  0  0  0  0
 14 15  2  0  0  0  0
 15 16  1  0  0  0  0
 16 17  2  0  0  0  0
 16 19  1  0  0  0  0
 20 21  1  0  0  0  0
 20 14  1  0  0  0  0
 20 22  1  0  0  0  0
 23 20  1  0  0  0  0
 25 30  1  0  0  0  0
 25 24  1  0  0  0  0
 26 25  2  0  0  0  0
 27 28  2  0  0  0  0
 27 26  1  0  0  0  0
 28 29  1  0  0  0  0
 29 33  1  0  0  0  0
 29 30  2  0  0  0  0
 30 34  1  0  0  0  0
 31 27  1  0  0  0  0
 32 28  1  0  0  0  0
 34 45  1  0  0  0  0
 34 35  1  0  0  0  0
 35 37  2  0  0  0  0
 36 35  1  0  0  0  0
 38 37  1  0  0  0  0
 38 39  1  0  0  0  0
 39 40  1  0  0  0  0
 41 39  2  0  0  0  0
 42 41  1  0  0  0  0
 43 42  1  0  0  0  0
 44 45  1  0  0  0  0
 44 42  2  0  0  0  0
 45 38  2  0  0  0  0
M  END
>  <minimizedAffinity>
-4.57748461

>  <minimizedRMSD>
5.93321514

$$$$
