
 OpenBabel03262521353D

 40 44  0  0  1  0  0  0  0  0999 V2000
   38.4310   31.4520   45.3640 C   0  0  1  0  0  0  0  0  0  0  0  0
   38.8110   32.4210   46.4100 C   0  0  2  0  0  0  0  0  0  0  0  0
   40.2620   32.7710   46.0390 C   0  0  0  0  0  0  0  0  0  0  0  0
   40.7400   31.5500   45.6610 O   0  0  0  0  0  0  0  0  0  0  0  0
   39.7620   30.8220   45.0060 C   0  0  0  0  0  0  0  0  0  0  0  0
   38.0270   31.9550   44.4860 H   0  0  0  0  0  0  0  0  0  0  0  0
   38.2470   33.3540   46.2620 H   0  0  0  0  0  0  0  0  0  0  0  0
   40.3210   33.5580   45.2830 H   0  0  0  0  0  0  0  0  0  0  0  0
   40.7490   33.0560   47.0050 H   0  0  0  0  0  0  0  0  0  0  0  0
   39.8260   29.7490   45.2880 H   0  0  0  0  0  0  0  0  0  0  0  0
   39.9090   30.8280   43.8970 H   0  0  0  0  0  0  0  0  0  0  0  0
   37.5700   32.3560   48.6960 C   0  0  1  0  0  0  0  0  0  0  0  0
   38.7840   33.1110   48.8430 C   0  0  0  0  0  0  0  0  0  0  0  0
   38.7700   31.9370   47.8440 C   0  0  2  0  0  0  0  0  0  0  0  0
   36.7350   32.7940   48.0760 H   0  0  0  0  0  0  0  0  0  0  0  0
   38.9230   34.1280   48.4810 H   0  0  0  0  0  0  0  0  0  0  0  0
   39.3900   32.9140   49.7750 H   0  0  0  0  0  0  0  0  0  0  0  0
   39.3330   31.0440   48.1170 H   0  0  0  0  0  0  0  0  0  0  0  0
   35.5500   29.6990   50.3880 C   0  0  0  0  0  0  0  0  0  0  0  0
   35.9190   30.6710   49.4610 C   0  0  0  0  0  0  0  0  0  0  0  0
   37.1350   31.3080   49.6410 C   0  0  0  0  0  0  0  0  0  0  0  0
   37.9130   30.9490   50.7200 N   0  0  0  0  0  0  0  0  0  0  0  0
   37.5330   30.0050   51.6040 C   0  0  0  0  0  0  0  0  0  0  0  0
   36.3320   29.3640   51.4410 N   0  0  0  0  0  0  0  0  0  0  0  0
   34.5900   29.2100   50.2300 H   0  0  0  0  0  0  0  0  0  0  0  0
   35.2480   30.8920   48.6420 H   0  0  0  0  0  0  0  0  0  0  0  0
   38.2070   29.7880   52.4210 H   0  0  0  0  0  0  0  0  0  0  0  0
   37.5360   30.4870   45.7890 O   0  0  0  0  0  0  0  0  0  0  0  0
   35.0210   30.1040   47.0650 H   0  0  0  0  0  0  0  0  0  0  0  0
   35.0630   30.2780   46.0500 N   0  0  0  0  0  0  0  0  0  0  0  0
   36.1970   30.4720   45.3500 C   0  0  0  0  0  0  0  0  0  0  0  0
   35.8120   30.6650   44.0650 N   0  0  0  0  0  0  0  0  0  0  0  0
   34.4610   30.5890   43.9780 C   0  0  0  0  0  0  0  0  0  0  0  0
   33.6120   30.7120   42.9140 C   0  0  0  0  0  0  0  0  0  0  0  0
   33.9800   30.9060   41.9190 H   0  0  0  0  0  0  0  0  0  0  0  0
   32.2980   30.5900   43.1220 N   0  0  0  0  0  0  0  0  0  0  0  0
   31.8070   30.3470   44.3620 C   0  0  0  0  0  0  0  0  0  0  0  0
   30.7410   30.2690   44.3970 H   0  0  0  0  0  0  0  0  0  0  0  0
   32.6620   30.2260   45.4110 N   0  0  0  0  0  0  0  0  0  0  0  0
   33.9990   30.3420   45.2510 C   0  0  0  0  0  0  0  0  0  0  0  0
  1  6  1  6  0  0  0
  1 28  1  0  0  0  0
  1  2  1  0  0  0  0
  2  7  1  6  0  0  0
  2 14  1  0  0  0  0
  3  2  1  0  0  0  0
  3  9  1  0  0  0  0
  4  3  1  0  0  0  0
  5 10  1  0  0  0  0
  5  1  1  0  0  0  0
  5  4  1  0  0  0  0
  8  3  1  0  0  0  0
 11  5  1  0  0  0  0
 12 15  1  6  0  0  0
 12 13  1  0  0  0  0
 12 21  1  0  0  0  0
 13 17  1  0  0  0  0
 14 18  1  1  0  0  0
 14 12  1  0  0  0  0
 14 13  1  0  0  0  0
 16 13  1  0  0  0  0
 19 24  1  0  0  0  0
 20 21  1  0  0  0  0
 20 19  2  0  0  0  0
 21 22  2  0  0  0  0
 22 23  1  0  0  0  0
 23 27  1  0  0  0  0
 24 23  2  0  0  0  0
 25 19  1  0  0  0  0
 26 20  1  0  0  0  0
 30 29  1  0  0  0  0
 31 28  1  0  0  0  0
 31 30  1  0  0  0  0
 32 31  2  0  0  0  0
 33 32  1  0  0  0  0
 33 40  1  0  0  0  0
 34 36  1  0  0  0  0
 34 33  2  0  0  0  0
 35 34  1  0  0  0  0
 36 37  2  0  0  0  0
 37 38  1  0  0  0  0
 37 39  1  0  0  0  0
 40 39  2  0  0  0  0
 40 30  1  0  0  0  0
M  END
>  <minimizedAffinity>
-5.80744171

>  <minimizedRMSD>
1.16994309

$$$$
