
 OpenBabel03262523093D

 23 25  0  0  0  0  0  0  0  0999 V2000
   37.4640   30.2040   50.6950 C   0  0  0  0  0  0  0  0  0  0  0  0
   38.0760   31.2880   49.9970 C   0  0  0  0  0  0  0  0  0  0  0  0
   37.4750   31.6330   48.7720 C   0  0  0  0  0  0  0  0  0  0  0  0
   36.3970   30.9460   48.3410 N   0  0  0  0  0  0  0  0  0  0  0  0
   35.8580   29.9290   49.0400 C   0  0  0  0  0  0  0  0  0  0  0  0
   36.3970   29.5690   50.2080 N   0  0  0  0  0  0  0  0  0  0  0  0
   38.9270   31.7660   50.4260 H   0  0  0  0  0  0  0  0  0  0  0  0
   37.9080   32.4390   48.2270 H   0  0  0  0  0  0  0  0  0  0  0  0
   34.7200   29.1930   48.6000 N   0  0  0  0  0  0  0  0  0  0  0  0
   34.4480   28.0070   49.1720 C   0  0  0  0  0  0  0  0  0  0  0  0
   34.8940   27.4000   49.9490 H   0  0  0  0  0  0  0  0  0  0  0  0
   33.3310   27.5290   48.5770 N   0  0  0  0  0  0  0  0  0  0  0  0
   32.9220   28.4210   47.6420 C   0  0  0  0  0  0  0  0  0  0  0  0
   31.8700   28.5030   46.7220 C   0  0  0  0  0  0  0  0  0  0  0  0
   31.1730   27.6630   46.7140 H   0  0  0  0  0  0  0  0  0  0  0  0
   31.7700   29.5760   45.9170 N   0  0  0  0  0  0  0  0  0  0  0  0
   32.6680   30.5750   45.9840 C   0  0  0  0  0  0  0  0  0  0  0  0
   32.5950   31.4460   45.3370 H   0  0  0  0  0  0  0  0  0  0  0  0
   33.7180   30.5610   46.8560 N   0  0  0  0  0  0  0  0  0  0  0  0
   33.8140   29.4860   47.6570 C   0  0  0  0  0  0  0  0  0  0  0  0
   37.9860   29.7540   51.9630 N   0  0  0  0  0  0  0  0  0  0  0  0
   37.5700   30.2510   52.7820 H   0  0  0  0  0  0  0  0  0  0  0  0
   38.6850   29.0060   51.7550 H   0  0  0  0  0  0  0  0  0  0  0  0
  1 21  1  0  0  0  0
  2  7  1  0  0  0  0
  2  1  2  0  0  0  0
  3  2  1  0  0  0  0
  4  3  2  0  0  0  0
  4  5  1  0  0  0  0
  5  6  2  0  0  0  0
  6  1  1  0  0  0  0
  8  3  1  0  0  0  0
  9  5  1  0  0  0  0
  9 10  1  0  0  0  0
 10 11  1  0  0  0  0
 12 10  2  0  0  0  0
 13 20  1  0  0  0  0
 13 12  1  0  0  0  0
 14 13  2  0  0  0  0
 15 14  1  0  0  0  0
 16 17  2  0  0  0  0
 16 14  1  0  0  0  0
 17 19  1  0  0  0  0
 18 17  1  0  0  0  0
 19 20  2  0  0  0  0
 20  9  1  0  0  0  0
 21 22  1  0  0  0  0
 23 21  1  0  0  0  0
M  END
>  <minimizedAffinity>
-5.28873634

>  <minimizedRMSD>
1.04743612

$$$$
