
 OpenBabel03272506083D

 47 51  0  0  0  0  0  0  0  0999 V2000
   34.9750   28.4410   48.8830 C   0  0  0  0  0  0  0  0  0  0  0  0
   35.8330   28.4450   48.1800 H   0  0  0  0  0  0  0  0  0  0  0  0
   35.1280   27.5620   49.5570 H   0  0  0  0  0  0  0  0  0  0  0  0
   33.6830   28.2480   48.1220 C   0  0  0  0  0  0  0  0  0  0  0  0
   33.7010   28.3650   46.6790 C   0  0  0  0  0  0  0  0  0  0  0  0
   31.9930   28.0610   46.3100 S   0  0  0  0  0  0  0  0  0  0  0  0
   31.4810   27.8210   48.1070 C   0  0  0  0  0  0  0  0  0  0  0  0
   32.5300   27.9830   48.6450 N   0  0  0  0  0  0  0  0  0  0  0  0
   30.1870   27.5220   48.6990 N   0  0  0  0  0  0  0  0  0  0  0  0
   29.2750   26.7880   47.8830 C   0  0  0  0  0  0  0  0  0  0  0  0
   27.8690   26.8000   48.3680 C   0  0  0  0  0  0  0  0  0  0  0  0
   27.6390   27.7790   49.4310 N   0  0  0  0  0  0  0  0  0  0  0  0
   28.6000   27.4170   50.4750 C   0  0  0  0  0  0  0  0  0  0  0  0
   29.9230   27.9820   50.0410 C   0  0  0  0  0  0  0  0  0  0  0  0
   34.5260   28.5730   46.0740 H   0  0  0  0  0  0  0  0  0  0  0  0
   29.6480   25.7660   47.6510 H   0  0  0  0  0  0  0  0  0  0  0  0
   29.2650   27.2960   46.8740 H   0  0  0  0  0  0  0  0  0  0  0  0
   27.1180   27.0580   47.5790 H   0  0  0  0  0  0  0  0  0  0  0  0
   27.6250   25.7740   48.7110 H   0  0  0  0  0  0  0  0  0  0  0  0
   26.6970   27.5520   49.8460 H   0  0  0  0  0  0  0  0  0  0  0  0
   28.2890   27.7120   51.4760 H   0  0  0  0  0  0  0  0  0  0  0  0
   28.7230   26.2990   50.4990 H   0  0  0  0  0  0  0  0  0  0  0  0
   29.8200   29.0900   50.0130 H   0  0  0  0  0  0  0  0  0  0  0  0
   30.7670   27.6840   50.6960 H   0  0  0  0  0  0  0  0  0  0  0  0
   34.9460   29.6910   49.6920 C   0  0  0  0  0  0  0  0  0  0  0  0
   35.1620   29.4840   50.7580 H   0  0  0  0  0  0  0  0  0  0  0  0
   33.9820   30.1860   49.5170 H   0  0  0  0  0  0  0  0  0  0  0  0
   37.4610   32.4220   49.5670 C   0  0  0  0  0  0  0  0  0  0  0  0
   38.0910   32.2210   48.3490 C   0  0  0  0  0  0  0  0  0  0  0  0
   37.6500   31.1480   47.5760 C   0  0  0  0  0  0  0  0  0  0  0  0
   36.6470   30.3600   48.0270 N   0  0  0  0  0  0  0  0  0  0  0  0
   36.0710   30.6120   49.2330 C   0  0  0  0  0  0  0  0  0  0  0  0
   36.4780   31.6230   49.9750 N   0  0  0  0  0  0  0  0  0  0  0  0
   37.8540   33.2690   50.1120 H   0  0  0  0  0  0  0  0  0  0  0  0
   38.8930   32.7720   47.8820 H   0  0  0  0  0  0  0  0  0  0  0  0
   38.1240   30.7230   46.2900 N   0  0  0  0  0  0  0  0  0  0  0  0
   39.4070   30.4680   45.9050 C   0  0  0  0  0  0  0  0  0  0  0  0
   40.2420   30.5720   46.5870 H   0  0  0  0  0  0  0  0  0  0  0  0
   39.3480   30.0980   44.6030 N   0  0  0  0  0  0  0  0  0  0  0  0
   38.0760   30.1150   44.1720 C   0  0  0  0  0  0  0  0  0  0  0  0
   37.4270   29.8430   42.9840 C   0  0  0  0  0  0  0  0  0  0  0  0
   38.0220   29.5310   42.1330 H   0  0  0  0  0  0  0  0  0  0  0  0
   36.0710   29.9670   42.8890 N   0  0  0  0  0  0  0  0  0  0  0  0
   35.3370   30.3600   43.9620 C   0  0  0  0  0  0  0  0  0  0  0  0
   34.2500   30.4370   43.8050 H   0  0  0  0  0  0  0  0  0  0  0  0
   35.9320   30.6350   45.1390 N   0  0  0  0  0  0  0  0  0  0  0  0
   37.2860   30.5120   45.2380 C   0  0  0  0  0  0  0  0  0  0  0  0
  1  3  1  0  0  0  0
  1 25  1  0  0  0  0
  2  1  1  0  0  0  0
  4  8  1  0  0  0  0
  4  1  1  0  0  0  0
  5  4  2  0  0  0  0
  6  5  1  0  0  0  0
  6  7  1  0  0  0  0
  7  8  2  0  0  0  0
  7  9  1  0  0  0  0
  9 14  1  0  0  0  0
 10 11  1  0  0  0  0
 10  9  1  0  0  0  0
 11 19  1  0  0  0  0
 11 12  1  0  0  0  0
 12 20  1  0  0  0  0
 12 13  1  0  0  0  0
 13 22  1  0  0  0  0
 13 21  1  0  0  0  0
 14 13  1  0  0  0  0
 14 24  1  0  0  0  0
 15  5  1  0  0  0  0
 16 10  1  0  0  0  0
 17 10  1  0  0  0  0
 18 11  1  0  0  0  0
 23 14  1  0  0  0  0
 25 26  1  0  0  0  0
 27 25  1  0  0  0  0
 28 33  1  0  0  0  0
 28 34  1  0  0  0  0
 29 28  2  0  0  0  0
 30 31  2  0  0  0  0
 30 29  1  0  0  0  0
 31 32  1  0  0  0  0
 32 25  1  0  0  0  0
 32 33  2  0  0  0  0
 35 29  1  0  0  0  0
 36 30  1  0  0  0  0
 37 36  1  0  0  0  0
 37 38  1  0  0  0  0
 39 37  2  0  0  0  0
 40 39  1  0  0  0  0
 40 47  1  0  0  0  0
 41 40  2  0  0  0  0
 42 41  1  0  0  0  0
 43 41  1  0  0  0  0
 43 44  2  0  0  0  0
 44 46  1  0  0  0  0
 45 44  1  0  0  0  0
 46 47  2  0  0  0  0
 47 36  1  0  0  0  0
M  END
>  <minimizedAffinity>
-6.33909082

>  <minimizedRMSD>
1.25193059

$$$$
