
 OpenBabel03272508093D

 27 29  0  0  0  0  0  0  0  0999 V2000
   38.9550   32.8890   48.1600 O   0  0  0  0  0  0  0  0  0  0  0  0
   38.6500   31.8230   47.1520 P   0  0  2  0  0  0  0  0  0  0  0  0
   37.5850   32.4440   45.9710 O   0  0  0  0  0  0  0  0  0  0  0  0
   37.5900   33.4230   46.0240 H   0  0  0  0  0  0  0  0  0  0  0  0
   38.0740   30.3870   47.8000 O   0  0  0  0  0  0  0  0  0  0  0  0
   37.3150   30.2090   51.4180 C   0  0  0  0  0  0  0  0  0  0  0  0
   38.0400   30.5560   50.2730 C   0  0  0  0  0  0  0  0  0  0  0  0
   37.5460   30.1650   49.0380 C   0  0  0  0  0  0  0  0  0  0  0  0
   36.3710   29.4570   48.9950 N   0  0  0  0  0  0  0  0  0  0  0  0
   35.7060   29.1450   50.1300 C   0  0  0  0  0  0  0  0  0  0  0  0
   36.1760   29.5190   51.3310 N   0  0  0  0  0  0  0  0  0  0  0  0
   37.7250   30.5260   52.3550 H   0  0  0  0  0  0  0  0  0  0  0  0
   38.9560   31.1020   50.2350 H   0  0  0  0  0  0  0  0  0  0  0  0
   34.7690   28.5780   50.0550 H   0  0  0  0  0  0  0  0  0  0  0  0
   40.0970   31.4960   46.3210 O   0  0  0  0  0  0  0  0  0  0  0  0
   41.9010   31.1970   44.2110 H   0  0  0  0  0  0  0  0  0  0  0  0
   40.9650   30.7460   44.1290 N   0  0  0  0  0  0  0  0  0  0  0  0
   40.0150   30.8290   45.0960 C   0  0  0  0  0  0  0  0  0  0  0  0
   38.9860   30.1200   44.5900 N   0  0  0  0  0  0  0  0  0  0  0  0
   39.2650   29.6230   43.3890 C   0  0  0  0  0  0  0  0  0  0  0  0
   38.6420   28.8550   42.4240 C   0  0  0  0  0  0  0  0  0  0  0  0
   37.6370   28.5140   42.6150 H   0  0  0  0  0  0  0  0  0  0  0  0
   39.2460   28.5270   41.2730 N   0  0  0  0  0  0  0  0  0  0  0  0
   40.5130   28.9580   41.0370 C   0  0  0  0  0  0  0  0  0  0  0  0
   41.0180   28.6930   40.0950 H   0  0  0  0  0  0  0  0  0  0  0  0
   41.1640   29.7100   41.9450 N   0  0  0  0  0  0  0  0  0  0  0  0
   40.5420   30.0280   43.0920 C   0  0  0  0  0  0  0  0  0  0  0  0
  2  5  1  0  0  0  0
  2  1  2  1  0  0  0
  3  4  1  0  0  0  0
  3  2  1  0  0  0  0
  5  8  1  0  0  0  0
  6 12  1  0  0  0  0
  7  6  2  0  0  0  0
  8  7  1  0  0  0  0
  9  8  2  0  0  0  0
  9 10  1  0  0  0  0
 10 11  2  0  0  0  0
 11  6  1  0  0  0  0
 13  7  1  0  0  0  0
 14 10  1  0  0  0  0
 15  2  1  0  0  0  0
 17 16  1  0  0  0  0
 17 18  1  0  0  0  0
 18 15  1  0  0  0  0
 19 18  2  0  0  0  0
 20 19  1  0  0  0  0
 21 22  1  0  0  0  0
 21 20  2  0  0  0  0
 23 21  1  0  0  0  0
 24 23  2  0  0  0  0
 24 26  1  0  0  0  0
 25 24  1  0  0  0  0
 26 27  2  0  0  0  0
 27 20  1  0  0  0  0
 27 17  1  0  0  0  0
M  END
>  <minimizedAffinity>
-5.72307301

>  <minimizedRMSD>
1.16077387

$$$$
