
 OpenBabel03272507473D

 49 54  0  0  0  0  0  0  0  0999 V2000
   32.3410   27.9710   47.5090 N   0  0  0  0  0  0  0  0  0  0  0  0
   32.5100   27.9370   48.9200 C   0  0  0  0  0  0  0  0  0  0  0  0
   33.6810   28.6590   49.4700 C   0  0  0  0  0  0  0  0  0  0  0  0
   34.9210   28.5870   48.6960 C   0  0  0  0  0  0  0  0  0  0  0  0
   34.6610   28.5510   47.1790 C   0  0  0  0  0  0  0  0  0  0  0  0
   33.5680   27.5010   46.9300 C   0  0  0  0  0  0  0  0  0  0  0  0
   31.5730   28.3270   49.4120 H   0  0  0  0  0  0  0  0  0  0  0  0
   32.5930   26.8710   49.2200 H   0  0  0  0  0  0  0  0  0  0  0  0
   33.3290   29.7420   49.4120 H   0  0  0  0  0  0  0  0  0  0  0  0
   33.7980   28.4220   50.5350 H   0  0  0  0  0  0  0  0  0  0  0  0
   35.5040   27.6490   48.8850 H   0  0  0  0  0  0  0  0  0  0  0  0
   34.3360   29.5120   46.7820 H   0  0  0  0  0  0  0  0  0  0  0  0
   35.5780   28.1520   46.6880 H   0  0  0  0  0  0  0  0  0  0  0  0
   33.4030   27.3830   45.8510 H   0  0  0  0  0  0  0  0  0  0  0  0
   33.8940   26.5150   47.3130 H   0  0  0  0  0  0  0  0  0  0  0  0
   31.1910   28.3830   46.7640 C   0  0  0  0  0  0  0  0  0  0  0  0
   31.1940   28.9010   45.4730 C   0  0  0  0  0  0  0  0  0  0  0  0
   29.9650   29.2410   44.9200 C   0  0  0  0  0  0  0  0  0  0  0  0
   28.8340   29.0530   45.6590 N   0  0  0  0  0  0  0  0  0  0  0  0
   28.8640   28.5510   46.9020 C   0  0  0  0  0  0  0  0  0  0  0  0
   30.0350   28.2200   47.4480 N   0  0  0  0  0  0  0  0  0  0  0  0
   32.1660   28.9850   45.0320 H   0  0  0  0  0  0  0  0  0  0  0  0
   30.0100   29.6360   43.9240 H   0  0  0  0  0  0  0  0  0  0  0  0
   27.6430   28.3810   47.6160 N   0  0  0  0  0  0  0  0  0  0  0  0
   26.9430   27.3290   48.0780 C   0  0  0  0  0  0  0  0  0  0  0  0
   27.4230   26.3720   47.8530 H   0  0  0  0  0  0  0  0  0  0  0  0
   25.8310   27.7660   48.6980 N   0  0  0  0  0  0  0  0  0  0  0  0
   25.8320   29.1080   48.6250 C   0  0  0  0  0  0  0  0  0  0  0  0
   24.8820   29.9720   49.1290 C   0  0  0  0  0  0  0  0  0  0  0  0
   24.0080   29.6140   49.6530 H   0  0  0  0  0  0  0  0  0  0  0  0
   25.0780   31.3100   48.9430 N   0  0  0  0  0  0  0  0  0  0  0  0
   26.1830   31.6980   48.2830 C   0  0  0  0  0  0  0  0  0  0  0  0
   26.4590   32.7350   48.0670 H   0  0  0  0  0  0  0  0  0  0  0  0
   27.1350   30.8730   47.7770 N   0  0  0  0  0  0  0  0  0  0  0  0
   26.9770   29.5280   47.9410 C   0  0  0  0  0  0  0  0  0  0  0  0
   36.0300   30.1800   50.1980 C   0  0  0  0  0  0  0  0  0  0  0  0
   35.8490   29.7260   48.9010 C   0  0  0  0  0  0  0  0  0  0  0  0
   36.4540   30.2810   47.8050 C   0  0  0  0  0  0  0  0  0  0  0  0
   37.3000   31.3680   48.0200 C   0  0  0  0  0  0  0  0  0  0  0  0
   37.4840   31.8240   49.2990 C   0  0  0  0  0  0  0  0  0  0  0  0
   36.8690   31.2590   50.4130 C   0  0  0  0  0  0  0  0  0  0  0  0
   38.3630   32.9160   49.3020 O   0  0  0  0  0  0  0  0  0  0  0  0
   38.9580   32.9050   48.0120 C   0  0  0  0  0  0  0  0  0  0  0  0
   38.0760   32.1820   47.1900 O   0  0  0  0  0  0  0  0  0  0  0  0
   35.6220   29.8200   51.1300 H   0  0  0  0  0  0  0  0  0  0  0  0
   36.2900   29.9050   46.8290 H   0  0  0  0  0  0  0  0  0  0  0  0
   37.0660   31.6790   51.4140 H   0  0  0  0  0  0  0  0  0  0  0  0
   39.0230   33.9840   47.6990 H   0  0  0  0  0  0  0  0  0  0  0  0
   39.9830   32.4890   48.0110 H   0  0  0  0  0  0  0  0  0  0  0  0
  1  2  1  0  0  0  0
  2  8  1  0  0  0  0
  2  7  1  0  0  0  0
  2  3  1  0  0  0  0
  3 10  1  0  0  0  0
  4 11  1  0  0  0  0
  4 37  1  0  0  0  0
  4  3  1  0  0  0  0
  5  4  1  0  0  0  0
  6  5  1  0  0  0  0
  6 15  1  0  0  0  0
  6  1  1  0  0  0  0
  9  3  1  0  0  0  0
 12  5  1  0  0  0  0
 13  5  1  0  0  0  0
 14  6  1  0  0  0  0
 16 21  1  0  0  0  0
 16  1  1  0  0  0  0
 17 16  2  0  0  0  0
 18 17  1  0  0  0  0
 18 19  2  0  0  0  0
 19 20  1  0  0  0  0
 20 21  2  0  0  0  0
 20 24  1  0  0  0  0
 22 17  1  0  0  0  0
 23 18  1  0  0  0  0
 24 35  1  0  0  0  0
 24 25  1  0  0  0  0
 25 27  2  0  0  0  0
 26 25  1  0  0  0  0
 28 27  1  0  0  0  0
 28 29  1  0  0  0  0
 29 30  1  0  0  0  0
 31 29  2  0  0  0  0
 32 31  1  0  0  0  0
 33 32  1  0  0  0  0
 34 35  1  0  0  0  0
 34 32  2  0  0  0  0
 35 28  2  0  0  0  0
 36 41  1  0  0  0  0
 36 45  1  0  0  0  0
 37 36  2  0  0  0  0
 38 39  2  0  0  0  0
 38 37  1  0  0  0  0
 39 40  1  0  0  0  0
 40 42  1  0  0  0  0
 40 41  2  0  0  0  0
 41 47  1  0  0  0  0
 43 42  1  0  0  0  0
 44 43  1  0  0  0  0
 44 39  1  0  0  0  0
 46 38  1  0  0  0  0
 48 43  1  0  0  0  0
 49 43  1  0  0  0  0
M  END
>  <minimizedAffinity>
-8.29052925

>  <minimizedRMSD>
1.6014812

$$$$
