
 OpenBabel03272504093D

 36 39  0  0  0  0  0  0  0  0999 V2000
   37.8540   30.2400   50.0400 C   0  0  0  0  0  0  0  0  0  0  0  0
   37.2790   30.6030   48.8380 C   0  0  0  0  0  0  0  0  0  0  0  0
   35.8960   30.4050   48.6160 C   0  0  0  0  0  0  0  0  0  0  0  0
   35.1770   29.8490   49.6280 N   0  0  0  0  0  0  0  0  0  0  0  0
   35.7880   29.5010   50.8130 C   0  0  0  0  0  0  0  0  0  0  0  0
   37.1210   29.6960   51.0130 N   0  0  0  0  0  0  0  0  0  0  0  0
   34.9490   28.9210   51.8240 N   0  0  0  0  0  0  0  0  0  0  0  0
   38.9070   30.3760   50.2450 H   0  0  0  0  0  0  0  0  0  0  0  0
   34.4390   29.4630   52.5720 H   0  0  0  0  0  0  0  0  0  0  0  0
   34.7880   27.8910   51.8780 H   0  0  0  0  0  0  0  0  0  0  0  0
   38.3370   33.4400   49.0960 Cl  0  0  0  0  0  0  0  0  0  0  0  0
   38.7140   32.4430   47.7370 C   0  0  0  0  0  0  0  0  0  0  0  0
   38.1540   31.1990   47.8030 C   0  0  0  0  0  0  0  0  0  0  0  0
   38.4130   30.3060   46.7370 C   0  0  0  0  0  0  0  0  0  0  0  0
   39.1830   30.6500   45.6780 C   0  0  0  0  0  0  0  0  0  0  0  0
   39.7370   31.9270   45.6430 C   0  0  0  0  0  0  0  0  0  0  0  0
   40.7370   32.4170   44.3000 Cl  0  0  0  0  0  0  0  0  0  0  0  0
   39.4930   32.7900   46.6650 C   0  0  0  0  0  0  0  0  0  0  0  0
   38.0380   29.2940   46.6820 H   0  0  0  0  0  0  0  0  0  0  0  0
   39.4060   30.0010   44.8420 H   0  0  0  0  0  0  0  0  0  0  0  0
   39.9030   33.8030   46.6880 H   0  0  0  0  0  0  0  0  0  0  0  0
   35.3000   30.8050   47.3560 C   0  0  0  0  0  0  0  0  0  0  0  0
   34.5030   31.5640   47.6090 H   0  0  0  0  0  0  0  0  0  0  0  0
   35.9350   31.3090   46.6220 H   0  0  0  0  0  0  0  0  0  0  0  0
   34.6720   29.6370   46.7150 N   0  0  0  0  0  0  0  0  0  0  0  0
   33.7600   28.8300   47.2800 C   0  0  0  0  0  0  0  0  0  0  0  0
   33.3500   28.9000   48.2610 H   0  0  0  0  0  0  0  0  0  0  0  0
   33.4060   27.8670   46.4110 N   0  0  0  0  0  0  0  0  0  0  0  0
   34.0940   28.0570   45.2800 C   0  0  0  0  0  0  0  0  0  0  0  0
   34.0910   27.3450   44.0910 C   0  0  0  0  0  0  0  0  0  0  0  0
   33.4620   26.4700   43.9480 H   0  0  0  0  0  0  0  0  0  0  0  0
   34.9170   27.8150   43.1390 N   0  0  0  0  0  0  0  0  0  0  0  0
   35.7050   28.8920   43.2870 C   0  0  0  0  0  0  0  0  0  0  0  0
   36.3280   29.1720   42.4420 H   0  0  0  0  0  0  0  0  0  0  0  0
   35.7090   29.5950   44.4580 N   0  0  0  0  0  0  0  0  0  0  0  0
   34.9020   29.1840   45.4710 C   0  0  0  0  0  0  0  0  0  0  0  0
  1  8  1  0  0  0  0
  1  6  1  0  0  0  0
  2  1  2  0  0  0  0
  3  2  1  0  0  0  0
  3  4  2  0  0  0  0
  4  5  1  0  0  0  0
  5  6  2  0  0  0  0
  5  7  1  0  0  0  0
  7 10  1  0  0  0  0
  7  9  1  0  0  0  0
 12 13  1  0  0  0  0
 12 11  1  0  0  0  0
 13  2  1  0  0  0  0
 14 13  2  0  0  0  0
 15 14  1  0  0  0  0
 16 15  2  0  0  0  0
 16 18  1  0  0  0  0
 17 16  1  0  0  0  0
 18 21  1  0  0  0  0
 18 12  2  0  0  0  0
 19 14  1  0  0  0  0
 20 15  1  0  0  0  0
 22 23  1  0  0  0  0
 22  3  1  0  0  0  0
 24 22  1  0  0  0  0
 25 26  1  0  0  0  0
 25 22  1  0  0  0  0
 26 27  1  0  0  0  0
 28 26  2  0  0  0  0
 29 36  1  0  0  0  0
 29 28  1  0  0  0  0
 30 29  2  0  0  0  0
 31 30  1  0  0  0  0
 32 33  2  0  0  0  0
 32 30  1  0  0  0  0
 33 35  1  0  0  0  0
 34 33  1  0  0  0  0
 35 36  2  0  0  0  0
 36 25  1  0  0  0  0
M  END
>  <minimizedAffinity>
-5.3226943

>  <minimizedRMSD>
1.46588004

$$$$
