
 OpenBabel03272501083D

 43 47  0  0  1  0  0  0  0  0999 V2000
   40.6880   31.9950   44.4790 Cl  0  0  0  0  0  0  0  0  0  0  0  0
   39.1610   31.1680   44.3750 C   0  0  0  0  0  0  0  0  0  0  0  0
   38.2550   31.5070   45.3650 C   0  0  0  0  0  0  0  0  0  0  0  0
   37.0370   30.8470   45.2870 C   0  0  0  0  0  0  0  0  0  0  0  0
   36.7420   29.9260   44.3100 C   0  0  0  0  0  0  0  0  0  0  0  0
   37.6890   29.6400   43.3620 C   0  0  0  0  0  0  0  0  0  0  0  0
   38.9350   30.2540   43.3640 C   0  0  0  0  0  0  0  0  0  0  0  0
   36.2130   30.9880   45.9770 H   0  0  0  0  0  0  0  0  0  0  0  0
   35.8030   29.3980   44.2270 H   0  0  0  0  0  0  0  0  0  0  0  0
   37.5610   28.9250   42.5400 H   0  0  0  0  0  0  0  0  0  0  0  0
   39.9890   30.0340   42.4320 N   0  0  0  0  0  0  0  0  0  0  0  0
   41.0760   29.2460   42.5290 C   0  0  0  0  0  0  0  0  0  0  0  0
   41.3210   28.6260   43.3910 H   0  0  0  0  0  0  0  0  0  0  0  0
   41.7580   29.3910   41.3800 N   0  0  0  0  0  0  0  0  0  0  0  0
   41.1130   30.2510   40.5780 C   0  0  0  0  0  0  0  0  0  0  0  0
   41.3710   30.7500   39.2990 C   0  0  0  0  0  0  0  0  0  0  0  0
   42.2600   30.4260   38.7730 H   0  0  0  0  0  0  0  0  0  0  0  0
   40.5350   31.6360   38.6920 N   0  0  0  0  0  0  0  0  0  0  0  0
   39.4390   32.0150   39.3760 C   0  0  0  0  0  0  0  0  0  0  0  0
   38.6680   32.7140   39.0400 H   0  0  0  0  0  0  0  0  0  0  0  0
   39.1590   31.5550   40.6100 N   0  0  0  0  0  0  0  0  0  0  0  0
   39.9610   30.6750   41.2490 C   0  0  0  0  0  0  0  0  0  0  0  0
   38.3080   32.3600   46.4080 O   0  0  0  0  0  0  0  0  0  0  0  0
   38.9630   32.4450   47.5900 C   0  0  2  0  0  0  0  0  0  0  0  0
   37.9870   32.6250   48.7930 C   0  0  2  0  0  0  0  0  0  0  0  0
   38.8470   33.3200   49.7390 C   0  0  0  0  0  0  0  0  0  0  0  0
   39.6650   34.1830   49.0260 O   0  0  0  0  0  0  0  0  0  0  0  0
   39.5890   33.8650   47.7080 C   0  0  0  0  0  0  0  0  0  0  0  0
   39.7290   31.7170   47.8450 H   0  0  0  0  0  0  0  0  0  0  0  0
   37.1990   33.2980   48.3940 H   0  0  0  0  0  0  0  0  0  0  0  0
   39.5100   32.7100   50.3560 H   0  0  0  0  0  0  0  0  0  0  0  0
   38.2190   33.9490   50.4120 H   0  0  0  0  0  0  0  0  0  0  0  0
   40.6090   33.8280   47.2620 H   0  0  0  0  0  0  0  0  0  0  0  0
   38.9650   34.5380   47.0960 H   0  0  0  0  0  0  0  0  0  0  0  0
   37.3530   29.3250   50.4820 C   0  0  0  0  0  0  0  0  0  0  0  0
   38.0090   30.5410   50.1430 C   0  0  0  0  0  0  0  0  0  0  0  0
   37.3710   31.3820   49.1880 C   0  0  0  0  0  0  0  0  0  0  0  0
   36.1710   30.9890   48.6450 N   0  0  0  0  0  0  0  0  0  0  0  0
   35.5960   29.8360   48.9960 C   0  0  0  0  0  0  0  0  0  0  0  0
   36.1680   28.9990   49.9050 N   0  0  0  0  0  0  0  0  0  0  0  0
   37.8430   28.6920   51.2070 H   0  0  0  0  0  0  0  0  0  0  0  0
   38.9530   30.7990   50.6030 H   0  0  0  0  0  0  0  0  0  0  0  0
   34.6670   29.4560   48.6230 H   0  0  0  0  0  0  0  0  0  0  0  0
  2  1  1  0  0  0  0
  2  3  1  0  0  0  0
  3 23  1  0  0  0  0
  4  3  2  0  0  0  0
  4  8  1  0  0  0  0
  5  4  1  0  0  0  0
  6  7  1  0  0  0  0
  6  5  2  0  0  0  0
  7  2  2  0  0  0  0
  9  5  1  0  0  0  0
 10  6  1  0  0  0  0
 11 12  1  0  0  0  0
 11  7  1  0  0  0  0
 12 13  1  0  0  0  0
 14 12  2  0  0  0  0
 15 22  1  0  0  0  0
 15 14  1  0  0  0  0
 16 15  2  0  0  0  0
 17 16  1  0  0  0  0
 18 16  1  0  0  0  0
 18 19  2  0  0  0  0
 19 21  1  0  0  0  0
 20 19  1  0  0  0  0
 21 22  2  0  0  0  0
 22 11  1  0  0  0  0
 23 24  1  0  0  0  0
 24 28  1  0  0  0  0
 24 29  1  1  0  0  0
 24 25  1  0  0  0  0
 25 30  1  6  0  0  0
 25 37  1  0  0  0  0
 25 26  1  0  0  0  0
 26 31  1  0  0  0  0
 26 32  1  0  0  0  0
 27 26  1  0  0  0  0
 28 27  1  0  0  0  0
 33 28  1  0  0  0  0
 34 28  1  0  0  0  0
 35 41  1  0  0  0  0
 36 35  1  0  0  0  0
 36 42  1  0  0  0  0
 37 36  2  0  0  0  0
 38 39  2  0  0  0  0
 38 37  1  0  0  0  0
 39 40  1  0  0  0  0
 40 35  2  0  0  0  0
 43 39  1  0  0  0  0
M  END
>  <minimizedAffinity>
-6.38034248

>  <minimizedRMSD>
1.272488

$$$$
