
 OpenBabel03272503473D

 27 29  0  0  0  0  0  0  0  0999 V2000
   35.4810   30.1600   46.6660 O   0  0  0  0  0  0  0  0  0  0  0  0
   34.1990   29.9720   47.4520 P   0  0  2  0  0  0  0  0  0  0  0  0
   33.0250   30.9250   46.6930 O   0  0  0  0  0  0  0  0  0  0  0  0
   33.4210   31.7770   46.3860 H   0  0  0  0  0  0  0  0  0  0  0  0
   34.3670   30.4790   49.0880 O   0  0  0  0  0  0  0  0  0  0  0  0
   35.5830   30.4040   49.7640 C   0  0  0  0  0  0  0  0  0  0  0  0
   35.9210   29.4110   50.7080 C   0  0  0  0  0  0  0  0  0  0  0  0
   37.1740   29.4800   51.2920 C   0  0  0  0  0  0  0  0  0  0  0  0
   38.0260   30.4900   50.9380 N   0  0  0  0  0  0  0  0  0  0  0  0
   37.6580   31.4230   50.0240 C   0  0  0  0  0  0  0  0  0  0  0  0
   36.4320   31.3860   49.4310 N   0  0  0  0  0  0  0  0  0  0  0  0
   35.1640   28.6660   50.9040 H   0  0  0  0  0  0  0  0  0  0  0  0
   37.4250   28.7140   52.0150 H   0  0  0  0  0  0  0  0  0  0  0  0
   38.3630   32.2190   49.7620 H   0  0  0  0  0  0  0  0  0  0  0  0
   33.7310   28.3500   47.5150 O   0  0  0  0  0  0  0  0  0  0  0  0
   32.5110   28.4760   49.9520 H   0  0  0  0  0  0  0  0  0  0  0  0
   32.0270   28.1740   49.0810 N   0  0  0  0  0  0  0  0  0  0  0  0
   32.4090   28.0340   47.7860 C   0  0  0  0  0  0  0  0  0  0  0  0
   31.3280   27.6010   47.0990 N   0  0  0  0  0  0  0  0  0  0  0  0
   30.2820   27.4710   47.9420 C   0  0  0  0  0  0  0  0  0  0  0  0
   28.9940   27.0650   47.7010 C   0  0  0  0  0  0  0  0  0  0  0  0
   28.6740   26.7870   46.7090 H   0  0  0  0  0  0  0  0  0  0  0  0
   28.1360   27.0230   48.7280 N   0  0  0  0  0  0  0  0  0  0  0  0
   28.5330   27.3690   49.9650 C   0  0  0  0  0  0  0  0  0  0  0  0
   27.8140   27.3230   50.7710 H   0  0  0  0  0  0  0  0  0  0  0  0
   29.8100   27.7720   50.2070 N   0  0  0  0  0  0  0  0  0  0  0  0
   30.7220   27.8370   49.2190 C   0  0  0  0  0  0  0  0  0  0  0  0
  2  1  2  6  0  0  0
  2 15  1  0  0  0  0
  2  5  1  0  0  0  0
  3  2  1  0  0  0  0
  4  3  1  0  0  0  0
  5  6  1  0  0  0  0
  6  7  1  0  0  0  0
  7 12  1  0  0  0  0
  7  8  2  0  0  0  0
  8 13  1  0  0  0  0
  9  8  1  0  0  0  0
 10  9  2  0  0  0  0
 11  6  2  0  0  0  0
 11 10  1  0  0  0  0
 14 10  1  0  0  0  0
 15 18  1  0  0  0  0
 17 27  1  0  0  0  0
 17 16  1  0  0  0  0
 18 17  1  0  0  0  0
 19 18  2  0  0  0  0
 19 20  1  0  0  0  0
 20 27  1  0  0  0  0
 21 20  2  0  0  0  0
 21 23  1  0  0  0  0
 22 21  1  0  0  0  0
 23 24  2  0  0  0  0
 24 26  1  0  0  0  0
 24 25  1  0  0  0  0
 27 26  2  0  0  0  0
M  END
>  <minimizedAffinity>
-5.56267881

>  <minimizedRMSD>
1.95444751

$$$$
