
 OpenBabel03272509313D

 41 44  0  0  1  0  0  0  0  0999 V2000
   36.3770   30.7050   49.0840 C   0  0  2  0  0  0  0  0  0  0  0  0
   37.3060   31.5120   49.9410 C   0  0  0  0  0  0  0  0  0  0  0  0
   38.0990   30.6620   50.9090 C   0  0  0  0  0  0  0  0  0  0  0  0
   37.1650   29.8350   51.7900 C   0  0  0  0  0  0  0  0  0  0  0  0
   35.9340   29.3360   51.0750 C   0  0  0  0  0  0  0  0  0  0  0  0
   36.2460   29.2990   49.5660 C   0  0  1  0  0  0  0  0  0  0  0  0
   35.3150   31.1030   49.0750 H   0  0  0  0  0  0  0  0  0  0  0  0
   37.9230   32.2440   49.4570 H   0  0  0  0  0  0  0  0  0  0  0  0
   36.6140   32.1140   50.6200 H   0  0  0  0  0  0  0  0  0  0  0  0
   38.6730   31.3630   51.5320 H   0  0  0  0  0  0  0  0  0  0  0  0
   38.7750   29.9480   50.4160 H   0  0  0  0  0  0  0  0  0  0  0  0
   36.9360   30.4670   52.6640 H   0  0  0  0  0  0  0  0  0  0  0  0
   37.7180   28.9450   52.1580 H   0  0  0  0  0  0  0  0  0  0  0  0
   35.6180   28.3530   51.4320 H   0  0  0  0  0  0  0  0  0  0  0  0
   35.1500   30.1130   51.1900 H   0  0  0  0  0  0  0  0  0  0  0  0
   37.1870   28.8040   49.5890 H   0  0  0  0  0  0  0  0  0  0  0  0
   36.8330   30.6900   47.6700 C   0  0  0  0  0  0  0  0  0  0  0  0
   38.2150   30.8360   47.4750 C   0  0  0  0  0  0  0  0  0  0  0  0
   38.6720   30.8220   46.1520 C   0  0  0  0  0  0  0  0  0  0  0  0
   37.7510   30.6660   45.1390 N   0  0  0  0  0  0  0  0  0  0  0  0
   36.4120   30.5260   45.3830 C   0  0  0  0  0  0  0  0  0  0  0  0
   35.9750   30.5410   46.6540 N   0  0  0  0  0  0  0  0  0  0  0  0
   39.0320   30.9540   48.1580 H   0  0  0  0  0  0  0  0  0  0  0  0
   39.6980   30.9240   45.8490 H   0  0  0  0  0  0  0  0  0  0  0  0
   35.7830   30.4110   44.5180 H   0  0  0  0  0  0  0  0  0  0  0  0
   33.9860   28.3210   48.9520 C   0  0  0  0  0  0  0  0  0  0  0  0
   33.1500   28.8960   49.7370 O   0  0  0  0  0  0  0  0  0  0  0  0
   35.3860   28.4780   48.7940 N   0  0  0  0  0  0  0  0  0  0  0  0
   35.7930   27.8960   47.9920 H   0  0  0  0  0  0  0  0  0  0  0  0
   31.1710   27.7520   48.5650 H   0  0  0  0  0  0  0  0  0  0  0  0
   31.9090   27.1990   48.0370 N   0  0  0  0  0  0  0  0  0  0  0  0
   33.2580   27.3420   48.1080 C   0  0  0  0  0  0  0  0  0  0  0  0
   33.6660   26.4150   47.2590 N   0  0  0  0  0  0  0  0  0  0  0  0
   32.6960   25.7260   46.6840 C   0  0  0  0  0  0  0  0  0  0  0  0
   32.6720   24.7010   45.7670 C   0  0  0  0  0  0  0  0  0  0  0  0
   33.6210   24.3130   45.3790 H   0  0  0  0  0  0  0  0  0  0  0  0
   31.4490   24.2290   45.3970 N   0  0  0  0  0  0  0  0  0  0  0  0
   30.3170   24.7340   45.8970 C   0  0  0  0  0  0  0  0  0  0  0  0
   29.3490   24.3490   45.5950 H   0  0  0  0  0  0  0  0  0  0  0  0
   30.3460   25.7400   46.7990 N   0  0  0  0  0  0  0  0  0  0  0  0
   31.5320   26.2350   47.1900 C   0  0  0  0  0  0  0  0  0  0  0  0
  1  7  1  1  0  0  0
  1  6  1  0  0  0  0
  1  2  1  0  0  0  0
  2  9  1  0  0  0  0
  2  3  1  0  0  0  0
  3 10  1  0  0  0  0
  3  4  1  0  0  0  0
  4 13  1  0  0  0  0
  4 12  1  0  0  0  0
  5 15  1  0  0  0  0
  5 14  1  0  0  0  0
  5  4  1  0  0  0  0
  6 16  1  6  0  0  0
  6  5  1  0  0  0  0
  8  2  1  0  0  0  0
 11  3  1  0  0  0  0
 17  1  1  0  0  0  0
 18 17  1  0  0  0  0
 18 23  1  0  0  0  0
 19 18  2  0  0  0  0
 20 21  2  0  0  0  0
 20 19  1  0  0  0  0
 21 22  1  0  0  0  0
 22 17  2  0  0  0  0
 24 19  1  0  0  0  0
 25 21  1  0  0  0  0
 26 27  2  0  0  0  0
 28 26  1  0  0  0  0
 28  6  1  0  0  0  0
 29 28  1  0  0  0  0
 31 32  1  0  0  0  0
 31 30  1  0  0  0  0
 32 26  1  0  0  0  0
 33 32  2  0  0  0  0
 34 41  1  0  0  0  0
 34 33  1  0  0  0  0
 35 34  2  0  0  0  0
 36 35  1  0  0  0  0
 37 35  1  0  0  0  0
 37 38  2  0  0  0  0
 38 40  1  0  0  0  0
 39 38  1  0  0  0  0
 40 41  2  0  0  0  0
 41 31  1  0  0  0  0
M  END
>  <minimizedAffinity>
-5.96158504

>  <minimizedRMSD>
0.784069598

$$$$
