
 OpenBabel03272508093D

 27 29  0  0  0  0  0  0  0  0999 V2000
   38.9220   32.9580   48.1710 O   0  0  0  0  0  0  0  0  0  0  0  0
   38.6620   31.8770   47.1660 P   0  0  2  0  0  0  0  0  0  0  0  0
   37.5700   32.4490   45.9840 O   0  0  0  0  0  0  0  0  0  0  0  0
   37.5330   33.4270   46.0350 H   0  0  0  0  0  0  0  0  0  0  0  0
   38.1500   30.4190   47.8170 O   0  0  0  0  0  0  0  0  0  0  0  0
   37.3080   30.2150   51.4150 C   0  0  0  0  0  0  0  0  0  0  0  0
   38.0540   30.5800   50.2890 C   0  0  0  0  0  0  0  0  0  0  0  0
   37.5970   30.1840   49.0410 C   0  0  0  0  0  0  0  0  0  0  0  0
   36.4370   29.4550   48.9690 N   0  0  0  0  0  0  0  0  0  0  0  0
   35.7510   29.1260   50.0860 C   0  0  0  0  0  0  0  0  0  0  0  0
   36.1850   29.5050   51.3000 N   0  0  0  0  0  0  0  0  0  0  0  0
   37.6900   30.5370   52.3620 H   0  0  0  0  0  0  0  0  0  0  0  0
   38.9610   31.1420   50.2750 H   0  0  0  0  0  0  0  0  0  0  0  0
   34.8260   28.5420   49.9870 H   0  0  0  0  0  0  0  0  0  0  0  0
   40.1220   31.6120   46.3340 O   0  0  0  0  0  0  0  0  0  0  0  0
   38.6030   29.4200   45.5060 H   0  0  0  0  0  0  0  0  0  0  0  0
   39.2890   29.8280   44.8350 N   0  0  0  0  0  0  0  0  0  0  0  0
   40.0750   30.8930   45.1360 C   0  0  0  0  0  0  0  0  0  0  0  0
   40.7930   31.0850   44.0100 N   0  0  0  0  0  0  0  0  0  0  0  0
   40.4810   30.2040   43.0640 C   0  0  0  0  0  0  0  0  0  0  0  0
   40.8580   29.9110   41.7680 C   0  0  0  0  0  0  0  0  0  0  0  0
   41.6180   30.5230   41.3090 H   0  0  0  0  0  0  0  0  0  0  0  0
   40.3110   28.9020   41.0760 N   0  0  0  0  0  0  0  0  0  0  0  0
   39.3540   28.1350   41.6590 C   0  0  0  0  0  0  0  0  0  0  0  0
   38.8970   27.3040   41.0990 H   0  0  0  0  0  0  0  0  0  0  0  0
   38.9500   28.3790   42.9210 N   0  0  0  0  0  0  0  0  0  0  0  0
   39.5110   29.3930   43.5980 C   0  0  0  0  0  0  0  0  0  0  0  0
  2  5  1  0  0  0  0
  2  1  2  1  0  0  0
  3  4  1  0  0  0  0
  3  2  1  0  0  0  0
  5  8  1  0  0  0  0
  6 12  1  0  0  0  0
  7  6  2  0  0  0  0
  8  7  1  0  0  0  0
  9  8  2  0  0  0  0
  9 10  1  0  0  0  0
 10 11  2  0  0  0  0
 11  6  1  0  0  0  0
 13  7  1  0  0  0  0
 14 10  1  0  0  0  0
 15  2  1  0  0  0  0
 17 18  1  0  0  0  0
 17 16  1  0  0  0  0
 18 15  1  0  0  0  0
 19 18  2  0  0  0  0
 20 27  1  0  0  0  0
 20 19  1  0  0  0  0
 21 20  2  0  0  0  0
 22 21  1  0  0  0  0
 23 24  2  0  0  0  0
 23 21  1  0  0  0  0
 24 26  1  0  0  0  0
 25 24  1  0  0  0  0
 26 27  2  0  0  0  0
 27 17  1  0  0  0  0
M  END
>  <minimizedAffinity>
-5.75281715

>  <minimizedRMSD>
1.13045764

$$$$
