
 OpenBabel03272506553D

 23 25  0  0  0  0  0  0  0  0999 V2000
   36.9110   29.2420   50.2880 C   0  0  0  0  0  0  0  0  0  0  0  0
   37.4710   30.4270   49.7750 C   0  0  0  0  0  0  0  0  0  0  0  0
   36.7500   31.0420   48.7160 C   0  0  0  0  0  0  0  0  0  0  0  0
   35.5960   30.4530   48.2850 N   0  0  0  0  0  0  0  0  0  0  0  0
   35.1210   29.3220   48.8220 C   0  0  0  0  0  0  0  0  0  0  0  0
   35.7630   28.6960   49.8280 N   0  0  0  0  0  0  0  0  0  0  0  0
   37.4360   28.7380   51.1040 H   0  0  0  0  0  0  0  0  0  0  0  0
   37.1420   31.9390   48.3020 H   0  0  0  0  0  0  0  0  0  0  0  0
   33.9000   28.8940   48.2110 N   0  0  0  0  0  0  0  0  0  0  0  0
   32.9800   28.0410   48.7020 C   0  0  0  0  0  0  0  0  0  0  0  0
   33.0790   27.5590   49.6810 H   0  0  0  0  0  0  0  0  0  0  0  0
   31.9770   27.9020   47.8150 N   0  0  0  0  0  0  0  0  0  0  0  0
   32.2400   28.6730   46.7290 C   0  0  0  0  0  0  0  0  0  0  0  0
   31.4950   28.8440   45.5790 C   0  0  0  0  0  0  0  0  0  0  0  0
   30.5690   28.3440   45.4260 H   0  0  0  0  0  0  0  0  0  0  0  0
   32.0360   29.6960   44.6600 N   0  0  0  0  0  0  0  0  0  0  0  0
   33.2190   30.3050   44.9060 C   0  0  0  0  0  0  0  0  0  0  0  0
   33.6210   30.9790   44.1480 H   0  0  0  0  0  0  0  0  0  0  0  0
   33.8930   30.1010   46.0330 N   0  0  0  0  0  0  0  0  0  0  0  0
   33.4640   29.2920   47.0010 C   0  0  0  0  0  0  0  0  0  0  0  0
   38.6860   30.9580   50.2990 N   0  0  0  0  0  0  0  0  0  0  0  0
   38.7510   31.0430   51.3530 H   0  0  0  0  0  0  0  0  0  0  0  0
   39.4530   31.2400   49.6510 H   0  0  0  0  0  0  0  0  0  0  0  0
  1  7  1  0  0  0  0
  2  1  2  0  0  0  0
  2 21  1  0  0  0  0
  3  2  1  0  0  0  0
  4  3  2  0  0  0  0
  4  5  1  0  0  0  0
  5  6  2  0  0  0  0
  6  1  1  0  0  0  0
  8  3  1  0  0  0  0
  9 10  1  0  0  0  0
  9  5  1  0  0  0  0
 10 11  1  0  0  0  0
 12 10  2  0  0  0  0
 13 20  1  0  0  0  0
 13 12  1  0  0  0  0
 14 13  2  0  0  0  0
 15 14  1  0  0  0  0
 16 17  2  0  0  0  0
 16 14  1  0  0  0  0
 17 19  1  0  0  0  0
 18 17  1  0  0  0  0
 19 20  2  0  0  0  0
 20  9  1  0  0  0  0
 21 22  1  0  0  0  0
 23 21  1  0  0  0  0
M  END
>  <minimizedAffinity>
-4.62765932

>  <minimizedRMSD>
2.2435987

$$$$
