
 OpenBabel03272501483D

 23 25  0  0  0  0  0  0  0  0999 V2000
   37.3210   29.9470   51.3210 C   0  0  0  0  0  0  0  0  0  0  0  0
   38.0900   30.8050   50.5270 C   0  0  0  0  0  0  0  0  0  0  0  0
   37.7390   30.9170   49.1610 C   0  0  0  0  0  0  0  0  0  0  0  0
   36.6730   30.1830   48.7110 N   0  0  0  0  0  0  0  0  0  0  0  0
   35.9740   29.3770   49.5190 C   0  0  0  0  0  0  0  0  0  0  0  0
   36.2850   29.2470   50.8350 N   0  0  0  0  0  0  0  0  0  0  0  0
   34.8960   28.6770   48.9160 N   0  0  0  0  0  0  0  0  0  0  0  0
   37.5260   29.8080   52.3660 H   0  0  0  0  0  0  0  0  0  0  0  0
   38.9160   31.3540   50.9480 H   0  0  0  0  0  0  0  0  0  0  0  0
   34.6970   27.6600   48.8060 H   0  0  0  0  0  0  0  0  0  0  0  0
   34.1540   29.3140   48.4980 H   0  0  0  0  0  0  0  0  0  0  0  0
   38.4890   31.7760   48.3110 N   0  0  0  0  0  0  0  0  0  0  0  0
   38.7710   33.0400   48.7370 C   0  0  0  0  0  0  0  0  0  0  0  0
   38.5230   33.5520   49.6520 H   0  0  0  0  0  0  0  0  0  0  0  0
   39.4840   33.7000   47.8070 N   0  0  0  0  0  0  0  0  0  0  0  0
   39.6630   32.8590   46.7750 C   0  0  0  0  0  0  0  0  0  0  0  0
   40.2810   32.8700   45.5230 C   0  0  0  0  0  0  0  0  0  0  0  0
   40.7810   33.7980   45.2390 H   0  0  0  0  0  0  0  0  0  0  0  0
   40.2370   31.7720   44.7420 N   0  0  0  0  0  0  0  0  0  0  0  0
   39.6190   30.6410   45.1040 C   0  0  0  0  0  0  0  0  0  0  0  0
   39.6650   29.8570   44.3880 H   0  0  0  0  0  0  0  0  0  0  0  0
   38.9970   30.5690   46.3150 N   0  0  0  0  0  0  0  0  0  0  0  0
   39.0450   31.6670   47.0900 C   0  0  0  0  0  0  0  0  0  0  0  0
  1  8  1  0  0  0  0
  2  9  1  0  0  0  0
  2  1  2  0  0  0  0
  3  2  1  0  0  0  0
  4  3  2  0  0  0  0
  4  5  1  0  0  0  0
  5  6  2  0  0  0  0
  6  1  1  0  0  0  0
  7  5  1  0  0  0  0
 10  7  1  0  0  0  0
 11  7  1  0  0  0  0
 12 13  1  0  0  0  0
 12  3  1  0  0  0  0
 13 14  1  0  0  0  0
 15 13  2  0  0  0  0
 16 23  1  0  0  0  0
 16 15  1  0  0  0  0
 17 16  2  0  0  0  0
 18 17  1  0  0  0  0
 19 20  2  0  0  0  0
 19 17  1  0  0  0  0
 20 22  1  0  0  0  0
 21 20  1  0  0  0  0
 22 23  2  0  0  0  0
 23 12  1  0  0  0  0
M  END
>  <minimizedAffinity>
-5.75862169

>  <minimizedRMSD>
1.20120597

$$$$
