
 OpenBabel03272501483D

 23 25  0  0  0  0  0  0  0  0999 V2000
   37.2450   30.1460   51.3210 C   0  0  0  0  0  0  0  0  0  0  0  0
   38.0010   30.9570   50.4690 C   0  0  0  0  0  0  0  0  0  0  0  0
   37.7500   30.8560   49.0800 C   0  0  0  0  0  0  0  0  0  0  0  0
   36.7870   29.9750   48.6660 N   0  0  0  0  0  0  0  0  0  0  0  0
   36.0930   29.2230   49.5290 C   0  0  0  0  0  0  0  0  0  0  0  0
   36.3100   29.2960   50.8690 N   0  0  0  0  0  0  0  0  0  0  0  0
   35.1270   28.3540   48.9590 N   0  0  0  0  0  0  0  0  0  0  0  0
   37.3780   30.1660   52.3860 H   0  0  0  0  0  0  0  0  0  0  0  0
   38.7450   31.6300   50.8640 H   0  0  0  0  0  0  0  0  0  0  0  0
   35.0190   27.3180   48.9780 H   0  0  0  0  0  0  0  0  0  0  0  0
   34.3700   28.8600   48.4080 H   0  0  0  0  0  0  0  0  0  0  0  0
   38.4930   31.6600   48.1720 N   0  0  0  0  0  0  0  0  0  0  0  0
   38.9020   32.8960   48.5720 C   0  0  0  0  0  0  0  0  0  0  0  0
   38.7670   33.4220   49.5020 H   0  0  0  0  0  0  0  0  0  0  0  0
   39.5860   33.5040   47.5860 N   0  0  0  0  0  0  0  0  0  0  0  0
   39.6180   32.6580   46.5440 C   0  0  0  0  0  0  0  0  0  0  0  0
   40.1330   32.6280   45.2460 C   0  0  0  0  0  0  0  0  0  0  0  0
   40.6770   33.5160   44.9220 H   0  0  0  0  0  0  0  0  0  0  0  0
   39.9430   31.5400   44.4740 N   0  0  0  0  0  0  0  0  0  0  0  0
   39.2740   30.4570   44.8860 C   0  0  0  0  0  0  0  0  0  0  0  0
   39.2030   29.6750   44.1700 H   0  0  0  0  0  0  0  0  0  0  0  0
   38.7480   30.4260   46.1420 N   0  0  0  0  0  0  0  0  0  0  0  0
   38.9400   31.5140   46.9100 C   0  0  0  0  0  0  0  0  0  0  0  0
  1  8  1  0  0  0  0
  2  9  1  0  0  0  0
  2  1  2  0  0  0  0
  3  2  1  0  0  0  0
  4  3  2  0  0  0  0
  4  5  1  0  0  0  0
  5  6  2  0  0  0  0
  6  1  1  0  0  0  0
  7 10  1  0  0  0  0
  7  5  1  0  0  0  0
 11  7  1  0  0  0  0
 12 13  1  0  0  0  0
 12  3  1  0  0  0  0
 13 14  1  0  0  0  0
 15 13  2  0  0  0  0
 16 23  1  0  0  0  0
 16 15  1  0  0  0  0
 17 16  2  0  0  0  0
 18 17  1  0  0  0  0
 19 20  2  0  0  0  0
 19 17  1  0  0  0  0
 20 22  1  0  0  0  0
 21 20  1  0  0  0  0
 22 23  2  0  0  0  0
 23 12  1  0  0  0  0
M  END
>  <minimizedAffinity>
-5.79205894

>  <minimizedRMSD>
0.968675911

$$$$
