
 OpenBabel03272506233D

 34 37  0  0  0  0  0  0  0  0999 V2000
   36.9830   29.5510   43.3430 C   0  0  0  0  0  0  0  0  0  0  0  0
   37.1370   28.8600   42.1690 C   0  0  0  0  0  0  0  0  0  0  0  0
   38.3240   28.3090   41.7320 C   0  0  0  0  0  0  0  0  0  0  0  0
   39.4730   28.4680   42.5530 C   0  0  0  0  0  0  0  0  0  0  0  0
   39.3150   29.1680   43.7390 C   0  0  0  0  0  0  0  0  0  0  0  0
   38.1140   29.7040   44.1470 C   0  0  0  0  0  0  0  0  0  0  0  0
   36.3060   28.6980   41.4940 H   0  0  0  0  0  0  0  0  0  0  0  0
   38.4130   27.7690   40.8010 H   0  0  0  0  0  0  0  0  0  0  0  0
   40.4030   28.0460   42.2270 H   0  0  0  0  0  0  0  0  0  0  0  0
   40.1820   29.3020   44.3850 H   0  0  0  0  0  0  0  0  0  0  0  0
   37.9350   30.4230   45.3560 N   0  0  0  0  0  0  0  0  0  0  0  0
   37.0380   30.3120   46.3780 C   0  0  0  0  0  0  0  0  0  0  0  0
   36.2710   29.5270   46.3140 H   0  0  0  0  0  0  0  0  0  0  0  0
   37.2970   31.2480   47.3130 N   0  0  0  0  0  0  0  0  0  0  0  0
   38.3700   31.9790   46.9040 C   0  0  0  0  0  0  0  0  0  0  0  0
   38.9790   33.0350   47.5430 C   0  0  0  0  0  0  0  0  0  0  0  0
   38.6010   33.3740   48.4980 H   0  0  0  0  0  0  0  0  0  0  0  0
   40.0400   33.5650   46.8790 N   0  0  0  0  0  0  0  0  0  0  0  0
   40.4250   33.0550   45.6830 C   0  0  0  0  0  0  0  0  0  0  0  0
   41.2920   33.5530   45.2270 H   0  0  0  0  0  0  0  0  0  0  0  0
   39.8290   32.0240   45.0590 N   0  0  0  0  0  0  0  0  0  0  0  0
   38.7700   31.4570   45.6720 C   0  0  0  0  0  0  0  0  0  0  0  0
   34.7490   29.1550   44.2700 C   0  0  0  0  0  0  0  0  0  0  0  0
   35.6600   30.0570   43.6390 C   0  0  0  0  0  0  0  0  0  0  0  0
   35.1990   31.3410   43.3640 C   0  0  0  0  0  0  0  0  0  0  0  0
   33.9240   31.6620   43.7070 N   0  0  0  0  0  0  0  0  0  0  0  0
   33.0780   30.7810   44.3070 C   0  0  0  0  0  0  0  0  0  0  0  0
   33.5060   29.5190   44.5870 N   0  0  0  0  0  0  0  0  0  0  0  0
   35.0460   28.1410   44.5100 H   0  0  0  0  0  0  0  0  0  0  0  0
   32.0910   31.1660   44.5260 H   0  0  0  0  0  0  0  0  0  0  0  0
   36.0270   32.3700   42.7200 C   0  0  0  0  0  0  0  0  0  0  0  0
   35.2370   33.4950   42.4080 F   0  0  0  0  0  0  0  0  0  0  0  0
   37.1240   32.7940   43.3910 F   0  0  0  0  0  0  0  0  0  0  0  0
   36.4390   31.9390   41.4520 F   0  0  0  0  0  0  0  0  0  0  0  0
  1 24  1  0  0  0  0
  1  6  1  0  0  0  0
  2  1  2  0  0  0  0
  3  2  1  0  0  0  0
  3  4  2  0  0  0  0
  4  5  1  0  0  0  0
  5  6  2  0  0  0  0
  5 10  1  0  0  0  0
  6 11  1  0  0  0  0
  7  2  1  0  0  0  0
  8  3  1  0  0  0  0
  9  4  1  0  0  0  0
 11 22  1  0  0  0  0
 11 12  1  0  0  0  0
 12 14  2  0  0  0  0
 13 12  1  0  0  0  0
 15 14  1  0  0  0  0
 15 16  1  0  0  0  0
 16 17  1  0  0  0  0
 18 16  2  0  0  0  0
 19 18  1  0  0  0  0
 20 19  1  0  0  0  0
 21 22  1  0  0  0  0
 21 19  2  0  0  0  0
 22 15  2  0  0  0  0
 23 29  1  0  0  0  0
 23 28  1  0  0  0  0
 24 23  2  0  0  0  0
 25 24  1  0  0  0  0
 25 26  2  0  0  0  0
 26 27  1  0  0  0  0
 27 30  1  0  0  0  0
 27 28  2  0  0  0  0
 31 25  1  0  0  0  0
 31 33  1  0  0  0  0
 32 31  1  0  0  0  0
 34 31  1  0  0  0  0
M  END
>  <minimizedAffinity>
-3.86619163

>  <minimizedRMSD>
6.00577736

$$$$
