
 OpenBabel03272506263D

 45 49  0  0  0  0  0  0  0  0999 V2000
   35.0740   30.0130   44.9200 S   0  0  0  0  0  0  0  0  0  0  0  0
   33.0200   30.2570   43.2180 C   0  0  0  0  0  0  0  0  0  0  0  0
   32.3470   30.9090   42.2020 C   0  0  0  0  0  0  0  0  0  0  0  0
   32.7890   32.0970   41.6080 C   0  0  0  0  0  0  0  0  0  0  0  0
   33.9950   32.6660   42.0770 C   0  0  0  0  0  0  0  0  0  0  0  0
   34.6420   32.0050   43.0820 C   0  0  0  0  0  0  0  0  0  0  0  0
   34.2100   30.8470   43.6550 C   0  0  0  0  0  0  0  0  0  0  0  0
   31.4130   30.4920   41.8210 H   0  0  0  0  0  0  0  0  0  0  0  0
   32.1650   32.5180   40.8080 H   0  0  0  0  0  0  0  0  0  0  0  0
   34.2100   33.5650   41.5390 H   0  0  0  0  0  0  0  0  0  0  0  0
   35.5000   32.6040   43.2860 H   0  0  0  0  0  0  0  0  0  0  0  0
   32.7370   27.8660   43.0860 C   0  0  0  0  0  0  0  0  0  0  0  0
   32.4130   29.0660   43.7320 C   0  0  0  0  0  0  0  0  0  0  0  0
   31.5300   29.0090   44.8180 C   0  0  0  0  0  0  0  0  0  0  0  0
   31.0280   27.8050   45.1980 N   0  0  0  0  0  0  0  0  0  0  0  0
   31.3630   26.6520   44.5480 C   0  0  0  0  0  0  0  0  0  0  0  0
   32.2180   26.6890   43.4930 N   0  0  0  0  0  0  0  0  0  0  0  0
   33.4090   27.8670   42.2510 H   0  0  0  0  0  0  0  0  0  0  0  0
   30.9280   25.7300   44.9020 H   0  0  0  0  0  0  0  0  0  0  0  0
   31.0900   30.2060   45.6010 C   0  0  0  0  0  0  0  0  0  0  0  0
   30.1750   29.8010   46.5900 F   0  0  0  0  0  0  0  0  0  0  0  0
   32.0700   30.9190   46.1840 F   0  0  0  0  0  0  0  0  0  0  0  0
   30.3340   31.0450   44.7800 F   0  0  0  0  0  0  0  0  0  0  0  0
   36.6730   28.7140   42.5880 Cl  0  0  0  0  0  0  0  0  0  0  0  0
   37.4780   29.6500   43.8170 C   0  0  0  0  0  0  0  0  0  0  0  0
   36.8270   30.2400   44.8830 C   0  0  0  0  0  0  0  0  0  0  0  0
   37.5090   30.9540   45.8300 C   0  0  0  0  0  0  0  0  0  0  0  0
   38.8960   31.0710   45.6860 C   0  0  0  0  0  0  0  0  0  0  0  0
   39.5620   30.4790   44.6120 C   0  0  0  0  0  0  0  0  0  0  0  0
   38.8610   29.7590   43.6640 C   0  0  0  0  0  0  0  0  0  0  0  0
   37.1150   31.4130   46.6960 H   0  0  0  0  0  0  0  0  0  0  0  0
   39.5200   31.6100   46.3760 H   0  0  0  0  0  0  0  0  0  0  0  0
   40.6420   30.5700   44.5030 H   0  0  0  0  0  0  0  0  0  0  0  0
   39.5690   29.1650   42.5790 N   0  0  0  0  0  0  0  0  0  0  0  0
   40.1360   27.9430   42.3910 C   0  0  0  0  0  0  0  0  0  0  0  0
   40.1000   27.2020   43.1570 H   0  0  0  0  0  0  0  0  0  0  0  0
   40.6760   27.9290   41.1600 N   0  0  0  0  0  0  0  0  0  0  0  0
   40.4600   29.1140   40.5740 C   0  0  0  0  0  0  0  0  0  0  0  0
   40.8340   29.5420   39.3140 C   0  0  0  0  0  0  0  0  0  0  0  0
   41.3830   28.9190   38.6200 H   0  0  0  0  0  0  0  0  0  0  0  0
   40.4880   30.7950   38.9630 N   0  0  0  0  0  0  0  0  0  0  0  0
   39.7980   31.5900   39.8210 C   0  0  0  0  0  0  0  0  0  0  0  0
   39.4710   32.6070   39.6430 H   0  0  0  0  0  0  0  0  0  0  0  0
   39.4380   31.1620   41.0450 N   0  0  0  0  0  0  0  0  0  0  0  0
   39.7530   29.9220   41.4600 C   0  0  0  0  0  0  0  0  0  0  0  0
  2  7  1  0  0  0  0
  2 13  1  0  0  0  0
  3  2  2  0  0  0  0
  4  5  2  0  0  0  0
  4  3  1  0  0  0  0
  5  6  1  0  0  0  0
  6 11  1  0  0  0  0
  6  7  2  0  0  0  0
  7  1  1  0  0  0  0
  8  3  1  0  0  0  0
  9  4  1  0  0  0  0
 10  5  1  0  0  0  0
 12 17  2  0  0  0  0
 12 13  1  0  0  0  0
 13 14  2  0  0  0  0
 14 15  1  0  0  0  0
 14 20  1  0  0  0  0
 16 19  1  0  0  0  0
 16 15  2  0  0  0  0
 17 16  1  0  0  0  0
 18 12  1  0  0  0  0
 20 22  1  0  0  0  0
 20 21  1  0  0  0  0
 23 20  1  0  0  0  0
 24 25  1  0  0  0  0
 25 26  1  0  0  0  0
 26  1  1  0  0  0  0
 26 27  2  0  0  0  0
 27 31  1  0  0  0  0
 28 27  1  0  0  0  0
 28 32  1  0  0  0  0
 29 28  2  0  0  0  0
 30 25  2  0  0  0  0
 30 29  1  0  0  0  0
 33 29  1  0  0  0  0
 34 30  1  0  0  0  0
 35 34  1  0  0  0  0
 35 36  1  0  0  0  0
 37 35  2  0  0  0  0
 38 37  1  0  0  0  0
 38 45  1  0  0  0  0
 39 38  2  0  0  0  0
 40 39  1  0  0  0  0
 41 39  1  0  0  0  0
 41 42  2  0  0  0  0
 42 44  1  0  0  0  0
 43 42  1  0  0  0  0
 44 45  2  0  0  0  0
 45 34  1  0  0  0  0
M  END
>  <minimizedAffinity>
-4.05169535

>  <minimizedRMSD>
7.77081966

$$$$
