
 OpenBabel03272501503D

 23 25  0  0  0  0  0  0  0  0999 V2000
   38.0190   24.2380   38.2230 C   0  0  0  0  0  0  0  0  0  0  0  0
   38.0330   24.8440   36.9630 C   0  0  0  0  0  0  0  0  0  0  0  0
   38.9600   24.3530   36.0140 C   0  0  0  0  0  0  0  0  0  0  0  0
   39.7760   23.3190   36.3910 N   0  0  0  0  0  0  0  0  0  0  0  0
   39.7170   22.7780   37.6140 C   0  0  0  0  0  0  0  0  0  0  0  0
   38.8390   23.2270   38.5480 N   0  0  0  0  0  0  0  0  0  0  0  0
   40.6230   21.7140   37.8660 N   0  0  0  0  0  0  0  0  0  0  0  0
   37.3450   24.5550   38.9960 H   0  0  0  0  0  0  0  0  0  0  0  0
   37.3600   25.6550   36.7330 H   0  0  0  0  0  0  0  0  0  0  0  0
   41.3880   21.5970   38.5620 H   0  0  0  0  0  0  0  0  0  0  0  0
   40.4920   20.8800   37.2180 H   0  0  0  0  0  0  0  0  0  0  0  0
   39.0140   24.9360   34.7170 N   0  0  0  0  0  0  0  0  0  0  0  0
   38.0520   24.6080   33.8080 C   0  0  0  0  0  0  0  0  0  0  0  0
   37.2030   23.9500   33.8800 H   0  0  0  0  0  0  0  0  0  0  0  0
   38.2660   25.2520   32.6470 N   0  0  0  0  0  0  0  0  0  0  0  0
   39.3720   26.0000   32.8060 C   0  0  0  0  0  0  0  0  0  0  0  0
   40.1430   26.8850   32.0510 C   0  0  0  0  0  0  0  0  0  0  0  0
   39.8080   27.0670   31.0290 H   0  0  0  0  0  0  0  0  0  0  0  0
   41.2330   27.4600   32.5970 N   0  0  0  0  0  0  0  0  0  0  0  0
   41.6310   27.2270   33.8540 C   0  0  0  0  0  0  0  0  0  0  0  0
   42.5070   27.7500   34.1480 H   0  0  0  0  0  0  0  0  0  0  0  0
   40.9200   26.3730   34.6400 N   0  0  0  0  0  0  0  0  0  0  0  0
   39.8330   25.8020   34.0900 C   0  0  0  0  0  0  0  0  0  0  0  0
  1  6  1  0  0  0  0
  1  8  1  0  0  0  0
  2  1  2  0  0  0  0
  3  4  2  0  0  0  0
  3  2  1  0  0  0  0
  4  5  1  0  0  0  0
  5  7  1  0  0  0  0
  5  6  2  0  0  0  0
  7 10  1  0  0  0  0
  9  2  1  0  0  0  0
 11  7  1  0  0  0  0
 12  3  1  0  0  0  0
 13 14  1  0  0  0  0
 13 12  1  0  0  0  0
 15 16  1  0  0  0  0
 15 13  2  0  0  0  0
 16 23  1  0  0  0  0
 17 19  1  0  0  0  0
 17 16  2  0  0  0  0
 18 17  1  0  0  0  0
 19 20  2  0  0  0  0
 20 21  1  0  0  0  0
 20 22  1  0  0  0  0
 23 22  2  0  0  0  0
 23 12  1  0  0  0  0
M  END
>  <minimizedAffinity>
-5.05212784

$$$$

 OpenBabel03272501503D

 23 25  0  0  0  0  0  0  0  0999 V2000
   41.3500   22.9490   36.4070 C   0  0  0  0  0  0  0  0  0  0  0  0
   40.6860   23.4680   35.2910 C   0  0  0  0  0  0  0  0  0  0  0  0
   39.3010   23.7260   35.4180 C   0  0  0  0  0  0  0  0  0  0  0  0
   38.7060   23.4520   36.6220 N   0  0  0  0  0  0  0  0  0  0  0  0
   39.3940   22.9540   37.6570 C   0  0  0  0  0  0  0  0  0  0  0  0
   40.7240   22.6960   37.5670 N   0  0  0  0  0  0  0  0  0  0  0  0
   38.6480   22.7190   38.8410 N   0  0  0  0  0  0  0  0  0  0  0  0
   42.4000   22.7270   36.3880 H   0  0  0  0  0  0  0  0  0  0  0  0
   41.2180   23.6610   34.3730 H   0  0  0  0  0  0  0  0  0  0  0  0
   38.4610   21.8530   39.3900 H   0  0  0  0  0  0  0  0  0  0  0  0
   38.1950   23.5940   39.2420 H   0  0  0  0  0  0  0  0  0  0  0  0
   38.5800   24.2550   34.3120 N   0  0  0  0  0  0  0  0  0  0  0  0
   38.7040   25.5810   34.0200 C   0  0  0  0  0  0  0  0  0  0  0  0
   39.2760   26.3600   34.4920 H   0  0  0  0  0  0  0  0  0  0  0  0
   37.9540   25.8960   32.9480 N   0  0  0  0  0  0  0  0  0  0  0  0
   37.3420   24.7690   32.5460 C   0  0  0  0  0  0  0  0  0  0  0  0
   36.4560   24.3700   31.5440 C   0  0  0  0  0  0  0  0  0  0  0  0
   36.1260   25.1480   30.8540 H   0  0  0  0  0  0  0  0  0  0  0  0
   36.0590   23.0840   31.4720 N   0  0  0  0  0  0  0  0  0  0  0  0
   36.4740   22.1410   32.3260 C   0  0  0  0  0  0  0  0  0  0  0  0
   36.0780   21.1710   32.1480 H   0  0  0  0  0  0  0  0  0  0  0  0
   37.3390   22.4680   33.3260 N   0  0  0  0  0  0  0  0  0  0  0  0
   37.7320   23.7540   33.3940 C   0  0  0  0  0  0  0  0  0  0  0  0
  1  6  1  0  0  0  0
  2  3  1  0  0  0  0
  2  1  2  0  0  0  0
  3  4  2  0  0  0  0
  4  5  1  0  0  0  0
  5  7  1  0  0  0  0
  6  5  2  0  0  0  0
  7 11  1  0  0  0  0
  7 10  1  0  0  0  0
  8  1  1  0  0  0  0
  9  2  1  0  0  0  0
 12  3  1  0  0  0  0
 13 12  1  0  0  0  0
 13 14  1  0  0  0  0
 15 13  2  0  0  0  0
 16 15  1  0  0  0  0
 16 23  1  0  0  0  0
 17 16  2  0  0  0  0
 18 17  1  0  0  0  0
 19 17  1  0  0  0  0
 19 20  2  0  0  0  0
 20 22  1  0  0  0  0
 21 20  1  0  0  0  0
 22 23  2  0  0  0  0
 23 12  1  0  0  0  0
M  END
>  <minimizedAffinity>
-4.76299477

$$$$

 OpenBabel03272501503D

 23 25  0  0  0  0  0  0  0  0999 V2000
   36.4810   23.1710   31.6260 C   0  0  0  0  0  0  0  0  0  0  0  0
   37.4790   23.2720   32.6000 C   0  0  0  0  0  0  0  0  0  0  0  0
   37.5460   22.2460   33.5720 C   0  0  0  0  0  0  0  0  0  0  0  0
   36.6330   21.2280   33.4930 N   0  0  0  0  0  0  0  0  0  0  0  0
   35.6980   21.1850   32.5360 C   0  0  0  0  0  0  0  0  0  0  0  0
   35.6070   22.1540   31.5880 N   0  0  0  0  0  0  0  0  0  0  0  0
   34.8180   20.0720   32.5770 N   0  0  0  0  0  0  0  0  0  0  0  0
   36.3660   23.9100   30.8550 H   0  0  0  0  0  0  0  0  0  0  0  0
   38.1660   24.1020   32.6020 H   0  0  0  0  0  0  0  0  0  0  0  0
   33.7840   20.0000   32.6820 H   0  0  0  0  0  0  0  0  0  0  0  0
   35.3120   19.1340   32.4840 H   0  0  0  0  0  0  0  0  0  0  0  0
   38.5440   22.3020   34.5850 N   0  0  0  0  0  0  0  0  0  0  0  0
   39.8230   21.9540   34.2670 C   0  0  0  0  0  0  0  0  0  0  0  0
   40.2580   21.6220   33.3400 H   0  0  0  0  0  0  0  0  0  0  0  0
   40.6210   22.0680   35.3440 N   0  0  0  0  0  0  0  0  0  0  0  0
   39.8530   22.4910   36.3630 C   0  0  0  0  0  0  0  0  0  0  0  0
   40.0050   22.8090   37.7130 C   0  0  0  0  0  0  0  0  0  0  0  0
   41.0110   22.7080   38.1230 H   0  0  0  0  0  0  0  0  0  0  0  0
   38.9400   23.2160   38.4310 N   0  0  0  0  0  0  0  0  0  0  0  0
   37.7110   23.3370   37.9130 C   0  0  0  0  0  0  0  0  0  0  0  0
   36.9690   23.6690   38.5970 H   0  0  0  0  0  0  0  0  0  0  0  0
   37.4990   23.0410   36.6010 N   0  0  0  0  0  0  0  0  0  0  0  0
   38.5660   22.6350   35.8890 C   0  0  0  0  0  0  0  0  0  0  0  0
  1  2  1  0  0  0  0
  2  9  1  0  0  0  0
  2  3  2  0  0  0  0
  3 12  1  0  0  0  0
  4  3  1  0  0  0  0
  5  7  1  0  0  0  0
  5  4  2  0  0  0  0
  6  1  2  0  0  0  0
  6  5  1  0  0  0  0
  7 10  1  0  0  0  0
  8  1  1  0  0  0  0
 11  7  1  0  0  0  0
 12 23  1  0  0  0  0
 13 12  1  0  0  0  0
 13 15  2  0  0  0  0
 14 13  1  0  0  0  0
 15 16  1  0  0  0  0
 16 17  1  0  0  0  0
 17 18  1  0  0  0  0
 17 19  2  0  0  0  0
 20 19  1  0  0  0  0
 20 21  1  0  0  0  0
 22 20  2  0  0  0  0
 23 16  2  0  0  0  0
 23 22  1  0  0  0  0
M  END
>  <minimizedAffinity>
-4.65729141

$$$$

 OpenBabel03272501503D

 23 25  0  0  0  0  0  0  0  0999 V2000
   37.4880   19.6990   30.1710 C   0  0  0  0  0  0  0  0  0  0  0  0
   37.7520   20.9890   30.6420 C   0  0  0  0  0  0  0  0  0  0  0  0
   36.8450   21.5390   31.5790 C   0  0  0  0  0  0  0  0  0  0  0  0
   35.7750   20.7740   31.9600 N   0  0  0  0  0  0  0  0  0  0  0  0
   35.5730   19.5430   31.4750 C   0  0  0  0  0  0  0  0  0  0  0  0
   36.4250   18.9860   30.5740 N   0  0  0  0  0  0  0  0  0  0  0  0
   34.4240   18.8660   31.9590 N   0  0  0  0  0  0  0  0  0  0  0  0
   38.1280   19.2150   29.4590 H   0  0  0  0  0  0  0  0  0  0  0  0
   38.6150   21.5360   30.2980 H   0  0  0  0  0  0  0  0  0  0  0  0
   33.5810   18.4870   31.4780 H   0  0  0  0  0  0  0  0  0  0  0  0
   34.4270   18.7190   33.0130 H   0  0  0  0  0  0  0  0  0  0  0  0
   37.0700   22.8490   32.0880 N   0  0  0  0  0  0  0  0  0  0  0  0
   38.0220   23.0260   33.0470 C   0  0  0  0  0  0  0  0  0  0  0  0
   38.6820   22.3260   33.5290 H   0  0  0  0  0  0  0  0  0  0  0  0
   38.0910   24.3220   33.4040 N   0  0  0  0  0  0  0  0  0  0  0  0
   37.1790   24.9840   32.6720 C   0  0  0  0  0  0  0  0  0  0  0  0
   36.7210   26.2940   32.5240 C   0  0  0  0  0  0  0  0  0  0  0  0
   37.1990   27.0470   33.1520 H   0  0  0  0  0  0  0  0  0  0  0  0
   35.7410   26.5670   31.6390 N   0  0  0  0  0  0  0  0  0  0  0  0
   35.1660   25.6320   30.8730 C   0  0  0  0  0  0  0  0  0  0  0  0
   34.4080   25.9920   30.2220 H   0  0  0  0  0  0  0  0  0  0  0  0
   35.5690   24.3350   30.9730 N   0  0  0  0  0  0  0  0  0  0  0  0
   36.5470   24.0680   31.8580 C   0  0  0  0  0  0  0  0  0  0  0  0
  1  6  2  0  0  0  0
  1  2  1  0  0  0  0
  2  3  2  0  0  0  0
  3  4  1  0  0  0  0
  3 12  1  0  0  0  0
  5  7  1  0  0  0  0
  5  4  2  0  0  0  0
  6  5  1  0  0  0  0
  7 11  1  0  0  0  0
  8  1  1  0  0  0  0
  9  2  1  0  0  0  0
 10  7  1  0  0  0  0
 12 13  1  0  0  0  0
 13 15  2  0  0  0  0
 13 14  1  0  0  0  0
 16 15  1  0  0  0  0
 17 16  1  0  0  0  0
 17 18  1  0  0  0  0
 19 17  2  0  0  0  0
 20 22  2  0  0  0  0
 20 19  1  0  0  0  0
 21 20  1  0  0  0  0
 22 23  1  0  0  0  0
 23 12  1  0  0  0  0
 23 16  2  0  0  0  0
M  END
>  <minimizedAffinity>
-4.55187607

$$$$

 OpenBabel03272501503D

 23 25  0  0  0  0  0  0  0  0999 V2000
   38.1610   27.2410   32.4280 C   0  0  0  0  0  0  0  0  0  0  0  0
   38.8910   26.5210   33.3780 C   0  0  0  0  0  0  0  0  0  0  0  0
   38.4590   25.2060   33.6720 C   0  0  0  0  0  0  0  0  0  0  0  0
   37.3600   24.7300   33.0080 N   0  0  0  0  0  0  0  0  0  0  0  0
   36.7000   25.4670   32.1070 C   0  0  0  0  0  0  0  0  0  0  0  0
   37.0890   26.7320   31.8030 N   0  0  0  0  0  0  0  0  0  0  0  0
   35.5790   24.8450   31.4970 N   0  0  0  0  0  0  0  0  0  0  0  0
   38.4260   28.2440   32.1530 H   0  0  0  0  0  0  0  0  0  0  0  0
   39.7490   26.9580   33.8630 H   0  0  0  0  0  0  0  0  0  0  0  0
   34.5670   25.0920   31.4760 H   0  0  0  0  0  0  0  0  0  0  0  0
   35.8220   23.9580   30.9620 H   0  0  0  0  0  0  0  0  0  0  0  0
   39.1690   24.4310   34.6310 N   0  0  0  0  0  0  0  0  0  0  0  0
   40.3530   23.8600   34.2690 C   0  0  0  0  0  0  0  0  0  0  0  0
   40.8940   23.8790   33.3390 H   0  0  0  0  0  0  0  0  0  0  0  0
   40.8740   23.1700   35.3000 N   0  0  0  0  0  0  0  0  0  0  0  0
   40.0240   23.2960   36.3330 C   0  0  0  0  0  0  0  0  0  0  0  0
   39.9290   22.8650   37.6570 C   0  0  0  0  0  0  0  0  0  0  0  0
   40.7470   22.2440   38.0220 H   0  0  0  0  0  0  0  0  0  0  0  0
   38.8650   23.2220   38.4040 N   0  0  0  0  0  0  0  0  0  0  0  0
   37.8690   23.9860   37.9410 C   0  0  0  0  0  0  0  0  0  0  0  0
   37.0970   24.1870   38.6430 H   0  0  0  0  0  0  0  0  0  0  0  0
   37.9040   24.4370   36.6570 N   0  0  0  0  0  0  0  0  0  0  0  0
   38.9670   24.0780   35.9150 C   0  0  0  0  0  0  0  0  0  0  0  0
  1  2  1  0  0  0  0
  2  3  2  0  0  0  0
  2  9  1  0  0  0  0
  3 12  1  0  0  0  0
  4  3  1  0  0  0  0
  5  4  2  0  0  0  0
  6  5  1  0  0  0  0
  6  1  2  0  0  0  0
  7  5  1  0  0  0  0
  8  1  1  0  0  0  0
 10  7  1  0  0  0  0
 11  7  1  0  0  0  0
 12 23  1  0  0  0  0
 13 12  1  0  0  0  0
 13 15  2  0  0  0  0
 14 13  1  0  0  0  0
 15 16  1  0  0  0  0
 16 17  1  0  0  0  0
 17 18  1  0  0  0  0
 17 19  2  0  0  0  0
 20 19  1  0  0  0  0
 20 21  1  0  0  0  0
 22 20  2  0  0  0  0
 23 16  2  0  0  0  0
 23 22  1  0  0  0  0
M  END
>  <minimizedAffinity>
-4.49166679

$$$$

 OpenBabel03272501503D

 23 25  0  0  0  0  0  0  0  0999 V2000
   38.3810   23.3940   37.9670 C   0  0  0  0  0  0  0  0  0  0  0  0
   37.6790   23.2250   36.7700 C   0  0  0  0  0  0  0  0  0  0  0  0
   38.3400   22.5510   35.7160 C   0  0  0  0  0  0  0  0  0  0  0  0
   39.6180   22.1110   35.9390 N   0  0  0  0  0  0  0  0  0  0  0  0
   40.2410   22.3010   37.1080 C   0  0  0  0  0  0  0  0  0  0  0  0
   39.6340   22.9440   38.1400 N   0  0  0  0  0  0  0  0  0  0  0  0
   41.5630   21.7920   37.1980 N   0  0  0  0  0  0  0  0  0  0  0  0
   37.9470   23.8950   38.8120 H   0  0  0  0  0  0  0  0  0  0  0  0
   36.6730   23.5980   36.6630 H   0  0  0  0  0  0  0  0  0  0  0  0
   42.4790   22.2520   37.3780 H   0  0  0  0  0  0  0  0  0  0  0  0
   41.6250   20.7400   37.0520 H   0  0  0  0  0  0  0  0  0  0  0  0
   37.6690   22.3540   34.4770 N   0  0  0  0  0  0  0  0  0  0  0  0
   36.7280   21.3710   34.3890 C   0  0  0  0  0  0  0  0  0  0  0  0
   36.3680   20.6670   35.1180 H   0  0  0  0  0  0  0  0  0  0  0  0
   36.2040   21.3350   33.1500 N   0  0  0  0  0  0  0  0  0  0  0  0
   36.8100   22.2980   32.4340 C   0  0  0  0  0  0  0  0  0  0  0  0
   36.7670   22.8080   31.1360 C   0  0  0  0  0  0  0  0  0  0  0  0
   36.0600   22.3340   30.4540 H   0  0  0  0  0  0  0  0  0  0  0  0
   37.5730   23.8310   30.7890 N   0  0  0  0  0  0  0  0  0  0  0  0
   38.4350   24.4030   31.6380 C   0  0  0  0  0  0  0  0  0  0  0  0
   39.0060   25.1990   31.2260 H   0  0  0  0  0  0  0  0  0  0  0  0
   38.5240   23.9490   32.9190 N   0  0  0  0  0  0  0  0  0  0  0  0
   37.7170   22.9280   33.2600 C   0  0  0  0  0  0  0  0  0  0  0  0
  1  6  1  0  0  0  0
  1  8  1  0  0  0  0
  2  1  2  0  0  0  0
  3  4  2  0  0  0  0
  3  2  1  0  0  0  0
  4  5  1  0  0  0  0
  5  7  1  0  0  0  0
  5  6  2  0  0  0  0
  7 10  1  0  0  0  0
  9  2  1  0  0  0  0
 11  7  1  0  0  0  0
 12  3  1  0  0  0  0
 13 12  1  0  0  0  0
 13 14  1  0  0  0  0
 15 13  2  0  0  0  0
 16 15  1  0  0  0  0
 16 23  1  0  0  0  0
 17 16  2  0  0  0  0
 18 17  1  0  0  0  0
 19 17  1  0  0  0  0
 19 20  2  0  0  0  0
 20 22  1  0  0  0  0
 21 20  1  0  0  0  0
 22 23  2  0  0  0  0
 23 12  1  0  0  0  0
M  END
>  <minimizedAffinity>
-4.41450262

$$$$

 OpenBabel03272501503D

 23 25  0  0  0  0  0  0  0  0999 V2000
   35.1010   32.7520   36.5330 C   0  0  0  0  0  0  0  0  0  0  0  0
   35.5420   32.0960   35.3800 C   0  0  0  0  0  0  0  0  0  0  0  0
   34.8010   30.9710   34.9460 C   0  0  0  0  0  0  0  0  0  0  0  0
   33.7060   30.6040   35.6820 N   0  0  0  0  0  0  0  0  0  0  0  0
   33.3310   31.2710   36.7800 C   0  0  0  0  0  0  0  0  0  0  0  0
   34.0210   32.3550   37.2220 N   0  0  0  0  0  0  0  0  0  0  0  0
   32.1760   30.7780   37.4420 N   0  0  0  0  0  0  0  0  0  0  0  0
   35.6110   33.6120   36.9250 H   0  0  0  0  0  0  0  0  0  0  0  0
   36.4150   32.4400   34.8480 H   0  0  0  0  0  0  0  0  0  0  0  0
   32.0250   30.4120   38.4060 H   0  0  0  0  0  0  0  0  0  0  0  0
   31.3010   30.7840   36.8370 H   0  0  0  0  0  0  0  0  0  0  0  0
   35.2090   30.2690   33.7780 N   0  0  0  0  0  0  0  0  0  0  0  0
   34.9280   30.8060   32.5570 C   0  0  0  0  0  0  0  0  0  0  0  0
   34.4260   31.7170   32.2820 H   0  0  0  0  0  0  0  0  0  0  0  0
   35.3880   30.0060   31.5770 N   0  0  0  0  0  0  0  0  0  0  0  0
   35.9660   28.9470   32.1680 C   0  0  0  0  0  0  0  0  0  0  0  0
   36.6220   27.7760   31.7860 C   0  0  0  0  0  0  0  0  0  0  0  0
   36.7300   27.6110   30.7130 H   0  0  0  0  0  0  0  0  0  0  0  0
   37.0800   26.9250   32.7260 N   0  0  0  0  0  0  0  0  0  0  0  0
   36.9410   27.1420   34.0390 C   0  0  0  0  0  0  0  0  0  0  0  0
   37.3520   26.3860   34.6620 H   0  0  0  0  0  0  0  0  0  0  0  0
   36.3100   28.2670   34.4750 N   0  0  0  0  0  0  0  0  0  0  0  0
   35.8540   29.1120   33.5320 C   0  0  0  0  0  0  0  0  0  0  0  0
  1  8  1  0  0  0  0
  1  6  1  0  0  0  0
  2  1  2  0  0  0  0
  3  2  1  0  0  0  0
  3  4  2  0  0  0  0
  4  5  1  0  0  0  0
  5  6  2  0  0  0  0
  5  7  1  0  0  0  0
  7 10  1  0  0  0  0
  9  2  1  0  0  0  0
 11  7  1  0  0  0  0
 12  3  1  0  0  0  0
 13 12  1  0  0  0  0
 14 13  1  0  0  0  0
 15 16  1  0  0  0  0
 15 13  2  0  0  0  0
 16 23  1  0  0  0  0
 17 16  2  0  0  0  0
 17 19  1  0  0  0  0
 18 17  1  0  0  0  0
 19 20  2  0  0  0  0
 20 22  1  0  0  0  0
 20 21  1  0  0  0  0
 23 12  1  0  0  0  0
 23 22  2  0  0  0  0
M  END
>  <minimizedAffinity>
-4.34215355

$$$$

 OpenBabel03272501503D

 23 25  0  0  0  0  0  0  0  0999 V2000
   36.4230   29.6740   31.6040 C   0  0  0  0  0  0  0  0  0  0  0  0
   35.8710   30.4510   32.6270 C   0  0  0  0  0  0  0  0  0  0  0  0
   35.6870   29.8340   33.8870 C   0  0  0  0  0  0  0  0  0  0  0  0
   36.0620   28.5230   34.0190 N   0  0  0  0  0  0  0  0  0  0  0  0
   36.5860   27.8280   33.0030 C   0  0  0  0  0  0  0  0  0  0  0  0
   36.7750   28.3910   31.7810 N   0  0  0  0  0  0  0  0  0  0  0  0
   36.9280   26.4800   33.2840 N   0  0  0  0  0  0  0  0  0  0  0  0
   36.5920   30.0700   30.6210 H   0  0  0  0  0  0  0  0  0  0  0  0
   35.5980   31.4790   32.4530 H   0  0  0  0  0  0  0  0  0  0  0  0
   36.6040   25.5760   32.8780 H   0  0  0  0  0  0  0  0  0  0  0  0
   37.6530   26.3750   34.0550 H   0  0  0  0  0  0  0  0  0  0  0  0
   35.1290   30.5820   34.9610 N   0  0  0  0  0  0  0  0  0  0  0  0
   35.9190   31.4760   35.6200 C   0  0  0  0  0  0  0  0  0  0  0  0
   36.9510   31.7470   35.4800 H   0  0  0  0  0  0  0  0  0  0  0  0
   35.2230   32.0850   36.5970 N   0  0  0  0  0  0  0  0  0  0  0  0
   33.9780   31.5810   36.5700 C   0  0  0  0  0  0  0  0  0  0  0  0
   32.7790   31.7430   37.2660 C   0  0  0  0  0  0  0  0  0  0  0  0
   32.7850   32.4720   38.0760 H   0  0  0  0  0  0  0  0  0  0  0  0
   31.6980   31.0150   36.9190 N   0  0  0  0  0  0  0  0  0  0  0  0
   31.7060   30.1240   35.9200 C   0  0  0  0  0  0  0  0  0  0  0  0
   30.7820   29.6250   35.7600 H   0  0  0  0  0  0  0  0  0  0  0  0
   32.8470   29.9210   35.2040 N   0  0  0  0  0  0  0  0  0  0  0  0
   33.9220   30.6500   35.5560 C   0  0  0  0  0  0  0  0  0  0  0  0
  1  6  2  0  0  0  0
  1  2  1  0  0  0  0
  2  3  2  0  0  0  0
  3  4  1  0  0  0  0
  3 12  1  0  0  0  0
  5  7  1  0  0  0  0
  5  4  2  0  0  0  0
  6  5  1  0  0  0  0
  7 11  1  0  0  0  0
  8  1  1  0  0  0  0
  9  2  1  0  0  0  0
 10  7  1  0  0  0  0
 12 23  1  0  0  0  0
 12 13  1  0  0  0  0
 13 15  2  0  0  0  0
 14 13  1  0  0  0  0
 16 15  1  0  0  0  0
 16 17  1  0  0  0  0
 17 18  1  0  0  0  0
 19 17  2  0  0  0  0
 20 19  1  0  0  0  0
 21 20  1  0  0  0  0
 22 23  1  0  0  0  0
 22 20  2  0  0  0  0
 23 16  2  0  0  0  0
M  END
>  <minimizedAffinity>
-4.3205924

$$$$

 OpenBabel03272501503D

 23 25  0  0  0  0  0  0  0  0999 V2000
   35.9940   29.0810   31.8580 C   0  0  0  0  0  0  0  0  0  0  0  0
   36.3420   27.9010   32.5230 C   0  0  0  0  0  0  0  0  0  0  0  0
   37.0830   26.9380   31.7970 C   0  0  0  0  0  0  0  0  0  0  0  0
   37.4070   27.2270   30.4980 N   0  0  0  0  0  0  0  0  0  0  0  0
   37.0460   28.3750   29.9130 C   0  0  0  0  0  0  0  0  0  0  0  0
   36.3340   29.3190   30.5830 N   0  0  0  0  0  0  0  0  0  0  0  0
   37.4510   28.5380   28.5630 N   0  0  0  0  0  0  0  0  0  0  0  0
   35.4320   29.8580   32.3420 H   0  0  0  0  0  0  0  0  0  0  0  0
   36.0530   27.7400   33.5490 H   0  0  0  0  0  0  0  0  0  0  0  0
   36.9120   28.6780   27.6820 H   0  0  0  0  0  0  0  0  0  0  0  0
   38.5060   28.5130   28.4270 H   0  0  0  0  0  0  0  0  0  0  0  0
   37.4620   25.7210   32.4290 N   0  0  0  0  0  0  0  0  0  0  0  0
   38.5100   25.7320   33.3000 C   0  0  0  0  0  0  0  0  0  0  0  0
   39.1520   26.5320   33.6280 H   0  0  0  0  0  0  0  0  0  0  0  0
   38.7200   24.4990   33.7950 N   0  0  0  0  0  0  0  0  0  0  0  0
   37.8040   23.6870   33.2400 C   0  0  0  0  0  0  0  0  0  0  0  0
   37.4470   22.3390   33.2900 C   0  0  0  0  0  0  0  0  0  0  0  0
   38.0410   21.7060   33.9500 H   0  0  0  0  0  0  0  0  0  0  0  0
   36.4160   21.8900   32.5460 N   0  0  0  0  0  0  0  0  0  0  0  0
   35.6960   22.6800   31.7410 C   0  0  0  0  0  0  0  0  0  0  0  0
   34.9140   22.1880   31.2160 H   0  0  0  0  0  0  0  0  0  0  0  0
   35.9960   24.0050   31.6490 N   0  0  0  0  0  0  0  0  0  0  0  0
   37.0260   24.4480   32.3930 C   0  0  0  0  0  0  0  0  0  0  0  0
  1  8  1  0  0  0  0
  1  2  1  0  0  0  0
  2  9  1  0  0  0  0
  3 12  1  0  0  0  0
  3  2  2  0  0  0  0
  4  3  1  0  0  0  0
  5  4  2  0  0  0  0
  5  6  1  0  0  0  0
  6  1  2  0  0  0  0
  7  5  1  0  0  0  0
 10  7  1  0  0  0  0
 11  7  1  0  0  0  0
 12 13  1  0  0  0  0
 13 14  1  0  0  0  0
 13 15  2  0  0  0  0
 16 17  1  0  0  0  0
 16 15  1  0  0  0  0
 17 18  1  0  0  0  0
 19 17  2  0  0  0  0
 20 19  1  0  0  0  0
 21 20  1  0  0  0  0
 22 20  2  0  0  0  0
 22 23  1  0  0  0  0
 23 12  1  0  0  0  0
 23 16  2  0  0  0  0
M  END
>  <minimizedAffinity>
-4.27611828

$$$$
