
 OpenBabel03272510073D

 33 36  0  0  0  0  0  0  0  0999 V2000
   37.7430   24.9910   33.8510 C   0  0  0  0  0  0  0  0  0  0  0  0
   37.9730   25.4120   35.1770 C   0  0  0  0  0  0  0  0  0  0  0  0
   37.7560   26.7640   35.4940 C   0  0  0  0  0  0  0  0  0  0  0  0
   37.3390   27.5870   34.5010 N   0  0  0  0  0  0  0  0  0  0  0  0
   37.1270   27.1600   33.2380 C   0  0  0  0  0  0  0  0  0  0  0  0
   37.3290   25.8800   32.9270 N   0  0  0  0  0  0  0  0  0  0  0  0
   36.6850   28.1100   32.2580 N   0  0  0  0  0  0  0  0  0  0  0  0
   35.4470   28.8790   32.3940 C   0  0  0  0  0  0  0  0  0  0  0  0
   35.5060   29.8710   31.2960 C   0  0  0  0  0  0  0  0  0  0  0  0
   36.9100   29.8040   30.7330 C   0  0  0  0  0  0  0  0  0  0  0  0
   37.3900   28.4270   31.0280 C   0  0  0  0  0  0  0  0  0  0  0  0
   37.8860   23.9690   33.5250 H   0  0  0  0  0  0  0  0  0  0  0  0
   37.9280   27.1040   36.5090 H   0  0  0  0  0  0  0  0  0  0  0  0
   35.4900   29.3590   33.3930 H   0  0  0  0  0  0  0  0  0  0  0  0
   34.6050   28.1640   32.3520 H   0  0  0  0  0  0  0  0  0  0  0  0
   34.8180   29.5680   30.4790 H   0  0  0  0  0  0  0  0  0  0  0  0
   35.2770   30.8880   31.6640 H   0  0  0  0  0  0  0  0  0  0  0  0
   36.8780   29.9060   29.6190 H   0  0  0  0  0  0  0  0  0  0  0  0
   37.5530   30.6110   31.1270 H   0  0  0  0  0  0  0  0  0  0  0  0
   38.4890   28.4480   31.1620 H   0  0  0  0  0  0  0  0  0  0  0  0
   37.1270   27.7040   30.2340 H   0  0  0  0  0  0  0  0  0  0  0  0
   38.4070   24.4690   36.1290 N   0  0  0  0  0  0  0  0  0  0  0  0
   37.6410   24.0820   37.1480 C   0  0  0  0  0  0  0  0  0  0  0  0
   36.6360   24.3620   37.4490 H   0  0  0  0  0  0  0  0  0  0  0  0
   38.3190   23.1710   37.8940 N   0  0  0  0  0  0  0  0  0  0  0  0
   39.5240   22.9960   37.3210 C   0  0  0  0  0  0  0  0  0  0  0  0
   40.6520   22.2290   37.5780 C   0  0  0  0  0  0  0  0  0  0  0  0
   40.5780   21.6000   38.4530 H   0  0  0  0  0  0  0  0  0  0  0  0
   41.7530   22.2660   36.7950 N   0  0  0  0  0  0  0  0  0  0  0  0
   41.7620   23.0780   35.7200 C   0  0  0  0  0  0  0  0  0  0  0  0
   42.6360   23.1130   35.0910 H   0  0  0  0  0  0  0  0  0  0  0  0
   40.6910   23.8590   35.4070 N   0  0  0  0  0  0  0  0  0  0  0  0
   39.5780   23.8250   36.1940 C   0  0  0  0  0  0  0  0  0  0  0  0
  1  2  1  0  0  0  0
  2  3  2  0  0  0  0
  2 22  1  0  0  0  0
  3 13  1  0  0  0  0
  4  3  1  0  0  0  0
  5  4  2  0  0  0  0
  6  5  1  0  0  0  0
  6  1  2  0  0  0  0
  7  8  1  0  0  0  0
  7  5  1  0  0  0  0
  8 14  1  0  0  0  0
  9 17  1  0  0  0  0
  9  8  1  0  0  0  0
 10 11  1  0  0  0  0
 10 19  1  0  0  0  0
 10  9  1  0  0  0  0
 11 20  1  0  0  0  0
 11  7  1  0  0  0  0
 12  1  1  0  0  0  0
 15  8  1  0  0  0  0
 16  9  1  0  0  0  0
 18 10  1  0  0  0  0
 21 11  1  0  0  0  0
 22 33  1  0  0  0  0
 22 23  1  0  0  0  0
 23 24  1  0  0  0  0
 23 25  2  0  0  0  0
 26 27  1  0  0  0  0
 26 25  1  0  0  0  0
 27 28  1  0  0  0  0
 29 27  2  0  0  0  0
 30 29  1  0  0  0  0
 31 30  1  0  0  0  0
 32 30  2  0  0  0  0
 32 33  1  0  0  0  0
 33 26  2  0  0  0  0
M  END
>  <minimizedAffinity>
-5.3507843

$$$$

 OpenBabel03272510073D

 33 36  0  0  0  0  0  0  0  0999 V2000
   37.3930   25.7460   32.9130 C   0  0  0  0  0  0  0  0  0  0  0  0
   37.8650   25.9450   34.2270 C   0  0  0  0  0  0  0  0  0  0  0  0
   37.5380   27.1460   34.8790 C   0  0  0  0  0  0  0  0  0  0  0  0
   36.7860   28.0480   34.2020 N   0  0  0  0  0  0  0  0  0  0  0  0
   36.3460   27.8350   32.9430 C   0  0  0  0  0  0  0  0  0  0  0  0
   36.6500   26.6990   32.3160 N   0  0  0  0  0  0  0  0  0  0  0  0
   35.5560   28.8530   32.3120 N   0  0  0  0  0  0  0  0  0  0  0  0
   34.2880   29.3340   32.8630 C   0  0  0  0  0  0  0  0  0  0  0  0
   33.9440   30.5090   32.0290 C   0  0  0  0  0  0  0  0  0  0  0  0
   35.1720   30.8170   31.1970 C   0  0  0  0  0  0  0  0  0  0  0  0
   35.8990   29.5240   31.0700 C   0  0  0  0  0  0  0  0  0  0  0  0
   37.6000   24.8510   32.3430 H   0  0  0  0  0  0  0  0  0  0  0  0
   37.8930   27.3140   35.8880 H   0  0  0  0  0  0  0  0  0  0  0  0
   34.4950   29.6150   33.9150 H   0  0  0  0  0  0  0  0  0  0  0  0
   33.5700   28.4930   32.8280 H   0  0  0  0  0  0  0  0  0  0  0  0
   33.1340   30.2410   31.3190 H   0  0  0  0  0  0  0  0  0  0  0  0
   33.6660   31.3750   32.6560 H   0  0  0  0  0  0  0  0  0  0  0  0
   34.8640   31.1190   30.1640 H   0  0  0  0  0  0  0  0  0  0  0  0
   35.7670   31.6410   31.6270 H   0  0  0  0  0  0  0  0  0  0  0  0
   36.9850   29.7280   30.9840 H   0  0  0  0  0  0  0  0  0  0  0  0
   35.5620   28.9280   30.2030 H   0  0  0  0  0  0  0  0  0  0  0  0
   38.6410   24.9370   34.8340 N   0  0  0  0  0  0  0  0  0  0  0  0
   39.6020   24.2890   34.1800 C   0  0  0  0  0  0  0  0  0  0  0  0
   39.9700   24.3680   33.1620 H   0  0  0  0  0  0  0  0  0  0  0  0
   40.1740   23.3810   35.0150 N   0  0  0  0  0  0  0  0  0  0  0  0
   39.5510   23.4760   36.2030 C   0  0  0  0  0  0  0  0  0  0  0  0
   39.6520   22.8510   37.4380 C   0  0  0  0  0  0  0  0  0  0  0  0
   40.4160   22.0900   37.4960 H   0  0  0  0  0  0  0  0  0  0  0  0
   38.8590   23.1710   38.4840 N   0  0  0  0  0  0  0  0  0  0  0  0
   37.9300   24.1340   38.3280 C   0  0  0  0  0  0  0  0  0  0  0  0
   37.2930   24.3940   39.1580 H   0  0  0  0  0  0  0  0  0  0  0  0
   37.7740   24.7890   37.1440 N   0  0  0  0  0  0  0  0  0  0  0  0
   38.5720   24.4700   36.0860 C   0  0  0  0  0  0  0  0  0  0  0  0
  1  2  1  0  0  0  0
  2 22  1  0  0  0  0
  2  3  2  0  0  0  0
  3 13  1  0  0  0  0
  4  3  1  0  0  0  0
  5  4  2  0  0  0  0
  6  1  2  0  0  0  0
  6  5  1  0  0  0  0
  7  8  1  0  0  0  0
  7  5  1  0  0  0  0
  8 14  1  0  0  0  0
  9 17  1  0  0  0  0
  9  8  1  0  0  0  0
 10 19  1  0  0  0  0
 10  9  1  0  0  0  0
 11 10  1  0  0  0  0
 11  7  1  0  0  0  0
 12  1  1  0  0  0  0
 15  8  1  0  0  0  0
 16  9  1  0  0  0  0
 18 10  1  0  0  0  0
 20 11  1  0  0  0  0
 21 11  1  0  0  0  0
 22 33  1  0  0  0  0
 23 22  1  0  0  0  0
 23 25  2  0  0  0  0
 24 23  1  0  0  0  0
 25 26  1  0  0  0  0
 26 27  1  0  0  0  0
 27 28  1  0  0  0  0
 27 29  2  0  0  0  0
 30 29  1  0  0  0  0
 30 31  1  0  0  0  0
 32 30  2  0  0  0  0
 33 26  2  0  0  0  0
 33 32  1  0  0  0  0
M  END
>  <minimizedAffinity>
-5.29711676

$$$$

 OpenBabel03272510073D

 33 36  0  0  0  0  0  0  0  0999 V2000
   37.0660   25.7240   32.1460 C   0  0  0  0  0  0  0  0  0  0  0  0
   36.0000   26.3740   31.4890 C   0  0  0  0  0  0  0  0  0  0  0  0
   34.9910   25.5830   30.9140 C   0  0  0  0  0  0  0  0  0  0  0  0
   35.1020   24.2370   31.0240 N   0  0  0  0  0  0  0  0  0  0  0  0
   36.1340   23.6380   31.6580 C   0  0  0  0  0  0  0  0  0  0  0  0
   37.0960   24.3790   32.2070 N   0  0  0  0  0  0  0  0  0  0  0  0
   36.1610   22.2050   31.7200 N   0  0  0  0  0  0  0  0  0  0  0  0
   35.0930   21.4130   32.3330 C   0  0  0  0  0  0  0  0  0  0  0  0
   35.4210   20.0130   31.9780 C   0  0  0  0  0  0  0  0  0  0  0  0
   36.5240   20.0810   30.9430 C   0  0  0  0  0  0  0  0  0  0  0  0
   37.2270   21.3680   31.1980 C   0  0  0  0  0  0  0  0  0  0  0  0
   37.8820   26.2590   32.6140 H   0  0  0  0  0  0  0  0  0  0  0  0
   34.1650   26.0670   30.4060 H   0  0  0  0  0  0  0  0  0  0  0  0
   34.1480   21.7530   31.8640 H   0  0  0  0  0  0  0  0  0  0  0  0
   35.0860   21.6460   33.4150 H   0  0  0  0  0  0  0  0  0  0  0  0
   35.8410   19.4900   32.8620 H   0  0  0  0  0  0  0  0  0  0  0  0
   34.5360   19.4860   31.5760 H   0  0  0  0  0  0  0  0  0  0  0  0
   37.2670   19.2630   31.1260 H   0  0  0  0  0  0  0  0  0  0  0  0
   36.1370   19.9620   29.9170 H   0  0  0  0  0  0  0  0  0  0  0  0
   37.6370   21.7510   30.2420 H   0  0  0  0  0  0  0  0  0  0  0  0
   38.0410   21.2710   31.9390 H   0  0  0  0  0  0  0  0  0  0  0  0
   35.9870   27.7820   31.4350 N   0  0  0  0  0  0  0  0  0  0  0  0
   35.3840   28.5230   32.3620 C   0  0  0  0  0  0  0  0  0  0  0  0
   34.8330   28.2590   33.2590 H   0  0  0  0  0  0  0  0  0  0  0  0
   35.5350   29.8370   32.0480 N   0  0  0  0  0  0  0  0  0  0  0  0
   36.2460   29.9010   30.9080 C   0  0  0  0  0  0  0  0  0  0  0  0
   36.7250   30.9090   30.0830 C   0  0  0  0  0  0  0  0  0  0  0  0
   36.4870   31.9100   30.4120 H   0  0  0  0  0  0  0  0  0  0  0  0
   37.4340   30.6580   28.9610 N   0  0  0  0  0  0  0  0  0  0  0  0
   37.6890   29.3790   28.6220 C   0  0  0  0  0  0  0  0  0  0  0  0
   38.2530   29.1710   27.7290 H   0  0  0  0  0  0  0  0  0  0  0  0
   37.2490   28.3390   29.3830 N   0  0  0  0  0  0  0  0  0  0  0  0
   36.5330   28.5880   30.5170 C   0  0  0  0  0  0  0  0  0  0  0  0
  1  6  1  0  0  0  0
  1 12  1  0  0  0  0
  2  1  2  0  0  0  0
  3  4  2  0  0  0  0
  3  2  1  0  0  0  0
  4  5  1  0  0  0  0
  5  7  1  0  0  0  0
  5  6  2  0  0  0  0
  7  8  1  0  0  0  0
  8 15  1  0  0  0  0
  9  8  1  0  0  0  0
  9 16  1  0  0  0  0
 10 18  1  0  0  0  0
 10 11  1  0  0  0  0
 10  9  1  0  0  0  0
 11  7  1  0  0  0  0
 11 21  1  0  0  0  0
 13  3  1  0  0  0  0
 14  8  1  0  0  0  0
 17  9  1  0  0  0  0
 19 10  1  0  0  0  0
 20 11  1  0  0  0  0
 22  2  1  0  0  0  0
 22 23  1  0  0  0  0
 23 24  1  0  0  0  0
 25 23  2  0  0  0  0
 26 25  1  0  0  0  0
 27 28  1  0  0  0  0
 27 26  2  0  0  0  0
 29 27  1  0  0  0  0
 30 29  2  0  0  0  0
 30 32  1  0  0  0  0
 31 30  1  0  0  0  0
 32 33  2  0  0  0  0
 33 26  1  0  0  0  0
 33 22  1  0  0  0  0
M  END
>  <minimizedAffinity>
-5.2802639

$$$$

 OpenBabel03272510073D

 33 36  0  0  0  0  0  0  0  0999 V2000
   37.3660   25.6610   31.7560 C   0  0  0  0  0  0  0  0  0  0  0  0
   36.2620   26.3760   31.2440 C   0  0  0  0  0  0  0  0  0  0  0  0
   35.1160   25.6530   30.8690 C   0  0  0  0  0  0  0  0  0  0  0  0
   35.1400   24.3070   31.0220 N   0  0  0  0  0  0  0  0  0  0  0  0
   36.2100   23.6450   31.5140 C   0  0  0  0  0  0  0  0  0  0  0  0
   37.3010   24.3210   31.8720 N   0  0  0  0  0  0  0  0  0  0  0  0
   36.1360   22.2180   31.6360 N   0  0  0  0  0  0  0  0  0  0  0  0
   35.1220   21.5370   32.4430 C   0  0  0  0  0  0  0  0  0  0  0  0
   35.2800   20.1050   32.1050 C   0  0  0  0  0  0  0  0  0  0  0  0
   36.2070   20.0470   30.9090 C   0  0  0  0  0  0  0  0  0  0  0  0
   37.0380   21.2780   30.9920 C   0  0  0  0  0  0  0  0  0  0  0  0
   38.2840   26.1410   32.0670 H   0  0  0  0  0  0  0  0  0  0  0  0
   34.2600   26.1870   30.4750 H   0  0  0  0  0  0  0  0  0  0  0  0
   34.1430   21.9390   32.1110 H   0  0  0  0  0  0  0  0  0  0  0  0
   35.3040   21.8050   33.5010 H   0  0  0  0  0  0  0  0  0  0  0  0
   35.7930   19.5770   32.9360 H   0  0  0  0  0  0  0  0  0  0  0  0
   34.3050   19.6400   31.8700 H   0  0  0  0  0  0  0  0  0  0  0  0
   36.9040   19.1770   31.0110 H   0  0  0  0  0  0  0  0  0  0  0  0
   35.6540   19.9270   29.9610 H   0  0  0  0  0  0  0  0  0  0  0  0
   37.3190   21.5950   29.9680 H   0  0  0  0  0  0  0  0  0  0  0  0
   37.9500   21.1390   31.6010 H   0  0  0  0  0  0  0  0  0  0  0  0
   36.3490   27.7770   31.1290 N   0  0  0  0  0  0  0  0  0  0  0  0
   36.7840   28.3750   30.0210 C   0  0  0  0  0  0  0  0  0  0  0  0
   37.1290   27.9810   29.0710 H   0  0  0  0  0  0  0  0  0  0  0  0
   36.7570   29.7210   30.2020 N   0  0  0  0  0  0  0  0  0  0  0  0
   36.2970   29.9530   31.4440 C   0  0  0  0  0  0  0  0  0  0  0  0
   36.0390   31.0730   32.2230 C   0  0  0  0  0  0  0  0  0  0  0  0
   36.2490   32.0150   31.7390 H   0  0  0  0  0  0  0  0  0  0  0  0
   35.5620   30.9910   33.4840 N   0  0  0  0  0  0  0  0  0  0  0  0
   35.3250   29.7740   34.0140 C   0  0  0  0  0  0  0  0  0  0  0  0
   34.9440   29.7000   35.0190 H   0  0  0  0  0  0  0  0  0  0  0  0
   35.5550   28.6320   33.3080 N   0  0  0  0  0  0  0  0  0  0  0  0
   36.0360   28.7110   32.0350 C   0  0  0  0  0  0  0  0  0  0  0  0
  1  6  1  0  0  0  0
  1 12  1  0  0  0  0
  2  1  2  0  0  0  0
  3  4  2  0  0  0  0
  3  2  1  0  0  0  0
  4  5  1  0  0  0  0
  5  7  1  0  0  0  0
  5  6  2  0  0  0  0
  7  8  1  0  0  0  0
  8 15  1  0  0  0  0
  9  8  1  0  0  0  0
  9 16  1  0  0  0  0
 10 11  1  0  0  0  0
 10 18  1  0  0  0  0
 10  9  1  0  0  0  0
 11 21  1  0  0  0  0
 11  7  1  0  0  0  0
 13  3  1  0  0  0  0
 14  8  1  0  0  0  0
 17  9  1  0  0  0  0
 19 10  1  0  0  0  0
 20 11  1  0  0  0  0
 22  2  1  0  0  0  0
 22 33  1  0  0  0  0
 23 25  2  0  0  0  0
 23 22  1  0  0  0  0
 24 23  1  0  0  0  0
 25 26  1  0  0  0  0
 26 33  2  0  0  0  0
 26 27  1  0  0  0  0
 27 29  2  0  0  0  0
 28 27  1  0  0  0  0
 29 30  1  0  0  0  0
 30 31  1  0  0  0  0
 32 30  2  0  0  0  0
 33 32  1  0  0  0  0
M  END
>  <minimizedAffinity>
-5.15530586

$$$$

 OpenBabel03272510073D

 33 36  0  0  0  0  0  0  0  0999 V2000
   37.6250   25.5040   33.2220 C   0  0  0  0  0  0  0  0  0  0  0  0
   38.4600   26.6270   33.0400 C   0  0  0  0  0  0  0  0  0  0  0  0
   39.5220   26.8200   33.9400 C   0  0  0  0  0  0  0  0  0  0  0  0
   39.6810   25.9130   34.9340 N   0  0  0  0  0  0  0  0  0  0  0  0
   38.8680   24.8460   35.0880 C   0  0  0  0  0  0  0  0  0  0  0  0
   37.8580   24.6540   34.2400 N   0  0  0  0  0  0  0  0  0  0  0  0
   39.1190   23.9420   36.1740 N   0  0  0  0  0  0  0  0  0  0  0  0
   40.3840   23.2240   36.3370 C   0  0  0  0  0  0  0  0  0  0  0  0
   40.2860   22.6010   37.6760 C   0  0  0  0  0  0  0  0  0  0  0  0
   39.0700   23.2100   38.3430 C   0  0  0  0  0  0  0  0  0  0  0  0
   38.1740   23.6260   37.2300 C   0  0  0  0  0  0  0  0  0  0  0  0
   36.7870   25.2840   32.5740 H   0  0  0  0  0  0  0  0  0  0  0  0
   40.1730   27.6770   33.8140 H   0  0  0  0  0  0  0  0  0  0  0  0
   41.1830   23.9920   36.2910 H   0  0  0  0  0  0  0  0  0  0  0  0
   40.4810   22.5240   35.4860 H   0  0  0  0  0  0  0  0  0  0  0  0
   40.0840   21.5150   37.5710 H   0  0  0  0  0  0  0  0  0  0  0  0
   41.1980   22.7890   38.2720 H   0  0  0  0  0  0  0  0  0  0  0  0
   38.5240   22.4250   38.9250 H   0  0  0  0  0  0  0  0  0  0  0  0
   39.3440   24.0200   39.0420 H   0  0  0  0  0  0  0  0  0  0  0  0
   37.5850   24.5080   37.5510 H   0  0  0  0  0  0  0  0  0  0  0  0
   37.4900   22.8190   36.9080 H   0  0  0  0  0  0  0  0  0  0  0  0
   38.2010   27.5060   31.9700 N   0  0  0  0  0  0  0  0  0  0  0  0
   38.9720   27.5530   30.8850 C   0  0  0  0  0  0  0  0  0  0  0  0
   39.8630   27.0010   30.6020 H   0  0  0  0  0  0  0  0  0  0  0  0
   38.4800   28.4880   30.0300 N   0  0  0  0  0  0  0  0  0  0  0  0
   37.3870   29.0240   30.6020 C   0  0  0  0  0  0  0  0  0  0  0  0
   36.4560   29.9960   30.2650 C   0  0  0  0  0  0  0  0  0  0  0  0
   36.6200   30.4610   29.3040 H   0  0  0  0  0  0  0  0  0  0  0  0
   35.4270   30.3330   31.0730 N   0  0  0  0  0  0  0  0  0  0  0  0
   35.2940   29.7030   32.2570 C   0  0  0  0  0  0  0  0  0  0  0  0
   34.4760   29.9660   32.9070 H   0  0  0  0  0  0  0  0  0  0  0  0
   36.1700   28.7390   32.6540 N   0  0  0  0  0  0  0  0  0  0  0  0
   37.2100   28.3960   31.8410 C   0  0  0  0  0  0  0  0  0  0  0  0
  1  6  1  0  0  0  0
  2  1  2  0  0  0  0
  2  3  1  0  0  0  0
  3  4  2  0  0  0  0
  4  5  1  0  0  0  0
  5  7  1  0  0  0  0
  6  5  2  0  0  0  0
  7  8  1  0  0  0  0
  7 11  1  0  0  0  0
  8  9  1  0  0  0  0
  9 17  1  0  0  0  0
  9 10  1  0  0  0  0
 10 18  1  0  0  0  0
 10 19  1  0  0  0  0
 11 20  1  0  0  0  0
 11 10  1  0  0  0  0
 12  1  1  0  0  0  0
 13  3  1  0  0  0  0
 14  8  1  0  0  0  0
 15  8  1  0  0  0  0
 16  9  1  0  0  0  0
 21 11  1  0  0  0  0
 22  2  1  0  0  0  0
 23 22  1  0  0  0  0
 24 23  1  0  0  0  0
 25 26  1  0  0  0  0
 25 23  2  0  0  0  0
 26 33  1  0  0  0  0
 27 26  2  0  0  0  0
 27 29  1  0  0  0  0
 28 27  1  0  0  0  0
 29 30  2  0  0  0  0
 30 32  1  0  0  0  0
 30 31  1  0  0  0  0
 33 22  1  0  0  0  0
 33 32  2  0  0  0  0
M  END
>  <minimizedAffinity>
-5.12545776

$$$$

 OpenBabel03272510073D

 33 36  0  0  0  0  0  0  0  0999 V2000
   37.6390   25.3900   33.6130 C   0  0  0  0  0  0  0  0  0  0  0  0
   37.9490   26.7490   33.8280 C   0  0  0  0  0  0  0  0  0  0  0  0
   38.9910   27.0620   34.7180 C   0  0  0  0  0  0  0  0  0  0  0  0
   39.6380   26.0350   35.3200 N   0  0  0  0  0  0  0  0  0  0  0  0
   39.3220   24.7400   35.0990 C   0  0  0  0  0  0  0  0  0  0  0  0
   38.3350   24.4330   34.2570 N   0  0  0  0  0  0  0  0  0  0  0  0
   40.0670   23.7250   35.7860 N   0  0  0  0  0  0  0  0  0  0  0  0
   41.5170   23.5760   35.6580 C   0  0  0  0  0  0  0  0  0  0  0  0
   41.8790   22.5760   36.6890 C   0  0  0  0  0  0  0  0  0  0  0  0
   40.6480   22.3880   37.5520 C   0  0  0  0  0  0  0  0  0  0  0  0
   39.4950   22.7310   36.6770 C   0  0  0  0  0  0  0  0  0  0  0  0
   36.8520   25.0650   32.9460 H   0  0  0  0  0  0  0  0  0  0  0  0
   39.2420   28.1010   34.8940 H   0  0  0  0  0  0  0  0  0  0  0  0
   41.9500   24.5740   35.8740 H   0  0  0  0  0  0  0  0  0  0  0  0
   41.7310   23.2870   34.6120 H   0  0  0  0  0  0  0  0  0  0  0  0
   42.0860   21.5980   36.2070 H   0  0  0  0  0  0  0  0  0  0  0  0
   42.7360   22.9200   37.2950 H   0  0  0  0  0  0  0  0  0  0  0  0
   40.5390   21.3080   37.8260 H   0  0  0  0  0  0  0  0  0  0  0  0
   40.7070   22.9690   38.4880 H   0  0  0  0  0  0  0  0  0  0  0  0
   38.6780   23.1430   37.3020 H   0  0  0  0  0  0  0  0  0  0  0  0
   39.1220   21.8640   36.1020 H   0  0  0  0  0  0  0  0  0  0  0  0
   37.2090   27.7360   33.1480 N   0  0  0  0  0  0  0  0  0  0  0  0
   36.2160   28.4070   33.7280 C   0  0  0  0  0  0  0  0  0  0  0  0
   35.7960   28.3640   34.7280 H   0  0  0  0  0  0  0  0  0  0  0  0
   35.6920   29.2860   32.8340 N   0  0  0  0  0  0  0  0  0  0  0  0
   36.3760   29.1500   31.6840 C   0  0  0  0  0  0  0  0  0  0  0  0
   36.3410   29.7320   30.4240 C   0  0  0  0  0  0  0  0  0  0  0  0
   35.5840   30.4920   30.3010 H   0  0  0  0  0  0  0  0  0  0  0  0
   37.1870   29.3760   29.4330 N   0  0  0  0  0  0  0  0  0  0  0  0
   38.1040   28.4180   29.6700 C   0  0  0  0  0  0  0  0  0  0  0  0
   38.7820   28.1290   28.8850 H   0  0  0  0  0  0  0  0  0  0  0  0
   38.1960   27.8040   30.8820 N   0  0  0  0  0  0  0  0  0  0  0  0
   37.3440   28.1600   31.8860 C   0  0  0  0  0  0  0  0  0  0  0  0
  1  2  2  0  0  0  0
  1  6  1  0  0  0  0
  2  3  1  0  0  0  0
  3 13  1  0  0  0  0
  3  4  2  0  0  0  0
  5  4  1  0  0  0  0
  5  7  1  0  0  0  0
  6  5  2  0  0  0  0
  7 11  1  0  0  0  0
  8  7  1  0  0  0  0
  8 14  1  0  0  0  0
  8  9  1  0  0  0  0
  9 17  1  0  0  0  0
  9 10  1  0  0  0  0
 10 18  1  0  0  0  0
 10 19  1  0  0  0  0
 11 20  1  0  0  0  0
 11 10  1  0  0  0  0
 12  1  1  0  0  0  0
 15  8  1  0  0  0  0
 16  9  1  0  0  0  0
 21 11  1  0  0  0  0
 22 23  1  0  0  0  0
 22  2  1  0  0  0  0
 23 24  1  0  0  0  0
 25 23  2  0  0  0  0
 26 33  1  0  0  0  0
 26 25  1  0  0  0  0
 27 26  2  0  0  0  0
 28 27  1  0  0  0  0
 29 30  2  0  0  0  0
 29 27  1  0  0  0  0
 30 32  1  0  0  0  0
 31 30  1  0  0  0  0
 32 33  2  0  0  0  0
 33 22  1  0  0  0  0
M  END
>  <minimizedAffinity>
-5.01390409

$$$$

 OpenBabel03272510073D

 33 36  0  0  0  0  0  0  0  0999 V2000
   37.4090   25.3940   33.1140 C   0  0  0  0  0  0  0  0  0  0  0  0
   38.0550   26.6410   32.9790 C   0  0  0  0  0  0  0  0  0  0  0  0
   39.1130   26.9410   33.8540 C   0  0  0  0  0  0  0  0  0  0  0  0
   39.4500   26.0120   34.7800 N   0  0  0  0  0  0  0  0  0  0  0  0
   38.8150   24.8250   34.8900 C   0  0  0  0  0  0  0  0  0  0  0  0
   37.8110   24.5300   34.0650 N   0  0  0  0  0  0  0  0  0  0  0  0
   39.2480   23.9070   35.9050 N   0  0  0  0  0  0  0  0  0  0  0  0
   40.6130   23.3840   35.9780 C   0  0  0  0  0  0  0  0  0  0  0  0
   40.6680   22.6740   37.2760 C   0  0  0  0  0  0  0  0  0  0  0  0
   39.4040   23.0470   38.0220 C   0  0  0  0  0  0  0  0  0  0  0  0
   38.4080   23.3860   36.9690 C   0  0  0  0  0  0  0  0  0  0  0  0
   36.5870   25.0870   32.4810 H   0  0  0  0  0  0  0  0  0  0  0  0
   39.6200   27.8950   33.7630 H   0  0  0  0  0  0  0  0  0  0  0  0
   41.2840   24.2670   35.9570 H   0  0  0  0  0  0  0  0  0  0  0  0
   40.7780   22.7600   35.0800 H   0  0  0  0  0  0  0  0  0  0  0  0
   40.6290   21.5780   37.1060 H   0  0  0  0  0  0  0  0  0  0  0  0
   41.5660   22.9640   37.8530 H   0  0  0  0  0  0  0  0  0  0  0  0
   39.0090   22.1540   38.5690 H   0  0  0  0  0  0  0  0  0  0  0  0
   39.5810   23.8460   38.7640 H   0  0  0  0  0  0  0  0  0  0  0  0
   37.7060   24.1450   37.3670 H   0  0  0  0  0  0  0  0  0  0  0  0
   37.8420   22.5040   36.6180 H   0  0  0  0  0  0  0  0  0  0  0  0
   37.6190   27.5320   31.9780 N   0  0  0  0  0  0  0  0  0  0  0  0
   36.6190   28.3890   32.1750 C   0  0  0  0  0  0  0  0  0  0  0  0
   35.9850   28.5810   33.0350 H   0  0  0  0  0  0  0  0  0  0  0  0
   36.4250   29.1140   31.0420 N   0  0  0  0  0  0  0  0  0  0  0  0
   37.3240   28.6940   30.1340 C   0  0  0  0  0  0  0  0  0  0  0  0
   37.6460   29.0140   28.8230 C   0  0  0  0  0  0  0  0  0  0  0  0
   37.0400   29.7970   28.3900 H   0  0  0  0  0  0  0  0  0  0  0  0
   38.6370   28.3970   28.1430 N   0  0  0  0  0  0  0  0  0  0  0  0
   39.3460   27.4300   28.7590 C   0  0  0  0  0  0  0  0  0  0  0  0
   40.1380   26.9340   28.2230 H   0  0  0  0  0  0  0  0  0  0  0  0
   39.0860   27.0640   30.0440 N   0  0  0  0  0  0  0  0  0  0  0  0
   38.0860   27.6840   30.7330 C   0  0  0  0  0  0  0  0  0  0  0  0
  1  6  1  0  0  0  0
  2  1  2  0  0  0  0
  2  3  1  0  0  0  0
  3  4  2  0  0  0  0
  4  5  1  0  0  0  0
  5  7  1  0  0  0  0
  6  5  2  0  0  0  0
  7  8  1  0  0  0  0
  7 11  1  0  0  0  0
  8  9  1  0  0  0  0
  9 17  1  0  0  0  0
  9 10  1  0  0  0  0
 10 18  1  0  0  0  0
 10 19  1  0  0  0  0
 11 20  1  0  0  0  0
 11 10  1  0  0  0  0
 12  1  1  0  0  0  0
 13  3  1  0  0  0  0
 14  8  1  0  0  0  0
 15  8  1  0  0  0  0
 16  9  1  0  0  0  0
 21 11  1  0  0  0  0
 22 23  1  0  0  0  0
 22  2  1  0  0  0  0
 23 24  1  0  0  0  0
 25 23  2  0  0  0  0
 26 33  1  0  0  0  0
 26 25  1  0  0  0  0
 27 26  2  0  0  0  0
 28 27  1  0  0  0  0
 29 30  2  0  0  0  0
 29 27  1  0  0  0  0
 30 32  1  0  0  0  0
 31 30  1  0  0  0  0
 32 33  2  0  0  0  0
 33 22  1  0  0  0  0
M  END
>  <minimizedAffinity>
-4.96081305

$$$$

 OpenBabel03272510073D

 33 36  0  0  0  0  0  0  0  0999 V2000
   37.5960   25.2880   33.3710 C   0  0  0  0  0  0  0  0  0  0  0  0
   37.9630   26.6480   33.4510 C   0  0  0  0  0  0  0  0  0  0  0  0
   39.0060   27.0060   34.3230 C   0  0  0  0  0  0  0  0  0  0  0  0
   39.5980   26.0200   35.0390 N   0  0  0  0  0  0  0  0  0  0  0  0
   39.2280   24.7240   34.9450 C   0  0  0  0  0  0  0  0  0  0  0  0
   38.2400   24.3740   34.1210 N   0  0  0  0  0  0  0  0  0  0  0  0
   39.9180   23.7540   35.7450 N   0  0  0  0  0  0  0  0  0  0  0  0
   41.3620   23.5310   35.6600 C   0  0  0  0  0  0  0  0  0  0  0  0
   41.6640   22.6280   36.7940 C   0  0  0  0  0  0  0  0  0  0  0  0
   40.4150   22.5820   37.6500 C   0  0  0  0  0  0  0  0  0  0  0  0
   39.2900   22.8820   36.7240 C   0  0  0  0  0  0  0  0  0  0  0  0
   36.8050   24.9300   32.7260 H   0  0  0  0  0  0  0  0  0  0  0  0
   39.3000   28.0460   34.3960 H   0  0  0  0  0  0  0  0  0  0  0  0
   41.8360   24.5260   35.7810 H   0  0  0  0  0  0  0  0  0  0  0  0
   41.5770   23.1270   34.6530 H   0  0  0  0  0  0  0  0  0  0  0  0
   41.8350   21.5980   36.4180 H   0  0  0  0  0  0  0  0  0  0  0  0
   42.5280   22.9950   37.3780 H   0  0  0  0  0  0  0  0  0  0  0  0
   40.2550   21.5420   38.0300 H   0  0  0  0  0  0  0  0  0  0  0  0
   40.4870   23.2540   38.5220 H   0  0  0  0  0  0  0  0  0  0  0  0
   38.4830   23.3900   37.2880 H   0  0  0  0  0  0  0  0  0  0  0  0
   38.8870   21.9780   36.2330 H   0  0  0  0  0  0  0  0  0  0  0  0
   37.2770   27.5900   32.6600 N   0  0  0  0  0  0  0  0  0  0  0  0
   37.4980   27.7170   31.3530 C   0  0  0  0  0  0  0  0  0  0  0  0
   38.1670   27.1960   30.6750 H   0  0  0  0  0  0  0  0  0  0  0  0
   36.6960   28.6970   30.8590 N   0  0  0  0  0  0  0  0  0  0  0  0
   35.9710   29.1800   31.8840 C   0  0  0  0  0  0  0  0  0  0  0  0
   35.0010   30.1590   32.0480 C   0  0  0  0  0  0  0  0  0  0  0  0
   34.7360   30.6860   31.1440 H   0  0  0  0  0  0  0  0  0  0  0  0
   34.4330   30.4290   33.2440 N   0  0  0  0  0  0  0  0  0  0  0  0
   34.8200   29.7230   34.3240 C   0  0  0  0  0  0  0  0  0  0  0  0
   34.3710   29.9330   35.2810 H   0  0  0  0  0  0  0  0  0  0  0  0
   35.7670   28.7490   34.2370 N   0  0  0  0  0  0  0  0  0  0  0  0
   36.3420   28.4730   33.0320 C   0  0  0  0  0  0  0  0  0  0  0  0
  1  2  2  0  0  0  0
  1  6  1  0  0  0  0
  2  3  1  0  0  0  0
  3 13  1  0  0  0  0
  3  4  2  0  0  0  0
  5  4  1  0  0  0  0
  5  7  1  0  0  0  0
  6  5  2  0  0  0  0
  7 11  1  0  0  0  0
  8  7  1  0  0  0  0
  8 14  1  0  0  0  0
  8  9  1  0  0  0  0
  9 17  1  0  0  0  0
  9 10  1  0  0  0  0
 10 18  1  0  0  0  0
 10 19  1  0  0  0  0
 11 20  1  0  0  0  0
 11 10  1  0  0  0  0
 12  1  1  0  0  0  0
 15  8  1  0  0  0  0
 16  9  1  0  0  0  0
 21 11  1  0  0  0  0
 22 33  1  0  0  0  0
 22  2  1  0  0  0  0
 23 22  1  0  0  0  0
 24 23  1  0  0  0  0
 25 23  2  0  0  0  0
 25 26  1  0  0  0  0
 26 27  2  0  0  0  0
 26 33  1  0  0  0  0
 27 29  1  0  0  0  0
 28 27  1  0  0  0  0
 29 30  2  0  0  0  0
 30 31  1  0  0  0  0
 32 30  1  0  0  0  0
 33 32  2  0  0  0  0
M  END
>  <minimizedAffinity>
-4.94588041

$$$$

 OpenBabel03272510073D

 33 36  0  0  0  0  0  0  0  0999 V2000
   37.8190   24.6940   32.4350 C   0  0  0  0  0  0  0  0  0  0  0  0
   36.9280   24.0660   31.5400 C   0  0  0  0  0  0  0  0  0  0  0  0
   35.8440   24.8120   31.0460 C   0  0  0  0  0  0  0  0  0  0  0  0
   35.7180   26.0950   31.4620 N   0  0  0  0  0  0  0  0  0  0  0  0
   36.5850   26.6740   32.3210 C   0  0  0  0  0  0  0  0  0  0  0  0
   37.6160   25.9760   32.7950 N   0  0  0  0  0  0  0  0  0  0  0  0
   36.3650   28.0400   32.7000 N   0  0  0  0  0  0  0  0  0  0  0  0
   36.3140   29.1390   31.7340 C   0  0  0  0  0  0  0  0  0  0  0  0
   35.8520   30.3040   32.5220 C   0  0  0  0  0  0  0  0  0  0  0  0
   35.3970   29.7620   33.8610 C   0  0  0  0  0  0  0  0  0  0  0  0
   36.1690   28.5050   34.0620 C   0  0  0  0  0  0  0  0  0  0  0  0
   38.6770   24.1900   32.8610 H   0  0  0  0  0  0  0  0  0  0  0  0
   35.1500   24.3440   30.3580 H   0  0  0  0  0  0  0  0  0  0  0  0
   35.5770   28.8370   30.9620 H   0  0  0  0  0  0  0  0  0  0  0  0
   37.3200   29.2310   31.2820 H   0  0  0  0  0  0  0  0  0  0  0  0
   36.7060   30.9830   32.7230 H   0  0  0  0  0  0  0  0  0  0  0  0
   35.0270   30.8310   32.0090 H   0  0  0  0  0  0  0  0  0  0  0  0
   35.7010   30.4650   34.6770 H   0  0  0  0  0  0  0  0  0  0  0  0
   34.3010   29.6420   33.9080 H   0  0  0  0  0  0  0  0  0  0  0  0
   35.5630   27.8020   34.6670 H   0  0  0  0  0  0  0  0  0  0  0  0
   37.1430   28.6770   34.5560 H   0  0  0  0  0  0  0  0  0  0  0  0
   37.1560   22.7240   31.1770 N   0  0  0  0  0  0  0  0  0  0  0  0
   38.2390   22.3440   30.5010 C   0  0  0  0  0  0  0  0  0  0  0  0
   39.0900   22.8990   30.1210 H   0  0  0  0  0  0  0  0  0  0  0  0
   38.1870   21.0020   30.2960 N   0  0  0  0  0  0  0  0  0  0  0  0
   37.0500   20.5510   30.8550 C   0  0  0  0  0  0  0  0  0  0  0  0
   36.4210   19.3210   30.9920 C   0  0  0  0  0  0  0  0  0  0  0  0
   36.9530   18.4920   30.5480 H   0  0  0  0  0  0  0  0  0  0  0  0
   35.2390   19.1720   31.6290 N   0  0  0  0  0  0  0  0  0  0  0  0
   34.6410   20.2590   32.1560 C   0  0  0  0  0  0  0  0  0  0  0  0
   33.6990   20.1480   32.6660 H   0  0  0  0  0  0  0  0  0  0  0  0
   35.2000   21.4970   32.0600 N   0  0  0  0  0  0  0  0  0  0  0  0
   36.3930   21.6510   31.4170 C   0  0  0  0  0  0  0  0  0  0  0  0
  1  6  1  0  0  0  0
  1 12  1  0  0  0  0
  2  1  2  0  0  0  0
  3  4  2  0  0  0  0
  3  2  1  0  0  0  0
  4  5  1  0  0  0  0
  5  7  1  0  0  0  0
  5  6  2  0  0  0  0
  7 11  1  0  0  0  0
  8  9  1  0  0  0  0
  8  7  1  0  0  0  0
  9 16  1  0  0  0  0
  9 10  1  0  0  0  0
 10 19  1  0  0  0  0
 10 11  1  0  0  0  0
 10 18  1  0  0  0  0
 11 21  1  0  0  0  0
 11 20  1  0  0  0  0
 13  3  1  0  0  0  0
 14  8  1  0  0  0  0
 15  8  1  0  0  0  0
 17  9  1  0  0  0  0
 22 33  1  0  0  0  0
 22  2  1  0  0  0  0
 23 22  1  0  0  0  0
 24 23  1  0  0  0  0
 25 23  2  0  0  0  0
 25 26  1  0  0  0  0
 26 27  2  0  0  0  0
 26 33  1  0  0  0  0
 27 29  1  0  0  0  0
 28 27  1  0  0  0  0
 29 30  2  0  0  0  0
 30 31  1  0  0  0  0
 32 30  1  0  0  0  0
 33 32  2  0  0  0  0
M  END
>  <minimizedAffinity>
-4.93177319

$$$$
