
 OpenBabel03272504183D

 29 31  0  0  0  0  0  0  0  0999 V2000
   36.3740   24.1620   32.2120 O   0  0  0  0  0  0  0  0  0  0  0  0
   36.9330   25.5100   31.7980 P   0  0  1  0  0  0  0  0  0  0  0  0
   37.8870   25.3780   30.4090 O   0  0  0  0  0  0  0  0  0  0  0  0
   38.8050   25.6840   30.6080 H   0  0  0  0  0  0  0  0  0  0  0  0
   35.6780   26.6380   31.4410 O   0  0  0  0  0  0  0  0  0  0  0  0
   35.8840   28.0090   31.5030 C   0  0  0  0  0  0  0  0  0  0  0  0
   36.4420   28.8120   30.5130 C   0  0  0  0  0  0  0  0  0  0  0  0
   36.5690   30.1760   30.7570 C   0  0  0  0  0  0  0  0  0  0  0  0
   36.1500   30.6870   31.9490 N   0  0  0  0  0  0  0  0  0  0  0  0
   35.6090   29.8620   32.8900 C   0  0  0  0  0  0  0  0  0  0  0  0
   35.4700   28.5240   32.6820 N   0  0  0  0  0  0  0  0  0  0  0  0
   37.0090   30.7540   29.9550 H   0  0  0  0  0  0  0  0  0  0  0  0
   35.2900   30.3320   33.8270 H   0  0  0  0  0  0  0  0  0  0  0  0
   36.8220   28.1220   29.3440 N   0  0  0  0  0  0  0  0  0  0  0  0
   36.1810   28.0850   28.4970 H   0  0  0  0  0  0  0  0  0  0  0  0
   37.7500   27.6870   29.4200 H   0  0  0  0  0  0  0  0  0  0  0  0
   37.8300   26.0470   33.1220 O   0  0  0  0  0  0  0  0  0  0  0  0
   39.5990   23.8630   33.5860 H   0  0  0  0  0  0  0  0  0  0  0  0
   39.0590   24.2640   34.3740 N   0  0  0  0  0  0  0  0  0  0  0  0
   38.2140   25.2950   34.1970 C   0  0  0  0  0  0  0  0  0  0  0  0
   37.6650   25.5840   35.4090 N   0  0  0  0  0  0  0  0  0  0  0  0
   38.2010   24.7090   36.2950 C   0  0  0  0  0  0  0  0  0  0  0  0
   38.0530   24.4900   37.6620 C   0  0  0  0  0  0  0  0  0  0  0  0
   37.3580   25.1470   38.1800 H   0  0  0  0  0  0  0  0  0  0  0  0
   38.7150   23.5300   38.3280 N   0  0  0  0  0  0  0  0  0  0  0  0
   39.5650   22.7320   37.6750 C   0  0  0  0  0  0  0  0  0  0  0  0
   40.0880   21.9650   38.2350 H   0  0  0  0  0  0  0  0  0  0  0  0
   39.7480   22.9030   36.3370 N   0  0  0  0  0  0  0  0  0  0  0  0
   39.0900   23.8600   35.6560 C   0  0  0  0  0  0  0  0  0  0  0  0
  2  1  2  1  0  0  0
  2 17  1  0  0  0  0
  3  4  1  0  0  0  0
  3  2  1  0  0  0  0
  5  6  1  0  0  0  0
  5  2  1  0  0  0  0
  6 11  1  0  0  0  0
  7  8  1  0  0  0  0
  7  6  2  0  0  0  0
  8  9  2  0  0  0  0
  9 10  1  0  0  0  0
 10 13  1  0  0  0  0
 11 10  2  0  0  0  0
 12  8  1  0  0  0  0
 14 16  1  0  0  0  0
 14  7  1  0  0  0  0
 15 14  1  0  0  0  0
 17 20  1  0  0  0  0
 18 19  1  0  0  0  0
 19 29  1  0  0  0  0
 20 19  1  0  0  0  0
 20 21  2  0  0  0  0
 21 22  1  0  0  0  0
 22 23  1  0  0  0  0
 23 24  1  0  0  0  0
 23 25  2  0  0  0  0
 26 27  1  0  0  0  0
 26 25  1  0  0  0  0
 28 26  2  0  0  0  0
 29 22  2  0  0  0  0
 29 28  1  0  0  0  0
M  END
>  <minimizedAffinity>
-5.04485941

$$$$

 OpenBabel03272504183D

 29 31  0  0  0  0  0  0  0  0999 V2000
   37.3020   23.7850   37.1840 O   0  0  0  0  0  0  0  0  0  0  0  0
   38.5380   23.4950   36.3530 P   0  0  1  0  0  0  0  0  0  0  0  0
   38.2090   22.3670   35.1380 O   0  0  0  0  0  0  0  0  0  0  0  0
   38.7870   21.5740   35.2580 H   0  0  0  0  0  0  0  0  0  0  0  0
   39.1290   24.9150   35.5730 O   0  0  0  0  0  0  0  0  0  0  0  0
   38.2910   25.7680   34.8680 C   0  0  0  0  0  0  0  0  0  0  0  0
   37.9400   27.0680   35.2220 C   0  0  0  0  0  0  0  0  0  0  0  0
   37.0820   27.7750   34.3860 C   0  0  0  0  0  0  0  0  0  0  0  0
   36.6100   27.1830   33.2520 N   0  0  0  0  0  0  0  0  0  0  0  0
   36.9820   25.9080   32.9450 C   0  0  0  0  0  0  0  0  0  0  0  0
   37.8200   25.1890   33.7420 N   0  0  0  0  0  0  0  0  0  0  0  0
   36.8410   28.7790   34.7070 H   0  0  0  0  0  0  0  0  0  0  0  0
   36.5700   25.4870   32.0210 H   0  0  0  0  0  0  0  0  0  0  0  0
   38.5160   27.5240   36.4250 N   0  0  0  0  0  0  0  0  0  0  0  0
   39.4010   28.1120   36.4200 H   0  0  0  0  0  0  0  0  0  0  0  0
   37.9920   27.2270   37.2580 H   0  0  0  0  0  0  0  0  0  0  0  0
   39.6860   22.9180   37.4460 O   0  0  0  0  0  0  0  0  0  0  0  0
   41.1650   20.9180   38.8340 H   0  0  0  0  0  0  0  0  0  0  0  0
   41.3960   21.1380   37.8490 N   0  0  0  0  0  0  0  0  0  0  0  0
   40.7230   22.0750   37.1580 C   0  0  0  0  0  0  0  0  0  0  0  0
   41.2610   22.1250   35.9090 N   0  0  0  0  0  0  0  0  0  0  0  0
   42.2570   21.2050   35.8800 C   0  0  0  0  0  0  0  0  0  0  0  0
   43.1660   20.7820   34.9130 C   0  0  0  0  0  0  0  0  0  0  0  0
   43.1000   21.2730   33.9450 H   0  0  0  0  0  0  0  0  0  0  0  0
   44.0820   19.8260   35.1360 N   0  0  0  0  0  0  0  0  0  0  0  0
   44.1480   19.2340   36.3320 C   0  0  0  0  0  0  0  0  0  0  0  0
   44.8970   18.4640   36.4880 H   0  0  0  0  0  0  0  0  0  0  0  0
   43.2820   19.6100   37.3130 N   0  0  0  0  0  0  0  0  0  0  0  0
   42.3600   20.5670   37.1040 C   0  0  0  0  0  0  0  0  0  0  0  0
  2  1  2  1  0  0  0
  2 17  1  0  0  0  0
  3  4  1  0  0  0  0
  3  2  1  0  0  0  0
  5  2  1  0  0  0  0
  6  7  1  0  0  0  0
  6  5  1  0  0  0  0
  7 14  1  0  0  0  0
  8 12  1  0  0  0  0
  8  7  2  0  0  0  0
  9  8  1  0  0  0  0
 10  9  2  0  0  0  0
 10 11  1  0  0  0  0
 11  6  2  0  0  0  0
 13 10  1  0  0  0  0
 14 16  1  0  0  0  0
 15 14  1  0  0  0  0
 19 18  1  0  0  0  0
 20 17  1  0  0  0  0
 20 19  1  0  0  0  0
 21 20  2  0  0  0  0
 22 21  1  0  0  0  0
 22 29  1  0  0  0  0
 23 25  1  0  0  0  0
 23 22  2  0  0  0  0
 24 23  1  0  0  0  0
 25 26  2  0  0  0  0
 26 27  1  0  0  0  0
 26 28  1  0  0  0  0
 29 28  2  0  0  0  0
 29 19  1  0  0  0  0
M  END
>  <minimizedAffinity>
-5.03120708

$$$$

 OpenBabel03272504183D

 29 31  0  0  0  0  0  0  0  0999 V2000
   36.7950   22.6360   37.1680 O   0  0  0  0  0  0  0  0  0  0  0  0
   38.2150   23.1670   37.2220 P   0  0  1  0  0  0  0  0  0  0  0  0
   38.8790   22.9850   38.7660 O   0  0  0  0  0  0  0  0  0  0  0  0
   39.1290   23.8710   39.1250 H   0  0  0  0  0  0  0  0  0  0  0  0
   39.2520   22.3270   36.1280 O   0  0  0  0  0  0  0  0  0  0  0  0
   40.6060   22.6130   36.0340 C   0  0  0  0  0  0  0  0  0  0  0  0
   41.6230   22.0900   36.8280 C   0  0  0  0  0  0  0  0  0  0  0  0
   42.9310   22.4970   36.5850 C   0  0  0  0  0  0  0  0  0  0  0  0
   43.1820   23.3900   35.5870 N   0  0  0  0  0  0  0  0  0  0  0  0
   42.1540   23.8760   34.8340 C   0  0  0  0  0  0  0  0  0  0  0  0
   40.8640   23.4980   35.0460 N   0  0  0  0  0  0  0  0  0  0  0  0
   43.6820   22.0600   37.2290 H   0  0  0  0  0  0  0  0  0  0  0  0
   42.4200   24.5910   34.0470 H   0  0  0  0  0  0  0  0  0  0  0  0
   41.1880   21.1810   37.8130 N   0  0  0  0  0  0  0  0  0  0  0  0
   41.2240   20.1320   37.6450 H   0  0  0  0  0  0  0  0  0  0  0  0
   40.8530   21.6450   38.6660 H   0  0  0  0  0  0  0  0  0  0  0  0
   38.1030   24.7900   36.7790 O   0  0  0  0  0  0  0  0  0  0  0  0
   38.5030   23.8540   34.1190 H   0  0  0  0  0  0  0  0  0  0  0  0
   38.0920   24.7910   34.2770 N   0  0  0  0  0  0  0  0  0  0  0  0
   37.8870   25.2700   35.5170 C   0  0  0  0  0  0  0  0  0  0  0  0
   37.3410   26.5110   35.3890 N   0  0  0  0  0  0  0  0  0  0  0  0
   37.2300   26.7490   34.0590 C   0  0  0  0  0  0  0  0  0  0  0  0
   36.7590   27.8130   33.2940 C   0  0  0  0  0  0  0  0  0  0  0  0
   36.3840   28.6720   33.8470 H   0  0  0  0  0  0  0  0  0  0  0  0
   36.7560   27.8080   31.9520 N   0  0  0  0  0  0  0  0  0  0  0  0
   37.2210   26.7440   31.2900 C   0  0  0  0  0  0  0  0  0  0  0  0
   37.2080   26.7630   30.2050 H   0  0  0  0  0  0  0  0  0  0  0  0
   37.6940   25.6760   31.9890 N   0  0  0  0  0  0  0  0  0  0  0  0
   37.7030   25.6680   33.3340 C   0  0  0  0  0  0  0  0  0  0  0  0
  2  1  2  6  0  0  0
  2  3  1  0  0  0  0
  3  4  1  0  0  0  0
  5  2  1  0  0  0  0
  6  5  1  0  0  0  0
  6  7  1  0  0  0  0
  7 14  1  0  0  0  0
  8  7  2  0  0  0  0
  8 12  1  0  0  0  0
  9  8  1  0  0  0  0
 10 11  1  0  0  0  0
 10  9  2  0  0  0  0
 11  6  2  0  0  0  0
 13 10  1  0  0  0  0
 14 16  1  0  0  0  0
 15 14  1  0  0  0  0
 17  2  1  0  0  0  0
 18 19  1  0  0  0  0
 19 20  1  0  0  0  0
 20 17  1  0  0  0  0
 21 20  2  0  0  0  0
 22 21  1  0  0  0  0
 23 24  1  0  0  0  0
 23 22  2  0  0  0  0
 25 23  1  0  0  0  0
 26 25  2  0  0  0  0
 26 28  1  0  0  0  0
 27 26  1  0  0  0  0
 28 29  2  0  0  0  0
 29 22  1  0  0  0  0
 29 19  1  0  0  0  0
M  END
>  <minimizedAffinity>
-5.01422024

$$$$

 OpenBabel03272504183D

 29 31  0  0  0  0  0  0  0  0999 V2000
   36.4870   24.3350   31.8020 O   0  0  0  0  0  0  0  0  0  0  0  0
   37.8990   24.6610   31.3540 P   0  0  1  0  0  0  0  0  0  0  0  0
   38.1680   24.1630   29.7610 O   0  0  0  0  0  0  0  0  0  0  0  0
   38.9090   23.5090   29.7390 H   0  0  0  0  0  0  0  0  0  0  0  0
   38.2110   26.3570   31.4080 O   0  0  0  0  0  0  0  0  0  0  0  0
   37.2970   27.2540   31.9420 C   0  0  0  0  0  0  0  0  0  0  0  0
   36.4140   28.0620   31.2320 C   0  0  0  0  0  0  0  0  0  0  0  0
   35.5660   28.9050   31.9440 C   0  0  0  0  0  0  0  0  0  0  0  0
   35.6210   28.9190   33.3060 N   0  0  0  0  0  0  0  0  0  0  0  0
   36.5010   28.1080   33.9600 C   0  0  0  0  0  0  0  0  0  0  0  0
   37.3440   27.2730   33.2930 N   0  0  0  0  0  0  0  0  0  0  0  0
   34.9000   29.5110   31.3450 H   0  0  0  0  0  0  0  0  0  0  0  0
   36.4980   28.1640   35.0540 H   0  0  0  0  0  0  0  0  0  0  0  0
   36.4890   27.9240   29.8320 N   0  0  0  0  0  0  0  0  0  0  0  0
   35.8180   27.2890   29.3070 H   0  0  0  0  0  0  0  0  0  0  0  0
   37.2380   28.4890   29.4130 H   0  0  0  0  0  0  0  0  0  0  0  0
   38.9100   23.8550   32.4380 O   0  0  0  0  0  0  0  0  0  0  0  0
   37.2110   25.0780   34.3680 H   0  0  0  0  0  0  0  0  0  0  0  0
   37.9650   24.4400   34.6780 N   0  0  0  0  0  0  0  0  0  0  0  0
   38.7890   23.8430   33.7990 C   0  0  0  0  0  0  0  0  0  0  0  0
   39.6600   23.0780   34.5120 N   0  0  0  0  0  0  0  0  0  0  0  0
   39.3340   23.2370   35.8190 C   0  0  0  0  0  0  0  0  0  0  0  0
   39.8340   22.7330   37.0170 C   0  0  0  0  0  0  0  0  0  0  0  0
   40.6790   22.0540   36.9370 H   0  0  0  0  0  0  0  0  0  0  0  0
   39.3220   23.0520   38.2170 N   0  0  0  0  0  0  0  0  0  0  0  0
   38.2840   23.8890   38.2970 C   0  0  0  0  0  0  0  0  0  0  0  0
   37.8880   24.1320   39.2780 H   0  0  0  0  0  0  0  0  0  0  0  0
   37.7560   24.4100   37.1550 N   0  0  0  0  0  0  0  0  0  0  0  0
   38.2590   24.1000   35.9460 C   0  0  0  0  0  0  0  0  0  0  0  0
  2  5  1  0  0  0  0
  2  1  2  1  0  0  0
  2 17  1  0  0  0  0
  3  2  1  0  0  0  0
  4  3  1  0  0  0  0
  5  6  1  0  0  0  0
  6 11  1  0  0  0  0
  7  6  2  0  0  0  0
  7  8  1  0  0  0  0
  8  9  2  0  0  0  0
  9 10  1  0  0  0  0
 10 13  1  0  0  0  0
 11 10  2  0  0  0  0
 12  8  1  0  0  0  0
 14  7  1  0  0  0  0
 15 14  1  0  0  0  0
 16 14  1  0  0  0  0
 17 20  1  0  0  0  0
 18 19  1  0  0  0  0
 19 29  1  0  0  0  0
 20 21  2  0  0  0  0
 20 19  1  0  0  0  0
 21 22  1  0  0  0  0
 22 29  2  0  0  0  0
 22 23  1  0  0  0  0
 23 25  2  0  0  0  0
 24 23  1  0  0  0  0
 25 26  1  0  0  0  0
 26 27  1  0  0  0  0
 28 26  2  0  0  0  0
 29 28  1  0  0  0  0
M  END
>  <minimizedAffinity>
-4.96997023

$$$$

 OpenBabel03272504183D

 29 31  0  0  0  0  0  0  0  0999 V2000
   39.6270   26.6230   35.6520 O   0  0  0  0  0  0  0  0  0  0  0  0
   38.5120   25.6970   35.2030 P   0  0  1  0  0  0  0  0  0  0  0  0
   38.7830   25.1250   33.6360 O   0  0  0  0  0  0  0  0  0  0  0  0
   38.0360   25.3980   33.0500 H   0  0  0  0  0  0  0  0  0  0  0  0
   38.3800   24.3150   36.2270 O   0  0  0  0  0  0  0  0  0  0  0  0
   39.4300   23.4250   36.3970 C   0  0  0  0  0  0  0  0  0  0  0  0
   39.7590   22.7410   37.5640 C   0  0  0  0  0  0  0  0  0  0  0  0
   40.8550   21.8840   37.5450 C   0  0  0  0  0  0  0  0  0  0  0  0
   41.5740   21.7380   36.3960 N   0  0  0  0  0  0  0  0  0  0  0  0
   41.2140   22.4280   35.2760 C   0  0  0  0  0  0  0  0  0  0  0  0
   40.1470   23.2740   35.2620 N   0  0  0  0  0  0  0  0  0  0  0  0
   41.0670   21.3780   38.4780 H   0  0  0  0  0  0  0  0  0  0  0  0
   41.8300   22.2680   34.3850 H   0  0  0  0  0  0  0  0  0  0  0  0
   38.9130   23.0090   38.6590 N   0  0  0  0  0  0  0  0  0  0  0  0
   38.1030   22.3630   38.8960 H   0  0  0  0  0  0  0  0  0  0  0  0
   39.1730   23.8640   39.1660 H   0  0  0  0  0  0  0  0  0  0  0  0
   37.1010   26.6180   35.2950 O   0  0  0  0  0  0  0  0  0  0  0  0
   35.4750   28.9560   35.3130 H   0  0  0  0  0  0  0  0  0  0  0  0
   35.8990   28.6320   34.4260 N   0  0  0  0  0  0  0  0  0  0  0  0
   36.6730   27.5330   34.3740 C   0  0  0  0  0  0  0  0  0  0  0  0
   37.0720   27.3760   33.0820 N   0  0  0  0  0  0  0  0  0  0  0  0
   36.5210   28.3980   32.3810 C   0  0  0  0  0  0  0  0  0  0  0  0
   36.5490   28.7910   31.0450 C   0  0  0  0  0  0  0  0  0  0  0  0
   37.1320   28.1660   30.3730 H   0  0  0  0  0  0  0  0  0  0  0  0
   35.9010   29.8730   30.5840 N   0  0  0  0  0  0  0  0  0  0  0  0
   35.1880   30.6290   31.4240 C   0  0  0  0  0  0  0  0  0  0  0  0
   34.6730   31.4980   31.0290 H   0  0  0  0  0  0  0  0  0  0  0  0
   35.1270   30.2900   32.7420 N   0  0  0  0  0  0  0  0  0  0  0  0
   35.7710   29.2070   33.2170 C   0  0  0  0  0  0  0  0  0  0  0  0
  2 17  1  0  0  0  0
  2  1  2  1  0  0  0
  2  5  1  0  0  0  0
  3  2  1  0  0  0  0
  4  3  1  0  0  0  0
  5  6  1  0  0  0  0
  6  7  1  0  0  0  0
  7 14  1  0  0  0  0
  8  7  2  0  0  0  0
  8 12  1  0  0  0  0
  9  8  1  0  0  0  0
 10  9  2  0  0  0  0
 11 10  1  0  0  0  0
 11  6  2  0  0  0  0
 13 10  1  0  0  0  0
 14 15  1  0  0  0  0
 14 16  1  0  0  0  0
 19 18  1  0  0  0  0
 20 19  1  0  0  0  0
 20 17  1  0  0  0  0
 21 20  2  0  0  0  0
 22 21  1  0  0  0  0
 22 29  1  0  0  0  0
 23 22  2  0  0  0  0
 24 23  1  0  0  0  0
 25 23  1  0  0  0  0
 25 26  2  0  0  0  0
 26 28  1  0  0  0  0
 27 26  1  0  0  0  0
 28 29  2  0  0  0  0
 29 19  1  0  0  0  0
M  END
>  <minimizedAffinity>
-4.9384203

$$$$

 OpenBabel03272504183D

 29 31  0  0  0  0  0  0  0  0999 V2000
   36.9860   23.5520   37.3110 O   0  0  0  0  0  0  0  0  0  0  0  0
   38.4080   23.1920   36.9210 P   0  0  1  0  0  0  0  0  0  0  0  0
   39.3480   22.8450   38.2830 O   0  0  0  0  0  0  0  0  0  0  0  0
   40.1110   23.4710   38.3250 H   0  0  0  0  0  0  0  0  0  0  0  0
   38.4570   21.7970   35.9080 O   0  0  0  0  0  0  0  0  0  0  0  0
   37.5730   21.6250   34.8530 C   0  0  0  0  0  0  0  0  0  0  0  0
   36.2890   21.0910   34.9230 C   0  0  0  0  0  0  0  0  0  0  0  0
   35.5450   20.9960   33.7520 C   0  0  0  0  0  0  0  0  0  0  0  0
   36.0850   21.4210   32.5760 N   0  0  0  0  0  0  0  0  0  0  0  0
   37.3470   21.9380   32.5540 C   0  0  0  0  0  0  0  0  0  0  0  0
   38.1020   22.0450   33.6830 N   0  0  0  0  0  0  0  0  0  0  0  0
   34.5540   20.5750   33.8620 H   0  0  0  0  0  0  0  0  0  0  0  0
   37.7260   22.2630   31.5790 H   0  0  0  0  0  0  0  0  0  0  0  0
   35.8870   20.7000   36.2160 N   0  0  0  0  0  0  0  0  0  0  0  0
   35.3010   21.3440   36.8260 H   0  0  0  0  0  0  0  0  0  0  0  0
   36.2180   19.7620   36.4720 H   0  0  0  0  0  0  0  0  0  0  0  0
   38.9950   24.5340   36.0840 O   0  0  0  0  0  0  0  0  0  0  0  0
   38.2310   24.3690   33.3450 H   0  0  0  0  0  0  0  0  0  0  0  0
   37.9510   25.1920   33.9080 N   0  0  0  0  0  0  0  0  0  0  0  0
   38.2920   25.3080   35.2040 C   0  0  0  0  0  0  0  0  0  0  0  0
   37.7810   26.4870   35.6550 N   0  0  0  0  0  0  0  0  0  0  0  0
   37.1380   27.0560   34.6060 C   0  0  0  0  0  0  0  0  0  0  0  0
   36.4260   28.2390   34.4230 C   0  0  0  0  0  0  0  0  0  0  0  0
   36.3400   28.8860   35.2930 H   0  0  0  0  0  0  0  0  0  0  0  0
   35.8690   28.5870   33.2520 N   0  0  0  0  0  0  0  0  0  0  0  0
   35.9850   27.7790   32.1940 C   0  0  0  0  0  0  0  0  0  0  0  0
   35.5250   28.0820   31.2580 H   0  0  0  0  0  0  0  0  0  0  0  0
   36.6710   26.6090   32.3180 N   0  0  0  0  0  0  0  0  0  0  0  0
   37.2350   26.2490   33.4850 C   0  0  0  0  0  0  0  0  0  0  0  0
  2  1  2  1  0  0  0
  2  3  1  0  0  0  0
  3  4  1  0  0  0  0
  5  2  1  0  0  0  0
  6  7  1  0  0  0  0
  6  5  1  0  0  0  0
  7 14  1  0  0  0  0
  8 12  1  0  0  0  0
  8  7  2  0  0  0  0
  9  8  1  0  0  0  0
 10  9  2  0  0  0  0
 10 11  1  0  0  0  0
 11  6  2  0  0  0  0
 13 10  1  0  0  0  0
 14 16  1  0  0  0  0
 14 15  1  0  0  0  0
 17  2  1  0  0  0  0
 18 19  1  0  0  0  0
 19 20  1  0  0  0  0
 20 21  2  0  0  0  0
 20 17  1  0  0  0  0
 22 21  1  0  0  0  0
 23 22  1  0  0  0  0
 23 24  1  0  0  0  0
 25 23  2  0  0  0  0
 26 28  2  0  0  0  0
 26 25  1  0  0  0  0
 27 26  1  0  0  0  0
 28 29  1  0  0  0  0
 29 19  1  0  0  0  0
 29 22  2  0  0  0  0
M  END
>  <minimizedAffinity>
-4.93560171

$$$$

 OpenBabel03272504183D

 29 31  0  0  0  0  0  0  0  0999 V2000
   37.2610   28.6860   31.3970 O   0  0  0  0  0  0  0  0  0  0  0  0
   36.2140   27.5990   31.5540 P   0  0  1  0  0  0  0  0  0  0  0  0
   35.8620   26.8670   30.0710 O   0  0  0  0  0  0  0  0  0  0  0  0
   34.9030   26.9850   29.8640 H   0  0  0  0  0  0  0  0  0  0  0  0
   36.7470   26.3490   32.6170 O   0  0  0  0  0  0  0  0  0  0  0  0
   37.7280   26.5680   33.5730 C   0  0  0  0  0  0  0  0  0  0  0  0
   39.0910   26.3230   33.4370 C   0  0  0  0  0  0  0  0  0  0  0  0
   39.9270   26.6070   34.5120 C   0  0  0  0  0  0  0  0  0  0  0  0
   39.3960   27.1110   35.6620 N   0  0  0  0  0  0  0  0  0  0  0  0
   38.0540   27.3350   35.7500 C   0  0  0  0  0  0  0  0  0  0  0  0
   37.2090   27.0680   34.7160 N   0  0  0  0  0  0  0  0  0  0  0  0
   40.9770   26.3990   34.3540 H   0  0  0  0  0  0  0  0  0  0  0  0
   37.6870   27.7410   36.6990 H   0  0  0  0  0  0  0  0  0  0  0  0
   39.4710   25.8020   32.1840 N   0  0  0  0  0  0  0  0  0  0  0  0
   39.8390   26.4360   31.4150 H   0  0  0  0  0  0  0  0  0  0  0  0
   39.3500   24.7830   32.1220 H   0  0  0  0  0  0  0  0  0  0  0  0
   34.8620   28.3710   32.2050 O   0  0  0  0  0  0  0  0  0  0  0  0
   36.8050   29.7740   33.7430 H   0  0  0  0  0  0  0  0  0  0  0  0
   35.8020   29.8570   33.9840 N   0  0  0  0  0  0  0  0  0  0  0  0
   34.8530   29.2110   33.2830 C   0  0  0  0  0  0  0  0  0  0  0  0
   33.6510   29.5210   33.8420 N   0  0  0  0  0  0  0  0  0  0  0  0
   33.9110   30.3570   34.8780 C   0  0  0  0  0  0  0  0  0  0  0  0
   33.1260   31.0130   35.8220 C   0  0  0  0  0  0  0  0  0  0  0  0
   32.0540   30.8470   35.7540 H   0  0  0  0  0  0  0  0  0  0  0  0
   33.6360   31.8100   36.7750 N   0  0  0  0  0  0  0  0  0  0  0  0
   34.9570   32.0020   36.8450 C   0  0  0  0  0  0  0  0  0  0  0  0
   35.3460   32.6500   37.6240 H   0  0  0  0  0  0  0  0  0  0  0  0
   35.7710   31.3840   35.9450 N   0  0  0  0  0  0  0  0  0  0  0  0
   35.2730   30.5830   34.9850 C   0  0  0  0  0  0  0  0  0  0  0  0
  2  1  2  6  0  0  0
  2 17  1  0  0  0  0
  2  5  1  0  0  0  0
  3  2  1  0  0  0  0
  4  3  1  0  0  0  0
  5  6  1  0  0  0  0
  6 11  1  0  0  0  0
  7  6  2  0  0  0  0
  7  8  1  0  0  0  0
  8  9  2  0  0  0  0
  9 10  1  0  0  0  0
 10 13  1  0  0  0  0
 11 10  2  0  0  0  0
 12  8  1  0  0  0  0
 14  7  1  0  0  0  0
 15 14  1  0  0  0  0
 16 14  1  0  0  0  0
 17 20  1  0  0  0  0
 18 19  1  0  0  0  0
 19 29  1  0  0  0  0
 20 21  2  0  0  0  0
 20 19  1  0  0  0  0
 21 22  1  0  0  0  0
 22 29  2  0  0  0  0
 22 23  1  0  0  0  0
 23 25  2  0  0  0  0
 24 23  1  0  0  0  0
 25 26  1  0  0  0  0
 26 27  1  0  0  0  0
 28 26  2  0  0  0  0
 29 28  1  0  0  0  0
M  END
>  <minimizedAffinity>
-4.86061716

$$$$

 OpenBabel03272504183D

 29 31  0  0  0  0  0  0  0  0999 V2000
   39.1300   27.2770   35.4530 O   0  0  0  0  0  0  0  0  0  0  0  0
   37.9460   26.5110   34.8930 P   0  0  1  0  0  0  0  0  0  0  0  0
   36.5430   27.4550   34.9070 O   0  0  0  0  0  0  0  0  0  0  0  0
   35.8540   27.0150   35.4600 H   0  0  0  0  0  0  0  0  0  0  0  0
   38.2120   26.0320   33.2580 O   0  0  0  0  0  0  0  0  0  0  0  0
   37.1860   25.5480   32.4590 C   0  0  0  0  0  0  0  0  0  0  0  0
   36.9090   24.2120   32.1800 C   0  0  0  0  0  0  0  0  0  0  0  0
   35.8320   23.9170   31.3510 C   0  0  0  0  0  0  0  0  0  0  0  0
   35.0820   24.9320   30.8360 N   0  0  0  0  0  0  0  0  0  0  0  0
   35.3900   26.2250   31.1370 C   0  0  0  0  0  0  0  0  0  0  0  0
   36.4380   26.5480   31.9450 N   0  0  0  0  0  0  0  0  0  0  0  0
   35.6600   22.8640   31.1670 H   0  0  0  0  0  0  0  0  0  0  0  0
   34.7500   26.9960   30.6930 H   0  0  0  0  0  0  0  0  0  0  0  0
   37.7840   23.2920   32.7930 N   0  0  0  0  0  0  0  0  0  0  0  0
   37.5250   22.8160   33.7070 H   0  0  0  0  0  0  0  0  0  0  0  0
   38.6530   23.1530   32.2630 H   0  0  0  0  0  0  0  0  0  0  0  0
   37.7890   25.1490   35.8750 O   0  0  0  0  0  0  0  0  0  0  0  0
   38.5920   23.5820   38.1140 H   0  0  0  0  0  0  0  0  0  0  0  0
   39.1100   23.5050   37.2210 N   0  0  0  0  0  0  0  0  0  0  0  0
   38.7630   24.2280   36.1400 C   0  0  0  0  0  0  0  0  0  0  0  0
   39.6290   23.9050   35.1400 N   0  0  0  0  0  0  0  0  0  0  0  0
   40.4840   22.9850   35.6510 C   0  0  0  0  0  0  0  0  0  0  0  0
   41.5720   22.2780   35.1450 C   0  0  0  0  0  0  0  0  0  0  0  0
   41.8320   22.4760   34.1080 H   0  0  0  0  0  0  0  0  0  0  0  0
   42.2780   21.3980   35.8730 N   0  0  0  0  0  0  0  0  0  0  0  0
   41.9430   21.1680   37.1460 C   0  0  0  0  0  0  0  0  0  0  0  0
   42.5290   20.4510   37.7140 H   0  0  0  0  0  0  0  0  0  0  0  0
   40.8870   21.8320   37.6910 N   0  0  0  0  0  0  0  0  0  0  0  0
   40.1720   22.7180   36.9730 C   0  0  0  0  0  0  0  0  0  0  0  0
  2  3  1  0  0  0  0
  2  1  2  1  0  0  0
  2 17  1  0  0  0  0
  3  4  1  0  0  0  0
  5  2  1  0  0  0  0
  6  5  1  0  0  0  0
  7  6  1  0  0  0  0
  7 14  1  0  0  0  0
  8  7  2  0  0  0  0
  9 10  2  0  0  0  0
  9  8  1  0  0  0  0
 10 11  1  0  0  0  0
 11  6  2  0  0  0  0
 12  8  1  0  0  0  0
 13 10  1  0  0  0  0
 14 15  1  0  0  0  0
 16 14  1  0  0  0  0
 17 20  1  0  0  0  0
 19 18  1  0  0  0  0
 20 19  1  0  0  0  0
 21 22  1  0  0  0  0
 21 20  2  0  0  0  0
 22 29  1  0  0  0  0
 23 22  2  0  0  0  0
 23 25  1  0  0  0  0
 24 23  1  0  0  0  0
 25 26  2  0  0  0  0
 26 28  1  0  0  0  0
 26 27  1  0  0  0  0
 29 19  1  0  0  0  0
 29 28  2  0  0  0  0
M  END
>  <minimizedAffinity>
-4.80049467

$$$$

 OpenBabel03272504183D

 29 31  0  0  0  0  0  0  0  0999 V2000
   38.2150   26.5710   36.5130 O   0  0  0  0  0  0  0  0  0  0  0  0
   38.5500   25.5220   35.4690 P   0  0  1  0  0  0  0  0  0  0  0  0
   40.1320   25.7050   34.9020 O   0  0  0  0  0  0  0  0  0  0  0  0
   40.1180   25.8660   33.9270 H   0  0  0  0  0  0  0  0  0  0  0  0
   38.4270   23.9250   36.1080 O   0  0  0  0  0  0  0  0  0  0  0  0
   39.5360   23.1020   36.2460 C   0  0  0  0  0  0  0  0  0  0  0  0
   40.0190   22.5500   37.4290 C   0  0  0  0  0  0  0  0  0  0  0  0
   41.1520   21.7440   37.3720 C   0  0  0  0  0  0  0  0  0  0  0  0
   41.7550   21.5180   36.1710 N   0  0  0  0  0  0  0  0  0  0  0  0
   41.2470   22.0790   35.0380 C   0  0  0  0  0  0  0  0  0  0  0  0
   40.1400   22.8730   35.0590 N   0  0  0  0  0  0  0  0  0  0  0  0
   41.4850   21.3400   38.3190 H   0  0  0  0  0  0  0  0  0  0  0  0
   41.7760   21.8610   34.1040 H   0  0  0  0  0  0  0  0  0  0  0  0
   39.2760   22.8860   38.5790 N   0  0  0  0  0  0  0  0  0  0  0  0
   38.5300   22.2320   38.9600 H   0  0  0  0  0  0  0  0  0  0  0  0
   39.5410   23.7970   38.9740 H   0  0  0  0  0  0  0  0  0  0  0  0
   37.4180   25.7390   34.2370 O   0  0  0  0  0  0  0  0  0  0  0  0
   39.5080   25.7560   32.3030 H   0  0  0  0  0  0  0  0  0  0  0  0
   38.6530   26.3160   32.1400 N   0  0  0  0  0  0  0  0  0  0  0  0
   37.6430   26.3360   33.0290 C   0  0  0  0  0  0  0  0  0  0  0  0
   36.6780   27.1570   32.5310 N   0  0  0  0  0  0  0  0  0  0  0  0
   37.1370   27.6150   31.3400 C   0  0  0  0  0  0  0  0  0  0  0  0
   36.6320   28.4700   30.3630 C   0  0  0  0  0  0  0  0  0  0  0  0
   35.6480   28.8900   30.5560 H   0  0  0  0  0  0  0  0  0  0  0  0
   37.3000   28.7770   29.2400 N   0  0  0  0  0  0  0  0  0  0  0  0
   38.5090   28.2510   29.0200 C   0  0  0  0  0  0  0  0  0  0  0  0
   39.0290   28.5140   28.1050 H   0  0  0  0  0  0  0  0  0  0  0  0
   39.0500   27.4090   29.9430 N   0  0  0  0  0  0  0  0  0  0  0  0
   38.3920   27.0940   31.0740 C   0  0  0  0  0  0  0  0  0  0  0  0
  2  5  1  0  0  0  0
  2  1  2  1  0  0  0
  3  2  1  0  0  0  0
  4  3  1  0  0  0  0
  5  6  1  0  0  0  0
  6  7  1  0  0  0  0
  7 14  1  0  0  0  0
  8  7  2  0  0  0  0
  8 12  1  0  0  0  0
  9  8  1  0  0  0  0
 10 11  1  0  0  0  0
 10  9  2  0  0  0  0
 11  6  2  0  0  0  0
 13 10  1  0  0  0  0
 14 15  1  0  0  0  0
 14 16  1  0  0  0  0
 17  2  1  0  0  0  0
 19 18  1  0  0  0  0
 19 20  1  0  0  0  0
 20 17  1  0  0  0  0
 21 20  2  0  0  0  0
 22 21  1  0  0  0  0
 23 24  1  0  0  0  0
 23 22  2  0  0  0  0
 25 23  1  0  0  0  0
 26 25  2  0  0  0  0
 26 28  1  0  0  0  0
 27 26  1  0  0  0  0
 28 29  2  0  0  0  0
 29 22  1  0  0  0  0
 29 19  1  0  0  0  0
M  END
>  <minimizedAffinity>
-4.7754488

$$$$
