
 OpenBabel03262521553D

 42 45  0  0  1  0  0  0  0  0999 V2000
   31.5710   26.4720   48.2520 C   0  0  1  0  0  0  0  0  0  0  0  0
   32.1970   27.8400   48.2080 C   0  0  2  0  0  0  0  0  0  0  0  0
   31.7530   28.5170   46.9620 C   0  0  0  0  0  0  0  0  0  0  0  0
   30.9280   27.7310   46.1710 O   0  0  0  0  0  0  0  0  0  0  0  0
   29.7720   27.3540   46.8510 C   0  0  0  0  0  0  0  0  0  0  0  0
   30.0640   26.6690   48.1560 C   0  0  2  0  0  0  0  0  0  0  0  0
   31.7730   25.9510   49.1980 H   0  0  0  0  0  0  0  0  0  0  0  0
   31.8280   28.4060   49.0990 H   0  0  0  0  0  0  0  0  0  0  0  0
   31.1500   29.4370   47.2110 H   0  0  0  0  0  0  0  0  0  0  0  0
   32.6420   28.7580   46.3400 H   0  0  0  0  0  0  0  0  0  0  0  0
   29.1880   28.2840   47.0460 H   0  0  0  0  0  0  0  0  0  0  0  0
   29.1640   26.7350   46.1880 H   0  0  0  0  0  0  0  0  0  0  0  0
   29.5170   25.7260   48.2160 H   0  0  0  0  0  0  0  0  0  0  0  0
   31.9410   25.7270   47.1260 O   0  0  0  0  0  0  0  0  0  0  0  0
   31.1840   25.1380   46.8750 H   0  0  0  0  0  0  0  0  0  0  0  0
   33.9950   27.7680   48.3360 S   0  0  0  0  0  0  0  0  0  0  0  0
   34.6360   29.3140   49.0330 C   0  0  0  0  0  0  0  0  0  0  0  0
   34.6410   30.0590   48.1960 H   0  0  0  0  0  0  0  0  0  0  0  0
   33.9940   29.6990   49.8340 H   0  0  0  0  0  0  0  0  0  0  0  0
   36.3160   29.1850   49.6270 S   0  0  0  0  0  0  0  0  0  0  0  0
   37.2420   30.5900   49.0580 C   0  0  0  0  0  0  0  0  0  0  0  0
   37.0990   31.7380   49.8270 C   0  0  0  0  0  0  0  0  0  0  0  0
   37.7940   32.8930   49.4480 C   0  0  0  0  0  0  0  0  0  0  0  0
   38.5830   32.8190   48.3310 N   0  0  0  0  0  0  0  0  0  0  0  0
   38.6820   31.6760   47.6250 C   0  0  0  0  0  0  0  0  0  0  0  0
   38.0330   30.5830   47.9700 N   0  0  0  0  0  0  0  0  0  0  0  0
   36.5000   31.8550   50.7070 H   0  0  0  0  0  0  0  0  0  0  0  0
   37.7140   33.8090   50.0140 H   0  0  0  0  0  0  0  0  0  0  0  0
   39.3340   31.6970   46.7410 H   0  0  0  0  0  0  0  0  0  0  0  0
   29.7450   27.5080   49.2200 O   0  0  0  0  0  0  0  0  0  0  0  0
   29.2180   30.2630   48.7310 H   0  0  0  0  0  0  0  0  0  0  0  0
   28.4380   29.6130   48.9220 N   0  0  0  0  0  0  0  0  0  0  0  0
   28.6060   28.3000   49.1630 C   0  0  0  0  0  0  0  0  0  0  0  0
   27.3600   27.7870   49.3680 N   0  0  0  0  0  0  0  0  0  0  0  0
   26.4430   28.7700   49.2560 C   0  0  0  0  0  0  0  0  0  0  0  0
   25.0680   28.8020   49.3660 C   0  0  0  0  0  0  0  0  0  0  0  0
   24.4930   27.8980   49.5910 H   0  0  0  0  0  0  0  0  0  0  0  0
   24.4020   29.9730   49.1960 N   0  0  0  0  0  0  0  0  0  0  0  0
   25.1020   31.1100   48.9150 C   0  0  0  0  0  0  0  0  0  0  0  0
   24.5460   32.0460   48.7820 H   0  0  0  0  0  0  0  0  0  0  0  0
   26.4630   31.1150   48.7990 N   0  0  0  0  0  0  0  0  0  0  0  0
   27.1350   29.9440   48.9690 C   0  0  0  0  0  0  0  0  0  0  0  0
  1  7  1  1  0  0  0
  2  1  1  0  0  0  0
  2 16  1  0  0  0  0
  2  8  1  1  0  0  0
  3  9  1  0  0  0  0
  3  2  1  0  0  0  0
  4  5  1  0  0  0  0
  4  3  1  0  0  0  0
  5 11  1  0  0  0  0
  5  6  1  0  0  0  0
  6 13  1  1  0  0  0
  6  1  1  0  0  0  0
  6 30  1  0  0  0  0
 10  3  1  0  0  0  0
 12  5  1  0  0  0  0
 14  1  1  0  0  0  0
 15 14  1  0  0  0  0
 16 17  1  0  0  0  0
 17 20  1  0  0  0  0
 17 19  1  0  0  0  0
 18 17  1  0  0  0  0
 21 20  1  0  0  0  0
 21 22  1  0  0  0  0
 22 27  1  0  0  0  0
 23 22  2  0  0  0  0
 23 28  1  0  0  0  0
 24 23  1  0  0  0  0
 25 26  1  0  0  0  0
 25 24  2  0  0  0  0
 26 21  2  0  0  0  0
 29 25  1  0  0  0  0
 31 32  1  0  0  0  0
 32 42  1  0  0  0  0
 32 33  1  0  0  0  0
 33 30  1  0  0  0  0
 33 34  2  0  0  0  0
 35 36  1  0  0  0  0
 35 34  1  0  0  0  0
 36 37  1  0  0  0  0
 38 36  2  0  0  0  0
 39 38  1  0  0  0  0
 40 39  1  0  0  0  0
 41 39  2  0  0  0  0
 41 42  1  0  0  0  0
 42 35  2  0  0  0  0
M  END
>  <minimizedAffinity>
-6.41825581

>  <minimizedRMSD>
2.29207158

$$$$
