
 OpenBabel03272501593D

 34 37  0  0  0  0  0  0  0  0999 V2000
   36.4610   28.4830   32.9950 C   0  0  0  0  0  0  0  0  0  0  0  0
   37.3650   27.9730   32.0760 C   0  0  0  0  0  0  0  0  0  0  0  0
   38.0670   26.9360   32.6760 C   0  0  0  0  0  0  0  0  0  0  0  0
   37.5650   26.8520   33.9370 N   0  0  0  0  0  0  0  0  0  0  0  0
   36.6240   27.7630   34.1140 N   0  0  0  0  0  0  0  0  0  0  0  0
   37.4990   28.3270   31.0610 H   0  0  0  0  0  0  0  0  0  0  0  0
   38.8370   26.3660   32.1730 H   0  0  0  0  0  0  0  0  0  0  0  0
   39.6900   24.9320   33.7360 H   0  0  0  0  0  0  0  0  0  0  0  0
   39.1210   25.0000   34.5940 N   0  0  0  0  0  0  0  0  0  0  0  0
   38.1040   25.8580   34.8000 C   0  0  0  0  0  0  0  0  0  0  0  0
   37.6360   25.6140   36.0510 N   0  0  0  0  0  0  0  0  0  0  0  0
   38.3410   24.6250   36.6180 C   0  0  0  0  0  0  0  0  0  0  0  0
   38.2350   24.0370   37.8620 C   0  0  0  0  0  0  0  0  0  0  0  0
   37.4780   24.3580   38.5910 H   0  0  0  0  0  0  0  0  0  0  0  0
   39.0790   23.0510   38.1870 N   0  0  0  0  0  0  0  0  0  0  0  0
   40.0140   22.6540   37.2890 C   0  0  0  0  0  0  0  0  0  0  0  0
   40.6800   21.8590   37.5750 H   0  0  0  0  0  0  0  0  0  0  0  0
   40.1260   23.2250   36.0660 N   0  0  0  0  0  0  0  0  0  0  0  0
   39.2910   24.2250   35.7020 C   0  0  0  0  0  0  0  0  0  0  0  0
   35.4930   29.6160   32.7760 C   0  0  0  0  0  0  0  0  0  0  0  0
   35.1100   29.5620   31.7410 H   0  0  0  0  0  0  0  0  0  0  0  0
   36.0360   30.5520   33.0150 H   0  0  0  0  0  0  0  0  0  0  0  0
   34.4130   29.4330   33.8150 C   0  0  0  0  0  0  0  0  0  0  0  0
   33.3960   29.6100   33.3600 H   0  0  0  0  0  0  0  0  0  0  0  0
   34.3780   28.4030   34.2030 H   0  0  0  0  0  0  0  0  0  0  0  0
   35.8260   32.0200   36.0560 C   0  0  0  0  0  0  0  0  0  0  0  0
   34.7390   32.2830   36.9150 C   0  0  0  0  0  0  0  0  0  0  0  0
   33.5320   31.5690   36.7160 C   0  0  0  0  0  0  0  0  0  0  0  0
   33.4970   30.6690   35.7030 N   0  0  0  0  0  0  0  0  0  0  0  0
   34.5670   30.4460   34.8980 C   0  0  0  0  0  0  0  0  0  0  0  0
   35.6900   31.1140   35.0890 N   0  0  0  0  0  0  0  0  0  0  0  0
   36.7630   32.5680   36.2050 H   0  0  0  0  0  0  0  0  0  0  0  0
   34.8560   33.0270   37.7080 H   0  0  0  0  0  0  0  0  0  0  0  0
   32.7030   31.7620   37.3620 H   0  0  0  0  0  0  0  0  0  0  0  0
  1  5  2  0  0  0  0
  2  3  2  0  0  0  0
  2  1  1  0  0  0  0
  3  4  1  0  0  0  0
  4  5  1  0  0  0  0
  4 10  1  0  0  0  0
  6  2  1  0  0  0  0
  7  3  1  0  0  0  0
  8  9  1  0  0  0  0
  9 10  1  0  0  0  0
  9 19  1  0  0  0  0
 10 11  2  0  0  0  0
 11 12  1  0  0  0  0
 12 13  1  0  0  0  0
 13 15  2  0  0  0  0
 13 14  1  0  0  0  0
 16 17  1  0  0  0  0
 16 15  1  0  0  0  0
 18 16  2  0  0  0  0
 19 18  1  0  0  0  0
 19 12  2  0  0  0  0
 20  1  1  0  0  0  0
 20 22  1  0  0  0  0
 20 23  1  0  0  0  0
 21 20  1  0  0  0  0
 23 25  1  0  0  0  0
 23 30  1  0  0  0  0
 24 23  1  0  0  0  0
 26 32  1  0  0  0  0
 26 27  1  0  0  0  0
 27 33  1  0  0  0  0
 28 27  2  0  0  0  0
 28 34  1  0  0  0  0
 29 28  1  0  0  0  0
 30 31  1  0  0  0  0
 30 29  2  0  0  0  0
 31 26  2  0  0  0  0
M  END
>  <minimizedAffinity>
-5.57538366

$$$$

 OpenBabel03272501593D

 34 37  0  0  0  0  0  0  0  0999 V2000
   36.6800   28.2670   32.6360 C   0  0  0  0  0  0  0  0  0  0  0  0
   37.7120   27.7800   31.8500 C   0  0  0  0  0  0  0  0  0  0  0  0
   38.3880   26.8000   32.5650 C   0  0  0  0  0  0  0  0  0  0  0  0
   37.7440   26.7260   33.7590 N   0  0  0  0  0  0  0  0  0  0  0  0
   36.7430   27.5900   33.7910 N   0  0  0  0  0  0  0  0  0  0  0  0
   37.9490   28.1110   30.8460 H   0  0  0  0  0  0  0  0  0  0  0  0
   39.2410   26.2580   32.1770 H   0  0  0  0  0  0  0  0  0  0  0  0
   39.9710   24.9190   33.8800 H   0  0  0  0  0  0  0  0  0  0  0  0
   39.3010   24.9810   34.6610 N   0  0  0  0  0  0  0  0  0  0  0  0
   38.2240   25.7880   34.7150 C   0  0  0  0  0  0  0  0  0  0  0  0
   37.6220   25.5550   35.9100 N   0  0  0  0  0  0  0  0  0  0  0  0
   38.3030   24.6240   36.5910 C   0  0  0  0  0  0  0  0  0  0  0  0
   38.0780   24.0670   37.8330 C   0  0  0  0  0  0  0  0  0  0  0  0
   37.2240   24.3670   38.4560 H   0  0  0  0  0  0  0  0  0  0  0  0
   38.9260   23.1380   38.2910 N   0  0  0  0  0  0  0  0  0  0  0  0
   39.9810   22.7670   37.5250 C   0  0  0  0  0  0  0  0  0  0  0  0
   40.6460   22.0170   37.9150 H   0  0  0  0  0  0  0  0  0  0  0  0
   40.2090   23.3070   36.3040 N   0  0  0  0  0  0  0  0  0  0  0  0
   39.3750   24.2490   35.8080 C   0  0  0  0  0  0  0  0  0  0  0  0
   35.6890   29.3390   32.2640 C   0  0  0  0  0  0  0  0  0  0  0  0
   34.8280   28.8670   31.7580 H   0  0  0  0  0  0  0  0  0  0  0  0
   36.2340   30.0780   31.6460 H   0  0  0  0  0  0  0  0  0  0  0  0
   35.3130   30.0120   33.5630 C   0  0  0  0  0  0  0  0  0  0  0  0
   35.9490   29.6180   34.4070 H   0  0  0  0  0  0  0  0  0  0  0  0
   35.5050   31.0960   33.5410 H   0  0  0  0  0  0  0  0  0  0  0  0
   32.1600   29.5670   35.4510 C   0  0  0  0  0  0  0  0  0  0  0  0
   31.2960   29.0620   34.4570 C   0  0  0  0  0  0  0  0  0  0  0  0
   31.8060   28.8790   33.1480 C   0  0  0  0  0  0  0  0  0  0  0  0
   33.1040   29.2040   32.9320 N   0  0  0  0  0  0  0  0  0  0  0  0
   33.9020   29.6880   33.9180 C   0  0  0  0  0  0  0  0  0  0  0  0
   33.4210   29.8560   35.1360 N   0  0  0  0  0  0  0  0  0  0  0  0
   31.7720   29.7100   36.4660 H   0  0  0  0  0  0  0  0  0  0  0  0
   30.2620   28.8260   34.7210 H   0  0  0  0  0  0  0  0  0  0  0  0
   31.1600   28.4980   32.3890 H   0  0  0  0  0  0  0  0  0  0  0  0
  1  5  2  0  0  0  0
  2  3  2  0  0  0  0
  2  1  1  0  0  0  0
  3  4  1  0  0  0  0
  4  5  1  0  0  0  0
  4 10  1  0  0  0  0
  6  2  1  0  0  0  0
  7  3  1  0  0  0  0
  8  9  1  0  0  0  0
  9 10  1  0  0  0  0
  9 19  1  0  0  0  0
 10 11  2  0  0  0  0
 11 12  1  0  0  0  0
 12 13  1  0  0  0  0
 13 15  2  0  0  0  0
 13 14  1  0  0  0  0
 16 17  1  0  0  0  0
 16 15  1  0  0  0  0
 18 16  2  0  0  0  0
 19 18  1  0  0  0  0
 19 12  2  0  0  0  0
 20  1  1  0  0  0  0
 20 23  1  0  0  0  0
 21 20  1  0  0  0  0
 22 20  1  0  0  0  0
 23 30  1  0  0  0  0
 23 24  1  0  0  0  0
 25 23  1  0  0  0  0
 26 32  1  0  0  0  0
 27 33  1  0  0  0  0
 27 26  2  0  0  0  0
 28 27  1  0  0  0  0
 29 28  2  0  0  0  0
 29 30  1  0  0  0  0
 30 31  2  0  0  0  0
 31 26  1  0  0  0  0
 34 28  1  0  0  0  0
M  END
>  <minimizedAffinity>
-5.38576174

$$$$

 OpenBabel03272501593D

 34 37  0  0  0  0  0  0  0  0999 V2000
   35.8880   29.0140   33.7710 C   0  0  0  0  0  0  0  0  0  0  0  0
   36.1570   28.4880   32.5180 C   0  0  0  0  0  0  0  0  0  0  0  0
   36.8290   27.2840   32.6790 C   0  0  0  0  0  0  0  0  0  0  0  0
   36.9430   27.1200   34.0230 N   0  0  0  0  0  0  0  0  0  0  0  0
   36.3880   28.1400   34.6550 N   0  0  0  0  0  0  0  0  0  0  0  0
   35.8880   28.9430   31.5720 H   0  0  0  0  0  0  0  0  0  0  0  0
   37.1570   26.6670   31.8520 H   0  0  0  0  0  0  0  0  0  0  0  0
   38.3140   24.9260   32.7780 H   0  0  0  0  0  0  0  0  0  0  0  0
   38.2190   24.9740   33.8050 N   0  0  0  0  0  0  0  0  0  0  0  0
   37.6010   25.9500   34.4950 C   0  0  0  0  0  0  0  0  0  0  0  0
   37.7070   25.6250   35.8090 N   0  0  0  0  0  0  0  0  0  0  0  0
   38.3770   24.4720   35.9420 C   0  0  0  0  0  0  0  0  0  0  0  0
   38.7270   23.7530   37.0670 C   0  0  0  0  0  0  0  0  0  0  0  0
   38.4610   24.0940   38.0770 H   0  0  0  0  0  0  0  0  0  0  0  0
   39.4080   22.6100   36.9210 N   0  0  0  0  0  0  0  0  0  0  0  0
   39.7370   22.1880   35.6760 C   0  0  0  0  0  0  0  0  0  0  0  0
   40.2840   21.2660   35.5860 H   0  0  0  0  0  0  0  0  0  0  0  0
   39.3980   22.8860   34.5650 N   0  0  0  0  0  0  0  0  0  0  0  0
   38.7100   24.0460   34.6730 C   0  0  0  0  0  0  0  0  0  0  0  0
   35.1750   30.3060   34.0750 C   0  0  0  0  0  0  0  0  0  0  0  0
   34.1080   30.0890   34.2580 H   0  0  0  0  0  0  0  0  0  0  0  0
   35.3650   30.9850   33.2200 H   0  0  0  0  0  0  0  0  0  0  0  0
   35.8760   30.8820   35.2830 C   0  0  0  0  0  0  0  0  0  0  0  0
   36.2150   30.0540   35.9710 H   0  0  0  0  0  0  0  0  0  0  0  0
   36.7950   31.4240   35.0120 H   0  0  0  0  0  0  0  0  0  0  0  0
   32.8840   32.0430   37.1300 C   0  0  0  0  0  0  0  0  0  0  0  0
   33.2730   33.3410   37.5240 C   0  0  0  0  0  0  0  0  0  0  0  0
   34.5590   33.8030   37.1500 C   0  0  0  0  0  0  0  0  0  0  0  0
   35.3420   32.9620   36.4310 N   0  0  0  0  0  0  0  0  0  0  0  0
   34.9290   31.7190   36.0730 C   0  0  0  0  0  0  0  0  0  0  0  0
   33.7290   31.2940   36.4240 N   0  0  0  0  0  0  0  0  0  0  0  0
   31.8910   31.6790   37.4150 H   0  0  0  0  0  0  0  0  0  0  0  0
   32.5770   33.9520   38.1030 H   0  0  0  0  0  0  0  0  0  0  0  0
   34.8620   34.7840   37.4440 H   0  0  0  0  0  0  0  0  0  0  0  0
  1 20  1  0  0  0  0
  1  5  2  0  0  0  0
  2  3  2  0  0  0  0
  2  1  1  0  0  0  0
  3  4  1  0  0  0  0
  4 10  1  0  0  0  0
  4  5  1  0  0  0  0
  6  2  1  0  0  0  0
  7  3  1  0  0  0  0
  8  9  1  0  0  0  0
  9 10  1  0  0  0  0
  9 19  1  0  0  0  0
 10 11  2  0  0  0  0
 11 12  1  0  0  0  0
 12 13  1  0  0  0  0
 13 14  1  0  0  0  0
 15 13  2  0  0  0  0
 16 15  1  0  0  0  0
 17 16  1  0  0  0  0
 18 19  1  0  0  0  0
 18 16  2  0  0  0  0
 19 12  2  0  0  0  0
 20 21  1  0  0  0  0
 20 23  1  0  0  0  0
 22 20  1  0  0  0  0
 23 24  1  0  0  0  0
 23 30  1  0  0  0  0
 25 23  1  0  0  0  0
 26 32  1  0  0  0  0
 26 27  1  0  0  0  0
 27 33  1  0  0  0  0
 28 34  1  0  0  0  0
 28 27  2  0  0  0  0
 29 28  1  0  0  0  0
 30 31  1  0  0  0  0
 30 29  2  0  0  0  0
 31 26  2  0  0  0  0
M  END
>  <minimizedAffinity>
-5.3566308

$$$$

 OpenBabel03272501593D

 34 37  0  0  0  0  0  0  0  0999 V2000
   35.8240   29.3150   34.0300 C   0  0  0  0  0  0  0  0  0  0  0  0
   35.9760   28.9010   32.7160 C   0  0  0  0  0  0  0  0  0  0  0  0
   36.6020   27.6610   32.7140 C   0  0  0  0  0  0  0  0  0  0  0  0
   36.8080   27.3660   34.0250 N   0  0  0  0  0  0  0  0  0  0  0  0
   36.3470   28.3420   34.7890 N   0  0  0  0  0  0  0  0  0  0  0  0
   35.6600   29.4540   31.8400 H   0  0  0  0  0  0  0  0  0  0  0  0
   36.8410   27.1130   31.8110 H   0  0  0  0  0  0  0  0  0  0  0  0
   37.9820   25.2490   32.4820 H   0  0  0  0  0  0  0  0  0  0  0  0
   37.9650   25.2030   33.5120 N   0  0  0  0  0  0  0  0  0  0  0  0
   37.4440   26.1320   34.3350 C   0  0  0  0  0  0  0  0  0  0  0  0
   37.6310   25.6800   35.6020 N   0  0  0  0  0  0  0  0  0  0  0  0
   38.2550   24.4950   35.5760 C   0  0  0  0  0  0  0  0  0  0  0  0
   38.6540   23.6590   36.6000 C   0  0  0  0  0  0  0  0  0  0  0  0
   38.4790   23.9130   37.6550 H   0  0  0  0  0  0  0  0  0  0  0  0
   39.2700   22.5100   36.2980 N   0  0  0  0  0  0  0  0  0  0  0  0
   39.4870   22.1960   34.9970 C   0  0  0  0  0  0  0  0  0  0  0  0
   39.9830   21.2660   34.7810 H   0  0  0  0  0  0  0  0  0  0  0  0
   39.1000   23.0090   33.9850 N   0  0  0  0  0  0  0  0  0  0  0  0
   38.4740   24.1780   34.2520 C   0  0  0  0  0  0  0  0  0  0  0  0
   35.1950   30.6000   34.5050 C   0  0  0  0  0  0  0  0  0  0  0  0
   34.1430   30.4010   34.7770 H   0  0  0  0  0  0  0  0  0  0  0  0
   35.3260   31.3400   33.6910 H   0  0  0  0  0  0  0  0  0  0  0  0
   36.0330   31.0520   35.6770 C   0  0  0  0  0  0  0  0  0  0  0  0
   35.7650   30.4620   36.6010 H   0  0  0  0  0  0  0  0  0  0  0  0
   37.1060   30.8650   35.5190 H   0  0  0  0  0  0  0  0  0  0  0  0
   36.1680   34.7510   35.7550 C   0  0  0  0  0  0  0  0  0  0  0  0
   35.1190   35.0600   36.6460 C   0  0  0  0  0  0  0  0  0  0  0  0
   34.3770   33.9940   37.2110 C   0  0  0  0  0  0  0  0  0  0  0  0
   34.7240   32.7330   36.8560 N   0  0  0  0  0  0  0  0  0  0  0  0
   35.7410   32.4790   35.9940 C   0  0  0  0  0  0  0  0  0  0  0  0
   36.4300   33.4770   35.4710 N   0  0  0  0  0  0  0  0  0  0  0  0
   36.7470   35.5710   35.3150 H   0  0  0  0  0  0  0  0  0  0  0  0
   34.9080   36.1080   36.8760 H   0  0  0  0  0  0  0  0  0  0  0  0
   33.5800   34.2190   37.8870 H   0  0  0  0  0  0  0  0  0  0  0  0
  1 20  1  0  0  0  0
  1  5  2  0  0  0  0
  2  1  1  0  0  0  0
  3  2  2  0  0  0  0
  3  4  1  0  0  0  0
  4 10  1  0  0  0  0
  4  5  1  0  0  0  0
  6  2  1  0  0  0  0
  7  3  1  0  0  0  0
  8  9  1  0  0  0  0
  9 19  1  0  0  0  0
  9 10  1  0  0  0  0
 10 11  2  0  0  0  0
 12 11  1  0  0  0  0
 12 13  1  0  0  0  0
 13 14  1  0  0  0  0
 15 13  2  0  0  0  0
 16 15  1  0  0  0  0
 17 16  1  0  0  0  0
 18 19  1  0  0  0  0
 18 16  2  0  0  0  0
 19 12  2  0  0  0  0
 20 21  1  0  0  0  0
 20 23  1  0  0  0  0
 22 20  1  0  0  0  0
 23 30  1  0  0  0  0
 23 24  1  0  0  0  0
 25 23  1  0  0  0  0
 26 27  1  0  0  0  0
 27 33  1  0  0  0  0
 27 28  2  0  0  0  0
 28 34  1  0  0  0  0
 29 28  1  0  0  0  0
 30 29  2  0  0  0  0
 31 26  2  0  0  0  0
 31 30  1  0  0  0  0
 32 26  1  0  0  0  0
M  END
>  <minimizedAffinity>
-5.18433714

$$$$

 OpenBabel03272501593D

 34 37  0  0  0  0  0  0  0  0999 V2000
   35.8160   28.9060   31.6610 C   0  0  0  0  0  0  0  0  0  0  0  0
   36.9720   28.9890   30.9020 C   0  0  0  0  0  0  0  0  0  0  0  0
   37.4210   27.7010   30.6380 C   0  0  0  0  0  0  0  0  0  0  0  0
   36.5220   26.8820   31.2460 N   0  0  0  0  0  0  0  0  0  0  0  0
   35.5840   27.5980   31.8430 N   0  0  0  0  0  0  0  0  0  0  0  0
   37.4440   29.9060   30.5710 H   0  0  0  0  0  0  0  0  0  0  0  0
   38.3100   27.4840   30.0620 H   0  0  0  0  0  0  0  0  0  0  0  0
   38.5720   25.2140   30.1260 H   0  0  0  0  0  0  0  0  0  0  0  0
   37.7470   24.7980   30.5860 N   0  0  0  0  0  0  0  0  0  0  0  0
   36.7280   25.4790   31.1440 C   0  0  0  0  0  0  0  0  0  0  0  0
   35.8620   24.5530   31.6310 N   0  0  0  0  0  0  0  0  0  0  0  0
   36.3250   23.3200   31.3850 C   0  0  0  0  0  0  0  0  0  0  0  0
   35.8000   22.0800   31.6860 C   0  0  0  0  0  0  0  0  0  0  0  0
   34.8440   21.9690   32.2170 H   0  0  0  0  0  0  0  0  0  0  0  0
   36.4760   20.9830   31.3220 N   0  0  0  0  0  0  0  0  0  0  0  0
   37.6560   21.1170   30.6680 C   0  0  0  0  0  0  0  0  0  0  0  0
   38.1780   20.2200   30.3860 H   0  0  0  0  0  0  0  0  0  0  0  0
   38.1790   22.3300   30.3680 N   0  0  0  0  0  0  0  0  0  0  0  0
   37.5250   23.4610   30.7200 C   0  0  0  0  0  0  0  0  0  0  0  0
   34.9880   30.0560   32.1750 C   0  0  0  0  0  0  0  0  0  0  0  0
   34.3060   30.3900   31.3730 H   0  0  0  0  0  0  0  0  0  0  0  0
   35.6990   30.8300   32.5250 H   0  0  0  0  0  0  0  0  0  0  0  0
   34.2590   29.5210   33.3850 C   0  0  0  0  0  0  0  0  0  0  0  0
   33.1440   29.5640   33.2220 H   0  0  0  0  0  0  0  0  0  0  0  0
   34.4810   28.4590   33.5700 H   0  0  0  0  0  0  0  0  0  0  0  0
   35.9900   31.6330   35.8860 C   0  0  0  0  0  0  0  0  0  0  0  0
   34.9420   31.9420   36.7790 C   0  0  0  0  0  0  0  0  0  0  0  0
   33.6520   31.4210   36.5120 C   0  0  0  0  0  0  0  0  0  0  0  0
   33.5040   30.6520   35.4060 N   0  0  0  0  0  0  0  0  0  0  0  0
   34.5400   30.3790   34.5720 C   0  0  0  0  0  0  0  0  0  0  0  0
   35.7410   30.8670   34.8260 N   0  0  0  0  0  0  0  0  0  0  0  0
   36.9900   32.0330   36.0870 H   0  0  0  0  0  0  0  0  0  0  0  0
   35.1510   32.5710   37.6470 H   0  0  0  0  0  0  0  0  0  0  0  0
   32.8520   31.6500   37.1820 H   0  0  0  0  0  0  0  0  0  0  0  0
  1  5  2  0  0  0  0
  1 20  1  0  0  0  0
  2  1  1  0  0  0  0
  3  2  2  0  0  0  0
  3  4  1  0  0  0  0
  4  5  1  0  0  0  0
  6  2  1  0  0  0  0
  7  3  1  0  0  0  0
  8  9  1  0  0  0  0
  9 19  1  0  0  0  0
  9 10  1  0  0  0  0
 10  4  1  0  0  0  0
 10 11  2  0  0  0  0
 12 11  1  0  0  0  0
 12 13  1  0  0  0  0
 13 14  1  0  0  0  0
 15 13  2  0  0  0  0
 16 15  1  0  0  0  0
 17 16  1  0  0  0  0
 18 16  2  0  0  0  0
 18 19  1  0  0  0  0
 19 12  2  0  0  0  0
 20 22  1  0  0  0  0
 20 23  1  0  0  0  0
 21 20  1  0  0  0  0
 23 25  1  0  0  0  0
 23 30  1  0  0  0  0
 24 23  1  0  0  0  0
 26 32  1  0  0  0  0
 26 27  1  0  0  0  0
 27 33  1  0  0  0  0
 28 27  2  0  0  0  0
 28 34  1  0  0  0  0
 29 28  1  0  0  0  0
 30 31  1  0  0  0  0
 30 29  2  0  0  0  0
 31 26  2  0  0  0  0
M  END
>  <minimizedAffinity>
-5.1711545

$$$$

 OpenBabel03272501593D

 34 37  0  0  0  0  0  0  0  0999 V2000
   37.1600   26.2920   33.4570 C   0  0  0  0  0  0  0  0  0  0  0  0
   36.5960   26.6320   32.2380 C   0  0  0  0  0  0  0  0  0  0  0  0
   36.0130   27.8870   32.3560 C   0  0  0  0  0  0  0  0  0  0  0  0
   36.2440   28.2650   33.6410 N   0  0  0  0  0  0  0  0  0  0  0  0
   36.9180   27.3240   34.2790 N   0  0  0  0  0  0  0  0  0  0  0  0
   36.6080   26.0190   31.3450 H   0  0  0  0  0  0  0  0  0  0  0  0
   35.5010   28.3870   31.5440 H   0  0  0  0  0  0  0  0  0  0  0  0
   34.6530   30.3200   32.4210 H   0  0  0  0  0  0  0  0  0  0  0  0
   35.0020   30.4270   33.3860 N   0  0  0  0  0  0  0  0  0  0  0  0
   35.7530   29.5340   34.0570 C   0  0  0  0  0  0  0  0  0  0  0  0
   35.9870   30.0660   35.2850 N   0  0  0  0  0  0  0  0  0  0  0  0
   35.3980   31.2650   35.3830 C   0  0  0  0  0  0  0  0  0  0  0  0
   35.3590   32.1710   36.4230 C   0  0  0  0  0  0  0  0  0  0  0  0
   35.8630   31.9760   37.3800 H   0  0  0  0  0  0  0  0  0  0  0  0
   34.6880   33.3180   36.2600 N   0  0  0  0  0  0  0  0  0  0  0  0
   34.0650   33.5600   35.0810 C   0  0  0  0  0  0  0  0  0  0  0  0
   33.5340   34.4900   34.9750 H   0  0  0  0  0  0  0  0  0  0  0  0
   34.0980   32.6780   34.0540 N   0  0  0  0  0  0  0  0  0  0  0  0
   34.7660   31.5080   34.1810 C   0  0  0  0  0  0  0  0  0  0  0  0
   37.8980   25.0210   33.7890 C   0  0  0  0  0  0  0  0  0  0  0  0
   38.2540   24.5610   32.8490 H   0  0  0  0  0  0  0  0  0  0  0  0
   37.2000   24.3890   34.3720 H   0  0  0  0  0  0  0  0  0  0  0  0
   39.0240   25.4330   34.7070 C   0  0  0  0  0  0  0  0  0  0  0  0
   40.0210   25.2180   34.2260 H   0  0  0  0  0  0  0  0  0  0  0  0
   39.0270   26.5160   34.9030 H   0  0  0  0  0  0  0  0  0  0  0  0
   39.7460   22.8750   37.2850 C   0  0  0  0  0  0  0  0  0  0  0  0
   38.8230   23.2140   38.2960 C   0  0  0  0  0  0  0  0  0  0  0  0
   37.9620   24.3190   38.0810 C   0  0  0  0  0  0  0  0  0  0  0  0
   38.0800   24.9860   36.9070 N   0  0  0  0  0  0  0  0  0  0  0  0
   38.9830   24.6250   35.9600 C   0  0  0  0  0  0  0  0  0  0  0  0
   39.7830   23.5940   36.1660 N   0  0  0  0  0  0  0  0  0  0  0  0
   40.4140   22.0220   37.4450 H   0  0  0  0  0  0  0  0  0  0  0  0
   38.7960   22.6210   39.2140 H   0  0  0  0  0  0  0  0  0  0  0  0
   37.2600   24.5840   38.8420 H   0  0  0  0  0  0  0  0  0  0  0  0
  1 20  1  0  0  0  0
  1  5  2  0  0  0  0
  2  3  2  0  0  0  0
  2  1  1  0  0  0  0
  3  4  1  0  0  0  0
  4 10  1  0  0  0  0
  4  5  1  0  0  0  0
  6  2  1  0  0  0  0
  7  3  1  0  0  0  0
  8  9  1  0  0  0  0
  9 10  1  0  0  0  0
  9 19  1  0  0  0  0
 10 11  2  0  0  0  0
 11 12  1  0  0  0  0
 12 13  1  0  0  0  0
 13 14  1  0  0  0  0
 15 13  2  0  0  0  0
 16 15  1  0  0  0  0
 17 16  1  0  0  0  0
 18 19  1  0  0  0  0
 18 16  2  0  0  0  0
 19 12  2  0  0  0  0
 20 22  1  0  0  0  0
 20 23  1  0  0  0  0
 21 20  1  0  0  0  0
 23 25  1  0  0  0  0
 23 30  1  0  0  0  0
 24 23  1  0  0  0  0
 26 32  1  0  0  0  0
 26 27  1  0  0  0  0
 27 33  1  0  0  0  0
 28 27  2  0  0  0  0
 28 34  1  0  0  0  0
 29 28  1  0  0  0  0
 30 31  1  0  0  0  0
 30 29  2  0  0  0  0
 31 26  2  0  0  0  0
M  END
>  <minimizedAffinity>
-5.11945629

$$$$

 OpenBabel03272501593D

 34 37  0  0  0  0  0  0  0  0999 V2000
   37.1570   26.2400   33.4100 C   0  0  0  0  0  0  0  0  0  0  0  0
   36.6070   26.5890   32.1870 C   0  0  0  0  0  0  0  0  0  0  0  0
   36.0350   27.8490   32.3030 C   0  0  0  0  0  0  0  0  0  0  0  0
   36.2580   28.2210   33.5920 N   0  0  0  0  0  0  0  0  0  0  0  0
   36.9160   27.2710   34.2320 N   0  0  0  0  0  0  0  0  0  0  0  0
   36.6220   25.9790   31.2920 H   0  0  0  0  0  0  0  0  0  0  0  0
   35.5350   28.3570   31.4880 H   0  0  0  0  0  0  0  0  0  0  0  0
   34.6970   30.2950   32.3640 H   0  0  0  0  0  0  0  0  0  0  0  0
   35.0380   30.3960   33.3330 N   0  0  0  0  0  0  0  0  0  0  0  0
   35.7740   29.4930   34.0080 C   0  0  0  0  0  0  0  0  0  0  0  0
   36.0020   30.0190   35.2390 N   0  0  0  0  0  0  0  0  0  0  0  0
   35.4240   31.2240   35.3360 C   0  0  0  0  0  0  0  0  0  0  0  0
   35.3830   32.1260   36.3780 C   0  0  0  0  0  0  0  0  0  0  0  0
   35.8760   31.9230   37.3390 H   0  0  0  0  0  0  0  0  0  0  0  0
   34.7250   33.2800   36.2130 N   0  0  0  0  0  0  0  0  0  0  0  0
   34.1150   33.5320   35.0290 C   0  0  0  0  0  0  0  0  0  0  0  0
   33.5940   34.4670   34.9210 H   0  0  0  0  0  0  0  0  0  0  0  0
   34.1500   32.6530   33.9990 N   0  0  0  0  0  0  0  0  0  0  0  0
   34.8060   31.4770   34.1290 C   0  0  0  0  0  0  0  0  0  0  0  0
   37.8790   24.9610   33.7440 C   0  0  0  0  0  0  0  0  0  0  0  0
   38.2210   24.4900   32.8050 H   0  0  0  0  0  0  0  0  0  0  0  0
   37.1780   24.3430   34.3380 H   0  0  0  0  0  0  0  0  0  0  0  0
   39.0180   25.3630   34.6500 C   0  0  0  0  0  0  0  0  0  0  0  0
   40.0060   25.0650   34.1940 H   0  0  0  0  0  0  0  0  0  0  0  0
   39.0810   26.4540   34.7830 H   0  0  0  0  0  0  0  0  0  0  0  0
   37.9550   24.3050   38.0360 C   0  0  0  0  0  0  0  0  0  0  0  0
   38.8320   23.2290   38.2910 C   0  0  0  0  0  0  0  0  0  0  0  0
   39.7790   22.8790   37.2970 C   0  0  0  0  0  0  0  0  0  0  0  0
   39.7830   23.6060   36.1530 N   0  0  0  0  0  0  0  0  0  0  0  0
   38.9210   24.6350   35.9480 C   0  0  0  0  0  0  0  0  0  0  0  0
   38.0410   24.9570   36.8780 N   0  0  0  0  0  0  0  0  0  0  0  0
   37.2210   24.5810   38.8000 H   0  0  0  0  0  0  0  0  0  0  0  0
   38.7580   22.6970   39.2430 H   0  0  0  0  0  0  0  0  0  0  0  0
   40.4460   22.0660   37.4820 H   0  0  0  0  0  0  0  0  0  0  0  0
  1 20  1  0  0  0  0
  1  5  2  0  0  0  0
  2  3  2  0  0  0  0
  2  1  1  0  0  0  0
  3  4  1  0  0  0  0
  4 10  1  0  0  0  0
  4  5  1  0  0  0  0
  6  2  1  0  0  0  0
  7  3  1  0  0  0  0
  8  9  1  0  0  0  0
  9 10  1  0  0  0  0
  9 19  1  0  0  0  0
 10 11  2  0  0  0  0
 11 12  1  0  0  0  0
 12 13  1  0  0  0  0
 13 14  1  0  0  0  0
 15 13  2  0  0  0  0
 16 15  1  0  0  0  0
 17 16  1  0  0  0  0
 18 19  1  0  0  0  0
 18 16  2  0  0  0  0
 19 12  2  0  0  0  0
 20 22  1  0  0  0  0
 20 23  1  0  0  0  0
 21 20  1  0  0  0  0
 23 25  1  0  0  0  0
 23 30  1  0  0  0  0
 24 23  1  0  0  0  0
 26 27  1  0  0  0  0
 26 32  1  0  0  0  0
 27 33  1  0  0  0  0
 28 34  1  0  0  0  0
 28 27  2  0  0  0  0
 29 28  1  0  0  0  0
 30 29  2  0  0  0  0
 30 31  1  0  0  0  0
 31 26  2  0  0  0  0
M  END
>  <minimizedAffinity>
-5.09682751

$$$$

 OpenBabel03272501593D

 34 37  0  0  0  0  0  0  0  0999 V2000
   38.1720   24.6150   33.0010 C   0  0  0  0  0  0  0  0  0  0  0  0
   37.7320   24.7090   31.6900 C   0  0  0  0  0  0  0  0  0  0  0  0
   36.9930   25.8770   31.5550 C   0  0  0  0  0  0  0  0  0  0  0  0
   37.0110   26.4510   32.7870 N   0  0  0  0  0  0  0  0  0  0  0  0
   37.7050   25.7040   33.6280 N   0  0  0  0  0  0  0  0  0  0  0  0
   37.9320   23.9900   30.9060 H   0  0  0  0  0  0  0  0  0  0  0  0
   36.5330   26.1890   30.6270 H   0  0  0  0  0  0  0  0  0  0  0  0
   35.3540   28.0880   31.1080 H   0  0  0  0  0  0  0  0  0  0  0  0
   35.5620   28.3700   32.0790 N   0  0  0  0  0  0  0  0  0  0  0  0
   36.3220   27.6850   32.9540 C   0  0  0  0  0  0  0  0  0  0  0  0
   36.3330   28.4030   34.1060 N   0  0  0  0  0  0  0  0  0  0  0  0
   35.5970   29.5130   33.9590 C   0  0  0  0  0  0  0  0  0  0  0  0
   35.3170   30.5360   34.8420 C   0  0  0  0  0  0  0  0  0  0  0  0
   35.7140   30.5410   35.8670 H   0  0  0  0  0  0  0  0  0  0  0  0
   34.5400   31.5480   34.4380 N   0  0  0  0  0  0  0  0  0  0  0  0
   34.0490   31.5440   33.1740 C   0  0  0  0  0  0  0  0  0  0  0  0
   33.4280   32.3690   32.8740 H   0  0  0  0  0  0  0  0  0  0  0  0
   34.3180   30.5450   32.3000 N   0  0  0  0  0  0  0  0  0  0  0  0
   35.1000   29.5050   32.6730 C   0  0  0  0  0  0  0  0  0  0  0  0
   39.0080   23.5120   33.5970 C   0  0  0  0  0  0  0  0  0  0  0  0
   39.8550   23.9640   34.1440 H   0  0  0  0  0  0  0  0  0  0  0  0
   39.3040   22.8480   32.7610 H   0  0  0  0  0  0  0  0  0  0  0  0
   38.0740   22.7350   34.4930 C   0  0  0  0  0  0  0  0  0  0  0  0
   37.0210   23.1310   34.4020 H   0  0  0  0  0  0  0  0  0  0  0  0
   38.0070   21.6740   34.2060 H   0  0  0  0  0  0  0  0  0  0  0  0
   39.9880   22.7000   37.6630 C   0  0  0  0  0  0  0  0  0  0  0  0
   39.0770   23.3000   38.5570 C   0  0  0  0  0  0  0  0  0  0  0  0
   37.8150   23.7100   38.0620 C   0  0  0  0  0  0  0  0  0  0  0  0
   37.5590   23.4980   36.7480 N   0  0  0  0  0  0  0  0  0  0  0  0
   38.4650   22.9170   35.9200 C   0  0  0  0  0  0  0  0  0  0  0  0
   39.6400   22.5360   36.3880 N   0  0  0  0  0  0  0  0  0  0  0  0
   40.9660   22.3810   38.0390 H   0  0  0  0  0  0  0  0  0  0  0  0
   39.3670   23.4330   39.6030 H   0  0  0  0  0  0  0  0  0  0  0  0
   37.1190   24.1660   38.7320 H   0  0  0  0  0  0  0  0  0  0  0  0
  1 20  1  0  0  0  0
  1  5  2  0  0  0  0
  2  1  1  0  0  0  0
  3  2  2  0  0  0  0
  3  4  1  0  0  0  0
  4 10  1  0  0  0  0
  4  5  1  0  0  0  0
  6  2  1  0  0  0  0
  7  3  1  0  0  0  0
  8  9  1  0  0  0  0
  9 19  1  0  0  0  0
  9 10  1  0  0  0  0
 10 11  2  0  0  0  0
 12 11  1  0  0  0  0
 12 13  1  0  0  0  0
 13 14  1  0  0  0  0
 15 13  2  0  0  0  0
 16 15  1  0  0  0  0
 17 16  1  0  0  0  0
 18 19  1  0  0  0  0
 18 16  2  0  0  0  0
 19 12  2  0  0  0  0
 20 21  1  0  0  0  0
 20 23  1  0  0  0  0
 22 20  1  0  0  0  0
 23 30  1  0  0  0  0
 24 23  1  0  0  0  0
 25 23  1  0  0  0  0
 26 32  1  0  0  0  0
 26 27  1  0  0  0  0
 27 33  1  0  0  0  0
 28 27  2  0  0  0  0
 28 34  1  0  0  0  0
 29 28  1  0  0  0  0
 30 31  1  0  0  0  0
 30 29  2  0  0  0  0
 31 26  2  0  0  0  0
M  END
>  <minimizedAffinity>
-5.01763868

$$$$

 OpenBabel03272501593D

 34 37  0  0  0  0  0  0  0  0999 V2000
   37.9190   27.1440   33.5040 C   0  0  0  0  0  0  0  0  0  0  0  0
   38.2540   27.5520   32.2230 C   0  0  0  0  0  0  0  0  0  0  0  0
   37.2660   28.4130   31.7610 C   0  0  0  0  0  0  0  0  0  0  0  0
   36.3670   28.4970   32.7780 N   0  0  0  0  0  0  0  0  0  0  0  0
   36.7590   27.7500   33.7950 N   0  0  0  0  0  0  0  0  0  0  0  0
   39.1380   27.2490   31.6760 H   0  0  0  0  0  0  0  0  0  0  0  0
   37.2860   28.8760   30.7830 H   0  0  0  0  0  0  0  0  0  0  0  0
   35.3260   30.0350   30.5890 H   0  0  0  0  0  0  0  0  0  0  0  0
   34.8330   30.0080   31.4960 N   0  0  0  0  0  0  0  0  0  0  0  0
   35.2260   29.3250   32.5870 C   0  0  0  0  0  0  0  0  0  0  0  0
   34.2990   29.5620   33.5500 N   0  0  0  0  0  0  0  0  0  0  0  0
   33.3460   30.3750   33.0760 C   0  0  0  0  0  0  0  0  0  0  0  0
   32.2140   30.8890   33.6770 C   0  0  0  0  0  0  0  0  0  0  0  0
   31.9550   30.6550   34.7190 H   0  0  0  0  0  0  0  0  0  0  0  0
   31.4120   31.6940   32.9690 N   0  0  0  0  0  0  0  0  0  0  0  0
   31.7300   31.9830   31.6830 C   0  0  0  0  0  0  0  0  0  0  0  0
   31.0700   32.6330   31.1370 H   0  0  0  0  0  0  0  0  0  0  0  0
   32.8380   31.4850   31.0850 N   0  0  0  0  0  0  0  0  0  0  0  0
   33.6730   30.6680   31.7690 C   0  0  0  0  0  0  0  0  0  0  0  0
   38.7030   26.2090   34.3890 C   0  0  0  0  0  0  0  0  0  0  0  0
   39.5920   26.7430   34.7710 H   0  0  0  0  0  0  0  0  0  0  0  0
   38.9340   25.3120   33.7810 H   0  0  0  0  0  0  0  0  0  0  0  0
   37.7500   25.7920   35.4830 C   0  0  0  0  0  0  0  0  0  0  0  0
   37.5180   26.6670   36.1560 H   0  0  0  0  0  0  0  0  0  0  0  0
   36.7760   25.4690   35.0860 H   0  0  0  0  0  0  0  0  0  0  0  0
   38.5120   23.5520   38.3320 C   0  0  0  0  0  0  0  0  0  0  0  0
   39.6310   22.8410   37.8490 C   0  0  0  0  0  0  0  0  0  0  0  0
   40.1110   23.1380   36.5500 C   0  0  0  0  0  0  0  0  0  0  0  0
   39.4600   24.0960   35.8460 N   0  0  0  0  0  0  0  0  0  0  0  0
   38.3870   24.7580   36.3480 C   0  0  0  0  0  0  0  0  0  0  0  0
   37.9440   24.4770   37.5610 N   0  0  0  0  0  0  0  0  0  0  0  0
   38.1360   23.3280   39.3360 H   0  0  0  0  0  0  0  0  0  0  0  0
   40.0940   22.0830   38.4860 H   0  0  0  0  0  0  0  0  0  0  0  0
   40.9570   22.6030   36.1760 H   0  0  0  0  0  0  0  0  0  0  0  0
  1  5  2  0  0  0  0
  1 20  1  0  0  0  0
  2  1  1  0  0  0  0
  3  2  2  0  0  0  0
  3  4  1  0  0  0  0
  4  5  1  0  0  0  0
  6  2  1  0  0  0  0
  7  3  1  0  0  0  0
  8  9  1  0  0  0  0
  9 19  1  0  0  0  0
  9 10  1  0  0  0  0
 10  4  1  0  0  0  0
 10 11  2  0  0  0  0
 12 11  1  0  0  0  0
 12 13  1  0  0  0  0
 13 14  1  0  0  0  0
 15 13  2  0  0  0  0
 16 15  1  0  0  0  0
 17 16  1  0  0  0  0
 18 16  2  0  0  0  0
 18 19  1  0  0  0  0
 19 12  2  0  0  0  0
 20 21  1  0  0  0  0
 20 23  1  0  0  0  0
 22 20  1  0  0  0  0
 23 24  1  0  0  0  0
 23 30  1  0  0  0  0
 25 23  1  0  0  0  0
 26 32  1  0  0  0  0
 27 26  1  0  0  0  0
 27 33  1  0  0  0  0
 28 27  2  0  0  0  0
 29 30  2  0  0  0  0
 29 28  1  0  0  0  0
 30 31  1  0  0  0  0
 31 26  2  0  0  0  0
 34 28  1  0  0  0  0
M  END
>  <minimizedAffinity>
-4.95805693

$$$$
