
 OpenBabel03262522283D

 49 53  0  0  0  0  0  0  0  0999 V2000
   36.5550   29.5070   48.8540 C   0  0  0  0  0  0  0  0  0  0  0  0
   36.9530   29.1070   47.8850 H   0  0  0  0  0  0  0  0  0  0  0  0
   36.8920   28.8480   49.6770 H   0  0  0  0  0  0  0  0  0  0  0  0
   38.5560   30.2210   47.1060 F   0  0  0  0  0  0  0  0  0  0  0  0
   38.1390   31.1300   48.0410 C   0  0  0  0  0  0  0  0  0  0  0  0
   37.1400   30.8770   48.9710 C   0  0  0  0  0  0  0  0  0  0  0  0
   36.7670   31.8280   49.8840 C   0  0  0  0  0  0  0  0  0  0  0  0
   37.3850   33.0770   49.9000 C   0  0  0  0  0  0  0  0  0  0  0  0
   38.3780   33.3540   48.9890 C   0  0  0  0  0  0  0  0  0  0  0  0
   38.7390   32.3820   48.0790 C   0  0  0  0  0  0  0  0  0  0  0  0
   35.9830   31.5100   50.5490 H   0  0  0  0  0  0  0  0  0  0  0  0
   37.0590   33.7890   50.6330 H   0  0  0  0  0  0  0  0  0  0  0  0
   38.8780   34.3090   48.9730 H   0  0  0  0  0  0  0  0  0  0  0  0
   39.7500   32.6990   47.1720 O   0  0  0  0  0  0  0  0  0  0  0  0
   41.3320   31.1310   45.4320 H   0  0  0  0  0  0  0  0  0  0  0  0
   40.4950   31.6450   45.0810 N   0  0  0  0  0  0  0  0  0  0  0  0
   39.7080   32.3990   45.8420 C   0  0  0  0  0  0  0  0  0  0  0  0
   38.7490   32.8820   45.0150 N   0  0  0  0  0  0  0  0  0  0  0  0
   38.9680   32.4170   43.7720 C   0  0  0  0  0  0  0  0  0  0  0  0
   38.2680   32.6320   42.6120 C   0  0  0  0  0  0  0  0  0  0  0  0
   37.4000   33.2540   42.6030 H   0  0  0  0  0  0  0  0  0  0  0  0
   38.7120   32.0350   41.4910 N   0  0  0  0  0  0  0  0  0  0  0  0
   39.7950   31.2550   41.4860 C   0  0  0  0  0  0  0  0  0  0  0  0
   40.1360   30.7860   40.5780 H   0  0  0  0  0  0  0  0  0  0  0  0
   40.4880   31.0450   42.6400 N   0  0  0  0  0  0  0  0  0  0  0  0
   40.0950   31.6130   43.7940 C   0  0  0  0  0  0  0  0  0  0  0  0
   34.7530   29.7080   48.8150 S   0  0  0  0  0  0  0  0  0  0  0  0
   34.7790   30.2070   44.8140 C   0  0  0  0  0  0  0  0  0  0  0  0
   33.4590   30.6130   44.5840 C   0  0  0  0  0  0  0  0  0  0  0  0
   32.6240   30.7140   45.6730 C   0  0  0  0  0  0  0  0  0  0  0  0
   33.1400   30.4100   46.9040 N   0  0  0  0  0  0  0  0  0  0  0  0
   34.3670   30.0380   47.0780 C   0  0  0  0  0  0  0  0  0  0  0  0
   35.2650   29.9130   46.0380 N   0  0  0  0  0  0  0  0  0  0  0  0
   35.4610   30.1190   43.9780 H   0  0  0  0  0  0  0  0  0  0  0  0
   31.6080   31.0240   45.5120 H   0  0  0  0  0  0  0  0  0  0  0  0
   33.1020   30.8770   43.3050 O   0  0  0  0  0  0  0  0  0  0  0  0
   32.5280   32.1080   43.0100 C   0  0  0  0  0  0  0  0  0  0  0  0
   31.1800   32.4200   42.9100 C   0  0  0  0  0  0  0  0  0  0  0  0
   30.8200   33.6850   42.6110 C   0  0  0  0  0  0  0  0  0  0  0  0
   31.7780   34.6290   42.4140 C   0  0  0  0  0  0  0  0  0  0  0  0
   33.1370   34.3010   42.5180 C   0  0  0  0  0  0  0  0  0  0  0  0
   33.4860   33.0230   42.8190 N   0  0  0  0  0  0  0  0  0  0  0  0
   30.5790   31.5340   43.1010 H   0  0  0  0  0  0  0  0  0  0  0  0
   29.7520   33.8510   42.5500 H   0  0  0  0  0  0  0  0  0  0  0  0
   31.4670   35.6340   42.1760 H   0  0  0  0  0  0  0  0  0  0  0  0
   34.1930   35.3630   42.2960 C   0  0  0  0  0  0  0  0  0  0  0  0
   34.9500   35.2040   43.0690 H   0  0  0  0  0  0  0  0  0  0  0  0
   34.6620   35.1760   41.3260 H   0  0  0  0  0  0  0  0  0  0  0  0
   33.6770   36.3300   42.3810 H   0  0  0  0  0  0  0  0  0  0  0  0
  1  6  1  0  0  0  0
  1  3  1  0  0  0  0
  2  1  1  0  0  0  0
  4  5  1  0  0  0  0
  5 10  2  0  0  0  0
  5  6  1  0  0  0  0
  6  7  2  0  0  0  0
  7  8  1  0  0  0  0
  7 11  1  0  0  0  0
  8 12  1  0  0  0  0
  9  8  2  0  0  0  0
 10  9  1  0  0  0  0
 13  9  1  0  0  0  0
 14 10  1  0  0  0  0
 16 15  1  0  0  0  0
 16 17  1  0  0  0  0
 17 14  1  0  0  0  0
 18 17  2  0  0  0  0
 19 26  1  0  0  0  0
 19 18  1  0  0  0  0
 20 19  2  0  0  0  0
 21 20  1  0  0  0  0
 22 20  1  0  0  0  0
 23 22  2  0  0  0  0
 23 25  1  0  0  0  0
 24 23  1  0  0  0  0
 25 26  2  0  0  0  0
 26 16  1  0  0  0  0
 27  1  1  0  0  0  0
 28 33  1  0  0  0  0
 29 28  2  0  0  0  0
 29 30  1  0  0  0  0
 30 31  2  0  0  0  0
 31 32  1  0  0  0  0
 32 27  1  0  0  0  0
 33 32  2  0  0  0  0
 34 28  1  0  0  0  0
 35 30  1  0  0  0  0
 36 29  1  0  0  0  0
 37 36  1  0  0  0  0
 38 37  1  0  0  0  0
 38 43  1  0  0  0  0
 39 38  2  0  0  0  0
 40 41  2  0  0  0  0
 40 39  1  0  0  0  0
 41 42  1  0  0  0  0
 42 37  2  0  0  0  0
 44 39  1  0  0  0  0
 45 40  1  0  0  0  0
 46 49  1  0  0  0  0
 46 41  1  0  0  0  0
 46 47  1  0  0  0  0
 48 46  1  0  0  0  0
M  END
>  <minimizedAffinity>
-6.52782774

>  <minimizedRMSD>
7.70059347

$$$$
