
 OpenBabel03272509183D

 36 39  0  0  0  0  0  0  0  0999 V2000
   38.0600   31.2290   47.7210 C   0  0  0  0  0  0  0  0  0  0  0  0
   37.1110   31.3000   48.7350 C   0  0  0  0  0  0  0  0  0  0  0  0
   37.2160   32.4320   49.5600 C   0  0  0  0  0  0  0  0  0  0  0  0
   38.2180   33.3970   49.3420 C   0  0  0  0  0  0  0  0  0  0  0  0
   39.1270   33.2260   48.2840 C   0  0  0  0  0  0  0  0  0  0  0  0
   39.0270   32.1190   47.4760 C   0  0  0  0  0  0  0  0  0  0  0  0
   36.5050   32.5160   50.3470 H   0  0  0  0  0  0  0  0  0  0  0  0
   38.2390   34.2360   50.0090 H   0  0  0  0  0  0  0  0  0  0  0  0
   39.8410   34.0160   48.2110 H   0  0  0  0  0  0  0  0  0  0  0  0
   34.9330   30.3180   48.1790 C   0  0  0  0  0  0  0  0  0  0  0  0
   36.0930   30.3130   48.9520 C   0  0  0  0  0  0  0  0  0  0  0  0
   36.2220   29.3160   49.9340 C   0  0  0  0  0  0  0  0  0  0  0  0
   35.2010   28.4230   50.0650 N   0  0  0  0  0  0  0  0  0  0  0  0
   34.0880   28.4680   49.2880 C   0  0  0  0  0  0  0  0  0  0  0  0
   33.9550   29.4180   48.3450 N   0  0  0  0  0  0  0  0  0  0  0  0
   34.7620   31.0620   47.3960 H   0  0  0  0  0  0  0  0  0  0  0  0
   33.4140   27.6620   49.5680 H   0  0  0  0  0  0  0  0  0  0  0  0
   37.4250   29.2590   50.7820 C   0  0  0  0  0  0  0  0  0  0  0  0
   38.2410   28.6520   50.3280 H   0  0  0  0  0  0  0  0  0  0  0  0
   37.8610   30.2910   50.8960 H   0  0  0  0  0  0  0  0  0  0  0  0
   37.1520   28.9400   51.8110 H   0  0  0  0  0  0  0  0  0  0  0  0
   38.0190   30.1260   46.8550 O   0  0  0  0  0  0  0  0  0  0  0  0
   38.3130   29.2060   47.1480 H   0  0  0  0  0  0  0  0  0  0  0  0
   39.9480   31.9980   46.4460 O   0  0  0  0  0  0  0  0  0  0  0  0
   40.3650   34.1070   44.6790 H   0  0  0  0  0  0  0  0  0  0  0  0
   39.8080   33.2510   44.4350 N   0  0  0  0  0  0  0  0  0  0  0  0
   39.5020   32.1470   45.1400 C   0  0  0  0  0  0  0  0  0  0  0  0
   38.7540   31.3260   44.3770 N   0  0  0  0  0  0  0  0  0  0  0  0
   38.5690   31.9030   43.1530 C   0  0  0  0  0  0  0  0  0  0  0  0
   37.8800   31.4670   42.0260 C   0  0  0  0  0  0  0  0  0  0  0  0
   37.3680   30.5170   42.0180 H   0  0  0  0  0  0  0  0  0  0  0  0
   37.8860   32.2940   40.9400 N   0  0  0  0  0  0  0  0  0  0  0  0
   38.5420   33.4680   41.0070 C   0  0  0  0  0  0  0  0  0  0  0  0
   38.5000   34.0710   40.1020 H   0  0  0  0  0  0  0  0  0  0  0  0
   39.2220   33.9110   42.1030 N   0  0  0  0  0  0  0  0  0  0  0  0
   39.2470   33.1250   43.2110 C   0  0  0  0  0  0  0  0  0  0  0  0
  1  2  1  0  0  0  0
  2 11  1  0  0  0  0
  2  3  2  0  0  0  0
  3  7  1  0  0  0  0
  4  3  1  0  0  0  0
  4  8  1  0  0  0  0
  5  4  2  0  0  0  0
  6  1  2  0  0  0  0
  6  5  1  0  0  0  0
  9  5  1  0  0  0  0
 10 15  2  0  0  0  0
 10 11  1  0  0  0  0
 11 12  2  0  0  0  0
 12 13  1  0  0  0  0
 12 18  1  0  0  0  0
 14 17  1  0  0  0  0
 14 13  2  0  0  0  0
 15 14  1  0  0  0  0
 16 10  1  0  0  0  0
 18 20  1  0  0  0  0
 18 21  1  0  0  0  0
 19 18  1  0  0  0  0
 22 23  1  0  0  0  0
 22  1  1  0  0  0  0
 24  6  1  0  0  0  0
 26 25  1  0  0  0  0
 26 27  1  0  0  0  0
 27 24  1  0  0  0  0
 28 27  2  0  0  0  0
 29 36  1  0  0  0  0
 29 28  1  0  0  0  0
 30 29  2  0  0  0  0
 31 30  1  0  0  0  0
 32 33  2  0  0  0  0
 32 30  1  0  0  0  0
 33 35  1  0  0  0  0
 34 33  1  0  0  0  0
 35 36  2  0  0  0  0
 36 26  1  0  0  0  0
M  END
>  <minimizedAffinity>
-6.57624054

>  <minimizedRMSD>
0.293798327

$$$$
