
 OpenBabel03272509193D

 36 39  0  0  0  0  0  0  0  0999 V2000
   37.9820   31.3920   47.7680 C   0  0  0  0  0  0  0  0  0  0  0  0
   37.0230   31.3140   48.7720 C   0  0  0  0  0  0  0  0  0  0  0  0
   37.0840   32.3450   49.7240 C   0  0  0  0  0  0  0  0  0  0  0  0
   38.0550   33.3600   49.6320 C   0  0  0  0  0  0  0  0  0  0  0  0
   38.9780   33.3420   48.5720 C   0  0  0  0  0  0  0  0  0  0  0  0
   38.9210   32.3350   47.6400 C   0  0  0  0  0  0  0  0  0  0  0  0
   36.3640   32.3140   50.5070 H   0  0  0  0  0  0  0  0  0  0  0  0
   38.0430   34.1150   50.3920 H   0  0  0  0  0  0  0  0  0  0  0  0
   39.6670   34.1570   48.6000 H   0  0  0  0  0  0  0  0  0  0  0  0
   34.9020   30.3150   48.0510 C   0  0  0  0  0  0  0  0  0  0  0  0
   36.0360   30.2760   48.8600 C   0  0  0  0  0  0  0  0  0  0  0  0
   36.1700   29.1970   49.7500 C   0  0  0  0  0  0  0  0  0  0  0  0
   35.1800   28.2620   49.7610 N   0  0  0  0  0  0  0  0  0  0  0  0
   34.0920   28.3410   48.9530 C   0  0  0  0  0  0  0  0  0  0  0  0
   33.9540   29.3700   48.0970 N   0  0  0  0  0  0  0  0  0  0  0  0
   34.7280   31.1220   47.3340 H   0  0  0  0  0  0  0  0  0  0  0  0
   33.4390   27.4900   49.1330 H   0  0  0  0  0  0  0  0  0  0  0  0
   37.3470   29.1020   50.6310 C   0  0  0  0  0  0  0  0  0  0  0  0
   38.1990   28.5690   50.1520 H   0  0  0  0  0  0  0  0  0  0  0  0
   37.7400   30.1330   50.8550 H   0  0  0  0  0  0  0  0  0  0  0  0
   37.0530   28.6790   51.6160 H   0  0  0  0  0  0  0  0  0  0  0  0
   37.9850   30.3960   46.7790 O   0  0  0  0  0  0  0  0  0  0  0  0
   38.3060   29.4580   46.9670 H   0  0  0  0  0  0  0  0  0  0  0  0
   39.8550   32.3640   46.6140 O   0  0  0  0  0  0  0  0  0  0  0  0
   37.8530   33.7260   45.2410 H   0  0  0  0  0  0  0  0  0  0  0  0
   38.4180   32.9490   44.8180 N   0  0  0  0  0  0  0  0  0  0  0  0
   39.4090   32.1840   45.3120 C   0  0  0  0  0  0  0  0  0  0  0  0
   39.8130   31.3160   44.3650 N   0  0  0  0  0  0  0  0  0  0  0  0
   39.0750   31.5150   43.2340 C   0  0  0  0  0  0  0  0  0  0  0  0
   39.1030   30.8860   41.9940 C   0  0  0  0  0  0  0  0  0  0  0  0
   39.7980   30.0840   41.7920 H   0  0  0  0  0  0  0  0  0  0  0  0
   38.2170   31.3280   41.0550 N   0  0  0  0  0  0  0  0  0  0  0  0
   37.3740   32.3320   41.3630 C   0  0  0  0  0  0  0  0  0  0  0  0
   36.6980   32.6280   40.5630 H   0  0  0  0  0  0  0  0  0  0  0  0
   37.3320   32.9610   42.5730 N   0  0  0  0  0  0  0  0  0  0  0  0
   38.1950   32.5580   43.5430 C   0  0  0  0  0  0  0  0  0  0  0  0
  1  2  1  0  0  0  0
  2 11  1  0  0  0  0
  2  3  2  0  0  0  0
  3  7  1  0  0  0  0
  4  3  1  0  0  0  0
  4  8  1  0  0  0  0
  5  9  1  0  0  0  0
  5  4  2  0  0  0  0
  6  1  2  0  0  0  0
  6  5  1  0  0  0  0
 10 15  2  0  0  0  0
 10 11  1  0  0  0  0
 11 12  2  0  0  0  0
 12 13  1  0  0  0  0
 12 18  1  0  0  0  0
 14 17  1  0  0  0  0
 14 13  2  0  0  0  0
 15 14  1  0  0  0  0
 16 10  1  0  0  0  0
 18 20  1  0  0  0  0
 18 21  1  0  0  0  0
 19 18  1  0  0  0  0
 22 23  1  0  0  0  0
 22  1  1  0  0  0  0
 24  6  1  0  0  0  0
 26 25  1  0  0  0  0
 26 27  1  0  0  0  0
 27 24  1  0  0  0  0
 28 27  2  0  0  0  0
 29 36  1  0  0  0  0
 29 28  1  0  0  0  0
 30 29  2  0  0  0  0
 31 30  1  0  0  0  0
 32 33  2  0  0  0  0
 32 30  1  0  0  0  0
 33 35  1  0  0  0  0
 34 33  1  0  0  0  0
 35 36  2  0  0  0  0
 36 26  1  0  0  0  0
M  END
>  <minimizedAffinity>
-7.01985359

>  <minimizedRMSD>
0.555560768

$$$$
