
 OpenBabel03272509183D

 36 39  0  0  0  0  0  0  0  0999 V2000
   38.0920   31.4180   47.7390 C   0  0  0  0  0  0  0  0  0  0  0  0
   37.0830   31.3510   48.6940 C   0  0  0  0  0  0  0  0  0  0  0  0
   37.0830   32.4040   49.6230 C   0  0  0  0  0  0  0  0  0  0  0  0
   38.0480   33.4280   49.5580 C   0  0  0  0  0  0  0  0  0  0  0  0
   39.0250   33.3970   48.5490 C   0  0  0  0  0  0  0  0  0  0  0  0
   39.0270   32.3680   47.6380 C   0  0  0  0  0  0  0  0  0  0  0  0
   36.3240   32.3830   50.3680 H   0  0  0  0  0  0  0  0  0  0  0  0
   37.9880   34.2000   50.3000 H   0  0  0  0  0  0  0  0  0  0  0  0
   39.7030   34.2200   48.5940 H   0  0  0  0  0  0  0  0  0  0  0  0
   34.9990   30.3260   47.9040 C   0  0  0  0  0  0  0  0  0  0  0  0
   36.1030   30.3050   48.7540 C   0  0  0  0  0  0  0  0  0  0  0  0
   36.2140   29.2340   49.6580 C   0  0  0  0  0  0  0  0  0  0  0  0
   35.2330   28.2890   49.6400 N   0  0  0  0  0  0  0  0  0  0  0  0
   34.1750   28.3510   48.7920 C   0  0  0  0  0  0  0  0  0  0  0  0
   34.0590   29.3720   47.9230 N   0  0  0  0  0  0  0  0  0  0  0  0
   34.8440   31.1260   47.1740 H   0  0  0  0  0  0  0  0  0  0  0  0
   33.5250   27.4960   48.9550 H   0  0  0  0  0  0  0  0  0  0  0  0
   37.3590   29.1580   50.5820 C   0  0  0  0  0  0  0  0  0  0  0  0
   38.2330   28.6290   50.1390 H   0  0  0  0  0  0  0  0  0  0  0  0
   37.7340   30.1950   50.8120 H   0  0  0  0  0  0  0  0  0  0  0  0
   37.0330   28.7400   51.5590 H   0  0  0  0  0  0  0  0  0  0  0  0
   38.1560   30.4000   46.7750 O   0  0  0  0  0  0  0  0  0  0  0  0
   38.4770   29.4700   47.0010 H   0  0  0  0  0  0  0  0  0  0  0  0
   40.0120   32.3840   46.6620 O   0  0  0  0  0  0  0  0  0  0  0  0
   37.6520   33.3030   45.5090 H   0  0  0  0  0  0  0  0  0  0  0  0
   38.4280   32.8580   44.9610 N   0  0  0  0  0  0  0  0  0  0  0  0
   39.6220   32.3600   45.3300 C   0  0  0  0  0  0  0  0  0  0  0  0
   40.2640   31.8920   44.2430 N   0  0  0  0  0  0  0  0  0  0  0  0
   39.4780   32.0880   43.1440 C   0  0  0  0  0  0  0  0  0  0  0  0
   39.6820   31.7850   41.8010 C   0  0  0  0  0  0  0  0  0  0  0  0
   40.5930   31.3100   41.4680 H   0  0  0  0  0  0  0  0  0  0  0  0
   38.6800   32.1160   40.9330 N   0  0  0  0  0  0  0  0  0  0  0  0
   37.5670   32.7060   41.4050 C   0  0  0  0  0  0  0  0  0  0  0  0
   36.8160   32.9390   40.6530 H   0  0  0  0  0  0  0  0  0  0  0  0
   37.3500   33.0110   42.7160 N   0  0  0  0  0  0  0  0  0  0  0  0
   38.3150   32.7020   43.6220 C   0  0  0  0  0  0  0  0  0  0  0  0
  1  2  1  0  0  0  0
  2 11  1  0  0  0  0
  2  3  2  0  0  0  0
  3  7  1  0  0  0  0
  4  3  1  0  0  0  0
  4  8  1  0  0  0  0
  5  9  1  0  0  0  0
  5  4  2  0  0  0  0
  6  1  2  0  0  0  0
  6  5  1  0  0  0  0
 10 15  2  0  0  0  0
 10 11  1  0  0  0  0
 11 12  2  0  0  0  0
 12 18  1  0  0  0  0
 13 12  1  0  0  0  0
 14 17  1  0  0  0  0
 14 13  2  0  0  0  0
 15 14  1  0  0  0  0
 16 10  1  0  0  0  0
 18 20  1  0  0  0  0
 18 21  1  0  0  0  0
 19 18  1  0  0  0  0
 22 23  1  0  0  0  0
 22  1  1  0  0  0  0
 24  6  1  0  0  0  0
 26 27  1  0  0  0  0
 26 25  1  0  0  0  0
 27 24  1  0  0  0  0
 28 27  2  0  0  0  0
 29 36  1  0  0  0  0
 29 28  1  0  0  0  0
 30 29  2  0  0  0  0
 31 30  1  0  0  0  0
 32 33  2  0  0  0  0
 32 30  1  0  0  0  0
 33 35  1  0  0  0  0
 34 33  1  0  0  0  0
 35 36  2  0  0  0  0
 36 26  1  0  0  0  0
M  END
>  <minimizedAffinity>
-7.12847805

>  <minimizedRMSD>
0.402966291

$$$$
