
 OpenBabel03272509183D

 36 39  0  0  0  0  0  0  0  0999 V2000
   38.0790   31.3360   47.7420 C   0  0  0  0  0  0  0  0  0  0  0  0
   37.0910   31.3230   48.7200 C   0  0  0  0  0  0  0  0  0  0  0  0
   37.1360   32.4050   49.6150 C   0  0  0  0  0  0  0  0  0  0  0  0
   38.1210   33.4040   49.4950 C   0  0  0  0  0  0  0  0  0  0  0  0
   39.0730   33.3190   48.4660 C   0  0  0  0  0  0  0  0  0  0  0  0
   39.0330   32.2610   47.5890 C   0  0  0  0  0  0  0  0  0  0  0  0
   36.3930   32.4250   50.3760 H   0  0  0  0  0  0  0  0  0  0  0  0
   38.0940   34.2010   50.2110 H   0  0  0  0  0  0  0  0  0  0  0  0
   39.7700   34.1280   48.4680 H   0  0  0  0  0  0  0  0  0  0  0  0
   34.9580   30.3310   48.0250 C   0  0  0  0  0  0  0  0  0  0  0  0
   36.0900   30.3010   48.8370 C   0  0  0  0  0  0  0  0  0  0  0  0
   36.2100   29.2470   49.7570 C   0  0  0  0  0  0  0  0  0  0  0  0
   35.2080   28.3250   49.7940 N   0  0  0  0  0  0  0  0  0  0  0  0
   34.1210   28.3950   48.9820 C   0  0  0  0  0  0  0  0  0  0  0  0
   33.9980   29.4010   48.0980 N   0  0  0  0  0  0  0  0  0  0  0  0
   34.7950   31.1200   47.2860 H   0  0  0  0  0  0  0  0  0  0  0  0
   33.4580   27.5580   49.1860 H   0  0  0  0  0  0  0  0  0  0  0  0
   37.3850   29.1620   50.6420 C   0  0  0  0  0  0  0  0  0  0  0  0
   38.2300   28.6040   50.1800 H   0  0  0  0  0  0  0  0  0  0  0  0
   37.7910   30.1940   50.8370 H   0  0  0  0  0  0  0  0  0  0  0  0
   37.0850   28.7700   51.6380 H   0  0  0  0  0  0  0  0  0  0  0  0
   38.1000   30.2860   46.8110 O   0  0  0  0  0  0  0  0  0  0  0  0
   38.4060   29.3570   47.0600 H   0  0  0  0  0  0  0  0  0  0  0  0
   39.9960   32.2240   46.5920 O   0  0  0  0  0  0  0  0  0  0  0  0
   41.3170   31.3720   44.2960 H   0  0  0  0  0  0  0  0  0  0  0  0
   40.3660   31.8130   44.2830 N   0  0  0  0  0  0  0  0  0  0  0  0
   39.5780   32.2800   45.2690 C   0  0  0  0  0  0  0  0  0  0  0  0
   38.4350   32.7550   44.7370 N   0  0  0  0  0  0  0  0  0  0  0  0
   38.4760   32.5950   43.3820 C   0  0  0  0  0  0  0  0  0  0  0  0
   37.5550   32.9180   42.3880 C   0  0  0  0  0  0  0  0  0  0  0  0
   36.6120   33.3820   42.6330 H   0  0  0  0  0  0  0  0  0  0  0  0
   37.9050   32.6230   41.1020 N   0  0  0  0  0  0  0  0  0  0  0  0
   39.0960   32.0450   40.8570 C   0  0  0  0  0  0  0  0  0  0  0  0
   39.3010   31.8400   39.8090 H   0  0  0  0  0  0  0  0  0  0  0  0
   40.0090   31.7210   41.8180 N   0  0  0  0  0  0  0  0  0  0  0  0
   39.7110   31.9950   43.1140 C   0  0  0  0  0  0  0  0  0  0  0  0
  1  2  1  0  0  0  0
  2 11  1  0  0  0  0
  2  3  2  0  0  0  0
  3  7  1  0  0  0  0
  4  3  1  0  0  0  0
  4  8  1  0  0  0  0
  5  9  1  0  0  0  0
  5  4  2  0  0  0  0
  6  1  2  0  0  0  0
  6  5  1  0  0  0  0
 10 15  2  0  0  0  0
 10 11  1  0  0  0  0
 11 12  2  0  0  0  0
 12 13  1  0  0  0  0
 12 18  1  0  0  0  0
 14 17  1  0  0  0  0
 14 13  2  0  0  0  0
 15 14  1  0  0  0  0
 16 10  1  0  0  0  0
 18 20  1  0  0  0  0
 18 21  1  0  0  0  0
 19 18  1  0  0  0  0
 22 23  1  0  0  0  0
 22  1  1  0  0  0  0
 24  6  1  0  0  0  0
 26 25  1  0  0  0  0
 26 27  1  0  0  0  0
 27 24  1  0  0  0  0
 28 27  2  0  0  0  0
 29 28  1  0  0  0  0
 30 31  1  0  0  0  0
 30 29  2  0  0  0  0
 32 30  1  0  0  0  0
 33 32  2  0  0  0  0
 33 35  1  0  0  0  0
 34 33  1  0  0  0  0
 35 36  2  0  0  0  0
 36 29  1  0  0  0  0
 36 26  1  0  0  0  0
M  END
>  <minimizedAffinity>
-7.0276227

>  <minimizedRMSD>
0.324233323

$$$$
