
 OpenBabel03272508193D

 34 37  0  0  0  0  0  0  0  0999 V2000
   34.1600   28.9220   47.0770 C   0  0  0  0  0  0  0  0  0  0  0  0
   34.6820   28.3780   46.2850 H   0  0  0  0  0  0  0  0  0  0  0  0
   33.8350   28.0890   47.7980 H   0  0  0  0  0  0  0  0  0  0  0  0
   31.7450   28.7070   46.4360 C   0  0  0  0  0  0  0  0  0  0  0  0
   32.9240   29.4560   46.5350 C   0  0  0  0  0  0  0  0  0  0  0  0
   32.8420   30.7240   46.0240 C   0  0  0  0  0  0  0  0  0  0  0  0
   31.6910   31.1990   45.4690 N   0  0  0  0  0  0  0  0  0  0  0  0
   30.5710   30.4550   45.3870 C   0  0  0  0  0  0  0  0  0  0  0  0
   30.5940   29.2040   45.8710 N   0  0  0  0  0  0  0  0  0  0  0  0
   33.6230   31.4480   45.9730 H   0  0  0  0  0  0  0  0  0  0  0  0
   29.6750   30.8580   44.9420 H   0  0  0  0  0  0  0  0  0  0  0  0
   31.7630   27.3220   47.0640 C   0  0  0  0  0  0  0  0  0  0  0  0
   30.7030   26.4030   46.8850 C   0  0  0  0  0  0  0  0  0  0  0  0
   31.8520   26.2650   45.9000 C   0  0  0  0  0  0  0  0  0  0  0  0
   32.6420   27.1540   47.7350 H   0  0  0  0  0  0  0  0  0  0  0  0
   29.7260   26.5910   46.4420 H   0  0  0  0  0  0  0  0  0  0  0  0
   30.6530   25.5370   47.6110 H   0  0  0  0  0  0  0  0  0  0  0  0
   32.5890   25.4770   46.0440 H   0  0  0  0  0  0  0  0  0  0  0  0
   31.6750   26.5940   44.8840 H   0  0  0  0  0  0  0  0  0  0  0  0
   35.0280   29.7810   47.8870 C   0  0  0  0  0  0  0  0  0  0  0  0
   34.3720   30.5600   48.3770 H   0  0  0  0  0  0  0  0  0  0  0  0
   35.4560   29.2460   48.7970 H   0  0  0  0  0  0  0  0  0  0  0  0
   36.1160   30.4320   47.2360 N   0  0  0  0  0  0  0  0  0  0  0  0
   36.7050   30.5510   46.0560 C   0  0  0  0  0  0  0  0  0  0  0  0
   36.3610   30.0530   45.1820 H   0  0  0  0  0  0  0  0  0  0  0  0
   37.7890   31.3460   46.0390 N   0  0  0  0  0  0  0  0  0  0  0  0
   37.9720   31.8180   47.2950 C   0  0  0  0  0  0  0  0  0  0  0  0
   38.9380   32.6580   47.7710 C   0  0  0  0  0  0  0  0  0  0  0  0
   39.6870   33.0360   47.1150 H   0  0  0  0  0  0  0  0  0  0  0  0
   38.8480   32.9430   49.0860 N   0  0  0  0  0  0  0  0  0  0  0  0
   37.8630   32.4130   49.8220 C   0  0  0  0  0  0  0  0  0  0  0  0
   37.8150   32.6620   50.8900 H   0  0  0  0  0  0  0  0  0  0  0  0
   36.9340   31.5950   49.3260 N   0  0  0  0  0  0  0  0  0  0  0  0
   36.9280   31.2390   48.0140 C   0  0  0  0  0  0  0  0  0  0  0  0
  1  3  1  0  0  0  0
  1 20  1  0  0  0  0
  2  1  1  0  0  0  0
  4  5  1  0  0  0  0
  4 12  1  0  0  0  0
  5  1  1  0  0  0  0
  6  5  2  0  0  0  0
  7  6  1  0  0  0  0
  8  7  2  0  0  0  0
  8  9  1  0  0  0  0
  9  4  2  0  0  0  0
 10  6  1  0  0  0  0
 11  8  1  0  0  0  0
 12 15  1  0  0  0  0
 13 12  1  0  0  0  0
 13 17  1  0  0  0  0
 14 18  1  0  0  0  0
 14 13  1  0  0  0  0
 14 12  1  0  0  0  0
 16 13  1  0  0  0  0
 19 14  1  0  0  0  0
 20 21  1  0  0  0  0
 20 22  1  0  0  0  0
 23 20  1  0  0  0  0
 23 34  1  0  0  0  0
 24 23  1  0  0  0  0
 25 24  1  0  0  0  0
 26 24  2  0  0  0  0
 26 27  1  0  0  0  0
 27 28  2  0  0  0  0
 27 34  1  0  0  0  0
 28 30  1  0  0  0  0
 29 28  1  0  0  0  0
 30 31  2  0  0  0  0
 31 32  1  0  0  0  0
 33 31  1  0  0  0  0
 34 33  2  0  0  0  0
M  END
>  <minimizedAffinity>
-4.06340647

>  <minimizedRMSD>
5.99643946

$$$$
