
 OpenBabel03262520473D

 37 40  0  0  1  0  0  0  0  0999 V2000
   38.9020   26.3210   33.5680 C   0  0  1  0  0  0  0  0  0  0  0  0
   40.1500   27.0450   34.0410 C   0  0  0  0  0  0  0  0  0  0  0  0
   38.8600   27.2460   34.7150 C   0  0  2  0  0  0  0  0  0  0  0  0
   38.8040   25.2220   33.7410 H   0  0  0  0  0  0  0  0  0  0  0  0
   40.5820   27.8400   33.4090 H   0  0  0  0  0  0  0  0  0  0  0  0
   40.8640   26.3510   34.5710 H   0  0  0  0  0  0  0  0  0  0  0  0
   38.4180   28.2740   34.5610 H   0  0  0  0  0  0  0  0  0  0  0  0
   38.3920   26.7500   32.2110 C   0  0  0  0  0  0  0  0  0  0  0  0
   38.0870   27.8050   32.2100 H   0  0  0  0  0  0  0  0  0  0  0  0
   39.2030   26.6060   31.4580 H   0  0  0  0  0  0  0  0  0  0  0  0
   36.1910   23.7670   31.7010 C   0  0  0  0  0  0  0  0  0  0  0  0
   37.2980   24.6010   32.0850 C   0  0  0  0  0  0  0  0  0  0  0  0
   37.2300   25.9390   31.7950 C   0  0  0  0  0  0  0  0  0  0  0  0
   36.1450   26.4260   31.1680 N   0  0  0  0  0  0  0  0  0  0  0  0
   35.1090   25.6340   30.8100 C   0  0  0  0  0  0  0  0  0  0  0  0
   35.1510   24.3320   31.0810 N   0  0  0  0  0  0  0  0  0  0  0  0
   36.2080   22.7080   31.9130 H   0  0  0  0  0  0  0  0  0  0  0  0
   38.0920   24.0560   32.5800 H   0  0  0  0  0  0  0  0  0  0  0  0
   34.3370   26.2140   30.3190 H   0  0  0  0  0  0  0  0  0  0  0  0
   38.5240   26.6560   36.0450 C   0  0  0  0  0  0  0  0  0  0  0  0
   39.4610   26.4890   36.6120 H   0  0  0  0  0  0  0  0  0  0  0  0
   37.8590   27.3320   36.6440 H   0  0  0  0  0  0  0  0  0  0  0  0
   37.7450   25.3520   35.9370 C   0  0  0  0  0  0  0  0  0  0  0  0
   37.7920   24.9180   34.9340 H   0  0  0  0  0  0  0  0  0  0  0  0
   36.7100   25.4920   36.2690 H   0  0  0  0  0  0  0  0  0  0  0  0
   38.3440   24.4410   36.9220 N   0  0  0  0  0  0  0  0  0  0  0  0
   38.0770   24.2100   38.2200 C   0  0  0  0  0  0  0  0  0  0  0  0
   37.2910   24.7520   38.7120 H   0  0  0  0  0  0  0  0  0  0  0  0
   38.9190   23.2710   38.6760 N   0  0  0  0  0  0  0  0  0  0  0  0
   39.7410   22.8790   37.6840 C   0  0  0  0  0  0  0  0  0  0  0  0
   40.7740   21.9810   37.5450 C   0  0  0  0  0  0  0  0  0  0  0  0
   41.0820   21.3920   38.3780 H   0  0  0  0  0  0  0  0  0  0  0  0
   41.4410   21.7960   36.3790 N   0  0  0  0  0  0  0  0  0  0  0  0
   41.0540   22.5370   35.3260 C   0  0  0  0  0  0  0  0  0  0  0  0
   41.4630   22.5230   34.3330 H   0  0  0  0  0  0  0  0  0  0  0  0
   40.0480   23.4240   35.4220 N   0  0  0  0  0  0  0  0  0  0  0  0
   39.3680   23.6290   36.5680 C   0  0  0  0  0  0  0  0  0  0  0  0
  1  4  1  1  0  0  0
  1  2  1  0  0  0  0
  1  3  1  0  0  0  0
  2  6  1  0  0  0  0
  2  3  1  0  0  0  0
  3  7  1  6  0  0  0
  3 20  1  0  0  0  0
  5  2  1  0  0  0  0
  8  1  1  0  0  0  0
  9  8  1  0  0  0  0
 10  8  1  0  0  0  0
 11 17  1  0  0  0  0
 11 12  1  0  0  0  0
 12 18  1  0  0  0  0
 13 12  2  0  0  0  0
 13  8  1  0  0  0  0
 14 13  1  0  0  0  0
 15 16  1  0  0  0  0
 15 14  2  0  0  0  0
 16 11  2  0  0  0  0
 19 15  1  0  0  0  0
 20 21  1  0  0  0  0
 20 22  1  0  0  0  0
 23 20  1  0  0  0  0
 23 25  1  0  0  0  0
 23 26  1  0  0  0  0
 24 23  1  0  0  0  0
 26 27  1  0  0  0  0
 27 29  2  0  0  0  0
 27 28  1  0  0  0  0
 30 29  1  0  0  0  0
 31 30  1  0  0  0  0
 31 32  1  0  0  0  0
 33 31  2  0  0  0  0
 34 36  2  0  0  0  0
 34 33  1  0  0  0  0
 35 34  1  0  0  0  0
 36 37  1  0  0  0  0
 37 26  1  0  0  0  0
 37 30  2  0  0  0  0
M  END
>  <minimizedAffinity>
-5.28067398

$$$$

 OpenBabel03262520473D

 37 40  0  0  1  0  0  0  0  0999 V2000
   36.1070   28.2770   34.1530 C   0  0  1  0  0  0  0  0  0  0  0  0
   36.8080   27.4800   33.0660 C   0  0  0  0  0  0  0  0  0  0  0  0
   37.4680   27.7440   34.3520 C   0  0  2  0  0  0  0  0  0  0  0  0
   35.2500   27.8200   34.7030 H   0  0  0  0  0  0  0  0  0  0  0  0
   37.1400   27.9980   32.1490 H   0  0  0  0  0  0  0  0  0  0  0  0
   36.3730   26.4460   32.9540 H   0  0  0  0  0  0  0  0  0  0  0  0
   38.3400   28.4580   34.2820 H   0  0  0  0  0  0  0  0  0  0  0  0
   35.8890   29.7380   33.8320 C   0  0  0  0  0  0  0  0  0  0  0  0
   36.8410   30.2730   33.7200 H   0  0  0  0  0  0  0  0  0  0  0  0
   35.3140   29.8170   32.8780 H   0  0  0  0  0  0  0  0  0  0  0  0
   35.1060   31.9340   36.7600 C   0  0  0  0  0  0  0  0  0  0  0  0
   35.8180   31.2560   35.7090 C   0  0  0  0  0  0  0  0  0  0  0  0
   35.1120   30.4080   34.8940 C   0  0  0  0  0  0  0  0  0  0  0  0
   33.7940   30.2390   35.0980 N   0  0  0  0  0  0  0  0  0  0  0  0
   33.1340   30.8800   36.0880 C   0  0  0  0  0  0  0  0  0  0  0  0
   33.7960   31.7080   36.8930 N   0  0  0  0  0  0  0  0  0  0  0  0
   35.6270   32.6100   37.4210 H   0  0  0  0  0  0  0  0  0  0  0  0
   36.8720   31.5010   35.6790 H   0  0  0  0  0  0  0  0  0  0  0  0
   32.0850   30.6100   36.0850 H   0  0  0  0  0  0  0  0  0  0  0  0
   37.6380   26.7130   35.4180 C   0  0  0  0  0  0  0  0  0  0  0  0
   38.4720   27.0160   36.0820 H   0  0  0  0  0  0  0  0  0  0  0  0
   36.7110   26.5990   36.0380 H   0  0  0  0  0  0  0  0  0  0  0  0
   37.9010   25.3190   34.8620 C   0  0  0  0  0  0  0  0  0  0  0  0
   38.7300   25.3020   34.1500 H   0  0  0  0  0  0  0  0  0  0  0  0
   36.9860   24.8980   34.4290 H   0  0  0  0  0  0  0  0  0  0  0  0
   38.2010   24.4710   36.0240 N   0  0  0  0  0  0  0  0  0  0  0  0
   37.4820   24.1360   37.1090 C   0  0  0  0  0  0  0  0  0  0  0  0
   36.4840   24.5160   37.2320 H   0  0  0  0  0  0  0  0  0  0  0  0
   38.2170   23.3260   37.8850 N   0  0  0  0  0  0  0  0  0  0  0  0
   39.4210   23.1230   37.3160 C   0  0  0  0  0  0  0  0  0  0  0  0
   40.5590   22.4140   37.6220 C   0  0  0  0  0  0  0  0  0  0  0  0
   40.6040   21.8440   38.5210 H   0  0  0  0  0  0  0  0  0  0  0  0
   41.6570   22.4000   36.8270 N   0  0  0  0  0  0  0  0  0  0  0  0
   41.6040   23.1190   35.6920 C   0  0  0  0  0  0  0  0  0  0  0  0
   42.3710   23.2220   34.9490 H   0  0  0  0  0  0  0  0  0  0  0  0
   40.5090   23.8240   35.3580 N   0  0  0  0  0  0  0  0  0  0  0  0
   39.4030   23.8570   36.1290 C   0  0  0  0  0  0  0  0  0  0  0  0
  1  3  1  0  0  0  0
  1  4  1  1  0  0  0
  2  1  1  0  0  0  0
  2  3  1  0  0  0  0
  3  7  1  6  0  0  0
  3 20  1  0  0  0  0
  5  2  1  0  0  0  0
  6  2  1  0  0  0  0
  8  1  1  0  0  0  0
  8 13  1  0  0  0  0
  9  8  1  0  0  0  0
 10  8  1  0  0  0  0
 11 16  1  0  0  0  0
 11 17  1  0  0  0  0
 12 11  2  0  0  0  0
 13 14  2  0  0  0  0
 13 12  1  0  0  0  0
 14 15  1  0  0  0  0
 15 16  2  0  0  0  0
 18 12  1  0  0  0  0
 19 15  1  0  0  0  0
 20 22  1  0  0  0  0
 20 21  1  0  0  0  0
 23 20  1  0  0  0  0
 23 26  1  0  0  0  0
 24 23  1  0  0  0  0
 25 23  1  0  0  0  0
 26 37  1  0  0  0  0
 26 27  1  0  0  0  0
 27 28  1  0  0  0  0
 27 29  2  0  0  0  0
 30 31  1  0  0  0  0
 30 29  1  0  0  0  0
 31 32  1  0  0  0  0
 33 31  2  0  0  0  0
 34 33  1  0  0  0  0
 35 34  1  0  0  0  0
 36 34  2  0  0  0  0
 36 37  1  0  0  0  0
 37 30  2  0  0  0  0
M  END
>  <minimizedAffinity>
-5.15317535

$$$$

 OpenBabel03262520473D

 37 40  0  0  1  0  0  0  0  0999 V2000
   35.8870   28.5910   33.9710 C   0  0  1  0  0  0  0  0  0  0  0  0
   36.2320   27.8420   32.6940 C   0  0  0  0  0  0  0  0  0  0  0  0
   37.2240   28.0030   33.7660 C   0  0  2  0  0  0  0  0  0  0  0  0
   35.1880   28.1280   34.7070 H   0  0  0  0  0  0  0  0  0  0  0  0
   36.3300   28.4070   31.7510 H   0  0  0  0  0  0  0  0  0  0  0  0
   35.7340   26.8320   32.6510 H   0  0  0  0  0  0  0  0  0  0  0  0
   38.0790   28.6920   33.5000 H   0  0  0  0  0  0  0  0  0  0  0  0
   35.6610   30.0760   33.7970 C   0  0  0  0  0  0  0  0  0  0  0  0
   36.6100   30.6180   33.6940 H   0  0  0  0  0  0  0  0  0  0  0  0
   35.0450   30.2430   32.8820 H   0  0  0  0  0  0  0  0  0  0  0  0
   34.9940   32.0620   36.8980 C   0  0  0  0  0  0  0  0  0  0  0  0
   35.6570   31.4820   35.7610 C   0  0  0  0  0  0  0  0  0  0  0  0
   34.9340   30.6440   34.9510 C   0  0  0  0  0  0  0  0  0  0  0  0
   33.6460   30.3930   35.2390 N   0  0  0  0  0  0  0  0  0  0  0  0
   33.0310   30.9430   36.3110 C   0  0  0  0  0  0  0  0  0  0  0  0
   33.7110   31.7600   37.1130 N   0  0  0  0  0  0  0  0  0  0  0  0
   35.5310   32.7270   37.5590 H   0  0  0  0  0  0  0  0  0  0  0  0
   36.6920   31.7840   35.6690 H   0  0  0  0  0  0  0  0  0  0  0  0
   32.0000   30.6180   36.3680 H   0  0  0  0  0  0  0  0  0  0  0  0
   37.6240   26.9020   34.6910 C   0  0  0  0  0  0  0  0  0  0  0  0
   38.6720   27.0660   35.0140 H   0  0  0  0  0  0  0  0  0  0  0  0
   36.9710   26.8660   35.6020 H   0  0  0  0  0  0  0  0  0  0  0  0
   37.4870   25.5200   34.0660 C   0  0  0  0  0  0  0  0  0  0  0  0
   37.5390   25.5470   32.9740 H   0  0  0  0  0  0  0  0  0  0  0  0
   36.5720   25.0280   34.4160 H   0  0  0  0  0  0  0  0  0  0  0  0
   38.5890   24.7170   34.6150 N   0  0  0  0  0  0  0  0  0  0  0  0
   39.7460   24.2860   34.0840 C   0  0  0  0  0  0  0  0  0  0  0  0
   39.9950   24.5290   33.0670 H   0  0  0  0  0  0  0  0  0  0  0  0
   40.4120   23.5790   35.0080 N   0  0  0  0  0  0  0  0  0  0  0  0
   39.7000   23.5420   36.1510 C   0  0  0  0  0  0  0  0  0  0  0  0
   39.8560   22.9920   37.4020 C   0  0  0  0  0  0  0  0  0  0  0  0
   40.7320   22.4310   37.6310 H   0  0  0  0  0  0  0  0  0  0  0  0
   38.9340   23.1260   38.3870 N   0  0  0  0  0  0  0  0  0  0  0  0
   37.8270   23.8330   38.1020 C   0  0  0  0  0  0  0  0  0  0  0  0
   37.0000   24.0410   38.7540 H   0  0  0  0  0  0  0  0  0  0  0  0
   37.6390   24.3860   36.8910 N   0  0  0  0  0  0  0  0  0  0  0  0
   38.5380   24.2700   35.8920 C   0  0  0  0  0  0  0  0  0  0  0  0
  1  4  1  1  0  0  0
  2  3  1  0  0  0  0
  2  1  1  0  0  0  0
  3  7  1  6  0  0  0
  3  1  1  0  0  0  0
  3 20  1  0  0  0  0
  5  2  1  0  0  0  0
  6  2  1  0  0  0  0
  8  1  1  0  0  0  0
  8 13  1  0  0  0  0
  9  8  1  0  0  0  0
 10  8  1  0  0  0  0
 11 16  1  0  0  0  0
 11 17  1  0  0  0  0
 12 11  2  0  0  0  0
 13 14  2  0  0  0  0
 13 12  1  0  0  0  0
 14 15  1  0  0  0  0
 15 19  1  0  0  0  0
 15 16  2  0  0  0  0
 18 12  1  0  0  0  0
 20 21  1  0  0  0  0
 20 22  1  0  0  0  0
 23 25  1  0  0  0  0
 23 26  1  0  0  0  0
 23 20  1  0  0  0  0
 24 23  1  0  0  0  0
 26 37  1  0  0  0  0
 27 26  1  0  0  0  0
 27 29  2  0  0  0  0
 28 27  1  0  0  0  0
 29 30  1  0  0  0  0
 30 31  1  0  0  0  0
 31 32  1  0  0  0  0
 31 33  2  0  0  0  0
 34 33  1  0  0  0  0
 34 35  1  0  0  0  0
 36 34  2  0  0  0  0
 37 30  2  0  0  0  0
 37 36  1  0  0  0  0
M  END
>  <minimizedAffinity>
-5.00492764

$$$$

 OpenBabel03262520473D

 37 40  0  0  1  0  0  0  0  0999 V2000
   36.2980   20.8920   33.7000 C   0  0  1  0  0  0  0  0  0  0  0  0
   35.5030   19.7540   33.0820 C   0  0  0  0  0  0  0  0  0  0  0  0
   35.1810   21.1540   32.7730 C   0  0  2  0  0  0  0  0  0  0  0  0
   37.3470   21.0750   33.3650 H   0  0  0  0  0  0  0  0  0  0  0  0
   34.8350   19.1540   33.7240 H   0  0  0  0  0  0  0  0  0  0  0  0
   36.0910   19.2120   32.2870 H   0  0  0  0  0  0  0  0  0  0  0  0
   34.1970   21.5040   33.2030 H   0  0  0  0  0  0  0  0  0  0  0  0
   36.1180   21.0570   35.1920 C   0  0  0  0  0  0  0  0  0  0  0  0
   35.1420   21.4970   35.4350 H   0  0  0  0  0  0  0  0  0  0  0  0
   36.1960   20.0550   35.6780 H   0  0  0  0  0  0  0  0  0  0  0  0
   39.3880   22.8380   35.5670 C   0  0  0  0  0  0  0  0  0  0  0  0
   38.3360   22.0030   35.0530 C   0  0  0  0  0  0  0  0  0  0  0  0
   37.1660   21.9270   35.7630 C   0  0  0  0  0  0  0  0  0  0  0  0
   37.0380   22.6270   36.9040 N   0  0  0  0  0  0  0  0  0  0  0  0
   38.0330   23.4090   37.3800 C   0  0  0  0  0  0  0  0  0  0  0  0
   39.1790   23.4990   36.7090 N   0  0  0  0  0  0  0  0  0  0  0  0
   40.3240   22.9230   35.0350 H   0  0  0  0  0  0  0  0  0  0  0  0
   38.5970   21.5080   34.1260 H   0  0  0  0  0  0  0  0  0  0  0  0
   37.7350   23.8850   38.3060 H   0  0  0  0  0  0  0  0  0  0  0  0
   35.5210   21.8130   31.4770 C   0  0  0  0  0  0  0  0  0  0  0  0
   35.6450   21.0330   30.6990 H   0  0  0  0  0  0  0  0  0  0  0  0
   34.7180   22.5220   31.1480 H   0  0  0  0  0  0  0  0  0  0  0  0
   36.7790   22.6680   31.5570 C   0  0  0  0  0  0  0  0  0  0  0  0
   37.4690   22.4760   30.7300 H   0  0  0  0  0  0  0  0  0  0  0  0
   37.2680   22.5450   32.5300 H   0  0  0  0  0  0  0  0  0  0  0  0
   36.3200   24.0640   31.5320 N   0  0  0  0  0  0  0  0  0  0  0  0
   35.2920   24.6670   30.9090 C   0  0  0  0  0  0  0  0  0  0  0  0
   34.6270   24.0940   30.2890 H   0  0  0  0  0  0  0  0  0  0  0  0
   35.3060   25.9730   31.2120 N   0  0  0  0  0  0  0  0  0  0  0  0
   36.3400   26.2370   32.0340 C   0  0  0  0  0  0  0  0  0  0  0  0
   36.8520   27.3470   32.6630 C   0  0  0  0  0  0  0  0  0  0  0  0
   36.3850   28.2960   32.5310 H   0  0  0  0  0  0  0  0  0  0  0  0
   37.9470   27.3060   33.4610 N   0  0  0  0  0  0  0  0  0  0  0  0
   38.5400   26.1100   33.6300 C   0  0  0  0  0  0  0  0  0  0  0  0
   39.4070   25.8900   34.2220 H   0  0  0  0  0  0  0  0  0  0  0  0
   38.0680   25.0020   33.0330 N   0  0  0  0  0  0  0  0  0  0  0  0
   36.9820   25.0140   32.2340 C   0  0  0  0  0  0  0  0  0  0  0  0
  1  4  1  6  0  0  0
  1  8  1  0  0  0  0
  2  1  1  0  0  0  0
  2  5  1  0  0  0  0
  3  2  1  0  0  0  0
  3  7  1  1  0  0  0
  3  1  1  0  0  0  0
  6  2  1  0  0  0  0
  8  9  1  0  0  0  0
  8 10  1  0  0  0  0
  8 13  1  0  0  0  0
 11 16  1  0  0  0  0
 12 11  2  0  0  0  0
 12 13  1  0  0  0  0
 13 14  2  0  0  0  0
 14 15  1  0  0  0  0
 15 19  1  0  0  0  0
 16 15  2  0  0  0  0
 17 11  1  0  0  0  0
 18 12  1  0  0  0  0
 20 23  1  0  0  0  0
 20  3  1  0  0  0  0
 21 20  1  0  0  0  0
 22 20  1  0  0  0  0
 23 25  1  0  0  0  0
 24 23  1  0  0  0  0
 26 23  1  0  0  0  0
 26 37  1  0  0  0  0
 27 29  2  0  0  0  0
 27 26  1  0  0  0  0
 28 27  1  0  0  0  0
 29 30  1  0  0  0  0
 30 37  2  0  0  0  0
 30 31  1  0  0  0  0
 31 33  2  0  0  0  0
 32 31  1  0  0  0  0
 33 34  1  0  0  0  0
 34 35  1  0  0  0  0
 36 34  2  0  0  0  0
 37 36  1  0  0  0  0
M  END
>  <minimizedAffinity>
-4.98483849

$$$$

 OpenBabel03262520473D

 37 40  0  0  1  0  0  0  0  0999 V2000
   35.8370   22.8420   31.8690 C   0  0  1  0  0  0  0  0  0  0  0  0
   35.5610   21.5110   31.1910 C   0  0  0  0  0  0  0  0  0  0  0  0
   36.9350   21.9260   31.5060 C   0  0  2  0  0  0  0  0  0  0  0  0
   35.5660   22.9780   32.9430 H   0  0  0  0  0  0  0  0  0  0  0  0
   35.2030   21.5040   30.1470 H   0  0  0  0  0  0  0  0  0  0  0  0
   35.1130   20.7600   31.9030 H   0  0  0  0  0  0  0  0  0  0  0  0
   37.5590   22.1700   30.5970 H   0  0  0  0  0  0  0  0  0  0  0  0
   35.5380   24.0610   31.0270 C   0  0  0  0  0  0  0  0  0  0  0  0
   35.9930   23.9840   30.0310 H   0  0  0  0  0  0  0  0  0  0  0  0
   34.4310   24.1580   30.9140 H   0  0  0  0  0  0  0  0  0  0  0  0
   35.9960   27.6980   31.7780 C   0  0  0  0  0  0  0  0  0  0  0  0
   35.5350   26.4700   31.1870 C   0  0  0  0  0  0  0  0  0  0  0  0
   36.0450   25.2910   31.6670 C   0  0  0  0  0  0  0  0  0  0  0  0
   36.9490   25.3170   32.6620 N   0  0  0  0  0  0  0  0  0  0  0  0
   37.3770   26.4760   33.2110 C   0  0  0  0  0  0  0  0  0  0  0  0
   36.8970   27.6340   32.7630 N   0  0  0  0  0  0  0  0  0  0  0  0
   35.6180   28.6470   31.4270 H   0  0  0  0  0  0  0  0  0  0  0  0
   34.8080   26.6220   30.4000 H   0  0  0  0  0  0  0  0  0  0  0  0
   38.1010   26.2830   33.9920 H   0  0  0  0  0  0  0  0  0  0  0  0
   37.7330   21.3520   32.6290 C   0  0  0  0  0  0  0  0  0  0  0  0
   37.6510   20.2470   32.6010 H   0  0  0  0  0  0  0  0  0  0  0  0
   38.8170   21.6310   32.5540 H   0  0  0  0  0  0  0  0  0  0  0  0
   37.2980   21.8690   33.9940 C   0  0  0  0  0  0  0  0  0  0  0  0
   36.6200   21.1810   34.5050 H   0  0  0  0  0  0  0  0  0  0  0  0
   36.8670   22.8730   33.9060 H   0  0  0  0  0  0  0  0  0  0  0  0
   38.5330   22.0490   34.7700 N   0  0  0  0  0  0  0  0  0  0  0  0
   39.8290   21.8560   34.4660 C   0  0  0  0  0  0  0  0  0  0  0  0
   40.1060   21.5040   33.4890 H   0  0  0  0  0  0  0  0  0  0  0  0
   40.5770   22.1680   35.5340 N   0  0  0  0  0  0  0  0  0  0  0  0
   39.7810   22.5670   36.5440 C   0  0  0  0  0  0  0  0  0  0  0  0
   39.9570   22.9970   37.8390 C   0  0  0  0  0  0  0  0  0  0  0  0
   40.9390   23.0680   38.2470 H   0  0  0  0  0  0  0  0  0  0  0  0
   38.9260   23.3430   38.6490 N   0  0  0  0  0  0  0  0  0  0  0  0
   37.6860   23.2540   38.1380 C   0  0  0  0  0  0  0  0  0  0  0  0
   36.7600   23.4860   38.6290 H   0  0  0  0  0  0  0  0  0  0  0  0
   37.4730   22.8400   36.8770 N   0  0  0  0  0  0  0  0  0  0  0  0
   38.4780   22.4890   36.0490 C   0  0  0  0  0  0  0  0  0  0  0  0
  1  4  1  1  0  0  0
  2  3  1  0  0  0  0
  2  1  1  0  0  0  0
  2  6  1  0  0  0  0
  3  7  1  6  0  0  0
  3  1  1  0  0  0  0
  3 20  1  0  0  0  0
  5  2  1  0  0  0  0
  8 13  1  0  0  0  0
  8  1  1  0  0  0  0
  9  8  1  0  0  0  0
 10  8  1  0  0  0  0
 11 16  1  0  0  0  0
 12 13  1  0  0  0  0
 12 11  2  0  0  0  0
 13 14  2  0  0  0  0
 14 15  1  0  0  0  0
 15 19  1  0  0  0  0
 16 15  2  0  0  0  0
 17 11  1  0  0  0  0
 18 12  1  0  0  0  0
 20 23  1  0  0  0  0
 21 20  1  0  0  0  0
 22 20  1  0  0  0  0
 23 24  1  0  0  0  0
 23 26  1  0  0  0  0
 25 23  1  0  0  0  0
 26 37  1  0  0  0  0
 27 26  1  0  0  0  0
 27 29  2  0  0  0  0
 28 27  1  0  0  0  0
 29 30  1  0  0  0  0
 30 31  1  0  0  0  0
 31 32  1  0  0  0  0
 31 33  2  0  0  0  0
 34 35  1  0  0  0  0
 34 33  1  0  0  0  0
 36 34  2  0  0  0  0
 37 30  2  0  0  0  0
 37 36  1  0  0  0  0
M  END
>  <minimizedAffinity>
-4.97619104

$$$$

 OpenBabel03262520473D

 37 40  0  0  1  0  0  0  0  0999 V2000
   35.5290   28.9690   33.6960 C   0  0  1  0  0  0  0  0  0  0  0  0
   35.7270   28.7710   32.2030 C   0  0  0  0  0  0  0  0  0  0  0  0
   36.7160   28.2710   33.1670 C   0  0  2  0  0  0  0  0  0  0  0  0
   34.7390   28.3870   34.2270 H   0  0  0  0  0  0  0  0  0  0  0  0
   35.9550   29.6480   31.5710 H   0  0  0  0  0  0  0  0  0  0  0  0
   35.0290   27.9910   31.7850 H   0  0  0  0  0  0  0  0  0  0  0  0
   37.7000   28.8250   33.1450 H   0  0  0  0  0  0  0  0  0  0  0  0
   35.6230   30.4020   34.1670 C   0  0  0  0  0  0  0  0  0  0  0  0
   36.6050   30.6190   34.6060 H   0  0  0  0  0  0  0  0  0  0  0  0
   35.4570   31.0800   33.2960 H   0  0  0  0  0  0  0  0  0  0  0  0
   32.3720   30.2770   36.0170 C   0  0  0  0  0  0  0  0  0  0  0  0
   33.4080   30.0240   35.0510 C   0  0  0  0  0  0  0  0  0  0  0  0
   34.5940   30.6990   35.1840 C   0  0  0  0  0  0  0  0  0  0  0  0
   34.7520   31.5670   36.1990 N   0  0  0  0  0  0  0  0  0  0  0  0
   33.7720   31.7990   37.1020 C   0  0  0  0  0  0  0  0  0  0  0  0
   32.6120   31.1560   36.9940 N   0  0  0  0  0  0  0  0  0  0  0  0
   31.4240   29.7650   35.9460 H   0  0  0  0  0  0  0  0  0  0  0  0
   33.1230   29.2990   34.2990 H   0  0  0  0  0  0  0  0  0  0  0  0
   34.0940   32.5270   37.8360 H   0  0  0  0  0  0  0  0  0  0  0  0
   36.8640   26.8290   33.5240 C   0  0  0  0  0  0  0  0  0  0  0  0
   35.9230   26.2980   33.2730 H   0  0  0  0  0  0  0  0  0  0  0  0
   37.7060   26.3460   32.9620 H   0  0  0  0  0  0  0  0  0  0  0  0
   37.2070   26.6100   34.9910 C   0  0  0  0  0  0  0  0  0  0  0  0
   36.3300   26.3540   35.5920 H   0  0  0  0  0  0  0  0  0  0  0  0
   37.7360   27.4800   35.3970 H   0  0  0  0  0  0  0  0  0  0  0  0
   38.1880   25.5170   35.0180 N   0  0  0  0  0  0  0  0  0  0  0  0
   39.0140   25.0190   34.0810 C   0  0  0  0  0  0  0  0  0  0  0  0
   39.0240   25.4420   33.0930 H   0  0  0  0  0  0  0  0  0  0  0  0
   39.7180   24.0100   34.6130 N   0  0  0  0  0  0  0  0  0  0  0  0
   39.3610   23.8370   35.9000 C   0  0  0  0  0  0  0  0  0  0  0  0
   39.7180   22.9950   36.9270 C   0  0  0  0  0  0  0  0  0  0  0  0
   40.4600   22.2470   36.7670 H   0  0  0  0  0  0  0  0  0  0  0  0
   39.1650   23.0600   38.1630 N   0  0  0  0  0  0  0  0  0  0  0  0
   38.2270   24.0020   38.3680 C   0  0  0  0  0  0  0  0  0  0  0  0
   37.6880   24.1990   39.2750 H   0  0  0  0  0  0  0  0  0  0  0  0
   37.8530   24.8450   37.3900 N   0  0  0  0  0  0  0  0  0  0  0  0
   38.3850   24.8030   36.1520 C   0  0  0  0  0  0  0  0  0  0  0  0
  1  8  1  0  0  0  0
  1  4  1  1  0  0  0
  2  3  1  0  0  0  0
  2  1  1  0  0  0  0
  3  7  1  1  0  0  0
  3 20  1  0  0  0  0
  3  1  1  0  0  0  0
  5  2  1  0  0  0  0
  6  2  1  0  0  0  0
  8  9  1  0  0  0  0
  8 13  1  0  0  0  0
 10  8  1  0  0  0  0
 11 16  1  0  0  0  0
 12 13  1  0  0  0  0
 12 11  2  0  0  0  0
 13 14  2  0  0  0  0
 14 15  1  0  0  0  0
 15 19  1  0  0  0  0
 16 15  2  0  0  0  0
 17 11  1  0  0  0  0
 18 12  1  0  0  0  0
 20 23  1  0  0  0  0
 21 20  1  0  0  0  0
 22 20  1  0  0  0  0
 23 26  1  0  0  0  0
 23 25  1  0  0  0  0
 23 24  1  0  0  0  0
 26 37  1  0  0  0  0
 27 29  2  0  0  0  0
 27 26  1  0  0  0  0
 28 27  1  0  0  0  0
 29 30  1  0  0  0  0
 30 37  2  0  0  0  0
 30 31  1  0  0  0  0
 31 33  2  0  0  0  0
 32 31  1  0  0  0  0
 33 34  1  0  0  0  0
 34 35  1  0  0  0  0
 36 34  2  0  0  0  0
 37 36  1  0  0  0  0
M  END
>  <minimizedAffinity>
-4.87996721

$$$$

 OpenBabel03262520473D

 37 40  0  0  1  0  0  0  0  0999 V2000
   38.2370   25.9170   35.4300 C   0  0  1  0  0  0  0  0  0  0  0  0
   38.1790   27.3770   35.8450 C   0  0  0  0  0  0  0  0  0  0  0  0
   39.4240   26.7870   35.3340 C   0  0  2  0  0  0  0  0  0  0  0  0
   37.7160   25.5890   34.4990 H   0  0  0  0  0  0  0  0  0  0  0  0
   38.0760   27.6280   36.9150 H   0  0  0  0  0  0  0  0  0  0  0  0
   37.6070   28.0040   35.1030 H   0  0  0  0  0  0  0  0  0  0  0  0
   40.2340   26.6790   36.1140 H   0  0  0  0  0  0  0  0  0  0  0  0
   38.0950   24.9270   36.5640 C   0  0  0  0  0  0  0  0  0  0  0  0
   38.2610   25.4030   37.5390 H   0  0  0  0  0  0  0  0  0  0  0  0
   37.0650   24.4960   36.5410 H   0  0  0  0  0  0  0  0  0  0  0  0
   40.4850   22.2110   37.5230 C   0  0  0  0  0  0  0  0  0  0  0  0
   39.5420   23.2950   37.6010 C   0  0  0  0  0  0  0  0  0  0  0  0
   39.0600   23.8170   36.4280 C   0  0  0  0  0  0  0  0  0  0  0  0
   39.4780   23.3080   35.2560 N   0  0  0  0  0  0  0  0  0  0  0  0
   40.3650   22.2900   35.1930 C   0  0  0  0  0  0  0  0  0  0  0  0
   40.8480   21.7660   36.3170 N   0  0  0  0  0  0  0  0  0  0  0  0
   40.8870   21.7740   38.4250 H   0  0  0  0  0  0  0  0  0  0  0  0
   39.3100   23.5870   38.6170 H   0  0  0  0  0  0  0  0  0  0  0  0
   40.5710   22.0270   34.1630 H   0  0  0  0  0  0  0  0  0  0  0  0
   39.9590   27.0470   33.9650 C   0  0  0  0  0  0  0  0  0  0  0  0
   39.8680   28.1290   33.7430 H   0  0  0  0  0  0  0  0  0  0  0  0
   41.0380   26.7540   33.8770 H   0  0  0  0  0  0  0  0  0  0  0  0
   39.2530   26.2360   32.8860 C   0  0  0  0  0  0  0  0  0  0  0  0
   38.3410   25.7570   33.2520 H   0  0  0  0  0  0  0  0  0  0  0  0
   39.9410   25.5100   32.4370 H   0  0  0  0  0  0  0  0  0  0  0  0
   38.9400   27.1850   31.8080 N   0  0  0  0  0  0  0  0  0  0  0  0
   39.6280   27.5780   30.7210 C   0  0  0  0  0  0  0  0  0  0  0  0
   40.6030   27.1710   30.5250 H   0  0  0  0  0  0  0  0  0  0  0  0
   38.8960   28.4740   30.0450 N   0  0  0  0  0  0  0  0  0  0  0  0
   37.7250   28.6760   30.6800 C   0  0  0  0  0  0  0  0  0  0  0  0
   36.6050   29.4480   30.4780 C   0  0  0  0  0  0  0  0  0  0  0  0
   36.5470   30.0890   29.6290 H   0  0  0  0  0  0  0  0  0  0  0  0
   35.5420   29.4420   31.3200 N   0  0  0  0  0  0  0  0  0  0  0  0
   35.6120   28.6340   32.3930 C   0  0  0  0  0  0  0  0  0  0  0  0
   34.8720   28.5000   33.1580 H   0  0  0  0  0  0  0  0  0  0  0  0
   36.6900   27.8630   32.6230 N   0  0  0  0  0  0  0  0  0  0  0  0
   37.7610   27.8490   31.8040 C   0  0  0  0  0  0  0  0  0  0  0  0
  1  4  1  6  0  0  0
  1  2  1  0  0  0  0
  1  8  1  0  0  0  0
  2  5  1  0  0  0  0
  3  1  1  0  0  0  0
  3  2  1  0  0  0  0
  3  7  1  1  0  0  0
  6  2  1  0  0  0  0
  8  9  1  0  0  0  0
 10  8  1  0  0  0  0
 11 12  1  0  0  0  0
 11 17  1  0  0  0  0
 12 18  1  0  0  0  0
 13  8  1  0  0  0  0
 13 12  2  0  0  0  0
 14 13  1  0  0  0  0
 15 14  2  0  0  0  0
 15 16  1  0  0  0  0
 16 11  2  0  0  0  0
 19 15  1  0  0  0  0
 20  3  1  0  0  0  0
 21 20  1  0  0  0  0
 22 20  1  0  0  0  0
 23 24  1  0  0  0  0
 23 20  1  0  0  0  0
 25 23  1  0  0  0  0
 26 23  1  0  0  0  0
 27 26  1  0  0  0  0
 28 27  1  0  0  0  0
 29 30  1  0  0  0  0
 29 27  2  0  0  0  0
 30 37  1  0  0  0  0
 31 30  2  0  0  0  0
 31 33  1  0  0  0  0
 32 31  1  0  0  0  0
 33 34  2  0  0  0  0
 34 36  1  0  0  0  0
 34 35  1  0  0  0  0
 37 26  1  0  0  0  0
 37 36  2  0  0  0  0
M  END
>  <minimizedAffinity>
-4.87504339

$$$$

 OpenBabel03262520473D

 37 40  0  0  1  0  0  0  0  0999 V2000
   38.9760   23.3740   36.8220 C   0  0  1  0  0  0  0  0  0  0  0  0
   37.4960   23.2070   37.1270 C   0  0  0  0  0  0  0  0  0  0  0  0
   38.1320   24.5310   37.1770 C   0  0  2  0  0  0  0  0  0  0  0  0
   39.3370   23.2560   35.7730 H   0  0  0  0  0  0  0  0  0  0  0  0
   37.1940   22.6960   38.0570 H   0  0  0  0  0  0  0  0  0  0  0  0
   36.8950   22.9990   36.1960 H   0  0  0  0  0  0  0  0  0  0  0  0
   38.2170   24.9600   38.2180 H   0  0  0  0  0  0  0  0  0  0  0  0
   39.9090   22.7590   37.8400 C   0  0  0  0  0  0  0  0  0  0  0  0
   40.1830   23.4780   38.6230 H   0  0  0  0  0  0  0  0  0  0  0  0
   39.4020   21.8830   38.3120 H   0  0  0  0  0  0  0  0  0  0  0  0
   42.9360   22.7100   35.6400 C   0  0  0  0  0  0  0  0  0  0  0  0
   41.7220   23.1290   36.2880 C   0  0  0  0  0  0  0  0  0  0  0  0
   41.1540   22.2820   37.2040 C   0  0  0  0  0  0  0  0  0  0  0  0
   41.7400   21.1010   37.4670 N   0  0  0  0  0  0  0  0  0  0  0  0
   42.8810   20.7160   36.8530 C   0  0  0  0  0  0  0  0  0  0  0  0
   43.4520   21.5200   35.9590 N   0  0  0  0  0  0  0  0  0  0  0  0
   43.4130   23.3500   34.9130 H   0  0  0  0  0  0  0  0  0  0  0  0
   41.3800   24.1040   35.9660 H   0  0  0  0  0  0  0  0  0  0  0  0
   43.1910   19.7380   37.2000 H   0  0  0  0  0  0  0  0  0  0  0  0
   37.9450   25.5750   36.1260 C   0  0  0  0  0  0  0  0  0  0  0  0
   36.8890   25.5610   35.7880 H   0  0  0  0  0  0  0  0  0  0  0  0
   38.1820   26.6010   36.5120 H   0  0  0  0  0  0  0  0  0  0  0  0
   38.8730   25.3910   34.9320 C   0  0  0  0  0  0  0  0  0  0  0  0
   39.6110   24.6010   35.0940 H   0  0  0  0  0  0  0  0  0  0  0  0
   39.3480   26.3410   34.6630 H   0  0  0  0  0  0  0  0  0  0  0  0
   38.0050   25.0610   33.7930 N   0  0  0  0  0  0  0  0  0  0  0  0
   37.6980   23.8950   33.1980 C   0  0  0  0  0  0  0  0  0  0  0  0
   38.1250   22.9770   33.5600 H   0  0  0  0  0  0  0  0  0  0  0  0
   36.8500   24.1320   32.1870 N   0  0  0  0  0  0  0  0  0  0  0  0
   36.5940   25.4520   32.1110 C   0  0  0  0  0  0  0  0  0  0  0  0
   35.8300   26.2730   31.3140 C   0  0  0  0  0  0  0  0  0  0  0  0
   35.2530   25.8560   30.5210 H   0  0  0  0  0  0  0  0  0  0  0  0
   35.7670   27.6170   31.4820 N   0  0  0  0  0  0  0  0  0  0  0  0
   36.4940   28.1460   32.4820 C   0  0  0  0  0  0  0  0  0  0  0  0
   36.5650   29.1800   32.7610 H   0  0  0  0  0  0  0  0  0  0  0  0
   37.2520   27.3760   33.2840 N   0  0  0  0  0  0  0  0  0  0  0  0
   37.3340   26.0380   33.1400 C   0  0  0  0  0  0  0  0  0  0  0  0
  1  4  1  6  0  0  0
  1  2  1  0  0  0  0
  1  3  1  0  0  0  0
  1  8  1  0  0  0  0
  2  3  1  0  0  0  0
  2  5  1  0  0  0  0
  3  7  1  1  0  0  0
  6  2  1  0  0  0  0
  8 10  1  0  0  0  0
  8  9  1  0  0  0  0
 11 16  2  0  0  0  0
 11 12  1  0  0  0  0
 12 13  2  0  0  0  0
 13 14  1  0  0  0  0
 13  8  1  0  0  0  0
 15 19  1  0  0  0  0
 15 14  2  0  0  0  0
 16 15  1  0  0  0  0
 17 11  1  0  0  0  0
 18 12  1  0  0  0  0
 20 22  1  0  0  0  0
 20  3  1  0  0  0  0
 21 20  1  0  0  0  0
 23 24  1  0  0  0  0
 23 20  1  0  0  0  0
 25 23  1  0  0  0  0
 26 23  1  0  0  0  0
 27 28  1  0  0  0  0
 27 26  1  0  0  0  0
 29 27  2  0  0  0  0
 30 29  1  0  0  0  0
 30 37  1  0  0  0  0
 31 33  1  0  0  0  0
 31 30  2  0  0  0  0
 32 31  1  0  0  0  0
 33 34  2  0  0  0  0
 34 35  1  0  0  0  0
 34 36  1  0  0  0  0
 37 36  2  0  0  0  0
 37 26  1  0  0  0  0
M  END
>  <minimizedAffinity>
-4.85887766

$$$$

 OpenBabel03262520473D

 37 40  0  0  1  0  0  0  0  0999 V2000
   37.3850   26.6790   34.7340 C   0  0  1  0  0  0  0  0  0  0  0  0
   36.6460   27.9700   34.4230 C   0  0  0  0  0  0  0  0  0  0  0  0
   37.8510   27.5910   33.6720 C   0  0  2  0  0  0  0  0  0  0  0  0
   36.9230   25.7020   34.4570 H   0  0  0  0  0  0  0  0  0  0  0  0
   36.6790   28.7970   35.1540 H   0  0  0  0  0  0  0  0  0  0  0  0
   35.6710   27.7800   33.8910 H   0  0  0  0  0  0  0  0  0  0  0  0
   38.7470   28.2470   33.8820 H   0  0  0  0  0  0  0  0  0  0  0  0
   38.0720   26.6470   36.0800 C   0  0  0  0  0  0  0  0  0  0  0  0
   38.9720   27.2760   36.0890 H   0  0  0  0  0  0  0  0  0  0  0  0
   37.3620   27.0180   36.8570 H   0  0  0  0  0  0  0  0  0  0  0  0
   39.7680   23.3160   35.8910 C   0  0  0  0  0  0  0  0  0  0  0  0
   39.3460   24.6560   35.5820 C   0  0  0  0  0  0  0  0  0  0  0  0
   38.4730   25.2720   36.4420 C   0  0  0  0  0  0  0  0  0  0  0  0
   38.0440   24.6150   37.5330 N   0  0  0  0  0  0  0  0  0  0  0  0
   38.4460   23.3550   37.8150 C   0  0  0  0  0  0  0  0  0  0  0  0
   39.2920   22.7350   36.9960 N   0  0  0  0  0  0  0  0  0  0  0  0
   40.4540   22.7980   35.2380 H   0  0  0  0  0  0  0  0  0  0  0  0
   39.7820   25.0420   34.6700 H   0  0  0  0  0  0  0  0  0  0  0  0
   37.9890   23.0050   38.7320 H   0  0  0  0  0  0  0  0  0  0  0  0
   37.8210   27.0690   32.2740 C   0  0  0  0  0  0  0  0  0  0  0  0
   36.7910   27.1630   31.8770 H   0  0  0  0  0  0  0  0  0  0  0  0
   38.5160   27.6370   31.6020 H   0  0  0  0  0  0  0  0  0  0  0  0
   38.2860   25.6220   32.1690 C   0  0  0  0  0  0  0  0  0  0  0  0
   38.7140   25.2520   33.1050 H   0  0  0  0  0  0  0  0  0  0  0  0
   38.9800   25.5000   31.3300 H   0  0  0  0  0  0  0  0  0  0  0  0
   37.0970   24.8410   31.8010 N   0  0  0  0  0  0  0  0  0  0  0  0
   36.0060   25.1430   31.0760 C   0  0  0  0  0  0  0  0  0  0  0  0
   35.9000   26.1210   30.6430 H   0  0  0  0  0  0  0  0  0  0  0  0
   35.2010   24.0710   31.0350 N   0  0  0  0  0  0  0  0  0  0  0  0
   35.7560   23.0600   31.7300 C   0  0  0  0  0  0  0  0  0  0  0  0
   35.4210   21.7620   32.0370 C   0  0  0  0  0  0  0  0  0  0  0  0
   34.5040   21.3510   31.6810 H   0  0  0  0  0  0  0  0  0  0  0  0
   36.2090   20.9530   32.7870 N   0  0  0  0  0  0  0  0  0  0  0  0
   37.3660   21.4680   33.2390 C   0  0  0  0  0  0  0  0  0  0  0  0
   38.1080   20.9770   33.8400 H   0  0  0  0  0  0  0  0  0  0  0  0
   37.7290   22.7320   32.9590 N   0  0  0  0  0  0  0  0  0  0  0  0
   36.9660   23.5590   32.2170 C   0  0  0  0  0  0  0  0  0  0  0  0
  1  4  1  6  0  0  0
  1  8  1  0  0  0  0
  2  1  1  0  0  0  0
  2  5  1  0  0  0  0
  3  7  1  1  0  0  0
  3  2  1  0  0  0  0
  3  1  1  0  0  0  0
  6  2  1  0  0  0  0
  8  9  1  0  0  0  0
  8 13  1  0  0  0  0
  8 10  1  0  0  0  0
 11 16  1  0  0  0  0
 12 11  2  0  0  0  0
 12 13  1  0  0  0  0
 13 14  2  0  0  0  0
 14 15  1  0  0  0  0
 15 19  1  0  0  0  0
 16 15  2  0  0  0  0
 17 11  1  0  0  0  0
 18 12  1  0  0  0  0
 20  3  1  0  0  0  0
 21 20  1  0  0  0  0
 22 20  1  0  0  0  0
 23 20  1  0  0  0  0
 23 24  1  0  0  0  0
 25 23  1  0  0  0  0
 26 23  1  0  0  0  0
 26 37  1  0  0  0  0
 27 26  1  0  0  0  0
 28 27  1  0  0  0  0
 29 27  2  0  0  0  0
 29 30  1  0  0  0  0
 30 31  2  0  0  0  0
 30 37  1  0  0  0  0
 31 33  1  0  0  0  0
 32 31  1  0  0  0  0
 33 34  2  0  0  0  0
 34 35  1  0  0  0  0
 36 34  1  0  0  0  0
 37 36  2  0  0  0  0
M  END
>  <minimizedAffinity>
-4.83280039

$$$$
