
 OpenBabel03262520463D

 37 40  0  0  1  0  0  0  0  0999 V2000
   38.9670   32.3240   46.5870 C   0  0  1  0  0  0  0  0  0  0  0  0
   40.1010   33.0630   45.8960 C   0  0  0  0  0  0  0  0  0  0  0  0
   40.1180   31.5980   46.0170 C   0  0  2  0  0  0  0  0  0  0  0  0
   37.9710   32.2570   46.0890 H   0  0  0  0  0  0  0  0  0  0  0  0
   40.7860   33.6820   46.5010 H   0  0  0  0  0  0  0  0  0  0  0  0
   39.7930   33.4570   44.8860 H   0  0  0  0  0  0  0  0  0  0  0  0
   40.9080   31.2050   46.7210 H   0  0  0  0  0  0  0  0  0  0  0  0
   38.8670   32.5620   48.0770 C   0  0  0  0  0  0  0  0  0  0  0  0
   39.8580   32.6130   48.5450 H   0  0  0  0  0  0  0  0  0  0  0  0
   38.3320   33.5250   48.2540 H   0  0  0  0  0  0  0  0  0  0  0  0
   37.6000   30.3030   50.7800 C   0  0  0  0  0  0  0  0  0  0  0  0
   38.3200   31.3390   50.0870 C   0  0  0  0  0  0  0  0  0  0  0  0
   38.1040   31.4850   48.7400 C   0  0  0  0  0  0  0  0  0  0  0  0
   37.2390   30.6670   48.1160 N   0  0  0  0  0  0  0  0  0  0  0  0
   36.5680   29.6960   48.7760 C   0  0  0  0  0  0  0  0  0  0  0  0
   36.7600   29.5340   50.0830 N   0  0  0  0  0  0  0  0  0  0  0  0
   37.7430   30.1580   51.8400 H   0  0  0  0  0  0  0  0  0  0  0  0
   38.9750   31.9090   50.7320 H   0  0  0  0  0  0  0  0  0  0  0  0
   35.9240   29.1490   48.0980 H   0  0  0  0  0  0  0  0  0  0  0  0
   39.8340   30.6740   44.8790 C   0  0  0  0  0  0  0  0  0  0  0  0
   40.3390   29.7060   45.0670 H   0  0  0  0  0  0  0  0  0  0  0  0
   38.7340   30.4860   44.7600 H   0  0  0  0  0  0  0  0  0  0  0  0
   40.2740   31.2340   43.5330 C   0  0  0  0  0  0  0  0  0  0  0  0
   41.2300   31.7620   43.5920 H   0  0  0  0  0  0  0  0  0  0  0  0
   39.4880   31.8650   43.1020 H   0  0  0  0  0  0  0  0  0  0  0  0
   40.3760   30.0800   42.6290 N   0  0  0  0  0  0  0  0  0  0  0  0
   41.4200   29.3270   42.2380 C   0  0  0  0  0  0  0  0  0  0  0  0
   42.4070   29.5400   42.6090 H   0  0  0  0  0  0  0  0  0  0  0  0
   40.9830   28.3820   41.3930 N   0  0  0  0  0  0  0  0  0  0  0  0
   39.6510   28.5080   41.2230 C   0  0  0  0  0  0  0  0  0  0  0  0
   38.6760   27.8580   40.5050 C   0  0  0  0  0  0  0  0  0  0  0  0
   38.9320   27.0260   39.8910 H   0  0  0  0  0  0  0  0  0  0  0  0
   37.3710   28.2230   40.5320 N   0  0  0  0  0  0  0  0  0  0  0  0
   37.0430   29.2730   41.3060 C   0  0  0  0  0  0  0  0  0  0  0  0
   36.0670   29.6990   41.4490 H   0  0  0  0  0  0  0  0  0  0  0  0
   37.9680   29.9340   42.0230 N   0  0  0  0  0  0  0  0  0  0  0  0
   39.2730   29.5930   42.0150 C   0  0  0  0  0  0  0  0  0  0  0  0
  1  4  1  6  0  0  0
  1  8  1  0  0  0  0
  2  3  1  0  0  0  0
  2  5  1  0  0  0  0
  2  1  1  0  0  0  0
  3  1  1  0  0  0  0
  3  7  1  1  0  0  0
  6  2  1  0  0  0  0
  8 10  1  0  0  0  0
  8  9  1  0  0  0  0
  8 13  1  0  0  0  0
 11 17  1  0  0  0  0
 12 18  1  0  0  0  0
 12 11  1  0  0  0  0
 13 12  2  0  0  0  0
 14 13  1  0  0  0  0
 14 15  2  0  0  0  0
 15 16  1  0  0  0  0
 16 11  2  0  0  0  0
 19 15  1  0  0  0  0
 20 21  1  0  0  0  0
 20  3  1  0  0  0  0
 22 20  1  0  0  0  0
 23 24  1  0  0  0  0
 23 20  1  0  0  0  0
 25 23  1  0  0  0  0
 26 23  1  0  0  0  0
 27 28  1  0  0  0  0
 27 26  1  0  0  0  0
 29 27  2  0  0  0  0
 30 29  1  0  0  0  0
 30 37  1  0  0  0  0
 31 33  1  0  0  0  0
 31 30  2  0  0  0  0
 32 31  1  0  0  0  0
 33 34  2  0  0  0  0
 34 35  1  0  0  0  0
 34 36  1  0  0  0  0
 37 36  2  0  0  0  0
 37 26  1  0  0  0  0
M  END
>  <minimizedAffinity>
-5.18892241

>  <minimizedRMSD>
1.00339592

$$$$
