
 OpenBabel03262520463D

 37 40  0  0  1  0  0  0  0  0999 V2000
   38.7030   32.0800   46.9390 C   0  0  1  0  0  0  0  0  0  0  0  0
   39.7800   32.9050   46.2550 C   0  0  0  0  0  0  0  0  0  0  0  0
   39.8650   31.4380   46.2970 C   0  0  2  0  0  0  0  0  0  0  0  0
   37.6950   31.9940   46.4680 H   0  0  0  0  0  0  0  0  0  0  0  0
   40.4560   33.5220   46.8710 H   0  0  0  0  0  0  0  0  0  0  0  0
   39.4220   33.3360   45.2770 H   0  0  0  0  0  0  0  0  0  0  0  0
   40.6940   31.0450   46.9550 H   0  0  0  0  0  0  0  0  0  0  0  0
   38.6400   32.2350   48.4420 C   0  0  0  0  0  0  0  0  0  0  0  0
   39.6420   32.2400   48.8890 H   0  0  0  0  0  0  0  0  0  0  0  0
   38.1290   33.1980   48.6850 H   0  0  0  0  0  0  0  0  0  0  0  0
   37.3300   29.9010   51.0580 C   0  0  0  0  0  0  0  0  0  0  0  0
   38.0590   30.9570   50.4070 C   0  0  0  0  0  0  0  0  0  0  0  0
   37.8690   31.1380   49.0610 C   0  0  0  0  0  0  0  0  0  0  0  0
   37.0200   30.3340   48.3980 N   0  0  0  0  0  0  0  0  0  0  0  0
   36.3400   29.3430   49.0190 C   0  0  0  0  0  0  0  0  0  0  0  0
   36.5070   29.1470   50.3240 N   0  0  0  0  0  0  0  0  0  0  0  0
   37.4530   29.7280   52.1170 H   0  0  0  0  0  0  0  0  0  0  0  0
   38.6990   31.5130   51.0800 H   0  0  0  0  0  0  0  0  0  0  0  0
   35.7130   28.8120   48.3140 H   0  0  0  0  0  0  0  0  0  0  0  0
   39.5850   30.5620   45.1200 C   0  0  0  0  0  0  0  0  0  0  0  0
   39.7270   29.5040   45.4180 H   0  0  0  0  0  0  0  0  0  0  0  0
   38.5360   30.6910   44.7460 H   0  0  0  0  0  0  0  0  0  0  0  0
   40.4620   30.8830   43.9180 C   0  0  0  0  0  0  0  0  0  0  0  0
   41.5170   30.6590   44.0970 H   0  0  0  0  0  0  0  0  0  0  0  0
   40.3170   31.9220   43.6000 H   0  0  0  0  0  0  0  0  0  0  0  0
   39.9430   30.0680   42.8100 N   0  0  0  0  0  0  0  0  0  0  0  0
   40.2580   28.8380   42.3680 C   0  0  0  0  0  0  0  0  0  0  0  0
   41.0250   28.2670   42.8620 H   0  0  0  0  0  0  0  0  0  0  0  0
   39.4840   28.5440   41.3130 N   0  0  0  0  0  0  0  0  0  0  0  0
   38.6600   29.5770   41.0550 C   0  0  0  0  0  0  0  0  0  0  0  0
   37.6770   29.8570   40.1350 C   0  0  0  0  0  0  0  0  0  0  0  0
   37.4250   29.1400   39.3890 H   0  0  0  0  0  0  0  0  0  0  0  0
   36.9910   31.0270   40.1190 N   0  0  0  0  0  0  0  0  0  0  0  0
   37.3060   31.9360   41.0580 C   0  0  0  0  0  0  0  0  0  0  0  0
   36.8710   32.9080   41.1980 H   0  0  0  0  0  0  0  0  0  0  0  0
   38.2600   31.6990   41.9750 N   0  0  0  0  0  0  0  0  0  0  0  0
   38.9590   30.5460   42.0140 C   0  0  0  0  0  0  0  0  0  0  0  0
  1  4  1  6  0  0  0
  1  8  1  0  0  0  0
  2  3  1  0  0  0  0
  2  5  1  0  0  0  0
  2  1  1  0  0  0  0
  3  1  1  0  0  0  0
  3  7  1  1  0  0  0
  6  2  1  0  0  0  0
  8 10  1  0  0  0  0
  8  9  1  0  0  0  0
  8 13  1  0  0  0  0
 11 17  1  0  0  0  0
 12 11  1  0  0  0  0
 12 18  1  0  0  0  0
 13 12  2  0  0  0  0
 14 15  2  0  0  0  0
 14 13  1  0  0  0  0
 15 16  1  0  0  0  0
 16 11  2  0  0  0  0
 19 15  1  0  0  0  0
 20 21  1  0  0  0  0
 20  3  1  0  0  0  0
 22 20  1  0  0  0  0
 23 24  1  0  0  0  0
 23 20  1  0  0  0  0
 25 23  1  0  0  0  0
 26 23  1  0  0  0  0
 27 26  1  0  0  0  0
 27 28  1  0  0  0  0
 29 27  2  0  0  0  0
 30 29  1  0  0  0  0
 30 37  1  0  0  0  0
 31 30  2  0  0  0  0
 32 31  1  0  0  0  0
 33 31  1  0  0  0  0
 33 34  2  0  0  0  0
 34 35  1  0  0  0  0
 34 36  1  0  0  0  0
 36 37  2  0  0  0  0
 37 26  1  0  0  0  0
M  END
>  <minimizedAffinity>
-5.01707506

>  <minimizedRMSD>
0.289632738

$$$$
