
 OpenBabel03262520463D

 37 40  0  0  1  0  0  0  0  0999 V2000
   38.6060   32.0080   46.9780 C   0  0  1  0  0  0  0  0  0  0  0  0
   39.7130   32.7510   46.2500 C   0  0  0  0  0  0  0  0  0  0  0  0
   39.7140   31.2840   46.3280 C   0  0  2  0  0  0  0  0  0  0  0  0
   37.5840   31.9690   46.5300 H   0  0  0  0  0  0  0  0  0  0  0  0
   40.4370   33.3430   46.8360 H   0  0  0  0  0  0  0  0  0  0  0  0
   39.3600   33.1780   45.2680 H   0  0  0  0  0  0  0  0  0  0  0  0
   40.5340   30.8600   46.9790 H   0  0  0  0  0  0  0  0  0  0  0  0
   38.5850   32.2040   48.4770 C   0  0  0  0  0  0  0  0  0  0  0  0
   39.5990   32.2130   48.8960 H   0  0  0  0  0  0  0  0  0  0  0  0
   38.0870   33.1760   48.7070 H   0  0  0  0  0  0  0  0  0  0  0  0
   37.3220   29.9580   51.1920 C   0  0  0  0  0  0  0  0  0  0  0  0
   38.0400   30.9910   50.4930 C   0  0  0  0  0  0  0  0  0  0  0  0
   37.8240   31.1290   49.1450 C   0  0  0  0  0  0  0  0  0  0  0  0
   36.9610   30.3050   48.5260 N   0  0  0  0  0  0  0  0  0  0  0  0
   36.2920   29.3370   49.1910 C   0  0  0  0  0  0  0  0  0  0  0  0
   36.4830   29.1830   50.4990 N   0  0  0  0  0  0  0  0  0  0  0  0
   37.4650   29.8190   52.2530 H   0  0  0  0  0  0  0  0  0  0  0  0
   38.6940   31.5670   51.1350 H   0  0  0  0  0  0  0  0  0  0  0  0
   35.6500   28.7840   48.5160 H   0  0  0  0  0  0  0  0  0  0  0  0
   39.3590   30.3970   45.1810 C   0  0  0  0  0  0  0  0  0  0  0  0
   39.6130   29.3500   45.4430 H   0  0  0  0  0  0  0  0  0  0  0  0
   38.2650   30.4490   44.9380 H   0  0  0  0  0  0  0  0  0  0  0  0
   40.0580   30.7900   43.8860 C   0  0  0  0  0  0  0  0  0  0  0  0
   41.1300   30.5760   43.9080 H   0  0  0  0  0  0  0  0  0  0  0  0
   39.8590   31.8400   43.6440 H   0  0  0  0  0  0  0  0  0  0  0  0
   39.3990   30.0190   42.8220 N   0  0  0  0  0  0  0  0  0  0  0  0
   38.1100   29.7110   42.5940 C   0  0  0  0  0  0  0  0  0  0  0  0
   37.3470   30.0530   43.2690 H   0  0  0  0  0  0  0  0  0  0  0  0
   38.0300   28.9780   41.4740 N   0  0  0  0  0  0  0  0  0  0  0  0
   39.2630   28.7990   40.9600 C   0  0  0  0  0  0  0  0  0  0  0  0
   39.8010   28.1610   39.8680 C   0  0  0  0  0  0  0  0  0  0  0  0
   39.1650   27.6420   39.1880 H   0  0  0  0  0  0  0  0  0  0  0  0
   41.1300   28.1510   39.5970 N   0  0  0  0  0  0  0  0  0  0  0  0
   41.9350   28.8050   40.4530 C   0  0  0  0  0  0  0  0  0  0  0  0
   43.0030   28.9030   40.3990 H   0  0  0  0  0  0  0  0  0  0  0  0
   41.4460   29.4410   41.5330 N   0  0  0  0  0  0  0  0  0  0  0  0
   40.1310   29.4670   41.8260 C   0  0  0  0  0  0  0  0  0  0  0  0
  1  4  1  6  0  0  0
  1  8  1  0  0  0  0
  2  3  1  0  0  0  0
  2  5  1  0  0  0  0
  2  1  1  0  0  0  0
  3  1  1  0  0  0  0
  3  7  1  1  0  0  0
  6  2  1  0  0  0  0
  8 10  1  0  0  0  0
  8  9  1  0  0  0  0
  8 13  1  0  0  0  0
 11 17  1  0  0  0  0
 12 18  1  0  0  0  0
 12 11  2  0  0  0  0
 13 12  1  0  0  0  0
 14 13  2  0  0  0  0
 14 15  1  0  0  0  0
 15 16  2  0  0  0  0
 16 11  1  0  0  0  0
 19 15  1  0  0  0  0
 20 21  1  0  0  0  0
 20  3  1  0  0  0  0
 22 20  1  0  0  0  0
 23 24  1  0  0  0  0
 23 20  1  0  0  0  0
 25 23  1  0  0  0  0
 26 23  1  0  0  0  0
 27 26  1  0  0  0  0
 27 28  1  0  0  0  0
 29 27  2  0  0  0  0
 30 29  1  0  0  0  0
 30 37  1  0  0  0  0
 31 30  2  0  0  0  0
 32 31  1  0  0  0  0
 33 31  1  0  0  0  0
 33 34  2  0  0  0  0
 34 36  1  0  0  0  0
 35 34  1  0  0  0  0
 36 37  2  0  0  0  0
 37 26  1  0  0  0  0
M  END
>  <minimizedAffinity>
-5.17977667

>  <minimizedRMSD>
0.568244636

$$$$
