
 OpenBabel03262520463D

 37 40  0  0  1  0  0  0  0  0999 V2000
   38.6360   32.0380   46.9410 C   0  0  1  0  0  0  0  0  0  0  0  0
   39.7560   32.7800   46.2320 C   0  0  0  0  0  0  0  0  0  0  0  0
   39.7330   31.3120   46.2750 C   0  0  2  0  0  0  0  0  0  0  0  0
   37.6140   32.0270   46.4920 H   0  0  0  0  0  0  0  0  0  0  0  0
   40.4900   33.3460   46.8320 H   0  0  0  0  0  0  0  0  0  0  0  0
   39.4110   33.2360   45.2600 H   0  0  0  0  0  0  0  0  0  0  0  0
   40.5450   30.8580   46.9160 H   0  0  0  0  0  0  0  0  0  0  0  0
   38.6180   32.1990   48.4440 C   0  0  0  0  0  0  0  0  0  0  0  0
   39.6320   32.1910   48.8630 H   0  0  0  0  0  0  0  0  0  0  0  0
   38.1270   33.1690   48.6980 H   0  0  0  0  0  0  0  0  0  0  0  0
   37.3180   29.9180   51.1130 C   0  0  0  0  0  0  0  0  0  0  0  0
   38.0440   30.9620   50.4380 C   0  0  0  0  0  0  0  0  0  0  0  0
   37.8500   31.1140   49.0880 C   0  0  0  0  0  0  0  0  0  0  0  0
   37.0000   30.2950   48.4450 N   0  0  0  0  0  0  0  0  0  0  0  0
   36.3240   29.3170   49.0880 C   0  0  0  0  0  0  0  0  0  0  0  0
   36.4940   29.1480   50.3970 N   0  0  0  0  0  0  0  0  0  0  0  0
   37.4440   29.7680   52.1750 H   0  0  0  0  0  0  0  0  0  0  0  0
   38.6850   31.5320   51.0970 H   0  0  0  0  0  0  0  0  0  0  0  0
   35.6940   28.7700   48.3970 H   0  0  0  0  0  0  0  0  0  0  0  0
   39.3630   30.4580   45.1070 C   0  0  0  0  0  0  0  0  0  0  0  0
   39.5000   29.3930   45.3820 H   0  0  0  0  0  0  0  0  0  0  0  0
   38.2960   30.6130   44.7990 H   0  0  0  0  0  0  0  0  0  0  0  0
   40.1720   30.7770   43.8570 C   0  0  0  0  0  0  0  0  0  0  0  0
   41.2430   30.8610   44.0610 H   0  0  0  0  0  0  0  0  0  0  0  0
   39.7820   31.6750   43.3640 H   0  0  0  0  0  0  0  0  0  0  0  0
   39.9110   29.6790   42.9150 N   0  0  0  0  0  0  0  0  0  0  0  0
   39.3790   28.4550   43.0780 C   0  0  0  0  0  0  0  0  0  0  0  0
   39.0540   28.1340   44.0520 H   0  0  0  0  0  0  0  0  0  0  0  0
   39.3580   27.8280   41.8940 N   0  0  0  0  0  0  0  0  0  0  0  0
   39.8760   28.6340   40.9460 C   0  0  0  0  0  0  0  0  0  0  0  0
   40.1130   28.5530   39.5940 C   0  0  0  0  0  0  0  0  0  0  0  0
   39.8570   27.6660   39.0610 H   0  0  0  0  0  0  0  0  0  0  0  0
   40.6670   29.5620   38.8790 N   0  0  0  0  0  0  0  0  0  0  0  0
   40.9920   30.6830   39.5480 C   0  0  0  0  0  0  0  0  0  0  0  0
   41.4360   31.5750   39.1490 H   0  0  0  0  0  0  0  0  0  0  0  0
   40.7760   30.8000   40.8700 N   0  0  0  0  0  0  0  0  0  0  0  0
   40.2260   29.8130   41.6060 C   0  0  0  0  0  0  0  0  0  0  0  0
  1  4  1  6  0  0  0
  1  8  1  0  0  0  0
  2  3  1  0  0  0  0
  2  5  1  0  0  0  0
  2  1  1  0  0  0  0
  3  7  1  1  0  0  0
  3  1  1  0  0  0  0
  6  2  1  0  0  0  0
  8 10  1  0  0  0  0
  8  9  1  0  0  0  0
  8 13  1  0  0  0  0
 11 17  1  0  0  0  0
 12 18  1  0  0  0  0
 12 11  1  0  0  0  0
 13 12  2  0  0  0  0
 14 15  2  0  0  0  0
 14 13  1  0  0  0  0
 15 16  1  0  0  0  0
 16 11  2  0  0  0  0
 19 15  1  0  0  0  0
 20 21  1  0  0  0  0
 20  3  1  0  0  0  0
 22 20  1  0  0  0  0
 23 24  1  0  0  0  0
 23 20  1  0  0  0  0
 25 23  1  0  0  0  0
 26 27  1  0  0  0  0
 26 23  1  0  0  0  0
 27 28  1  0  0  0  0
 29 27  2  0  0  0  0
 30 37  1  0  0  0  0
 30 29  1  0  0  0  0
 31 30  2  0  0  0  0
 32 31  1  0  0  0  0
 33 34  2  0  0  0  0
 33 31  1  0  0  0  0
 34 36  1  0  0  0  0
 35 34  1  0  0  0  0
 36 37  2  0  0  0  0
 37 26  1  0  0  0  0
M  END
>  <minimizedAffinity>
-5.1563406

>  <minimizedRMSD>
0.544283807

$$$$
