
 OpenBabel03262520463D

 37 40  0  0  1  0  0  0  0  0999 V2000
   38.7150   32.2530   46.9270 C   0  0  1  0  0  0  0  0  0  0  0  0
   39.8770   33.0140   46.3120 C   0  0  0  0  0  0  0  0  0  0  0  0
   39.8860   31.5460   46.3760 C   0  0  2  0  0  0  0  0  0  0  0  0
   37.7400   32.2080   46.3870 H   0  0  0  0  0  0  0  0  0  0  0  0
   40.5380   33.6070   46.9680 H   0  0  0  0  0  0  0  0  0  0  0  0
   39.6110   33.4480   45.3060 H   0  0  0  0  0  0  0  0  0  0  0  0
   40.6470   31.1230   47.0960 H   0  0  0  0  0  0  0  0  0  0  0  0
   38.5540   32.4330   48.4200 C   0  0  0  0  0  0  0  0  0  0  0  0
   39.5250   32.5220   48.9230 H   0  0  0  0  0  0  0  0  0  0  0  0
   37.9600   33.3590   48.6100 H   0  0  0  0  0  0  0  0  0  0  0  0
   37.4430   29.9270   50.9680 C   0  0  0  0  0  0  0  0  0  0  0  0
   38.1200   31.0280   50.3360 C   0  0  0  0  0  0  0  0  0  0  0  0
   37.8330   31.2930   49.0210 C   0  0  0  0  0  0  0  0  0  0  0  0
   36.9390   30.5270   48.3710 N   0  0  0  0  0  0  0  0  0  0  0  0
   36.3080   29.4950   48.9740 C   0  0  0  0  0  0  0  0  0  0  0  0
   36.5700   29.2160   50.2490 N   0  0  0  0  0  0  0  0  0  0  0  0
   37.6430   29.6870   52.0020 H   0  0  0  0  0  0  0  0  0  0  0  0
   38.8070   31.5430   50.9950 H   0  0  0  0  0  0  0  0  0  0  0  0
   35.6310   29.0060   48.2850 H   0  0  0  0  0  0  0  0  0  0  0  0
   39.6480   30.6670   45.1930 C   0  0  0  0  0  0  0  0  0  0  0  0
   39.9930   29.6410   45.4310 H   0  0  0  0  0  0  0  0  0  0  0  0
   38.5610   30.6240   44.9200 H   0  0  0  0  0  0  0  0  0  0  0  0
   40.3400   31.1670   43.9320 C   0  0  0  0  0  0  0  0  0  0  0  0
   41.3860   30.8540   43.8770 H   0  0  0  0  0  0  0  0  0  0  0  0
   40.2370   32.2540   43.8400 H   0  0  0  0  0  0  0  0  0  0  0  0
   39.5750   30.6120   42.8050 N   0  0  0  0  0  0  0  0  0  0  0  0
   38.2760   30.6950   42.4650 C   0  0  0  0  0  0  0  0  0  0  0  0
   37.5930   31.2540   43.0800 H   0  0  0  0  0  0  0  0  0  0  0  0
   38.0790   30.0050   41.3330 N   0  0  0  0  0  0  0  0  0  0  0  0
   39.2440   29.4650   40.9230 C   0  0  0  0  0  0  0  0  0  0  0  0
   39.6600   28.6840   39.8700 C   0  0  0  0  0  0  0  0  0  0  0  0
   38.9590   28.3680   39.1320 H   0  0  0  0  0  0  0  0  0  0  0  0
   40.9440   28.2810   39.7120 N   0  0  0  0  0  0  0  0  0  0  0  0
   41.8310   28.6770   40.6410 C   0  0  0  0  0  0  0  0  0  0  0  0
   42.8820   28.4560   40.6780 H   0  0  0  0  0  0  0  0  0  0  0  0
   41.4630   29.4430   41.6840 N   0  0  0  0  0  0  0  0  0  0  0  0
   40.1930   29.8580   41.8670 C   0  0  0  0  0  0  0  0  0  0  0  0
  1  4  1  6  0  0  0
  1  8  1  0  0  0  0
  2  3  1  0  0  0  0
  2  1  1  0  0  0  0
  2  5  1  0  0  0  0
  3  1  1  0  0  0  0
  3  7  1  1  0  0  0
  6  2  1  0  0  0  0
  8 10  1  0  0  0  0
  8  9  1  0  0  0  0
  8 13  1  0  0  0  0
 11 17  1  0  0  0  0
 12 11  1  0  0  0  0
 12 18  1  0  0  0  0
 13 12  2  0  0  0  0
 14 15  2  0  0  0  0
 14 13  1  0  0  0  0
 15 16  1  0  0  0  0
 16 11  2  0  0  0  0
 19 15  1  0  0  0  0
 20 21  1  0  0  0  0
 20  3  1  0  0  0  0
 22 20  1  0  0  0  0
 23 20  1  0  0  0  0
 24 23  1  0  0  0  0
 25 23  1  0  0  0  0
 26 23  1  0  0  0  0
 27 26  1  0  0  0  0
 27 28  1  0  0  0  0
 29 27  2  0  0  0  0
 30 29  1  0  0  0  0
 30 37  1  0  0  0  0
 31 30  2  0  0  0  0
 32 31  1  0  0  0  0
 33 31  1  0  0  0  0
 33 34  2  0  0  0  0
 34 35  1  0  0  0  0
 34 36  1  0  0  0  0
 36 37  2  0  0  0  0
 37 26  1  0  0  0  0
M  END
>  <minimizedAffinity>
-5.23293829

>  <minimizedRMSD>
1.14002776

$$$$
