
 OpenBabel03262520463D

 37 40  0  0  1  0  0  0  0  0999 V2000
   38.6710   32.0990   46.9520 C   0  0  1  0  0  0  0  0  0  0  0  0
   39.7780   32.8870   46.2720 C   0  0  0  0  0  0  0  0  0  0  0  0
   39.8100   31.4190   46.3090 C   0  0  2  0  0  0  0  0  0  0  0  0
   37.6610   32.0510   46.4800 H   0  0  0  0  0  0  0  0  0  0  0  0
   40.4750   33.4780   46.8920 H   0  0  0  0  0  0  0  0  0  0  0  0
   39.4370   33.3350   45.2950 H   0  0  0  0  0  0  0  0  0  0  0  0
   40.6240   30.9940   46.9660 H   0  0  0  0  0  0  0  0  0  0  0  0
   38.6120   32.2510   48.4560 C   0  0  0  0  0  0  0  0  0  0  0  0
   39.6150   32.2620   48.9000 H   0  0  0  0  0  0  0  0  0  0  0  0
   38.0950   33.2100   48.7020 H   0  0  0  0  0  0  0  0  0  0  0  0
   37.3290   29.9010   51.0700 C   0  0  0  0  0  0  0  0  0  0  0  0
   38.0480   30.9630   50.4190 C   0  0  0  0  0  0  0  0  0  0  0  0
   37.8500   31.1470   49.0750 C   0  0  0  0  0  0  0  0  0  0  0  0
   37.0020   30.3410   48.4130 N   0  0  0  0  0  0  0  0  0  0  0  0
   36.3310   29.3440   49.0340 C   0  0  0  0  0  0  0  0  0  0  0  0
   36.5060   29.1450   50.3380 N   0  0  0  0  0  0  0  0  0  0  0  0
   37.4580   29.7250   52.1280 H   0  0  0  0  0  0  0  0  0  0  0  0
   38.6890   31.5200   51.0910 H   0  0  0  0  0  0  0  0  0  0  0  0
   35.7020   28.8120   48.3310 H   0  0  0  0  0  0  0  0  0  0  0  0
   39.5010   30.5580   45.1290 C   0  0  0  0  0  0  0  0  0  0  0  0
   39.5950   29.4940   45.4250 H   0  0  0  0  0  0  0  0  0  0  0  0
   38.4600   30.7320   44.7480 H   0  0  0  0  0  0  0  0  0  0  0  0
   40.3990   30.8430   43.9320 C   0  0  0  0  0  0  0  0  0  0  0  0
   41.4530   30.6460   44.1440 H   0  0  0  0  0  0  0  0  0  0  0  0
   40.2420   31.8650   43.5680 H   0  0  0  0  0  0  0  0  0  0  0  0
   39.9180   29.9720   42.8500 N   0  0  0  0  0  0  0  0  0  0  0  0
   39.6910   28.6480   42.7880 C   0  0  0  0  0  0  0  0  0  0  0  0
   39.8680   28.0310   43.6500 H   0  0  0  0  0  0  0  0  0  0  0  0
   39.2520   28.3400   41.5590 N   0  0  0  0  0  0  0  0  0  0  0  0
   39.1880   29.4560   40.8070 C   0  0  0  0  0  0  0  0  0  0  0  0
   38.8270   29.7650   39.5170 C   0  0  0  0  0  0  0  0  0  0  0  0
   38.4970   28.9960   38.8580 H   0  0  0  0  0  0  0  0  0  0  0  0
   38.8660   31.0260   39.0210 N   0  0  0  0  0  0  0  0  0  0  0  0
   39.2830   31.9990   39.8500 C   0  0  0  0  0  0  0  0  0  0  0  0
   39.3770   33.0470   39.6310 H   0  0  0  0  0  0  0  0  0  0  0  0
   39.6450   31.7360   41.1180 N   0  0  0  0  0  0  0  0  0  0  0  0
   39.6150   30.4930   41.6380 C   0  0  0  0  0  0  0  0  0  0  0  0
  1  4  1  6  0  0  0
  1  8  1  0  0  0  0
  2  3  1  0  0  0  0
  2  5  1  0  0  0  0
  2  1  1  0  0  0  0
  3  1  1  0  0  0  0
  3  7  1  1  0  0  0
  6  2  1  0  0  0  0
  8 10  1  0  0  0  0
  8  9  1  0  0  0  0
  8 13  1  0  0  0  0
 11 17  1  0  0  0  0
 12 11  1  0  0  0  0
 12 18  1  0  0  0  0
 13 12  2  0  0  0  0
 14 15  2  0  0  0  0
 14 13  1  0  0  0  0
 15 16  1  0  0  0  0
 16 11  2  0  0  0  0
 19 15  1  0  0  0  0
 20 21  1  0  0  0  0
 20  3  1  0  0  0  0
 22 20  1  0  0  0  0
 23 24  1  0  0  0  0
 23 20  1  0  0  0  0
 25 23  1  0  0  0  0
 26 23  1  0  0  0  0
 27 26  1  0  0  0  0
 27 28  1  0  0  0  0
 29 27  2  0  0  0  0
 30 29  1  0  0  0  0
 30 37  1  0  0  0  0
 31 30  2  0  0  0  0
 32 31  1  0  0  0  0
 33 31  1  0  0  0  0
 33 34  2  0  0  0  0
 34 36  1  0  0  0  0
 35 34  1  0  0  0  0
 36 37  2  0  0  0  0
 37 26  1  0  0  0  0
M  END
>  <minimizedAffinity>
-5.06377745

>  <minimizedRMSD>
0.188192725

$$$$
