
 OpenBabel03262520463D

 37 40  0  0  1  0  0  0  0  0999 V2000
   38.7320   32.3560   46.7710 C   0  0  1  0  0  0  0  0  0  0  0  0
   39.9550   33.0480   46.1920 C   0  0  0  0  0  0  0  0  0  0  0  0
   39.8780   31.5820   46.2570 C   0  0  2  0  0  0  0  0  0  0  0  0
   37.7730   32.3660   46.2000 H   0  0  0  0  0  0  0  0  0  0  0  0
   40.6270   33.6040   46.8680 H   0  0  0  0  0  0  0  0  0  0  0  0
   39.7450   33.4940   45.1780 H   0  0  0  0  0  0  0  0  0  0  0  0
   40.5900   31.1180   47.0000 H   0  0  0  0  0  0  0  0  0  0  0  0
   38.5350   32.5480   48.2570 C   0  0  0  0  0  0  0  0  0  0  0  0
   39.4930   32.6760   48.7780 H   0  0  0  0  0  0  0  0  0  0  0  0
   37.9070   33.4560   48.4240 H   0  0  0  0  0  0  0  0  0  0  0  0
   37.5360   29.9730   50.7830 C   0  0  0  0  0  0  0  0  0  0  0  0
   38.1850   31.0910   50.1520 C   0  0  0  0  0  0  0  0  0  0  0  0
   37.8410   31.3920   48.8580 C   0  0  0  0  0  0  0  0  0  0  0  0
   36.9190   30.6430   48.2280 N   0  0  0  0  0  0  0  0  0  0  0  0
   36.3150   29.5940   48.8290 C   0  0  0  0  0  0  0  0  0  0  0  0
   36.6320   29.2810   50.0840 N   0  0  0  0  0  0  0  0  0  0  0  0
   37.7800   29.7060   51.8000 H   0  0  0  0  0  0  0  0  0  0  0  0
   38.8990   31.5890   50.7940 H   0  0  0  0  0  0  0  0  0  0  0  0
   35.6090   29.1230   48.1570 H   0  0  0  0  0  0  0  0  0  0  0  0
   39.6270   30.7160   45.0670 C   0  0  0  0  0  0  0  0  0  0  0  0
   39.5770   29.6590   45.3960 H   0  0  0  0  0  0  0  0  0  0  0  0
   38.6620   30.9780   44.5580 H   0  0  0  0  0  0  0  0  0  0  0  0
   40.6850   30.8720   43.9830 C   0  0  0  0  0  0  0  0  0  0  0  0
   41.4690   30.1120   44.0520 H   0  0  0  0  0  0  0  0  0  0  0  0
   41.1020   31.8850   43.9930 H   0  0  0  0  0  0  0  0  0  0  0  0
   39.9720   30.7630   42.7030 N   0  0  0  0  0  0  0  0  0  0  0  0
   39.3990   31.6820   41.9050 C   0  0  0  0  0  0  0  0  0  0  0  0
   39.4190   32.7210   42.1800 H   0  0  0  0  0  0  0  0  0  0  0  0
   38.8730   31.0640   40.8380 N   0  0  0  0  0  0  0  0  0  0  0  0
   39.0960   29.7380   40.9260 C   0  0  0  0  0  0  0  0  0  0  0  0
   38.8090   28.6290   40.1650 C   0  0  0  0  0  0  0  0  0  0  0  0
   38.2750   28.7350   39.2500 H   0  0  0  0  0  0  0  0  0  0  0  0
   39.1760   27.3730   40.5220 N   0  0  0  0  0  0  0  0  0  0  0  0
   39.8500   27.2350   41.6760 C   0  0  0  0  0  0  0  0  0  0  0  0
   40.2170   26.3240   42.1130 H   0  0  0  0  0  0  0  0  0  0  0  0
   40.1500   28.2940   42.4480 N   0  0  0  0  0  0  0  0  0  0  0  0
   39.7990   29.5550   42.1190 C   0  0  0  0  0  0  0  0  0  0  0  0
  1  4  1  6  0  0  0
  1  8  1  0  0  0  0
  2  3  1  0  0  0  0
  2  1  1  0  0  0  0
  2  5  1  0  0  0  0
  3  1  1  0  0  0  0
  3  7  1  1  0  0  0
  6  2  1  0  0  0  0
  8 10  1  0  0  0  0
  8  9  1  0  0  0  0
  8 13  1  0  0  0  0
 11 17  1  0  0  0  0
 12 11  1  0  0  0  0
 12 18  1  0  0  0  0
 13 12  2  0  0  0  0
 14 15  2  0  0  0  0
 14 13  1  0  0  0  0
 15 16  1  0  0  0  0
 16 11  2  0  0  0  0
 19 15  1  0  0  0  0
 20 21  1  0  0  0  0
 20  3  1  0  0  0  0
 22 20  1  0  0  0  0
 23 25  1  0  0  0  0
 23 24  1  0  0  0  0
 23 20  1  0  0  0  0
 26 23  1  0  0  0  0
 27 28  1  0  0  0  0
 27 26  1  0  0  0  0
 29 30  1  0  0  0  0
 29 27  2  0  0  0  0
 30 37  1  0  0  0  0
 31 33  1  0  0  0  0
 31 30  2  0  0  0  0
 32 31  1  0  0  0  0
 33 34  2  0  0  0  0
 34 35  1  0  0  0  0
 34 36  1  0  0  0  0
 37 36  2  0  0  0  0
 37 26  1  0  0  0  0
M  END
>  <minimizedAffinity>
-5.21232128

>  <minimizedRMSD>
1.49948919

$$$$
