
 OpenBabel03262520463D

 37 40  0  0  1  0  0  0  0  0999 V2000
   38.7550   32.3580   46.8380 C   0  0  1  0  0  0  0  0  0  0  0  0
   39.9280   33.0660   46.1800 C   0  0  0  0  0  0  0  0  0  0  0  0
   39.9110   31.6040   46.3180 C   0  0  2  0  0  0  0  0  0  0  0  0
   37.7760   32.3050   46.3040 H   0  0  0  0  0  0  0  0  0  0  0  0
   40.6020   33.6790   46.8030 H   0  0  0  0  0  0  0  0  0  0  0  0
   39.6650   33.4540   45.1550 H   0  0  0  0  0  0  0  0  0  0  0  0
   40.6670   31.2030   47.0550 H   0  0  0  0  0  0  0  0  0  0  0  0
   38.6050   32.6160   48.3200 C   0  0  0  0  0  0  0  0  0  0  0  0
   39.5780   32.6300   48.8280 H   0  0  0  0  0  0  0  0  0  0  0  0
   38.1040   33.6030   48.4660 H   0  0  0  0  0  0  0  0  0  0  0  0
   37.4520   30.0890   50.8290 C   0  0  0  0  0  0  0  0  0  0  0  0
   38.2280   31.1010   50.1630 C   0  0  0  0  0  0  0  0  0  0  0  0
   37.7720   31.5780   48.9610 C   0  0  0  0  0  0  0  0  0  0  0  0
   36.6290   31.0920   48.4470 N   0  0  0  0  0  0  0  0  0  0  0  0
   35.9060   30.1410   49.0800 C   0  0  0  0  0  0  0  0  0  0  0  0
   36.3280   29.6610   50.2480 N   0  0  0  0  0  0  0  0  0  0  0  0
   37.7790   29.6890   51.7770 H   0  0  0  0  0  0  0  0  0  0  0  0
   39.1200   31.3840   50.7080 H   0  0  0  0  0  0  0  0  0  0  0  0
   35.0250   29.8850   48.5050 H   0  0  0  0  0  0  0  0  0  0  0  0
   39.6500   30.6720   45.1810 C   0  0  0  0  0  0  0  0  0  0  0  0
   39.7110   29.6280   45.5500 H   0  0  0  0  0  0  0  0  0  0  0  0
   38.6340   30.8340   44.7350 H   0  0  0  0  0  0  0  0  0  0  0  0
   40.6140   30.8670   44.0180 C   0  0  0  0  0  0  0  0  0  0  0  0
   41.4270   30.1350   44.0210 H   0  0  0  0  0  0  0  0  0  0  0  0
   40.9940   31.8950   44.0010 H   0  0  0  0  0  0  0  0  0  0  0  0
   39.8060   30.7360   42.7970 N   0  0  0  0  0  0  0  0  0  0  0  0
   39.1050   31.6290   42.0760 C   0  0  0  0  0  0  0  0  0  0  0  0
   39.0740   32.6610   42.3790 H   0  0  0  0  0  0  0  0  0  0  0  0
   38.5380   30.9990   41.0370 N   0  0  0  0  0  0  0  0  0  0  0  0
   38.8620   29.6920   41.0680 C   0  0  0  0  0  0  0  0  0  0  0  0
   38.5920   28.5830   40.3010 C   0  0  0  0  0  0  0  0  0  0  0  0
   37.9770   28.6720   39.4350 H   0  0  0  0  0  0  0  0  0  0  0  0
   39.0750   27.3490   40.5890 N   0  0  0  0  0  0  0  0  0  0  0  0
   39.8520   27.2340   41.6810 C   0  0  0  0  0  0  0  0  0  0  0  0
   40.3170   26.3430   42.0590 H   0  0  0  0  0  0  0  0  0  0  0  0
   40.1380   28.2940   42.4560 N   0  0  0  0  0  0  0  0  0  0  0  0
   39.6710   29.5320   42.1940 C   0  0  0  0  0  0  0  0  0  0  0  0
  1  4  1  6  0  0  0
  1  8  1  0  0  0  0
  2  3  1  0  0  0  0
  2  5  1  0  0  0  0
  2  1  1  0  0  0  0
  3  1  1  0  0  0  0
  3  7  1  1  0  0  0
  6  2  1  0  0  0  0
  8 10  1  0  0  0  0
  8  9  1  0  0  0  0
  8 13  1  0  0  0  0
 11 17  1  0  0  0  0
 12 18  1  0  0  0  0
 12 11  2  0  0  0  0
 13 12  1  0  0  0  0
 14 13  2  0  0  0  0
 14 15  1  0  0  0  0
 15 16  2  0  0  0  0
 16 11  1  0  0  0  0
 19 15  1  0  0  0  0
 20 21  1  0  0  0  0
 20  3  1  0  0  0  0
 22 20  1  0  0  0  0
 23 24  1  0  0  0  0
 23 20  1  0  0  0  0
 25 23  1  0  0  0  0
 26 23  1  0  0  0  0
 27 28  1  0  0  0  0
 27 26  1  0  0  0  0
 29 30  1  0  0  0  0
 29 27  2  0  0  0  0
 30 37  1  0  0  0  0
 31 33  1  0  0  0  0
 31 30  2  0  0  0  0
 32 31  1  0  0  0  0
 33 34  2  0  0  0  0
 34 35  1  0  0  0  0
 34 36  1  0  0  0  0
 37 36  2  0  0  0  0
 37 26  1  0  0  0  0
M  END
>  <minimizedAffinity>
-5.16548061

>  <minimizedRMSD>
1.43197167

$$$$
