
 OpenBabel03272508073D

 33 35  0  0  0  0  0  0  0  0999 V2000
   37.4420   26.5470   34.2600 C   0  0  0  0  0  0  0  0  0  0  0  0
   37.4670   26.9290   32.9430 C   0  0  0  0  0  0  0  0  0  0  0  0
   36.7290   28.0840   32.7700 C   0  0  0  0  0  0  0  0  0  0  0  0
   36.2720   28.3630   34.0260 N   0  0  0  0  0  0  0  0  0  0  0  0
   36.6840   27.4740   34.8980 N   0  0  0  0  0  0  0  0  0  0  0  0
   37.9880   26.4110   32.1290 H   0  0  0  0  0  0  0  0  0  0  0  0
   36.5210   28.6740   31.8890 H   0  0  0  0  0  0  0  0  0  0  0  0
   38.0890   25.3890   34.8720 C   0  0  0  0  0  0  0  0  0  0  0  0
   37.8810   25.1820   36.2610 C   0  0  0  0  0  0  0  0  0  0  0  0
   38.4950   24.0810   36.8500 C   0  0  0  0  0  0  0  0  0  0  0  0
   39.2600   23.2710   36.0590 N   0  0  0  0  0  0  0  0  0  0  0  0
   39.4400   23.4950   34.7390 C   0  0  0  0  0  0  0  0  0  0  0  0
   38.8510   24.5570   34.1570 N   0  0  0  0  0  0  0  0  0  0  0  0
   37.2540   25.8720   36.8340 H   0  0  0  0  0  0  0  0  0  0  0  0
   40.0410   22.8510   34.1340 H   0  0  0  0  0  0  0  0  0  0  0  0
   38.2890   23.8430   38.3110 C   0  0  0  0  0  0  0  0  0  0  0  0
   39.4860   23.3540   38.7720 F   0  0  0  0  0  0  0  0  0  0  0  0
   38.0050   25.0140   38.9960 F   0  0  0  0  0  0  0  0  0  0  0  0
   37.2970   22.9040   38.5470 F   0  0  0  0  0  0  0  0  0  0  0  0
   35.4340   29.4820   34.4450 C   0  0  0  0  0  0  0  0  0  0  0  0
   35.9540   30.5310   35.2160 C   0  0  0  0  0  0  0  0  0  0  0  0
   35.1580   31.5630   35.5830 C   0  0  0  0  0  0  0  0  0  0  0  0
   33.7990   31.5570   35.1710 C   0  0  0  0  0  0  0  0  0  0  0  0
   33.6990   29.9650   34.2080 S   0  0  0  0  0  0  0  0  0  0  0  0
   36.9900   30.5800   35.5570 H   0  0  0  0  0  0  0  0  0  0  0  0
   35.3440   32.4510   36.1580 H   0  0  0  0  0  0  0  0  0  0  0  0
   32.6030   32.3980   35.3020 C   0  0  0  0  0  2  0  0  0  0  0  0
   31.9440   32.2870   36.5720 N   0  0  0  0  0  4  0  0  0  0  0  0
   32.6350   31.9640   37.2750 H   0  0  0  0  0  0  0  0  0  0  0  0
   31.3800   33.5790   36.9090 C   0  0  0  0  0  2  0  0  0  0  0  0
   31.4720   33.7630   37.9880 H   0  0  0  0  0  0  0  0  0  0  0  0
   30.8790   31.2990   36.5120 C   0  0  0  0  0  2  0  0  0  0  0  0
   30.7110   30.9170   37.5220 H   0  0  0  0  0  0  0  0  0  0  0  0
  1  8  1  0  0  0  0
  1  5  2  0  0  0  0
  2  1  1  0  0  0  0
  3  2  2  0  0  0  0
  3  4  1  0  0  0  0
  4 20  1  0  0  0  0
  4  5  1  0  0  0  0
  6  2  1  0  0  0  0
  7  3  1  0  0  0  0
  8  9  1  0  0  0  0
  9 14  1  0  0  0  0
  9 10  2  0  0  0  0
 10 16  1  0  0  0  0
 11 10  1  0  0  0  0
 12 11  2  0  0  0  0
 13 12  1  0  0  0  0
 13  8  2  0  0  0  0
 15 12  1  0  0  0  0
 16 19  1  0  0  0  0
 16 17  1  0  0  0  0
 16 18  1  0  0  0  0
 20 21  2  0  0  0  0
 21 25  1  0  0  0  0
 21 22  1  0  0  0  0
 22 26  1  0  0  0  0
 23 27  1  0  0  0  0
 23 22  2  0  0  0  0
 24 20  1  0  0  0  0
 24 23  1  0  0  0  0
 27 28  1  0  0  0  0
 28 30  1  0  0  0  0
 28 29  1  0  0  0  0
 30 31  1  0  0  0  0
 32 28  1  0  0  0  0
 32 33  1  0  0  0  0
M  END
>  <minimizedAffinity>
-5.75531483

$$$$

 OpenBabel03272508073D

 33 35  0  0  0  0  0  0  0  0999 V2000
   37.4530   26.3000   34.2340 C   0  0  0  0  0  0  0  0  0  0  0  0
   37.4750   26.5870   32.8930 C   0  0  0  0  0  0  0  0  0  0  0  0
   36.8210   27.7810   32.6530 C   0  0  0  0  0  0  0  0  0  0  0  0
   36.4180   28.1800   33.8950 N   0  0  0  0  0  0  0  0  0  0  0  0
   36.7830   27.3240   34.8200 N   0  0  0  0  0  0  0  0  0  0  0  0
   37.9350   25.9760   32.1070 H   0  0  0  0  0  0  0  0  0  0  0  0
   36.6360   28.3230   31.7370 H   0  0  0  0  0  0  0  0  0  0  0  0
   38.0270   25.1410   34.9130 C   0  0  0  0  0  0  0  0  0  0  0  0
   37.8920   25.0780   36.3250 C   0  0  0  0  0  0  0  0  0  0  0  0
   38.4360   23.9760   36.9790 C   0  0  0  0  0  0  0  0  0  0  0  0
   39.0660   23.0270   36.2240 N   0  0  0  0  0  0  0  0  0  0  0  0
   39.1780   23.1150   34.8810 C   0  0  0  0  0  0  0  0  0  0  0  0
   38.6560   24.1760   34.2370 N   0  0  0  0  0  0  0  0  0  0  0  0
   37.3740   25.8760   36.8670 H   0  0  0  0  0  0  0  0  0  0  0  0
   39.6740   22.3630   34.3050 H   0  0  0  0  0  0  0  0  0  0  0  0
   38.3060   23.8890   38.4640 C   0  0  0  0  0  0  0  0  0  0  0  0
   37.3440   22.9360   38.6900 F   0  0  0  0  0  0  0  0  0  0  0  0
   39.4820   23.4710   39.0680 F   0  0  0  0  0  0  0  0  0  0  0  0
   37.8900   25.0900   39.0170 F   0  0  0  0  0  0  0  0  0  0  0  0
   35.6770   29.3870   34.2500 C   0  0  0  0  0  0  0  0  0  0  0  0
   34.4400   29.6790   33.6600 C   0  0  0  0  0  0  0  0  0  0  0  0
   33.7660   30.7990   34.0140 C   0  0  0  0  0  0  0  0  0  0  0  0
   34.3390   31.6600   34.9870 C   0  0  0  0  0  0  0  0  0  0  0  0
   35.9290   30.7790   35.3900 S   0  0  0  0  0  0  0  0  0  0  0  0
   33.9600   29.0490   32.9080 H   0  0  0  0  0  0  0  0  0  0  0  0
   32.8250   31.2070   33.6980 H   0  0  0  0  0  0  0  0  0  0  0  0
   34.0180   32.9190   35.6710 C   0  0  0  0  0  2  0  0  0  0  0  0
   33.8440   32.7890   37.0880 N   0  0  0  0  0  4  0  0  0  0  0  0
   34.7470   32.4980   37.5070 H   0  0  0  0  0  0  0  0  0  0  0  0
   33.3790   34.0590   37.6110 C   0  0  0  0  0  2  0  0  0  0  0  0
   33.8300   34.2530   38.5930 H   0  0  0  0  0  0  0  0  0  0  0  0
   32.8640   31.7580   37.3910 C   0  0  0  0  0  2  0  0  0  0  0  0
   33.0710   31.3750   38.3940 H   0  0  0  0  0  0  0  0  0  0  0  0
  1  5  2  0  0  0  0
  1  8  1  0  0  0  0
  2  1  1  0  0  0  0
  3  2  2  0  0  0  0
  3  4  1  0  0  0  0
  4 20  1  0  0  0  0
  4  5  1  0  0  0  0
  6  2  1  0  0  0  0
  7  3  1  0  0  0  0
  8  9  1  0  0  0  0
  9 14  1  0  0  0  0
  9 10  2  0  0  0  0
 10 16  1  0  0  0  0
 11 10  1  0  0  0  0
 12 11  2  0  0  0  0
 13 12  1  0  0  0  0
 13  8  2  0  0  0  0
 15 12  1  0  0  0  0
 16 17  1  0  0  0  0
 16 19  1  0  0  0  0
 16 18  1  0  0  0  0
 20 24  1  0  0  0  0
 21 22  1  0  0  0  0
 21 20  2  0  0  0  0
 22 23  2  0  0  0  0
 23 24  1  0  0  0  0
 23 27  1  0  0  0  0
 25 21  1  0  0  0  0
 26 22  1  0  0  0  0
 27 28  1  0  0  0  0
 28 32  1  0  0  0  0
 28 29  1  0  0  0  0
 28 30  1  0  0  0  0
 30 31  1  0  0  0  0
 32 33  1  0  0  0  0
M  END
>  <minimizedAffinity>
-5.74219227

$$$$

 OpenBabel03272508073D

 33 35  0  0  0  0  0  0  0  0999 V2000
   37.7020   25.1260   33.7870 C   0  0  0  0  0  0  0  0  0  0  0  0
   37.2320   24.7360   32.5590 C   0  0  0  0  0  0  0  0  0  0  0  0
   36.6150   25.8000   31.9280 C   0  0  0  0  0  0  0  0  0  0  0  0
   36.7400   26.8210   32.8260 N   0  0  0  0  0  0  0  0  0  0  0  0
   37.3720   26.4360   33.9100 N   0  0  0  0  0  0  0  0  0  0  0  0
   37.3200   23.7350   32.1210 H   0  0  0  0  0  0  0  0  0  0  0  0
   36.1330   25.8770   30.9640 H   0  0  0  0  0  0  0  0  0  0  0  0
   38.4130   24.3180   34.7740 C   0  0  0  0  0  0  0  0  0  0  0  0
   38.0180   24.4460   36.1320 C   0  0  0  0  0  0  0  0  0  0  0  0
   38.6920   23.6780   37.0780 C   0  0  0  0  0  0  0  0  0  0  0  0
   39.6900   22.8530   36.6430 N   0  0  0  0  0  0  0  0  0  0  0  0
   40.0440   22.7530   35.3430 C   0  0  0  0  0  0  0  0  0  0  0  0
   39.3990   23.4900   34.4180 N   0  0  0  0  0  0  0  0  0  0  0  0
   37.2080   25.1280   36.4090 H   0  0  0  0  0  0  0  0  0  0  0  0
   40.8270   22.1010   35.0190 H   0  0  0  0  0  0  0  0  0  0  0  0
   38.2920   23.7970   38.5120 C   0  0  0  0  0  0  0  0  0  0  0  0
   39.4350   23.5440   39.2300 F   0  0  0  0  0  0  0  0  0  0  0  0
   37.8550   25.0740   38.8280 F   0  0  0  0  0  0  0  0  0  0  0  0
   37.3260   22.8660   38.8580 F   0  0  0  0  0  0  0  0  0  0  0  0
   36.2690   28.1960   32.6890 C   0  0  0  0  0  0  0  0  0  0  0  0
   35.8610   28.9380   33.8050 C   0  0  0  0  0  0  0  0  0  0  0  0
   35.4380   30.2160   33.6530 C   0  0  0  0  0  0  0  0  0  0  0  0
   35.4170   30.7770   32.3480 C   0  0  0  0  0  0  0  0  0  0  0  0
   36.0460   29.3620   31.3140 S   0  0  0  0  0  0  0  0  0  0  0  0
   35.8580   28.5510   34.8260 H   0  0  0  0  0  0  0  0  0  0  0  0
   35.0900   30.9500   34.3540 H   0  0  0  0  0  0  0  0  0  0  0  0
   35.0660   32.0460   31.7000 C   0  0  0  0  0  2  0  0  0  0  0  0
   34.1500   31.9100   30.6040 N   0  0  0  0  0  4  0  0  0  0  0  0
   34.5490   31.2390   29.9210 H   0  0  0  0  0  0  0  0  0  0  0  0
   32.8720   31.4680   31.1260 C   0  0  0  0  0  2  0  0  0  0  0  0
   32.4030   30.7600   30.4310 H   0  0  0  0  0  0  0  0  0  0  0  0
   33.9750   33.1820   29.9220 C   0  0  0  0  0  2  0  0  0  0  0  0
   33.6690   32.9780   28.8920 H   0  0  0  0  0  0  0  0  0  0  0  0
  1  5  2  0  0  0  0
  1  8  1  0  0  0  0
  2  1  1  0  0  0  0
  3  2  2  0  0  0  0
  3  4  1  0  0  0  0
  4  5  1  0  0  0  0
  6  2  1  0  0  0  0
  7  3  1  0  0  0  0
  8  9  1  0  0  0  0
  9 14  1  0  0  0  0
  9 10  2  0  0  0  0
 10 16  1  0  0  0  0
 11 10  1  0  0  0  0
 12 11  2  0  0  0  0
 13  8  2  0  0  0  0
 13 12  1  0  0  0  0
 15 12  1  0  0  0  0
 16 18  1  0  0  0  0
 16 19  1  0  0  0  0
 16 17  1  0  0  0  0
 20  4  1  0  0  0  0
 20 21  2  0  0  0  0
 21 25  1  0  0  0  0
 22 21  1  0  0  0  0
 22 26  1  0  0  0  0
 23 22  2  0  0  0  0
 24 23  1  0  0  0  0
 24 20  1  0  0  0  0
 27 23  1  0  0  0  0
 28 30  1  0  0  0  0
 28 27  1  0  0  0  0
 29 28  1  0  0  0  0
 31 30  1  0  0  0  0
 32 28  1  0  0  0  0
 33 32  1  0  0  0  0
M  END
>  <minimizedAffinity>
-5.61681461

$$$$

 OpenBabel03272508073D

 33 35  0  0  0  0  0  0  0  0999 V2000
   37.9780   25.2330   34.9740 C   0  0  0  0  0  0  0  0  0  0  0  0
   38.1720   24.9450   33.6470 C   0  0  0  0  0  0  0  0  0  0  0  0
   37.5970   25.9260   32.8610 C   0  0  0  0  0  0  0  0  0  0  0  0
   37.0620   26.7930   33.7700 N   0  0  0  0  0  0  0  0  0  0  0  0
   37.2800   26.3960   35.0020 N   0  0  0  0  0  0  0  0  0  0  0  0
   38.7010   24.0730   33.2440 H   0  0  0  0  0  0  0  0  0  0  0  0
   37.5450   26.0420   31.7880 H   0  0  0  0  0  0  0  0  0  0  0  0
   38.4210   24.4630   36.1330 C   0  0  0  0  0  0  0  0  0  0  0  0
   39.6230   23.7170   36.0020 C   0  0  0  0  0  0  0  0  0  0  0  0
   40.0520   22.9810   37.1030 C   0  0  0  0  0  0  0  0  0  0  0  0
   39.2920   23.0200   38.2380 N   0  0  0  0  0  0  0  0  0  0  0  0
   38.1530   23.7400   38.3320 C   0  0  0  0  0  0  0  0  0  0  0  0
   37.7280   24.4560   37.2740 N   0  0  0  0  0  0  0  0  0  0  0  0
   40.1810   23.7310   35.0600 H   0  0  0  0  0  0  0  0  0  0  0  0
   37.5700   23.7600   39.2290 H   0  0  0  0  0  0  0  0  0  0  0  0
   41.3130   22.1890   36.9860 C   0  0  0  0  0  0  0  0  0  0  0  0
   41.2150   21.5230   35.7890 F   0  0  0  0  0  0  0  0  0  0  0  0
   42.4370   22.9990   36.9430 F   0  0  0  0  0  0  0  0  0  0  0  0
   41.4370   21.2610   38.0090 F   0  0  0  0  0  0  0  0  0  0  0  0
   36.3290   28.0270   33.5050 C   0  0  0  0  0  0  0  0  0  0  0  0
   36.0940   28.9640   34.5210 C   0  0  0  0  0  0  0  0  0  0  0  0
   35.4210   30.1070   34.2480 C   0  0  0  0  0  0  0  0  0  0  0  0
   34.9620   30.3280   32.9210 C   0  0  0  0  0  0  0  0  0  0  0  0
   35.5500   28.7900   32.0520 S   0  0  0  0  0  0  0  0  0  0  0  0
   36.4250   28.8390   35.5530 H   0  0  0  0  0  0  0  0  0  0  0  0
   35.1380   30.9430   34.8580 H   0  0  0  0  0  0  0  0  0  0  0  0
   34.2310   31.3500   32.1640 C   0  0  0  0  0  2  0  0  0  0  0  0
   33.0340   30.8700   31.5360 N   0  0  0  0  0  4  0  0  0  0  0  0
   33.2810   30.0790   30.9140 H   0  0  0  0  0  0  0  0  0  0  0  0
   32.0970   30.4830   32.5730 C   0  0  0  0  0  2  0  0  0  0  0  0
   31.5410   29.5870   32.2660 H   0  0  0  0  0  0  0  0  0  0  0  0
   32.4350   31.9090   30.7130 C   0  0  0  0  0  2  0  0  0  0  0  0
   31.8370   31.4250   29.9360 H   0  0  0  0  0  0  0  0  0  0  0  0
  1  5  2  0  0  0  0
  1  8  1  0  0  0  0
  2  1  1  0  0  0  0
  3  2  2  0  0  0  0
  3  4  1  0  0  0  0
  4  5  1  0  0  0  0
  6  2  1  0  0  0  0
  7  3  1  0  0  0  0
  8 13  1  0  0  0  0
  9  8  2  0  0  0  0
  9 10  1  0  0  0  0
 10 11  2  0  0  0  0
 11 12  1  0  0  0  0
 12 15  1  0  0  0  0
 13 12  2  0  0  0  0
 14  9  1  0  0  0  0
 16 10  1  0  0  0  0
 16 19  1  0  0  0  0
 17 16  1  0  0  0  0
 18 16  1  0  0  0  0
 20  4  1  0  0  0  0
 20 21  2  0  0  0  0
 21 25  1  0  0  0  0
 22 21  1  0  0  0  0
 22 26  1  0  0  0  0
 23 22  2  0  0  0  0
 24 23  1  0  0  0  0
 24 20  1  0  0  0  0
 27 23  1  0  0  0  0
 28 27  1  0  0  0  0
 28 30  1  0  0  0  0
 29 28  1  0  0  0  0
 31 30  1  0  0  0  0
 32 28  1  0  0  0  0
 33 32  1  0  0  0  0
M  END
>  <minimizedAffinity>
-5.41902065

$$$$

 OpenBabel03272508073D

 33 35  0  0  0  0  0  0  0  0999 V2000
   37.7320   25.9510   34.1110 C   0  0  0  0  0  0  0  0  0  0  0  0
   36.9590   27.0070   34.5210 C   0  0  0  0  0  0  0  0  0  0  0  0
   36.8830   27.9560   33.5200 C   0  0  0  0  0  0  0  0  0  0  0  0
   37.6350   27.4210   32.5130 N   0  0  0  0  0  0  0  0  0  0  0  0
   38.1310   26.2540   32.8500 N   0  0  0  0  0  0  0  0  0  0  0  0
   36.4660   27.1080   35.4950 H   0  0  0  0  0  0  0  0  0  0  0  0
   36.3740   28.9090   33.4750 H   0  0  0  0  0  0  0  0  0  0  0  0
   38.0680   24.7420   34.8570 C   0  0  0  0  0  0  0  0  0  0  0  0
   38.0040   24.8080   36.2740 C   0  0  0  0  0  0  0  0  0  0  0  0
   38.3220   23.6590   36.9920 C   0  0  0  0  0  0  0  0  0  0  0  0
   38.6770   22.5410   36.2900 N   0  0  0  0  0  0  0  0  0  0  0  0
   38.7290   22.5090   34.9410 C   0  0  0  0  0  0  0  0  0  0  0  0
   38.4230   23.6140   34.2360 N   0  0  0  0  0  0  0  0  0  0  0  0
   37.7110   25.7390   36.7700 H   0  0  0  0  0  0  0  0  0  0  0  0
   39.0090   21.6250   34.4080 H   0  0  0  0  0  0  0  0  0  0  0  0
   38.2620   23.7070   38.4830 C   0  0  0  0  0  0  0  0  0  0  0  0
   39.5300   23.4000   38.9090 F   0  0  0  0  0  0  0  0  0  0  0  0
   37.9390   24.9710   38.9530 F   0  0  0  0  0  0  0  0  0  0  0  0
   37.3760   22.7710   38.9950 F   0  0  0  0  0  0  0  0  0  0  0  0
   37.9070   27.9930   31.1980 C   0  0  0  0  0  0  0  0  0  0  0  0
   36.9710   28.8170   30.5570 C   0  0  0  0  0  0  0  0  0  0  0  0
   37.2520   29.3450   29.3420 C   0  0  0  0  0  0  0  0  0  0  0  0
   38.5030   29.0460   28.7400 C   0  0  0  0  0  0  0  0  0  0  0  0
   39.2890   27.9450   30.0210 S   0  0  0  0  0  0  0  0  0  0  0  0
   35.9970   29.0740   30.9780 H   0  0  0  0  0  0  0  0  0  0  0  0
   36.6950   29.9880   28.6870 H   0  0  0  0  0  0  0  0  0  0  0  0
   39.2370   29.3580   27.5080 C   0  0  0  0  0  2  0  0  0  0  0  0
   40.4760   28.6490   27.3680 N   0  0  0  0  0  4  0  0  0  0  0  0
   40.6870   28.1720   28.2640 H   0  0  0  0  0  0  0  0  0  0  0  0
   40.3490   27.7170   26.2650 C   0  0  0  0  0  2  0  0  0  0  0  0
   40.8800   26.7840   26.4940 H   0  0  0  0  0  0  0  0  0  0  0  0
   41.5660   29.5720   27.0940 C   0  0  0  0  0  2  0  0  0  0  0  0
   42.4980   29.1090   27.4290 H   0  0  0  0  0  0  0  0  0  0  0  0
  1  2  1  0  0  0  0
  1  8  1  0  0  0  0
  2  6  1  0  0  0  0
  3  2  2  0  0  0  0
  4  5  1  0  0  0  0
  4  3  1  0  0  0  0
  5  1  2  0  0  0  0
  7  3  1  0  0  0  0
  8  9  1  0  0  0  0
  9 14  1  0  0  0  0
  9 10  2  0  0  0  0
 10 16  1  0  0  0  0
 11 10  1  0  0  0  0
 12 11  2  0  0  0  0
 13  8  2  0  0  0  0
 13 12  1  0  0  0  0
 15 12  1  0  0  0  0
 16 17  1  0  0  0  0
 16 18  1  0  0  0  0
 16 19  1  0  0  0  0
 20  4  1  0  0  0  0
 21 25  1  0  0  0  0
 21 20  2  0  0  0  0
 22 21  1  0  0  0  0
 23 22  2  0  0  0  0
 23 24  1  0  0  0  0
 24 20  1  0  0  0  0
 26 22  1  0  0  0  0
 27 23  1  0  0  0  0
 28 27  1  0  0  0  0
 28 29  1  0  0  0  0
 30 31  1  0  0  0  0
 30 28  1  0  0  0  0
 32 28  1  0  0  0  0
 32 33  1  0  0  0  0
M  END
>  <minimizedAffinity>
-5.40929508

$$$$

 OpenBabel03272508073D

 33 35  0  0  0  0  0  0  0  0999 V2000
   37.8600   25.4090   33.7530 C   0  0  0  0  0  0  0  0  0  0  0  0
   38.0220   25.4660   32.3920 C   0  0  0  0  0  0  0  0  0  0  0  0
   37.4660   26.6310   31.8970 C   0  0  0  0  0  0  0  0  0  0  0  0
   36.9770   27.2510   33.0110 N   0  0  0  0  0  0  0  0  0  0  0  0
   37.2030   26.5470   34.0940 N   0  0  0  0  0  0  0  0  0  0  0  0
   38.5130   24.7110   31.7670 H   0  0  0  0  0  0  0  0  0  0  0  0
   37.3990   27.0190   30.8910 H   0  0  0  0  0  0  0  0  0  0  0  0
   38.2980   24.3560   34.6660 C   0  0  0  0  0  0  0  0  0  0  0  0
   38.0570   24.5510   36.0520 C   0  0  0  0  0  0  0  0  0  0  0  0
   38.4710   23.5510   36.9270 C   0  0  0  0  0  0  0  0  0  0  0  0
   39.0840   22.4490   36.4010 N   0  0  0  0  0  0  0  0  0  0  0  0
   39.2990   22.2920   35.0770 C   0  0  0  0  0  0  0  0  0  0  0  0
   38.9020   23.2520   34.2200 N   0  0  0  0  0  0  0  0  0  0  0  0
   37.5610   25.4610   36.4040 H   0  0  0  0  0  0  0  0  0  0  0  0
   39.7790   21.4230   34.6810 H   0  0  0  0  0  0  0  0  0  0  0  0
   38.2280   23.7350   38.3900 C   0  0  0  0  0  0  0  0  0  0  0  0
   39.4310   23.4660   38.9950 F   0  0  0  0  0  0  0  0  0  0  0  0
   37.8670   25.0370   38.7000 F   0  0  0  0  0  0  0  0  0  0  0  0
   37.2740   22.8520   38.8700 F   0  0  0  0  0  0  0  0  0  0  0  0
   36.2820   28.5320   33.0890 C   0  0  0  0  0  0  0  0  0  0  0  0
   36.0500   29.3040   31.9420 C   0  0  0  0  0  0  0  0  0  0  0  0
   35.3930   30.4840   32.0380 C   0  0  0  0  0  0  0  0  0  0  0  0
   34.9490   30.9150   33.3170 C   0  0  0  0  0  0  0  0  0  0  0  0
   35.5280   29.5230   34.4110 S   0  0  0  0  0  0  0  0  0  0  0  0
   36.3720   29.0160   30.9390 H   0  0  0  0  0  0  0  0  0  0  0  0
   35.1130   31.2170   31.3070 H   0  0  0  0  0  0  0  0  0  0  0  0
   34.2320   32.0490   33.9100 C   0  0  0  0  0  2  0  0  0  0  0  0
   34.3840   32.1600   35.3320 N   0  0  0  0  0  4  0  0  0  0  0  0
   34.8010   31.2810   35.6900 H   0  0  0  0  0  0  0  0  0  0  0  0
   35.2120   33.3160   35.6160 C   0  0  0  0  0  2  0  0  0  0  0  0
   35.8740   33.1090   36.4670 H   0  0  0  0  0  0  0  0  0  0  0  0
   33.0910   32.3280   35.9750 C   0  0  0  0  0  2  0  0  0  0  0  0
   33.1710   31.9680   37.0040 H   0  0  0  0  0  0  0  0  0  0  0  0
  1  5  2  0  0  0  0
  1  8  1  0  0  0  0
  2  1  1  0  0  0  0
  3  2  2  0  0  0  0
  3  4  1  0  0  0  0
  4 20  1  0  0  0  0
  4  5  1  0  0  0  0
  6  2  1  0  0  0  0
  7  3  1  0  0  0  0
  8  9  1  0  0  0  0
  9 14  1  0  0  0  0
  9 10  2  0  0  0  0
 10 16  1  0  0  0  0
 11 10  1  0  0  0  0
 12 11  2  0  0  0  0
 13  8  2  0  0  0  0
 13 12  1  0  0  0  0
 15 12  1  0  0  0  0
 16 18  1  0  0  0  0
 16 19  1  0  0  0  0
 16 17  1  0  0  0  0
 20 24  1  0  0  0  0
 21 22  1  0  0  0  0
 21 20  2  0  0  0  0
 22 23  2  0  0  0  0
 23 27  1  0  0  0  0
 23 24  1  0  0  0  0
 25 21  1  0  0  0  0
 26 22  1  0  0  0  0
 27 28  1  0  0  0  0
 28 30  1  0  0  0  0
 28 29  1  0  0  0  0
 28 32  1  0  0  0  0
 30 31  1  0  0  0  0
 32 33  1  0  0  0  0
M  END
>  <minimizedAffinity>
-5.34420538

$$$$

 OpenBabel03272508073D

 33 35  0  0  0  0  0  0  0  0999 V2000
   35.4940   29.4930   31.9020 C   0  0  0  0  0  0  0  0  0  0  0  0
   36.2320   29.6800   30.7610 C   0  0  0  0  0  0  0  0  0  0  0  0
   36.6480   28.4610   30.2610 C   0  0  0  0  0  0  0  0  0  0  0  0
   36.1300   27.5580   31.1450 N   0  0  0  0  0  0  0  0  0  0  0  0
   35.4570   28.1520   32.1020 N   0  0  0  0  0  0  0  0  0  0  0  0
   36.4710   30.6440   30.2960 H   0  0  0  0  0  0  0  0  0  0  0  0
   37.2390   28.2090   29.3920 H   0  0  0  0  0  0  0  0  0  0  0  0
   34.8670   30.5100   32.7420 C   0  0  0  0  0  0  0  0  0  0  0  0
   35.4800   30.7960   33.9910 C   0  0  0  0  0  0  0  0  0  0  0  0
   34.8880   31.7640   34.7970 C   0  0  0  0  0  0  0  0  0  0  0  0
   33.7560   32.3770   34.3390 N   0  0  0  0  0  0  0  0  0  0  0  0
   33.1960   32.0840   33.1450 C   0  0  0  0  0  0  0  0  0  0  0  0
   33.7590   31.1490   32.3570 N   0  0  0  0  0  0  0  0  0  0  0  0
   36.3880   30.2650   34.2950 H   0  0  0  0  0  0  0  0  0  0  0  0
   32.3100   32.5740   32.8010 H   0  0  0  0  0  0  0  0  0  0  0  0
   35.5160   32.0800   36.1140 C   0  0  0  0  0  0  0  0  0  0  0  0
   36.6440   31.2990   36.1770 F   0  0  0  0  0  0  0  0  0  0  0  0
   35.9030   33.4080   36.2040 F   0  0  0  0  0  0  0  0  0  0  0  0
   34.6840   31.7560   37.1750 F   0  0  0  0  0  0  0  0  0  0  0  0
   36.2510   26.1040   31.1130 C   0  0  0  0  0  0  0  0  0  0  0  0
   37.5050   25.4810   31.0430 C   0  0  0  0  0  0  0  0  0  0  0  0
   37.5930   24.1300   31.0260 C   0  0  0  0  0  0  0  0  0  0  0  0
   36.3950   23.3690   31.0800 C   0  0  0  0  0  0  0  0  0  0  0  0
   35.0970   24.7020   31.1580 S   0  0  0  0  0  0  0  0  0  0  0  0
   38.4520   26.0230   30.9990 H   0  0  0  0  0  0  0  0  0  0  0  0
   38.4300   23.4610   30.9780 H   0  0  0  0  0  0  0  0  0  0  0  0
   35.9840   21.9600   31.0900 C   0  0  0  0  0  2  0  0  0  0  0  0
   35.4490   21.5150   32.3440 N   0  0  0  0  0  4  0  0  0  0  0  0
   34.8370   22.2600   32.7260 H   0  0  0  0  0  0  0  0  0  0  0  0
   34.7310   20.2750   32.1220 C   0  0  0  0  0  2  0  0  0  0  0  0
   33.8330   20.2380   32.7520 H   0  0  0  0  0  0  0  0  0  0  0  0
   36.5160   21.2850   33.3050 C   0  0  0  0  0  2  0  0  0  0  0  0
   36.1000   21.3920   34.3090 H   0  0  0  0  0  0  0  0  0  0  0  0
  1  5  2  0  0  0  0
  1  8  1  0  0  0  0
  2  1  1  0  0  0  0
  3  2  2  0  0  0  0
  3  4  1  0  0  0  0
  4  5  1  0  0  0  0
  6  2  1  0  0  0  0
  7  3  1  0  0  0  0
  8  9  1  0  0  0  0
  9 14  1  0  0  0  0
  9 10  2  0  0  0  0
 10 16  1  0  0  0  0
 11 10  1  0  0  0  0
 12 11  2  0  0  0  0
 13  8  2  0  0  0  0
 13 12  1  0  0  0  0
 15 12  1  0  0  0  0
 16 17  1  0  0  0  0
 16 18  1  0  0  0  0
 16 19  1  0  0  0  0
 20  4  1  0  0  0  0
 20 24  1  0  0  0  0
 21 20  2  0  0  0  0
 22 21  1  0  0  0  0
 22 23  2  0  0  0  0
 23 27  1  0  0  0  0
 23 24  1  0  0  0  0
 25 21  1  0  0  0  0
 26 22  1  0  0  0  0
 27 28  1  0  0  0  0
 28 29  1  0  0  0  0
 28 32  1  0  0  0  0
 30 28  1  0  0  0  0
 30 31  1  0  0  0  0
 32 33  1  0  0  0  0
M  END
>  <minimizedAffinity>
-5.34316492

$$$$

 OpenBabel03272508073D

 33 35  0  0  0  0  0  0  0  0999 V2000
   37.9780   24.9810   34.8420 C   0  0  0  0  0  0  0  0  0  0  0  0
   37.9050   24.4930   33.5620 C   0  0  0  0  0  0  0  0  0  0  0  0
   37.4070   25.4640   32.7130 C   0  0  0  0  0  0  0  0  0  0  0  0
   37.1940   26.5320   33.5360 N   0  0  0  0  0  0  0  0  0  0  0  0
   37.5240   26.2580   34.7760 N   0  0  0  0  0  0  0  0  0  0  0  0
   38.1900   23.4870   33.2360 H   0  0  0  0  0  0  0  0  0  0  0  0
   37.2090   25.4500   31.6500 H   0  0  0  0  0  0  0  0  0  0  0  0
   38.4470   24.2900   36.0400 C   0  0  0  0  0  0  0  0  0  0  0  0
   39.6490   23.5410   35.9350 C   0  0  0  0  0  0  0  0  0  0  0  0
   40.1010   22.8800   37.0730 C   0  0  0  0  0  0  0  0  0  0  0  0
   39.3620   22.9910   38.2170 N   0  0  0  0  0  0  0  0  0  0  0  0
   38.2220   23.7110   38.2860 C   0  0  0  0  0  0  0  0  0  0  0  0
   37.7740   24.3560   37.1920 N   0  0  0  0  0  0  0  0  0  0  0  0
   40.1900   23.4960   34.9840 H   0  0  0  0  0  0  0  0  0  0  0  0
   37.6560   23.7880   39.1900 H   0  0  0  0  0  0  0  0  0  0  0  0
   41.3630   22.0860   36.9850 C   0  0  0  0  0  0  0  0  0  0  0  0
   42.3780   23.0080   37.0410 F   0  0  0  0  0  0  0  0  0  0  0  0
   41.5080   21.2140   38.0530 F   0  0  0  0  0  0  0  0  0  0  0  0
   41.4530   21.3890   35.7900 F   0  0  0  0  0  0  0  0  0  0  0  0
   36.6720   27.8470   33.1790 C   0  0  0  0  0  0  0  0  0  0  0  0
   36.8910   28.3940   31.9070 C   0  0  0  0  0  0  0  0  0  0  0  0
   36.3880   29.6120   31.5950 C   0  0  0  0  0  0  0  0  0  0  0  0
   35.6400   30.3130   32.5790 C   0  0  0  0  0  0  0  0  0  0  0  0
   35.6880   29.1250   34.0130 S   0  0  0  0  0  0  0  0  0  0  0  0
   37.4590   27.8950   31.1190 H   0  0  0  0  0  0  0  0  0  0  0  0
   36.4320   30.2060   30.7030 H   0  0  0  0  0  0  0  0  0  0  0  0
   34.9260   31.5870   32.7210 C   0  0  0  0  0  2  0  0  0  0  0  0
   35.3910   32.4030   33.8050 N   0  0  0  0  0  4  0  0  0  0  0  0
   35.6350   31.7850   34.6020 H   0  0  0  0  0  0  0  0  0  0  0  0
   36.5250   33.1780   33.3420 C   0  0  0  0  0  2  0  0  0  0  0  0
   37.2740   33.2690   34.1400 H   0  0  0  0  0  0  0  0  0  0  0  0
   34.3430   33.3060   34.2520 C   0  0  0  0  0  2  0  0  0  0  0  0
   34.5400   33.5670   35.2960 H   0  0  0  0  0  0  0  0  0  0  0  0
  1  8  1  0  0  0  0
  2  1  1  0  0  0  0
  3  4  1  0  0  0  0
  3  2  2  0  0  0  0
  4  5  1  0  0  0  0
  5  1  2  0  0  0  0
  6  2  1  0  0  0  0
  7  3  1  0  0  0  0
  8 13  1  0  0  0  0
  9  8  2  0  0  0  0
  9 10  1  0  0  0  0
 10 11  2  0  0  0  0
 11 12  1  0  0  0  0
 12 15  1  0  0  0  0
 13 12  2  0  0  0  0
 14  9  1  0  0  0  0
 16 17  1  0  0  0  0
 16 10  1  0  0  0  0
 16 18  1  0  0  0  0
 19 16  1  0  0  0  0
 20  4  1  0  0  0  0
 20 24  1  0  0  0  0
 21 20  2  0  0  0  0
 22 21  1  0  0  0  0
 22 23  2  0  0  0  0
 23 27  1  0  0  0  0
 23 24  1  0  0  0  0
 25 21  1  0  0  0  0
 26 22  1  0  0  0  0
 27 28  1  0  0  0  0
 28 32  1  0  0  0  0
 28 29  1  0  0  0  0
 30 28  1  0  0  0  0
 30 31  1  0  0  0  0
 32 33  1  0  0  0  0
M  END
>  <minimizedAffinity>
-5.27366686

$$$$

 OpenBabel03272508073D

 33 35  0  0  0  0  0  0  0  0999 V2000
   36.1830   28.3930   33.7470 C   0  0  0  0  0  0  0  0  0  0  0  0
   36.7730   28.1210   32.5380 C   0  0  0  0  0  0  0  0  0  0  0  0
   37.6070   27.0250   32.6530 C   0  0  0  0  0  0  0  0  0  0  0  0
   37.4860   26.6670   33.9650 N   0  0  0  0  0  0  0  0  0  0  0  0
   36.6590   27.4580   34.6070 N   0  0  0  0  0  0  0  0  0  0  0  0
   36.6210   28.6760   31.6050 H   0  0  0  0  0  0  0  0  0  0  0  0
   38.2310   26.5230   31.9280 H   0  0  0  0  0  0  0  0  0  0  0  0
   35.2370   29.4590   34.0640 C   0  0  0  0  0  0  0  0  0  0  0  0
   35.6890   30.5020   34.9150 C   0  0  0  0  0  0  0  0  0  0  0  0
   34.7920   31.5210   35.2220 C   0  0  0  0  0  0  0  0  0  0  0  0
   33.5360   31.4550   34.6880 N   0  0  0  0  0  0  0  0  0  0  0  0
   33.1350   30.4490   33.8810 C   0  0  0  0  0  0  0  0  0  0  0  0
   33.9940   29.4560   33.5770 N   0  0  0  0  0  0  0  0  0  0  0  0
   36.7110   30.4910   35.3070 H   0  0  0  0  0  0  0  0  0  0  0  0
   32.1480   30.4120   33.4720 H   0  0  0  0  0  0  0  0  0  0  0  0
   35.2460   32.6290   36.1150 C   0  0  0  0  0  0  0  0  0  0  0  0
   34.4690   33.7100   35.7790 F   0  0  0  0  0  0  0  0  0  0  0  0
   35.0340   32.3410   37.4540 F   0  0  0  0  0  0  0  0  0  0  0  0
   36.5790   32.9490   35.9050 F   0  0  0  0  0  0  0  0  0  0  0  0
   38.1470   25.5640   34.6560 C   0  0  0  0  0  0  0  0  0  0  0  0
   37.9330   25.3290   36.0210 C   0  0  0  0  0  0  0  0  0  0  0  0
   38.5480   24.2920   36.6370 C   0  0  0  0  0  0  0  0  0  0  0  0
   39.4080   23.4580   35.8730 C   0  0  0  0  0  0  0  0  0  0  0  0
   39.2980   24.2390   34.1860 S   0  0  0  0  0  0  0  0  0  0  0  0
   37.2830   25.9420   36.6490 H   0  0  0  0  0  0  0  0  0  0  0  0
   38.5270   23.9370   37.6490 H   0  0  0  0  0  0  0  0  0  0  0  0
   40.2540   22.2750   36.0670 C   0  0  0  0  0  2  0  0  0  0  0  0
   41.3270   22.4680   36.9990 N   0  0  0  0  0  4  0  0  0  0  0  0
   40.9650   22.9970   37.8140 H   0  0  0  0  0  0  0  0  0  0  0  0
   41.8480   21.1680   37.3750 C   0  0  0  0  0  2  0  0  0  0  0  0
   42.1260   21.1630   38.4370 H   0  0  0  0  0  0  0  0  0  0  0  0
   42.3920   23.2560   36.3990 C   0  0  0  0  0  2  0  0  0  0  0  0
   42.9430   23.7520   37.2010 H   0  0  0  0  0  0  0  0  0  0  0  0
  1  8  1  0  0  0  0
  1  5  2  0  0  0  0
  2  3  2  0  0  0  0
  2  1  1  0  0  0  0
  3  4  1  0  0  0  0
  4  5  1  0  0  0  0
  4 20  1  0  0  0  0
  6  2  1  0  0  0  0
  7  3  1  0  0  0  0
  8  9  1  0  0  0  0
  9 10  2  0  0  0  0
  9 14  1  0  0  0  0
 10 16  1  0  0  0  0
 11 10  1  0  0  0  0
 12 11  2  0  0  0  0
 13 12  1  0  0  0  0
 13  8  2  0  0  0  0
 15 12  1  0  0  0  0
 16 18  1  0  0  0  0
 17 16  1  0  0  0  0
 19 16  1  0  0  0  0
 20 21  2  0  0  0  0
 21 22  1  0  0  0  0
 21 25  1  0  0  0  0
 22 26  1  0  0  0  0
 23 27  1  0  0  0  0
 23 22  2  0  0  0  0
 24 20  1  0  0  0  0
 24 23  1  0  0  0  0
 27 28  1  0  0  0  0
 28 30  1  0  0  0  0
 28 29  1  0  0  0  0
 30 31  1  0  0  0  0
 32 28  1  0  0  0  0
 32 33  1  0  0  0  0
M  END
>  <minimizedAffinity>
-5.27016592

$$$$
