
 OpenBabel03262523323D

 38 41  0  0  1  0  0  0  0  0999 V2000
   35.1610   28.8840   50.1730 C   0  0  0  0  0  0  0  0  0  0  0  0
   36.0750   29.6210   49.4440 C   0  0  0  0  0  0  0  0  0  0  0  0
   35.7990   29.9140   48.1010 C   0  0  0  0  0  0  0  0  0  0  0  0
   34.6220   29.4490   47.5700 N   0  0  0  0  0  0  0  0  0  0  0  0
   33.7650   28.7350   48.3240 C   0  0  0  0  0  0  0  0  0  0  0  0
   34.0060   28.4460   49.5970 N   0  0  0  0  0  0  0  0  0  0  0  0
   35.3260   28.6300   51.2160 H   0  0  0  0  0  0  0  0  0  0  0  0
   36.9890   29.9710   49.8920 H   0  0  0  0  0  0  0  0  0  0  0  0
   36.5180   30.5250   45.8820 C   0  0  0  0  0  0  0  0  0  0  0  0
   36.6920   30.6780   47.2680 C   0  0  0  0  0  0  0  0  0  0  0  0
   37.6710   31.5190   47.7220 C   0  0  0  0  0  0  0  0  0  0  0  0
   38.4630   32.1980   46.8300 C   0  0  0  0  0  0  0  0  0  0  0  0
   39.4680   33.0620   47.0650 N   0  0  0  0  0  0  0  0  0  0  0  0
   39.9340   33.4600   45.8730 C   0  0  0  0  0  0  0  0  0  0  0  0
   39.2510   32.8720   44.8850 N   0  0  0  0  0  0  0  0  0  0  0  0
   38.3240   32.0760   45.4590 C   0  0  0  0  0  0  0  0  0  0  0  0
   37.3380   31.2290   44.9960 C   0  0  0  0  0  0  0  0  0  0  0  0
   35.7760   29.8880   45.4030 H   0  0  0  0  0  0  0  0  0  0  0  0
   37.8070   31.6380   48.7840 H   0  0  0  0  0  0  0  0  0  0  0  0
   39.8120   33.3600   48.0260 H   0  0  0  0  0  0  0  0  0  0  0  0
   40.7570   34.1690   45.8000 H   0  0  0  0  0  0  0  0  0  0  0  0
   37.2530   31.1530   43.9220 H   0  0  0  0  0  0  0  0  0  0  0  0
   32.5330   28.2820   47.6920 C   0  0  0  0  0  0  0  0  0  0  0  0
   32.1560   28.6720   46.5600 O   0  0  0  0  0  0  0  0  0  0  0  0
   31.6600   27.2940   48.4340 C   0  0  1  0  0  0  0  0  0  0  0  0
   30.7770   27.9280   49.5230 C   0  0  0  0  0  0  0  0  0  0  0  0
   30.2130   27.3300   48.2910 C   0  0  1  0  0  0  0  0  0  0  0  0
   32.2100   26.4080   48.8450 H   0  0  0  0  0  0  0  0  0  0  0  0
   30.8170   29.0320   49.6290 H   0  0  0  0  0  0  0  0  0  0  0  0
   30.7080   27.4220   50.5030 H   0  0  0  0  0  0  0  0  0  0  0  0
   29.7120   26.3360   48.5020 H   0  0  0  0  0  0  0  0  0  0  0  0
   29.4630   28.1200   47.2840 C   0  0  0  0  0  0  0  0  0  0  0  0
   28.0080   28.0160   47.5040 N   0  0  0  0  0  0  0  0  0  0  0  0
   27.5610   28.1220   46.5450 H   0  0  0  0  0  0  0  0  0  0  0  0
   27.4890   29.0550   48.3350 C   0  0  0  0  0  0  0  0  0  0  0  0
   26.3910   29.1360   48.1010 H   0  0  0  0  0  0  0  0  0  0  0  0
   27.6800   26.6900   47.9730 C   0  0  0  0  0  0  0  0  0  0  0  0
   28.5070   25.9700   47.7490 H   0  0  0  0  0  0  0  0  0  0  0  0
  1  7  1  0  0  0  0
  2  8  1  0  0  0  0
  2  1  2  0  0  0  0
  3  2  1  0  0  0  0
  4  3  2  0  0  0  0
  4  5  1  0  0  0  0
  5  6  2  0  0  0  0
  6  1  1  0  0  0  0
  9 10  1  0  0  0  0
 10 11  2  0  0  0  0
 10  3  1  0  0  0  0
 11 19  1  0  0  0  0
 12 13  1  0  0  0  0
 12 11  1  0  0  0  0
 13 20  1  0  0  0  0
 14 13  1  0  0  0  0
 15 16  1  0  0  0  0
 15 14  2  0  0  0  0
 16 12  2  0  0  0  0
 17 16  1  0  0  0  0
 17  9  2  0  0  0  0
 18  9  1  0  0  0  0
 21 14  1  0  0  0  0
 22 17  1  0  0  0  0
 23  5  1  0  0  0  0
 23 25  1  0  0  0  0
 24 23  2  0  0  0  0
 25 28  1  1  0  0  0
 25 26  1  0  0  0  0
 26 29  1  0  0  0  0
 26 30  1  0  0  0  0
 27 25  1  0  0  0  0
 27 31  1  1  0  0  0
 27 26  1  0  0  0  0
 32 33  1  0  0  0  0
 32 27  1  0  0  0  0
 33 37  1  0  0  0  0
 33 35  1  0  0  0  0
 34 33  1  0  0  0  0
 36 35  1  0  0  0  0
 38 37  1  0  0  0  0
M  END
>  <minimizedAffinity>
-5.8315587

>  <minimizedRMSD>
2.52715254

$$$$
