
 OpenBabel03272506473D

 40 42  0  0  1  0  0  0  0  0999 V2000
   32.2050   28.6600   47.3820 C   0  0  2  0  0  0  0  0  0  0  0  0
   33.4530   28.3970   48.1690 C   0  0  1  0  0  0  0  0  0  0  0  0
   33.7630   27.0660   48.0240 O   0  0  0  0  0  0  0  0  0  0  0  0
   33.0160   26.5350   46.9770 C   0  0  0  0  0  0  0  0  0  0  0  0
   32.4640   27.6890   46.1790 C   0  0  1  0  0  0  0  0  0  0  0  0
   31.2820   28.3350   47.8420 H   0  0  0  0  0  0  0  0  0  0  0  0
   33.3260   28.7010   49.2290 H   0  0  0  0  0  0  0  0  0  0  0  0
   33.7900   26.0550   46.2920 H   0  0  0  0  0  0  0  0  0  0  0  0
   32.3140   25.8030   47.3320 H   0  0  0  0  0  0  0  0  0  0  0  0
   33.1920   28.2220   45.5690 H   0  0  0  0  0  0  0  0  0  0  0  0
   32.1960   29.9840   46.9080 O   0  0  0  0  0  0  0  0  0  0  0  0
   31.2470   30.2710   46.8220 H   0  0  0  0  0  0  0  0  0  0  0  0
   34.8100   29.3810   47.4310 S   0  0  0  0  0  0  0  0  0  0  0  0
   37.1330   29.3200   50.6270 C   0  0  0  0  0  0  0  0  0  0  0  0
   37.6400   30.5960   50.7400 C   0  0  0  0  0  0  0  0  0  0  0  0
   37.2520   31.5350   49.7810 C   0  0  0  0  0  0  0  0  0  0  0  0
   36.4030   31.1460   48.8030 N   0  0  0  0  0  0  0  0  0  0  0  0
   35.9240   29.8850   48.7240 C   0  0  0  0  0  0  0  0  0  0  0  0
   36.2870   28.9530   49.6420 N   0  0  0  0  0  0  0  0  0  0  0  0
   37.4770   28.6150   51.4090 H   0  0  0  0  0  0  0  0  0  0  0  0
   38.3200   30.9700   51.4890 H   0  0  0  0  0  0  0  0  0  0  0  0
   37.5410   32.5800   49.7030 H   0  0  0  0  0  0  0  0  0  0  0  0
   31.2870   27.3090   45.5960 O   0  0  0  0  0  0  0  0  0  0  0  0
   29.7320   29.5770   44.5500 Cl  0  0  0  0  0  0  0  0  0  0  0  0
   29.2670   28.3800   45.7310 C   0  0  0  0  0  0  0  0  0  0  0  0
   30.0790   27.3520   46.1500 C   0  0  0  0  0  0  0  0  0  0  0  0
   29.5740   26.4590   47.0930 C   0  0  0  0  0  0  0  0  0  0  0  0
   28.2970   26.6010   47.5920 C   0  0  0  0  0  0  0  0  0  0  0  0
   27.4720   27.6250   47.1780 C   0  0  0  0  0  0  0  0  0  0  0  0
   27.9790   28.5210   46.2290 C   0  0  0  0  0  0  0  0  0  0  0  0
   30.1530   25.6310   47.4630 H   0  0  0  0  0  0  0  0  0  0  0  0
   27.9350   25.8930   48.3220 H   0  0  0  0  0  0  0  0  0  0  0  0
   26.4980   27.6950   47.6000 H   0  0  0  0  0  0  0  0  0  0  0  0
   27.0240   29.5870   45.8320 C   0  0  0  0  0  2  0  0  0  0  0  0
   27.2770   30.8870   46.3410 N   0  0  0  0  0  4  0  0  0  0  0  0
   28.2750   31.1370   46.5180 H   0  0  0  0  0  0  0  0  0  0  0  0
   26.7180   31.9210   45.5050 C   0  0  0  0  0  2  0  0  0  0  0  0
   27.0140   32.9420   45.8460 H   0  0  0  0  0  0  0  0  0  0  0  0
   26.5100   30.9610   47.6030 C   0  0  0  0  0  2  0  0  0  0  0  0
   26.4950   31.9960   47.9140 H   0  0  0  0  0  0  0  0  0  0  0  0
  1  6  1  1  0  0  0
  1  2  1  0  0  0  0
  2  7  1  1  0  0  0
  3  2  1  0  0  0  0
  4  9  1  0  0  0  0
  4  3  1  0  0  0  0
  5 10  1  6  0  0  0
  5  4  1  0  0  0  0
  5  1  1  0  0  0  0
  8  4  1  0  0  0  0
 11  1  1  0  0  0  0
 12 11  1  0  0  0  0
 13  2  1  0  0  0  0
 13 18  1  0  0  0  0
 14 15  1  0  0  0  0
 14 20  1  0  0  0  0
 15 21  1  0  0  0  0
 16 15  2  0  0  0  0
 17 16  1  0  0  0  0
 18 17  2  0  0  0  0
 18 19  1  0  0  0  0
 19 14  2  0  0  0  0
 22 16  1  0  0  0  0
 23 26  1  0  0  0  0
 23  5  1  0  0  0  0
 24 25  1  0  0  0  0
 25 26  2  0  0  0  0
 25 30  1  0  0  0  0
 26 27  1  0  0  0  0
 27 31  1  0  0  0  0
 27 28  2  0  0  0  0
 28 32  1  0  0  0  0
 29 28  1  0  0  0  0
 29 33  1  0  0  0  0
 30 29  2  0  0  0  0
 34 30  1  0  0  0  0
 34 35  1  0  0  0  0
 35 36  1  0  0  0  0
 35 39  1  0  0  0  0
 37 38  1  0  0  0  0
 37 35  1  0  0  0  0
 39 40  1  0  0  0  0
M  END
>  <minimizedAffinity>
-4.91137743

>  <minimizedRMSD>
0.467269421

$$$$
