
 OpenBabel03272506473D

 40 42  0  0  1  0  0  0  0  0999 V2000
   32.1540   28.5240   47.4310 C   0  0  2  0  0  0  0  0  0  0  0  0
   33.3980   28.3750   48.2530 C   0  0  1  0  0  0  0  0  0  0  0  0
   33.7970   27.0620   48.1690 O   0  0  0  0  0  0  0  0  0  0  0  0
   33.1090   26.4420   47.1300 C   0  0  0  0  0  0  0  0  0  0  0  0
   32.5020   27.5250   46.2750 C   0  0  1  0  0  0  0  0  0  0  0  0
   31.2440   28.1580   47.8850 H   0  0  0  0  0  0  0  0  0  0  0  0
   33.2280   28.7120   49.2970 H   0  0  0  0  0  0  0  0  0  0  0  0
   33.9280   25.9870   46.4810 H   0  0  0  0  0  0  0  0  0  0  0  0
   32.4480   25.6810   47.5010 H   0  0  0  0  0  0  0  0  0  0  0  0
   33.2080   28.0790   45.6580 H   0  0  0  0  0  0  0  0  0  0  0  0
   32.0710   29.8250   46.9020 O   0  0  0  0  0  0  0  0  0  0  0  0
   31.1070   30.0460   46.7860 H   0  0  0  0  0  0  0  0  0  0  0  0
   34.7050   29.4150   47.5020 S   0  0  0  0  0  0  0  0  0  0  0  0
   37.1340   29.3010   50.6170 C   0  0  0  0  0  0  0  0  0  0  0  0
   37.6260   30.5810   50.7490 C   0  0  0  0  0  0  0  0  0  0  0  0
   37.1920   31.5400   49.8310 C   0  0  0  0  0  0  0  0  0  0  0  0
   36.3170   31.1660   48.8700 N   0  0  0  0  0  0  0  0  0  0  0  0
   35.8550   29.9000   48.7710 C   0  0  0  0  0  0  0  0  0  0  0  0
   36.2620   28.9480   49.6500 N   0  0  0  0  0  0  0  0  0  0  0  0
   37.5150   28.5800   51.3660 H   0  0  0  0  0  0  0  0  0  0  0  0
   38.3250   30.9450   51.4850 H   0  0  0  0  0  0  0  0  0  0  0  0
   37.4640   32.5920   49.7730 H   0  0  0  0  0  0  0  0  0  0  0  0
   31.3660   27.0460   45.6830 O   0  0  0  0  0  0  0  0  0  0  0  0
   29.8060   29.0130   44.1510 Cl  0  0  0  0  0  0  0  0  0  0  0  0
   29.3100   28.0400   45.5110 C   0  0  0  0  0  0  0  0  0  0  0  0
   30.1270   27.1430   46.1570 C   0  0  0  0  0  0  0  0  0  0  0  0
   29.5950   26.4220   47.2250 C   0  0  0  0  0  0  0  0  0  0  0  0
   28.2880   26.6030   47.6220 C   0  0  0  0  0  0  0  0  0  0  0  0
   27.4570   27.4970   46.9800 C   0  0  0  0  0  0  0  0  0  0  0  0
   27.9910   28.2200   45.9070 C   0  0  0  0  0  0  0  0  0  0  0  0
   30.1770   25.7020   47.7740 H   0  0  0  0  0  0  0  0  0  0  0  0
   27.9050   26.0290   48.4530 H   0  0  0  0  0  0  0  0  0  0  0  0
   26.4590   27.6040   47.3310 H   0  0  0  0  0  0  0  0  0  0  0  0
   27.0290   29.1530   45.2680 C   0  0  0  0  0  2  0  0  0  0  0  0
   26.5120   28.7650   44.0050 N   0  0  0  0  0  4  0  0  0  0  0  0
   27.1650   28.2570   43.3670 H   0  0  0  0  0  0  0  0  0  0  0  0
   25.3190   27.9650   44.1230 C   0  0  0  0  0  2  0  0  0  0  0  0
   24.9800   27.5690   43.1360 H   0  0  0  0  0  0  0  0  0  0  0  0
   26.0680   30.0240   43.3680 C   0  0  0  0  0  2  0  0  0  0  0  0
   25.4750   29.7590   42.5040 H   0  0  0  0  0  0  0  0  0  0  0  0
  1  6  1  1  0  0  0
  1  2  1  0  0  0  0
  2  7  1  1  0  0  0
  3  2  1  0  0  0  0
  4  9  1  0  0  0  0
  4  3  1  0  0  0  0
  5 10  1  6  0  0  0
  5  4  1  0  0  0  0
  5  1  1  0  0  0  0
  8  4  1  0  0  0  0
 11  1  1  0  0  0  0
 12 11  1  0  0  0  0
 13  2  1  0  0  0  0
 13 18  1  0  0  0  0
 14 15  1  0  0  0  0
 14 20  1  0  0  0  0
 15 21  1  0  0  0  0
 16 15  2  0  0  0  0
 17 16  1  0  0  0  0
 18 17  2  0  0  0  0
 18 19  1  0  0  0  0
 19 14  2  0  0  0  0
 22 16  1  0  0  0  0
 23 26  1  0  0  0  0
 23  5  1  0  0  0  0
 24 25  1  0  0  0  0
 25 30  2  0  0  0  0
 25 26  1  0  0  0  0
 26 27  2  0  0  0  0
 27 28  1  0  0  0  0
 27 31  1  0  0  0  0
 28 32  1  0  0  0  0
 29 33  1  0  0  0  0
 29 28  2  0  0  0  0
 30 29  1  0  0  0  0
 34 30  1  0  0  0  0
 35 37  1  0  0  0  0
 35 34  1  0  0  0  0
 36 35  1  0  0  0  0
 38 37  1  0  0  0  0
 39 35  1  0  0  0  0
 40 39  1  0  0  0  0
M  END
>  <minimizedAffinity>
-4.73048258

>  <minimizedRMSD>
0.448047251

$$$$
