
 OpenBabel03272508533D

 36 38  0  0  1  0  0  0  0  0999 V2000
   38.1690   31.2960   44.8510 C   0  0  0  0  0  0  0  0  0  0  0  0
   37.1090   30.6250   45.0280 O   0  0  0  0  0  0  0  0  0  0  0  0
   38.6220   32.2120   45.8530 N   0  0  0  0  0  0  0  0  0  0  0  0
   39.3570   32.9010   45.6720 H   0  0  0  0  0  0  0  0  0  0  0  0
   38.9530   31.1450   43.6140 C   0  0  0  0  0  0  0  0  0  0  0  0
   40.0240   30.2920   43.6270 C   0  0  0  0  0  0  0  0  0  0  0  0
   40.7620   30.1480   42.4610 C   0  0  0  0  0  0  0  0  0  0  0  0
   40.3750   30.8680   41.3680 C   0  0  0  0  0  0  0  0  0  0  0  0
   39.2790   31.7470   41.3380 C   0  0  0  0  0  0  0  0  0  0  0  0
   38.6210   31.8280   42.5030 N   0  0  0  0  0  0  0  0  0  0  0  0
   40.3210   29.7300   44.4950 H   0  0  0  0  0  0  0  0  0  0  0  0
   41.6180   29.4870   42.4200 H   0  0  0  0  0  0  0  0  0  0  0  0
   40.9560   30.7470   40.4680 H   0  0  0  0  0  0  0  0  0  0  0  0
   38.9260   32.4880   40.1130 C   0  0  0  0  0  2  0  0  0  0  0  0
   37.5320   32.7980   39.9860 N   0  0  0  0  0  4  0  0  0  0  0  0
   37.0840   32.6820   40.9230 H   0  0  0  0  0  0  0  0  0  0  0  0
   37.2900   34.1700   39.5700 C   0  0  0  0  0  2  0  0  0  0  0  0
   37.9760   34.8410   40.0960 H   0  0  0  0  0  0  0  0  0  0  0  0
   36.8680   31.8660   39.0620 C   0  0  0  0  0  2  0  0  0  0  0  0
   36.1580   31.2180   39.5820 H   0  0  0  0  0  0  0  0  0  0  0  0
   38.6280   31.3650   48.2000 C   0  0  2  0  0  0  0  0  0  0  0  0
   38.8490   32.8180   48.2720 C   0  0  0  0  0  0  0  0  0  0  0  0
   37.9990   32.1410   47.1620 C   0  0  1  0  0  0  0  0  0  0  0  0
   39.5790   30.8000   47.9930 H   0  0  0  0  0  0  0  0  0  0  0  0
   38.2810   33.4190   49.0190 H   0  0  0  0  0  0  0  0  0  0  0  0
   39.7990   33.2630   47.9780 H   0  0  0  0  0  0  0  0  0  0  0  0
   36.9120   32.3600   47.2210 H   0  0  0  0  0  0  0  0  0  0  0  0
   36.0610   29.1460   49.6580 C   0  0  0  0  0  0  0  0  0  0  0  0
   36.2830   29.2980   51.0530 C   0  0  0  0  0  0  0  0  0  0  0  0
   37.3360   30.1950   51.4700 C   0  0  0  0  0  0  0  0  0  0  0  0
   38.0600   30.8440   50.5210 N   0  0  0  0  0  0  0  0  0  0  0  0
   37.7920   30.6500   49.1990 C   0  0  0  0  0  0  0  0  0  0  0  0
   36.7990   29.8080   48.7380 N   0  0  0  0  0  0  0  0  0  0  0  0
   35.2610   28.4630   49.4080 H   0  0  0  0  0  0  0  0  0  0  0  0
   35.6890   28.7670   51.7630 H   0  0  0  0  0  0  0  0  0  0  0  0
   37.5110   30.3170   52.5300 H   0  0  0  0  0  0  0  0  0  0  0  0
  1  2  2  0  0  0  0
  1  3  1  0  0  0  0
  3 23  1  0  0  0  0
  4  3  1  0  0  0  0
  5  6  1  0  0  0  0
  5  1  1  0  0  0  0
  6 11  1  0  0  0  0
  7  6  2  0  0  0  0
  8  7  1  0  0  0  0
  9  8  2  0  0  0  0
  9 10  1  0  0  0  0
 10  5  2  0  0  0  0
 12  7  1  0  0  0  0
 13  8  1  0  0  0  0
 14  9  1  0  0  0  0
 15 14  1  0  0  0  0
 15 16  1  0  0  0  0
 17 15  1  0  0  0  0
 17 18  1  0  0  0  0
 19 20  1  0  0  0  0
 19 15  1  0  0  0  0
 21 24  1  6  0  0  0
 21 22  1  0  0  0  0
 21 32  1  0  0  0  0
 22 25  1  0  0  0  0
 23 27  1  1  0  0  0
 23 21  1  0  0  0  0
 23 22  1  0  0  0  0
 26 22  1  0  0  0  0
 28 29  1  0  0  0  0
 29 30  2  0  0  0  0
 29 35  1  0  0  0  0
 30 36  1  0  0  0  0
 31 30  1  0  0  0  0
 32 31  2  0  0  0  0
 33 32  1  0  0  0  0
 33 28  2  0  0  0  0
 34 28  1  0  0  0  0
M  END
>  <minimizedAffinity>
-5.09075069

>  <minimizedRMSD>
1.19532359

$$$$
