
 OpenBabel03262523383D

 43 45  0  0  1  0  0  0  0  0999 V2000
   35.3690   30.0190   49.7600 C   0  0  2  0  0  0  0  0  0  0  0  0
   36.2630   31.0580   49.1930 C   0  0  0  0  0  0  0  0  0  0  0  0
   37.7480   30.7430   49.3840 C   0  0  2  0  0  0  0  0  0  0  0  0
   38.0540   30.6850   50.8570 C   0  0  0  0  0  0  0  0  0  0  0  0
   37.0500   29.8430   51.6190 C   0  0  0  0  0  0  0  0  0  0  0  0
   36.1260   29.0970   50.6910 C   0  0  0  0  0  0  0  0  0  0  0  0
   34.5040   30.4500   50.3450 H   0  0  0  0  0  0  0  0  0  0  0  0
   36.1300   31.9630   49.8900 H   0  0  0  0  0  0  0  0  0  0  0  0
   36.1410   31.4460   48.2210 H   0  0  0  0  0  0  0  0  0  0  0  0
   37.8810   29.7160   48.9860 H   0  0  0  0  0  0  0  0  0  0  0  0
   38.0250   31.7170   51.2490 H   0  0  0  0  0  0  0  0  0  0  0  0
   39.0910   30.3080   51.0010 H   0  0  0  0  0  0  0  0  0  0  0  0
   36.4630   30.4580   52.3470 H   0  0  0  0  0  0  0  0  0  0  0  0
   37.5940   29.1120   52.2330 H   0  0  0  0  0  0  0  0  0  0  0  0
   36.7310   28.4170   50.0790 H   0  0  0  0  0  0  0  0  0  0  0  0
   35.3750   28.5870   51.3260 H   0  0  0  0  0  0  0  0  0  0  0  0
   38.6100   31.6400   48.6010 C   0  0  2  0  0  0  0  0  0  0  0  0
   38.6970   33.0670   49.0550 C   0  0  0  0  0  0  0  0  0  0  0  0
   39.4510   33.6290   47.8290 C   0  0  0  0  0  0  0  0  0  0  0  0
   38.8400   33.0340   46.7480 O   0  0  0  0  0  0  0  0  0  0  0  0
   38.2890   31.8230   47.1650 C   0  0  1  0  0  0  0  0  0  0  0  0
   39.6550   31.2450   48.6780 H   0  0  0  0  0  0  0  0  0  0  0  0
   37.7040   33.5480   49.1280 H   0  0  0  0  0  0  0  0  0  0  0  0
   39.3040   33.1670   49.9560 H   0  0  0  0  0  0  0  0  0  0  0  0
   40.5070   33.3190   47.8980 H   0  0  0  0  0  0  0  0  0  0  0  0
   39.2920   34.7160   47.8580 H   0  0  0  0  0  0  0  0  0  0  0  0
   37.2450   31.7630   46.8750 H   0  0  0  0  0  0  0  0  0  0  0  0
   39.0140   30.7340   46.4010 C   0  0  0  0  0  2  0  0  0  0  0  0
   39.2850   31.0690   45.0310 N   0  0  0  0  0  4  0  0  0  0  0  0
   38.7200   31.8920   44.7250 H   0  0  0  0  0  0  0  0  0  0  0  0
   38.9120   29.8700   44.2650 C   0  0  0  0  0  2  0  0  0  0  0  0
   37.8660   29.8890   43.9470 H   0  0  0  0  0  0  0  0  0  0  0  0
   40.7080   31.2290   44.7980 C   0  0  0  0  0  2  0  0  0  0  0  0
   40.9720   30.8580   43.7850 H   0  0  0  0  0  0  0  0  0  0  0  0
   34.7370   29.1710   48.7250 C   0  0  0  0  0  0  0  0  0  0  0  0
   34.6250   29.7500   47.4600 C   0  0  0  0  0  0  0  0  0  0  0  0
   34.0600   29.0000   46.4490 C   0  0  0  0  0  0  0  0  0  0  0  0
   33.6300   27.7110   46.7250 N   0  0  0  0  0  0  0  0  0  0  0  0
   33.7580   27.1850   47.9690 C   0  0  0  0  0  0  0  0  0  0  0  0
   34.3020   27.9190   48.9310 N   0  0  0  0  0  0  0  0  0  0  0  0
   34.8580   30.6860   46.9860 H   0  0  0  0  0  0  0  0  0  0  0  0
   33.8590   29.1970   45.4120 H   0  0  0  0  0  0  0  0  0  0  0  0
   33.4270   26.1880   48.1950 H   0  0  0  0  0  0  0  0  0  0  0  0
  1  7  1  1  0  0  0
  1  6  1  0  0  0  0
  2  3  1  0  0  0  0
  2  1  1  0  0  0  0
  2  8  1  0  0  0  0
  3 10  1  6  0  0  0
  3  4  1  0  0  0  0
  4 12  1  0  0  0  0
  4 11  1  0  0  0  0
  4  5  1  0  0  0  0
  5 14  1  0  0  0  0
  5 13  1  0  0  0  0
  6 16  1  0  0  0  0
  6  5  1  0  0  0  0
  9  2  1  0  0  0  0
 15  6  1  0  0  0  0
 17 22  1  1  0  0  0
 17 18  1  0  0  0  0
 17  3  1  0  0  0  0
 18 23  1  0  0  0  0
 18 24  1  0  0  0  0
 19 26  1  0  0  0  0
 19 25  1  0  0  0  0
 19 18  1  0  0  0  0
 20 21  1  0  0  0  0
 20 19  1  0  0  0  0
 21 27  1  6  0  0  0
 21 17  1  0  0  0  0
 28 21  1  0  0  0  0
 29 28  1  0  0  0  0
 30 29  1  0  0  0  0
 31 29  1  0  0  0  0
 32 31  1  0  0  0  0
 33 29  1  0  0  0  0
 34 33  1  0  0  0  0
 35 40  1  0  0  0  0
 35  1  1  0  0  0  0
 36 35  2  0  0  0  0
 37 38  2  0  0  0  0
 37 36  1  0  0  0  0
 38 39  1  0  0  0  0
 39 43  1  0  0  0  0
 39 40  2  0  0  0  0
 41 36  1  0  0  0  0
 42 37  1  0  0  0  0
M  END
>  <minimizedAffinity>
-6.19396591

>  <minimizedRMSD>
1.08713603

$$$$
