
 OpenBabel03272507223D

 41 44  0  0  1  0  0  0  0  0999 V2000
   38.1880   32.0210   47.3710 C   0  0  0  0  0  0  0  0  0  0  0  0
   38.8800   33.0210   48.0140 C   0  0  0  0  0  0  0  0  0  0  0  0
   39.9630   33.5510   47.3020 C   0  0  0  0  0  0  0  0  0  0  0  0
   40.2760   33.0790   46.0600 N   0  0  0  0  0  0  0  0  0  0  0  0
   39.5720   32.0930   45.4580 C   0  0  0  0  0  0  0  0  0  0  0  0
   38.5170   31.5660   46.1320 N   0  0  0  0  0  0  0  0  0  0  0  0
   38.6730   33.4170   48.9780 H   0  0  0  0  0  0  0  0  0  0  0  0
   40.5660   34.3440   47.7350 H   0  0  0  0  0  0  0  0  0  0  0  0
   39.4310   32.2830   43.0380 C   0  0  0  0  0  0  0  0  0  0  0  0
   39.9210   31.5950   44.1270 C   0  0  0  0  0  0  0  0  0  0  0  0
   40.7130   30.4730   43.9320 C   0  0  0  0  0  0  0  0  0  0  0  0
   41.0470   29.9940   42.6800 C   0  0  0  0  0  0  0  0  0  0  0  0
   41.7760   28.9620   42.2220 N   0  0  0  0  0  0  0  0  0  0  0  0
   41.7210   29.0340   40.8770 C   0  0  0  0  0  0  0  0  0  0  0  0
   40.9780   30.0830   40.4970 N   0  0  0  0  0  0  0  0  0  0  0  0
   40.5340   30.7150   41.6020 C   0  0  0  0  0  0  0  0  0  0  0  0
   39.7400   31.8390   41.7650 C   0  0  0  0  0  0  0  0  0  0  0  0
   38.8120   33.1600   43.1290 H   0  0  0  0  0  0  0  0  0  0  0  0
   41.0870   29.9480   44.8040 H   0  0  0  0  0  0  0  0  0  0  0  0
   42.2580   28.2850   42.8640 H   0  0  0  0  0  0  0  0  0  0  0  0
   42.2130   28.3380   40.2140 H   0  0  0  0  0  0  0  0  0  0  0  0
   39.3770   32.3480   40.8730 H   0  0  0  0  0  0  0  0  0  0  0  0
   37.0190   31.4090   48.1090 C   0  0  1  0  0  0  0  0  0  0  0  0
   36.0460   30.5900   47.4240 C   0  0  2  0  0  0  0  0  0  0  0  0
   37.1610   29.8960   48.2400 C   0  0  2  0  0  0  0  0  0  0  0  0
   36.6910   32.0290   48.9750 H   0  0  0  0  0  0  0  0  0  0  0  0
   35.1360   30.1870   47.9950 H   0  0  0  0  0  0  0  0  0  0  0  0
   37.8920   29.3820   47.6200 H   0  0  0  0  0  0  0  0  0  0  0  0
   36.1560   30.4040   46.0880 O   0  0  0  0  0  0  0  0  0  0  0  0
   35.3700   30.1030   45.0610 C   0  0  0  0  0  0  0  0  0  0  0  0
   35.9080   29.3800   44.1640 O   0  0  0  0  0  0  0  0  0  0  0  0
   34.0960   30.6130   45.1120 N   0  0  0  0  0  0  0  0  0  0  0  0
   33.2120   30.1720   45.4580 H   0  0  0  0  0  0  0  0  0  0  0  0
   33.8130   31.5710   44.7960 H   0  0  0  0  0  0  0  0  0  0  0  0
   36.9290   29.4160   49.6260 C   0  0  0  0  0  2  0  0  0  0  0  0
   35.5610   29.3460   50.0320 N   0  0  0  0  0  4  0  0  0  0  0  0
   35.0620   30.2160   49.7360 H   0  0  0  0  0  0  0  0  0  0  0  0
   34.8170   28.2290   49.5310 C   0  0  0  0  0  2  0  0  0  0  0  0
   33.8450   28.2280   50.0880 H   0  0  0  0  0  0  0  0  0  0  0  0
   35.4850   29.3330   51.4810 C   0  0  0  0  0  2  0  0  0  0  0  0
   35.2270   28.3020   51.8560 H   0  0  0  0  0  0  0  0  0  0  0  0
  1  2  1  0  0  0  0
  1 23  1  0  0  0  0
  2  7  1  0  0  0  0
  3  8  1  0  0  0  0
  3  2  2  0  0  0  0
  4  3  1  0  0  0  0
  5  4  2  0  0  0  0
  5  6  1  0  0  0  0
  6  1  2  0  0  0  0
  9 18  1  0  0  0  0
  9 10  1  0  0  0  0
 10  5  1  0  0  0  0
 11 10  2  0  0  0  0
 11 19  1  0  0  0  0
 12 11  1  0  0  0  0
 13 12  1  0  0  0  0
 13 20  1  0  0  0  0
 14 13  1  0  0  0  0
 15 14  2  0  0  0  0
 15 16  1  0  0  0  0
 16 17  1  0  0  0  0
 16 12  2  0  0  0  0
 17  9  2  0  0  0  0
 21 14  1  0  0  0  0
 22 17  1  0  0  0  0
 23 25  1  0  0  0  0
 23 26  1  1  0  0  0
 24 27  1  1  0  0  0
 24 23  1  0  0  0  0
 24 25  1  0  0  0  0
 25 28  1  6  0  0  0
 25 35  1  0  0  0  0
 29 24  1  0  0  0  0
 30 32  1  0  0  0  0
 30 29  1  0  0  0  0
 31 30  2  0  0  0  0
 32 33  1  0  0  0  0
 34 32  1  0  0  0  0
 35 36  1  0  0  0  0
 36 40  1  0  0  0  0
 37 36  1  0  0  0  0
 38 36  1  0  0  0  0
 38 39  1  0  0  0  0
 40 41  1  0  0  0  0
M  END
>  <minimizedAffinity>
-5.55278301

>  <minimizedRMSD>
2.4616406

$$$$
