
 OpenBabel03272509173D

 28 29  0  0  0  0  0  0  0  0999 V2000
   34.9630   30.3970   47.1790 C   0  0  0  0  0  0  0  0  0  0  0  0
   35.9900   30.2760   48.1150 C   0  0  0  0  0  0  0  0  0  0  0  0
   35.9550   29.1470   48.9310 C   0  0  0  0  0  0  0  0  0  0  0  0
   34.9420   28.2460   48.7750 N   0  0  0  0  0  0  0  0  0  0  0  0
   33.9670   28.4160   47.8450 C   0  0  0  0  0  0  0  0  0  0  0  0
   33.9810   29.5060   47.0390 N   0  0  0  0  0  0  0  0  0  0  0  0
   34.9740   31.2680   46.5370 H   0  0  0  0  0  0  0  0  0  0  0  0
   33.2460   27.6110   47.8560 H   0  0  0  0  0  0  0  0  0  0  0  0
   37.9970   31.4490   47.2840 C   0  0  0  0  0  0  0  0  0  0  0  0
   37.0100   31.2680   48.2150 C   0  0  0  0  0  0  0  0  0  0  0  0
   37.0750   32.1470   49.2950 C   0  0  0  0  0  0  0  0  0  0  0  0
   38.0610   33.1250   49.4100 C   0  0  0  0  0  0  0  0  0  0  0  0
   39.0200   33.2290   48.4120 C   0  0  0  0  0  0  0  0  0  0  0  0
   38.9910   32.3770   47.3260 C   0  0  0  0  0  0  0  0  0  0  0  0
   36.3530   32.1010   50.0920 H   0  0  0  0  0  0  0  0  0  0  0  0
   38.1230   33.8120   50.2400 H   0  0  0  0  0  0  0  0  0  0  0  0
   39.8100   33.9680   48.4460 H   0  0  0  0  0  0  0  0  0  0  0  0
   38.0210   30.6100   46.1500 O   0  0  0  0  0  0  0  0  0  0  0  0
   37.6440   31.0460   45.3020 H   0  0  0  0  0  0  0  0  0  0  0  0
   39.9630   32.5040   46.3380 O   0  0  0  0  0  0  0  0  0  0  0  0
   39.7720   32.8760   45.4280 H   0  0  0  0  0  0  0  0  0  0  0  0
   36.9790   28.8940   49.9450 C   0  0  0  0  0  2  0  0  0  0  0  0
   36.5640   29.0100   51.3040 N   0  0  0  0  0  4  0  0  0  0  0  0
   36.6550   28.1240   51.8440 H   0  0  0  0  0  0  0  0  0  0  0  0
   37.4580   29.9770   51.9680 C   0  0  0  0  0  2  0  0  0  0  0  0
   38.3660   29.3960   52.2590 H   0  0  0  0  0  0  0  0  0  0  0  0
   35.1880   29.4600   51.4410 C   0  0  0  0  0  2  0  0  0  0  0  0
   34.8410   29.3990   52.4930 H   0  0  0  0  0  0  0  0  0  0  0  0
  1  2  1  0  0  0  0
  2 10  1  0  0  0  0
  2  3  2  0  0  0  0
  3 22  1  0  0  0  0
  4  3  1  0  0  0  0
  5  8  1  0  0  0  0
  5  4  2  0  0  0  0
  6  1  2  0  0  0  0
  6  5  1  0  0  0  0
  7  1  1  0  0  0  0
  9 14  2  0  0  0  0
  9 10  1  0  0  0  0
 10 11  2  0  0  0  0
 11 12  1  0  0  0  0
 11 15  1  0  0  0  0
 12 16  1  0  0  0  0
 13 17  1  0  0  0  0
 13 12  2  0  0  0  0
 14 13  1  0  0  0  0
 18  9  1  0  0  0  0
 19 18  1  0  0  0  0
 20 14  1  0  0  0  0
 21 20  1  0  0  0  0
 22 23  1  0  0  0  0
 23 27  1  0  0  0  0
 23 24  1  0  0  0  0
 23 25  1  0  0  0  0
 25 26  1  0  0  0  0
 27 28  1  0  0  0  0
M  END
>  <minimizedAffinity>
-5.02601624

>  <minimizedRMSD>
2.68770146

$$$$
