
 OpenBabel03272505233D

 33 35  0  0  0  0  0  0  0  0999 V2000
   37.2020   30.9740   47.0960 Br  0  0  0  0  0  0  0  0  0  0  0  0
   35.6740   29.9780   46.5530 C   0  0  0  0  0  0  0  0  0  0  0  0
   34.9320   29.2750   47.4690 C   0  0  0  0  0  0  0  0  0  0  0  0
   33.8150   28.5670   47.0190 C   0  0  0  0  0  0  0  0  0  0  0  0
   33.4860   28.5870   45.6800 C   0  0  0  0  0  0  0  0  0  0  0  0
   34.2330   29.2950   44.7470 C   0  0  0  0  0  0  0  0  0  0  0  0
   35.3420   29.9960   45.2130 C   0  0  0  0  0  0  0  0  0  0  0  0
   33.2530   28.0250   47.7690 H   0  0  0  0  0  0  0  0  0  0  0  0
   32.6160   28.0310   45.3580 H   0  0  0  0  0  0  0  0  0  0  0  0
   33.9810   29.3130   43.7080 H   0  0  0  0  0  0  0  0  0  0  0  0
   37.0880   29.3300   50.5660 C   0  0  0  0  0  0  0  0  0  0  0  0
   36.6960   29.2730   49.2210 C   0  0  0  0  0  0  0  0  0  0  0  0
   35.3710   29.3250   48.8620 C   0  0  0  0  0  0  0  0  0  0  0  0
   34.4600   29.4340   49.8870 N   0  0  0  0  0  0  0  0  0  0  0  0
   34.8370   29.4880   51.1800 C   0  0  0  0  0  0  0  0  0  0  0  0
   36.1330   29.4370   51.5230 N   0  0  0  0  0  0  0  0  0  0  0  0
   38.1280   29.2910   50.8730 H   0  0  0  0  0  0  0  0  0  0  0  0
   37.5030   29.1740   48.5230 H   0  0  0  0  0  0  0  0  0  0  0  0
   33.9740   29.5720   51.8270 H   0  0  0  0  0  0  0  0  0  0  0  0
   36.1560   30.7480   44.2670 C   0  0  0  0  0  0  0  0  0  0  0  0
   35.7730   31.8220   43.5170 C   0  0  0  0  0  0  0  0  0  0  0  0
   36.7820   32.2530   42.7590 N   0  0  0  0  0  0  0  0  0  0  0  0
   37.8300   31.4630   43.0100 C   0  0  0  0  0  0  0  0  0  0  0  0
   37.4740   30.5260   43.9360 N   0  0  0  0  0  0  0  0  0  0  0  0
   34.7730   32.2280   43.5680 H   0  0  0  0  0  0  0  0  0  0  0  0
   36.6960   33.0660   42.1110 H   0  0  0  0  0  0  0  0  0  0  0  0
   39.1690   31.5930   42.3760 C   0  0  0  0  0  2  0  0  0  0  0  0
   40.1610   32.1440   43.2570 N   0  0  0  0  0  4  0  0  0  0  0  0
   40.9770   32.4980   42.7090 H   0  0  0  0  0  0  0  0  0  0  0  0
   40.6510   31.0240   44.0620 C   0  0  0  0  0  2  0  0  0  0  0  0
   39.7440   30.5290   44.4840 H   0  0  0  0  0  0  0  0  0  0  0  0
   39.6760   33.1300   44.1750 C   0  0  0  0  0  2  0  0  0  0  0  0
   38.7100   33.5850   43.9250 H   0  0  0  0  0  0  0  0  0  0  0  0
  2  1  1  0  0  0  0
  2  3  1  0  0  0  0
  3 13  1  0  0  0  0
  4  3  2  0  0  0  0
  4  8  1  0  0  0  0
  5  4  1  0  0  0  0
  6  7  1  0  0  0  0
  6  5  2  0  0  0  0
  7  2  2  0  0  0  0
  9  5  1  0  0  0  0
 10  6  1  0  0  0  0
 11 17  1  0  0  0  0
 11 16  1  0  0  0  0
 12 11  2  0  0  0  0
 13 12  1  0  0  0  0
 13 14  2  0  0  0  0
 14 15  1  0  0  0  0
 15 16  2  0  0  0  0
 15 19  1  0  0  0  0
 18 12  1  0  0  0  0
 20  7  1  0  0  0  0
 21 25  1  0  0  0  0
 21 20  2  0  0  0  0
 22 23  1  0  0  0  0
 22 21  1  0  0  0  0
 23 24  2  0  0  0  0
 24 20  1  0  0  0  0
 26 22  1  0  0  0  0
 27 23  1  0  0  0  0
 27 28  1  0  0  0  0
 28 30  1  0  0  0  0
 28 32  1  0  0  0  0
 29 28  1  0  0  0  0
 30 31  1  0  0  0  0
 33 32  1  0  0  0  0
M  END
>  <minimizedAffinity>
-4.4777422

>  <minimizedRMSD>
2.87707424

$$$$
