
 OpenBabel03262523383D

 43 45  0  0  1  0  0  0  0  0999 V2000
   35.1970   30.2300   49.7660 C   0  0  2  0  0  0  0  0  0  0  0  0
   36.1720   31.2960   49.4300 C   0  0  0  0  0  0  0  0  0  0  0  0
   37.6270   30.8510   49.5910 C   0  0  2  0  0  0  0  0  0  0  0  0
   37.8770   30.4930   51.0330 C   0  0  0  0  0  0  0  0  0  0  0  0
   36.7960   29.5900   51.5950 C   0  0  0  0  0  0  0  0  0  0  0  0
   35.8620   29.0990   50.5190 C   0  0  0  0  0  0  0  0  0  0  0  0
   34.3390   30.5980   50.4020 H   0  0  0  0  0  0  0  0  0  0  0  0
   36.0700   32.0570   50.2850 H   0  0  0  0  0  0  0  0  0  0  0  0
   36.1090   31.8680   48.5490 H   0  0  0  0  0  0  0  0  0  0  0  0
   37.7110   29.9120   49.0070 H   0  0  0  0  0  0  0  0  0  0  0  0
   37.8960   31.4310   51.6150 H   0  0  0  0  0  0  0  0  0  0  0  0
   38.8820   30.0270   51.1250 H   0  0  0  0  0  0  0  0  0  0  0  0
   36.2230   30.0930   52.4130 H   0  0  0  0  0  0  0  0  0  0  0  0
   37.2720   28.7210   52.0690 H   0  0  0  0  0  0  0  0  0  0  0  0
   36.4450   28.5080   49.8020 H   0  0  0  0  0  0  0  0  0  0  0  0
   35.0580   28.5280   51.0270 H   0  0  0  0  0  0  0  0  0  0  0  0
   38.5700   31.8210   49.0160 C   0  0  2  0  0  0  0  0  0  0  0  0
   38.6490   33.1660   49.6750 C   0  0  0  0  0  0  0  0  0  0  0  0
   39.5130   33.8710   48.6070 C   0  0  0  0  0  0  0  0  0  0  0  0
   38.9810   33.4550   47.4060 O   0  0  0  0  0  0  0  0  0  0  0  0
   38.3730   32.2160   47.6000 C   0  0  1  0  0  0  0  0  0  0  0  0
   39.5960   31.3850   49.1180 H   0  0  0  0  0  0  0  0  0  0  0  0
   37.6630   33.6640   49.7390 H   0  0  0  0  0  0  0  0  0  0  0  0
   39.1810   33.1180   50.6270 H   0  0  0  0  0  0  0  0  0  0  0  0
   40.5530   33.5200   48.7130 H   0  0  0  0  0  0  0  0  0  0  0  0
   39.3750   34.9480   48.7790 H   0  0  0  0  0  0  0  0  0  0  0  0
   37.3550   32.2310   47.2230 H   0  0  0  0  0  0  0  0  0  0  0  0
   39.1350   31.2220   46.7480 C   0  0  0  0  0  2  0  0  0  0  0  0
   38.3300   30.5850   45.7420 N   0  0  0  0  0  4  0  0  0  0  0  0
   37.7560   29.8150   46.1510 H   0  0  0  0  0  0  0  0  0  0  0  0
   39.2950   30.0520   44.7670 C   0  0  0  0  0  2  0  0  0  0  0  0
   39.6050   29.0320   45.0060 H   0  0  0  0  0  0  0  0  0  0  0  0
   37.5480   31.5540   44.9990 C   0  0  0  0  0  2  0  0  0  0  0  0
   37.4650   31.2410   43.9360 H   0  0  0  0  0  0  0  0  0  0  0  0
   34.5510   29.6390   48.5720 C   0  0  0  0  0  0  0  0  0  0  0  0
   34.9870   30.1370   47.3440 C   0  0  0  0  0  0  0  0  0  0  0  0
   34.4340   29.6100   46.1950 C   0  0  0  0  0  0  0  0  0  0  0  0
   33.4750   28.6140   46.3020 N   0  0  0  0  0  0  0  0  0  0  0  0
   33.0790   28.1580   47.5170 C   0  0  0  0  0  0  0  0  0  0  0  0
   33.6190   28.6740   48.6120 N   0  0  0  0  0  0  0  0  0  0  0  0
   35.6800   30.8750   46.9820 H   0  0  0  0  0  0  0  0  0  0  0  0
   34.5860   29.8080   45.1490 H   0  0  0  0  0  0  0  0  0  0  0  0
   32.3350   27.3870   47.6130 H   0  0  0  0  0  0  0  0  0  0  0  0
  1  7  1  1  0  0  0
  1  6  1  0  0  0  0
  2  3  1  0  0  0  0
  2  1  1  0  0  0  0
  2  8  1  0  0  0  0
  3 10  1  6  0  0  0
  3  4  1  0  0  0  0
  4 12  1  0  0  0  0
  4  5  1  0  0  0  0
  4 11  1  0  0  0  0
  5 14  1  0  0  0  0
  5 13  1  0  0  0  0
  6 16  1  0  0  0  0
  6  5  1  0  0  0  0
  9  2  1  0  0  0  0
 15  6  1  0  0  0  0
 17 22  1  1  0  0  0
 17  3  1  0  0  0  0
 17 18  1  0  0  0  0
 18 23  1  0  0  0  0
 18 24  1  0  0  0  0
 19 25  1  0  0  0  0
 19 26  1  0  0  0  0
 19 18  1  0  0  0  0
 20 21  1  0  0  0  0
 20 19  1  0  0  0  0
 21 27  1  6  0  0  0
 21 17  1  0  0  0  0
 28 21  1  0  0  0  0
 29 30  1  0  0  0  0
 29 28  1  0  0  0  0
 31 32  1  0  0  0  0
 31 29  1  0  0  0  0
 33 29  1  0  0  0  0
 34 33  1  0  0  0  0
 35 40  1  0  0  0  0
 35  1  1  0  0  0  0
 36 35  2  0  0  0  0
 37 38  2  0  0  0  0
 37 36  1  0  0  0  0
 38 39  1  0  0  0  0
 39 43  1  0  0  0  0
 39 40  2  0  0  0  0
 41 36  1  0  0  0  0
 42 37  1  0  0  0  0
M  END
>  <minimizedAffinity>
-6.13165569

>  <minimizedRMSD>
1.49364424

$$$$
