
 OpenBabel03272506153D

 22 22  0  0  0  0  0  0  0  0999 V2000
   38.4400   25.0120   35.3790 C   0  0  0  0  0  0  0  0  0  0  0  0
   38.1230   24.6060   34.0690 C   0  0  0  0  0  0  0  0  0  0  0  0
   37.3830   25.4900   33.2830 C   0  0  0  0  0  0  0  0  0  0  0  0
   37.0050   26.6850   33.8070 N   0  0  0  0  0  0  0  0  0  0  0  0
   37.3270   27.0430   35.0710 C   0  0  0  0  0  0  0  0  0  0  0  0
   38.0440   26.2140   35.8640 N   0  0  0  0  0  0  0  0  0  0  0  0
   38.4710   23.6500   33.7670 H   0  0  0  0  0  0  0  0  0  0  0  0
   36.9830   28.0140   35.4020 H   0  0  0  0  0  0  0  0  0  0  0  0
   39.1610   24.2650   36.2870 O   0  0  0  0  0  0  0  0  0  0  0  0
   37.8550   24.4390   38.6350 O   0  0  0  0  0  0  0  0  0  0  0  0
   38.4130   23.4740   37.6200 P   0  0  0  0  0  0  0  0  0  0  0  0
   37.1620   22.5170   36.9580 O   0  0  0  0  0  0  0  0  0  0  0  0
   37.5720   21.7800   36.4450 H   0  0  0  0  0  0  0  0  0  0  0  0
   39.5340   22.5120   38.4310 O   0  0  0  0  0  0  0  0  0  0  0  0
   39.0380   21.8300   38.9730 H   0  0  0  0  0  0  0  0  0  0  0  0
   37.0420   25.0880   31.9160 C   0  0  0  0  0  2  0  0  0  0  0  0
   35.7420   24.5080   31.7760 N   0  0  0  0  0  4  0  0  0  0  0  0
   35.2180   24.4280   32.6760 H   0  0  0  0  0  0  0  0  0  0  0  0
   34.9350   25.2690   30.8200 C   0  0  0  0  0  2  0  0  0  0  0  0
   34.0590   24.6900   30.4930 H   0  0  0  0  0  0  0  0  0  0  0  0
   35.9020   23.1800   31.2120 C   0  0  0  0  0  2  0  0  0  0  0  0
   36.0470   22.4270   32.0310 H   0  0  0  0  0  0  0  0  0  0  0  0
  1  6  1  0  0  0  0
  1  9  1  0  0  0  0
  2  1  2  0  0  0  0
  3  4  2  0  0  0  0
  3  2  1  0  0  0  0
  4  5  1  0  0  0  0
  5  8  1  0  0  0  0
  5  6  2  0  0  0  0
  7  2  1  0  0  0  0
  9 11  1  0  0  0  0
 11 14  1  0  0  0  0
 11 10  2  0  0  0  0
 12 11  1  0  0  0  0
 13 12  1  0  0  0  0
 14 15  1  0  0  0  0
 16  3  1  0  0  0  0
 17 16  1  0  0  0  0
 17 18  1  0  0  0  0
 19 17  1  0  0  0  0
 20 19  1  0  0  0  0
 21 17  1  0  0  0  0
 21 22  1  0  0  0  0
M  END
>  <minimizedAffinity>
-4.50402021

$$$$

 OpenBabel03272506153D

 22 22  0  0  0  0  0  0  0  0999 V2000
   36.5360   21.0590   33.3690 C   0  0  0  0  0  0  0  0  0  0  0  0
   37.6240   21.7770   33.8980 C   0  0  0  0  0  0  0  0  0  0  0  0
   37.6520   21.9780   35.2790 C   0  0  0  0  0  0  0  0  0  0  0  0
   36.6430   21.4800   36.0410 N   0  0  0  0  0  0  0  0  0  0  0  0
   35.6120   20.7930   35.4980 C   0  0  0  0  0  0  0  0  0  0  0  0
   35.5490   20.5780   34.1640 N   0  0  0  0  0  0  0  0  0  0  0  0
   38.3530   22.1190   33.2070 H   0  0  0  0  0  0  0  0  0  0  0  0
   34.8540   20.4350   36.1830 H   0  0  0  0  0  0  0  0  0  0  0  0
   36.3510   20.7700   32.0320 O   0  0  0  0  0  0  0  0  0  0  0  0
   36.9170   18.1390   32.0830 O   0  0  0  0  0  0  0  0  0  0  0  0
   36.0060   19.1770   31.4800 P   0  0  0  0  0  0  0  0  0  0  0  0
   34.3820   18.8690   31.9150 O   0  0  0  0  0  0  0  0  0  0  0  0
   33.7980   19.4420   31.3630 H   0  0  0  0  0  0  0  0  0  0  0  0
   36.2040   19.0830   29.8100 O   0  0  0  0  0  0  0  0  0  0  0  0
   35.7010   18.2840   29.4710 H   0  0  0  0  0  0  0  0  0  0  0  0
   38.7760   22.7230   35.8510 C   0  0  0  0  0  2  0  0  0  0  0  0
   39.0950   22.3710   37.2000 N   0  0  0  0  0  4  0  0  0  0  0  0
   38.6250   21.4980   37.5290 H   0  0  0  0  0  0  0  0  0  0  0  0
   40.5420   22.2270   37.3710 C   0  0  0  0  0  2  0  0  0  0  0  0
   40.8180   22.2380   38.4350 H   0  0  0  0  0  0  0  0  0  0  0  0
   38.6880   23.4690   38.0590 C   0  0  0  0  0  2  0  0  0  0  0  0
   37.6200   23.3360   38.3750 H   0  0  0  0  0  0  0  0  0  0  0  0
  1  2  2  0  0  0  0
  1  6  1  0  0  0  0
  2  3  1  0  0  0  0
  3 16  1  0  0  0  0
  3  4  2  0  0  0  0
  5  4  1  0  0  0  0
  5  8  1  0  0  0  0
  6  5  2  0  0  0  0
  7  2  1  0  0  0  0
  9  1  1  0  0  0  0
 11 12  1  0  0  0  0
 11  9  1  0  0  0  0
 11 10  2  0  0  0  0
 13 12  1  0  0  0  0
 14 11  1  0  0  0  0
 15 14  1  0  0  0  0
 16 17  1  0  0  0  0
 17 19  1  0  0  0  0
 17 18  1  0  0  0  0
 17 21  1  0  0  0  0
 19 20  1  0  0  0  0
 21 22  1  0  0  0  0
M  END
>  <minimizedAffinity>
-4.38787365

$$$$

 OpenBabel03272506153D

 22 22  0  0  0  0  0  0  0  0999 V2000
   38.4400   23.8390   35.1090 C   0  0  0  0  0  0  0  0  0  0  0  0
   38.0530   24.6090   33.9960 C   0  0  0  0  0  0  0  0  0  0  0  0
   37.7920   23.9310   32.8040 C   0  0  0  0  0  0  0  0  0  0  0  0
   37.9200   22.5790   32.7690 N   0  0  0  0  0  0  0  0  0  0  0  0
   38.2940   21.8710   33.8590 C   0  0  0  0  0  0  0  0  0  0  0  0
   38.5560   22.4910   35.0320 N   0  0  0  0  0  0  0  0  0  0  0  0
   37.9860   25.6580   34.1400 H   0  0  0  0  0  0  0  0  0  0  0  0
   38.3700   20.7980   33.7370 H   0  0  0  0  0  0  0  0  0  0  0  0
   38.7350   24.3440   36.3580 O   0  0  0  0  0  0  0  0  0  0  0  0
   38.2090   24.3490   38.9980 O   0  0  0  0  0  0  0  0  0  0  0  0
   38.4190   23.4600   37.8000 P   0  0  0  0  0  0  0  0  0  0  0  0
   37.0140   22.5380   37.4900 O   0  0  0  0  0  0  0  0  0  0  0  0
   37.2390   21.8400   36.8290 H   0  0  0  0  0  0  0  0  0  0  0  0
   39.7220   22.4550   38.1650 O   0  0  0  0  0  0  0  0  0  0  0  0
   39.4070   21.7340   38.7860 H   0  0  0  0  0  0  0  0  0  0  0  0
   37.3870   24.7140   31.6340 C   0  0  0  0  0  2  0  0  0  0  0  0
   36.1710   25.4480   31.8030 N   0  0  0  0  0  4  0  0  0  0  0  0
   35.8800   25.5540   32.8010 H   0  0  0  0  0  0  0  0  0  0  0  0
   36.2780   26.7760   31.1950 C   0  0  0  0  0  2  0  0  0  0  0  0
   35.2860   27.2340   31.0680 H   0  0  0  0  0  0  0  0  0  0  0  0
   35.1210   24.7510   31.0830 C   0  0  0  0  0  2  0  0  0  0  0  0
   34.6420   23.9840   31.7480 H   0  0  0  0  0  0  0  0  0  0  0  0
  1  9  1  0  0  0  0
  2  7  1  0  0  0  0
  2  1  2  0  0  0  0
  3  2  1  0  0  0  0
  4  3  2  0  0  0  0
  4  5  1  0  0  0  0
  5  6  2  0  0  0  0
  6  1  1  0  0  0  0
  8  5  1  0  0  0  0
  9 11  1  0  0  0  0
 11 14  1  0  0  0  0
 11 10  2  0  0  0  0
 12 11  1  0  0  0  0
 13 12  1  0  0  0  0
 14 15  1  0  0  0  0
 16 17  1  0  0  0  0
 16  3  1  0  0  0  0
 17 18  1  0  0  0  0
 19 17  1  0  0  0  0
 20 19  1  0  0  0  0
 21 22  1  0  0  0  0
 21 17  1  0  0  0  0
M  END
>  <minimizedAffinity>
-4.09508753

$$$$

 OpenBabel03272506153D

 22 22  0  0  0  0  0  0  0  0999 V2000
   38.4250   24.5080   36.1450 C   0  0  0  0  0  0  0  0  0  0  0  0
   39.5320   23.6440   36.0420 C   0  0  0  0  0  0  0  0  0  0  0  0
   39.9120   22.9470   37.1900 C   0  0  0  0  0  0  0  0  0  0  0  0
   39.2110   23.1300   38.3390 N   0  0  0  0  0  0  0  0  0  0  0  0
   38.1520   23.9690   38.4020 C   0  0  0  0  0  0  0  0  0  0  0  0
   37.7510   24.6620   37.3110 N   0  0  0  0  0  0  0  0  0  0  0  0
   40.0030   23.5810   35.0940 H   0  0  0  0  0  0  0  0  0  0  0  0
   37.6540   24.0510   39.3600 H   0  0  0  0  0  0  0  0  0  0  0  0
   37.9160   25.2690   35.1140 O   0  0  0  0  0  0  0  0  0  0  0  0
   39.4020   27.2290   34.0180 O   0  0  0  0  0  0  0  0  0  0  0  0
   38.2590   26.9480   34.9610 P   0  0  0  0  0  0  0  0  0  0  0  0
   36.8220   27.6730   34.3850 O   0  0  0  0  0  0  0  0  0  0  0  0
   36.1450   27.6350   35.1030 H   0  0  0  0  0  0  0  0  0  0  0  0
   38.6950   27.5930   36.4550 O   0  0  0  0  0  0  0  0  0  0  0  0
   38.5720   28.5880   36.4230 H   0  0  0  0  0  0  0  0  0  0  0  0
   41.0610   22.0420   37.1050 C   0  0  0  0  0  2  0  0  0  0  0  0
   41.9650   22.3310   36.0350 N   0  0  0  0  0  4  0  0  0  0  0  0
   41.5470   22.9180   35.2790 H   0  0  0  0  0  0  0  0  0  0  0  0
   43.1710   22.9910   36.5380 C   0  0  0  0  0  2  0  0  0  0  0  0
   43.9780   22.9630   35.7910 H   0  0  0  0  0  0  0  0  0  0  0  0
   42.3970   21.0700   35.4600 C   0  0  0  0  0  2  0  0  0  0  0  0
   41.6870   20.7520   34.6510 H   0  0  0  0  0  0  0  0  0  0  0  0
  1  6  1  0  0  0  0
  2  1  2  0  0  0  0
  2  3  1  0  0  0  0
  3  4  2  0  0  0  0
  4  5  1  0  0  0  0
  5  8  1  0  0  0  0
  6  5  2  0  0  0  0
  7  2  1  0  0  0  0
  9  1  1  0  0  0  0
 10 11  2  0  0  0  0
 11  9  1  0  0  0  0
 11 14  1  0  0  0  0
 12 11  1  0  0  0  0
 12 13  1  0  0  0  0
 15 14  1  0  0  0  0
 16  3  1  0  0  0  0
 17 19  1  0  0  0  0
 17 16  1  0  0  0  0
 18 17  1  0  0  0  0
 20 19  1  0  0  0  0
 21 17  1  0  0  0  0
 22 21  1  0  0  0  0
M  END
>  <minimizedAffinity>
-4.09291553

$$$$

 OpenBabel03272506153D

 22 22  0  0  0  0  0  0  0  0999 V2000
   38.7860   24.8860   35.9130 C   0  0  0  0  0  0  0  0  0  0  0  0
   39.9540   24.8470   35.1290 C   0  0  0  0  0  0  0  0  0  0  0  0
   40.4640   26.0640   34.6730 C   0  0  0  0  0  0  0  0  0  0  0  0
   39.8210   27.2150   35.0000 N   0  0  0  0  0  0  0  0  0  0  0  0
   38.6990   27.2150   35.7560 C   0  0  0  0  0  0  0  0  0  0  0  0
   38.1740   26.0570   36.2170 N   0  0  0  0  0  0  0  0  0  0  0  0
   40.3700   23.8900   34.9370 H   0  0  0  0  0  0  0  0  0  0  0  0
   38.2560   28.1800   35.9650 H   0  0  0  0  0  0  0  0  0  0  0  0
   38.1500   23.7820   36.4430 O   0  0  0  0  0  0  0  0  0  0  0  0
   36.9790   22.6100   38.5650 O   0  0  0  0  0  0  0  0  0  0  0  0
   38.1540   23.4480   38.1310 P   0  0  0  0  0  0  0  0  0  0  0  0
   39.6190   22.6260   38.4460 O   0  0  0  0  0  0  0  0  0  0  0  0
   40.3650   23.2630   38.3300 H   0  0  0  0  0  0  0  0  0  0  0  0
   38.0760   24.8840   39.0100 O   0  0  0  0  0  0  0  0  0  0  0  0
   38.4020   24.7080   39.9420 H   0  0  0  0  0  0  0  0  0  0  0  0
   41.6790   26.0460   33.8560 C   0  0  0  0  0  2  0  0  0  0  0  0
   42.4170   27.2710   33.8650 N   0  0  0  0  0  4  0  0  0  0  0  0
   42.0720   27.9650   34.5660 H   0  0  0  0  0  0  0  0  0  0  0  0
   43.8400   27.0190   34.1050 C   0  0  0  0  0  2  0  0  0  0  0  0
   44.4480   27.8960   33.8380 H   0  0  0  0  0  0  0  0  0  0  0  0
   42.3230   27.8620   32.5420 C   0  0  0  0  0  2  0  0  0  0  0  0
   41.4150   28.5180   32.4770 H   0  0  0  0  0  0  0  0  0  0  0  0
  1  6  1  0  0  0  0
  1  9  1  0  0  0  0
  2  1  2  0  0  0  0
  3  4  2  0  0  0  0
  3  2  1  0  0  0  0
  4  5  1  0  0  0  0
  5  8  1  0  0  0  0
  5  6  2  0  0  0  0
  7  2  1  0  0  0  0
  9 11  1  0  0  0  0
 11 12  1  0  0  0  0
 11 10  2  0  0  0  0
 11 14  1  0  0  0  0
 13 12  1  0  0  0  0
 14 15  1  0  0  0  0
 16 17  1  0  0  0  0
 16  3  1  0  0  0  0
 17 19  1  0  0  0  0
 17 18  1  0  0  0  0
 20 19  1  0  0  0  0
 21 17  1  0  0  0  0
 22 21  1  0  0  0  0
M  END
>  <minimizedAffinity>
-4.07647753

$$$$

 OpenBabel03272506153D

 22 22  0  0  0  0  0  0  0  0999 V2000
   38.4610   24.2080   35.0860 C   0  0  0  0  0  0  0  0  0  0  0  0
   37.9140   25.2990   34.3830 C   0  0  0  0  0  0  0  0  0  0  0  0
   37.3470   25.0390   33.1340 C   0  0  0  0  0  0  0  0  0  0  0  0
   37.3470   23.7660   32.6580 N   0  0  0  0  0  0  0  0  0  0  0  0
   37.8820   22.7420   33.3620 C   0  0  0  0  0  0  0  0  0  0  0  0
   38.4410   22.9530   34.5760 N   0  0  0  0  0  0  0  0  0  0  0  0
   37.9710   26.2480   34.8520 H   0  0  0  0  0  0  0  0  0  0  0  0
   37.8370   21.7630   32.9030 H   0  0  0  0  0  0  0  0  0  0  0  0
   39.0570   24.2860   36.3280 O   0  0  0  0  0  0  0  0  0  0  0  0
   37.8700   24.5020   38.7340 O   0  0  0  0  0  0  0  0  0  0  0  0
   38.3860   23.5190   37.7140 P   0  0  0  0  0  0  0  0  0  0  0  0
   37.1110   22.5360   37.1390 O   0  0  0  0  0  0  0  0  0  0  0  0
   37.5020   21.7900   36.6220 H   0  0  0  0  0  0  0  0  0  0  0  0
   39.5550   22.5850   38.4890 O   0  0  0  0  0  0  0  0  0  0  0  0
   39.0940   21.9110   39.0700 H   0  0  0  0  0  0  0  0  0  0  0  0
   36.7720   26.1590   32.3850 C   0  0  0  0  0  2  0  0  0  0  0  0
   37.4550   27.4030   32.5620 N   0  0  0  0  0  4  0  0  0  0  0  0
   38.0710   27.4280   33.4070 H   0  0  0  0  0  0  0  0  0  0  0  0
   38.2560   27.7280   31.3800 C   0  0  0  0  0  2  0  0  0  0  0  0
   38.5520   28.7880   31.3820 H   0  0  0  0  0  0  0  0  0  0  0  0
   36.4570   28.4500   32.6830 C   0  0  0  0  0  2  0  0  0  0  0  0
   36.1530   28.5710   33.7570 H   0  0  0  0  0  0  0  0  0  0  0  0
  1  9  1  0  0  0  0
  2  7  1  0  0  0  0
  2  1  2  0  0  0  0
  3  2  1  0  0  0  0
  4  3  2  0  0  0  0
  4  5  1  0  0  0  0
  5  6  2  0  0  0  0
  6  1  1  0  0  0  0
  8  5  1  0  0  0  0
  9 11  1  0  0  0  0
 11 14  1  0  0  0  0
 11 10  2  0  0  0  0
 12 11  1  0  0  0  0
 13 12  1  0  0  0  0
 14 15  1  0  0  0  0
 16 17  1  0  0  0  0
 16  3  1  0  0  0  0
 17 21  1  0  0  0  0
 17 18  1  0  0  0  0
 19 20  1  0  0  0  0
 19 17  1  0  0  0  0
 21 22  1  0  0  0  0
M  END
>  <minimizedAffinity>
-4.0287652

$$$$

 OpenBabel03272506153D

 22 22  0  0  0  0  0  0  0  0999 V2000
   37.8180   26.2980   33.3430 C   0  0  0  0  0  0  0  0  0  0  0  0
   37.9140   25.0380   33.9660 C   0  0  0  0  0  0  0  0  0  0  0  0
   38.0600   25.0170   35.3540 C   0  0  0  0  0  0  0  0  0  0  0  0
   38.1040   26.1920   36.0340 N   0  0  0  0  0  0  0  0  0  0  0  0
   38.0080   27.3850   35.4020 C   0  0  0  0  0  0  0  0  0  0  0  0
   37.8660   27.4480   34.0580 N   0  0  0  0  0  0  0  0  0  0  0  0
   37.8680   24.1880   33.3340 H   0  0  0  0  0  0  0  0  0  0  0  0
   38.0540   28.2680   36.0260 H   0  0  0  0  0  0  0  0  0  0  0  0
   37.6700   26.5020   31.9870 O   0  0  0  0  0  0  0  0  0  0  0  0
   35.2240   25.7900   31.1170 O   0  0  0  0  0  0  0  0  0  0  0  0
   36.1640   26.9550   31.2890 P   0  0  0  0  0  0  0  0  0  0  0  0
   35.4860   28.1150   32.3450 O   0  0  0  0  0  0  0  0  0  0  0  0
   36.0280   28.9390   32.2930 H   0  0  0  0  0  0  0  0  0  0  0  0
   36.4050   27.6130   29.7570 O   0  0  0  0  0  0  0  0  0  0  0  0
   35.5990   28.1560   29.5100 H   0  0  0  0  0  0  0  0  0  0  0  0
   38.1610   23.7170   36.0220 C   0  0  0  0  0  2  0  0  0  0  0  0
   38.9030   23.7350   37.2450 N   0  0  0  0  0  4  0  0  0  0  0  0
   39.3770   24.6470   37.4340 H   0  0  0  0  0  0  0  0  0  0  0  0
   38.0400   23.4020   38.3800 C   0  0  0  0  0  2  0  0  0  0  0  0
   38.6360   23.1380   39.2660 H   0  0  0  0  0  0  0  0  0  0  0  0
   39.9100   22.6920   37.1740 C   0  0  0  0  0  2  0  0  0  0  0  0
   40.8480   23.0930   36.7080 H   0  0  0  0  0  0  0  0  0  0  0  0
  1  2  2  0  0  0  0
  1  6  1  0  0  0  0
  2  3  1  0  0  0  0
  3 16  1  0  0  0  0
  3  4  2  0  0  0  0
  5  8  1  0  0  0  0
  5  4  1  0  0  0  0
  6  5  2  0  0  0  0
  7  2  1  0  0  0  0
  9  1  1  0  0  0  0
 10 11  2  0  0  0  0
 11  9  1  0  0  0  0
 11 12  1  0  0  0  0
 13 12  1  0  0  0  0
 14 11  1  0  0  0  0
 15 14  1  0  0  0  0
 16 17  1  0  0  0  0
 17 18  1  0  0  0  0
 17 19  1  0  0  0  0
 19 20  1  0  0  0  0
 21 17  1  0  0  0  0
 22 21  1  0  0  0  0
M  END
>  <minimizedAffinity>
-3.91752672

$$$$

 OpenBabel03272506153D

 22 22  0  0  0  0  0  0  0  0999 V2000
   35.8240   22.2970   31.9470 C   0  0  0  0  0  0  0  0  0  0  0  0
   35.5270   23.5560   31.3900 C   0  0  0  0  0  0  0  0  0  0  0  0
   36.3190   24.6360   31.7830 C   0  0  0  0  0  0  0  0  0  0  0  0
   37.3260   24.4300   32.6720 N   0  0  0  0  0  0  0  0  0  0  0  0
   37.5830   23.2050   33.1860 C   0  0  0  0  0  0  0  0  0  0  0  0
   36.8390   22.1340   32.8300 N   0  0  0  0  0  0  0  0  0  0  0  0
   34.7170   23.5980   30.7070 H   0  0  0  0  0  0  0  0  0  0  0  0
   38.4060   23.1380   33.8870 H   0  0  0  0  0  0  0  0  0  0  0  0
   35.1460   21.1280   31.6690 O   0  0  0  0  0  0  0  0  0  0  0  0
   36.9150   19.1410   32.0780 O   0  0  0  0  0  0  0  0  0  0  0  0
   35.5380   19.6390   32.4370 P   0  0  0  0  0  0  0  0  0  0  0  0
   35.4310   19.9320   34.1170 O   0  0  0  0  0  0  0  0  0  0  0  0
   34.4820   20.0740   34.3490 H   0  0  0  0  0  0  0  0  0  0  0  0
   34.4520   18.4380   31.9710 O   0  0  0  0  0  0  0  0  0  0  0  0
   34.4830   17.6980   32.6460 H   0  0  0  0  0  0  0  0  0  0  0  0
   36.0280   25.9540   31.2160 C   0  0  0  0  0  2  0  0  0  0  0  0
   36.9250   26.9890   31.6290 N   0  0  0  0  0  4  0  0  0  0  0  0
   37.6850   26.6570   32.2650 H   0  0  0  0  0  0  0  0  0  0  0  0
   37.5300   27.6450   30.4680 C   0  0  0  0  0  2  0  0  0  0  0  0
   37.9900   28.6030   30.7510 H   0  0  0  0  0  0  0  0  0  0  0  0
   36.1530   28.0050   32.3190 C   0  0  0  0  0  2  0  0  0  0  0  0
   36.0800   27.7600   33.4110 H   0  0  0  0  0  0  0  0  0  0  0  0
  1  6  1  0  0  0  0
  2  3  1  0  0  0  0
  2  1  2  0  0  0  0
  3  4  2  0  0  0  0
  4  5  1  0  0  0  0
  5  8  1  0  0  0  0
  6  5  2  0  0  0  0
  7  2  1  0  0  0  0
  9  1  1  0  0  0  0
  9 11  1  0  0  0  0
 10 11  2  0  0  0  0
 11 12  1  0  0  0  0
 12 13  1  0  0  0  0
 14 11  1  0  0  0  0
 14 15  1  0  0  0  0
 16 17  1  0  0  0  0
 16  3  1  0  0  0  0
 17 18  1  0  0  0  0
 17 21  1  0  0  0  0
 19 20  1  0  0  0  0
 19 17  1  0  0  0  0
 21 22  1  0  0  0  0
M  END
>  <minimizedAffinity>
-3.8977859

$$$$

 OpenBabel03272506153D

 22 22  0  0  0  0  0  0  0  0999 V2000
   36.5220   28.0750   33.8540 C   0  0  0  0  0  0  0  0  0  0  0  0
   35.9550   29.1270   34.5970 C   0  0  0  0  0  0  0  0  0  0  0  0
   35.5570   30.2670   33.8970 C   0  0  0  0  0  0  0  0  0  0  0  0
   35.7330   30.3130   32.5510 N   0  0  0  0  0  0  0  0  0  0  0  0
   36.2820   29.2820   31.8690 C   0  0  0  0  0  0  0  0  0  0  0  0
   36.6800   28.1600   32.5100 N   0  0  0  0  0  0  0  0  0  0  0  0
   35.8670   28.9800   35.6440 H   0  0  0  0  0  0  0  0  0  0  0  0
   36.3820   29.4090   30.7980 H   0  0  0  0  0  0  0  0  0  0  0  0
   36.9670   26.8810   34.3830 O   0  0  0  0  0  0  0  0  0  0  0  0
   38.8690   25.2720   35.4030 O   0  0  0  0  0  0  0  0  0  0  0  0
   38.5660   26.6900   34.9900 P   0  0  0  0  0  0  0  0  0  0  0  0
   39.6110   27.1770   33.7280 O   0  0  0  0  0  0  0  0  0  0  0  0
   39.5190   28.1530   33.6080 H   0  0  0  0  0  0  0  0  0  0  0  0
   38.7910   27.6510   36.3550 O   0  0  0  0  0  0  0  0  0  0  0  0
   39.7750   27.7840   36.4960 H   0  0  0  0  0  0  0  0  0  0  0  0
   34.9640   31.3740   34.6520 C   0  0  0  0  0  2  0  0  0  0  0  0
   35.7290   31.7980   35.7830 N   0  0  0  0  0  4  0  0  0  0  0  0
   36.4210   31.0870   36.1130 H   0  0  0  0  0  0  0  0  0  0  0  0
   36.4330   33.0490   35.4950 C   0  0  0  0  0  2  0  0  0  0  0  0
   36.7870   33.5260   36.4210 H   0  0  0  0  0  0  0  0  0  0  0  0
   34.8070   32.0850   36.8670 C   0  0  0  0  0  2  0  0  0  0  0  0
   34.6110   31.1560   37.4640 H   0  0  0  0  0  0  0  0  0  0  0  0
  1  9  1  0  0  0  0
  1  2  1  0  0  0  0
  2  7  1  0  0  0  0
  3  2  2  0  0  0  0
  3 16  1  0  0  0  0
  4  3  1  0  0  0  0
  5  6  1  0  0  0  0
  5  4  2  0  0  0  0
  6  1  2  0  0  0  0
  8  5  1  0  0  0  0
  9 11  1  0  0  0  0
 11 10  2  0  0  0  0
 11 14  1  0  0  0  0
 12 11  1  0  0  0  0
 13 12  1  0  0  0  0
 14 15  1  0  0  0  0
 16 17  1  0  0  0  0
 17 18  1  0  0  0  0
 17 21  1  0  0  0  0
 19 17  1  0  0  0  0
 19 20  1  0  0  0  0
 21 22  1  0  0  0  0
M  END
>  <minimizedAffinity>
-3.8456037

$$$$
