
 OpenBabel03272502573D

 40 42  0  0  0  0  0  0  0  0999 V2000
   38.5950   24.6270   36.2110 C   0  0  0  0  0  0  0  0  0  0  0  0
   38.0100   24.4350   37.4450 C   0  0  0  0  0  0  0  0  0  0  0  0
   38.5550   23.5280   38.3460 C   0  0  0  0  0  0  0  0  0  0  0  0
   39.6830   22.8550   37.9340 C   0  0  0  0  0  0  0  0  0  0  0  0
   40.2770   23.0430   36.6940 C   0  0  0  0  0  0  0  0  0  0  0  0
   39.7010   23.9360   35.8690 N   0  0  0  0  0  0  0  0  0  0  0  0
   41.4310   22.2960   36.3810 N   0  0  0  0  0  0  0  0  0  0  0  0
   41.7590   21.1500   37.1920 C   0  0  0  0  0  0  0  0  0  0  0  0
   43.0900   20.6280   36.7120 C   0  0  0  0  0  0  0  0  0  0  0  0
   42.9800   20.2480   35.2450 C   0  0  0  0  0  0  0  0  0  0  0  0
   42.4910   21.3980   34.4270 C   0  0  0  0  0  0  0  0  0  0  0  0
   42.3170   22.6150   35.2840 C   0  0  0  0  0  0  0  0  0  0  0  0
   37.1250   25.0140   37.6750 H   0  0  0  0  0  0  0  0  0  0  0  0
   38.0800   23.3980   39.2990 H   0  0  0  0  0  0  0  0  0  0  0  0
   40.0560   22.1570   38.6970 H   0  0  0  0  0  0  0  0  0  0  0  0
   41.8990   21.3940   38.2680 H   0  0  0  0  0  0  0  0  0  0  0  0
   41.0240   20.3430   37.0140 H   0  0  0  0  0  0  0  0  0  0  0  0
   43.9140   21.3320   36.9030 H   0  0  0  0  0  0  0  0  0  0  0  0
   43.2630   19.6780   37.2610 H   0  0  0  0  0  0  0  0  0  0  0  0
   42.1840   19.4520   35.1990 H   0  0  0  0  0  0  0  0  0  0  0  0
   43.8790   19.7680   34.8640 H   0  0  0  0  0  0  0  0  0  0  0  0
   41.5720   21.2260   33.8640 H   0  0  0  0  0  0  0  0  0  0  0  0
   43.3040   21.6510   33.6880 H   0  0  0  0  0  0  0  0  0  0  0  0
   41.8540   23.4560   34.7280 H   0  0  0  0  0  0  0  0  0  0  0  0
   43.2680   22.9510   35.7540 H   0  0  0  0  0  0  0  0  0  0  0  0
   37.2010   27.7260   34.8300 C   0  0  0  0  0  0  0  0  0  0  0  0
   36.9010   27.3750   33.5160 C   0  0  0  0  0  0  0  0  0  0  0  0
   37.1760   26.0850   33.1110 C   0  0  0  0  0  0  0  0  0  0  0  0
   37.7300   25.2140   34.0210 N   0  0  0  0  0  0  0  0  0  0  0  0
   38.0080   25.5820   35.2820 C   0  0  0  0  0  0  0  0  0  0  0  0
   37.7380   26.8320   35.6600 N   0  0  0  0  0  0  0  0  0  0  0  0
   36.9730   28.7430   35.1110 H   0  0  0  0  0  0  0  0  0  0  0  0
   36.4690   28.0900   32.8420 H   0  0  0  0  0  0  0  0  0  0  0  0
   36.8710   25.6850   31.7360 C   0  0  0  0  0  2  0  0  0  0  0  0
   35.7740   24.7750   31.6010 N   0  0  0  0  0  4  0  0  0  0  0  0
   35.3830   24.6220   32.5730 H   0  0  0  0  0  0  0  0  0  0  0  0
   36.1830   23.4550   31.1590 C   0  0  0  0  0  2  0  0  0  0  0  0
   35.3730   22.7360   31.3750 H   0  0  0  0  0  0  0  0  0  0  0  0
   34.7010   25.2400   30.7740 C   0  0  0  0  0  2  0  0  0  0  0  0
   34.1380   24.3510   30.3930 H   0  0  0  0  0  0  0  0  0  0  0  0
  1  2  1  0  0  0  0
  2 13  1  0  0  0  0
  2  3  2  0  0  0  0
  3 14  1  0  0  0  0
  4  3  1  0  0  0  0
  4 15  1  0  0  0  0
  5  4  2  0  0  0  0
  6  1  2  0  0  0  0
  6  5  1  0  0  0  0
  7  5  1  0  0  0  0
  7  8  1  0  0  0  0
  8 16  1  0  0  0  0
  9 18  1  0  0  0  0
  9  8  1  0  0  0  0
  9 19  1  0  0  0  0
 10  9  1  0  0  0  0
 11 10  1  0  0  0  0
 11 12  1  0  0  0  0
 12 25  1  0  0  0  0
 12  7  1  0  0  0  0
 17  8  1  0  0  0  0
 20 10  1  0  0  0  0
 21 10  1  0  0  0  0
 22 11  1  0  0  0  0
 23 11  1  0  0  0  0
 24 12  1  0  0  0  0
 26 32  1  0  0  0  0
 26 31  1  0  0  0  0
 27 26  2  0  0  0  0
 28 27  1  0  0  0  0
 28 29  2  0  0  0  0
 29 30  1  0  0  0  0
 30 31  2  0  0  0  0
 30  1  1  0  0  0  0
 33 27  1  0  0  0  0
 34 28  1  0  0  0  0
 35 34  1  0  0  0  0
 35 36  1  0  0  0  0
 37 38  1  0  0  0  0
 37 35  1  0  0  0  0
 39 35  1  0  0  0  0
 40 39  1  0  0  0  0
M  END
>  <minimizedAffinity>
-5.69729996

$$$$

 OpenBabel03272502573D

 40 42  0  0  0  0  0  0  0  0999 V2000
   34.7420   29.6200   34.0340 C   0  0  0  0  0  0  0  0  0  0  0  0
   34.5090   29.9960   32.7290 C   0  0  0  0  0  0  0  0  0  0  0  0
   35.3270   29.5280   31.7080 C   0  0  0  0  0  0  0  0  0  0  0  0
   36.3540   28.6890   32.0790 C   0  0  0  0  0  0  0  0  0  0  0  0
   36.5950   28.3060   33.3900 C   0  0  0  0  0  0  0  0  0  0  0  0
   35.7660   28.7940   34.3310 N   0  0  0  0  0  0  0  0  0  0  0  0
   37.6780   27.4420   33.6510 N   0  0  0  0  0  0  0  0  0  0  0  0
   38.6790   27.2550   32.6310 C   0  0  0  0  0  0  0  0  0  0  0  0
   39.6330   26.1990   33.1290 C   0  0  0  0  0  0  0  0  0  0  0  0
   40.2600   26.6640   34.4330 C   0  0  0  0  0  0  0  0  0  0  0  0
   39.2120   27.0060   35.4400 C   0  0  0  0  0  0  0  0  0  0  0  0
   37.8460   26.7230   34.8940 C   0  0  0  0  0  0  0  0  0  0  0  0
   33.6750   30.6590   32.5410 H   0  0  0  0  0  0  0  0  0  0  0  0
   35.1240   29.8370   30.7000 H   0  0  0  0  0  0  0  0  0  0  0  0
   36.9570   28.3600   31.2190 H   0  0  0  0  0  0  0  0  0  0  0  0
   38.2690   26.8660   31.6730 H   0  0  0  0  0  0  0  0  0  0  0  0
   39.2710   28.1810   32.5130 H   0  0  0  0  0  0  0  0  0  0  0  0
   39.1600   25.2100   33.2200 H   0  0  0  0  0  0  0  0  0  0  0  0
   40.4610   26.1600   32.3890 H   0  0  0  0  0  0  0  0  0  0  0  0
   40.7980   27.6230   34.1830 H   0  0  0  0  0  0  0  0  0  0  0  0
   41.0360   25.9920   34.7930 H   0  0  0  0  0  0  0  0  0  0  0  0
   39.2360   28.0270   35.8260 H   0  0  0  0  0  0  0  0  0  0  0  0
   39.3490   26.3060   36.3130 H   0  0  0  0  0  0  0  0  0  0  0  0
   37.0420   27.0650   35.5770 H   0  0  0  0  0  0  0  0  0  0  0  0
   37.6960   25.6500   34.6420 H   0  0  0  0  0  0  0  0  0  0  0  0
   33.3160   31.7900   36.6250 C   0  0  0  0  0  0  0  0  0  0  0  0
   32.2240   31.0560   37.0810 C   0  0  0  0  0  0  0  0  0  0  0  0
   31.9810   29.8270   36.5020 C   0  0  0  0  0  0  0  0  0  0  0  0
   32.8270   29.3900   35.5090 N   0  0  0  0  0  0  0  0  0  0  0  0
   33.8730   30.1210   35.0900 C   0  0  0  0  0  0  0  0  0  0  0  0
   34.0950   31.3070   35.6570 N   0  0  0  0  0  0  0  0  0  0  0  0
   33.4730   32.7460   37.1010 H   0  0  0  0  0  0  0  0  0  0  0  0
   31.5910   31.4380   37.8600 H   0  0  0  0  0  0  0  0  0  0  0  0
   30.8410   29.0310   36.9600 C   0  0  0  0  0  2  0  0  0  0  0  0
   31.1860   27.8300   37.6590 N   0  0  0  0  0  4  0  0  0  0  0  0
   32.2330   27.8540   37.8100 H   0  0  0  0  0  0  0  0  0  0  0  0
   30.9560   26.6320   36.8750 C   0  0  0  0  0  2  0  0  0  0  0  0
   31.5180   25.7930   37.3250 H   0  0  0  0  0  0  0  0  0  0  0  0
   30.5710   27.6810   38.9440 C   0  0  0  0  0  2  0  0  0  0  0  0
   30.5450   26.5920   39.2000 H   0  0  0  0  0  0  0  0  0  0  0  0
  1  6  1  0  0  0  0
  1 30  1  0  0  0  0
  2  1  2  0  0  0  0
  3  4  2  0  0  0  0
  3  2  1  0  0  0  0
  4  5  1  0  0  0  0
  5  7  1  0  0  0  0
  5  6  2  0  0  0  0
  7 12  1  0  0  0  0
  8  9  1  0  0  0  0
  8  7  1  0  0  0  0
  9 18  1  0  0  0  0
  9 10  1  0  0  0  0
 10 21  1  0  0  0  0
 10 11  1  0  0  0  0
 11 22  1  0  0  0  0
 11 23  1  0  0  0  0
 12 11  1  0  0  0  0
 12 24  1  0  0  0  0
 13  2  1  0  0  0  0
 14  3  1  0  0  0  0
 15  4  1  0  0  0  0
 16  8  1  0  0  0  0
 17  8  1  0  0  0  0
 19  9  1  0  0  0  0
 20 10  1  0  0  0  0
 25 12  1  0  0  0  0
 26 27  1  0  0  0  0
 26 32  1  0  0  0  0
 27 33  1  0  0  0  0
 28 34  1  0  0  0  0
 28 27  2  0  0  0  0
 29 28  1  0  0  0  0
 30 29  2  0  0  0  0
 30 31  1  0  0  0  0
 31 26  2  0  0  0  0
 34 35  1  0  0  0  0
 35 36  1  0  0  0  0
 35 39  1  0  0  0  0
 37 38  1  0  0  0  0
 37 35  1  0  0  0  0
 39 40  1  0  0  0  0
M  END
>  <minimizedAffinity>
-5.39758921

$$$$

 OpenBabel03272502573D

 40 42  0  0  0  0  0  0  0  0999 V2000
   36.8940   27.8820   34.4250 C   0  0  0  0  0  0  0  0  0  0  0  0
   37.7680   27.6960   35.4750 C   0  0  0  0  0  0  0  0  0  0  0  0
   38.4750   26.5060   35.5960 C   0  0  0  0  0  0  0  0  0  0  0  0
   38.2490   25.5550   34.6260 C   0  0  0  0  0  0  0  0  0  0  0  0
   37.3710   25.7350   33.5670 C   0  0  0  0  0  0  0  0  0  0  0  0
   36.7180   26.9100   33.5070 N   0  0  0  0  0  0  0  0  0  0  0  0
   37.2200   24.6890   32.6330 N   0  0  0  0  0  0  0  0  0  0  0  0
   37.7060   23.3760   32.9760 C   0  0  0  0  0  0  0  0  0  0  0  0
   37.5270   22.5020   31.7600 C   0  0  0  0  0  0  0  0  0  0  0  0
   36.0550   22.4610   31.3840 C   0  0  0  0  0  0  0  0  0  0  0  0
   35.5140   23.8370   31.1810 C   0  0  0  0  0  0  0  0  0  0  0  0
   36.6000   24.8570   31.3380 C   0  0  0  0  0  0  0  0  0  0  0  0
   37.8760   28.5060   36.1850 H   0  0  0  0  0  0  0  0  0  0  0  0
   39.1490   26.3870   36.4230 H   0  0  0  0  0  0  0  0  0  0  0  0
   38.8420   24.6430   34.7880 H   0  0  0  0  0  0  0  0  0  0  0  0
   38.7930   23.3530   33.2080 H   0  0  0  0  0  0  0  0  0  0  0  0
   37.0750   22.9390   33.7710 H   0  0  0  0  0  0  0  0  0  0  0  0
   38.1660   22.8110   30.9190 H   0  0  0  0  0  0  0  0  0  0  0  0
   37.7890   21.4720   32.0820 H   0  0  0  0  0  0  0  0  0  0  0  0
   35.5270   22.0310   32.2830 H   0  0  0  0  0  0  0  0  0  0  0  0
   35.8440   21.7640   30.5760 H   0  0  0  0  0  0  0  0  0  0  0  0
   34.6700   24.1170   31.8140 H   0  0  0  0  0  0  0  0  0  0  0  0
   35.1750   23.9060   30.1080 H   0  0  0  0  0  0  0  0  0  0  0  0
   36.2100   25.8940   31.2980 H   0  0  0  0  0  0  0  0  0  0  0  0
   37.4190   24.7330   30.5960 H   0  0  0  0  0  0  0  0  0  0  0  0
   34.9110   30.6410   33.0420 C   0  0  0  0  0  0  0  0  0  0  0  0
   34.7850   31.5080   34.1240 C   0  0  0  0  0  0  0  0  0  0  0  0
   35.3770   31.1470   35.3170 C   0  0  0  0  0  0  0  0  0  0  0  0
   36.0590   29.9530   35.3770 N   0  0  0  0  0  0  0  0  0  0  0  0
   36.1630   29.1370   34.3160 C   0  0  0  0  0  0  0  0  0  0  0  0
   35.5860   29.4980   33.1700 N   0  0  0  0  0  0  0  0  0  0  0  0
   34.4350   30.9570   32.1260 H   0  0  0  0  0  0  0  0  0  0  0  0
   34.2430   32.4300   34.0290 H   0  0  0  0  0  0  0  0  0  0  0  0
   35.2630   32.0370   36.4730 C   0  0  0  0  0  2  0  0  0  0  0  0
   33.9320   32.4780   36.7660 N   0  0  0  0  0  4  0  0  0  0  0  0
   33.4930   32.7550   35.8430 H   0  0  0  0  0  0  0  0  0  0  0  0
   33.8980   33.6880   37.5660 C   0  0  0  0  0  2  0  0  0  0  0  0
   32.8940   34.1410   37.4910 H   0  0  0  0  0  0  0  0  0  0  0  0
   33.0860   31.4900   37.3650 C   0  0  0  0  0  2  0  0  0  0  0  0
   32.2720   32.0140   37.9260 H   0  0  0  0  0  0  0  0  0  0  0  0
  1  2  1  0  0  0  0
  2  3  2  0  0  0  0
  2 13  1  0  0  0  0
  3 14  1  0  0  0  0
  4 15  1  0  0  0  0
  4  3  1  0  0  0  0
  5  4  2  0  0  0  0
  6  5  1  0  0  0  0
  6  1  2  0  0  0  0
  7  8  1  0  0  0  0
  7  5  1  0  0  0  0
  8 16  1  0  0  0  0
  8 17  1  0  0  0  0
  9 19  1  0  0  0  0
  9  8  1  0  0  0  0
 10  9  1  0  0  0  0
 10 20  1  0  0  0  0
 11 12  1  0  0  0  0
 11 10  1  0  0  0  0
 11 22  1  0  0  0  0
 12  7  1  0  0  0  0
 18  9  1  0  0  0  0
 21 10  1  0  0  0  0
 23 11  1  0  0  0  0
 24 12  1  0  0  0  0
 25 12  1  0  0  0  0
 26 31  2  0  0  0  0
 26 27  1  0  0  0  0
 27 28  2  0  0  0  0
 28 29  1  0  0  0  0
 28 34  1  0  0  0  0
 30  1  1  0  0  0  0
 30 29  2  0  0  0  0
 31 30  1  0  0  0  0
 32 26  1  0  0  0  0
 33 27  1  0  0  0  0
 34 35  1  0  0  0  0
 35 39  1  0  0  0  0
 35 37  1  0  0  0  0
 36 35  1  0  0  0  0
 38 37  1  0  0  0  0
 39 40  1  0  0  0  0
M  END
>  <minimizedAffinity>
-5.24275684

$$$$

 OpenBabel03272502573D

 40 42  0  0  0  0  0  0  0  0999 V2000
   37.8830   26.9560   33.6320 C   0  0  0  0  0  0  0  0  0  0  0  0
   39.0170   27.0580   32.8540 C   0  0  0  0  0  0  0  0  0  0  0  0
   40.1150   26.2450   33.1060 C   0  0  0  0  0  0  0  0  0  0  0  0
   39.9960   25.3580   34.1540 C   0  0  0  0  0  0  0  0  0  0  0  0
   38.8580   25.2500   34.9410 C   0  0  0  0  0  0  0  0  0  0  0  0
   37.8300   26.0650   34.6430 N   0  0  0  0  0  0  0  0  0  0  0  0
   38.8520   24.3050   35.9870 N   0  0  0  0  0  0  0  0  0  0  0  0
   40.1040   23.7330   36.4150 C   0  0  0  0  0  0  0  0  0  0  0  0
   39.7840   22.6790   37.4450 C   0  0  0  0  0  0  0  0  0  0  0  0
   39.0490   23.3220   38.6090 C   0  0  0  0  0  0  0  0  0  0  0  0
   37.8310   24.0480   38.1410 C   0  0  0  0  0  0  0  0  0  0  0  0
   37.6500   23.8710   36.6640 C   0  0  0  0  0  0  0  0  0  0  0  0
   39.0110   27.7860   32.0540 H   0  0  0  0  0  0  0  0  0  0  0  0
   40.9850   26.3440   32.4870 H   0  0  0  0  0  0  0  0  0  0  0  0
   40.9020   24.7500   34.2930 H   0  0  0  0  0  0  0  0  0  0  0  0
   40.6510   23.2070   35.6030 H   0  0  0  0  0  0  0  0  0  0  0  0
   40.7090   24.5010   36.9310 H   0  0  0  0  0  0  0  0  0  0  0  0
   39.2340   21.8260   37.0210 H   0  0  0  0  0  0  0  0  0  0  0  0
   40.7610   22.3410   37.8510 H   0  0  0  0  0  0  0  0  0  0  0  0
   39.7550   24.0990   39.0190 H   0  0  0  0  0  0  0  0  0  0  0  0
   38.8800   22.6340   39.4350 H   0  0  0  0  0  0  0  0  0  0  0  0
   37.7880   25.1120   38.3790 H   0  0  0  0  0  0  0  0  0  0  0  0
   36.9410   23.5520   38.6250 H   0  0  0  0  0  0  0  0  0  0  0  0
   36.8150   24.4840   36.2670 H   0  0  0  0  0  0  0  0  0  0  0  0
   37.5100   22.8070   36.3710 H   0  0  0  0  0  0  0  0  0  0  0  0
   35.1250   28.6050   31.8640 C   0  0  0  0  0  0  0  0  0  0  0  0
   34.5900   29.4470   32.8350 C   0  0  0  0  0  0  0  0  0  0  0  0
   35.1740   29.4480   34.0860 C   0  0  0  0  0  0  0  0  0  0  0  0
   36.2500   28.6190   34.3080 N   0  0  0  0  0  0  0  0  0  0  0  0
   36.7420   27.8170   33.3510 C   0  0  0  0  0  0  0  0  0  0  0  0
   36.1680   27.8260   32.1480 N   0  0  0  0  0  0  0  0  0  0  0  0
   34.6410   28.6310   30.8980 H   0  0  0  0  0  0  0  0  0  0  0  0
   33.7490   30.0770   32.6140 H   0  0  0  0  0  0  0  0  0  0  0  0
   34.6360   30.3240   35.1280 C   0  0  0  0  0  2  0  0  0  0  0  0
   35.5520   31.3060   35.6230 N   0  0  0  0  0  4  0  0  0  0  0  0
   36.4090   30.7830   35.9590 H   0  0  0  0  0  0  0  0  0  0  0  0
   35.0610   31.9990   36.7980 C   0  0  0  0  0  2  0  0  0  0  0  0
   35.9080   32.4960   37.3040 H   0  0  0  0  0  0  0  0  0  0  0  0
   35.9890   32.2670   34.6540 C   0  0  0  0  0  2  0  0  0  0  0  0
   36.3220   33.1880   35.1950 H   0  0  0  0  0  0  0  0  0  0  0  0
  1  6  1  0  0  0  0
  2  3  1  0  0  0  0
  2  1  2  0  0  0  0
  3  4  2  0  0  0  0
  4 15  1  0  0  0  0
  4  5  1  0  0  0  0
  5  7  1  0  0  0  0
  6  5  2  0  0  0  0
  7  8  1  0  0  0  0
  7 12  1  0  0  0  0
  8 17  1  0  0  0  0
  8  9  1  0  0  0  0
  9 19  1  0  0  0  0
  9 10  1  0  0  0  0
 10 20  1  0  0  0  0
 10 21  1  0  0  0  0
 11 22  1  0  0  0  0
 11 10  1  0  0  0  0
 11 23  1  0  0  0  0
 12 11  1  0  0  0  0
 13  2  1  0  0  0  0
 14  3  1  0  0  0  0
 16  8  1  0  0  0  0
 18  9  1  0  0  0  0
 24 12  1  0  0  0  0
 25 12  1  0  0  0  0
 26 31  2  0  0  0  0
 26 27  1  0  0  0  0
 27 28  2  0  0  0  0
 28 29  1  0  0  0  0
 28 34  1  0  0  0  0
 30  1  1  0  0  0  0
 30 29  2  0  0  0  0
 31 30  1  0  0  0  0
 32 26  1  0  0  0  0
 33 27  1  0  0  0  0
 34 35  1  0  0  0  0
 35 36  1  0  0  0  0
 35 37  1  0  0  0  0
 37 38  1  0  0  0  0
 39 40  1  0  0  0  0
 39 35  1  0  0  0  0
M  END
>  <minimizedAffinity>
-5.22423601

$$$$

 OpenBabel03272502573D

 40 42  0  0  0  0  0  0  0  0999 V2000
   38.4160   24.6050   35.9280 C   0  0  0  0  0  0  0  0  0  0  0  0
   37.8010   24.5180   37.1580 C   0  0  0  0  0  0  0  0  0  0  0  0
   38.3370   23.7120   38.1550 C   0  0  0  0  0  0  0  0  0  0  0  0
   39.4900   23.0270   37.8380 C   0  0  0  0  0  0  0  0  0  0  0  0
   40.1140   23.1100   36.6020 C   0  0  0  0  0  0  0  0  0  0  0  0
   39.5450   23.9090   35.6810 N   0  0  0  0  0  0  0  0  0  0  0  0
   41.2910   22.3620   36.3920 N   0  0  0  0  0  0  0  0  0  0  0  0
   41.6170   21.3040   37.3150 C   0  0  0  0  0  0  0  0  0  0  0  0
   42.9710   20.7690   36.9220 C   0  0  0  0  0  0  0  0  0  0  0  0
   42.9100   20.2500   35.4950 C   0  0  0  0  0  0  0  0  0  0  0  0
   42.4220   21.3070   34.5600 C   0  0  0  0  0  0  0  0  0  0  0  0
   42.2010   22.5950   35.2930 C   0  0  0  0  0  0  0  0  0  0  0  0
   36.8990   25.0960   37.3090 H   0  0  0  0  0  0  0  0  0  0  0  0
   37.8380   23.6610   39.1040 H   0  0  0  0  0  0  0  0  0  0  0  0
   39.8540   22.4120   38.6740 H   0  0  0  0  0  0  0  0  0  0  0  0
   41.7220   21.6510   38.3670 H   0  0  0  0  0  0  0  0  0  0  0  0
   40.9030   20.4690   37.1950 H   0  0  0  0  0  0  0  0  0  0  0  0
   43.7760   21.5050   37.0670 H   0  0  0  0  0  0  0  0  0  0  0  0
   43.1460   19.8790   37.5630 H   0  0  0  0  0  0  0  0  0  0  0  0
   42.1300   19.4360   35.5040 H   0  0  0  0  0  0  0  0  0  0  0  0
   43.8280   19.7560   35.1850 H   0  0  0  0  0  0  0  0  0  0  0  0
   41.5220   21.0630   33.9910 H   0  0  0  0  0  0  0  0  0  0  0  0
   43.2500   21.5070   33.8220 H   0  0  0  0  0  0  0  0  0  0  0  0
   41.7380   23.3700   34.6480 H   0  0  0  0  0  0  0  0  0  0  0  0
   43.1310   22.9950   35.7540 H   0  0  0  0  0  0  0  0  0  0  0  0
   37.2310   25.8010   32.6700 C   0  0  0  0  0  0  0  0  0  0  0  0
   36.7430   27.0720   32.9610 C   0  0  0  0  0  0  0  0  0  0  0  0
   36.8220   27.5130   34.2670 C   0  0  0  0  0  0  0  0  0  0  0  0
   37.3770   26.6780   35.2100 N   0  0  0  0  0  0  0  0  0  0  0  0
   37.8380   25.4560   34.8970 C   0  0  0  0  0  0  0  0  0  0  0  0
   37.7540   25.0430   33.6330 N   0  0  0  0  0  0  0  0  0  0  0  0
   37.1510   25.4910   31.6380 H   0  0  0  0  0  0  0  0  0  0  0  0
   36.3190   27.6890   32.1910 H   0  0  0  0  0  0  0  0  0  0  0  0
   36.3190   28.8450   34.6060 C   0  0  0  0  0  2  0  0  0  0  0  0
   35.2390   29.3080   33.7880 N   0  0  0  0  0  4  0  0  0  0  0  0
   35.0780   28.5680   33.0480 H   0  0  0  0  0  0  0  0  0  0  0  0
   35.5660   30.5090   33.0430 C   0  0  0  0  0  2  0  0  0  0  0  0
   34.8390   30.6310   32.2190 H   0  0  0  0  0  0  0  0  0  0  0  0
   33.9990   29.5020   34.4780 C   0  0  0  0  0  2  0  0  0  0  0  0
   33.3830   30.2350   33.9000 H   0  0  0  0  0  0  0  0  0  0  0  0
  1  2  1  0  0  0  0
  2 13  1  0  0  0  0
  2  3  2  0  0  0  0
  3 14  1  0  0  0  0
  4  3  1  0  0  0  0
  4 15  1  0  0  0  0
  5  4  2  0  0  0  0
  6  1  2  0  0  0  0
  6  5  1  0  0  0  0
  7  5  1  0  0  0  0
  7  8  1  0  0  0  0
  8 16  1  0  0  0  0
  9 18  1  0  0  0  0
  9  8  1  0  0  0  0
  9 19  1  0  0  0  0
 10 20  1  0  0  0  0
 10  9  1  0  0  0  0
 11 12  1  0  0  0  0
 11 10  1  0  0  0  0
 12 25  1  0  0  0  0
 12  7  1  0  0  0  0
 17  8  1  0  0  0  0
 21 10  1  0  0  0  0
 22 11  1  0  0  0  0
 23 11  1  0  0  0  0
 24 12  1  0  0  0  0
 26 27  2  0  0  0  0
 26 31  1  0  0  0  0
 27 28  1  0  0  0  0
 28 34  1  0  0  0  0
 28 29  2  0  0  0  0
 30 29  1  0  0  0  0
 30  1  1  0  0  0  0
 31 30  2  0  0  0  0
 32 26  1  0  0  0  0
 33 27  1  0  0  0  0
 35 39  1  0  0  0  0
 35 34  1  0  0  0  0
 36 35  1  0  0  0  0
 37 35  1  0  0  0  0
 38 37  1  0  0  0  0
 40 39  1  0  0  0  0
M  END
>  <minimizedAffinity>
-5.19972897

$$$$

 OpenBabel03272502573D

 40 42  0  0  0  0  0  0  0  0999 V2000
   37.3770   25.0240   32.0710 C   0  0  0  0  0  0  0  0  0  0  0  0
   38.2420   25.2050   31.0130 C   0  0  0  0  0  0  0  0  0  0  0  0
   38.4790   24.1710   30.1160 C   0  0  0  0  0  0  0  0  0  0  0  0
   37.8120   22.9890   30.3500 C   0  0  0  0  0  0  0  0  0  0  0  0
   36.9400   22.7990   31.4130 C   0  0  0  0  0  0  0  0  0  0  0  0
   36.7540   23.8410   32.2440 N   0  0  0  0  0  0  0  0  0  0  0  0
   36.3130   21.5440   31.5520 N   0  0  0  0  0  0  0  0  0  0  0  0
   36.8320   20.4210   30.8130 C   0  0  0  0  0  0  0  0  0  0  0  0
   35.9030   19.2580   31.0560 C   0  0  0  0  0  0  0  0  0  0  0  0
   35.8540   18.9580   32.5440 C   0  0  0  0  0  0  0  0  0  0  0  0
   35.4630   20.1700   33.3240 C   0  0  0  0  0  0  0  0  0  0  0  0
   35.1660   21.3140   32.4020 C   0  0  0  0  0  0  0  0  0  0  0  0
   38.7180   26.1720   30.9150 H   0  0  0  0  0  0  0  0  0  0  0  0
   39.1570   24.3380   29.3010 H   0  0  0  0  0  0  0  0  0  0  0  0
   38.0490   22.2190   29.6010 H   0  0  0  0  0  0  0  0  0  0  0  0
   36.8390   20.5800   29.7130 H   0  0  0  0  0  0  0  0  0  0  0  0
   37.8160   20.1260   31.2220 H   0  0  0  0  0  0  0  0  0  0  0  0
   34.9030   19.4180   30.6250 H   0  0  0  0  0  0  0  0  0  0  0  0
   36.3870   18.3760   30.5820 H   0  0  0  0  0  0  0  0  0  0  0  0
   36.9130   18.7080   32.8360 H   0  0  0  0  0  0  0  0  0  0  0  0
   35.2800   18.0630   32.7760 H   0  0  0  0  0  0  0  0  0  0  0  0
   36.1770   20.5010   34.0810 H   0  0  0  0  0  0  0  0  0  0  0  0
   34.4930   19.9320   33.8470 H   0  0  0  0  0  0  0  0  0  0  0  0
   34.9760   22.2570   32.9530 H   0  0  0  0  0  0  0  0  0  0  0  0
   34.3190   21.1030   31.7120 H   0  0  0  0  0  0  0  0  0  0  0  0
   37.3690   27.0460   35.1310 C   0  0  0  0  0  0  0  0  0  0  0  0
   36.6940   28.1990   34.7420 C   0  0  0  0  0  0  0  0  0  0  0  0
   36.2450   28.2800   33.4390 C   0  0  0  0  0  0  0  0  0  0  0  0
   36.4880   27.2210   32.5950 N   0  0  0  0  0  0  0  0  0  0  0  0
   37.1430   26.1210   33.0000 C   0  0  0  0  0  0  0  0  0  0  0  0
   37.5700   26.0570   34.2610 N   0  0  0  0  0  0  0  0  0  0  0  0
   37.7050   27.0190   36.1570 H   0  0  0  0  0  0  0  0  0  0  0  0
   36.5280   29.0010   35.4370 H   0  0  0  0  0  0  0  0  0  0  0  0
   35.5310   29.4800   32.9990 C   0  0  0  0  0  2  0  0  0  0  0  0
   34.2930   29.7270   33.6770 N   0  0  0  0  0  4  0  0  0  0  0  0
   34.2680   29.0780   34.5120 H   0  0  0  0  0  0  0  0  0  0  0  0
   33.1330   29.3580   32.8900 C   0  0  0  0  0  2  0  0  0  0  0  0
   32.2560   29.2730   33.5570 H   0  0  0  0  0  0  0  0  0  0  0  0
   34.1300   31.0630   34.1650 C   0  0  0  0  0  2  0  0  0  0  0  0
   33.0350   31.2690   34.2730 H   0  0  0  0  0  0  0  0  0  0  0  0
  1  6  1  0  0  0  0
  1 30  1  0  0  0  0
  2  1  2  0  0  0  0
  3  4  2  0  0  0  0
  3  2  1  0  0  0  0
  4  5  1  0  0  0  0
  5  7  1  0  0  0  0
  5  6  2  0  0  0  0
  7 12  1  0  0  0  0
  8  9  1  0  0  0  0
  8 17  1  0  0  0  0
  8  7  1  0  0  0  0
  9 10  1  0  0  0  0
 10 21  1  0  0  0  0
 10 20  1  0  0  0  0
 10 11  1  0  0  0  0
 11 23  1  0  0  0  0
 11 22  1  0  0  0  0
 12 24  1  0  0  0  0
 12 11  1  0  0  0  0
 13  2  1  0  0  0  0
 14  3  1  0  0  0  0
 15  4  1  0  0  0  0
 16  8  1  0  0  0  0
 18  9  1  0  0  0  0
 19  9  1  0  0  0  0
 25 12  1  0  0  0  0
 26 32  1  0  0  0  0
 27 26  1  0  0  0  0
 27 33  1  0  0  0  0
 28 27  2  0  0  0  0
 29 30  2  0  0  0  0
 29 28  1  0  0  0  0
 30 31  1  0  0  0  0
 31 26  2  0  0  0  0
 34 28  1  0  0  0  0
 34 35  1  0  0  0  0
 35 39  1  0  0  0  0
 35 36  1  0  0  0  0
 37 38  1  0  0  0  0
 37 35  1  0  0  0  0
 39 40  1  0  0  0  0
M  END
>  <minimizedAffinity>
-5.08757782

$$$$

 OpenBabel03272502573D

 40 42  0  0  0  0  0  0  0  0999 V2000
   36.8450   27.8280   34.4120 C   0  0  0  0  0  0  0  0  0  0  0  0
   37.7420   27.6930   35.4500 C   0  0  0  0  0  0  0  0  0  0  0  0
   38.5040   26.5370   35.5720 C   0  0  0  0  0  0  0  0  0  0  0  0
   38.3060   25.5670   34.6150 C   0  0  0  0  0  0  0  0  0  0  0  0
   37.4040   25.6950   33.5680 C   0  0  0  0  0  0  0  0  0  0  0  0
   36.6990   26.8400   33.5070 N   0  0  0  0  0  0  0  0  0  0  0  0
   37.2870   24.6340   32.6480 N   0  0  0  0  0  0  0  0  0  0  0  0
   37.8370   23.3480   32.9960 C   0  0  0  0  0  0  0  0  0  0  0  0
   37.6790   22.4540   31.7910 C   0  0  0  0  0  0  0  0  0  0  0  0
   36.2050   22.3430   31.4390 C   0  0  0  0  0  0  0  0  0  0  0  0
   35.5990   23.6910   31.2310 C   0  0  0  0  0  0  0  0  0  0  0  0
   36.6410   24.7600   31.3610 C   0  0  0  0  0  0  0  0  0  0  0  0
   37.8250   28.5140   36.1500 H   0  0  0  0  0  0  0  0  0  0  0  0
   39.1950   26.4570   36.3890 H   0  0  0  0  0  0  0  0  0  0  0  0
   38.9410   24.6840   34.7770 H   0  0  0  0  0  0  0  0  0  0  0  0
   38.9270   23.3760   33.2110 H   0  0  0  0  0  0  0  0  0  0  0  0
   37.2380   22.8910   33.8050 H   0  0  0  0  0  0  0  0  0  0  0  0
   38.2910   22.7820   30.9380 H   0  0  0  0  0  0  0  0  0  0  0  0
   37.9920   21.4400   32.1190 H   0  0  0  0  0  0  0  0  0  0  0  0
   35.7110   21.8990   32.3500 H   0  0  0  0  0  0  0  0  0  0  0  0
   36.0130   21.6280   30.6410 H   0  0  0  0  0  0  0  0  0  0  0  0
   34.7530   23.9390   31.8740 H   0  0  0  0  0  0  0  0  0  0  0  0
   35.2410   23.7340   30.1620 H   0  0  0  0  0  0  0  0  0  0  0  0
   36.2040   25.7790   31.3160 H   0  0  0  0  0  0  0  0  0  0  0  0
   37.4530   24.6650   30.6070 H   0  0  0  0  0  0  0  0  0  0  0  0
   35.4210   31.1260   35.1550 C   0  0  0  0  0  0  0  0  0  0  0  0
   34.5630   31.3450   34.0810 C   0  0  0  0  0  0  0  0  0  0  0  0
   34.4760   30.3680   33.1110 C   0  0  0  0  0  0  0  0  0  0  0  0
   35.2380   29.2300   33.2540 N   0  0  0  0  0  0  0  0  0  0  0  0
   36.0560   29.0480   34.3020 C   0  0  0  0  0  0  0  0  0  0  0  0
   36.1310   30.0010   35.2310 N   0  0  0  0  0  0  0  0  0  0  0  0
   35.4630   31.9130   35.8940 H   0  0  0  0  0  0  0  0  0  0  0  0
   33.9880   32.2490   34.0120 H   0  0  0  0  0  0  0  0  0  0  0  0
   33.5820   30.5680   31.9680 C   0  0  0  0  0  2  0  0  0  0  0  0
   34.1760   31.2310   30.8470 N   0  0  0  0  0  4  0  0  0  0  0  0
   33.8070   30.7510   29.9780 H   0  0  0  0  0  0  0  0  0  0  0  0
   35.6140   31.0550   30.7810 C   0  0  0  0  0  2  0  0  0  0  0  0
   35.9620   31.3060   29.7630 H   0  0  0  0  0  0  0  0  0  0  0  0
   33.8640   32.6240   30.7340 C   0  0  0  0  0  2  0  0  0  0  0  0
   34.6690   33.1200   30.1360 H   0  0  0  0  0  0  0  0  0  0  0  0
  1  2  1  0  0  0  0
  2  3  2  0  0  0  0
  2 13  1  0  0  0  0
  3 14  1  0  0  0  0
  4 15  1  0  0  0  0
  4  3  1  0  0  0  0
  5  4  2  0  0  0  0
  6  5  1  0  0  0  0
  6  1  2  0  0  0  0
  7  8  1  0  0  0  0
  7  5  1  0  0  0  0
  8 16  1  0  0  0  0
  8 17  1  0  0  0  0
  9 19  1  0  0  0  0
  9  8  1  0  0  0  0
 10  9  1  0  0  0  0
 10 20  1  0  0  0  0
 11 12  1  0  0  0  0
 11 10  1  0  0  0  0
 11 22  1  0  0  0  0
 12  7  1  0  0  0  0
 18  9  1  0  0  0  0
 21 10  1  0  0  0  0
 23 11  1  0  0  0  0
 24 12  1  0  0  0  0
 25 12  1  0  0  0  0
 26 31  1  0  0  0  0
 26 32  1  0  0  0  0
 27 26  2  0  0  0  0
 28 29  2  0  0  0  0
 28 27  1  0  0  0  0
 29 30  1  0  0  0  0
 30  1  1  0  0  0  0
 30 31  2  0  0  0  0
 33 27  1  0  0  0  0
 34 28  1  0  0  0  0
 35 34  1  0  0  0  0
 36 35  1  0  0  0  0
 37 35  1  0  0  0  0
 38 37  1  0  0  0  0
 39 35  1  0  0  0  0
 40 39  1  0  0  0  0
M  END
>  <minimizedAffinity>
-4.9894042

$$$$

 OpenBabel03272502573D

 40 42  0  0  0  0  0  0  0  0999 V2000
   37.0270   28.0190   32.9310 C   0  0  0  0  0  0  0  0  0  0  0  0
   37.3210   28.3370   31.6220 C   0  0  0  0  0  0  0  0  0  0  0  0
   36.4510   29.1250   30.8790 C   0  0  0  0  0  0  0  0  0  0  0  0
   35.3090   29.5520   31.5210 C   0  0  0  0  0  0  0  0  0  0  0  0
   35.0060   29.2360   32.8370 C   0  0  0  0  0  0  0  0  0  0  0  0
   35.8910   28.4700   33.5010 N   0  0  0  0  0  0  0  0  0  0  0  0
   33.8060   29.7300   33.3880 N   0  0  0  0  0  0  0  0  0  0  0  0
   32.7950   30.2490   32.5010 C   0  0  0  0  0  0  0  0  0  0  0  0
   31.6930   30.8140   33.3620 C   0  0  0  0  0  0  0  0  0  0  0  0
   31.1320   29.7130   34.2460 C   0  0  0  0  0  0  0  0  0  0  0  0
   32.2120   29.0710   35.0530 C   0  0  0  0  0  0  0  0  0  0  0  0
   33.5260   29.7480   34.8060 C   0  0  0  0  0  0  0  0  0  0  0  0
   38.2450   27.9530   31.2100 H   0  0  0  0  0  0  0  0  0  0  0  0
   36.7030   29.3580   29.8630 H   0  0  0  0  0  0  0  0  0  0  0  0
   34.6700   30.1690   30.8710 H   0  0  0  0  0  0  0  0  0  0  0  0
   33.1500   31.0930   31.8700 H   0  0  0  0  0  0  0  0  0  0  0  0
   32.3460   29.4220   31.9200 H   0  0  0  0  0  0  0  0  0  0  0  0
   32.0160   31.6940   33.9390 H   0  0  0  0  0  0  0  0  0  0  0  0
   30.8730   31.0930   32.6650 H   0  0  0  0  0  0  0  0  0  0  0  0
   30.7420   28.9280   33.5380 H   0  0  0  0  0  0  0  0  0  0  0  0
   30.2630   30.0310   34.8180 H   0  0  0  0  0  0  0  0  0  0  0  0
   32.3360   27.9950   34.9150 H   0  0  0  0  0  0  0  0  0  0  0  0
   31.9680   29.2510   36.1390 H   0  0  0  0  0  0  0  0  0  0  0  0
   34.3660   29.2280   35.3090 H   0  0  0  0  0  0  0  0  0  0  0  0
   33.5180   30.8230   35.0970 H   0  0  0  0  0  0  0  0  0  0  0  0
   40.1120   26.3780   34.0450 C   0  0  0  0  0  0  0  0  0  0  0  0
   39.6900   25.6280   35.1390 C   0  0  0  0  0  0  0  0  0  0  0  0
   38.3560   25.6870   35.4900 C   0  0  0  0  0  0  0  0  0  0  0  0
   37.5150   26.4800   34.7440 N   0  0  0  0  0  0  0  0  0  0  0  0
   37.9530   27.1920   33.6930 C   0  0  0  0  0  0  0  0  0  0  0  0
   39.2430   27.1260   33.3660 N   0  0  0  0  0  0  0  0  0  0  0  0
   41.1620   26.3070   33.8010 H   0  0  0  0  0  0  0  0  0  0  0  0
   40.3830   25.0230   35.6920 H   0  0  0  0  0  0  0  0  0  0  0  0
   37.8810   24.9090   36.6360 C   0  0  0  0  0  2  0  0  0  0  0  0
   38.5180   23.6380   36.8080 N   0  0  0  0  0  4  0  0  0  0  0  0
   39.4540   23.6970   36.3170 H   0  0  0  0  0  0  0  0  0  0  0  0
   37.8190   22.5580   36.1390 C   0  0  0  0  0  2  0  0  0  0  0  0
   38.5000   21.6940   36.0400 H   0  0  0  0  0  0  0  0  0  0  0  0
   38.7690   23.2690   38.1690 C   0  0  0  0  0  2  0  0  0  0  0  0
   38.8510   22.1540   38.2230 H   0  0  0  0  0  0  0  0  0  0  0  0
  1  6  1  0  0  0  0
  1 30  1  0  0  0  0
  2  1  2  0  0  0  0
  3  4  2  0  0  0  0
  3  2  1  0  0  0  0
  4  5  1  0  0  0  0
  5  7  1  0  0  0  0
  5  6  2  0  0  0  0
  7 12  1  0  0  0  0
  8  9  1  0  0  0  0
  8  7  1  0  0  0  0
  9 18  1  0  0  0  0
  9 10  1  0  0  0  0
 10 21  1  0  0  0  0
 10 11  1  0  0  0  0
 11 23  1  0  0  0  0
 12 11  1  0  0  0  0
 12 25  1  0  0  0  0
 12 24  1  0  0  0  0
 13  2  1  0  0  0  0
 14  3  1  0  0  0  0
 15  4  1  0  0  0  0
 16  8  1  0  0  0  0
 17  8  1  0  0  0  0
 19  9  1  0  0  0  0
 20 10  1  0  0  0  0
 22 11  1  0  0  0  0
 26 27  1  0  0  0  0
 27 28  2  0  0  0  0
 27 33  1  0  0  0  0
 28 34  1  0  0  0  0
 29 28  1  0  0  0  0
 30 29  2  0  0  0  0
 31 30  1  0  0  0  0
 31 26  2  0  0  0  0
 32 26  1  0  0  0  0
 34 35  1  0  0  0  0
 35 39  1  0  0  0  0
 36 35  1  0  0  0  0
 37 35  1  0  0  0  0
 38 37  1  0  0  0  0
 39 40  1  0  0  0  0
M  END
>  <minimizedAffinity>
-4.98686123

$$$$

 OpenBabel03272502573D

 40 42  0  0  0  0  0  0  0  0999 V2000
   36.8320   27.8810   34.4650 C   0  0  0  0  0  0  0  0  0  0  0  0
   37.8070   27.7480   35.4310 C   0  0  0  0  0  0  0  0  0  0  0  0
   38.6250   26.6250   35.4520 C   0  0  0  0  0  0  0  0  0  0  0  0
   38.4030   25.6840   34.4700 C   0  0  0  0  0  0  0  0  0  0  0  0
   37.4240   25.8110   33.4950 C   0  0  0  0  0  0  0  0  0  0  0  0
   36.6660   26.9220   33.5310 N   0  0  0  0  0  0  0  0  0  0  0  0
   37.2890   24.7830   32.5410 N   0  0  0  0  0  0  0  0  0  0  0  0
   37.9190   23.5110   32.7950 C   0  0  0  0  0  0  0  0  0  0  0  0
   37.7150   22.6580   31.5670 C   0  0  0  0  0  0  0  0  0  0  0  0
   36.2260   22.4910   31.3140 C   0  0  0  0  0  0  0  0  0  0  0  0
   35.5480   23.8170   31.2060 C   0  0  0  0  0  0  0  0  0  0  0  0
   36.5470   24.9280   31.3080 C   0  0  0  0  0  0  0  0  0  0  0  0
   37.9020   28.5430   36.1580 H   0  0  0  0  0  0  0  0  0  0  0  0
   39.3760   26.5460   36.2150 H   0  0  0  0  0  0  0  0  0  0  0  0
   39.0870   24.8270   34.5500 H   0  0  0  0  0  0  0  0  0  0  0  0
   39.0190   23.5820   32.9350 H   0  0  0  0  0  0  0  0  0  0  0  0
   37.4000   22.9950   33.6240 H   0  0  0  0  0  0  0  0  0  0  0  0
   38.2500   23.0480   30.6880 H   0  0  0  0  0  0  0  0  0  0  0  0
   38.0950   21.6480   31.8300 H   0  0  0  0  0  0  0  0  0  0  0  0
   35.8180   21.9900   32.2380 H   0  0  0  0  0  0  0  0  0  0  0  0
   36.0100   21.8000   30.5020 H   0  0  0  0  0  0  0  0  0  0  0  0
   34.7400   23.9990   31.9160 H   0  0  0  0  0  0  0  0  0  0  0  0
   35.1130   23.8840   30.1670 H   0  0  0  0  0  0  0  0  0  0  0  0
   36.0640   25.9260   31.3370 H   0  0  0  0  0  0  0  0  0  0  0  0
   37.3080   24.9010   30.4960 H   0  0  0  0  0  0  0  0  0  0  0  0
   35.4640   31.1780   35.3060 C   0  0  0  0  0  0  0  0  0  0  0  0
   34.3770   31.2950   34.4440 C   0  0  0  0  0  0  0  0  0  0  0  0
   34.1180   30.2490   33.5810 C   0  0  0  0  0  0  0  0  0  0  0  0
   34.9440   29.1480   33.6180 N   0  0  0  0  0  0  0  0  0  0  0  0
   35.9850   29.0650   34.4610 C   0  0  0  0  0  0  0  0  0  0  0  0
   36.2230   30.0830   35.2880 N   0  0  0  0  0  0  0  0  0  0  0  0
   35.6350   32.0160   35.9650 H   0  0  0  0  0  0  0  0  0  0  0  0
   33.7610   32.1740   34.4520 H   0  0  0  0  0  0  0  0  0  0  0  0
   32.9820   30.3410   32.6620 C   0  0  0  0  0  2  0  0  0  0  0  0
   31.6980   30.1680   33.2720 N   0  0  0  0  0  4  0  0  0  0  0  0
   31.7750   30.5480   34.2570 H   0  0  0  0  0  0  0  0  0  0  0  0
   31.3340   28.7750   33.4420 C   0  0  0  0  0  2  0  0  0  0  0  0
   30.5130   28.7040   34.1780 H   0  0  0  0  0  0  0  0  0  0  0  0
   30.6250   30.8630   32.6260 C   0  0  0  0  0  2  0  0  0  0  0  0
   29.6650   30.3490   32.8820 H   0  0  0  0  0  0  0  0  0  0  0  0
  1  2  1  0  0  0  0
  2  3  2  0  0  0  0
  2 13  1  0  0  0  0
  3 14  1  0  0  0  0
  4 15  1  0  0  0  0
  4  3  1  0  0  0  0
  5  6  1  0  0  0  0
  5  4  2  0  0  0  0
  6  1  2  0  0  0  0
  7  8  1  0  0  0  0
  7  5  1  0  0  0  0
  8 16  1  0  0  0  0
  8 17  1  0  0  0  0
  9 19  1  0  0  0  0
  9  8  1  0  0  0  0
 10  9  1  0  0  0  0
 10 20  1  0  0  0  0
 11 12  1  0  0  0  0
 11 10  1  0  0  0  0
 11 22  1  0  0  0  0
 12 24  1  0  0  0  0
 12  7  1  0  0  0  0
 18  9  1  0  0  0  0
 21 10  1  0  0  0  0
 23 11  1  0  0  0  0
 25 12  1  0  0  0  0
 26 32  1  0  0  0  0
 27 33  1  0  0  0  0
 27 26  2  0  0  0  0
 28 29  2  0  0  0  0
 28 27  1  0  0  0  0
 29 30  1  0  0  0  0
 30  1  1  0  0  0  0
 30 31  2  0  0  0  0
 31 26  1  0  0  0  0
 34 35  1  0  0  0  0
 34 28  1  0  0  0  0
 35 37  1  0  0  0  0
 35 36  1  0  0  0  0
 37 38  1  0  0  0  0
 39 40  1  0  0  0  0
 39 35  1  0  0  0  0
M  END
>  <minimizedAffinity>
-4.97093773

$$$$
