
 OpenBabel03272507193D

 28 29  0  0  1  0  0  0  0  0999 V2000
   37.4670   31.2160   49.3960 C   0  0  0  0  0  0  0  0  0  0  0  0
   38.3640   32.2670   49.5170 C   0  0  0  0  0  0  0  0  0  0  0  0
   38.7840   32.8130   48.2860 C   0  0  0  0  0  0  0  0  0  0  0  0
   38.3170   32.3140   47.0940 N   0  0  0  0  0  0  0  0  0  0  0  0
   37.4400   31.2850   47.0350 C   0  0  0  0  0  0  0  0  0  0  0  0
   37.0090   30.7280   48.2180 N   0  0  0  0  0  0  0  0  0  0  0  0
   38.7070   32.6310   50.4540 H   0  0  0  0  0  0  0  0  0  0  0  0
   39.4830   33.6340   48.3150 H   0  0  0  0  0  0  0  0  0  0  0  0
   36.9750   30.6260   50.6810 C   0  0  1  0  0  0  0  0  0  0  0  0
   36.1350   29.4310   50.7120 C   0  0  2  0  0  0  0  0  0  0  0  0
   37.6010   29.2480   50.9690 C   0  0  0  0  0  0  0  0  0  0  0  0
   36.9890   31.3280   51.5510 H   0  0  0  0  0  0  0  0  0  0  0  0
   35.3810   29.4560   51.5470 H   0  0  0  0  0  0  0  0  0  0  0  0
   38.2380   28.7770   50.2220 H   0  0  0  0  0  0  0  0  0  0  0  0
   37.8210   29.0590   52.0540 H   0  0  0  0  0  0  0  0  0  0  0  0
   35.6060   28.9960   49.5050 O   0  0  0  0  0  0  0  0  0  0  0  0
   34.3800   28.4920   49.2270 C   0  0  0  0  0  0  0  0  0  0  0  0
   34.2240   27.4570   48.5430 O   0  0  0  0  0  0  0  0  0  0  0  0
   33.4230   29.3170   49.8210 N   0  0  0  0  0  0  0  0  0  0  0  0
   33.1600   29.3780   50.8150 H   0  0  0  0  0  0  0  0  0  0  0  0
   32.7700   30.0400   49.4150 H   0  0  0  0  0  0  0  0  0  0  0  0
   36.9480   30.7630   45.7350 C   0  0  0  0  0  2  0  0  0  0  0  0
   37.9450   30.6970   44.7240 N   0  0  0  0  0  4  0  0  0  0  0  0
   37.6310   30.0040   44.0070 H   0  0  0  0  0  0  0  0  0  0  0  0
   38.1130   31.9380   43.9900 C   0  0  0  0  0  2  0  0  0  0  0  0
   37.4090   31.9690   43.1110 H   0  0  0  0  0  0  0  0  0  0  0  0
   39.2010   30.2070   45.2450 C   0  0  0  0  0  2  0  0  0  0  0  0
   39.9660   30.3890   44.4560 H   0  0  0  0  0  0  0  0  0  0  0  0
  1  2  1  0  0  0  0
  1  9  1  0  0  0  0
  2  7  1  0  0  0  0
  3  8  1  0  0  0  0
  3  2  2  0  0  0  0
  4  3  1  0  0  0  0
  5  4  2  0  0  0  0
  5  6  1  0  0  0  0
  6  1  2  0  0  0  0
  9 10  1  0  0  0  0
  9 11  1  0  0  0  0
  9 12  1  1  0  0  0
 10 11  1  0  0  0  0
 10 13  1  1  0  0  0
 11 15  1  0  0  0  0
 14 11  1  0  0  0  0
 16 10  1  0  0  0  0
 17 16  1  0  0  0  0
 17 19  1  0  0  0  0
 18 17  2  0  0  0  0
 19 20  1  0  0  0  0
 21 19  1  0  0  0  0
 22  5  1  0  0  0  0
 23 27  1  0  0  0  0
 23 22  1  0  0  0  0
 24 23  1  0  0  0  0
 25 23  1  0  0  0  0
 26 25  1  0  0  0  0
 28 27  1  0  0  0  0
M  END
>  <minimizedAffinity>
-4.95199585

>  <minimizedRMSD>
0.766939163

$$$$
