
 OpenBabel03272506473D

 40 42  0  0  1  0  0  0  0  0999 V2000
   32.1530   28.5230   47.4320 C   0  0  2  0  0  0  0  0  0  0  0  0
   33.3980   28.3730   48.2540 C   0  0  1  0  0  0  0  0  0  0  0  0
   33.7970   27.0610   48.1700 O   0  0  0  0  0  0  0  0  0  0  0  0
   33.1100   26.4410   47.1310 C   0  0  0  0  0  0  0  0  0  0  0  0
   32.5020   27.5230   46.2750 C   0  0  1  0  0  0  0  0  0  0  0  0
   31.2440   28.1560   47.8860 H   0  0  0  0  0  0  0  0  0  0  0  0
   33.2280   28.7100   49.2970 H   0  0  0  0  0  0  0  0  0  0  0  0
   33.9280   25.9860   46.4810 H   0  0  0  0  0  0  0  0  0  0  0  0
   32.4490   25.6790   47.5020 H   0  0  0  0  0  0  0  0  0  0  0  0
   33.2070   28.0780   45.6580 H   0  0  0  0  0  0  0  0  0  0  0  0
   32.0700   29.8230   46.9030 O   0  0  0  0  0  0  0  0  0  0  0  0
   31.1060   30.0440   46.7880 H   0  0  0  0  0  0  0  0  0  0  0  0
   34.7050   29.4140   47.5020 S   0  0  0  0  0  0  0  0  0  0  0  0
   37.1340   29.3010   50.6170 C   0  0  0  0  0  0  0  0  0  0  0  0
   37.6260   30.5810   50.7480 C   0  0  0  0  0  0  0  0  0  0  0  0
   37.1920   31.5400   49.8300 C   0  0  0  0  0  0  0  0  0  0  0  0
   36.3170   31.1660   48.8690 N   0  0  0  0  0  0  0  0  0  0  0  0
   35.8540   29.8990   48.7710 C   0  0  0  0  0  0  0  0  0  0  0  0
   36.2610   28.9480   49.6500 N   0  0  0  0  0  0  0  0  0  0  0  0
   37.5150   28.5810   51.3660 H   0  0  0  0  0  0  0  0  0  0  0  0
   38.3250   30.9450   51.4840 H   0  0  0  0  0  0  0  0  0  0  0  0
   37.4640   32.5910   49.7710 H   0  0  0  0  0  0  0  0  0  0  0  0
   31.3650   27.0440   45.6850 O   0  0  0  0  0  0  0  0  0  0  0  0
   29.8070   29.0110   44.1500 Cl  0  0  0  0  0  0  0  0  0  0  0  0
   29.3100   28.0390   45.5110 C   0  0  0  0  0  0  0  0  0  0  0  0
   30.1260   27.1420   46.1580 C   0  0  0  0  0  0  0  0  0  0  0  0
   29.5940   26.4220   47.2260 C   0  0  0  0  0  0  0  0  0  0  0  0
   28.2870   26.6040   47.6230 C   0  0  0  0  0  0  0  0  0  0  0  0
   27.4570   27.4980   46.9800 C   0  0  0  0  0  0  0  0  0  0  0  0
   27.9910   28.2200   45.9070 C   0  0  0  0  0  0  0  0  0  0  0  0
   30.1750   25.7020   47.7760 H   0  0  0  0  0  0  0  0  0  0  0  0
   27.9040   26.0310   48.4540 H   0  0  0  0  0  0  0  0  0  0  0  0
   26.4580   27.6060   47.3310 H   0  0  0  0  0  0  0  0  0  0  0  0
   27.0300   29.1530   45.2670 C   0  0  0  0  0  2  0  0  0  0  0  0
   26.5130   28.7650   44.0050 N   0  0  0  0  0  4  0  0  0  0  0  0
   27.1650   28.2560   43.3660 H   0  0  0  0  0  0  0  0  0  0  0  0
   25.3190   27.9650   44.1230 C   0  0  0  0  0  2  0  0  0  0  0  0
   24.9810   27.5680   43.1360 H   0  0  0  0  0  0  0  0  0  0  0  0
   26.0690   30.0230   43.3680 C   0  0  0  0  0  2  0  0  0  0  0  0
   25.4740   29.7580   42.5030 H   0  0  0  0  0  0  0  0  0  0  0  0
  1  6  1  1  0  0  0
  1  2  1  0  0  0  0
  2  7  1  1  0  0  0
  3  2  1  0  0  0  0
  4  9  1  0  0  0  0
  4  3  1  0  0  0  0
  5 10  1  6  0  0  0
  5  4  1  0  0  0  0
  5  1  1  0  0  0  0
  8  4  1  0  0  0  0
 11  1  1  0  0  0  0
 12 11  1  0  0  0  0
 13  2  1  0  0  0  0
 13 18  1  0  0  0  0
 14 15  1  0  0  0  0
 14 20  1  0  0  0  0
 15 21  1  0  0  0  0
 16 15  2  0  0  0  0
 17 16  1  0  0  0  0
 18 17  2  0  0  0  0
 18 19  1  0  0  0  0
 19 14  2  0  0  0  0
 22 16  1  0  0  0  0
 23 26  1  0  0  0  0
 23  5  1  0  0  0  0
 24 25  1  0  0  0  0
 25 30  2  0  0  0  0
 25 26  1  0  0  0  0
 26 27  2  0  0  0  0
 27 28  1  0  0  0  0
 27 31  1  0  0  0  0
 28 32  1  0  0  0  0
 29 33  1  0  0  0  0
 29 28  2  0  0  0  0
 30 29  1  0  0  0  0
 34 30  1  0  0  0  0
 35 37  1  0  0  0  0
 35 34  1  0  0  0  0
 36 35  1  0  0  0  0
 38 37  1  0  0  0  0
 39 35  1  0  0  0  0
 40 39  1  0  0  0  0
M  END
>  <minimizedAffinity>
-4.72846603

>  <minimizedRMSD>
0.435044289

$$$$
