
 OpenBabel03272508053D

 33 35  0  0  0  0  0  0  0  0999 V2000
   38.9210   30.9110   45.7910 C   0  0  0  0  0  0  0  0  0  0  0  0
   40.1030   31.5610   46.0440 C   0  0  0  0  0  0  0  0  0  0  0  0
   40.9290   31.4890   44.9380 C   0  0  0  0  0  0  0  0  0  0  0  0
   40.1930   30.7790   44.0330 N   0  0  0  0  0  0  0  0  0  0  0  0
   39.0240   30.4400   44.5230 N   0  0  0  0  0  0  0  0  0  0  0  0
   40.3760   32.0670   46.9770 H   0  0  0  0  0  0  0  0  0  0  0  0
   41.9230   31.8760   44.7630 H   0  0  0  0  0  0  0  0  0  0  0  0
   37.7770   30.7490   46.6840 C   0  0  0  0  0  0  0  0  0  0  0  0
   37.9940   30.9660   48.0700 C   0  0  0  0  0  0  0  0  0  0  0  0
   36.9080   30.8140   48.9280 C   0  0  0  0  0  0  0  0  0  0  0  0
   35.7040   30.4640   48.3840 N   0  0  0  0  0  0  0  0  0  0  0  0
   35.5290   30.2650   47.0600 C   0  0  0  0  0  0  0  0  0  0  0  0
   36.5720   30.4090   46.2200 N   0  0  0  0  0  0  0  0  0  0  0  0
   38.9880   31.2440   48.4370 H   0  0  0  0  0  0  0  0  0  0  0  0
   34.5800   29.9920   46.6500 H   0  0  0  0  0  0  0  0  0  0  0  0
   37.1140   31.0370   50.3900 C   0  0  0  0  0  0  0  0  0  0  0  0
   36.5840   32.2770   50.6470 F   0  0  0  0  0  0  0  0  0  0  0  0
   36.4350   30.1070   51.1620 F   0  0  0  0  0  0  0  0  0  0  0  0
   38.4580   31.0430   50.7280 F   0  0  0  0  0  0  0  0  0  0  0  0
   40.5690   30.4000   42.6750 C   0  0  0  0  0  0  0  0  0  0  0  0
   40.2110   31.1890   41.5740 C   0  0  0  0  0  0  0  0  0  0  0  0
   40.5810   30.8220   40.3250 C   0  0  0  0  0  0  0  0  0  0  0  0
   41.3330   29.6280   40.1600 C   0  0  0  0  0  0  0  0  0  0  0  0
   41.4950   29.0330   41.9180 S   0  0  0  0  0  0  0  0  0  0  0  0
   39.6340   32.1130   41.6500 H   0  0  0  0  0  0  0  0  0  0  0  0
   40.4200   31.2680   39.3620 H   0  0  0  0  0  0  0  0  0  0  0  0
   41.9410   28.8480   39.0750 C   0  0  0  0  0  2  0  0  0  0  0  0
   40.9940   28.2460   38.1850 N   0  0  0  0  0  4  0  0  0  0  0  0
   41.4810   27.5260   37.6210 H   0  0  0  0  0  0  0  0  0  0  0  0
   39.9130   27.6870   38.9740 C   0  0  0  0  0  2  0  0  0  0  0  0
   39.5710   26.7420   38.5320 H   0  0  0  0  0  0  0  0  0  0  0  0
   40.4530   29.2350   37.2650 C   0  0  0  0  0  2  0  0  0  0  0  0
   40.1170   28.7160   36.3640 H   0  0  0  0  0  0  0  0  0  0  0  0
  1  2  1  0  0  0  0
  1  8  1  0  0  0  0
  2  6  1  0  0  0  0
  3  2  2  0  0  0  0
  4  5  1  0  0  0  0
  4  3  1  0  0  0  0
  5  1  2  0  0  0  0
  7  3  1  0  0  0  0
  8  9  1  0  0  0  0
  9 14  1  0  0  0  0
  9 10  2  0  0  0  0
 10 16  1  0  0  0  0
 11 10  1  0  0  0  0
 12 11  2  0  0  0  0
 13  8  2  0  0  0  0
 13 12  1  0  0  0  0
 15 12  1  0  0  0  0
 16 17  1  0  0  0  0
 16 19  1  0  0  0  0
 16 18  1  0  0  0  0
 20  4  1  0  0  0  0
 21 25  1  0  0  0  0
 21 20  2  0  0  0  0
 22 21  1  0  0  0  0
 23 22  2  0  0  0  0
 23 24  1  0  0  0  0
 24 20  1  0  0  0  0
 26 22  1  0  0  0  0
 27 23  1  0  0  0  0
 28 30  1  0  0  0  0
 28 27  1  0  0  0  0
 29 28  1  0  0  0  0
 31 30  1  0  0  0  0
 32 28  1  0  0  0  0
 33 32  1  0  0  0  0
M  END
>  <minimizedAffinity>
-5.76760197

>  <minimizedRMSD>
0.420541853

$$$$
