
 OpenBabel03272506473D

 40 42  0  0  1  0  0  0  0  0999 V2000
   32.2290   28.4100   47.4690 C   0  0  2  0  0  0  0  0  0  0  0  0
   33.4590   28.3880   48.3270 C   0  0  1  0  0  0  0  0  0  0  0  0
   33.9370   27.1000   48.3360 O   0  0  0  0  0  0  0  0  0  0  0  0
   33.3150   26.3750   47.3240 C   0  0  0  0  0  0  0  0  0  0  0  0
   32.6670   27.3620   46.3880 C   0  0  1  0  0  0  0  0  0  0  0  0
   31.3310   28.0180   47.9250 H   0  0  0  0  0  0  0  0  0  0  0  0
   33.2410   28.7790   49.3420 H   0  0  0  0  0  0  0  0  0  0  0  0
   34.1760   25.9300   46.7240 H   0  0  0  0  0  0  0  0  0  0  0  0
   32.6910   25.5990   47.7290 H   0  0  0  0  0  0  0  0  0  0  0  0
   33.3540   27.9190   45.7520 H   0  0  0  0  0  0  0  0  0  0  0  0
   32.0830   29.6670   46.8560 O   0  0  0  0  0  0  0  0  0  0  0  0
   31.1110   29.8210   46.7040 H   0  0  0  0  0  0  0  0  0  0  0  0
   34.7210   29.4570   47.5390 S   0  0  0  0  0  0  0  0  0  0  0  0
   37.2800   29.3280   50.5470 C   0  0  0  0  0  0  0  0  0  0  0  0
   37.7570   30.6130   50.6820 C   0  0  0  0  0  0  0  0  0  0  0  0
   37.2700   31.5810   49.8010 C   0  0  0  0  0  0  0  0  0  0  0  0
   36.3610   31.2100   48.8710 N   0  0  0  0  0  0  0  0  0  0  0  0
   35.9150   29.9380   48.7680 C   0  0  0  0  0  0  0  0  0  0  0  0
   36.3730   28.9780   49.6120 N   0  0  0  0  0  0  0  0  0  0  0  0
   37.7030   28.6000   51.2670 H   0  0  0  0  0  0  0  0  0  0  0  0
   38.4800   30.9750   51.3950 H   0  0  0  0  0  0  0  0  0  0  0  0
   37.5220   32.6380   49.7510 H   0  0  0  0  0  0  0  0  0  0  0  0
   31.5770   26.7790   45.8030 O   0  0  0  0  0  0  0  0  0  0  0  0
   30.0940   28.3560   43.8120 Cl  0  0  0  0  0  0  0  0  0  0  0  0
   29.5220   27.6590   45.3050 C   0  0  0  0  0  0  0  0  0  0  0  0
   30.3070   26.9320   46.1690 C   0  0  0  0  0  0  0  0  0  0  0  0
   29.7150   26.4230   47.3230 C   0  0  0  0  0  0  0  0  0  0  0  0
   28.3810   26.6410   47.5910 C   0  0  0  0  0  0  0  0  0  0  0  0
   27.5820   27.3650   46.7320 C   0  0  0  0  0  0  0  0  0  0  0  0
   28.1770   27.8750   45.5720 C   0  0  0  0  0  0  0  0  0  0  0  0
   30.2690   25.8430   48.0410 H   0  0  0  0  0  0  0  0  0  0  0  0
   27.9520   26.2330   48.4950 H   0  0  0  0  0  0  0  0  0  0  0  0
   26.5610   27.5110   46.9910 H   0  0  0  0  0  0  0  0  0  0  0  0
   27.2460   28.6340   44.6990 C   0  0  0  0  0  2  0  0  0  0  0  0
   26.5430   27.8870   43.7200 N   0  0  0  0  0  4  0  0  0  0  0  0
   26.8650   26.9070   43.5560 H   0  0  0  0  0  0  0  0  0  0  0  0
   25.1270   27.8350   43.9830 C   0  0  0  0  0  2  0  0  0  0  0  0
   24.5930   27.1540   43.2750 H   0  0  0  0  0  0  0  0  0  0  0  0
   26.6720   28.6720   42.4720 C   0  0  0  0  0  2  0  0  0  0  0  0
   25.9760   28.2570   41.7550 H   0  0  0  0  0  0  0  0  0  0  0  0
  1  6  1  1  0  0  0
  1  2  1  0  0  0  0
  2  3  1  0  0  0  0
  2  7  1  1  0  0  0
  4  9  1  0  0  0  0
  4  3  1  0  0  0  0
  5 10  1  6  0  0  0
  5  4  1  0  0  0  0
  5  1  1  0  0  0  0
  8  4  1  0  0  0  0
 11  1  1  0  0  0  0
 12 11  1  0  0  0  0
 13  2  1  0  0  0  0
 13 18  1  0  0  0  0
 14 15  1  0  0  0  0
 14 20  1  0  0  0  0
 15 21  1  0  0  0  0
 16 15  2  0  0  0  0
 17 16  1  0  0  0  0
 18 17  2  0  0  0  0
 18 19  1  0  0  0  0
 19 14  2  0  0  0  0
 22 16  1  0  0  0  0
 23 26  1  0  0  0  0
 23  5  1  0  0  0  0
 24 25  1  0  0  0  0
 25 30  2  0  0  0  0
 25 26  1  0  0  0  0
 26 27  2  0  0  0  0
 27 28  1  0  0  0  0
 27 31  1  0  0  0  0
 28 32  1  0  0  0  0
 29 33  1  0  0  0  0
 29 28  2  0  0  0  0
 30 29  1  0  0  0  0
 34 30  1  0  0  0  0
 35 37  1  0  0  0  0
 35 34  1  0  0  0  0
 36 35  1  0  0  0  0
 38 37  1  0  0  0  0
 39 35  1  0  0  0  0
 40 39  1  0  0  0  0
M  END
>  <minimizedAffinity>
-4.62392426

>  <minimizedRMSD>
0.589130938

$$$$
