
 OpenBabel03272507183D

 28 29  0  0  1  0  0  0  0  0999 V2000
   37.4880   31.4720   49.4040 C   0  0  0  0  0  0  0  0  0  0  0  0
   38.3070   32.5740   49.6030 C   0  0  0  0  0  0  0  0  0  0  0  0
   38.9230   33.0550   48.4280 C   0  0  0  0  0  0  0  0  0  0  0  0
   38.7000   32.4520   47.2140 N   0  0  0  0  0  0  0  0  0  0  0  0
   37.8890   31.3760   47.0790 C   0  0  0  0  0  0  0  0  0  0  0  0
   37.2720   30.8810   48.2050 N   0  0  0  0  0  0  0  0  0  0  0  0
   38.4590   33.0190   50.5550 H   0  0  0  0  0  0  0  0  0  0  0  0
   39.5730   33.9110   48.5190 H   0  0  0  0  0  0  0  0  0  0  0  0
   36.7930   30.9480   50.6220 C   0  0  1  0  0  0  0  0  0  0  0  0
   36.0870   29.6680   50.6200 C   0  0  2  0  0  0  0  0  0  0  0  0
   37.4750   29.6860   51.1870 C   0  0  0  0  0  0  0  0  0  0  0  0
   36.5520   31.7220   51.3910 H   0  0  0  0  0  0  0  0  0  0  0  0
   35.1740   29.6780   51.2760 H   0  0  0  0  0  0  0  0  0  0  0  0
   38.3000   29.2290   50.6430 H   0  0  0  0  0  0  0  0  0  0  0  0
   37.4750   29.6250   52.3080 H   0  0  0  0  0  0  0  0  0  0  0  0
   35.8740   29.0640   49.3880 O   0  0  0  0  0  0  0  0  0  0  0  0
   34.7120   28.7560   48.7630 C   0  0  0  0  0  0  0  0  0  0  0  0
   34.2970   27.5810   48.6710 O   0  0  0  0  0  0  0  0  0  0  0  0
   34.1420   29.9400   48.2900 N   0  0  0  0  0  0  0  0  0  0  0  0
   33.6490   30.6700   48.8240 H   0  0  0  0  0  0  0  0  0  0  0  0
   34.0830   30.3510   47.3200 H   0  0  0  0  0  0  0  0  0  0  0  0
   37.6630   30.7410   45.7560 C   0  0  0  0  0  2  0  0  0  0  0  0
   36.6890   31.4000   44.9560 N   0  0  0  0  0  4  0  0  0  0  0  0
   36.1620   32.0620   45.5700 H   0  0  0  0  0  0  0  0  0  0  0  0
   37.2580   32.2350   43.9150 C   0  0  0  0  0  2  0  0  0  0  0  0
   37.4480   33.2730   44.3080 H   0  0  0  0  0  0  0  0  0  0  0  0
   35.7160   30.4700   44.4290 C   0  0  0  0  0  2  0  0  0  0  0  0
   35.1330   31.0230   43.6570 H   0  0  0  0  0  0  0  0  0  0  0  0
  1  2  1  0  0  0  0
  1  9  1  0  0  0  0
  2  7  1  0  0  0  0
  3  8  1  0  0  0  0
  3  2  2  0  0  0  0
  4  3  1  0  0  0  0
  5  4  2  0  0  0  0
  5  6  1  0  0  0  0
  6  1  2  0  0  0  0
  9 11  1  0  0  0  0
  9 12  1  1  0  0  0
 10  9  1  0  0  0  0
 10 11  1  0  0  0  0
 10 13  1  1  0  0  0
 11 15  1  0  0  0  0
 14 11  1  0  0  0  0
 16 10  1  0  0  0  0
 17 16  1  0  0  0  0
 18 17  2  0  0  0  0
 19 17  1  0  0  0  0
 19 20  1  0  0  0  0
 21 19  1  0  0  0  0
 22  5  1  0  0  0  0
 23 24  1  0  0  0  0
 23 22  1  0  0  0  0
 25 26  1  0  0  0  0
 25 23  1  0  0  0  0
 27 23  1  0  0  0  0
 28 27  1  0  0  0  0
M  END
>  <minimizedAffinity>
-5.02986002

>  <minimizedRMSD>
1.53008246

$$$$
