
 OpenBabel03262523383D

 43 45  0  0  1  0  0  0  0  0999 V2000
   35.1980   30.0160   49.4670 C   0  0  2  0  0  0  0  0  0  0  0  0
   36.1440   31.1190   49.1710 C   0  0  0  0  0  0  0  0  0  0  0  0
   37.5940   30.7750   49.5150 C   0  0  2  0  0  0  0  0  0  0  0  0
   37.7020   30.5160   50.9940 C   0  0  0  0  0  0  0  0  0  0  0  0
   36.6180   29.5820   51.4930 C   0  0  0  0  0  0  0  0  0  0  0  0
   35.8370   28.9730   50.3570 C   0  0  0  0  0  0  0  0  0  0  0  0
   34.2560   30.3660   49.9830 H   0  0  0  0  0  0  0  0  0  0  0  0
   35.9060   31.9210   49.9600 H   0  0  0  0  0  0  0  0  0  0  0  0
   36.1470   31.6360   48.2530 H   0  0  0  0  0  0  0  0  0  0  0  0
   37.7950   29.8120   49.0030 H   0  0  0  0  0  0  0  0  0  0  0  0
   37.6050   31.4850   51.5150 H   0  0  0  0  0  0  0  0  0  0  0  0
   38.7160   30.1190   51.2230 H   0  0  0  0  0  0  0  0  0  0  0  0
   35.9310   30.0940   52.2120 H   0  0  0  0  0  0  0  0  0  0  0  0
   37.0860   28.7720   52.0700 H   0  0  0  0  0  0  0  0  0  0  0  0
   36.5280   28.3800   49.7450 H   0  0  0  0  0  0  0  0  0  0  0  0
   35.0150   28.3830   50.8110 H   0  0  0  0  0  0  0  0  0  0  0  0
   38.5400   31.7680   48.9830 C   0  0  2  0  0  0  0  0  0  0  0  0
   38.6000   33.0930   49.6830 C   0  0  0  0  0  0  0  0  0  0  0  0
   39.4760   33.8350   48.6500 C   0  0  0  0  0  0  0  0  0  0  0  0
   38.9660   33.4510   47.4290 O   0  0  0  0  0  0  0  0  0  0  0  0
   38.3630   32.2030   47.5770 C   0  0  1  0  0  0  0  0  0  0  0  0
   39.5670   31.3350   49.0890 H   0  0  0  0  0  0  0  0  0  0  0  0
   37.6100   33.5830   49.7460 H   0  0  0  0  0  0  0  0  0  0  0  0
   39.1170   33.0200   50.6420 H   0  0  0  0  0  0  0  0  0  0  0  0
   40.5170   33.4870   48.7630 H   0  0  0  0  0  0  0  0  0  0  0  0
   39.3290   34.9050   48.8520 H   0  0  0  0  0  0  0  0  0  0  0  0
   37.3510   32.2230   47.1840 H   0  0  0  0  0  0  0  0  0  0  0  0
   39.1450   31.2400   46.7080 C   0  0  0  0  0  2  0  0  0  0  0  0
   38.3480   30.5850   45.7070 N   0  0  0  0  0  4  0  0  0  0  0  0
   37.7860   29.8090   46.1210 H   0  0  0  0  0  0  0  0  0  0  0  0
   39.3190   30.0630   44.7330 C   0  0  0  0  0  2  0  0  0  0  0  0
   39.6460   29.0480   44.9770 H   0  0  0  0  0  0  0  0  0  0  0  0
   37.5500   31.5390   44.9600 C   0  0  0  0  0  2  0  0  0  0  0  0
   37.4690   31.2190   43.8990 H   0  0  0  0  0  0  0  0  0  0  0  0
   34.7220   29.3190   48.2510 C   0  0  0  0  0  0  0  0  0  0  0  0
   34.8840   30.0190   47.0550 C   0  0  0  0  0  0  0  0  0  0  0  0
   34.4760   29.4120   45.8850 C   0  0  0  0  0  0  0  0  0  0  0  0
   33.9260   28.1400   45.9410 N   0  0  0  0  0  0  0  0  0  0  0  0
   33.7850   27.4940   47.1260 C   0  0  0  0  0  0  0  0  0  0  0  0
   34.1820   28.0910   48.2420 N   0  0  0  0  0  0  0  0  0  0  0  0
   35.2590   30.9730   46.7320 H   0  0  0  0  0  0  0  0  0  0  0  0
   34.4860   29.7190   44.8550 H   0  0  0  0  0  0  0  0  0  0  0  0
   33.3590   26.5090   47.1820 H   0  0  0  0  0  0  0  0  0  0  0  0
  1  7  1  1  0  0  0
  1  6  1  0  0  0  0
  2  1  1  0  0  0  0
  2  3  1  0  0  0  0
  2  8  1  0  0  0  0
  3 10  1  6  0  0  0
  3  4  1  0  0  0  0
  4 12  1  0  0  0  0
  4  5  1  0  0  0  0
  4 11  1  0  0  0  0
  5 14  1  0  0  0  0
  5 13  1  0  0  0  0
  6 16  1  0  0  0  0
  6  5  1  0  0  0  0
  9  2  1  0  0  0  0
 15  6  1  0  0  0  0
 17 22  1  1  0  0  0
 17  3  1  0  0  0  0
 17 18  1  0  0  0  0
 18 23  1  0  0  0  0
 18 24  1  0  0  0  0
 19 25  1  0  0  0  0
 19 26  1  0  0  0  0
 19 18  1  0  0  0  0
 20 21  1  0  0  0  0
 20 19  1  0  0  0  0
 21 27  1  6  0  0  0
 21 17  1  0  0  0  0
 28 21  1  0  0  0  0
 29 30  1  0  0  0  0
 29 28  1  0  0  0  0
 31 32  1  0  0  0  0
 31 29  1  0  0  0  0
 33 29  1  0  0  0  0
 34 33  1  0  0  0  0
 35  1  1  0  0  0  0
 36 35  2  0  0  0  0
 37 38  2  0  0  0  0
 37 36  1  0  0  0  0
 38 39  1  0  0  0  0
 39 43  1  0  0  0  0
 39 40  2  0  0  0  0
 40 35  1  0  0  0  0
 41 36  1  0  0  0  0
 42 37  1  0  0  0  0
M  END
>  <minimizedAffinity>
-6.07066107

>  <minimizedRMSD>
1.6437248

$$$$
