
 OpenBabel03272506473D

 40 42  0  0  1  0  0  0  0  0999 V2000
   31.8230   28.3440   47.4130 C   0  0  2  0  0  0  0  0  0  0  0  0
   33.0870   27.9600   48.1220 C   0  0  1  0  0  0  0  0  0  0  0  0
   33.2840   26.6150   47.9230 O   0  0  0  0  0  0  0  0  0  0  0  0
   32.4430   26.1770   46.9040 C   0  0  0  0  0  0  0  0  0  0  0  0
   31.9410   27.3950   46.1710 C   0  0  1  0  0  0  0  0  0  0  0  0
   30.9030   28.0750   47.9140 H   0  0  0  0  0  0  0  0  0  0  0  0
   33.0400   28.2390   49.1950 H   0  0  0  0  0  0  0  0  0  0  0  0
   33.1400   25.6620   46.1640 H   0  0  0  0  0  0  0  0  0  0  0  0
   31.7060   25.4890   47.2770 H   0  0  0  0  0  0  0  0  0  0  0  0
   32.6750   27.8900   45.5370 H   0  0  0  0  0  0  0  0  0  0  0  0
   31.8920   29.6790   46.9770 O   0  0  0  0  0  0  0  0  0  0  0  0
   30.9650   30.0400   46.9530 H   0  0  0  0  0  0  0  0  0  0  0  0
   34.4750   28.8610   47.3380 S   0  0  0  0  0  0  0  0  0  0  0  0
   36.4640   29.3910   50.7110 C   0  0  0  0  0  0  0  0  0  0  0  0
   37.0320   30.6420   50.6130 C   0  0  0  0  0  0  0  0  0  0  0  0
   36.7950   31.3710   49.4450 C   0  0  0  0  0  0  0  0  0  0  0  0
   36.0260   30.8170   48.4810 N   0  0  0  0  0  0  0  0  0  0  0  0
   35.4840   29.5850   48.6120 C   0  0  0  0  0  0  0  0  0  0  0  0
   35.7000   28.8550   49.7370 N   0  0  0  0  0  0  0  0  0  0  0  0
   36.6880   28.8540   51.6530 H   0  0  0  0  0  0  0  0  0  0  0  0
   37.6550   31.1410   51.3380 H   0  0  0  0  0  0  0  0  0  0  0  0
   37.1520   32.3650   49.1850 H   0  0  0  0  0  0  0  0  0  0  0  0
   30.7090   27.1250   45.6430 O   0  0  0  0  0  0  0  0  0  0  0  0
   29.2970   29.5700   44.8160 Cl  0  0  0  0  0  0  0  0  0  0  0  0
   28.7960   28.3460   45.9530 C   0  0  0  0  0  0  0  0  0  0  0  0
   29.5400   27.2330   46.2680 C   0  0  0  0  0  0  0  0  0  0  0  0
   29.0120   26.3290   47.1870 C   0  0  0  0  0  0  0  0  0  0  0  0
   27.7800   26.5440   47.7660 C   0  0  0  0  0  0  0  0  0  0  0  0
   27.0230   27.6540   47.4570 C   0  0  0  0  0  0  0  0  0  0  0  0
   27.5530   28.5610   46.5320 C   0  0  0  0  0  0  0  0  0  0  0  0
   29.5380   25.4360   47.4770 H   0  0  0  0  0  0  0  0  0  0  0  0
   27.3980   25.8250   48.4760 H   0  0  0  0  0  0  0  0  0  0  0  0
   26.0820   27.7770   47.9380 H   0  0  0  0  0  0  0  0  0  0  0  0
   26.6720   29.7230   46.2510 C   0  0  0  0  0  2  0  0  0  0  0  0
   27.0150   30.9480   46.8770 N   0  0  0  0  0  4  0  0  0  0  0  0
   28.0150   31.0680   47.1560 H   0  0  0  0  0  0  0  0  0  0  0  0
   26.6520   32.0930   46.0800 C   0  0  0  0  0  2  0  0  0  0  0  0
   27.0250   33.0480   46.5220 H   0  0  0  0  0  0  0  0  0  0  0  0
   26.1490   31.0250   48.0730 C   0  0  0  0  0  2  0  0  0  0  0  0
   26.2180   32.0310   48.4610 H   0  0  0  0  0  0  0  0  0  0  0  0
  1  6  1  1  0  0  0
  1  2  1  0  0  0  0
  2  7  1  1  0  0  0
  3  2  1  0  0  0  0
  4  9  1  0  0  0  0
  4  3  1  0  0  0  0
  5 10  1  6  0  0  0
  5  4  1  0  0  0  0
  5  1  1  0  0  0  0
  8  4  1  0  0  0  0
 11  1  1  0  0  0  0
 12 11  1  0  0  0  0
 13  2  1  0  0  0  0
 13 18  1  0  0  0  0
 14 20  1  0  0  0  0
 15 14  1  0  0  0  0
 15 21  1  0  0  0  0
 16 15  2  0  0  0  0
 17 18  2  0  0  0  0
 17 16  1  0  0  0  0
 18 19  1  0  0  0  0
 19 14  2  0  0  0  0
 22 16  1  0  0  0  0
 23  5  1  0  0  0  0
 23 26  1  0  0  0  0
 24 25  1  0  0  0  0
 25 26  2  0  0  0  0
 25 30  1  0  0  0  0
 26 27  1  0  0  0  0
 27 31  1  0  0  0  0
 27 28  2  0  0  0  0
 28 32  1  0  0  0  0
 29 28  1  0  0  0  0
 29 33  1  0  0  0  0
 30 29  2  0  0  0  0
 34 30  1  0  0  0  0
 34 35  1  0  0  0  0
 35 36  1  0  0  0  0
 35 39  1  0  0  0  0
 37 38  1  0  0  0  0
 37 35  1  0  0  0  0
 39 40  1  0  0  0  0
M  END
>  <minimizedAffinity>
-4.91031551

>  <minimizedRMSD>
0.803148687

$$$$
