
 OpenBabel03272509393D

 28 29  0  0  1  0  0  0  0  0999 V2000
   38.9470   24.5310   35.9270 C   0  0  0  0  0  0  0  0  0  0  0  0
   38.1240   25.6420   36.1170 C   0  0  0  0  0  0  0  0  0  0  0  0
   38.4940   26.9230   35.7000 C   0  0  0  0  0  0  0  0  0  0  0  0
   39.7440   27.0710   35.0730 C   0  0  0  0  0  0  0  0  0  0  0  0
   40.5360   25.9620   34.8970 C   0  0  0  0  0  0  0  0  0  0  0  0
   40.1720   24.6900   35.3060 C   0  0  0  0  0  0  0  0  0  0  0  0
   37.1550   25.5000   36.6110 H   0  0  0  0  0  0  0  0  0  0  0  0
   37.8080   27.7140   35.8870 H   0  0  0  0  0  0  0  0  0  0  0  0
   39.9250   28.0990   34.7980 H   0  0  0  0  0  0  0  0  0  0  0  0
   41.4470   26.2870   34.4130 H   0  0  0  0  0  0  0  0  0  0  0  0
   38.4630   23.2500   36.4230 C   0  0  1  0  0  3  0  0  0  0  0  0
   38.9010   22.9320   37.5890 O   0  0  0  0  0  1  0  0  0  0  0  0
   35.7140   20.9300   36.0170 C   0  0  0  0  0  0  0  0  0  0  0  0
   35.7070   20.6530   34.6370 C   0  0  0  0  0  0  0  0  0  0  0  0
   36.6690   21.2660   33.8340 C   0  0  0  0  0  0  0  0  0  0  0  0
   37.5860   22.1110   34.3970 N   0  0  0  0  0  0  0  0  0  0  0  0
   37.5590   22.3500   35.7190 C   0  0  0  0  0  0  0  0  0  0  0  0
   36.6370   21.7590   36.4710 N   0  0  0  0  0  0  0  0  0  0  0  0
   34.9500   20.4310   36.5790 H   0  0  0  0  0  0  0  0  0  0  0  0
   35.0260   20.0040   34.1040 H   0  0  0  0  0  0  0  0  0  0  0  0
   36.7680   21.1320   32.7600 H   0  0  0  0  0  0  0  0  0  0  0  0
   41.0840   23.5940   35.0370 C   0  0  0  0  0  2  0  0  0  0  0  0
   41.8300   23.1390   36.2260 N   0  0  0  0  0  4  0  0  0  0  0  0
   41.3240   23.2760   37.1030 H   0  0  0  0  0  0  0  0  0  0  0  0
   41.8790   21.6730   36.0300 C   0  0  0  0  0  2  0  0  0  0  0  0
   42.7570   21.4710   35.3450 H   0  0  0  0  0  0  0  0  0  0  0  0
   43.2050   23.5520   36.2210 C   0  0  0  0  0  2  0  0  0  0  0  0
   43.4890   23.8020   37.2890 H   0  0  0  0  0  0  0  0  0  0  0  0
  1  2  1  0  0  0  0
  1 11  1  0  0  0  0
  2  7  1  0  0  0  0
  3  8  1  0  0  0  0
  3  2  2  0  0  0  0
  4  3  1  0  0  0  0
  5  4  2  0  0  0  0
  5  6  1  0  0  0  0
  6  1  2  0  0  0  0
  9  4  1  0  0  0  0
 10  5  1  0  0  0  0
 11 12  1  1  0  0  0
 13 18  1  0  0  0  0
 13 19  1  0  0  0  0
 14 13  2  0  0  0  0
 15 16  2  0  0  0  0
 15 14  1  0  0  0  0
 16 17  1  0  0  0  0
 17 11  1  0  0  0  0
 17 18  2  0  0  0  0
 20 14  1  0  0  0  0
 21 15  1  0  0  0  0
 22  6  1  0  0  0  0
 22 23  1  0  0  0  0
 23 24  1  0  0  0  0
 25 23  1  0  0  0  0
 26 25  1  0  0  0  0
 27 23  1  0  0  0  0
 27 28  1  0  0  0  0
M  END
>  <minimizedAffinity>
-4.68066072

$$$$

 OpenBabel03272509393D

 28 29  0  0  0  0  0  0  0  0999 V2000
   39.7650   23.1500   36.3650 C   0  0  0  0  0  0  0  0  0  0  0  0
   40.4830   22.2190   37.1160 C   0  0  0  0  0  0  0  0  0  0  0  0
   41.8740   22.1140   37.0400 C   0  0  0  0  0  0  0  0  0  0  0  0
   42.5490   22.9870   36.1690 C   0  0  0  0  0  0  0  0  0  0  0  0
   41.8200   23.8950   35.4390 C   0  0  0  0  0  0  0  0  0  0  0  0
   40.4400   24.0040   35.5130 C   0  0  0  0  0  0  0  0  0  0  0  0
   39.9330   21.5480   37.7870 H   0  0  0  0  0  0  0  0  0  0  0  0
   42.3410   21.3760   37.6460 H   0  0  0  0  0  0  0  0  0  0  0  0
   43.6140   22.8160   36.1890 H   0  0  0  0  0  0  0  0  0  0  0  0
   42.5150   24.4560   34.8300 H   0  0  0  0  0  0  0  0  0  0  0  0
   38.3160   23.1500   36.5110 C   0  0  0  0  0  0  0  0  0  0  0  0
   37.8650   24.0180   37.3440 O   0  0  0  0  0  0  0  0  0  0  0  0
   36.8820   21.3830   33.6950 C   0  0  0  0  0  0  0  0  0  0  0  0
   35.8240   20.6480   34.2610 C   0  0  0  0  0  0  0  0  0  0  0  0
   35.5930   20.7680   35.6310 C   0  0  0  0  0  0  0  0  0  0  0  0
   36.3880   21.5870   36.3850 N   0  0  0  0  0  0  0  0  0  0  0  0
   37.3890   22.2720   35.8070 C   0  0  0  0  0  0  0  0  0  0  0  0
   37.5970   22.1480   34.5010 N   0  0  0  0  0  0  0  0  0  0  0  0
   37.0100   21.2470   32.6400 H   0  0  0  0  0  0  0  0  0  0  0  0
   35.1460   19.9780   33.7490 H   0  0  0  0  0  0  0  0  0  0  0  0
   34.8080   20.2560   36.1830 H   0  0  0  0  0  0  0  0  0  0  0  0
   39.7870   25.0230   34.7140 C   0  0  0  0  0  2  0  0  0  0  0  0
   40.1100   26.4010   35.1330 N   0  0  0  0  0  4  0  0  0  0  0  0
   40.9670   26.4710   35.6840 H   0  0  0  0  0  0  0  0  0  0  0  0
   40.4200   27.0620   33.8450 C   0  0  0  0  0  2  0  0  0  0  0  0
   39.4280   27.3800   33.4010 H   0  0  0  0  0  0  0  0  0  0  0  0
   38.9730   27.1160   35.6420 C   0  0  0  0  0  2  0  0  0  0  0  0
   39.3340   27.7640   36.4980 H   0  0  0  0  0  0  0  0  0  0  0  0
  1 11  1  0  0  0  0
  1  2  1  0  0  0  0
  2  7  1  0  0  0  0
  3  2  2  0  0  0  0
  3  8  1  0  0  0  0
  4  9  1  0  0  0  0
  4  3  1  0  0  0  0
  5  6  1  0  0  0  0
  5  4  2  0  0  0  0
  6  1  2  0  0  0  0
 10  5  1  0  0  0  0
 11 12  2  0  0  0  0
 13 14  2  0  0  0  0
 13 18  1  0  0  0  0
 14 15  1  0  0  0  0
 15 21  1  0  0  0  0
 15 16  2  0  0  0  0
 17 16  1  0  0  0  0
 17 11  1  0  0  0  0
 18 17  2  0  0  0  0
 19 13  1  0  0  0  0
 20 14  1  0  0  0  0
 22 23  1  0  0  0  0
 22  6  1  0  0  0  0
 23 27  1  0  0  0  0
 23 24  1  0  0  0  0
 25 23  1  0  0  0  0
 26 25  1  0  0  0  0
 27 28  1  0  0  0  0
M  END
>  <minimizedAffinity>
-4.6058259

$$$$

 OpenBabel03272509393D

 28 29  0  0  0  0  0  0  0  0999 V2000
   38.7450   25.2560   35.7610 C   0  0  0  0  0  0  0  0  0  0  0  0
   37.9290   24.7500   36.7730 C   0  0  0  0  0  0  0  0  0  0  0  0
   38.2360   23.5730   37.4610 C   0  0  0  0  0  0  0  0  0  0  0  0
   39.4130   22.8940   37.1000 C   0  0  0  0  0  0  0  0  0  0  0  0
   40.2010   23.4120   36.1010 C   0  0  0  0  0  0  0  0  0  0  0  0
   39.9020   24.5800   35.4180 C   0  0  0  0  0  0  0  0  0  0  0  0
   37.0150   25.2980   37.0340 H   0  0  0  0  0  0  0  0  0  0  0  0
   37.5570   23.2590   38.2150 H   0  0  0  0  0  0  0  0  0  0  0  0
   39.5470   22.0020   37.6920 H   0  0  0  0  0  0  0  0  0  0  0  0
   41.0400   22.7430   35.9690 H   0  0  0  0  0  0  0  0  0  0  0  0
   38.3100   26.4790   35.1010 C   0  0  0  0  0  0  0  0  0  0  0  0
   38.7240   27.5600   35.6570 O   0  0  0  0  0  0  0  0  0  0  0  0
   36.2270   28.0260   32.5760 C   0  0  0  0  0  0  0  0  0  0  0  0
   35.9250   26.9710   31.6950 C   0  0  0  0  0  0  0  0  0  0  0  0
   36.4370   25.7050   31.9780 C   0  0  0  0  0  0  0  0  0  0  0  0
   37.2110   25.5180   33.0900 N   0  0  0  0  0  0  0  0  0  0  0  0
   37.4770   26.5510   33.9070 C   0  0  0  0  0  0  0  0  0  0  0  0
   36.9820   27.7510   33.6240 N   0  0  0  0  0  0  0  0  0  0  0  0
   35.8070   28.9730   32.3030 H   0  0  0  0  0  0  0  0  0  0  0  0
   35.3260   27.0220   30.7950 H   0  0  0  0  0  0  0  0  0  0  0  0
   36.2730   24.8130   31.3780 H   0  0  0  0  0  0  0  0  0  0  0  0
   40.8290   25.0390   34.4020 C   0  0  0  0  0  2  0  0  0  0  0  0
   41.6460   26.1930   34.8240 N   0  0  0  0  0  4  0  0  0  0  0  0
   41.4200   26.5330   35.7600 H   0  0  0  0  0  0  0  0  0  0  0  0
   42.9980   25.6010   34.9400 C   0  0  0  0  0  2  0  0  0  0  0  0
   43.4410   25.6110   33.8980 H   0  0  0  0  0  0  0  0  0  0  0  0
   41.7750   27.1960   33.8040 C   0  0  0  0  0  2  0  0  0  0  0  0
   41.7570   28.2060   34.3160 H   0  0  0  0  0  0  0  0  0  0  0  0
  1  2  1  0  0  0  0
  2  7  1  0  0  0  0
  2  3  2  0  0  0  0
  3  8  1  0  0  0  0
  4  3  1  0  0  0  0
  4  9  1  0  0  0  0
  5  4  2  0  0  0  0
  6  1  2  0  0  0  0
  6  5  1  0  0  0  0
 10  5  1  0  0  0  0
 11 12  2  0  0  0  0
 11  1  1  0  0  0  0
 13 18  1  0  0  0  0
 14 15  1  0  0  0  0
 14 13  2  0  0  0  0
 15 16  2  0  0  0  0
 16 17  1  0  0  0  0
 17 11  1  0  0  0  0
 18 17  2  0  0  0  0
 19 13  1  0  0  0  0
 20 14  1  0  0  0  0
 21 15  1  0  0  0  0
 22 23  1  0  0  0  0
 22  6  1  0  0  0  0
 23 25  1  0  0  0  0
 23 24  1  0  0  0  0
 26 25  1  0  0  0  0
 27 28  1  0  0  0  0
 27 23  1  0  0  0  0
M  END
>  <minimizedAffinity>
-4.5332737

$$$$

 OpenBabel03272509393D

 28 29  0  0  1  0  0  0  0  0999 V2000
   37.8480   23.7620   33.2500 C   0  0  0  0  0  0  0  0  0  0  0  0
   37.1880   22.6500   32.7260 C   0  0  0  0  0  0  0  0  0  0  0  0
   36.1190   22.7700   31.8340 C   0  0  0  0  0  0  0  0  0  0  0  0
   35.7130   24.0660   31.4700 C   0  0  0  0  0  0  0  0  0  0  0  0
   36.3790   25.1450   31.9990 C   0  0  0  0  0  0  0  0  0  0  0  0
   37.4410   25.0310   32.8820 C   0  0  0  0  0  0  0  0  0  0  0  0
   37.5220   21.6500   33.0270 H   0  0  0  0  0  0  0  0  0  0  0  0
   35.6720   21.8710   31.4850 H   0  0  0  0  0  0  0  0  0  0  0  0
   34.8820   24.0380   30.7820 H   0  0  0  0  0  0  0  0  0  0  0  0
   35.9120   26.0390   31.6090 H   0  0  0  0  0  0  0  0  0  0  0  0
   38.9330   23.5120   34.1890 C   0  0  1  0  0  3  0  0  0  0  0  0
   40.0800   23.3280   33.6390 O   0  0  0  0  0  1  0  0  0  0  0  0
   39.9100   22.7770   37.5960 C   0  0  0  0  0  0  0  0  0  0  0  0
   38.8490   23.2860   38.3690 C   0  0  0  0  0  0  0  0  0  0  0  0
   37.7760   23.8830   37.7070 C   0  0  0  0  0  0  0  0  0  0  0  0
   37.7760   23.9600   36.3410 N   0  0  0  0  0  0  0  0  0  0  0  0
   38.8090   23.4620   35.6400 C   0  0  0  0  0  0  0  0  0  0  0  0
   39.8240   22.8970   36.2840 N   0  0  0  0  0  0  0  0  0  0  0  0
   40.7050   22.3330   38.1620 H   0  0  0  0  0  0  0  0  0  0  0  0
   38.7600   23.2730   39.4470 H   0  0  0  0  0  0  0  0  0  0  0  0
   36.9000   24.3090   38.1900 H   0  0  0  0  0  0  0  0  0  0  0  0
   38.0800   26.2460   33.3490 C   0  0  0  0  0  2  0  0  0  0  0  0
   37.5540   26.7340   34.6390 N   0  0  0  0  0  4  0  0  0  0  0  0
   37.2140   25.9900   35.2490 H   0  0  0  0  0  0  0  0  0  0  0  0
   38.7700   27.2560   35.3020 C   0  0  0  0  0  2  0  0  0  0  0  0
   38.9200   28.3080   34.9130 H   0  0  0  0  0  0  0  0  0  0  0  0
   36.6970   27.8780   34.5020 C   0  0  0  0  0  2  0  0  0  0  0  0
   35.8640   27.7730   35.2630 H   0  0  0  0  0  0  0  0  0  0  0  0
  1 11  1  0  0  0  0
  2  7  1  0  0  0  0
  2  1  2  0  0  0  0
  3  2  1  0  0  0  0
  4  3  2  0  0  0  0
  4  5  1  0  0  0  0
  5  6  2  0  0  0  0
  6  1  1  0  0  0  0
  6 22  1  0  0  0  0
  8  3  1  0  0  0  0
  9  4  1  0  0  0  0
 10  5  1  0  0  0  0
 11 12  1  1  0  0  0
 11 17  1  0  0  0  0
 13 19  1  0  0  0  0
 13 14  1  0  0  0  0
 14 20  1  0  0  0  0
 15 21  1  0  0  0  0
 15 14  2  0  0  0  0
 16 15  1  0  0  0  0
 17 18  1  0  0  0  0
 17 16  2  0  0  0  0
 18 13  2  0  0  0  0
 22 23  1  0  0  0  0
 23 24  1  0  0  0  0
 23 25  1  0  0  0  0
 26 25  1  0  0  0  0
 27 23  1  0  0  0  0
 27 28  1  0  0  0  0
M  END
>  <minimizedAffinity>
-4.51644707

$$$$

 OpenBabel03272509393D

 28 29  0  0  0  0  0  0  0  0999 V2000
   36.9660   21.6080   33.1900 C   0  0  0  0  0  0  0  0  0  0  0  0
   36.3210   20.4970   33.7360 C   0  0  0  0  0  0  0  0  0  0  0  0
   35.1970   19.9200   33.1400 C   0  0  0  0  0  0  0  0  0  0  0  0
   34.7180   20.4980   31.9510 C   0  0  0  0  0  0  0  0  0  0  0  0
   35.3700   21.5910   31.4320 C   0  0  0  0  0  0  0  0  0  0  0  0
   36.4860   22.1650   32.0180 C   0  0  0  0  0  0  0  0  0  0  0  0
   36.7130   20.0670   34.6660 H   0  0  0  0  0  0  0  0  0  0  0  0
   34.7670   19.0770   33.6240 H   0  0  0  0  0  0  0  0  0  0  0  0
   33.8500   19.9740   31.5830 H   0  0  0  0  0  0  0  0  0  0  0  0
   34.8450   21.8870   30.5350 H   0  0  0  0  0  0  0  0  0  0  0  0
   38.1140   22.1350   33.9130 C   0  0  0  0  0  0  0  0  0  0  0  0
   39.2480   21.6830   33.5140 O   0  0  0  0  0  0  0  0  0  0  0  0
   37.9300   23.2810   37.3430 C   0  0  0  0  0  0  0  0  0  0  0  0
   37.9990   24.6820   37.2350 C   0  0  0  0  0  0  0  0  0  0  0  0
   38.1010   25.2440   35.9620 C   0  0  0  0  0  0  0  0  0  0  0  0
   38.1300   24.4320   34.8610 N   0  0  0  0  0  0  0  0  0  0  0  0
   38.0630   23.0980   35.0070 C   0  0  0  0  0  0  0  0  0  0  0  0
   37.9660   22.5780   36.2250 N   0  0  0  0  0  0  0  0  0  0  0  0
   37.8550   22.9110   38.3460 H   0  0  0  0  0  0  0  0  0  0  0  0
   37.9840   25.4020   38.0420 H   0  0  0  0  0  0  0  0  0  0  0  0
   38.1590   26.3080   35.7490 H   0  0  0  0  0  0  0  0  0  0  0  0
   37.1030   23.3000   31.3580 C   0  0  0  0  0  2  0  0  0  0  0  0
   36.6690   24.6040   31.8950 N   0  0  0  0  0  4  0  0  0  0  0  0
   36.6330   24.6350   32.9150 H   0  0  0  0  0  0  0  0  0  0  0  0
   37.7910   25.4930   31.5180 C   0  0  0  0  0  2  0  0  0  0  0  0
   37.5980   25.8160   30.4500 H   0  0  0  0  0  0  0  0  0  0  0  0
   35.5300   25.1460   31.2080 C   0  0  0  0  0  2  0  0  0  0  0  0
   34.8800   25.6610   31.9790 H   0  0  0  0  0  0  0  0  0  0  0  0
  1  2  1  0  0  0  0
  1 11  1  0  0  0  0
  2  7  1  0  0  0  0
  3  8  1  0  0  0  0
  3  2  2  0  0  0  0
  4  3  1  0  0  0  0
  5  4  2  0  0  0  0
  5  6  1  0  0  0  0
  6  1  2  0  0  0  0
  9  4  1  0  0  0  0
 10  5  1  0  0  0  0
 11 17  1  0  0  0  0
 12 11  2  0  0  0  0
 13 19  1  0  0  0  0
 14 13  1  0  0  0  0
 14 20  1  0  0  0  0
 15 14  2  0  0  0  0
 16 17  2  0  0  0  0
 16 15  1  0  0  0  0
 17 18  1  0  0  0  0
 18 13  2  0  0  0  0
 21 15  1  0  0  0  0
 22 23  1  0  0  0  0
 22  6  1  0  0  0  0
 23 24  1  0  0  0  0
 25 23  1  0  0  0  0
 26 25  1  0  0  0  0
 27 23  1  0  0  0  0
 27 28  1  0  0  0  0
M  END
>  <minimizedAffinity>
-4.47666693

$$$$

 OpenBabel03272509393D

 28 29  0  0  0  0  0  0  0  0999 V2000
   38.9010   24.3020   36.0350 C   0  0  0  0  0  0  0  0  0  0  0  0
   37.9640   24.7630   36.9610 C   0  0  0  0  0  0  0  0  0  0  0  0
   37.9180   24.2900   38.2740 C   0  0  0  0  0  0  0  0  0  0  0  0
   38.8580   23.3150   38.6510 C   0  0  0  0  0  0  0  0  0  0  0  0
   39.7710   22.8770   37.7220 C   0  0  0  0  0  0  0  0  0  0  0  0
   39.8220   23.3450   36.4190 C   0  0  0  0  0  0  0  0  0  0  0  0
   37.2390   25.5220   36.6410 H   0  0  0  0  0  0  0  0  0  0  0  0
   37.1700   24.6940   38.9120 H   0  0  0  0  0  0  0  0  0  0  0  0
   38.7280   23.0220   39.6810 H   0  0  0  0  0  0  0  0  0  0  0  0
   40.3880   22.1290   38.2000 H   0  0  0  0  0  0  0  0  0  0  0  0
   38.8360   24.8530   34.6890 C   0  0  0  0  0  0  0  0  0  0  0  0
   39.6760   25.7980   34.4600 O   0  0  0  0  0  0  0  0  0  0  0  0
   36.4320   25.2100   32.0060 C   0  0  0  0  0  0  0  0  0  0  0  0
   36.1980   23.8880   31.5840 C   0  0  0  0  0  0  0  0  0  0  0  0
   36.8690   22.8560   32.2400 C   0  0  0  0  0  0  0  0  0  0  0  0
   37.7290   23.1460   33.2630 N   0  0  0  0  0  0  0  0  0  0  0  0
   37.9260   24.4220   33.6350 C   0  0  0  0  0  0  0  0  0  0  0  0
   37.2800   25.3950   33.0020 N   0  0  0  0  0  0  0  0  0  0  0  0
   35.8890   25.9580   31.4620 H   0  0  0  0  0  0  0  0  0  0  0  0
   35.5410   23.5620   30.7890 H   0  0  0  0  0  0  0  0  0  0  0  0
   36.7710   21.7980   32.0090 H   0  0  0  0  0  0  0  0  0  0  0  0
   40.8520   22.8250   35.5410 C   0  0  0  0  0  2  0  0  0  0  0  0
   42.0060   23.7300   35.3800 N   0  0  0  0  0  4  0  0  0  0  0  0
   41.8760   24.6410   35.8230 H   0  0  0  0  0  0  0  0  0  0  0  0
   43.0540   23.0560   36.1800 C   0  0  0  0  0  2  0  0  0  0  0  0
   43.5160   22.2730   35.5060 H   0  0  0  0  0  0  0  0  0  0  0  0
   42.5270   23.7480   34.0420 C   0  0  0  0  0  2  0  0  0  0  0  0
   42.8470   24.8110   33.8160 H   0  0  0  0  0  0  0  0  0  0  0  0
  1  6  2  0  0  0  0
  1  2  1  0  0  0  0
  2  3  2  0  0  0  0
  3  4  1  0  0  0  0
  3  8  1  0  0  0  0
  4  9  1  0  0  0  0
  5 10  1  0  0  0  0
  5  4  2  0  0  0  0
  6  5  1  0  0  0  0
  7  2  1  0  0  0  0
 11  1  1  0  0  0  0
 12 11  2  0  0  0  0
 13 18  1  0  0  0  0
 14 13  2  0  0  0  0
 14 15  1  0  0  0  0
 15 16  2  0  0  0  0
 16 17  1  0  0  0  0
 17 11  1  0  0  0  0
 18 17  2  0  0  0  0
 19 13  1  0  0  0  0
 20 14  1  0  0  0  0
 21 15  1  0  0  0  0
 22  6  1  0  0  0  0
 23 22  1  0  0  0  0
 23 24  1  0  0  0  0
 23 25  1  0  0  0  0
 26 25  1  0  0  0  0
 27 23  1  0  0  0  0
 28 27  1  0  0  0  0
M  END
>  <minimizedAffinity>
-4.45989323

$$$$

 OpenBabel03272509393D

 28 29  0  0  0  0  0  0  0  0999 V2000
   37.1610   24.6700   32.4350 C   0  0  0  0  0  0  0  0  0  0  0  0
   36.8020   26.0020   32.2260 C   0  0  0  0  0  0  0  0  0  0  0  0
   35.7060   26.3640   31.4390 C   0  0  0  0  0  0  0  0  0  0  0  0
   34.9570   25.3320   30.8470 C   0  0  0  0  0  0  0  0  0  0  0  0
   35.3300   24.0280   31.0670 C   0  0  0  0  0  0  0  0  0  0  0  0
   36.4150   23.6640   31.8490 C   0  0  0  0  0  0  0  0  0  0  0  0
   37.4040   26.7890   32.6970 H   0  0  0  0  0  0  0  0  0  0  0  0
   35.5050   27.4020   31.3310 H   0  0  0  0  0  0  0  0  0  0  0  0
   34.1400   25.7260   30.2620 H   0  0  0  0  0  0  0  0  0  0  0  0
   34.6430   23.3960   30.5220 H   0  0  0  0  0  0  0  0  0  0  0  0
   38.3370   24.4170   33.2560 C   0  0  0  0  0  0  0  0  0  0  0  0
   39.4530   24.4840   32.6230 O   0  0  0  0  0  0  0  0  0  0  0  0
   38.8210   22.4230   36.2390 C   0  0  0  0  0  0  0  0  0  0  0  0
   38.4600   23.2910   37.2870 C   0  0  0  0  0  0  0  0  0  0  0  0
   38.0340   24.5790   36.9630 C   0  0  0  0  0  0  0  0  0  0  0  0
   37.9760   24.9660   35.6520 N   0  0  0  0  0  0  0  0  0  0  0  0
   38.3300   24.1080   34.6810 C   0  0  0  0  0  0  0  0  0  0  0  0
   38.7340   22.8850   35.0050 N   0  0  0  0  0  0  0  0  0  0  0  0
   39.1410   21.4500   36.5520 H   0  0  0  0  0  0  0  0  0  0  0  0
   38.4740   23.0770   38.3470 H   0  0  0  0  0  0  0  0  0  0  0  0
   37.7280   25.3370   37.6790 H   0  0  0  0  0  0  0  0  0  0  0  0
   36.6900   22.2520   32.0290 C   0  0  0  0  0  2  0  0  0  0  0  0
   35.5510   21.4920   32.5820 N   0  0  0  0  0  4  0  0  0  0  0  0
   34.6610   21.9900   32.5230 H   0  0  0  0  0  0  0  0  0  0  0  0
   35.4300   20.3630   31.6330 C   0  0  0  0  0  2  0  0  0  0  0  0
   36.1750   19.5800   31.9700 H   0  0  0  0  0  0  0  0  0  0  0  0
   35.8460   20.8750   33.8450 C   0  0  0  0  0  2  0  0  0  0  0  0
   34.9110   20.9380   34.4810 H   0  0  0  0  0  0  0  0  0  0  0  0
  1 11  1  0  0  0  0
  2  1  1  0  0  0  0
  2  7  1  0  0  0  0
  3  2  2  0  0  0  0
  4  5  2  0  0  0  0
  4  3  1  0  0  0  0
  5  6  1  0  0  0  0
  6 22  1  0  0  0  0
  6  1  2  0  0  0  0
  8  3  1  0  0  0  0
  9  4  1  0  0  0  0
 10  5  1  0  0  0  0
 11 17  1  0  0  0  0
 12 11  2  0  0  0  0
 13 19  1  0  0  0  0
 13 14  1  0  0  0  0
 14 20  1  0  0  0  0
 15 14  2  0  0  0  0
 15 21  1  0  0  0  0
 16 15  1  0  0  0  0
 17 18  1  0  0  0  0
 17 16  2  0  0  0  0
 18 13  2  0  0  0  0
 22 23  1  0  0  0  0
 23 27  1  0  0  0  0
 24 23  1  0  0  0  0
 25 26  1  0  0  0  0
 25 23  1  0  0  0  0
 27 28  1  0  0  0  0
M  END
>  <minimizedAffinity>
-4.45377588

$$$$

 OpenBabel03272509393D

 28 29  0  0  0  0  0  0  0  0999 V2000
   39.7050   26.8300   34.1220 C   0  0  0  0  0  0  0  0  0  0  0  0
   41.0800   27.0030   34.2830 C   0  0  0  0  0  0  0  0  0  0  0  0
   41.9210   27.3270   33.2150 C   0  0  0  0  0  0  0  0  0  0  0  0
   41.3370   27.4770   31.9450 C   0  0  0  0  0  0  0  0  0  0  0  0
   39.9800   27.3020   31.8110 C   0  0  0  0  0  0  0  0  0  0  0  0
   39.1420   26.9830   32.8680 C   0  0  0  0  0  0  0  0  0  0  0  0
   41.5120   26.8780   35.2840 H   0  0  0  0  0  0  0  0  0  0  0  0
   42.9570   27.4380   33.4270 H   0  0  0  0  0  0  0  0  0  0  0  0
   42.0770   27.7230   31.2000 H   0  0  0  0  0  0  0  0  0  0  0  0
   39.7350   27.4470   30.7690 H   0  0  0  0  0  0  0  0  0  0  0  0
   38.9340   26.4710   35.3040 C   0  0  0  0  0  0  0  0  0  0  0  0
   38.6190   27.4640   36.0560 O   0  0  0  0  0  0  0  0  0  0  0  0
   37.6800   23.8360   37.4450 C   0  0  0  0  0  0  0  0  0  0  0  0
   37.6340   22.7090   36.6030 C   0  0  0  0  0  0  0  0  0  0  0  0
   38.0510   22.8550   35.2800 C   0  0  0  0  0  0  0  0  0  0  0  0
   38.4890   24.0720   34.8350 N   0  0  0  0  0  0  0  0  0  0  0  0
   38.5160   25.1240   35.6710 C   0  0  0  0  0  0  0  0  0  0  0  0
   38.1170   24.9700   36.9280 N   0  0  0  0  0  0  0  0  0  0  0  0
   37.3450   23.6600   38.4480 H   0  0  0  0  0  0  0  0  0  0  0  0
   37.3040   21.7120   36.8620 H   0  0  0  0  0  0  0  0  0  0  0  0
   38.0650   22.0630   34.5350 H   0  0  0  0  0  0  0  0  0  0  0  0
   37.7230   26.8530   32.6040 C   0  0  0  0  0  2  0  0  0  0  0  0
   37.0220   28.1460   32.4820 N   0  0  0  0  0  4  0  0  0  0  0  0
   37.6080   28.8950   32.1110 H   0  0  0  0  0  0  0  0  0  0  0  0
   36.0250   27.8700   31.4230 C   0  0  0  0  0  2  0  0  0  0  0  0
   35.1390   27.3860   31.9350 H   0  0  0  0  0  0  0  0  0  0  0  0
   36.2390   28.4740   33.6400 C   0  0  0  0  0  2  0  0  0  0  0  0
   36.3220   29.5920   33.8020 H   0  0  0  0  0  0  0  0  0  0  0  0
  1  2  1  0  0  0  0
  1 11  1  0  0  0  0
  2  7  1  0  0  0  0
  3  8  1  0  0  0  0
  3  2  2  0  0  0  0
  4  3  1  0  0  0  0
  5  4  2  0  0  0  0
  5  6  1  0  0  0  0
  6  1  2  0  0  0  0
  9  4  1  0  0  0  0
 10  5  1  0  0  0  0
 11 17  1  0  0  0  0
 11 12  2  0  0  0  0
 13 19  1  0  0  0  0
 14 20  1  0  0  0  0
 14 13  2  0  0  0  0
 15 14  1  0  0  0  0
 16 15  2  0  0  0  0
 16 17  1  0  0  0  0
 17 18  2  0  0  0  0
 18 13  1  0  0  0  0
 21 15  1  0  0  0  0
 22  6  1  0  0  0  0
 23 22  1  0  0  0  0
 23 27  1  0  0  0  0
 24 23  1  0  0  0  0
 25 26  1  0  0  0  0
 25 23  1  0  0  0  0
 27 28  1  0  0  0  0
M  END
>  <minimizedAffinity>
-4.445333

$$$$

 OpenBabel03272509393D

 28 29  0  0  0  0  0  0  0  0999 V2000
   39.3900   25.9450   34.4060 C   0  0  0  0  0  0  0  0  0  0  0  0
   40.1330   27.0350   33.9530 C   0  0  0  0  0  0  0  0  0  0  0  0
   41.5300   27.0490   33.9820 C   0  0  0  0  0  0  0  0  0  0  0  0
   42.1850   25.9150   34.4930 C   0  0  0  0  0  0  0  0  0  0  0  0
   41.4310   24.8530   34.9330 C   0  0  0  0  0  0  0  0  0  0  0  0
   40.0460   24.8330   34.9030 C   0  0  0  0  0  0  0  0  0  0  0  0
   39.5980   27.9090   33.5620 H   0  0  0  0  0  0  0  0  0  0  0  0
   42.0160   27.9220   33.6190 H   0  0  0  0  0  0  0  0  0  0  0  0
   43.2560   26.0370   34.4700 H   0  0  0  0  0  0  0  0  0  0  0  0
   42.1150   24.0970   35.2930 H   0  0  0  0  0  0  0  0  0  0  0  0
   37.9390   26.0540   34.3460 C   0  0  0  0  0  0  0  0  0  0  0  0
   37.3780   26.3110   35.4730 O   0  0  0  0  0  0  0  0  0  0  0  0
   36.2600   24.3100   31.6550 C   0  0  0  0  0  0  0  0  0  0  0  0
   35.5980   25.3330   30.9510 C   0  0  0  0  0  0  0  0  0  0  0  0
   35.7390   26.6450   31.4030 C   0  0  0  0  0  0  0  0  0  0  0  0
   36.5060   26.9070   32.5040 N   0  0  0  0  0  0  0  0  0  0  0  0
   37.1220   25.9010   33.1490 C   0  0  0  0  0  0  0  0  0  0  0  0
   36.9790   24.6570   32.7070 N   0  0  0  0  0  0  0  0  0  0  0  0
   36.1120   23.3250   31.2600 H   0  0  0  0  0  0  0  0  0  0  0  0
   34.9720   25.2250   30.0750 H   0  0  0  0  0  0  0  0  0  0  0  0
   35.2810   27.5190   30.9450 H   0  0  0  0  0  0  0  0  0  0  0  0
   39.3650   23.6410   35.3700 C   0  0  0  0  0  2  0  0  0  0  0  0
   38.9410   23.7160   36.7820 N   0  0  0  0  0  4  0  0  0  0  0  0
   38.7620   24.6680   37.1050 H   0  0  0  0  0  0  0  0  0  0  0  0
   37.6150   23.0580   36.7510 C   0  0  0  0  0  2  0  0  0  0  0  0
   37.8090   21.9450   36.8210 H   0  0  0  0  0  0  0  0  0  0  0  0
   39.7340   22.8950   37.6530 C   0  0  0  0  0  2  0  0  0  0  0  0
   39.8580   23.4550   38.6300 H   0  0  0  0  0  0  0  0  0  0  0  0
  1  6  1  0  0  0  0
  2  3  1  0  0  0  0
  2  1  2  0  0  0  0
  3  4  2  0  0  0  0
  4  5  1  0  0  0  0
  5 10  1  0  0  0  0
  6  5  2  0  0  0  0
  6 22  1  0  0  0  0
  7  2  1  0  0  0  0
  8  3  1  0  0  0  0
  9  4  1  0  0  0  0
 11  1  1  0  0  0  0
 11 12  2  0  0  0  0
 13 18  1  0  0  0  0
 14 15  1  0  0  0  0
 14 13  2  0  0  0  0
 15 16  2  0  0  0  0
 16 17  1  0  0  0  0
 17 11  1  0  0  0  0
 18 17  2  0  0  0  0
 19 13  1  0  0  0  0
 20 14  1  0  0  0  0
 21 15  1  0  0  0  0
 22 23  1  0  0  0  0
 23 24  1  0  0  0  0
 23 27  1  0  0  0  0
 25 23  1  0  0  0  0
 25 26  1  0  0  0  0
 27 28  1  0  0  0  0
M  END
>  <minimizedAffinity>
-4.40835238

$$$$
