
 OpenBabel03272508533D

 36 38  0  0  1  0  0  0  0  0999 V2000
   38.4160   31.8420   44.5430 C   0  0  0  0  0  0  0  0  0  0  0  0
   37.3090   32.4460   44.4200 O   0  0  0  0  0  0  0  0  0  0  0  0
   38.9380   31.5480   45.8420 N   0  0  0  0  0  0  0  0  0  0  0  0
   39.9040   31.2360   45.9850 H   0  0  0  0  0  0  0  0  0  0  0  0
   39.1820   31.4340   43.3550 C   0  0  0  0  0  0  0  0  0  0  0  0
   40.1930   30.5250   43.5180 C   0  0  0  0  0  0  0  0  0  0  0  0
   40.9150   30.1370   42.3980 C   0  0  0  0  0  0  0  0  0  0  0  0
   40.5720   30.6880   41.1970 C   0  0  0  0  0  0  0  0  0  0  0  0
   39.5390   31.6210   41.0120 C   0  0  0  0  0  0  0  0  0  0  0  0
   38.8920   31.9410   42.1430 N   0  0  0  0  0  0  0  0  0  0  0  0
   40.4550   30.0980   44.4700 H   0  0  0  0  0  0  0  0  0  0  0  0
   41.7240   29.4220   42.4740 H   0  0  0  0  0  0  0  0  0  0  0  0
   41.1400   30.3790   40.3340 H   0  0  0  0  0  0  0  0  0  0  0  0
   39.2310   32.1680   39.6780 C   0  0  0  0  0  2  0  0  0  0  0  0
   38.9660   31.1770   38.6760 N   0  0  0  0  0  4  0  0  0  0  0  0
   39.6000   30.3630   38.8430 H   0  0  0  0  0  0  0  0  0  0  0  0
   37.6060   30.6660   38.7250 C   0  0  0  0  0  2  0  0  0  0  0  0
   37.3060   30.5160   39.7670 H   0  0  0  0  0  0  0  0  0  0  0  0
   39.2610   31.6950   37.3320 C   0  0  0  0  0  2  0  0  0  0  0  0
   40.1200   31.1900   36.8820 H   0  0  0  0  0  0  0  0  0  0  0  0
   38.4050   31.1080   48.2390 C   0  0  2  0  0  0  0  0  0  0  0  0
   38.6760   32.5500   48.1220 C   0  0  0  0  0  0  0  0  0  0  0  0
   38.0500   31.7060   46.9780 C   0  0  1  0  0  0  0  0  0  0  0  0
   39.3490   30.5040   48.3380 H   0  0  0  0  0  0  0  0  0  0  0  0
   37.9930   33.2740   48.6210 H   0  0  0  0  0  0  0  0  0  0  0  0
   39.6880   32.9260   47.9730 H   0  0  0  0  0  0  0  0  0  0  0  0
   36.9860   31.9460   46.7630 H   0  0  0  0  0  0  0  0  0  0  0  0
   35.0720   30.2000   49.5450 C   0  0  0  0  0  0  0  0  0  0  0  0
   35.3890   29.5650   50.7750 C   0  0  0  0  0  0  0  0  0  0  0  0
   36.7840   29.4710   51.1410 C   0  0  0  0  0  0  0  0  0  0  0  0
   37.7190   29.9860   50.3010 N   0  0  0  0  0  0  0  0  0  0  0  0
   37.3420   30.5810   49.1350 C   0  0  0  0  0  0  0  0  0  0  0  0
   36.0280   30.7040   48.7310 N   0  0  0  0  0  0  0  0  0  0  0  0
   34.0140   30.2410   49.3250 H   0  0  0  0  0  0  0  0  0  0  0  0
   34.6190   29.1750   51.4030 H   0  0  0  0  0  0  0  0  0  0  0  0
   37.0320   28.9890   52.0760 H   0  0  0  0  0  0  0  0  0  0  0  0
  1  3  1  0  0  0  0
  2  1  2  0  0  0  0
  3  4  1  0  0  0  0
  3 23  1  0  0  0  0
  5  6  1  0  0  0  0
  5  1  1  0  0  0  0
  6 11  1  0  0  0  0
  7 12  1  0  0  0  0
  7  6  2  0  0  0  0
  8  7  1  0  0  0  0
  9  8  2  0  0  0  0
  9 10  1  0  0  0  0
 10  5  2  0  0  0  0
 13  8  1  0  0  0  0
 14  9  1  0  0  0  0
 15 17  1  0  0  0  0
 15 16  1  0  0  0  0
 15 14  1  0  0  0  0
 17 18  1  0  0  0  0
 19 15  1  0  0  0  0
 20 19  1  0  0  0  0
 21 24  1  6  0  0  0
 21 32  1  0  0  0  0
 22 21  1  0  0  0  0
 22 25  1  0  0  0  0
 23 27  1  6  0  0  0
 23 22  1  0  0  0  0
 23 21  1  0  0  0  0
 26 22  1  0  0  0  0
 28 29  1  0  0  0  0
 29 30  2  0  0  0  0
 29 35  1  0  0  0  0
 30 36  1  0  0  0  0
 31 30  1  0  0  0  0
 32 31  2  0  0  0  0
 33 32  1  0  0  0  0
 33 28  2  0  0  0  0
 34 28  1  0  0  0  0
M  END
>  <minimizedAffinity>
-4.75399685

>  <minimizedRMSD>
0.562851548

$$$$
