
 OpenBabel03272508533D

 36 38  0  0  1  0  0  0  0  0999 V2000
   38.3490   31.8870   44.5160 C   0  0  0  0  0  0  0  0  0  0  0  0
   37.1760   32.3540   44.4040 O   0  0  0  0  0  0  0  0  0  0  0  0
   38.9430   31.7250   45.8070 N   0  0  0  0  0  0  0  0  0  0  0  0
   39.9420   31.5320   45.9290 H   0  0  0  0  0  0  0  0  0  0  0  0
   39.1190   31.5040   43.3210 C   0  0  0  0  0  0  0  0  0  0  0  0
   40.1300   30.5930   43.4680 C   0  0  0  0  0  0  0  0  0  0  0  0
   40.8550   30.2290   42.3420 C   0  0  0  0  0  0  0  0  0  0  0  0
   40.5150   30.8050   41.1520 C   0  0  0  0  0  0  0  0  0  0  0  0
   39.4820   31.7410   40.9840 C   0  0  0  0  0  0  0  0  0  0  0  0
   38.8320   32.0360   42.1190 N   0  0  0  0  0  0  0  0  0  0  0  0
   40.3900   30.1460   44.4110 H   0  0  0  0  0  0  0  0  0  0  0  0
   41.6650   29.5130   42.4060 H   0  0  0  0  0  0  0  0  0  0  0  0
   41.0860   30.5140   40.2850 H   0  0  0  0  0  0  0  0  0  0  0  0
   39.1770   32.3150   39.6610 C   0  0  0  0  0  2  0  0  0  0  0  0
   37.8940   31.9490   39.1340 N   0  0  0  0  0  4  0  0  0  0  0  0
   37.3540   31.4710   39.8900 H   0  0  0  0  0  0  0  0  0  0  0  0
   37.1050   33.0940   38.7110 C   0  0  0  0  0  2  0  0  0  0  0  0
   37.2090   33.9030   39.4400 H   0  0  0  0  0  0  0  0  0  0  0  0
   38.0340   30.9950   38.0240 C   0  0  0  0  0  2  0  0  0  0  0  0
   37.6460   30.0080   38.2860 H   0  0  0  0  0  0  0  0  0  0  0  0
   38.4440   31.1720   48.1880 C   0  0  2  0  0  0  0  0  0  0  0  0
   38.7450   32.6130   48.1400 C   0  0  0  0  0  0  0  0  0  0  0  0
   38.0790   31.8430   46.9670 C   0  0  1  0  0  0  0  0  0  0  0  0
   39.3770   30.5450   48.2370 H   0  0  0  0  0  0  0  0  0  0  0  0
   38.0870   33.3250   48.6880 H   0  0  0  0  0  0  0  0  0  0  0  0
   39.7610   32.9750   47.9910 H   0  0  0  0  0  0  0  0  0  0  0  0
   37.0170   32.1150   46.7840 H   0  0  0  0  0  0  0  0  0  0  0  0
   35.1170   30.2420   49.4950 C   0  0  0  0  0  0  0  0  0  0  0  0
   35.4420   29.5650   50.7000 C   0  0  0  0  0  0  0  0  0  0  0  0
   36.8400   29.4490   51.0490 C   0  0  0  0  0  0  0  0  0  0  0  0
   37.7700   29.9860   50.2180 N   0  0  0  0  0  0  0  0  0  0  0  0
   37.3860   30.6230   49.0760 C   0  0  0  0  0  0  0  0  0  0  0  0
   36.0690   30.7670   48.6890 N   0  0  0  0  0  0  0  0  0  0  0  0
   34.0580   30.2970   49.2880 H   0  0  0  0  0  0  0  0  0  0  0  0
   34.6760   29.1580   51.3230 H   0  0  0  0  0  0  0  0  0  0  0  0
   37.0940   28.9350   51.9660 H   0  0  0  0  0  0  0  0  0  0  0  0
  1  3  1  0  0  0  0
  2  1  2  0  0  0  0
  3  4  1  0  0  0  0
  3 23  1  0  0  0  0
  5  6  1  0  0  0  0
  5  1  1  0  0  0  0
  6 11  1  0  0  0  0
  7 12  1  0  0  0  0
  7  6  2  0  0  0  0
  8  7  1  0  0  0  0
  9  8  2  0  0  0  0
  9 10  1  0  0  0  0
 10  5  2  0  0  0  0
 13  8  1  0  0  0  0
 14  9  1  0  0  0  0
 15 14  1  0  0  0  0
 15 16  1  0  0  0  0
 17 15  1  0  0  0  0
 17 18  1  0  0  0  0
 19 20  1  0  0  0  0
 19 15  1  0  0  0  0
 21 24  1  6  0  0  0
 21 32  1  0  0  0  0
 22 21  1  0  0  0  0
 22 25  1  0  0  0  0
 23 27  1  6  0  0  0
 23 22  1  0  0  0  0
 23 21  1  0  0  0  0
 26 22  1  0  0  0  0
 28 29  1  0  0  0  0
 29 30  2  0  0  0  0
 29 35  1  0  0  0  0
 30 36  1  0  0  0  0
 31 30  1  0  0  0  0
 32 31  2  0  0  0  0
 33 32  1  0  0  0  0
 33 28  2  0  0  0  0
 34 28  1  0  0  0  0
M  END
>  <minimizedAffinity>
-4.77413321

>  <minimizedRMSD>
0.851262331

$$$$
