
 OpenBabel03272505183D

 31 32  0  0  0  0  0  0  0  0999 V2000
   38.8990   32.4230   47.5830 C   0  0  0  0  0  0  0  0  0  0  0  0
   38.5990   31.0960   47.5190 C   0  0  0  0  0  0  0  0  0  0  0  0
   39.0100   30.4180   46.3960 C   0  0  0  0  0  0  0  0  0  0  0  0
   39.6790   31.0150   45.3920 C   0  0  0  0  0  0  0  0  0  0  0  0
   39.9990   32.3660   45.4290 C   0  0  0  0  0  0  0  0  0  0  0  0
   39.5900   33.0470   46.5510 C   0  0  0  0  0  0  0  0  0  0  0  0
   38.7710   29.3580   46.3420 H   0  0  0  0  0  0  0  0  0  0  0  0
   39.9660   30.3980   44.5390 H   0  0  0  0  0  0  0  0  0  0  0  0
   40.5380   32.7920   44.5960 H   0  0  0  0  0  0  0  0  0  0  0  0
   39.8770   34.0910   46.5010 H   0  0  0  0  0  0  0  0  0  0  0  0
   37.7010   30.1290   51.0090 C   0  0  0  0  0  0  0  0  0  0  0  0
   38.3420   30.6860   49.8870 C   0  0  0  0  0  0  0  0  0  0  0  0
   37.8750   30.4840   48.6050 C   0  0  0  0  0  0  0  0  0  0  0  0
   36.7640   29.7110   48.5570 N   0  0  0  0  0  0  0  0  0  0  0  0
   36.1370   29.1690   49.6040 C   0  0  0  0  0  0  0  0  0  0  0  0
   36.6160   29.3850   50.8430 N   0  0  0  0  0  0  0  0  0  0  0  0
   38.0970   30.3100   52.0030 H   0  0  0  0  0  0  0  0  0  0  0  0
   39.2250   31.2890   50.0580 H   0  0  0  0  0  0  0  0  0  0  0  0
   34.9220   28.3390   49.3810 C   0  0  0  0  0  2  0  0  0  0  0  0
   33.7720   29.0720   48.9760 N   0  0  0  0  0  4  0  0  0  0  0  0
   32.9680   28.7990   49.5870 H   0  0  0  0  0  0  0  0  0  0  0  0
   33.3650   28.7310   47.6150 C   0  0  0  0  0  2  0  0  0  0  0  0
   32.3150   28.9870   47.4510 H   0  0  0  0  0  0  0  0  0  0  0  0
   33.9190   30.5050   49.0980 C   0  0  0  0  0  2  0  0  0  0  0  0
   34.8160   30.8900   48.5660 H   0  0  0  0  0  0  0  0  0  0  0  0
   39.4650   34.2640   49.0140 N   0  0  0  0  0  0  0  0  0  0  0  0
   38.5980   33.3390   48.6430 C   0  0  0  0  0  0  0  0  0  0  0  0
   37.6130   33.7010   49.5780 N   0  0  0  0  0  0  0  0  0  0  0  0
   39.2480   34.8920   49.8240 H   0  0  0  0  0  0  0  0  0  0  0  0
   37.5970   33.1820   50.4840 H   0  0  0  0  0  0  0  0  0  0  0  0
   36.8980   34.4480   49.4300 H   0  0  0  0  0  0  0  0  0  0  0  0
  1 27  1  0  0  0  0
  2  1  1  0  0  0  0
  2 13  1  0  0  0  0
  3  2  2  0  0  0  0
  4  5  2  0  0  0  0
  4  3  1  0  0  0  0
  5  6  1  0  0  0  0
  6  1  2  0  0  0  0
  7  3  1  0  0  0  0
  8  4  1  0  0  0  0
  9  5  1  0  0  0  0
 10  6  1  0  0  0  0
 11 17  1  0  0  0  0
 12 18  1  0  0  0  0
 12 11  2  0  0  0  0
 13 12  1  0  0  0  0
 14 13  2  0  0  0  0
 14 15  1  0  0  0  0
 15 16  2  0  0  0  0
 16 11  1  0  0  0  0
 19 15  1  0  0  0  0
 20 24  1  0  0  0  0
 20 19  1  0  0  0  0
 20 21  1  0  0  0  0
 22 20  1  0  0  0  0
 23 22  1  0  0  0  0
 25 24  1  0  0  0  0
 26 29  1  0  0  0  0
 27 26  2  0  0  0  0
 27 28  1  0  0  0  0
 28 30  1  0  0  0  0
 31 28  1  0  0  0  0
M  END
>  <minimizedAffinity>
-5.39794493

>  <minimizedRMSD>
1.62725556

$$$$
