
 OpenBabel03272505233D

 33 35  0  0  0  0  0  0  0  0999 V2000
   36.8490   30.8290   46.8850 Br  0  0  0  0  0  0  0  0  0  0  0  0
   35.3600   29.6560   46.7140 C   0  0  0  0  0  0  0  0  0  0  0  0
   34.8670   28.9830   47.8040 C   0  0  0  0  0  0  0  0  0  0  0  0
   33.7670   28.1410   47.6260 C   0  0  0  0  0  0  0  0  0  0  0  0
   33.2060   28.0040   46.3740 C   0  0  0  0  0  0  0  0  0  0  0  0
   33.6990   28.6810   45.2650 C   0  0  0  0  0  0  0  0  0  0  0  0
   34.7950   29.5170   45.4620 C   0  0  0  0  0  0  0  0  0  0  0  0
   33.4060   27.6270   48.5070 H   0  0  0  0  0  0  0  0  0  0  0  0
   32.3550   27.3460   46.2630 H   0  0  0  0  0  0  0  0  0  0  0  0
   33.2670   28.5780   44.2930 H   0  0  0  0  0  0  0  0  0  0  0  0
   37.5110   29.6170   50.4220 C   0  0  0  0  0  0  0  0  0  0  0  0
   36.8950   29.4010   49.1810 C   0  0  0  0  0  0  0  0  0  0  0  0
   35.5380   29.2040   49.0830 C   0  0  0  0  0  0  0  0  0  0  0  0
   34.8260   29.2300   50.2600 N   0  0  0  0  0  0  0  0  0  0  0  0
   35.4190   29.4370   51.4530 C   0  0  0  0  0  0  0  0  0  0  0  0
   36.7440   29.6290   51.5410 N   0  0  0  0  0  0  0  0  0  0  0  0
   38.5790   29.7760   50.5240 H   0  0  0  0  0  0  0  0  0  0  0  0
   37.5640   29.3900   48.3450 H   0  0  0  0  0  0  0  0  0  0  0  0
   34.6890   29.4200   52.2510 H   0  0  0  0  0  0  0  0  0  0  0  0
   35.3480   30.2430   44.3250 C   0  0  0  0  0  0  0  0  0  0  0  0
   34.7490   31.2400   43.6110 C   0  0  0  0  0  0  0  0  0  0  0  0
   35.5510   31.6690   42.6350 N   0  0  0  0  0  0  0  0  0  0  0  0
   36.6780   30.9560   42.7080 C   0  0  0  0  0  0  0  0  0  0  0  0
   36.5820   30.0690   43.7410 N   0  0  0  0  0  0  0  0  0  0  0  0
   33.7550   31.5950   43.8450 H   0  0  0  0  0  0  0  0  0  0  0  0
   35.2800   32.4290   41.9740 H   0  0  0  0  0  0  0  0  0  0  0  0
   37.8480   31.1120   41.8030 C   0  0  0  0  0  2  0  0  0  0  0  0
   39.0760   31.3630   42.5050 N   0  0  0  0  0  4  0  0  0  0  0  0
   39.0490   30.9250   43.4530 H   0  0  0  0  0  0  0  0  0  0  0  0
   39.1300   32.8110   42.7140 C   0  0  0  0  0  2  0  0  0  0  0  0
   38.9560   33.2720   41.7130 H   0  0  0  0  0  0  0  0  0  0  0  0
   40.2640   31.0040   41.7930 C   0  0  0  0  0  2  0  0  0  0  0  0
   40.1320   30.3120   40.9530 H   0  0  0  0  0  0  0  0  0  0  0  0
  2  1  1  0  0  0  0
  2  3  1  0  0  0  0
  3 13  1  0  0  0  0
  4  3  2  0  0  0  0
  4  8  1  0  0  0  0
  5  4  1  0  0  0  0
  6  7  1  0  0  0  0
  6  5  2  0  0  0  0
  7  2  2  0  0  0  0
  9  5  1  0  0  0  0
 10  6  1  0  0  0  0
 11 17  1  0  0  0  0
 11 16  1  0  0  0  0
 12 11  2  0  0  0  0
 13 12  1  0  0  0  0
 13 14  2  0  0  0  0
 14 15  1  0  0  0  0
 15 16  2  0  0  0  0
 15 19  1  0  0  0  0
 18 12  1  0  0  0  0
 20  7  1  0  0  0  0
 21 25  1  0  0  0  0
 21 20  2  0  0  0  0
 22 23  1  0  0  0  0
 22 21  1  0  0  0  0
 23 24  2  0  0  0  0
 24 20  1  0  0  0  0
 26 22  1  0  0  0  0
 27 28  1  0  0  0  0
 27 23  1  0  0  0  0
 28 30  1  0  0  0  0
 28 29  1  0  0  0  0
 31 30  1  0  0  0  0
 32 28  1  0  0  0  0
 33 32  1  0  0  0  0
M  END
>  <minimizedAffinity>
-4.23432636

>  <minimizedRMSD>
3.75453615

$$$$
