
 OpenBabel03272505113D

 37 39  0  0  0  0  0  0  0  0999 V2000
   36.3910   30.8390   45.6130 Cl  0  0  0  0  0  0  0  0  0  0  0  0
   36.6470   30.6930   47.3380 C   0  0  0  0  0  0  0  0  0  0  0  0
   37.9040   31.0310   47.8200 C   0  0  0  0  0  0  0  0  0  0  0  0
   38.1230   30.9220   49.1780 C   0  0  0  0  0  0  0  0  0  0  0  0
   37.1160   30.4900   50.0030 C   0  0  0  0  0  0  0  0  0  0  0  0
   35.8750   30.1670   49.4470 C   0  0  0  0  0  0  0  0  0  0  0  0
   35.5840   30.2510   48.1030 C   0  0  0  0  0  0  0  0  0  0  0  0
   39.1030   31.1910   49.5220 H   0  0  0  0  0  0  0  0  0  0  0  0
   37.2800   30.4010   51.0650 H   0  0  0  0  0  0  0  0  0  0  0  0
   35.1020   29.8290   50.1290 H   0  0  0  0  0  0  0  0  0  0  0  0
   40.1710   33.2860   46.0720 C   0  0  0  0  0  0  0  0  0  0  0  0
   40.8960   32.4590   45.2020 C   0  0  0  0  0  0  0  0  0  0  0  0
   40.5870   31.0850   45.2260 C   0  0  0  0  0  0  0  0  0  0  0  0
   39.6190   30.6530   46.0790 N   0  0  0  0  0  0  0  0  0  0  0  0
   38.9570   31.4930   46.8900 C   0  0  0  0  0  0  0  0  0  0  0  0
   39.2380   32.7910   46.8780 N   0  0  0  0  0  0  0  0  0  0  0  0
   40.4150   34.3230   46.0400 H   0  0  0  0  0  0  0  0  0  0  0  0
   41.6710   32.7870   44.5130 H   0  0  0  0  0  0  0  0  0  0  0  0
   41.0920   30.3630   44.5910 H   0  0  0  0  0  0  0  0  0  0  0  0
   34.0240   29.8460   47.3970 S   0  0  0  0  0  0  0  0  0  0  0  0
   33.7910   28.9990   44.3670 Cl  0  0  0  0  0  0  0  0  0  0  0  0
   33.8020   27.8030   45.6550 C   0  0  0  0  0  0  0  0  0  0  0  0
   33.8990   28.0930   47.0170 C   0  0  0  0  0  0  0  0  0  0  0  0
   33.8960   27.0720   47.9380 C   0  0  0  0  0  0  0  0  0  0  0  0
   33.7970   25.7660   47.5230 C   0  0  0  0  0  0  0  0  0  0  0  0
   33.6990   25.4250   46.1890 C   0  0  0  0  0  0  0  0  0  0  0  0
   33.7050   26.4720   45.2920 C   0  0  0  0  0  0  0  0  0  0  0  0
   33.9740   27.3730   48.9880 H   0  0  0  0  0  0  0  0  0  0  0  0
   33.8040   25.0440   48.3340 H   0  0  0  0  0  0  0  0  0  0  0  0
   33.6250   24.3860   45.9180 H   0  0  0  0  0  0  0  0  0  0  0  0
   33.6030   26.1120   43.8380 C   0  0  0  0  0  2  0  0  0  0  0  0
   32.3580   25.4440   43.5240 N   0  0  0  0  0  4  0  0  0  0  0  0
   31.9010   25.0320   44.3660 H   0  0  0  0  0  0  0  0  0  0  0  0
   32.6350   24.4550   42.5010 C   0  0  0  0  0  2  0  0  0  0  0  0
   32.8530   23.4900   43.0030 H   0  0  0  0  0  0  0  0  0  0  0  0
   31.4760   26.4480   42.9190 C   0  0  0  0  0  2  0  0  0  0  0  0
   30.6380   25.9910   42.3580 H   0  0  0  0  0  0  0  0  0  0  0  0
  1  2  1  0  0  0  0
  2  3  2  0  0  0  0
  2  7  1  0  0  0  0
  3  4  1  0  0  0  0
  4  8  1  0  0  0  0
  4  5  2  0  0  0  0
  5  9  1  0  0  0  0
  6  5  1  0  0  0  0
  6 10  1  0  0  0  0
  7  6  2  0  0  0  0
 11 16  1  0  0  0  0
 12 13  1  0  0  0  0
 12 11  2  0  0  0  0
 13 14  2  0  0  0  0
 14 15  1  0  0  0  0
 15  3  1  0  0  0  0
 16 15  2  0  0  0  0
 17 11  1  0  0  0  0
 18 12  1  0  0  0  0
 19 13  1  0  0  0  0
 20  7  1  0  0  0  0
 21 22  1  0  0  0  0
 22 23  1  0  0  0  0
 23 20  1  0  0  0  0
 23 24  2  0  0  0  0
 24 28  1  0  0  0  0
 25 24  1  0  0  0  0
 25 29  1  0  0  0  0
 26 25  2  0  0  0  0
 27 22  2  0  0  0  0
 27 26  1  0  0  0  0
 30 26  1  0  0  0  0
 31 27  1  0  0  0  0
 32 31  1  0  0  0  0
 32 33  1  0  0  0  0
 34 35  1  0  0  0  0
 34 32  1  0  0  0  0
 36 32  1  0  0  0  0
 37 36  1  0  0  0  0
M  END
>  <minimizedAffinity>
-5.327775

>  <minimizedRMSD>
0.63468051

$$$$
