
 OpenBabel03272506133D

 22 22  0  0  0  0  0  0  0  0999 V2000
   35.6690   30.5420   49.1940 C   0  0  0  0  0  0  0  0  0  0  0  0
   35.9620   29.3840   49.9390 C   0  0  0  0  0  0  0  0  0  0  0  0
   37.2780   29.2130   50.3700 C   0  0  0  0  0  0  0  0  0  0  0  0
   38.2060   30.1540   50.0560 N   0  0  0  0  0  0  0  0  0  0  0  0
   37.8890   31.2560   49.3380 C   0  0  0  0  0  0  0  0  0  0  0  0
   36.6240   31.4580   48.9020 N   0  0  0  0  0  0  0  0  0  0  0  0
   35.1580   28.7180   50.1240 H   0  0  0  0  0  0  0  0  0  0  0  0
   38.6940   31.9510   49.1360 H   0  0  0  0  0  0  0  0  0  0  0  0
   34.4260   30.8680   48.6920 O   0  0  0  0  0  0  0  0  0  0  0  0
   34.8320   29.6090   46.3480 O   0  0  0  0  0  0  0  0  0  0  0  0
   33.7710   30.0970   47.3000 P   0  0  0  0  0  0  0  0  0  0  0  0
   32.8440   28.7840   47.8810 O   0  0  0  0  0  0  0  0  0  0  0  0
   32.0510   29.1440   48.3470 H   0  0  0  0  0  0  0  0  0  0  0  0
   32.8040   31.1730   46.4380 O   0  0  0  0  0  0  0  0  0  0  0  0
   32.1890   30.6480   45.8450 H   0  0  0  0  0  0  0  0  0  0  0  0
   37.6050   28.0150   51.1470 C   0  0  0  0  0  2  0  0  0  0  0  0
   38.7200   28.1670   52.0310 N   0  0  0  0  0  4  0  0  0  0  0  0
   39.5420   28.6390   51.5910 H   0  0  0  0  0  0  0  0  0  0  0  0
   38.3330   28.9080   53.2330 C   0  0  0  0  0  2  0  0  0  0  0  0
   39.0820   28.7900   54.0290 H   0  0  0  0  0  0  0  0  0  0  0  0
   39.1240   26.8450   52.4750 C   0  0  0  0  0  2  0  0  0  0  0  0
   39.8700   26.4100   51.7580 H   0  0  0  0  0  0  0  0  0  0  0  0
  1  2  1  0  0  0  0
  2  7  1  0  0  0  0
  2  3  2  0  0  0  0
  3 16  1  0  0  0  0
  4  3  1  0  0  0  0
  5  4  2  0  0  0  0
  6  1  2  0  0  0  0
  6  5  1  0  0  0  0
  8  5  1  0  0  0  0
  9  1  1  0  0  0  0
 10 11  2  0  0  0  0
 11 12  1  0  0  0  0
 11  9  1  0  0  0  0
 12 13  1  0  0  0  0
 14 11  1  0  0  0  0
 15 14  1  0  0  0  0
 16 17  1  0  0  0  0
 17 21  1  0  0  0  0
 17 19  1  0  0  0  0
 18 17  1  0  0  0  0
 19 20  1  0  0  0  0
 22 21  1  0  0  0  0
M  END
>  <minimizedAffinity>
-1.33432341

>  <minimizedRMSD>
0.952174187

$$$$
