
 OpenBabel03272508053D

 33 35  0  0  0  0  0  0  0  0999 V2000
   38.9240   30.8990   45.7780 C   0  0  0  0  0  0  0  0  0  0  0  0
   40.1130   31.5370   46.0230 C   0  0  0  0  0  0  0  0  0  0  0  0
   40.9300   31.4600   44.9110 C   0  0  0  0  0  0  0  0  0  0  0  0
   40.1810   30.7590   44.0100 N   0  0  0  0  0  0  0  0  0  0  0  0
   39.0120   30.4300   44.5080 N   0  0  0  0  0  0  0  0  0  0  0  0
   40.3980   32.0390   46.9550 H   0  0  0  0  0  0  0  0  0  0  0  0
   41.9260   31.8380   44.7290 H   0  0  0  0  0  0  0  0  0  0  0  0
   37.7850   30.7460   46.6790 C   0  0  0  0  0  0  0  0  0  0  0  0
   38.0110   30.9710   48.0630 C   0  0  0  0  0  0  0  0  0  0  0  0
   36.9300   30.8270   48.9280 C   0  0  0  0  0  0  0  0  0  0  0  0
   35.7210   30.4780   48.3930 N   0  0  0  0  0  0  0  0  0  0  0  0
   35.5370   30.2720   47.0720 C   0  0  0  0  0  0  0  0  0  0  0  0
   36.5750   30.4080   46.2250 N   0  0  0  0  0  0  0  0  0  0  0  0
   39.0080   31.2480   48.4210 H   0  0  0  0  0  0  0  0  0  0  0  0
   34.5840   30.0000   46.6700 H   0  0  0  0  0  0  0  0  0  0  0  0
   37.1460   31.0580   50.3870 C   0  0  0  0  0  0  0  0  0  0  0  0
   36.6120   32.2970   50.6430 F   0  0  0  0  0  0  0  0  0  0  0  0
   36.4780   30.1280   51.1680 F   0  0  0  0  0  0  0  0  0  0  0  0
   38.4930   31.0720   50.7150 F   0  0  0  0  0  0  0  0  0  0  0  0
   40.5430   30.3780   42.6490 C   0  0  0  0  0  0  0  0  0  0  0  0
   40.2310   31.2000   41.5570 C   0  0  0  0  0  0  0  0  0  0  0  0
   40.5870   30.8300   40.3050 C   0  0  0  0  0  0  0  0  0  0  0  0
   41.2780   29.6020   40.1270 C   0  0  0  0  0  0  0  0  0  0  0  0
   41.4010   28.9760   41.8760 S   0  0  0  0  0  0  0  0  0  0  0  0
   39.7010   32.1510   41.6430 H   0  0  0  0  0  0  0  0  0  0  0  0
   40.4540   31.2970   39.3470 H   0  0  0  0  0  0  0  0  0  0  0  0
   41.8500   28.8070   39.0330 C   0  0  0  0  0  2  0  0  0  0  0  0
   40.9210   27.9080   38.4140 N   0  0  0  0  0  4  0  0  0  0  0  0
   41.0800   27.9220   37.3910 H   0  0  0  0  0  0  0  0  0  0  0  0
   41.1120   26.5870   38.9810 C   0  0  0  0  0  2  0  0  0  0  0  0
   40.9860   25.8190   38.2080 H   0  0  0  0  0  0  0  0  0  0  0  0
   39.5530   28.3380   38.6550 C   0  0  0  0  0  2  0  0  0  0  0  0
   38.9250   27.9450   37.8520 H   0  0  0  0  0  0  0  0  0  0  0  0
  1  2  1  0  0  0  0
  1  8  1  0  0  0  0
  2  6  1  0  0  0  0
  3  2  2  0  0  0  0
  4  5  1  0  0  0  0
  4  3  1  0  0  0  0
  5  1  2  0  0  0  0
  7  3  1  0  0  0  0
  8  9  1  0  0  0  0
  9 14  1  0  0  0  0
  9 10  2  0  0  0  0
 10 16  1  0  0  0  0
 11 10  1  0  0  0  0
 12 11  2  0  0  0  0
 13  8  2  0  0  0  0
 13 12  1  0  0  0  0
 15 12  1  0  0  0  0
 16 17  1  0  0  0  0
 16 19  1  0  0  0  0
 16 18  1  0  0  0  0
 20  4  1  0  0  0  0
 21 25  1  0  0  0  0
 21 20  2  0  0  0  0
 22 21  1  0  0  0  0
 23 22  2  0  0  0  0
 23 24  1  0  0  0  0
 24 20  1  0  0  0  0
 26 22  1  0  0  0  0
 27 23  1  0  0  0  0
 28 32  1  0  0  0  0
 28 30  1  0  0  0  0
 28 27  1  0  0  0  0
 29 28  1  0  0  0  0
 31 30  1  0  0  0  0
 33 32  1  0  0  0  0
M  END
>  <minimizedAffinity>
-5.83278656

>  <minimizedRMSD>
0.517636061

$$$$
