
 OpenBabel03272502443D

 33 35  0  0  0  0  0  0  0  0999 V2000
   37.9680   32.4860   49.0480 C   0  0  0  0  0  0  0  0  0  0  0  0
   38.7830   32.4850   47.9220 C   0  0  0  0  0  0  0  0  0  0  0  0
   38.4250   31.5900   46.8950 C   0  0  0  0  0  0  0  0  0  0  0  0
   37.3330   30.7990   47.0580 N   0  0  0  0  0  0  0  0  0  0  0  0
   36.5750   30.8470   48.1840 C   0  0  0  0  0  0  0  0  0  0  0  0
   36.9070   31.6910   49.1620 N   0  0  0  0  0  0  0  0  0  0  0  0
   38.2760   33.1880   49.8140 H   0  0  0  0  0  0  0  0  0  0  0  0
   39.6560   33.0910   47.7460 H   0  0  0  0  0  0  0  0  0  0  0  0
   36.7330   28.8510   50.3750 Cl  0  0  0  0  0  0  0  0  0  0  0  0
   35.4000   28.9950   49.2870 C   0  0  0  0  0  0  0  0  0  0  0  0
   35.4160   29.9650   48.2880 C   0  0  0  0  0  0  0  0  0  0  0  0
   34.3820   30.1070   47.4120 C   0  0  0  0  0  0  0  0  0  0  0  0
   33.2700   29.2770   47.4970 C   0  0  0  0  0  0  0  0  0  0  0  0
   33.2150   28.3090   48.4670 C   0  0  0  0  0  0  0  0  0  0  0  0
   31.8710   27.2040   48.6730 Cl  0  0  0  0  0  0  0  0  0  0  0  0
   34.2850   28.1960   49.3360 C   0  0  0  0  0  0  0  0  0  0  0  0
   34.3530   30.8420   46.6270 H   0  0  0  0  0  0  0  0  0  0  0  0
   32.4370   29.3730   46.8110 H   0  0  0  0  0  0  0  0  0  0  0  0
   34.2570   27.4360   50.1080 H   0  0  0  0  0  0  0  0  0  0  0  0
   39.2060   31.5010   45.6650 C   0  0  0  0  0  0  0  0  0  0  0  0
   40.5400   31.0900   45.6320 C   0  0  0  0  0  0  0  0  0  0  0  0
   41.0100   31.1050   44.3570 N   0  0  0  0  0  0  0  0  0  0  0  0
   39.9700   31.5250   43.5950 C   0  0  0  0  0  0  0  0  0  0  0  0
   38.9170   31.7520   44.3890 N   0  0  0  0  0  0  0  0  0  0  0  0
   41.1450   30.7940   46.4930 H   0  0  0  0  0  0  0  0  0  0  0  0
   41.9790   30.8410   44.0610 H   0  0  0  0  0  0  0  0  0  0  0  0
   40.0140   31.6970   42.1100 C   0  0  0  0  0  0  0  0  0  0  0  0
   38.7420   32.1250   41.5640 N   0  0  0  0  0  0  0  0  0  0  0  0
   37.9330   31.9150   42.1740 H   0  0  0  0  0  0  0  0  0  0  0  0
   38.7490   33.5760   41.3220 C   0  0  0  0  0  0  0  0  0  0  0  0
   37.7410   33.9730   41.2170 H   0  0  0  0  0  0  0  0  0  0  0  0
   38.6050   31.5210   40.2360 C   0  0  0  0  0  0  0  0  0  0  0  0
   39.4640   31.9590   39.6540 H   0  0  0  0  0  0  0  0  0  0  0  0
  1  6  1  0  0  0  0
  1  7  1  0  0  0  0
  2  1  2  0  0  0  0
  3  4  2  0  0  0  0
  3  2  1  0  0  0  0
  4  5  1  0  0  0  0
  5 11  1  0  0  0  0
  5  6  2  0  0  0  0
  8  2  1  0  0  0  0
 10 16  1  0  0  0  0
 10  9  1  0  0  0  0
 11 10  2  0  0  0  0
 12 13  2  0  0  0  0
 12 11  1  0  0  0  0
 13 14  1  0  0  0  0
 14 15  1  0  0  0  0
 14 16  2  0  0  0  0
 16 19  1  0  0  0  0
 17 12  1  0  0  0  0
 18 13  1  0  0  0  0
 20  3  1  0  0  0  0
 21 20  2  0  0  0  0
 21 25  1  0  0  0  0
 22 21  1  0  0  0  0
 23 22  1  0  0  0  0
 23 24  2  0  0  0  0
 24 20  1  0  0  0  0
 26 22  1  0  0  0  0
 27 23  1  0  0  0  0
 28 27  1  0  0  0  0
 28 29  1  0  0  0  0
 30 28  1  0  0  0  0
 31 30  1  0  0  0  0
 32 28  1  0  0  0  0
 33 32  1  0  0  0  0
M  END
>  <minimizedAffinity>
-6.03498983

>  <minimizedRMSD>
2.43282914

$$$$
