
 OpenBabel03262522443D

 33 35  0  0  1  0  0  0  0  0999 V2000
   37.4720   31.4210   46.0410 C   0  0  1  0  0  0  0  0  0  0  0  0
   36.1030   30.8680   46.0210 C   0  0  0  0  0  0  0  0  0  0  0  0
   37.0880   30.0670   46.7030 C   0  0  2  0  0  0  0  0  0  0  0  0
   37.8720   32.0970   46.7950 H   0  0  0  0  0  0  0  0  0  0  0  0
   35.7450   30.5630   44.9820 H   0  0  0  0  0  0  0  0  0  0  0  0
   35.3920   31.6000   46.4380 H   0  0  0  0  0  0  0  0  0  0  0  0
   37.7910   29.3350   46.2070 H   0  0  0  0  0  0  0  0  0  0  0  0
   34.8090   28.4940   48.1590 Cl  0  0  0  0  0  0  0  0  0  0  0  0
   36.0780   29.3630   48.9850 C   0  0  0  0  0  0  0  0  0  0  0  0
   37.0260   29.9330   48.1500 C   0  0  0  0  0  0  0  0  0  0  0  0
   38.0660   30.5510   48.7680 C   0  0  0  0  0  0  0  0  0  0  0  0
   38.1850   30.6130   50.1740 C   0  0  0  0  0  0  0  0  0  0  0  0
   37.2080   30.0240   50.9740 C   0  0  0  0  0  0  0  0  0  0  0  0
   37.2510   29.9870   52.7280 Cl  0  0  0  0  0  0  0  0  0  0  0  0
   36.1400   29.3920   50.3400 C   0  0  0  0  0  0  0  0  0  0  0  0
   38.9030   31.0540   48.3050 H   0  0  0  0  0  0  0  0  0  0  0  0
   38.9960   31.0940   50.6980 H   0  0  0  0  0  0  0  0  0  0  0  0
   35.3340   28.9100   50.8720 H   0  0  0  0  0  0  0  0  0  0  0  0
   37.6420   31.1700   43.4990 C   0  0  0  0  0  0  0  0  0  0  0  0
   38.2830   31.3390   44.7850 C   0  0  0  0  0  0  0  0  0  0  0  0
   39.6850   31.3840   44.8220 C   0  0  0  0  0  0  0  0  0  0  0  0
   40.3730   31.2650   43.6440 N   0  0  0  0  0  0  0  0  0  0  0  0
   39.7250   31.1090   42.4670 C   0  0  0  0  0  0  0  0  0  0  0  0
   38.3840   31.0610   42.3880 N   0  0  0  0  0  0  0  0  0  0  0  0
   36.5500   31.1420   43.5210 H   0  0  0  0  0  0  0  0  0  0  0  0
   40.1910   31.5100   45.7610 H   0  0  0  0  0  0  0  0  0  0  0  0
   40.5110   30.9820   41.2100 C   0  0  0  0  0  0  0  0  0  0  0  0
   39.7070   30.7240   40.0470 N   0  0  0  0  0  0  0  0  0  0  0  0
   38.7190   30.6500   40.3820 H   0  0  0  0  0  0  0  0  0  0  0  0
   40.0140   29.4130   39.4620 C   0  0  0  0  0  0  0  0  0  0  0  0
   39.2460   28.6510   39.7100 H   0  0  0  0  0  0  0  0  0  0  0  0
   39.7260   31.7680   39.0630 C   0  0  0  0  0  0  0  0  0  0  0  0
   38.7220   32.2640   38.9310 H   0  0  0  0  0  0  0  0  0  0  0  0
  1  3  1  0  0  0  0
  1  4  1  1  0  0  0
  2  1  1  0  0  0  0
  2  6  1  0  0  0  0
  2  3  1  0  0  0  0
  3  7  1  6  0  0  0
  3 10  1  0  0  0  0
  5  2  1  0  0  0  0
  8  9  1  0  0  0  0
  9 15  1  0  0  0  0
 10 11  1  0  0  0  0
 10  9  2  0  0  0  0
 11 12  2  0  0  0  0
 12 17  1  0  0  0  0
 12 13  1  0  0  0  0
 13 14  1  0  0  0  0
 15 18  1  0  0  0  0
 15 13  2  0  0  0  0
 16 11  1  0  0  0  0
 19 25  1  0  0  0  0
 19 20  1  0  0  0  0
 20 21  2  0  0  0  0
 20  1  1  0  0  0  0
 21 26  1  0  0  0  0
 22 21  1  0  0  0  0
 23 22  2  0  0  0  0
 24 23  1  0  0  0  0
 24 19  2  0  0  0  0
 27 23  1  0  0  0  0
 28 29  1  0  0  0  0
 28 27  1  0  0  0  0
 30 31  1  0  0  0  0
 30 28  1  0  0  0  0
 32 28  1  0  0  0  0
 33 32  1  0  0  0  0
M  END
>  <minimizedAffinity>
-4.26133776

>  <minimizedRMSD>
1.77941835

$$$$
