
 OpenBabel03262521003D

 33 34  0  0  1  0  0  0  0  0999 V2000
   38.1260   24.2700   36.5680 N   0  0  0  0  0  0  0  0  0  0  0  0
   39.1160   23.5280   35.8450 C   0  0  1  0  0  0  0  0  0  0  0  0
   40.2710   23.1690   36.7410 C   0  0  0  0  0  0  0  0  0  0  0  0
   39.7420   22.3740   37.8410 N   0  0  0  0  0  0  0  0  0  0  0  0
   38.9300   23.3130   38.6430 C   0  0  0  0  0  0  0  0  0  0  0  0
   37.7130   23.6280   37.7940 C   0  0  2  0  0  0  0  0  0  0  0  0
   38.5290   25.1770   36.8230 H   0  0  0  0  0  0  0  0  0  0  0  0
   39.4360   24.1290   34.9860 H   0  0  0  0  0  0  0  0  0  0  0  0
   40.6660   24.1180   37.1450 H   0  0  0  0  0  0  0  0  0  0  0  0
   41.0600   22.6300   36.1790 H   0  0  0  0  0  0  0  0  0  0  0  0
   40.4960   21.9590   38.4250 H   0  0  0  0  0  0  0  0  0  0  0  0
   39.4680   24.2740   38.8090 H   0  0  0  0  0  0  0  0  0  0  0  0
   38.6450   22.8730   39.6020 H   0  0  0  0  0  0  0  0  0  0  0  0
   37.1420   24.3930   38.3840 H   0  0  0  0  0  0  0  0  0  0  0  0
   36.9570   22.4270   37.5820 N   0  0  0  0  0  0  0  0  0  0  0  0
   36.0030   22.5880   37.9780 H   0  0  0  0  0  0  0  0  0  0  0  0
   37.3760   21.6190   38.0930 H   0  0  0  0  0  0  0  0  0  0  0  0
   38.4450   21.9340   35.2360 S   0  0  0  0  0  0  0  0  0  0  0  0
   36.7920   23.4120   31.8210 C   0  0  0  0  0  0  0  0  0  0  0  0
   37.6220   23.2770   32.9350 C   0  0  0  0  0  0  0  0  0  0  0  0
   37.4560   22.2180   33.7860 C   0  0  0  0  0  0  0  0  0  0  0  0
   36.4550   21.3290   33.4790 N   0  0  0  0  0  0  0  0  0  0  0  0
   35.6790   21.4680   32.4220 C   0  0  0  0  0  0  0  0  0  0  0  0
   35.8430   22.5170   31.5800 N   0  0  0  0  0  0  0  0  0  0  0  0
   37.0290   24.2870   31.2380 H   0  0  0  0  0  0  0  0  0  0  0  0
   38.4260   23.9630   33.2110 H   0  0  0  0  0  0  0  0  0  0  0  0
   34.6070   20.4600   32.1480 C   0  0  0  0  0  2  0  0  0  0  0  0
   35.0810   19.2190   31.6480 N   0  0  0  0  0  4  0  0  0  0  0  0
   34.3420   18.7790   31.0320 H   0  0  0  0  0  0  0  0  0  0  0  0
   36.2030   19.4660   30.7620 C   0  0  0  0  0  2  0  0  0  0  0  0
   37.1500   19.5150   31.3740 H   0  0  0  0  0  0  0  0  0  0  0  0
   35.3970   18.2440   32.6630 C   0  0  0  0  0  2  0  0  0  0  0  0
   34.4990   18.0820   33.2910 H   0  0  0  0  0  0  0  0  0  0  0  0
  1  7  1  0  0  0  0
  1  6  1  0  0  0  0
  2  8  1  6  0  0  0
  2  1  1  0  0  0  0
  2  3  1  0  0  0  0
  3  9  1  0  0  0  0
  3  4  1  0  0  0  0
  4 11  1  0  0  0  0
  4  5  1  0  0  0  0
  5 12  1  0  0  0  0
  5 13  1  0  0  0  0
  6 14  1  1  0  0  0
  6  5  1  0  0  0  0
 10  3  1  0  0  0  0
 15  6  1  0  0  0  0
 15 16  1  0  0  0  0
 15 17  1  0  0  0  0
 18  2  1  0  0  0  0
 19 20  1  0  0  0  0
 20 26  1  0  0  0  0
 20 21  2  0  0  0  0
 21 18  1  0  0  0  0
 22 21  1  0  0  0  0
 23 22  2  0  0  0  0
 24 19  2  0  0  0  0
 24 23  1  0  0  0  0
 25 19  1  0  0  0  0
 27 23  1  0  0  0  0
 28 27  1  0  0  0  0
 28 32  1  0  0  0  0
 29 28  1  0  0  0  0
 30 31  1  0  0  0  0
 30 28  1  0  0  0  0
 32 33  1  0  0  0  0
M  END
>  <minimizedAffinity>
-4.95608616

$$$$

 OpenBabel03262521003D

 33 34  0  0  1  0  0  0  0  0999 V2000
   38.4370   24.4130   36.4600 N   0  0  0  0  0  0  0  0  0  0  0  0
   39.4800   23.6760   35.8090 C   0  0  1  0  0  0  0  0  0  0  0  0
   40.4780   23.1690   36.8140 C   0  0  0  0  0  0  0  0  0  0  0  0
   39.7620   22.3170   37.7530 N   0  0  0  0  0  0  0  0  0  0  0  0
   38.8940   23.2320   38.5240 C   0  0  0  0  0  0  0  0  0  0  0  0
   37.8250   23.6950   37.5530 C   0  0  2  0  0  0  0  0  0  0  0  0
   38.8450   25.2670   36.8510 H   0  0  0  0  0  0  0  0  0  0  0  0
   39.9460   24.3280   35.0610 H   0  0  0  0  0  0  0  0  0  0  0  0
   40.8600   24.0530   37.3550 H   0  0  0  0  0  0  0  0  0  0  0  0
   41.3100   22.6330   36.3150 H   0  0  0  0  0  0  0  0  0  0  0  0
   40.4050   21.8060   38.3910 H   0  0  0  0  0  0  0  0  0  0  0  0
   39.4510   24.1390   38.8510 H   0  0  0  0  0  0  0  0  0  0  0  0
   38.4560   22.7280   39.3900 H   0  0  0  0  0  0  0  0  0  0  0  0
   37.2160   24.4400   38.1300 H   0  0  0  0  0  0  0  0  0  0  0  0
   37.0470   22.5660   37.1290 N   0  0  0  0  0  0  0  0  0  0  0  0
   36.0550   22.7520   37.4060 H   0  0  0  0  0  0  0  0  0  0  0  0
   37.3490   21.6930   37.6120 H   0  0  0  0  0  0  0  0  0  0  0  0
   38.8210   22.1860   34.9670 S   0  0  0  0  0  0  0  0  0  0  0  0
   36.3760   22.2890   31.7140 C   0  0  0  0  0  0  0  0  0  0  0  0
   37.1480   21.8030   32.7690 C   0  0  0  0  0  0  0  0  0  0  0  0
   37.8070   22.6770   33.5920 C   0  0  0  0  0  0  0  0  0  0  0  0
   37.6590   24.0150   33.3180 N   0  0  0  0  0  0  0  0  0  0  0  0
   36.9240   24.4590   32.3180 C   0  0  0  0  0  0  0  0  0  0  0  0
   36.2730   23.5940   31.5030 N   0  0  0  0  0  0  0  0  0  0  0  0
   35.9140   21.4970   31.1470 H   0  0  0  0  0  0  0  0  0  0  0  0
   37.2900   20.7490   33.0160 H   0  0  0  0  0  0  0  0  0  0  0  0
   36.8080   25.9320   32.0780 C   0  0  0  0  0  2  0  0  0  0  0  0
   37.1510   26.3440   30.7650 N   0  0  0  0  0  4  0  0  0  0  0  0
   36.6770   25.7160   30.0590 H   0  0  0  0  0  0  0  0  0  0  0  0
   36.5940   27.6620   30.5230 C   0  0  0  0  0  2  0  0  0  0  0  0
   37.3190   28.4420   30.8960 H   0  0  0  0  0  0  0  0  0  0  0  0
   38.5630   26.2920   30.4690 C   0  0  0  0  0  2  0  0  0  0  0  0
   38.9250   25.2600   30.6520 H   0  0  0  0  0  0  0  0  0  0  0  0
  1  7  1  0  0  0  0
  1  6  1  0  0  0  0
  2  8  1  6  0  0  0
  2  1  1  0  0  0  0
  2  3  1  0  0  0  0
  3  9  1  0  0  0  0
  3  4  1  0  0  0  0
  4 11  1  0  0  0  0
  4  5  1  0  0  0  0
  5 12  1  0  0  0  0
  5 13  1  0  0  0  0
  6 14  1  1  0  0  0
  6  5  1  0  0  0  0
 10  3  1  0  0  0  0
 15 16  1  0  0  0  0
 15  6  1  0  0  0  0
 15 17  1  0  0  0  0
 18  2  1  0  0  0  0
 19 20  1  0  0  0  0
 20 26  1  0  0  0  0
 20 21  2  0  0  0  0
 21 18  1  0  0  0  0
 22 21  1  0  0  0  0
 23 22  2  0  0  0  0
 24 19  2  0  0  0  0
 24 23  1  0  0  0  0
 25 19  1  0  0  0  0
 27 23  1  0  0  0  0
 28 27  1  0  0  0  0
 29 28  1  0  0  0  0
 30 28  1  0  0  0  0
 30 31  1  0  0  0  0
 32 33  1  0  0  0  0
 32 28  1  0  0  0  0
M  END
>  <minimizedAffinity>
-4.56700945

$$$$

 OpenBabel03262521003D

 33 34  0  0  1  0  0  0  0  0999 V2000
   37.9740   26.5080   32.0880 N   0  0  0  0  0  0  0  0  0  0  0  0
   36.5460   26.3890   32.0650 C   0  0  1  0  0  0  0  0  0  0  0  0
   35.9290   27.5460   31.3270 C   0  0  0  0  0  0  0  0  0  0  0  0
   36.4630   27.5360   29.9710 N   0  0  0  0  0  0  0  0  0  0  0  0
   37.8870   27.9050   30.1120 C   0  0  0  0  0  0  0  0  0  0  0  0
   38.5520   26.7180   30.7810 C   0  0  2  0  0  0  0  0  0  0  0  0
   38.2190   27.3210   32.6610 H   0  0  0  0  0  0  0  0  0  0  0  0
   36.1900   26.3270   33.1000 H   0  0  0  0  0  0  0  0  0  0  0  0
   36.2680   28.4650   31.8360 H   0  0  0  0  0  0  0  0  0  0  0  0
   34.8230   27.4830   31.3390 H   0  0  0  0  0  0  0  0  0  0  0  0
   35.9740   28.2120   29.3510 H   0  0  0  0  0  0  0  0  0  0  0  0
   38.0140   28.7760   30.7940 H   0  0  0  0  0  0  0  0  0  0  0  0
   38.3400   28.1210   29.1400 H   0  0  0  0  0  0  0  0  0  0  0  0
   39.6150   27.0380   30.9450 H   0  0  0  0  0  0  0  0  0  0  0  0
   38.4540   25.5710   29.9240 N   0  0  0  0  0  0  0  0  0  0  0  0
   39.4290   25.2590   29.7100 H   0  0  0  0  0  0  0  0  0  0  0  0
   37.9970   25.8130   29.0170 H   0  0  0  0  0  0  0  0  0  0  0  0
   36.0140   24.8830   31.1640 S   0  0  0  0  0  0  0  0  0  0  0  0
   36.2400   21.1550   32.7850 C   0  0  0  0  0  0  0  0  0  0  0  0
   35.8190   22.2300   32.0020 C   0  0  0  0  0  0  0  0  0  0  0  0
   36.4530   23.4390   32.1040 C   0  0  0  0  0  0  0  0  0  0  0  0
   37.4950   23.5170   32.9960 N   0  0  0  0  0  0  0  0  0  0  0  0
   37.8830   22.4920   33.7290 C   0  0  0  0  0  0  0  0  0  0  0  0
   37.2540   21.2960   33.6280 N   0  0  0  0  0  0  0  0  0  0  0  0
   35.6570   20.2660   32.6070 H   0  0  0  0  0  0  0  0  0  0  0  0
   34.9960   22.2060   31.2840 H   0  0  0  0  0  0  0  0  0  0  0  0
   39.0270   22.6490   34.6810 C   0  0  0  0  0  2  0  0  0  0  0  0
   38.7610   22.1990   35.9990 N   0  0  0  0  0  4  0  0  0  0  0  0
   38.3630   21.2200   35.9680 H   0  0  0  0  0  0  0  0  0  0  0  0
   40.0170   22.0650   36.7140 C   0  0  0  0  0  2  0  0  0  0  0  0
   40.2880   23.0620   37.1700 H   0  0  0  0  0  0  0  0  0  0  0  0
   37.8080   23.0010   36.7280 C   0  0  0  0  0  2  0  0  0  0  0  0
   36.8660   23.0480   36.1450 H   0  0  0  0  0  0  0  0  0  0  0  0
  1  7  1  0  0  0  0
  2  1  1  0  0  0  0
  2  8  1  1  0  0  0
  3 10  1  0  0  0  0
  3  9  1  0  0  0  0
  3  2  1  0  0  0  0
  4  5  1  0  0  0  0
  4  3  1  0  0  0  0
  5  6  1  0  0  0  0
  5 12  1  0  0  0  0
  6 14  1  1  0  0  0
  6  1  1  0  0  0  0
 11  4  1  0  0  0  0
 13  5  1  0  0  0  0
 15  6  1  0  0  0  0
 16 15  1  0  0  0  0
 17 15  1  0  0  0  0
 18  2  1  0  0  0  0
 18 21  1  0  0  0  0
 19 24  1  0  0  0  0
 20 21  1  0  0  0  0
 20 19  2  0  0  0  0
 21 22  2  0  0  0  0
 22 23  1  0  0  0  0
 23 27  1  0  0  0  0
 24 23  2  0  0  0  0
 25 19  1  0  0  0  0
 26 20  1  0  0  0  0
 27 28  1  0  0  0  0
 28 30  1  0  0  0  0
 28 32  1  0  0  0  0
 29 28  1  0  0  0  0
 30 31  1  0  0  0  0
 33 32  1  0  0  0  0
M  END
>  <minimizedAffinity>
-4.34403467

$$$$

 OpenBabel03262521003D

 33 34  0  0  1  0  0  0  0  0999 V2000
   36.3200   27.5750   29.9240 N   0  0  0  0  0  0  0  0  0  0  0  0
   36.9020   26.9280   31.0630 C   0  0  1  0  0  0  0  0  0  0  0  0
   38.3820   26.7370   30.8660 C   0  0  0  0  0  0  0  0  0  0  0  0
   38.9720   28.0550   30.6710 N   0  0  0  0  0  0  0  0  0  0  0  0
   38.4800   28.5100   29.3540 C   0  0  0  0  0  0  0  0  0  0  0  0
   37.0010   28.7900   29.5450 C   0  0  2  0  0  0  0  0  0  0  0  0
   36.3800   26.9340   29.1270 H   0  0  0  0  0  0  0  0  0  0  0  0
   36.3840   25.9750   31.2190 H   0  0  0  0  0  0  0  0  0  0  0  0
   38.5060   26.1510   29.9380 H   0  0  0  0  0  0  0  0  0  0  0  0
   38.8330   26.2020   31.7250 H   0  0  0  0  0  0  0  0  0  0  0  0
   40.0120   28.0260   30.6780 H   0  0  0  0  0  0  0  0  0  0  0  0
   38.5620   27.7040   28.5900 H   0  0  0  0  0  0  0  0  0  0  0  0
   39.0150   29.4020   29.0170 H   0  0  0  0  0  0  0  0  0  0  0  0
   36.6270   29.0670   28.5250 H   0  0  0  0  0  0  0  0  0  0  0  0
   36.8380   29.8540   30.4940 N   0  0  0  0  0  0  0  0  0  0  0  0
   36.3280   30.6280   30.0070 H   0  0  0  0  0  0  0  0  0  0  0  0
   37.7590   30.2330   30.8040 H   0  0  0  0  0  0  0  0  0  0  0  0
   36.7290   27.9510   32.5750 S   0  0  0  0  0  0  0  0  0  0  0  0
   38.3040   26.9120   36.1820 C   0  0  0  0  0  0  0  0  0  0  0  0
   37.7610   27.6780   35.1520 C   0  0  0  0  0  0  0  0  0  0  0  0
   37.4280   27.0870   33.9630 C   0  0  0  0  0  0  0  0  0  0  0  0
   37.6560   25.7360   33.8590 N   0  0  0  0  0  0  0  0  0  0  0  0
   38.1700   25.0240   34.8430 C   0  0  0  0  0  0  0  0  0  0  0  0
   38.5000   25.6100   36.0190 N   0  0  0  0  0  0  0  0  0  0  0  0
   38.5200   27.5000   37.0600 H   0  0  0  0  0  0  0  0  0  0  0  0
   37.5660   28.7520   35.1960 H   0  0  0  0  0  0  0  0  0  0  0  0
   38.3910   23.5550   34.6600 C   0  0  0  0  0  2  0  0  0  0  0  0
   38.3470   22.7990   35.8600 N   0  0  0  0  0  4  0  0  0  0  0  0
   38.1020   23.4320   36.6700 H   0  0  0  0  0  0  0  0  0  0  0  0
   37.2490   21.8540   35.7820 C   0  0  0  0  0  2  0  0  0  0  0  0
   37.6090   20.9150   35.2700 H   0  0  0  0  0  0  0  0  0  0  0  0
   39.5910   22.1550   36.2090 C   0  0  0  0  0  2  0  0  0  0  0  0
   40.3830   22.9280   36.2750 H   0  0  0  0  0  0  0  0  0  0  0  0
  1  2  1  0  0  0  0
  2  8  1  1  0  0  0
  2 18  1  0  0  0  0
  3  2  1  0  0  0  0
  3 10  1  0  0  0  0
  4 11  1  0  0  0  0
  4  3  1  0  0  0  0
  5  6  1  0  0  0  0
  5  4  1  0  0  0  0
  6 14  1  6  0  0  0
  6  1  1  0  0  0  0
  6 15  1  0  0  0  0
  7  1  1  0  0  0  0
  9  3  1  0  0  0  0
 12  5  1  0  0  0  0
 13  5  1  0  0  0  0
 15 17  1  0  0  0  0
 16 15  1  0  0  0  0
 18 21  1  0  0  0  0
 19 25  1  0  0  0  0
 20 26  1  0  0  0  0
 20 19  2  0  0  0  0
 21 20  1  0  0  0  0
 22 21  2  0  0  0  0
 22 23  1  0  0  0  0
 23 24  2  0  0  0  0
 24 19  1  0  0  0  0
 27 23  1  0  0  0  0
 27 28  1  0  0  0  0
 28 32  1  0  0  0  0
 28 29  1  0  0  0  0
 30 28  1  0  0  0  0
 31 30  1  0  0  0  0
 32 33  1  0  0  0  0
M  END
>  <minimizedAffinity>
-4.2478652

$$$$

 OpenBabel03262521003D

 33 34  0  0  1  0  0  0  0  0999 V2000
   38.1440   24.8070   30.0490 N   0  0  0  0  0  0  0  0  0  0  0  0
   37.9990   25.5490   31.2660 C   0  0  1  0  0  0  0  0  0  0  0  0
   36.8050   25.0640   32.0430 C   0  0  0  0  0  0  0  0  0  0  0  0
   37.0120   23.6510   32.3300 N   0  0  0  0  0  0  0  0  0  0  0  0
   36.9030   22.9700   31.0230 C   0  0  0  0  0  0  0  0  0  0  0  0
   38.1410   23.3760   30.2460 C   0  0  2  0  0  0  0  0  0  0  0  0
   37.3500   25.0300   29.4410 H   0  0  0  0  0  0  0  0  0  0  0  0
   37.9180   26.6120   31.0130 H   0  0  0  0  0  0  0  0  0  0  0  0
   35.9290   25.1680   31.3790 H   0  0  0  0  0  0  0  0  0  0  0  0
   36.6610   25.6600   32.9670 H   0  0  0  0  0  0  0  0  0  0  0  0
   36.3040   23.2760   32.9930 H   0  0  0  0  0  0  0  0  0  0  0  0
   36.0230   23.3360   30.4480 H   0  0  0  0  0  0  0  0  0  0  0  0
   36.8460   21.8850   31.1440 H   0  0  0  0  0  0  0  0  0  0  0  0
   38.0110   22.9100   29.2340 H   0  0  0  0  0  0  0  0  0  0  0  0
   39.3080   22.8920   30.9250 N   0  0  0  0  0  0  0  0  0  0  0  0
   39.8100   22.2560   30.2630 H   0  0  0  0  0  0  0  0  0  0  0  0
   39.0540   22.3300   31.7660 H   0  0  0  0  0  0  0  0  0  0  0  0
   39.4420   25.3110   32.3720 S   0  0  0  0  0  0  0  0  0  0  0  0
   38.7630   27.2150   35.9060 C   0  0  0  0  0  0  0  0  0  0  0  0
   39.1470   26.9820   34.5850 C   0  0  0  0  0  0  0  0  0  0  0  0
   38.9930   25.7360   34.0380 C   0  0  0  0  0  0  0  0  0  0  0  0
   38.4530   24.7680   34.8500 N   0  0  0  0  0  0  0  0  0  0  0  0
   38.0940   25.0020   36.0960 C   0  0  0  0  0  0  0  0  0  0  0  0
   38.2470   26.2350   36.6370 N   0  0  0  0  0  0  0  0  0  0  0  0
   38.9390   28.2340   36.2090 H   0  0  0  0  0  0  0  0  0  0  0  0
   39.5800   27.7250   33.9110 H   0  0  0  0  0  0  0  0  0  0  0  0
   37.5110   23.8990   36.9220 C   0  0  0  0  0  2  0  0  0  0  0  0
   38.3300   22.7450   37.0240 N   0  0  0  0  0  4  0  0  0  0  0  0
   37.9030   22.0650   37.7120 H   0  0  0  0  0  0  0  0  0  0  0  0
   38.3170   22.0440   35.7530 C   0  0  0  0  0  2  0  0  0  0  0  0
   39.1140   22.4810   35.0850 H   0  0  0  0  0  0  0  0  0  0  0  0
   39.6730   23.0000   37.4860 C   0  0  0  0  0  2  0  0  0  0  0  0
   39.6190   23.5150   38.4660 H   0  0  0  0  0  0  0  0  0  0  0  0
  1  6  1  0  0  0  0
  1  2  1  0  0  0  0
  2  8  1  6  0  0  0
  2  3  1  0  0  0  0
  2 18  1  0  0  0  0
  3  4  1  0  0  0  0
  3 10  1  0  0  0  0
  4 11  1  0  0  0  0
  5 13  1  0  0  0  0
  5  4  1  0  0  0  0
  6 14  1  6  0  0  0
  6 15  1  0  0  0  0
  6  5  1  0  0  0  0
  7  1  1  0  0  0  0
  9  3  1  0  0  0  0
 12  5  1  0  0  0  0
 15 17  1  0  0  0  0
 16 15  1  0  0  0  0
 18 21  1  0  0  0  0
 19 25  1  0  0  0  0
 19 24  1  0  0  0  0
 20 19  2  0  0  0  0
 21 20  1  0  0  0  0
 21 22  2  0  0  0  0
 22 23  1  0  0  0  0
 23 24  2  0  0  0  0
 23 27  1  0  0  0  0
 26 20  1  0  0  0  0
 27 28  1  0  0  0  0
 28 32  1  0  0  0  0
 28 29  1  0  0  0  0
 30 28  1  0  0  0  0
 31 30  1  0  0  0  0
 32 33  1  0  0  0  0
M  END
>  <minimizedAffinity>
-4.24704266

$$$$

 OpenBabel03262521003D

 33 34  0  0  1  0  0  0  0  0999 V2000
   38.2280   22.7230   35.9690 N   0  0  0  0  0  0  0  0  0  0  0  0
   37.6890   23.5830   36.9800 C   0  0  1  0  0  0  0  0  0  0  0  0
   38.1860   23.1790   38.3410 C   0  0  0  0  0  0  0  0  0  0  0  0
   39.6400   23.2650   38.3210 N   0  0  0  0  0  0  0  0  0  0  0  0
   40.0810   22.1730   37.4280 C   0  0  0  0  0  0  0  0  0  0  0  0
   39.6650   22.5960   36.0320 C   0  0  2  0  0  0  0  0  0  0  0  0
   37.8360   21.7860   36.1030 H   0  0  0  0  0  0  0  0  0  0  0  0
   36.5950   23.5460   36.9160 H   0  0  0  0  0  0  0  0  0  0  0  0
   37.8940   22.1240   38.4860 H   0  0  0  0  0  0  0  0  0  0  0  0
   37.7420   23.8140   39.1340 H   0  0  0  0  0  0  0  0  0  0  0  0
   40.0540   23.1470   39.2680 H   0  0  0  0  0  0  0  0  0  0  0  0
   39.5460   21.2240   37.6530 H   0  0  0  0  0  0  0  0  0  0  0  0
   41.1620   22.0190   37.4930 H   0  0  0  0  0  0  0  0  0  0  0  0
   39.9420   21.7300   35.3750 H   0  0  0  0  0  0  0  0  0  0  0  0
   40.3600   23.7990   35.6720 N   0  0  0  0  0  0  0  0  0  0  0  0
   40.9200   23.5880   34.8140 H   0  0  0  0  0  0  0  0  0  0  0  0
   41.0280   24.0890   36.4180 H   0  0  0  0  0  0  0  0  0  0  0  0
   38.2370   25.3180   36.7460 S   0  0  0  0  0  0  0  0  0  0  0  0
   36.7970   27.5560   33.6650 C   0  0  0  0  0  0  0  0  0  0  0  0
   37.2180   27.1850   34.9420 C   0  0  0  0  0  0  0  0  0  0  0  0
   37.6740   25.9130   35.1680 C   0  0  0  0  0  0  0  0  0  0  0  0
   37.6880   25.0610   34.0910 N   0  0  0  0  0  0  0  0  0  0  0  0
   37.2880   25.4270   32.8890 C   0  0  0  0  0  0  0  0  0  0  0  0
   36.8370   26.6850   32.6660 N   0  0  0  0  0  0  0  0  0  0  0  0
   36.4640   28.5810   33.6270 H   0  0  0  0  0  0  0  0  0  0  0  0
   37.2210   27.8330   35.8210 H   0  0  0  0  0  0  0  0  0  0  0  0
   37.3320   24.4450   31.7610 C   0  0  0  0  0  2  0  0  0  0  0  0
   36.9820   23.1180   32.1210 N   0  0  0  0  0  4  0  0  0  0  0  0
   36.7190   23.0850   33.1440 H   0  0  0  0  0  0  0  0  0  0  0  0
   35.7730   22.7410   31.4140 C   0  0  0  0  0  2  0  0  0  0  0  0
   36.0530   22.3310   30.4000 H   0  0  0  0  0  0  0  0  0  0  0  0
   38.0370   22.1500   31.9420 C   0  0  0  0  0  2  0  0  0  0  0  0
   38.9230   22.4800   32.5210 H   0  0  0  0  0  0  0  0  0  0  0  0
  1  6  1  0  0  0  0
  1  7  1  0  0  0  0
  1  2  1  0  0  0  0
  2  8  1  6  0  0  0
  2  3  1  0  0  0  0
  3  9  1  0  0  0  0
  3 10  1  0  0  0  0
  4  3  1  0  0  0  0
  4 11  1  0  0  0  0
  5 13  1  0  0  0  0
  5 12  1  0  0  0  0
  5  4  1  0  0  0  0
  6 14  1  6  0  0  0
  6  5  1  0  0  0  0
 15  6  1  0  0  0  0
 15 17  1  0  0  0  0
 16 15  1  0  0  0  0
 18  2  1  0  0  0  0
 19 20  1  0  0  0  0
 20 21  2  0  0  0  0
 20 26  1  0  0  0  0
 21 18  1  0  0  0  0
 22 21  1  0  0  0  0
 23 22  2  0  0  0  0
 24 23  1  0  0  0  0
 24 19  2  0  0  0  0
 25 19  1  0  0  0  0
 27 28  1  0  0  0  0
 27 23  1  0  0  0  0
 28 29  1  0  0  0  0
 30 28  1  0  0  0  0
 31 30  1  0  0  0  0
 32 28  1  0  0  0  0
 32 33  1  0  0  0  0
M  END
>  <minimizedAffinity>
-4.22471094

$$$$

 OpenBabel03262521003D

 33 34  0  0  1  0  0  0  0  0999 V2000
   35.8300   19.9750   33.4630 N   0  0  0  0  0  0  0  0  0  0  0  0
   36.6230   20.8280   32.6280 C   0  0  1  0  0  0  0  0  0  0  0  0
   37.5720   20.0150   31.7890 C   0  0  0  0  0  0  0  0  0  0  0  0
   36.7730   19.1070   30.9770 N   0  0  0  0  0  0  0  0  0  0  0  0
   36.2000   18.1350   31.9320 C   0  0  0  0  0  0  0  0  0  0  0  0
   35.1760   18.9110   32.7380 C   0  0  2  0  0  0  0  0  0  0  0  0
   36.4490   19.5350   34.1510 H   0  0  0  0  0  0  0  0  0  0  0  0
   37.1530   21.5410   33.2690 H   0  0  0  0  0  0  0  0  0  0  0  0
   38.1860   19.4210   32.4890 H   0  0  0  0  0  0  0  0  0  0  0  0
   38.2180   20.6690   31.1690 H   0  0  0  0  0  0  0  0  0  0  0  0
   37.3440   18.6150   30.2600 H   0  0  0  0  0  0  0  0  0  0  0  0
   36.9690   17.7700   32.6490 H   0  0  0  0  0  0  0  0  0  0  0  0
   35.7420   17.2900   31.4110 H   0  0  0  0  0  0  0  0  0  0  0  0
   34.7990   18.1820   33.5030 H   0  0  0  0  0  0  0  0  0  0  0  0
   34.1340   19.3730   31.8650 N   0  0  0  0  0  0  0  0  0  0  0  0
   33.2360   18.9600   32.2090 H   0  0  0  0  0  0  0  0  0  0  0  0
   34.2800   19.0360   30.8880 H   0  0  0  0  0  0  0  0  0  0  0  0
   35.5810   21.7580   31.4400 S   0  0  0  0  0  0  0  0  0  0  0  0
   35.5140   25.8200   31.1710 C   0  0  0  0  0  0  0  0  0  0  0  0
   35.1710   24.4800   30.9910 C   0  0  0  0  0  0  0  0  0  0  0  0
   35.9130   23.4980   31.5910 C   0  0  0  0  0  0  0  0  0  0  0  0
   36.9780   23.9090   32.3550 N   0  0  0  0  0  0  0  0  0  0  0  0
   37.2900   25.1790   32.5170 C   0  0  0  0  0  0  0  0  0  0  0  0
   36.5550   26.1500   31.9230 N   0  0  0  0  0  0  0  0  0  0  0  0
   34.8490   26.4860   30.6450 H   0  0  0  0  0  0  0  0  0  0  0  0
   34.3340   24.1160   30.3910 H   0  0  0  0  0  0  0  0  0  0  0  0
   38.4650   25.5540   33.3650 C   0  0  0  0  0  2  0  0  0  0  0  0
   38.3130   25.2600   34.7450 N   0  0  0  0  0  4  0  0  0  0  0  0
   37.6580   24.4380   34.8640 H   0  0  0  0  0  0  0  0  0  0  0  0
   39.5840   24.8000   35.2720 C   0  0  0  0  0  2  0  0  0  0  0  0
   40.1950   25.6940   35.5880 H   0  0  0  0  0  0  0  0  0  0  0  0
   37.7600   26.3360   35.5310 C   0  0  0  0  0  2  0  0  0  0  0  0
   36.7830   26.6290   35.0940 H   0  0  0  0  0  0  0  0  0  0  0  0
  1  7  1  0  0  0  0
  2  8  1  1  0  0  0
  2  1  1  0  0  0  0
  3  9  1  0  0  0  0
  3  2  1  0  0  0  0
  4  3  1  0  0  0  0
  4  5  1  0  0  0  0
  5 12  1  0  0  0  0
  5  6  1  0  0  0  0
  6  1  1  0  0  0  0
  6 14  1  1  0  0  0
 10  3  1  0  0  0  0
 11  4  1  0  0  0  0
 13  5  1  0  0  0  0
 15 16  1  0  0  0  0
 15  6  1  0  0  0  0
 17 15  1  0  0  0  0
 18 21  1  0  0  0  0
 18  2  1  0  0  0  0
 19 24  1  0  0  0  0
 20 19  2  0  0  0  0
 20 21  1  0  0  0  0
 21 22  2  0  0  0  0
 22 23  1  0  0  0  0
 23 27  1  0  0  0  0
 24 23  2  0  0  0  0
 25 19  1  0  0  0  0
 26 20  1  0  0  0  0
 27 28  1  0  0  0  0
 28 29  1  0  0  0  0
 28 30  1  0  0  0  0
 28 32  1  0  0  0  0
 30 31  1  0  0  0  0
 33 32  1  0  0  0  0
M  END
>  <minimizedAffinity>
-4.18944788

$$$$

 OpenBabel03262521003D

 33 34  0  0  1  0  0  0  0  0999 V2000
   38.9920   21.8150   36.1990 N   0  0  0  0  0  0  0  0  0  0  0  0
   37.9140   22.7130   35.9040 C   0  0  1  0  0  0  0  0  0  0  0  0
   37.4170   23.3760   37.1600 C   0  0  0  0  0  0  0  0  0  0  0  0
   38.5370   24.1000   37.7470 N   0  0  0  0  0  0  0  0  0  0  0  0
   39.4670   23.0550   38.2250 C   0  0  0  0  0  0  0  0  0  0  0  0
   40.0480   22.4240   36.9740 C   0  0  2  0  0  0  0  0  0  0  0  0
   38.6190   21.0390   36.7540 H   0  0  0  0  0  0  0  0  0  0  0  0
   37.1230   22.1470   35.4000 H   0  0  0  0  0  0  0  0  0  0  0  0
   37.1160   22.5680   37.8490 H   0  0  0  0  0  0  0  0  0  0  0  0
   36.5570   24.0420   36.9470 H   0  0  0  0  0  0  0  0  0  0  0  0
   38.2420   24.7090   38.5370 H   0  0  0  0  0  0  0  0  0  0  0  0
   38.9260   22.2520   38.7740 H   0  0  0  0  0  0  0  0  0  0  0  0
   40.2500   23.4800   38.8590 H   0  0  0  0  0  0  0  0  0  0  0  0
   40.6970   21.5890   37.3490 H   0  0  0  0  0  0  0  0  0  0  0  0
   40.7940   23.4100   36.2460 N   0  0  0  0  0  0  0  0  0  0  0  0
   41.7790   23.0640   36.1770 H   0  0  0  0  0  0  0  0  0  0  0  0
   40.8160   24.3210   36.7530 H   0  0  0  0  0  0  0  0  0  0  0  0
   38.4600   24.0760   34.8050 S   0  0  0  0  0  0  0  0  0  0  0  0
   36.4450   24.7800   31.3380 C   0  0  0  0  0  0  0  0  0  0  0  0
   37.0670   24.9900   32.5690 C   0  0  0  0  0  0  0  0  0  0  0  0
   37.6400   23.9390   33.2340 C   0  0  0  0  0  0  0  0  0  0  0  0
   37.5630   22.7090   32.6270 N   0  0  0  0  0  0  0  0  0  0  0  0
   36.9730   22.5250   31.4630 C   0  0  0  0  0  0  0  0  0  0  0  0
   36.4060   23.5660   30.8050 N   0  0  0  0  0  0  0  0  0  0  0  0
   36.0380   25.6880   30.9250 H   0  0  0  0  0  0  0  0  0  0  0  0
   37.1470   25.9520   33.0810 H   0  0  0  0  0  0  0  0  0  0  0  0
   36.9270   21.1560   30.8610 C   0  0  0  0  0  2  0  0  0  0  0  0
   35.9080   20.3180   31.3800 N   0  0  0  0  0  4  0  0  0  0  0  0
   35.3810   19.8620   30.5850 H   0  0  0  0  0  0  0  0  0  0  0  0
   36.5220   19.2170   32.0980 C   0  0  0  0  0  2  0  0  0  0  0  0
   36.7220   19.5380   33.1620 H   0  0  0  0  0  0  0  0  0  0  0  0
   34.9200   21.0000   32.1810 C   0  0  0  0  0  2  0  0  0  0  0  0
   34.4720   21.8130   31.5740 H   0  0  0  0  0  0  0  0  0  0  0  0
  1  7  1  0  0  0  0
  1  6  1  0  0  0  0
  2  8  1  6  0  0  0
  2  1  1  0  0  0  0
  2  3  1  0  0  0  0
  3  4  1  0  0  0  0
  3  9  1  0  0  0  0
  4  5  1  0  0  0  0
  4 11  1  0  0  0  0
  5 12  1  0  0  0  0
  5 13  1  0  0  0  0
  6 14  1  1  0  0  0
  6  5  1  0  0  0  0
 10  3  1  0  0  0  0
 15 17  1  0  0  0  0
 15  6  1  0  0  0  0
 16 15  1  0  0  0  0
 18  2  1  0  0  0  0
 19 20  1  0  0  0  0
 20 26  1  0  0  0  0
 20 21  2  0  0  0  0
 21 18  1  0  0  0  0
 22 21  1  0  0  0  0
 23 22  2  0  0  0  0
 24 19  2  0  0  0  0
 24 23  1  0  0  0  0
 25 19  1  0  0  0  0
 27 28  1  0  0  0  0
 27 23  1  0  0  0  0
 28 30  1  0  0  0  0
 28 32  1  0  0  0  0
 29 28  1  0  0  0  0
 30 31  1  0  0  0  0
 33 32  1  0  0  0  0
M  END
>  <minimizedAffinity>
-4.13645601

$$$$

 OpenBabel03262521003D

 33 34  0  0  1  0  0  0  0  0999 V2000
   38.0350   28.2310   31.3490 N   0  0  0  0  0  0  0  0  0  0  0  0
   37.5800   27.3880   32.4140 C   0  0  1  0  0  0  0  0  0  0  0  0
   36.4420   28.0360   33.1560 C   0  0  0  0  0  0  0  0  0  0  0  0
   35.3700   28.2690   32.1970 N   0  0  0  0  0  0  0  0  0  0  0  0
   35.8760   29.3280   31.2980 C   0  0  0  0  0  0  0  0  0  0  0  0
   36.9730   28.6760   30.4770 C   0  0  2  0  0  0  0  0  0  0  0  0
   38.4570   29.0680   31.7610 H   0  0  0  0  0  0  0  0  0  0  0  0
   38.4300   27.1770   33.0730 H   0  0  0  0  0  0  0  0  0  0  0  0
   36.8130   29.0110   33.5180 H   0  0  0  0  0  0  0  0  0  0  0  0
   36.1100   27.4090   34.0070 H   0  0  0  0  0  0  0  0  0  0  0  0
   34.4900   28.5770   32.6580 H   0  0  0  0  0  0  0  0  0  0  0  0
   36.3480   30.1560   31.8730 H   0  0  0  0  0  0  0  0  0  0  0  0
   35.0800   29.7220   30.6610 H   0  0  0  0  0  0  0  0  0  0  0  0
   37.3940   29.5060   29.8510 H   0  0  0  0  0  0  0  0  0  0  0  0
   36.4090   27.6230   29.6820 N   0  0  0  0  0  0  0  0  0  0  0  0
   36.5980   27.8580   28.6800 H   0  0  0  0  0  0  0  0  0  0  0  0
   35.3740   27.5690   29.8010 H   0  0  0  0  0  0  0  0  0  0  0  0
   36.9180   25.8010   31.7760 S   0  0  0  0  0  0  0  0  0  0  0  0
   38.4830   23.5250   34.7660 C   0  0  0  0  0  0  0  0  0  0  0  0
   38.1070   24.6370   34.0140 C   0  0  0  0  0  0  0  0  0  0  0  0
   37.4490   24.4680   32.8250 C   0  0  0  0  0  0  0  0  0  0  0  0
   37.1920   23.1750   32.4400 N   0  0  0  0  0  0  0  0  0  0  0  0
   37.5520   22.1320   33.1620 C   0  0  0  0  0  0  0  0  0  0  0  0
   38.2040   22.3010   34.3380 N   0  0  0  0  0  0  0  0  0  0  0  0
   38.9920   23.7990   35.6760 H   0  0  0  0  0  0  0  0  0  0  0  0
   38.2940   25.6790   34.2870 H   0  0  0  0  0  0  0  0  0  0  0  0
   37.2390   20.7500   32.6800 C   0  0  0  0  0  2  0  0  0  0  0  0
   35.9190   20.3140   32.9630 N   0  0  0  0  0  4  0  0  0  0  0  0
   35.8720   19.2590   32.9010 H   0  0  0  0  0  0  0  0  0  0  0  0
   35.6080   20.6190   34.3470 C   0  0  0  0  0  2  0  0  0  0  0  0
   35.2120   21.6740   34.4100 H   0  0  0  0  0  0  0  0  0  0  0  0
   34.9130   20.8180   32.0590 C   0  0  0  0  0  2  0  0  0  0  0  0
   35.1940   20.5370   31.0240 H   0  0  0  0  0  0  0  0  0  0  0  0
  1  7  1  0  0  0  0
  1  2  1  0  0  0  0
  2  8  1  1  0  0  0
  2  3  1  0  0  0  0
  3  9  1  0  0  0  0
  3 10  1  0  0  0  0
  4 11  1  0  0  0  0
  4  3  1  0  0  0  0
  5 12  1  0  0  0  0
  5  4  1  0  0  0  0
  6 14  1  6  0  0  0
  6  5  1  0  0  0  0
  6  1  1  0  0  0  0
 13  5  1  0  0  0  0
 15 17  1  0  0  0  0
 15  6  1  0  0  0  0
 16 15  1  0  0  0  0
 18  2  1  0  0  0  0
 18 21  1  0  0  0  0
 19 25  1  0  0  0  0
 20 26  1  0  0  0  0
 20 19  2  0  0  0  0
 21 20  1  0  0  0  0
 22 21  2  0  0  0  0
 22 23  1  0  0  0  0
 23 24  2  0  0  0  0
 24 19  1  0  0  0  0
 27 28  1  0  0  0  0
 27 23  1  0  0  0  0
 28 30  1  0  0  0  0
 29 28  1  0  0  0  0
 30 31  1  0  0  0  0
 32 28  1  0  0  0  0
 33 32  1  0  0  0  0
M  END
>  <minimizedAffinity>
-4.07270908

$$$$
