
 OpenBabel03272507223D

 41 44  0  0  1  0  0  0  0  0999 V2000
   36.2190   30.8920   48.5740 C   0  0  0  0  0  0  0  0  0  0  0  0
   36.7150   31.4700   49.7200 C   0  0  0  0  0  0  0  0  0  0  0  0
   38.0380   31.9200   49.6380 C   0  0  0  0  0  0  0  0  0  0  0  0
   38.7510   31.7760   48.4840 N   0  0  0  0  0  0  0  0  0  0  0  0
   38.2300   31.2020   47.3740 C   0  0  0  0  0  0  0  0  0  0  0  0
   36.9470   30.7590   47.4330 N   0  0  0  0  0  0  0  0  0  0  0  0
   36.1980   31.6020   50.6390 H   0  0  0  0  0  0  0  0  0  0  0  0
   38.5100   32.3890   50.4970 H   0  0  0  0  0  0  0  0  0  0  0  0
   39.9510   32.0140   45.8610 C   0  0  0  0  0  0  0  0  0  0  0  0
   39.0070   31.0500   46.1430 C   0  0  0  0  0  0  0  0  0  0  0  0
   38.8260   29.9880   45.2700 C   0  0  0  0  0  0  0  0  0  0  0  0
   39.5530   29.8370   44.1050 C   0  0  0  0  0  0  0  0  0  0  0  0
   39.5790   28.9310   43.1130 N   0  0  0  0  0  0  0  0  0  0  0  0
   40.5260   29.3490   42.2490 C   0  0  0  0  0  0  0  0  0  0  0  0
   41.0820   30.4880   42.6860 N   0  0  0  0  0  0  0  0  0  0  0  0
   40.4990   30.8300   43.8510 C   0  0  0  0  0  0  0  0  0  0  0  0
   40.7030   31.9020   44.7050 C   0  0  0  0  0  0  0  0  0  0  0  0
   40.1360   32.8590   46.5020 H   0  0  0  0  0  0  0  0  0  0  0  0
   38.0770   29.2420   45.5130 H   0  0  0  0  0  0  0  0  0  0  0  0
   38.9470   28.0930   43.1000 H   0  0  0  0  0  0  0  0  0  0  0  0
   40.7870   28.8280   41.3410 H   0  0  0  0  0  0  0  0  0  0  0  0
   41.4610   32.6380   44.4380 H   0  0  0  0  0  0  0  0  0  0  0  0
   34.7980   30.3780   48.6220 C   0  0  1  0  0  0  0  0  0  0  0  0
   34.0580   30.1090   47.4110 C   0  0  2  0  0  0  0  0  0  0  0  0
   34.7060   28.9250   48.1670 C   0  0  2  0  0  0  0  0  0  0  0  0
   34.2490   30.7300   49.5250 H   0  0  0  0  0  0  0  0  0  0  0  0
   32.9620   29.7760   47.4750 H   0  0  0  0  0  0  0  0  0  0  0  0
   35.5490   28.4860   47.6380 H   0  0  0  0  0  0  0  0  0  0  0  0
   34.6290   30.3640   46.2120 O   0  0  0  0  0  0  0  0  0  0  0  0
   34.3690   30.1590   44.9250 C   0  0  0  0  0  0  0  0  0  0  0  0
   33.7290   29.0910   44.6690 O   0  0  0  0  0  0  0  0  0  0  0  0
   34.8260   31.1230   44.0610 N   0  0  0  0  0  0  0  0  0  0  0  0
   34.3290   31.9540   43.6620 H   0  0  0  0  0  0  0  0  0  0  0  0
   35.7910   31.1670   43.6580 H   0  0  0  0  0  0  0  0  0  0  0  0
   33.9250   28.0790   49.1060 C   0  0  0  0  0  2  0  0  0  0  0  0
   33.1660   27.0310   48.5030 N   0  0  0  0  0  4  0  0  0  0  0  0
   33.1680   26.1920   49.1270 H   0  0  0  0  0  0  0  0  0  0  0  0
   31.8000   27.3420   48.2020 C   0  0  0  0  0  2  0  0  0  0  0  0
   31.4190   26.4960   47.5750 H   0  0  0  0  0  0  0  0  0  0  0  0
   33.8170   26.6020   47.2780 C   0  0  0  0  0  2  0  0  0  0  0  0
   33.2540   26.9770   46.3770 H   0  0  0  0  0  0  0  0  0  0  0  0
  1 23  1  0  0  0  0
  1  2  1  0  0  0  0
  2  7  1  0  0  0  0
  3  2  2  0  0  0  0
  3  8  1  0  0  0  0
  4  3  1  0  0  0  0
  5  6  1  0  0  0  0
  5  4  2  0  0  0  0
  6  1  2  0  0  0  0
  9 10  1  0  0  0  0
  9 18  1  0  0  0  0
 10  5  1  0  0  0  0
 11 19  1  0  0  0  0
 11 10  2  0  0  0  0
 12 11  1  0  0  0  0
 13 12  1  0  0  0  0
 14 15  2  0  0  0  0
 14 13  1  0  0  0  0
 15 16  1  0  0  0  0
 16 12  2  0  0  0  0
 16 17  1  0  0  0  0
 17  9  2  0  0  0  0
 20 13  1  0  0  0  0
 21 14  1  0  0  0  0
 22 17  1  0  0  0  0
 23 26  1  1  0  0  0
 24 27  1  1  0  0  0
 24 25  1  0  0  0  0
 24 23  1  0  0  0  0
 25 28  1  6  0  0  0
 25 23  1  0  0  0  0
 25 35  1  0  0  0  0
 29 24  1  0  0  0  0
 30 29  1  0  0  0  0
 31 30  2  0  0  0  0
 32 30  1  0  0  0  0
 33 32  1  0  0  0  0
 34 32  1  0  0  0  0
 36 35  1  0  0  0  0
 36 37  1  0  0  0  0
 38 36  1  0  0  0  0
 39 38  1  0  0  0  0
 40 36  1  0  0  0  0
 41 40  1  0  0  0  0
M  END
>  <minimizedAffinity>
-5.85130453

>  <minimizedRMSD>
1.76323807

$$$$
