
 OpenBabel03272509373D

 28 29  0  0  0  0  0  0  0  0999 V2000
   36.1910   29.8520   48.7780 C   0  0  0  0  0  0  0  0  0  0  0  0
   36.2590   29.8770   50.1720 C   0  0  0  0  0  0  0  0  0  0  0  0
   37.2480   30.5860   50.8570 C   0  0  0  0  0  0  0  0  0  0  0  0
   38.1970   31.2880   50.0930 C   0  0  0  0  0  0  0  0  0  0  0  0
   38.1100   31.2480   48.7220 C   0  0  0  0  0  0  0  0  0  0  0  0
   37.1290   30.5490   48.0380 C   0  0  0  0  0  0  0  0  0  0  0  0
   35.5080   29.3190   50.7440 H   0  0  0  0  0  0  0  0  0  0  0  0
   37.2270   30.5490   51.9190 H   0  0  0  0  0  0  0  0  0  0  0  0
   38.9110   31.7940   50.7240 H   0  0  0  0  0  0  0  0  0  0  0  0
   38.9280   31.8340   48.3270 H   0  0  0  0  0  0  0  0  0  0  0  0
   35.1280   29.0600   48.1760 C   0  0  0  0  0  0  0  0  0  0  0  0
   34.8910   27.9470   48.7720 O   0  0  0  0  0  0  0  0  0  0  0  0
   32.7920   30.9870   46.1920 C   0  0  0  0  0  0  0  0  0  0  0  0
   32.8260   30.3640   44.9300 C   0  0  0  0  0  0  0  0  0  0  0  0
   33.6590   29.2580   44.7610 C   0  0  0  0  0  0  0  0  0  0  0  0
   34.4130   28.8080   45.8100 N   0  0  0  0  0  0  0  0  0  0  0  0
   34.3520   29.4300   46.9990 C   0  0  0  0  0  0  0  0  0  0  0  0
   33.5550   30.4830   47.1450 N   0  0  0  0  0  0  0  0  0  0  0  0
   32.1350   31.8320   46.2580 H   0  0  0  0  0  0  0  0  0  0  0  0
   32.2710   30.6470   44.0460 H   0  0  0  0  0  0  0  0  0  0  0  0
   33.7710   28.6920   43.8390 H   0  0  0  0  0  0  0  0  0  0  0  0
   37.1260   30.6080   46.5890 C   0  0  0  0  0  2  0  0  0  0  0  0
   38.2990   31.3010   46.0220 N   0  0  0  0  0  4  0  0  0  0  0  0
   38.9900   31.5740   46.7220 H   0  0  0  0  0  0  0  0  0  0  0  0
   38.9480   30.2340   45.2290 C   0  0  0  0  0  2  0  0  0  0  0  0
   38.4200   30.2130   44.2290 H   0  0  0  0  0  0  0  0  0  0  0  0
   37.9470   32.3070   45.0600 C   0  0  0  0  0  2  0  0  0  0  0  0
   38.6660   33.1720   45.1920 H   0  0  0  0  0  0  0  0  0  0  0  0
  1  2  1  0  0  0  0
  2  7  1  0  0  0  0
  2  3  2  0  0  0  0
  3  8  1  0  0  0  0
  4  9  1  0  0  0  0
  4  3  1  0  0  0  0
  5  4  2  0  0  0  0
  6  5  1  0  0  0  0
  6  1  2  0  0  0  0
 10  5  1  0  0  0  0
 11 12  2  0  0  0  0
 11  1  1  0  0  0  0
 13 19  1  0  0  0  0
 13 18  1  0  0  0  0
 14 13  2  0  0  0  0
 15 14  1  0  0  0  0
 15 16  2  0  0  0  0
 16 17  1  0  0  0  0
 17 18  2  0  0  0  0
 17 11  1  0  0  0  0
 20 14  1  0  0  0  0
 21 15  1  0  0  0  0
 22  6  1  0  0  0  0
 23 22  1  0  0  0  0
 23 24  1  0  0  0  0
 25 23  1  0  0  0  0
 26 25  1  0  0  0  0
 27 28  1  0  0  0  0
 27 23  1  0  0  0  0
M  END
>  <minimizedAffinity>
-4.8507452

>  <minimizedRMSD>
1.38016582

$$$$
