
 OpenBabel03272506493D

 40 42  0  0  1  0  0  0  0  0999 V2000
   36.6050   28.9470   32.0600 C   0  0  2  0  0  0  0  0  0  0  0  0
   37.0680   27.5230   32.0000 C   0  0  1  0  0  0  0  0  0  0  0  0
   37.2050   27.0750   33.2910 O   0  0  0  0  0  0  0  0  0  0  0  0
   36.5780   27.9700   34.1540 C   0  0  0  0  0  0  0  0  0  0  0  0
   35.6810   28.8520   33.3230 C   0  0  1  0  0  0  0  0  0  0  0  0
   37.3660   29.6790   32.2950 H   0  0  0  0  0  0  0  0  0  0  0  0
   38.0010   27.4330   31.4070 H   0  0  0  0  0  0  0  0  0  0  0  0
   35.8640   27.3240   34.7630 H   0  0  0  0  0  0  0  0  0  0  0  0
   37.2910   28.4580   34.7930 H   0  0  0  0  0  0  0  0  0  0  0  0
   34.7790   28.3730   32.9470 H   0  0  0  0  0  0  0  0  0  0  0  0
   35.8150   29.2530   30.9380 O   0  0  0  0  0  0  0  0  0  0  0  0
   35.9150   30.2250   30.7500 H   0  0  0  0  0  0  0  0  0  0  0  0
   35.7570   26.5320   31.1910 S   0  0  0  0  0  0  0  0  0  0  0  0
   35.7410   22.5960   31.5400 C   0  0  0  0  0  0  0  0  0  0  0  0
   36.9840   22.1830   31.1130 C   0  0  0  0  0  0  0  0  0  0  0  0
   37.8850   23.1640   30.6910 C   0  0  0  0  0  0  0  0  0  0  0  0
   37.4940   24.4580   30.7250 N   0  0  0  0  0  0  0  0  0  0  0  0
   36.2650   24.8280   31.1510 C   0  0  0  0  0  0  0  0  0  0  0  0
   35.3710   23.8930   31.5650 N   0  0  0  0  0  0  0  0  0  0  0  0
   35.0660   21.7780   31.8570 H   0  0  0  0  0  0  0  0  0  0  0  0
   37.3580   21.1730   31.0570 H   0  0  0  0  0  0  0  0  0  0  0  0
   38.9010   23.0360   30.3250 H   0  0  0  0  0  0  0  0  0  0  0  0
   35.5590   30.0700   33.9330 O   0  0  0  0  0  0  0  0  0  0  0  0
   36.4760   32.3640   35.5280 Cl  0  0  0  0  0  0  0  0  0  0  0  0
   34.9770   31.4790   35.6410 C   0  0  0  0  0  0  0  0  0  0  0  0
   34.6470   30.4140   34.8370 C   0  0  0  0  0  0  0  0  0  0  0  0
   33.4080   29.8050   35.0290 C   0  0  0  0  0  0  0  0  0  0  0  0
   32.5380   30.2580   35.9980 C   0  0  0  0  0  0  0  0  0  0  0  0
   32.8560   31.3270   36.8090 C   0  0  0  0  0  0  0  0  0  0  0  0
   34.0990   31.9390   36.6140 C   0  0  0  0  0  0  0  0  0  0  0  0
   33.0840   28.9690   34.4350 H   0  0  0  0  0  0  0  0  0  0  0  0
   31.5860   29.7640   36.1230 H   0  0  0  0  0  0  0  0  0  0  0  0
   32.1520   31.6310   37.5470 H   0  0  0  0  0  0  0  0  0  0  0  0
   34.3580   33.0850   37.5210 C   0  0  0  0  0  2  0  0  0  0  0  0
   33.4100   34.1410   37.4970 N   0  0  0  0  0  4  0  0  0  0  0  0
   32.4030   33.8660   37.4630 H   0  0  0  0  0  0  0  0  0  0  0  0
   33.5700   35.0470   38.6070 C   0  0  0  0  0  2  0  0  0  0  0  0
   32.7540   35.8080   38.6480 H   0  0  0  0  0  0  0  0  0  0  0  0
   33.7540   34.9370   36.3000 C   0  0  0  0  0  2  0  0  0  0  0  0
   33.2010   35.8670   36.3590 H   0  0  0  0  0  0  0  0  0  0  0  0
  1  6  1  1  0  0  0
  1  5  1  0  0  0  0
  2  7  1  6  0  0  0
  2  1  1  0  0  0  0
  2  3  1  0  0  0  0
  3  4  1  0  0  0  0
  4  8  1  0  0  0  0
  4  9  1  0  0  0  0
  5 10  1  6  0  0  0
  5 23  1  0  0  0  0
  5  4  1  0  0  0  0
 11  1  1  0  0  0  0
 12 11  1  0  0  0  0
 13  2  1  0  0  0  0
 14 19  1  0  0  0  0
 14 20  1  0  0  0  0
 15 14  2  0  0  0  0
 16 17  2  0  0  0  0
 16 15  1  0  0  0  0
 17 18  1  0  0  0  0
 18 13  1  0  0  0  0
 18 19  2  0  0  0  0
 21 15  1  0  0  0  0
 22 16  1  0  0  0  0
 23 26  1  0  0  0  0
 24 25  1  0  0  0  0
 25 30  1  0  0  0  0
 26 27  1  0  0  0  0
 26 25  2  0  0  0  0
 27 28  2  0  0  0  0
 28 32  1  0  0  0  0
 28 29  1  0  0  0  0
 29 33  1  0  0  0  0
 30 29  2  0  0  0  0
 30 34  1  0  0  0  0
 31 27  1  0  0  0  0
 35 34  1  0  0  0  0
 35 37  1  0  0  0  0
 36 35  1  0  0  0  0
 37 38  1  0  0  0  0
 39 40  1  0  0  0  0
 39 35  1  0  0  0  0
M  END
>  <minimizedAffinity>
-5.19738054

$$$$

 OpenBabel03272506493D

 40 42  0  0  1  0  0  0  0  0999 V2000
   38.6680   24.1720   32.4030 C   0  0  2  0  0  0  0  0  0  0  0  0
   39.2580   23.0530   33.2070 C   0  0  1  0  0  0  0  0  0  0  0  0
   40.2630   23.5820   33.9810 O   0  0  0  0  0  0  0  0  0  0  0  0
   40.1600   24.9700   33.9770 C   0  0  0  0  0  0  0  0  0  0  0  0
   38.7890   25.3240   33.4600 C   0  0  1  0  0  0  0  0  0  0  0  0
   39.2440   24.4870   31.5430 H   0  0  0  0  0  0  0  0  0  0  0  0
   39.6040   22.2300   32.5490 H   0  0  0  0  0  0  0  0  0  0  0  0
   40.1340   25.2550   35.0810 H   0  0  0  0  0  0  0  0  0  0  0  0
   41.0020   25.4210   33.4860 H   0  0  0  0  0  0  0  0  0  0  0  0
   37.9680   25.1290   34.1480 H   0  0  0  0  0  0  0  0  0  0  0  0
   37.3080   23.9270   32.1470 O   0  0  0  0  0  0  0  0  0  0  0  0
   37.0740   24.3720   31.2880 H   0  0  0  0  0  0  0  0  0  0  0  0
   37.9580   22.4100   34.3250 S   0  0  0  0  0  0  0  0  0  0  0  0
   39.8370   22.6520   37.7930 C   0  0  0  0  0  0  0  0  0  0  0  0
   39.0650   23.4840   38.5740 C   0  0  0  0  0  0  0  0  0  0  0  0
   37.8980   24.0050   38.0100 C   0  0  0  0  0  0  0  0  0  0  0  0
   37.5890   23.6670   36.7370 N   0  0  0  0  0  0  0  0  0  0  0  0
   38.3710   22.8470   36.0000 C   0  0  0  0  0  0  0  0  0  0  0  0
   39.5100   22.3280   36.5250 N   0  0  0  0  0  0  0  0  0  0  0  0
   40.7520   22.2720   38.2870 H   0  0  0  0  0  0  0  0  0  0  0  0
   39.2540   23.7960   39.5890 H   0  0  0  0  0  0  0  0  0  0  0  0
   37.1670   24.6710   38.4630 H   0  0  0  0  0  0  0  0  0  0  0  0
   38.8420   26.5450   32.8470 O   0  0  0  0  0  0  0  0  0  0  0  0
   37.5720   27.6870   35.2430 Cl  0  0  0  0  0  0  0  0  0  0  0  0
   37.1360   27.8940   33.5670 C   0  0  0  0  0  0  0  0  0  0  0  0
   37.8050   27.3100   32.5160 C   0  0  0  0  0  0  0  0  0  0  0  0
   37.3540   27.5700   31.2240 C   0  0  0  0  0  0  0  0  0  0  0  0
   36.2670   28.3900   31.0040 C   0  0  0  0  0  0  0  0  0  0  0  0
   35.5900   28.9840   32.0480 C   0  0  0  0  0  0  0  0  0  0  0  0
   36.0440   28.7230   33.3460 C   0  0  0  0  0  0  0  0  0  0  0  0
   37.8310   27.1490   30.3560 H   0  0  0  0  0  0  0  0  0  0  0  0
   35.9420   28.5720   29.9910 H   0  0  0  0  0  0  0  0  0  0  0  0
   34.7530   29.6010   31.8240 H   0  0  0  0  0  0  0  0  0  0  0  0
   35.2650   29.4070   34.4090 C   0  0  0  0  0  2  0  0  0  0  0  0
   35.3200   30.8240   34.4230 N   0  0  0  0  0  4  0  0  0  0  0  0
   35.8330   31.2830   33.6370 H   0  0  0  0  0  0  0  0  0  0  0  0
   34.0100   31.4230   34.4870 C   0  0  0  0  0  2  0  0  0  0  0  0
   34.0510   32.5350   34.3840 H   0  0  0  0  0  0  0  0  0  0  0  0
   35.9620   31.1700   35.7100 C   0  0  0  0  0  2  0  0  0  0  0  0
   35.8300   32.2340   35.8630 H   0  0  0  0  0  0  0  0  0  0  0  0
  1  6  1  6  0  0  0
  1  2  1  0  0  0  0
  1  5  1  0  0  0  0
  2  7  1  6  0  0  0
  2  3  1  0  0  0  0
  2 13  1  0  0  0  0
  4  3  1  0  0  0  0
  4  8  1  0  0  0  0
  5  4  1  0  0  0  0
  5 10  1  1  0  0  0
  9  4  1  0  0  0  0
 11  1  1  0  0  0  0
 12 11  1  0  0  0  0
 13 18  1  0  0  0  0
 14 20  1  0  0  0  0
 14 15  1  0  0  0  0
 15 21  1  0  0  0  0
 16 22  1  0  0  0  0
 16 15  2  0  0  0  0
 17 16  1  0  0  0  0
 18 19  1  0  0  0  0
 18 17  2  0  0  0  0
 19 14  2  0  0  0  0
 23  5  1  0  0  0  0
 25 24  1  0  0  0  0
 26 23  1  0  0  0  0
 26 25  2  0  0  0  0
 27 26  1  0  0  0  0
 28 27  2  0  0  0  0
 28 29  1  0  0  0  0
 29 30  2  0  0  0  0
 30 25  1  0  0  0  0
 30 34  1  0  0  0  0
 31 27  1  0  0  0  0
 32 28  1  0  0  0  0
 33 29  1  0  0  0  0
 34 35  1  0  0  0  0
 35 37  1  0  0  0  0
 35 39  1  0  0  0  0
 36 35  1  0  0  0  0
 38 37  1  0  0  0  0
 39 40  1  0  0  0  0
M  END
>  <minimizedAffinity>
-5.15678167

$$$$

 OpenBabel03272506493D

 40 42  0  0  1  0  0  0  0  0999 V2000
   36.9170   28.1430   32.6700 C   0  0  2  0  0  0  0  0  0  0  0  0
   36.2210   29.4090   32.2670 C   0  0  1  0  0  0  0  0  0  0  0  0
   36.0870   29.3920   30.8990 O   0  0  0  0  0  0  0  0  0  0  0  0
   36.3470   28.1080   30.4310 C   0  0  0  0  0  0  0  0  0  0  0  0
   36.2910   27.1720   31.6110 C   0  0  1  0  0  0  0  0  0  0  0  0
   37.9850   28.1220   32.5070 H   0  0  0  0  0  0  0  0  0  0  0  0
   36.7690   30.2990   32.6400 H   0  0  0  0  0  0  0  0  0  0  0  0
   35.4300   27.8430   29.8080 H   0  0  0  0  0  0  0  0  0  0  0  0
   37.2370   28.0860   29.8290 H   0  0  0  0  0  0  0  0  0  0  0  0
   35.2930   26.9740   32.0000 H   0  0  0  0  0  0  0  0  0  0  0  0
   36.5050   27.7470   33.9550 O   0  0  0  0  0  0  0  0  0  0  0  0
   37.2540   27.2430   34.3730 H   0  0  0  0  0  0  0  0  0  0  0  0
   34.5440   29.3950   33.0020 S   0  0  0  0  0  0  0  0  0  0  0  0
   35.7880   31.5460   36.0740 C   0  0  0  0  0  0  0  0  0  0  0  0
   34.6490   31.8970   36.7660 C   0  0  0  0  0  0  0  0  0  0  0  0
   33.4240   31.4520   36.2640 C   0  0  0  0  0  0  0  0  0  0  0  0
   33.4200   30.7030   35.1380 N   0  0  0  0  0  0  0  0  0  0  0  0
   34.5580   30.3780   34.4850 C   0  0  0  0  0  0  0  0  0  0  0  0
   35.7620   30.7990   34.9510 N   0  0  0  0  0  0  0  0  0  0  0  0
   36.7310   31.9300   36.5110 H   0  0  0  0  0  0  0  0  0  0  0  0
   34.5810   32.4900   37.6630 H   0  0  0  0  0  0  0  0  0  0  0  0
   32.4280   31.6230   36.6650 H   0  0  0  0  0  0  0  0  0  0  0  0
   37.1150   26.1060   31.3790 O   0  0  0  0  0  0  0  0  0  0  0  0
   38.9610   25.0800   33.4260 Cl  0  0  0  0  0  0  0  0  0  0  0  0
   37.6670   24.2500   32.6030 C   0  0  0  0  0  0  0  0  0  0  0  0
   36.8570   24.8300   31.6550 C   0  0  0  0  0  0  0  0  0  0  0  0
   35.8510   24.0520   31.0850 C   0  0  0  0  0  0  0  0  0  0  0  0
   35.6730   22.7380   31.4590 C   0  0  0  0  0  0  0  0  0  0  0  0
   36.4760   22.1450   32.4100 C   0  0  0  0  0  0  0  0  0  0  0  0
   37.4850   22.9270   32.9840 C   0  0  0  0  0  0  0  0  0  0  0  0
   35.1800   24.4430   30.3400 H   0  0  0  0  0  0  0  0  0  0  0  0
   34.8850   22.1610   30.9990 H   0  0  0  0  0  0  0  0  0  0  0  0
   36.3020   21.1250   32.6580 H   0  0  0  0  0  0  0  0  0  0  0  0
   38.2970   22.2160   34.0030 C   0  0  0  0  0  2  0  0  0  0  0  0
   38.0950   22.5960   35.3550 N   0  0  0  0  0  4  0  0  0  0  0  0
   37.8680   23.6000   35.5310 H   0  0  0  0  0  0  0  0  0  0  0  0
   37.0770   21.8070   36.0010 C   0  0  0  0  0  2  0  0  0  0  0  0
   36.8410   22.1820   37.0260 H   0  0  0  0  0  0  0  0  0  0  0  0
   39.3530   22.2380   36.0460 C   0  0  0  0  0  2  0  0  0  0  0  0
   39.1700   22.3080   37.1110 H   0  0  0  0  0  0  0  0  0  0  0  0
  1  6  1  6  0  0  0
  1 11  1  0  0  0  0
  2  7  1  1  0  0  0
  2  1  1  0  0  0  0
  2 13  1  0  0  0  0
  3  2  1  0  0  0  0
  4  3  1  0  0  0  0
  4  5  1  0  0  0  0
  5 10  1  1  0  0  0
  5  1  1  0  0  0  0
  8  4  1  0  0  0  0
  9  4  1  0  0  0  0
 11 12  1  0  0  0  0
 13 18  1  0  0  0  0
 14 20  1  0  0  0  0
 14 15  1  0  0  0  0
 15 21  1  0  0  0  0
 16 22  1  0  0  0  0
 16 15  2  0  0  0  0
 17 16  1  0  0  0  0
 18 19  1  0  0  0  0
 18 17  2  0  0  0  0
 19 14  2  0  0  0  0
 23  5  1  0  0  0  0
 23 26  1  0  0  0  0
 25 30  1  0  0  0  0
 25 24  1  0  0  0  0
 26 25  2  0  0  0  0
 27 28  2  0  0  0  0
 27 26  1  0  0  0  0
 28 29  1  0  0  0  0
 29 33  1  0  0  0  0
 29 30  2  0  0  0  0
 30 34  1  0  0  0  0
 31 27  1  0  0  0  0
 32 28  1  0  0  0  0
 34 35  1  0  0  0  0
 35 36  1  0  0  0  0
 35 37  1  0  0  0  0
 35 39  1  0  0  0  0
 37 38  1  0  0  0  0
 39 40  1  0  0  0  0
M  END
>  <minimizedAffinity>
-5.06256151

$$$$

 OpenBabel03272506493D

 40 42  0  0  1  0  0  0  0  0999 V2000
   38.1630   24.7980   31.3100 C   0  0  2  0  0  0  0  0  0  0  0  0
   37.8850   23.4460   31.8970 C   0  0  1  0  0  0  0  0  0  0  0  0
   37.8110   23.5920   33.2610 O   0  0  0  0  0  0  0  0  0  0  0  0
   37.7040   24.9450   33.5700 C   0  0  0  0  0  0  0  0  0  0  0  0
   37.3270   25.6740   32.3050 C   0  0  1  0  0  0  0  0  0  0  0  0
   39.1850   25.1420   31.3870 H   0  0  0  0  0  0  0  0  0  0  0  0
   38.6530   22.7100   31.5790 H   0  0  0  0  0  0  0  0  0  0  0  0
   36.7770   25.0130   34.2290 H   0  0  0  0  0  0  0  0  0  0  0  0
   38.5730   25.2940   34.0970 H   0  0  0  0  0  0  0  0  0  0  0  0
   36.2990   25.5290   31.9750 H   0  0  0  0  0  0  0  0  0  0  0  0
   37.6000   24.8990   30.0260 O   0  0  0  0  0  0  0  0  0  0  0  0
   38.1510   25.5400   29.5000 H   0  0  0  0  0  0  0  0  0  0  0  0
   36.2480   22.8900   31.2940 S   0  0  0  0  0  0  0  0  0  0  0  0
   35.4230   19.6770   33.4410 C   0  0  0  0  0  0  0  0  0  0  0  0
   35.6020   18.6080   32.5900 C   0  0  0  0  0  0  0  0  0  0  0  0
   35.9970   18.8830   31.2780 C   0  0  0  0  0  0  0  0  0  0  0  0
   36.1850   20.1720   30.9160 N   0  0  0  0  0  0  0  0  0  0  0  0
   36.0010   21.1960   31.7790 C   0  0  0  0  0  0  0  0  0  0  0  0
   35.6160   20.9570   33.0590 N   0  0  0  0  0  0  0  0  0  0  0  0
   35.1050   19.4030   34.4650 H   0  0  0  0  0  0  0  0  0  0  0  0
   35.4660   17.5620   32.8110 H   0  0  0  0  0  0  0  0  0  0  0  0
   36.1870   18.1810   30.4690 H   0  0  0  0  0  0  0  0  0  0  0  0
   37.8130   26.9500   32.3600 O   0  0  0  0  0  0  0  0  0  0  0  0
   36.4980   28.1380   34.7080 Cl  0  0  0  0  0  0  0  0  0  0  0  0
   36.5050   28.6970   33.0550 C   0  0  0  0  0  0  0  0  0  0  0  0
   37.1600   28.0610   32.0270 C   0  0  0  0  0  0  0  0  0  0  0  0
   37.0910   28.6250   30.7550 C   0  0  0  0  0  0  0  0  0  0  0  0
   36.3870   29.7890   30.5330 C   0  0  0  0  0  0  0  0  0  0  0  0
   35.7290   30.4390   31.5560 C   0  0  0  0  0  0  0  0  0  0  0  0
   35.8000   29.8720   32.8340 C   0  0  0  0  0  0  0  0  0  0  0  0
   37.5810   28.1820   29.9060 H   0  0  0  0  0  0  0  0  0  0  0  0
   36.3510   30.2020   29.5360 H   0  0  0  0  0  0  0  0  0  0  0  0
   35.1930   31.3300   31.3290 H   0  0  0  0  0  0  0  0  0  0  0  0
   35.0720   30.6390   33.8770 C   0  0  0  0  0  2  0  0  0  0  0  0
   35.7190   31.7960   34.3820 N   0  0  0  0  0  4  0  0  0  0  0  0
   36.6120   32.0750   33.9170 H   0  0  0  0  0  0  0  0  0  0  0  0
   34.8570   32.9500   34.3840 C   0  0  0  0  0  2  0  0  0  0  0  0
   35.4010   33.8810   34.6740 H   0  0  0  0  0  0  0  0  0  0  0  0
   35.9680   31.5020   35.8100 C   0  0  0  0  0  2  0  0  0  0  0  0
   36.2620   32.4300   36.2860 H   0  0  0  0  0  0  0  0  0  0  0  0
  1  6  1  1  0  0  0
  1  2  1  0  0  0  0
  1  5  1  0  0  0  0
  2  7  1  6  0  0  0
  2  3  1  0  0  0  0
  3  4  1  0  0  0  0
  4  9  1  0  0  0  0
  4  8  1  0  0  0  0
  5 10  1  6  0  0  0
  5 23  1  0  0  0  0
  5  4  1  0  0  0  0
 11  1  1  0  0  0  0
 12 11  1  0  0  0  0
 13 18  1  0  0  0  0
 13  2  1  0  0  0  0
 14 20  1  0  0  0  0
 15 21  1  0  0  0  0
 15 14  2  0  0  0  0
 16 15  1  0  0  0  0
 17 16  2  0  0  0  0
 17 18  1  0  0  0  0
 18 19  2  0  0  0  0
 19 14  1  0  0  0  0
 22 16  1  0  0  0  0
 25 24  1  0  0  0  0
 26 23  1  0  0  0  0
 26 25  2  0  0  0  0
 27 26  1  0  0  0  0
 28 27  2  0  0  0  0
 28 29  1  0  0  0  0
 29 30  2  0  0  0  0
 30 25  1  0  0  0  0
 30 34  1  0  0  0  0
 31 27  1  0  0  0  0
 32 28  1  0  0  0  0
 33 29  1  0  0  0  0
 34 35  1  0  0  0  0
 35 37  1  0  0  0  0
 35 39  1  0  0  0  0
 36 35  1  0  0  0  0
 37 38  1  0  0  0  0
 39 40  1  0  0  0  0
M  END
>  <minimizedAffinity>
-5.02293682

$$$$

 OpenBabel03272506493D

 40 42  0  0  1  0  0  0  0  0999 V2000
   38.0850   24.0420   32.2220 C   0  0  2  0  0  0  0  0  0  0  0  0
   38.9330   23.1940   33.1220 C   0  0  1  0  0  0  0  0  0  0  0  0
   39.7740   24.0330   33.8130 O   0  0  0  0  0  0  0  0  0  0  0  0
   39.3300   25.3440   33.6700 C   0  0  0  0  0  0  0  0  0  0  0  0
   37.9150   25.2920   33.1530 C   0  0  1  0  0  0  0  0  0  0  0  0
   38.5650   24.3980   31.3210 H   0  0  0  0  0  0  0  0  0  0  0  0
   39.4730   22.4170   32.5420 H   0  0  0  0  0  0  0  0  0  0  0  0
   39.2330   25.7280   34.7380 H   0  0  0  0  0  0  0  0  0  0  0  0
   40.0350   25.9350   33.1140 H   0  0  0  0  0  0  0  0  0  0  0  0
   37.1670   24.9740   33.8780 H   0  0  0  0  0  0  0  0  0  0  0  0
   36.8280   23.4430   32.0270 O   0  0  0  0  0  0  0  0  0  0  0  0
   36.4920   23.7240   31.1330 H   0  0  0  0  0  0  0  0  0  0  0  0
   37.8330   22.3700   34.3320 S   0  0  0  0  0  0  0  0  0  0  0  0
   38.0100   23.7900   38.0150 C   0  0  0  0  0  0  0  0  0  0  0  0
   39.2170   23.3570   38.5200 C   0  0  0  0  0  0  0  0  0  0  0  0
   40.0280   22.5840   37.6870 C   0  0  0  0  0  0  0  0  0  0  0  0
   39.5920   22.3030   36.4380 N   0  0  0  0  0  0  0  0  0  0  0  0
   38.4010   22.7450   35.9760 C   0  0  0  0  0  0  0  0  0  0  0  0
   37.5930   23.4980   36.7660 N   0  0  0  0  0  0  0  0  0  0  0  0
   37.4050   24.3930   38.7190 H   0  0  0  0  0  0  0  0  0  0  0  0
   39.6230   23.5400   39.5020 H   0  0  0  0  0  0  0  0  0  0  0  0
   41.0050   22.1550   37.9020 H   0  0  0  0  0  0  0  0  0  0  0  0
   37.6630   26.4180   32.4180 O   0  0  0  0  0  0  0  0  0  0  0  0
   36.9050   28.1070   30.1330 Cl  0  0  0  0  0  0  0  0  0  0  0  0
   36.5960   28.3570   31.8310 C   0  0  0  0  0  0  0  0  0  0  0  0
   36.9970   27.4950   32.8240 C   0  0  0  0  0  0  0  0  0  0  0  0
   36.6720   27.8140   34.1410 C   0  0  0  0  0  0  0  0  0  0  0  0
   35.9680   28.9600   34.4400 C   0  0  0  0  0  0  0  0  0  0  0  0
   35.5560   29.8310   33.4540 C   0  0  0  0  0  0  0  0  0  0  0  0
   35.8820   29.5100   32.1310 C   0  0  0  0  0  0  0  0  0  0  0  0
   36.9520   27.1840   34.9670 H   0  0  0  0  0  0  0  0  0  0  0  0
   35.7310   29.1800   35.4710 H   0  0  0  0  0  0  0  0  0  0  0  0
   35.0220   30.7060   33.7390 H   0  0  0  0  0  0  0  0  0  0  0  0
   35.3950   30.4940   31.1310 C   0  0  0  0  0  2  0  0  0  0  0  0
   36.0200   31.7680   31.1380 N   0  0  0  0  0  4  0  0  0  0  0  0
   36.2490   32.1740   32.0730 H   0  0  0  0  0  0  0  0  0  0  0  0
   37.2290   31.7890   30.3540 C   0  0  0  0  0  2  0  0  0  0  0  0
   37.7780   32.7570   30.4530 H   0  0  0  0  0  0  0  0  0  0  0  0
   35.0830   32.6580   30.4200 C   0  0  0  0  0  2  0  0  0  0  0  0
   35.6090   33.5820   30.2110 H   0  0  0  0  0  0  0  0  0  0  0  0
  1  6  1  6  0  0  0
  1  2  1  0  0  0  0
  1  5  1  0  0  0  0
  2  7  1  6  0  0  0
  2  3  1  0  0  0  0
  2 13  1  0  0  0  0
  4  3  1  0  0  0  0
  4  8  1  0  0  0  0
  5  4  1  0  0  0  0
  5 10  1  1  0  0  0
  9  4  1  0  0  0  0
 11  1  1  0  0  0  0
 12 11  1  0  0  0  0
 13 18  1  0  0  0  0
 14 15  1  0  0  0  0
 14 20  1  0  0  0  0
 15 21  1  0  0  0  0
 16 22  1  0  0  0  0
 16 15  2  0  0  0  0
 17 16  1  0  0  0  0
 18 17  2  0  0  0  0
 18 19  1  0  0  0  0
 19 14  2  0  0  0  0
 23 26  1  0  0  0  0
 23  5  1  0  0  0  0
 24 25  1  0  0  0  0
 25 30  2  0  0  0  0
 25 26  1  0  0  0  0
 26 27  2  0  0  0  0
 27 28  1  0  0  0  0
 27 31  1  0  0  0  0
 28 32  1  0  0  0  0
 29 33  1  0  0  0  0
 29 28  2  0  0  0  0
 30 29  1  0  0  0  0
 34 35  1  0  0  0  0
 34 30  1  0  0  0  0
 35 36  1  0  0  0  0
 37 38  1  0  0  0  0
 37 35  1  0  0  0  0
 39 35  1  0  0  0  0
 40 39  1  0  0  0  0
M  END
>  <minimizedAffinity>
-5.01833105

$$$$

 OpenBabel03272506493D

 40 42  0  0  1  0  0  0  0  0999 V2000
   37.0580   25.2490   32.7980 C   0  0  2  0  0  0  0  0  0  0  0  0
   37.9420   24.0700   33.0720 C   0  0  1  0  0  0  0  0  0  0  0  0
   38.4150   23.6150   31.8650 O   0  0  0  0  0  0  0  0  0  0  0  0
   38.1690   24.5740   30.8880 C   0  0  0  0  0  0  0  0  0  0  0  0
   37.8420   25.8670   31.5890 C   0  0  1  0  0  0  0  0  0  0  0  0
   36.0670   25.0170   32.4310 H   0  0  0  0  0  0  0  0  0  0  0  0
   37.4000   23.2910   33.6480 H   0  0  0  0  0  0  0  0  0  0  0  0
   39.1860   24.7570   30.4070 H   0  0  0  0  0  0  0  0  0  0  0  0
   37.4620   24.2170   30.1610 H   0  0  0  0  0  0  0  0  0  0  0  0
   38.6870   26.3670   32.0600 H   0  0  0  0  0  0  0  0  0  0  0  0
   37.0940   26.1490   33.8770 O   0  0  0  0  0  0  0  0  0  0  0  0
   36.2220   26.6270   33.9050 H   0  0  0  0  0  0  0  0  0  0  0  0
   39.3710   24.6480   34.0610 S   0  0  0  0  0  0  0  0  0  0  0  0
   37.9100   24.1910   37.7040 C   0  0  0  0  0  0  0  0  0  0  0  0
   38.7750   23.3290   38.3430 C   0  0  0  0  0  0  0  0  0  0  0  0
   39.8720   22.8560   37.6200 C   0  0  0  0  0  0  0  0  0  0  0  0
   40.0290   23.2670   36.3410 N   0  0  0  0  0  0  0  0  0  0  0  0
   39.1600   24.1140   35.7450 C   0  0  0  0  0  0  0  0  0  0  0  0
   38.0850   24.5880   36.4260 N   0  0  0  0  0  0  0  0  0  0  0  0
   37.0560   24.5300   38.3210 H   0  0  0  0  0  0  0  0  0  0  0  0
   38.7080   22.9600   39.3540 H   0  0  0  0  0  0  0  0  0  0  0  0
   40.6560   22.1780   37.9480 H   0  0  0  0  0  0  0  0  0  0  0  0
   37.0110   26.6110   30.7980 O   0  0  0  0  0  0  0  0  0  0  0  0
   35.0250   28.3200   32.1340 Cl  0  0  0  0  0  0  0  0  0  0  0  0
   36.2940   28.7740   31.0270 C   0  0  0  0  0  0  0  0  0  0  0  0
   37.1760   27.8860   30.4570 C   0  0  0  0  0  0  0  0  0  0  0  0
   38.1500   28.3890   29.5960 C   0  0  0  0  0  0  0  0  0  0  0  0
   38.2270   29.7370   29.3240 C   0  0  0  0  0  0  0  0  0  0  0  0
   37.3520   30.6390   29.8910 C   0  0  0  0  0  0  0  0  0  0  0  0
   36.3740   30.1330   30.7560 C   0  0  0  0  0  0  0  0  0  0  0  0
   38.8730   27.7520   29.1180 H   0  0  0  0  0  0  0  0  0  0  0  0
   38.9930   30.0960   28.6520 H   0  0  0  0  0  0  0  0  0  0  0  0
   37.4500   31.6680   29.6410 H   0  0  0  0  0  0  0  0  0  0  0  0
   35.4790   31.1700   31.3290 C   0  0  0  0  0  2  0  0  0  0  0  0
   34.3190   31.4920   30.5790 N   0  0  0  0  0  4  0  0  0  0  0  0
   34.1970   30.9980   29.6670 H   0  0  0  0  0  0  0  0  0  0  0  0
   33.1070   31.3010   31.3340 C   0  0  0  0  0  2  0  0  0  0  0  0
   32.1930   31.4450   30.7080 H   0  0  0  0  0  0  0  0  0  0  0  0
   34.4020   32.9510   30.3520 C   0  0  0  0  0  2  0  0  0  0  0  0
   33.4400   33.2760   29.9750 H   0  0  0  0  0  0  0  0  0  0  0  0
  1  6  1  6  0  0  0
  1  2  1  0  0  0  0
  1 11  1  0  0  0  0
  2  7  1  1  0  0  0
  2 13  1  0  0  0  0
  3  2  1  0  0  0  0
  4  5  1  0  0  0  0
  4  3  1  0  0  0  0
  5 10  1  1  0  0  0
  5  1  1  0  0  0  0
  8  4  1  0  0  0  0
  9  4  1  0  0  0  0
 11 12  1  0  0  0  0
 13 18  1  0  0  0  0
 14 20  1  0  0  0  0
 14 15  1  0  0  0  0
 15 21  1  0  0  0  0
 16 22  1  0  0  0  0
 16 15  2  0  0  0  0
 17 16  1  0  0  0  0
 18 17  2  0  0  0  0
 18 19  1  0  0  0  0
 19 14  2  0  0  0  0
 23  5  1  0  0  0  0
 25 24  1  0  0  0  0
 26 23  1  0  0  0  0
 26 25  2  0  0  0  0
 27 26  1  0  0  0  0
 28 27  2  0  0  0  0
 28 29  1  0  0  0  0
 29 30  2  0  0  0  0
 30 25  1  0  0  0  0
 30 34  1  0  0  0  0
 31 27  1  0  0  0  0
 32 28  1  0  0  0  0
 33 29  1  0  0  0  0
 35 34  1  0  0  0  0
 35 37  1  0  0  0  0
 36 35  1  0  0  0  0
 38 37  1  0  0  0  0
 39 35  1  0  0  0  0
 40 39  1  0  0  0  0
M  END
>  <minimizedAffinity>
-4.93036556

$$$$

 OpenBabel03272506493D

 40 42  0  0  1  0  0  0  0  0999 V2000
   37.0130   25.5840   32.9070 C   0  0  2  0  0  0  0  0  0  0  0  0
   37.9960   24.4570   33.0230 C   0  0  1  0  0  0  0  0  0  0  0  0
   38.4980   24.2130   31.7680 O   0  0  0  0  0  0  0  0  0  0  0  0
   38.1650   25.2720   30.9290 C   0  0  0  0  0  0  0  0  0  0  0  0
   37.7350   26.4250   31.7990 C   0  0  1  0  0  0  0  0  0  0  0  0
   36.0430   25.3220   32.5070 H   0  0  0  0  0  0  0  0  0  0  0  0
   37.5240   23.5650   33.4850 H   0  0  0  0  0  0  0  0  0  0  0  0
   39.1610   25.6040   30.4830 H   0  0  0  0  0  0  0  0  0  0  0  0
   37.4860   24.9590   30.1570 H   0  0  0  0  0  0  0  0  0  0  0  0
   38.5380   26.9260   32.3370 H   0  0  0  0  0  0  0  0  0  0  0  0
   36.9810   26.3290   34.1000 O   0  0  0  0  0  0  0  0  0  0  0  0
   36.0710   26.7230   34.1880 H   0  0  0  0  0  0  0  0  0  0  0  0
   39.3770   25.0140   34.0890 S   0  0  0  0  0  0  0  0  0  0  0  0
   37.9450   24.2460   37.6910 C   0  0  0  0  0  0  0  0  0  0  0  0
   38.7820   23.2910   38.2260 C   0  0  0  0  0  0  0  0  0  0  0  0
   39.8500   22.8520   37.4400 C   0  0  0  0  0  0  0  0  0  0  0  0
   40.0070   23.3840   36.2060 N   0  0  0  0  0  0  0  0  0  0  0  0
   39.1650   24.3200   35.7140 C   0  0  0  0  0  0  0  0  0  0  0  0
   38.1190   24.7640   36.4580 N   0  0  0  0  0  0  0  0  0  0  0  0
   37.1130   24.5540   38.3530 H   0  0  0  0  0  0  0  0  0  0  0  0
   38.7130   22.8240   39.1950 H   0  0  0  0  0  0  0  0  0  0  0  0
   40.6100   22.1140   37.6840 H   0  0  0  0  0  0  0  0  0  0  0  0
   36.8400   27.1980   31.1120 O   0  0  0  0  0  0  0  0  0  0  0  0
   37.9210   28.6300   28.7810 Cl  0  0  0  0  0  0  0  0  0  0  0  0
   37.1390   29.2770   30.2000 C   0  0  0  0  0  0  0  0  0  0  0  0
   36.6660   28.5100   31.2390 C   0  0  0  0  0  0  0  0  0  0  0  0
   36.0510   29.1590   32.3070 C   0  0  0  0  0  0  0  0  0  0  0  0
   35.9210   30.5310   32.3240 C   0  0  0  0  0  0  0  0  0  0  0  0
   36.3880   31.3120   31.2880 C   0  0  0  0  0  0  0  0  0  0  0  0
   37.0040   30.6590   30.2140 C   0  0  0  0  0  0  0  0  0  0  0  0
   35.6560   28.6210   33.1520 H   0  0  0  0  0  0  0  0  0  0  0  0
   35.4400   31.0050   33.1670 H   0  0  0  0  0  0  0  0  0  0  0  0
   36.2690   32.3670   31.3530 H   0  0  0  0  0  0  0  0  0  0  0  0
   37.4700   31.5710   29.1380 C   0  0  0  0  0  2  0  0  0  0  0  0
   36.5520   31.8390   28.0910 N   0  0  0  0  0  4  0  0  0  0  0  0
   35.7120   31.2200   28.0330 H   0  0  0  0  0  0  0  0  0  0  0  0
   36.0810   33.2010   28.1090 C   0  0  0  0  0  2  0  0  0  0  0  0
   35.2750   33.3770   27.3560 H   0  0  0  0  0  0  0  0  0  0  0  0
   37.3450   31.7250   26.8480 C   0  0  0  0  0  2  0  0  0  0  0  0
   36.7460   32.1300   26.0420 H   0  0  0  0  0  0  0  0  0  0  0  0
  1  6  1  6  0  0  0
  1  2  1  0  0  0  0
  1 11  1  0  0  0  0
  2  7  1  1  0  0  0
  2 13  1  0  0  0  0
  3  2  1  0  0  0  0
  4  3  1  0  0  0  0
  4  5  1  0  0  0  0
  5 10  1  1  0  0  0
  5  1  1  0  0  0  0
  8  4  1  0  0  0  0
  9  4  1  0  0  0  0
 11 12  1  0  0  0  0
 13 18  1  0  0  0  0
 14 15  1  0  0  0  0
 14 20  1  0  0  0  0
 15 21  1  0  0  0  0
 16 22  1  0  0  0  0
 16 15  2  0  0  0  0
 17 16  1  0  0  0  0
 18 17  2  0  0  0  0
 18 19  1  0  0  0  0
 19 14  2  0  0  0  0
 23 26  1  0  0  0  0
 23  5  1  0  0  0  0
 24 25  1  0  0  0  0
 25 30  2  0  0  0  0
 25 26  1  0  0  0  0
 26 27  2  0  0  0  0
 27 28  1  0  0  0  0
 27 31  1  0  0  0  0
 28 32  1  0  0  0  0
 29 33  1  0  0  0  0
 29 28  2  0  0  0  0
 30 29  1  0  0  0  0
 34 30  1  0  0  0  0
 35 37  1  0  0  0  0
 35 34  1  0  0  0  0
 36 35  1  0  0  0  0
 38 37  1  0  0  0  0
 39 35  1  0  0  0  0
 40 39  1  0  0  0  0
M  END
>  <minimizedAffinity>
-4.91740799

$$$$

 OpenBabel03272506493D

 40 42  0  0  1  0  0  0  0  0999 V2000
   36.3310   29.0380   33.3010 C   0  0  2  0  0  0  0  0  0  0  0  0
   35.2980   29.9480   32.7060 C   0  0  1  0  0  0  0  0  0  0  0  0
   35.3470   29.7970   31.3420 O   0  0  0  0  0  0  0  0  0  0  0  0
   36.0870   28.6600   31.0340 C   0  0  0  0  0  0  0  0  0  0  0  0
   36.2120   27.8420   32.2950 C   0  0  1  0  0  0  0  0  0  0  0  0
   37.3530   29.3850   33.2400 H   0  0  0  0  0  0  0  0  0  0  0  0
   35.4570   30.9970   33.0340 H   0  0  0  0  0  0  0  0  0  0  0  0
   35.4010   28.0480   30.3610 H   0  0  0  0  0  0  0  0  0  0  0  0
   36.9970   28.9140   30.5220 H   0  0  0  0  0  0  0  0  0  0  0  0
   35.3030   27.3310   32.6080 H   0  0  0  0  0  0  0  0  0  0  0  0
   35.9260   28.6060   34.5760 O   0  0  0  0  0  0  0  0  0  0  0  0
   36.7460   28.4280   35.1120 H   0  0  0  0  0  0  0  0  0  0  0  0
   33.6510   29.3920   33.2810 S   0  0  0  0  0  0  0  0  0  0  0  0
   31.9400   30.2630   36.7350 C   0  0  0  0  0  0  0  0  0  0  0  0
   32.7420   31.2230   37.3130 C   0  0  0  0  0  0  0  0  0  0  0  0
   33.8760   31.6310   36.6070 C   0  0  0  0  0  0  0  0  0  0  0  0
   34.1250   31.0690   35.4030 N   0  0  0  0  0  0  0  0  0  0  0  0
   33.3150   30.1290   34.8660 C   0  0  0  0  0  0  0  0  0  0  0  0
   32.2070   29.7140   35.5320 N   0  0  0  0  0  0  0  0  0  0  0  0
   31.0590   29.9720   37.3390 H   0  0  0  0  0  0  0  0  0  0  0  0
   32.6050   31.7070   38.2660 H   0  0  0  0  0  0  0  0  0  0  0  0
   34.6210   32.3690   36.8940 H   0  0  0  0  0  0  0  0  0  0  0  0
   37.3740   27.1230   32.2510 O   0  0  0  0  0  0  0  0  0  0  0  0
   39.0300   27.1100   34.6820 Cl  0  0  0  0  0  0  0  0  0  0  0  0
   38.3190   25.7620   33.8330 C   0  0  0  0  0  0  0  0  0  0  0  0
   37.5540   25.8820   32.6970 C   0  0  0  0  0  0  0  0  0  0  0  0
   37.0370   24.7210   32.1270 C   0  0  0  0  0  0  0  0  0  0  0  0
   37.2850   23.4850   32.6860 C   0  0  0  0  0  0  0  0  0  0  0  0
   38.0480   23.3510   33.8270 C   0  0  0  0  0  0  0  0  0  0  0  0
   38.5660   24.5190   34.4000 C   0  0  0  0  0  0  0  0  0  0  0  0
   36.4280   24.7410   31.2400 H   0  0  0  0  0  0  0  0  0  0  0  0
   36.8710   22.6030   32.2210 H   0  0  0  0  0  0  0  0  0  0  0  0
   38.2160   22.3750   34.2140 H   0  0  0  0  0  0  0  0  0  0  0  0
   39.3670   24.2870   35.6280 C   0  0  0  0  0  2  0  0  0  0  0  0
   38.8170   23.3980   36.5860 N   0  0  0  0  0  4  0  0  0  0  0  0
   38.2230   22.6200   36.2190 H   0  0  0  0  0  0  0  0  0  0  0  0
   39.8250   22.8060   37.4280 C   0  0  0  0  0  2  0  0  0  0  0  0
   39.4030   22.0230   38.1040 H   0  0  0  0  0  0  0  0  0  0  0  0
   38.0190   24.2540   37.4900 C   0  0  0  0  0  2  0  0  0  0  0  0
   37.7580   23.6580   38.3560 H   0  0  0  0  0  0  0  0  0  0  0  0
  1  6  1  1  0  0  0
  1 11  1  0  0  0  0
  2  7  1  1  0  0  0
  2 13  1  0  0  0  0
  2  1  1  0  0  0  0
  3  2  1  0  0  0  0
  4  3  1  0  0  0  0
  4  5  1  0  0  0  0
  5 10  1  1  0  0  0
  5  1  1  0  0  0  0
  8  4  1  0  0  0  0
  9  4  1  0  0  0  0
 11 12  1  0  0  0  0
 13 18  1  0  0  0  0
 14 15  1  0  0  0  0
 14 20  1  0  0  0  0
 15 21  1  0  0  0  0
 16 22  1  0  0  0  0
 16 15  2  0  0  0  0
 17 16  1  0  0  0  0
 18 17  2  0  0  0  0
 18 19  1  0  0  0  0
 19 14  2  0  0  0  0
 23  5  1  0  0  0  0
 23 26  1  0  0  0  0
 25 30  1  0  0  0  0
 25 24  1  0  0  0  0
 26 25  2  0  0  0  0
 27 28  2  0  0  0  0
 27 26  1  0  0  0  0
 28 29  1  0  0  0  0
 29 33  1  0  0  0  0
 29 30  2  0  0  0  0
 30 34  1  0  0  0  0
 31 27  1  0  0  0  0
 32 28  1  0  0  0  0
 34 35  1  0  0  0  0
 35 37  1  0  0  0  0
 35 39  1  0  0  0  0
 36 35  1  0  0  0  0
 37 38  1  0  0  0  0
 39 40  1  0  0  0  0
M  END
>  <minimizedAffinity>
-4.90041971

$$$$

 OpenBabel03272506493D

 40 42  0  0  1  0  0  0  0  0999 V2000
   37.4770   25.2580   31.1990 C   0  0  2  0  0  0  0  0  0  0  0  0
   37.4840   23.7770   31.4300 C   0  0  1  0  0  0  0  0  0  0  0  0
   38.0050   23.5540   32.6820 O   0  0  0  0  0  0  0  0  0  0  0  0
   38.0370   24.7560   33.3830 C   0  0  0  0  0  0  0  0  0  0  0  0
   37.1490   25.7330   32.6560 C   0  0  1  0  0  0  0  0  0  0  0  0
   38.4310   25.6980   30.9440 H   0  0  0  0  0  0  0  0  0  0  0  0
   38.0420   23.2520   30.6270 H   0  0  0  0  0  0  0  0  0  0  0  0
   37.4850   24.5320   34.3550 H   0  0  0  0  0  0  0  0  0  0  0  0
   39.0480   25.0640   33.5810 H   0  0  0  0  0  0  0  0  0  0  0  0
   36.0800   25.5490   32.7530 H   0  0  0  0  0  0  0  0  0  0  0  0
   36.4140   25.6160   30.3510 O   0  0  0  0  0  0  0  0  0  0  0  0
   36.6820   26.4350   29.8540 H   0  0  0  0  0  0  0  0  0  0  0  0
   35.7490   23.1920   31.4250 S   0  0  0  0  0  0  0  0  0  0  0  0
   35.4520   19.8170   33.4590 C   0  0  0  0  0  0  0  0  0  0  0  0
   35.6690   18.8120   32.5420 C   0  0  0  0  0  0  0  0  0  0  0  0
   35.9200   19.1850   31.2190 C   0  0  0  0  0  0  0  0  0  0  0  0
   35.9400   20.5020   30.9110 N   0  0  0  0  0  0  0  0  0  0  0  0
   35.7230   21.4610   31.8380 C   0  0  0  0  0  0  0  0  0  0  0  0
   35.4760   21.1260   33.1300 N   0  0  0  0  0  0  0  0  0  0  0  0
   35.2510   19.4660   34.4900 H   0  0  0  0  0  0  0  0  0  0  0  0
   35.6630   17.7490   32.7180 H   0  0  0  0  0  0  0  0  0  0  0  0
   36.1140   18.5450   30.3620 H   0  0  0  0  0  0  0  0  0  0  0  0
   37.6060   27.0030   32.8710 O   0  0  0  0  0  0  0  0  0  0  0  0
   37.6270   28.7670   30.5180 Cl  0  0  0  0  0  0  0  0  0  0  0  0
   36.8070   28.9820   32.0420 C   0  0  0  0  0  0  0  0  0  0  0  0
   36.8640   28.0860   33.0830 C   0  0  0  0  0  0  0  0  0  0  0  0
   36.1480   28.3790   34.2420 C   0  0  0  0  0  0  0  0  0  0  0  0
   35.4040   29.5350   34.3420 C   0  0  0  0  0  0  0  0  0  0  0  0
   35.3350   30.4400   33.3050 C   0  0  0  0  0  0  0  0  0  0  0  0
   36.0530   30.1440   32.1400 C   0  0  0  0  0  0  0  0  0  0  0  0
   36.1460   27.7220   35.0940 H   0  0  0  0  0  0  0  0  0  0  0  0
   34.8600   29.7340   35.2540 H   0  0  0  0  0  0  0  0  0  0  0  0
   34.7530   31.3210   33.4370 H   0  0  0  0  0  0  0  0  0  0  0  0
   35.9190   31.1660   31.0710 C   0  0  0  0  0  2  0  0  0  0  0  0
   36.7680   32.2980   31.1640 N   0  0  0  0  0  4  0  0  0  0  0  0
   37.3310   32.3920   32.0380 H   0  0  0  0  0  0  0  0  0  0  0  0
   37.6810   32.3920   30.0530 C   0  0  0  0  0  2  0  0  0  0  0  0
   38.4210   33.2180   30.1860 H   0  0  0  0  0  0  0  0  0  0  0  0
   35.8680   33.4640   31.0200 C   0  0  0  0  0  2  0  0  0  0  0  0
   36.4910   34.3370   30.8680 H   0  0  0  0  0  0  0  0  0  0  0  0
  1  6  1  6  0  0  0
  1  2  1  0  0  0  0
  1  5  1  0  0  0  0
  2  7  1  6  0  0  0
  2  3  1  0  0  0  0
  3  4  1  0  0  0  0
  4  9  1  0  0  0  0
  4  8  1  0  0  0  0
  5 10  1  1  0  0  0
  5 23  1  0  0  0  0
  5  4  1  0  0  0  0
 11  1  1  0  0  0  0
 12 11  1  0  0  0  0
 13  2  1  0  0  0  0
 13 18  1  0  0  0  0
 14 20  1  0  0  0  0
 15 21  1  0  0  0  0
 15 14  2  0  0  0  0
 16 15  1  0  0  0  0
 17 16  2  0  0  0  0
 17 18  1  0  0  0  0
 18 19  2  0  0  0  0
 19 14  1  0  0  0  0
 22 16  1  0  0  0  0
 23 26  1  0  0  0  0
 24 25  1  0  0  0  0
 25 30  2  0  0  0  0
 25 26  1  0  0  0  0
 26 27  2  0  0  0  0
 27 28  1  0  0  0  0
 27 31  1  0  0  0  0
 28 32  1  0  0  0  0
 29 33  1  0  0  0  0
 29 28  2  0  0  0  0
 30 29  1  0  0  0  0
 34 35  1  0  0  0  0
 34 30  1  0  0  0  0
 35 36  1  0  0  0  0
 37 38  1  0  0  0  0
 37 35  1  0  0  0  0
 39 35  1  0  0  0  0
 40 39  1  0  0  0  0
M  END
>  <minimizedAffinity>
-4.86049223

$$$$
