
 OpenBabel03272507223D

 41 44  0  0  1  0  0  0  0  0999 V2000
   38.2050   31.5550   47.4190 C   0  0  0  0  0  0  0  0  0  0  0  0
   38.8230   32.7690   47.6130 C   0  0  0  0  0  0  0  0  0  0  0  0
   39.7640   33.1220   46.6380 C   0  0  0  0  0  0  0  0  0  0  0  0
   40.0200   32.2920   45.5860 N   0  0  0  0  0  0  0  0  0  0  0  0
   39.3920   31.1040   45.4270 C   0  0  0  0  0  0  0  0  0  0  0  0
   38.4750   30.7430   46.3620 N   0  0  0  0  0  0  0  0  0  0  0  0
   38.6550   33.4450   48.4150 H   0  0  0  0  0  0  0  0  0  0  0  0
   40.3010   34.0640   46.7130 H   0  0  0  0  0  0  0  0  0  0  0  0
   40.6660   30.6110   43.4150 C   0  0  0  0  0  0  0  0  0  0  0  0
   39.6800   30.2220   44.2950 C   0  0  0  0  0  0  0  0  0  0  0  0
   39.0030   29.0290   44.0860 C   0  0  0  0  0  0  0  0  0  0  0  0
   39.2650   28.1900   43.0200 C   0  0  0  0  0  0  0  0  0  0  0  0
   38.7750   27.0140   42.5950 N   0  0  0  0  0  0  0  0  0  0  0  0
   39.4590   26.7060   41.4740 C   0  0  0  0  0  0  0  0  0  0  0  0
   40.3570   27.6630   41.2010 N   0  0  0  0  0  0  0  0  0  0  0  0
   40.2690   28.6170   42.1500 C   0  0  0  0  0  0  0  0  0  0  0  0
   40.9620   29.8020   42.3330 C   0  0  0  0  0  0  0  0  0  0  0  0
   41.2240   31.5260   43.5280 H   0  0  0  0  0  0  0  0  0  0  0  0
   38.2310   28.7430   44.7910 H   0  0  0  0  0  0  0  0  0  0  0  0
   38.0080   26.5080   43.1020 H   0  0  0  0  0  0  0  0  0  0  0  0
   39.2950   25.8120   40.8930 H   0  0  0  0  0  0  0  0  0  0  0  0
   41.7330   30.0660   41.6100 H   0  0  0  0  0  0  0  0  0  0  0  0
   37.1910   31.1260   48.4550 C   0  0  1  0  0  0  0  0  0  0  0  0
   35.9070   30.5890   48.0690 C   0  0  2  0  0  0  0  0  0  0  0  0
   37.0270   29.6100   48.4930 C   0  0  2  0  0  0  0  0  0  0  0  0
   37.2700   31.7160   49.3970 H   0  0  0  0  0  0  0  0  0  0  0  0
   35.1330   30.3260   48.8740 H   0  0  0  0  0  0  0  0  0  0  0  0
   37.4170   29.0190   47.6680 H   0  0  0  0  0  0  0  0  0  0  0  0
   35.5860   30.5100   46.7570 O   0  0  0  0  0  0  0  0  0  0  0  0
   34.5680   30.1000   46.0070 C   0  0  0  0  0  0  0  0  0  0  0  0
   34.8590   29.2180   45.1400 O   0  0  0  0  0  0  0  0  0  0  0  0
   33.3550   30.6860   46.2740 N   0  0  0  0  0  0  0  0  0  0  0  0
   32.5720   30.3550   46.8860 H   0  0  0  0  0  0  0  0  0  0  0  0
   33.0230   31.5980   45.8810 H   0  0  0  0  0  0  0  0  0  0  0  0
   37.1010   29.0600   49.8710 C   0  0  0  0  0  2  0  0  0  0  0  0
   36.4510   29.8350   50.8780 N   0  0  0  0  0  4  0  0  0  0  0  0
   36.2810   30.8030   50.5230 H   0  0  0  0  0  0  0  0  0  0  0  0
   35.1990   29.3230   51.3520 C   0  0  0  0  0  2  0  0  0  0  0  0
   34.9320   29.9360   52.2510 H   0  0  0  0  0  0  0  0  0  0  0  0
   37.3390   29.9940   52.0160 C   0  0  0  0  0  2  0  0  0  0  0  0
   37.0050   29.3440   52.8730 H   0  0  0  0  0  0  0  0  0  0  0  0
  1  2  1  0  0  0  0
  1 23  1  0  0  0  0
  2  7  1  0  0  0  0
  3  8  1  0  0  0  0
  3  2  2  0  0  0  0
  4  3  1  0  0  0  0
  5  4  2  0  0  0  0
  5  6  1  0  0  0  0
  6  1  2  0  0  0  0
  9 18  1  0  0  0  0
  9 10  1  0  0  0  0
 10  5  1  0  0  0  0
 11 10  2  0  0  0  0
 11 19  1  0  0  0  0
 12 11  1  0  0  0  0
 13 12  1  0  0  0  0
 13 20  1  0  0  0  0
 14 13  1  0  0  0  0
 15 14  2  0  0  0  0
 15 16  1  0  0  0  0
 16 17  1  0  0  0  0
 16 12  2  0  0  0  0
 17  9  2  0  0  0  0
 21 14  1  0  0  0  0
 22 17  1  0  0  0  0
 23 25  1  0  0  0  0
 23 26  1  1  0  0  0
 24 23  1  0  0  0  0
 24 25  1  0  0  0  0
 24 27  1  1  0  0  0
 25 28  1  6  0  0  0
 25 35  1  0  0  0  0
 29 24  1  0  0  0  0
 30 32  1  0  0  0  0
 30 29  1  0  0  0  0
 31 30  2  0  0  0  0
 32 33  1  0  0  0  0
 34 32  1  0  0  0  0
 35 36  1  0  0  0  0
 36 38  1  0  0  0  0
 36 40  1  0  0  0  0
 37 36  1  0  0  0  0
 38 39  1  0  0  0  0
 40 41  1  0  0  0  0
M  END
>  <minimizedAffinity>
-5.45461988

>  <minimizedRMSD>
2.40297699

$$$$
