
 OpenBabel03272502343D

 34 35  0  0  1  0  0  0  0  0999 V2000
   37.3380   30.4960   48.6010 C   0  0  2  0  0  0  0  0  0  0  0  0
   37.8330   29.5030   48.6330 H   0  0  0  0  0  0  0  0  0  0  0  0
   38.2130   31.5580   48.0780 C   0  0  0  0  0  0  0  0  0  0  0  0
   38.4400   32.6060   49.0110 C   0  0  0  0  0  0  0  0  0  0  0  0
   39.2210   33.7040   48.7560 C   0  0  0  0  0  0  0  0  0  0  0  0
   39.8590   33.8510   47.5120 C   0  0  0  0  0  0  0  0  0  0  0  0
   39.5880   32.7870   46.6590 C   0  0  0  0  0  0  0  0  0  0  0  0
   38.8300   31.7080   46.8880 N   0  0  0  0  0  0  0  0  0  0  0  0
   38.0580   32.7220   50.0420 H   0  0  0  0  0  0  0  0  0  0  0  0
   39.4300   34.5280   49.4190 H   0  0  0  0  0  0  0  0  0  0  0  0
   40.4940   34.6240   47.1440 H   0  0  0  0  0  0  0  0  0  0  0  0
   40.0140   32.7590   45.6530 H   0  0  0  0  0  0  0  0  0  0  0  0
   35.1420   29.6490   48.1820 C   0  0  0  0  0  0  0  0  0  0  0  0
   36.0910   30.4210   47.7660 C   0  0  0  0  0  0  0  0  0  0  0  0
   32.3340   30.4000   45.8440 C   0  0  0  0  0  0  0  0  0  0  0  0
   33.5240   30.4580   46.5490 C   0  0  0  0  0  0  0  0  0  0  0  0
   33.8890   29.5080   47.4690 C   0  0  0  0  0  0  0  0  0  0  0  0
   33.0250   28.4850   47.6710 N   0  0  0  0  0  0  0  0  0  0  0  0
   31.8790   28.4330   46.9880 C   0  0  0  0  0  0  0  0  0  0  0  0
   31.5200   29.3610   46.0880 N   0  0  0  0  0  0  0  0  0  0  0  0
   32.0080   31.1190   45.1160 H   0  0  0  0  0  0  0  0  0  0  0  0
   34.0940   31.3320   46.2690 H   0  0  0  0  0  0  0  0  0  0  0  0
   30.9440   27.3030   47.2220 C   0  0  0  0  0  0  0  0  0  0  0  0
   29.9320   27.6110   48.1950 N   0  0  0  0  0  0  0  0  0  0  0  0
   29.3070   26.7580   48.2270 H   0  0  0  0  0  0  0  0  0  0  0  0
   30.4240   27.7870   49.5350 C   0  0  0  0  0  0  0  0  0  0  0  0
   30.2180   26.9110   50.1950 H   0  0  0  0  0  0  0  0  0  0  0  0
   29.0590   28.6910   47.7750 C   0  0  0  0  0  0  0  0  0  0  0  0
   29.6130   29.6180   47.6280 H   0  0  0  0  0  0  0  0  0  0  0  0
   36.8340   31.0320   50.2730 S   0  0  0  0  0  0  0  0  0  0  0  0
   36.8790   29.6680   51.4230 C   0  0  0  0  0  0  0  0  0  0  0  0
   37.5620   29.9560   52.5920 F   0  0  0  0  0  0  0  0  0  0  0  0
   35.6150   29.1730   51.6770 F   0  0  0  0  0  0  0  0  0  0  0  0
   37.5700   28.6230   50.7660 F   0  0  0  0  0  0  0  0  0  0  0  0
  1  2  1  1  0  0  0
  1 30  1  0  0  0  0
  3  1  1  0  0  0  0
  3  4  1  0  0  0  0
  4  9  1  0  0  0  0
  5  4  2  0  0  0  0
  5 10  1  0  0  0  0
  6  5  1  0  0  0  0
  7  8  1  0  0  0  0
  7  6  2  0  0  0  0
  8  3  2  0  0  0  0
 11  6  1  0  0  0  0
 12  7  1  0  0  0  0
 14 13  2  0  0  0  0
 14  1  1  0  0  0  0
 15 20  2  0  0  0  0
 15 16  1  0  0  0  0
 16 17  2  0  0  0  0
 17 18  1  0  0  0  0
 17 13  1  0  0  0  0
 19 23  1  0  0  0  0
 19 18  2  0  0  0  0
 20 19  1  0  0  0  0
 21 15  1  0  0  0  0
 22 16  1  0  0  0  0
 23 24  1  0  0  0  0
 24 25  1  0  0  0  0
 24 26  1  0  0  0  0
 26 27  1  0  0  0  0
 28 24  1  0  0  0  0
 29 28  1  0  0  0  0
 30 31  1  0  0  0  0
 31 33  1  0  0  0  0
 31 32  1  0  0  0  0
 34 31  1  0  0  0  0
M  END
>  <minimizedAffinity>
-6.01258755

>  <minimizedRMSD>
1.35001707

$$$$
