
 OpenBabel03272507473D

 44 47  0  0  0  0  0  0  0  0999 V2000
   31.7030   28.1770   47.3810 N   0  0  0  0  0  0  0  0  0  0  0  0
   32.2720   27.5670   48.5330 C   0  0  0  0  0  0  0  0  0  0  0  0
   33.5530   28.1270   49.0260 C   0  0  0  0  0  0  0  0  0  0  0  0
   34.5150   28.5600   48.0140 C   0  0  0  0  0  0  0  0  0  0  0  0
   33.8300   29.1420   46.7620 C   0  0  0  0  0  0  0  0  0  0  0  0
   32.7140   28.1620   46.3610 C   0  0  0  0  0  0  0  0  0  0  0  0
   31.5220   27.5610   49.3740 H   0  0  0  0  0  0  0  0  0  0  0  0
   32.4380   26.4880   48.2910 H   0  0  0  0  0  0  0  0  0  0  0  0
   33.1940   29.0710   49.5570 H   0  0  0  0  0  0  0  0  0  0  0  0
   34.0160   27.4240   49.7400 H   0  0  0  0  0  0  0  0  0  0  0  0
   35.1400   27.7290   47.5860 H   0  0  0  0  0  0  0  0  0  0  0  0
   34.5670   29.2050   45.9430 H   0  0  0  0  0  0  0  0  0  0  0  0
   33.3480   30.0870   47.0330 H   0  0  0  0  0  0  0  0  0  0  0  0
   32.2810   28.5380   45.3980 H   0  0  0  0  0  0  0  0  0  0  0  0
   33.1570   27.1520   46.1740 H   0  0  0  0  0  0  0  0  0  0  0  0
   35.5220   29.8840   49.8130 C   0  0  0  0  0  0  0  0  0  0  0  0
   35.4590   29.6160   48.4560 C   0  0  0  0  0  0  0  0  0  0  0  0
   36.1920   30.2810   47.5100 C   0  0  0  0  0  0  0  0  0  0  0  0
   37.0520   31.2900   47.9430 C   0  0  0  0  0  0  0  0  0  0  0  0
   37.1160   31.5590   49.2910 C   0  0  0  0  0  0  0  0  0  0  0  0
   36.3730   30.8840   50.2560 C   0  0  0  0  0  0  0  0  0  0  0  0
   38.0300   32.6010   49.5300 O   0  0  0  0  0  0  0  0  0  0  0  0
   38.7770   32.6990   48.3210 C   0  0  0  0  0  0  0  0  0  0  0  0
   37.9360   32.1690   47.3230 O   0  0  0  0  0  0  0  0  0  0  0  0
   35.0090   29.4250   50.6450 H   0  0  0  0  0  0  0  0  0  0  0  0
   36.1180   30.0480   46.4790 H   0  0  0  0  0  0  0  0  0  0  0  0
   36.4790   31.1580   51.3170 H   0  0  0  0  0  0  0  0  0  0  0  0
   39.6760   32.0580   48.4720 H   0  0  0  0  0  0  0  0  0  0  0  0
   39.0660   33.7410   48.1410 H   0  0  0  0  0  0  0  0  0  0  0  0
   30.3860   28.7110   47.2230 C   0  0  0  0  0  0  0  0  0  0  0  0
   29.8880   29.3230   46.0780 C   0  0  0  0  0  0  0  0  0  0  0  0
   28.5740   29.7770   46.1180 C   0  0  0  0  0  0  0  0  0  0  0  0
   27.8460   29.6020   47.2680 N   0  0  0  0  0  0  0  0  0  0  0  0
   28.3660   29.0090   48.3440 C   0  0  0  0  0  0  0  0  0  0  0  0
   29.6180   28.5680   48.3280 N   0  0  0  0  0  0  0  0  0  0  0  0
   30.5590   29.3960   45.2530 H   0  0  0  0  0  0  0  0  0  0  0  0
   28.2280   30.2450   45.2110 H   0  0  0  0  0  0  0  0  0  0  0  0
   27.4540   28.8930   49.5110 C   0  0  0  0  0  0  0  0  0  0  0  0
   26.9320   27.5760   49.7010 N   0  0  0  0  0  0  0  0  0  0  0  0
   25.9120   27.5890   49.9550 H   0  0  0  0  0  0  0  0  0  0  0  0
   27.6230   26.9570   50.8170 C   0  0  0  0  0  0  0  0  0  0  0  0
   28.0190   27.7310   51.5150 H   0  0  0  0  0  0  0  0  0  0  0  0
   27.1460   26.7150   48.5420 C   0  0  0  0  0  0  0  0  0  0  0  0
   26.3900   27.0400   47.7870 H   0  0  0  0  0  0  0  0  0  0  0  0
  1  2  1  0  0  0  0
  2  3  1  0  0  0  0
  2  7  1  0  0  0  0
  3  9  1  0  0  0  0
  3 10  1  0  0  0  0
  4 17  1  0  0  0  0
  4  3  1  0  0  0  0
  5 13  1  0  0  0  0
  5  4  1  0  0  0  0
  6  5  1  0  0  0  0
  6  1  1  0  0  0  0
  8  2  1  0  0  0  0
 11  4  1  0  0  0  0
 12  5  1  0  0  0  0
 14  6  1  0  0  0  0
 15  6  1  0  0  0  0
 16 21  1  0  0  0  0
 16 25  1  0  0  0  0
 17 16  2  0  0  0  0
 18 19  2  0  0  0  0
 18 17  1  0  0  0  0
 19 20  1  0  0  0  0
 20 22  1  0  0  0  0
 20 21  2  0  0  0  0
 21 27  1  0  0  0  0
 23 28  1  0  0  0  0
 23 22  1  0  0  0  0
 24 19  1  0  0  0  0
 24 23  1  0  0  0  0
 26 18  1  0  0  0  0
 29 23  1  0  0  0  0
 30  1  1  0  0  0  0
 30 35  1  0  0  0  0
 31 32  1  0  0  0  0
 31 30  2  0  0  0  0
 32 33  2  0  0  0  0
 33 34  1  0  0  0  0
 34 38  1  0  0  0  0
 35 34  2  0  0  0  0
 36 31  1  0  0  0  0
 37 32  1  0  0  0  0
 38 39  1  0  0  0  0
 39 40  1  0  0  0  0
 39 41  1  0  0  0  0
 41 42  1  0  0  0  0
 43 39  1  0  0  0  0
 44 43  1  0  0  0  0
M  END
>  <minimizedAffinity>
-6.78505754

>  <minimizedRMSD>
1.1579107

$$$$
