
 OpenBabel03262521573D

 37 38  0  0  1  0  0  0  0  0999 V2000
   37.7180   24.9330   31.1560 C   0  0  1  0  0  0  0  0  0  0  0  0
   37.4980   25.7590   32.4140 C   0  0  2  0  0  0  0  0  0  0  0  0
   36.2620   26.5620   32.2230 C   0  0  0  0  0  0  0  0  0  0  0  0
   35.6480   26.3650   31.0050 O   0  0  0  0  0  0  0  0  0  0  0  0
   35.3060   25.0240   30.8070 C   0  0  0  0  0  0  0  0  0  0  0  0
   36.4810   24.0960   30.9770 C   0  0  2  0  0  0  0  0  0  0  0  0
   38.6370   24.3560   31.3340 H   0  0  0  0  0  0  0  0  0  0  0  0
   37.3090   25.0300   33.2410 H   0  0  0  0  0  0  0  0  0  0  0  0
   36.4490   27.6610   32.3160 H   0  0  0  0  0  0  0  0  0  0  0  0
   35.4820   26.3390   33.0080 H   0  0  0  0  0  0  0  0  0  0  0  0
   34.9300   24.9760   29.7640 H   0  0  0  0  0  0  0  0  0  0  0  0
   34.4290   24.7260   31.4330 H   0  0  0  0  0  0  0  0  0  0  0  0
   36.5050   23.4050   30.1310 H   0  0  0  0  0  0  0  0  0  0  0  0
   37.8180   25.7530   30.0410 O   0  0  0  0  0  0  0  0  0  0  0  0
   38.6340   26.3120   30.1710 H   0  0  0  0  0  0  0  0  0  0  0  0
   38.9130   26.8110   32.7890 S   0  0  0  0  0  0  0  0  0  0  0  0
   39.1440   26.9640   34.5690 C   0  0  0  0  0  0  0  0  0  0  0  0
   39.2050   28.0440   34.8120 H   0  0  0  0  0  0  0  0  0  0  0  0
   40.1680   26.5530   34.8030 H   0  0  0  0  0  0  0  0  0  0  0  0
   37.8990   26.1440   35.5490 S   0  0  0  0  0  0  0  0  0  0  0  0
   38.6310   24.7630   36.3930 C   0  0  0  0  0  0  0  0  0  0  0  0
   38.0750   24.4850   37.6290 C   0  0  0  0  0  0  0  0  0  0  0  0
   38.6090   23.3960   38.3600 C   0  0  0  0  0  0  0  0  0  0  0  0
   39.6340   22.6890   37.8040 N   0  0  0  0  0  0  0  0  0  0  0  0
   40.1230   23.0210   36.5930 C   0  0  0  0  0  0  0  0  0  0  0  0
   39.6400   24.0310   35.8970 N   0  0  0  0  0  0  0  0  0  0  0  0
   37.2600   25.0180   38.1100 H   0  0  0  0  0  0  0  0  0  0  0  0
   38.2120   23.1410   39.3230 H   0  0  0  0  0  0  0  0  0  0  0  0
   40.9430   22.4210   36.1970 H   0  0  0  0  0  0  0  0  0  0  0  0
   36.3340   23.3740   32.1770 O   0  0  0  0  0  0  0  0  0  0  0  0
   36.6610   22.0420   32.0200 C   0  0  0  0  0  2  0  0  0  0  0  0
   35.7600   21.2650   31.2370 N   0  0  0  0  0  4  0  0  0  0  0  0
   35.2130   21.7770   30.5270 H   0  0  0  0  0  0  0  0  0  0  0  0
   36.3970   20.1640   30.5260 C   0  0  0  0  0  2  0  0  0  0  0  0
   37.3840   20.4450   30.1510 H   0  0  0  0  0  0  0  0  0  0  0  0
   34.7940   20.6720   32.1660 C   0  0  0  0  0  2  0  0  0  0  0  0
   34.8100   19.5500   32.1170 H   0  0  0  0  0  0  0  0  0  0  0  0
  1  7  1  1  0  0  0
  1  2  1  0  0  0  0
  2 16  1  0  0  0  0
  2  8  1  1  0  0  0
  3  9  1  0  0  0  0
  3  2  1  0  0  0  0
  3 10  1  0  0  0  0
  4  3  1  0  0  0  0
  5  6  1  0  0  0  0
  5  4  1  0  0  0  0
  5 12  1  0  0  0  0
  6 13  1  6  0  0  0
  6  1  1  0  0  0  0
  6 30  1  0  0  0  0
 11  5  1  0  0  0  0
 14 15  1  0  0  0  0
 14  1  1  0  0  0  0
 16 17  1  0  0  0  0
 17 19  1  0  0  0  0
 17 18  1  0  0  0  0
 17 20  1  0  0  0  0
 20 21  1  0  0  0  0
 21 22  1  0  0  0  0
 22 27  1  0  0  0  0
 22 23  2  0  0  0  0
 23 28  1  0  0  0  0
 24 23  1  0  0  0  0
 25 24  2  0  0  0  0
 26 21  2  0  0  0  0
 26 25  1  0  0  0  0
 29 25  1  0  0  0  0
 31 30  1  0  0  0  0
 32 31  1  0  0  0  0
 32 36  1  0  0  0  0
 33 32  1  0  0  0  0
 34 32  1  0  0  0  0
 35 34  1  0  0  0  0
 37 36  1  0  0  0  0
M  END
>  <minimizedAffinity>
-4.55673504

$$$$

 OpenBabel03262521573D

 37 38  0  0  1  0  0  0  0  0999 V2000
   38.1250   26.6310   35.7770 C   0  0  1  0  0  0  0  0  0  0  0  0
   37.4900   26.8450   34.4110 C   0  0  2  0  0  0  0  0  0  0  0  0
   38.5800   27.1330   33.4420 C   0  0  0  0  0  0  0  0  0  0  0  0
   39.8410   27.1340   33.9990 O   0  0  0  0  0  0  0  0  0  0  0  0
   40.1390   25.9110   34.6070 C   0  0  0  0  0  0  0  0  0  0  0  0
   39.1010   25.4980   35.6180 C   0  0  2  0  0  0  0  0  0  0  0  0
   37.2920   26.4220   36.4630 H   0  0  0  0  0  0  0  0  0  0  0  0
   37.0250   25.8690   34.1240 H   0  0  0  0  0  0  0  0  0  0  0  0
   38.4500   28.1230   32.9370 H   0  0  0  0  0  0  0  0  0  0  0  0
   38.6100   26.3840   32.5970 H   0  0  0  0  0  0  0  0  0  0  0  0
   41.1170   26.0730   35.1080 H   0  0  0  0  0  0  0  0  0  0  0  0
   40.3440   25.1140   33.8500 H   0  0  0  0  0  0  0  0  0  0  0  0
   39.6100   25.1910   36.5350 H   0  0  0  0  0  0  0  0  0  0  0  0
   38.8560   27.7470   36.1590 O   0  0  0  0  0  0  0  0  0  0  0  0
   38.2040   28.4970   36.2520 H   0  0  0  0  0  0  0  0  0  0  0  0
   36.2640   28.1660   34.4330 S   0  0  0  0  0  0  0  0  0  0  0  0
   36.1160   28.9300   32.8100 C   0  0  0  0  0  0  0  0  0  0  0  0
   35.4340   28.3040   32.2000 H   0  0  0  0  0  0  0  0  0  0  0  0
   37.1230   28.8370   32.3100 H   0  0  0  0  0  0  0  0  0  0  0  0
   35.5870   30.6340   32.8390 S   0  0  0  0  0  0  0  0  0  0  0  0
   34.8810   31.0030   34.4260 C   0  0  0  0  0  0  0  0  0  0  0  0
   35.7200   31.6990   35.2800 C   0  0  0  0  0  0  0  0  0  0  0  0
   35.2240   32.0270   36.5650 C   0  0  0  0  0  0  0  0  0  0  0  0
   33.9550   31.6420   36.8820 N   0  0  0  0  0  0  0  0  0  0  0  0
   33.1980   30.9660   35.9960 C   0  0  0  0  0  0  0  0  0  0  0  0
   33.6410   30.6500   34.7960 N   0  0  0  0  0  0  0  0  0  0  0  0
   36.7350   32.0260   35.0710 H   0  0  0  0  0  0  0  0  0  0  0  0
   35.8360   32.5650   37.2620 H   0  0  0  0  0  0  0  0  0  0  0  0
   32.1910   30.6830   36.3050 H   0  0  0  0  0  0  0  0  0  0  0  0
   38.3540   24.4210   35.1050 O   0  0  0  0  0  0  0  0  0  0  0  0
   38.3210   23.3550   35.9800 C   0  0  0  0  0  2  0  0  0  0  0  0
   39.1360   23.4730   37.1420 N   0  0  0  0  0  4  0  0  0  0  0  0
   39.6880   24.3400   37.2250 H   0  0  0  0  0  0  0  0  0  0  0  0
   38.3980   23.3520   38.3930 C   0  0  0  0  0  2  0  0  0  0  0  0
   37.4190   23.8330   38.3310 H   0  0  0  0  0  0  0  0  0  0  0  0
   40.0940   22.3650   37.1020 C   0  0  0  0  0  2  0  0  0  0  0  0
   40.0000   21.7060   38.0060 H   0  0  0  0  0  0  0  0  0  0  0  0
  1 14  1  0  0  0  0
  1  7  1  1  0  0  0
  2  8  1  6  0  0  0
  2 16  1  0  0  0  0
  2  1  1  0  0  0  0
  3  4  1  0  0  0  0
  3  2  1  0  0  0  0
  4  5  1  0  0  0  0
  5 11  1  0  0  0  0
  5  6  1  0  0  0  0
  6  1  1  0  0  0  0
  6 13  1  1  0  0  0
  9  3  1  0  0  0  0
 10  3  1  0  0  0  0
 12  5  1  0  0  0  0
 14 15  1  0  0  0  0
 17 20  1  0  0  0  0
 17 16  1  0  0  0  0
 18 17  1  0  0  0  0
 19 17  1  0  0  0  0
 20 21  1  0  0  0  0
 21 26  2  0  0  0  0
 21 22  1  0  0  0  0
 22 23  2  0  0  0  0
 23 24  1  0  0  0  0
 23 28  1  0  0  0  0
 25 29  1  0  0  0  0
 25 24  2  0  0  0  0
 26 25  1  0  0  0  0
 27 22  1  0  0  0  0
 30  6  1  0  0  0  0
 30 31  1  0  0  0  0
 31 32  1  0  0  0  0
 32 33  1  0  0  0  0
 32 34  1  0  0  0  0
 35 34  1  0  0  0  0
 36 32  1  0  0  0  0
 36 37  1  0  0  0  0
M  END
>  <minimizedAffinity>
-4.55263948

$$$$

 OpenBabel03262521573D

 37 38  0  0  1  0  0  0  0  0999 V2000
   37.7550   25.6230   34.2150 C   0  0  1  0  0  0  0  0  0  0  0  0
   39.2120   25.7710   33.8040 C   0  0  2  0  0  0  0  0  0  0  0  0
   39.7900   26.9040   34.5730 C   0  0  0  0  0  0  0  0  0  0  0  0
   38.9000   27.5120   35.4310 O   0  0  0  0  0  0  0  0  0  0  0  0
   38.3740   26.6080   36.3590 C   0  0  0  0  0  0  0  0  0  0  0  0
   37.7540   25.4010   35.7030 C   0  0  2  0  0  0  0  0  0  0  0  0
   37.3630   24.7810   33.6280 H   0  0  0  0  0  0  0  0  0  0  0  0
   39.7280   24.8340   34.1320 H   0  0  0  0  0  0  0  0  0  0  0  0
   40.1970   27.7060   33.9070 H   0  0  0  0  0  0  0  0  0  0  0  0
   40.6710   26.5860   35.2050 H   0  0  0  0  0  0  0  0  0  0  0  0
   37.6000   27.1820   36.9090 H   0  0  0  0  0  0  0  0  0  0  0  0
   39.1250   26.3340   37.1400 H   0  0  0  0  0  0  0  0  0  0  0  0
   36.7710   25.2290   36.1470 H   0  0  0  0  0  0  0  0  0  0  0  0
   37.0570   26.8000   33.9800 O   0  0  0  0  0  0  0  0  0  0  0  0
   37.0700   26.9460   32.9940 H   0  0  0  0  0  0  0  0  0  0  0  0
   39.3920   26.0210   32.0280 S   0  0  0  0  0  0  0  0  0  0  0  0
   39.2560   24.4590   31.1430 C   0  0  0  0  0  0  0  0  0  0  0  0
   39.7170   23.6710   31.7720 H   0  0  0  0  0  0  0  0  0  0  0  0
   39.9220   24.5360   30.2360 H   0  0  0  0  0  0  0  0  0  0  0  0
   37.5940   24.0220   30.6640 S   0  0  0  0  0  0  0  0  0  0  0  0
   36.9530   22.8130   31.7950 C   0  0  0  0  0  0  0  0  0  0  0  0
   35.6790   22.3640   31.4960 C   0  0  0  0  0  0  0  0  0  0  0  0
   35.1040   21.3970   32.3570 C   0  0  0  0  0  0  0  0  0  0  0  0
   35.8370   20.9680   33.4240 N   0  0  0  0  0  0  0  0  0  0  0  0
   37.0730   21.4540   33.6500 C   0  0  0  0  0  0  0  0  0  0  0  0
   37.6260   22.3530   32.8610 N   0  0  0  0  0  0  0  0  0  0  0  0
   35.0600   22.6750   30.6590 H   0  0  0  0  0  0  0  0  0  0  0  0
   34.1190   21.0190   32.1670 H   0  0  0  0  0  0  0  0  0  0  0  0
   37.6130   21.0750   34.5190 H   0  0  0  0  0  0  0  0  0  0  0  0
   38.5770   24.2790   35.9200 O   0  0  0  0  0  0  0  0  0  0  0  0
   37.9500   23.3220   36.6900 C   0  0  0  0  0  2  0  0  0  0  0  0
   38.7280   22.7560   37.7410 N   0  0  0  0  0  4  0  0  0  0  0  0
   38.4350   21.8250   38.0740 H   0  0  0  0  0  0  0  0  0  0  0  0
   40.1460   22.6350   37.4240 C   0  0  0  0  0  2  0  0  0  0  0  0
   40.3010   22.3510   36.3810 H   0  0  0  0  0  0  0  0  0  0  0  0
   38.6230   23.6670   38.8840 C   0  0  0  0  0  2  0  0  0  0  0  0
   39.6290   24.0510   39.2000 H   0  0  0  0  0  0  0  0  0  0  0  0
  1  7  1  6  0  0  0
  1  6  1  0  0  0  0
  2  8  1  1  0  0  0
  2  1  1  0  0  0  0
  2  3  1  0  0  0  0
  3 10  1  0  0  0  0
  3  4  1  0  0  0  0
  4  5  1  0  0  0  0
  5 11  1  0  0  0  0
  5 12  1  0  0  0  0
  6 30  1  0  0  0  0
  6 13  1  1  0  0  0
  6  5  1  0  0  0  0
  9  3  1  0  0  0  0
 14  1  1  0  0  0  0
 15 14  1  0  0  0  0
 16  2  1  0  0  0  0
 17 18  1  0  0  0  0
 17 16  1  0  0  0  0
 19 17  1  0  0  0  0
 20 17  1  0  0  0  0
 20 21  1  0  0  0  0
 21 26  1  0  0  0  0
 22 21  2  0  0  0  0
 22 23  1  0  0  0  0
 23 24  2  0  0  0  0
 24 25  1  0  0  0  0
 25 29  1  0  0  0  0
 26 25  2  0  0  0  0
 27 22  1  0  0  0  0
 28 23  1  0  0  0  0
 30 31  1  0  0  0  0
 31 32  1  0  0  0  0
 32 33  1  0  0  0  0
 32 36  1  0  0  0  0
 34 32  1  0  0  0  0
 35 34  1  0  0  0  0
 36 37  1  0  0  0  0
M  END
>  <minimizedAffinity>
-4.50684547

$$$$

 OpenBabel03262521573D

 37 38  0  0  1  0  0  0  0  0999 V2000
   37.5380   24.1830   31.0360 C   0  0  1  0  0  0  0  0  0  0  0  0
   37.7790   24.7080   32.4430 C   0  0  2  0  0  0  0  0  0  0  0  0
   36.8590   25.8540   32.6660 C   0  0  0  0  0  0  0  0  0  0  0  0
   36.0510   26.1430   31.5880 O   0  0  0  0  0  0  0  0  0  0  0  0
   35.2650   25.0470   31.2210 C   0  0  0  0  0  0  0  0  0  0  0  0
   36.0840   23.8070   30.9660 C   0  0  2  0  0  0  0  0  0  0  0  0
   38.2340   23.3410   30.9080 H   0  0  0  0  0  0  0  0  0  0  0  0
   37.4790   23.8870   33.1410 H   0  0  0  0  0  0  0  0  0  0  0  0
   37.4070   26.7960   32.9210 H   0  0  0  0  0  0  0  0  0  0  0  0
   36.1670   25.6820   33.5420 H   0  0  0  0  0  0  0  0  0  0  0  0
   34.7520   25.3640   30.2880 H   0  0  0  0  0  0  0  0  0  0  0  0
   34.4350   24.8720   31.9490 H   0  0  0  0  0  0  0  0  0  0  0  0
   35.7620   23.3650   30.0210 H   0  0  0  0  0  0  0  0  0  0  0  0
   37.7440   25.1850   30.0970 O   0  0  0  0  0  0  0  0  0  0  0  0
   38.7080   25.4360   30.1560 H   0  0  0  0  0  0  0  0  0  0  0  0
   39.4980   25.1840   32.7040 S   0  0  0  0  0  0  0  0  0  0  0  0
   40.5110   23.7450   33.0850 C   0  0  0  0  0  0  0  0  0  0  0  0
   41.3510   24.0800   33.7260 H   0  0  0  0  0  0  0  0  0  0  0  0
   40.9920   23.4170   32.1190 H   0  0  0  0  0  0  0  0  0  0  0  0
   39.6210   22.3900   33.8320 S   0  0  0  0  0  0  0  0  0  0  0  0
   39.4940   22.6630   35.5820 C   0  0  0  0  0  0  0  0  0  0  0  0
   38.3240   23.2830   35.9840 C   0  0  0  0  0  0  0  0  0  0  0  0
   38.1550   23.5340   37.3670 C   0  0  0  0  0  0  0  0  0  0  0  0
   39.1500   23.1500   38.2170 N   0  0  0  0  0  0  0  0  0  0  0  0
   40.2620   22.5510   37.7490 C   0  0  0  0  0  0  0  0  0  0  0  0
   40.4400   22.3090   36.4660 N   0  0  0  0  0  0  0  0  0  0  0  0
   37.5060   23.6050   35.3450 H   0  0  0  0  0  0  0  0  0  0  0  0
   37.2650   24.0120   37.7280 H   0  0  0  0  0  0  0  0  0  0  0  0
   41.0260   22.2660   38.4750 H   0  0  0  0  0  0  0  0  0  0  0  0
   35.8770   22.8900   32.0140 O   0  0  0  0  0  0  0  0  0  0  0  0
   35.4410   21.6670   31.5500 C   0  0  0  0  0  2  0  0  0  0  0  0
   34.9650   20.7570   32.5360 N   0  0  0  0  0  4  0  0  0  0  0  0
   34.0170   20.9360   32.9020 H   0  0  0  0  0  0  0  0  0  0  0  0
   34.9630   19.3650   32.1010 C   0  0  0  0  0  2  0  0  0  0  0  0
   34.6750   19.2730   31.0510 H   0  0  0  0  0  0  0  0  0  0  0  0
   35.8820   20.8470   33.6750 C   0  0  0  0  0  2  0  0  0  0  0  0
   36.3590   19.8560   33.9000 H   0  0  0  0  0  0  0  0  0  0  0  0
  1  7  1  6  0  0  0
  1  2  1  0  0  0  0
  2  3  1  0  0  0  0
  2 16  1  0  0  0  0
  2  8  1  1  0  0  0
  3  9  1  0  0  0  0
  3 10  1  0  0  0  0
  4  3  1  0  0  0  0
  5  4  1  0  0  0  0
  5 12  1  0  0  0  0
  6 13  1  6  0  0  0
  6  1  1  0  0  0  0
  6  5  1  0  0  0  0
  6 30  1  0  0  0  0
 11  5  1  0  0  0  0
 14 15  1  0  0  0  0
 14  1  1  0  0  0  0
 16 17  1  0  0  0  0
 17 18  1  0  0  0  0
 17 20  1  0  0  0  0
 19 17  1  0  0  0  0
 20 21  1  0  0  0  0
 21 22  2  0  0  0  0
 21 26  1  0  0  0  0
 22 23  1  0  0  0  0
 23 28  1  0  0  0  0
 23 24  2  0  0  0  0
 25 24  1  0  0  0  0
 25 29  1  0  0  0  0
 26 25  2  0  0  0  0
 27 22  1  0  0  0  0
 31 30  1  0  0  0  0
 31 32  1  0  0  0  0
 32 33  1  0  0  0  0
 32 36  1  0  0  0  0
 34 32  1  0  0  0  0
 35 34  1  0  0  0  0
 36 37  1  0  0  0  0
M  END
>  <minimizedAffinity>
-4.47812748

$$$$

 OpenBabel03262521573D

 37 38  0  0  1  0  0  0  0  0999 V2000
   37.9990   26.7550   35.7680 C   0  0  1  0  0  0  0  0  0  0  0  0
   37.4930   26.9100   34.3420 C   0  0  2  0  0  0  0  0  0  0  0  0
   38.6700   27.1340   33.4620 C   0  0  0  0  0  0  0  0  0  0  0  0
   39.8750   27.1450   34.1290 O   0  0  0  0  0  0  0  0  0  0  0  0
   40.0960   25.9490   34.8190 C   0  0  0  0  0  0  0  0  0  0  0  0
   38.9650   25.6020   35.7520 C   0  0  2  0  0  0  0  0  0  0  0  0
   37.1050   26.5920   36.3860 H   0  0  0  0  0  0  0  0  0  0  0  0
   37.0370   25.9270   34.0610 H   0  0  0  0  0  0  0  0  0  0  0  0
   38.6030   28.0990   32.9000 H   0  0  0  0  0  0  0  0  0  0  0  0
   38.7600   26.3440   32.6600 H   0  0  0  0  0  0  0  0  0  0  0  0
   41.0280   26.1220   35.3970 H   0  0  0  0  0  0  0  0  0  0  0  0
   40.3520   25.1130   34.1240 H   0  0  0  0  0  0  0  0  0  0  0  0
   39.3850   25.3330   36.7240 H   0  0  0  0  0  0  0  0  0  0  0  0
   38.7140   27.8780   36.1590 O   0  0  0  0  0  0  0  0  0  0  0  0
   38.0700   28.6400   36.1570 H   0  0  0  0  0  0  0  0  0  0  0  0
   36.2940   28.2470   34.1900 S   0  0  0  0  0  0  0  0  0  0  0  0
   35.7760   28.4520   32.4780 C   0  0  0  0  0  0  0  0  0  0  0  0
   35.2010   27.5500   32.1860 H   0  0  0  0  0  0  0  0  0  0  0  0
   36.7110   28.4210   31.8470 H   0  0  0  0  0  0  0  0  0  0  0  0
   34.8540   29.9460   32.1580 S   0  0  0  0  0  0  0  0  0  0  0  0
   33.4400   30.0060   33.2300 C   0  0  0  0  0  0  0  0  0  0  0  0
   32.4590   29.0740   32.9400 C   0  0  0  0  0  0  0  0  0  0  0  0
   31.3010   29.0640   33.7540 C   0  0  0  0  0  0  0  0  0  0  0  0
   31.2220   29.9690   34.7720 N   0  0  0  0  0  0  0  0  0  0  0  0
   32.2200   30.8460   34.9920 C   0  0  0  0  0  0  0  0  0  0  0  0
   33.3060   30.8720   34.2450 N   0  0  0  0  0  0  0  0  0  0  0  0
   32.4790   28.3360   32.1420 H   0  0  0  0  0  0  0  0  0  0  0  0
   30.5120   28.3610   33.5690 H   0  0  0  0  0  0  0  0  0  0  0  0
   32.1020   31.5470   35.8190 H   0  0  0  0  0  0  0  0  0  0  0  0
   38.2470   24.5110   35.2270 O   0  0  0  0  0  0  0  0  0  0  0  0
   38.3890   23.3790   36.0020 C   0  0  0  0  0  2  0  0  0  0  0  0
   38.8800   23.5830   37.3240 N   0  0  0  0  0  4  0  0  0  0  0  0
   39.2640   24.5190   37.5280 H   0  0  0  0  0  0  0  0  0  0  0  0
   37.8930   23.3260   38.3650 C   0  0  0  0  0  2  0  0  0  0  0  0
   36.8970   23.6620   38.0670 H   0  0  0  0  0  0  0  0  0  0  0  0
   39.9710   22.6260   37.5230 C   0  0  0  0  0  2  0  0  0  0  0  0
   39.7630   21.9380   38.3860 H   0  0  0  0  0  0  0  0  0  0  0  0
  1 14  1  0  0  0  0
  1  7  1  1  0  0  0
  2  8  1  6  0  0  0
  2  1  1  0  0  0  0
  3  4  1  0  0  0  0
  3  2  1  0  0  0  0
  4  5  1  0  0  0  0
  5 11  1  0  0  0  0
  5  6  1  0  0  0  0
  6  1  1  0  0  0  0
  6 13  1  1  0  0  0
  9  3  1  0  0  0  0
 10  3  1  0  0  0  0
 12  5  1  0  0  0  0
 15 14  1  0  0  0  0
 16  2  1  0  0  0  0
 17 16  1  0  0  0  0
 18 17  1  0  0  0  0
 19 17  1  0  0  0  0
 20 17  1  0  0  0  0
 20 21  1  0  0  0  0
 21 26  1  0  0  0  0
 22 21  2  0  0  0  0
 22 23  1  0  0  0  0
 23 24  2  0  0  0  0
 24 25  1  0  0  0  0
 25 29  1  0  0  0  0
 26 25  2  0  0  0  0
 27 22  1  0  0  0  0
 28 23  1  0  0  0  0
 30  6  1  0  0  0  0
 30 31  1  0  0  0  0
 31 32  1  0  0  0  0
 32 36  1  0  0  0  0
 32 33  1  0  0  0  0
 32 34  1  0  0  0  0
 35 34  1  0  0  0  0
 36 37  1  0  0  0  0
M  END
>  <minimizedAffinity>
-4.36552763

$$$$

 OpenBabel03262521573D

 37 38  0  0  1  0  0  0  0  0999 V2000
   35.9470   27.0740   31.4810 C   0  0  1  0  0  0  0  0  0  0  0  0
   37.2690   26.6940   32.1290 C   0  0  2  0  0  0  0  0  0  0  0  0
   38.3170   27.6040   31.5960 C   0  0  0  0  0  0  0  0  0  0  0  0
   37.8480   28.5260   30.6850 O   0  0  0  0  0  0  0  0  0  0  0  0
   36.8420   29.3290   31.2310 C   0  0  0  0  0  0  0  0  0  0  0  0
   35.7110   28.5210   31.8140 C   0  0  2  0  0  0  0  0  0  0  0  0
   35.2010   26.3820   31.8970 H   0  0  0  0  0  0  0  0  0  0  0  0
   37.1560   26.9050   33.2220 H   0  0  0  0  0  0  0  0  0  0  0  0
   39.1480   27.0480   31.0930 H   0  0  0  0  0  0  0  0  0  0  0  0
   38.8240   28.1970   32.4120 H   0  0  0  0  0  0  0  0  0  0  0  0
   36.4750   29.9420   30.3820 H   0  0  0  0  0  0  0  0  0  0  0  0
   37.2560   30.0740   31.9540 H   0  0  0  0  0  0  0  0  0  0  0  0
   34.7660   28.9340   31.4530 H   0  0  0  0  0  0  0  0  0  0  0  0
   36.0350   26.9850   30.0980 O   0  0  0  0  0  0  0  0  0  0  0  0
   36.2020   26.0250   29.8850 H   0  0  0  0  0  0  0  0  0  0  0  0
   37.6920   24.9650   31.8440 S   0  0  0  0  0  0  0  0  0  0  0  0
   37.8900   24.0880   33.4040 C   0  0  0  0  0  0  0  0  0  0  0  0
   37.7970   23.0030   33.1980 H   0  0  0  0  0  0  0  0  0  0  0  0
   36.9950   24.3440   34.0400 H   0  0  0  0  0  0  0  0  0  0  0  0
   39.4030   24.4590   34.2740 S   0  0  0  0  0  0  0  0  0  0  0  0
   39.2450   23.9560   35.9700 C   0  0  0  0  0  0  0  0  0  0  0  0
   38.1500   24.4890   36.6270 C   0  0  0  0  0  0  0  0  0  0  0  0
   37.9610   24.1320   37.9850 C   0  0  0  0  0  0  0  0  0  0  0  0
   38.8640   23.2870   38.5590 N   0  0  0  0  0  0  0  0  0  0  0  0
   39.9070   22.8090   37.8530 C   0  0  0  0  0  0  0  0  0  0  0  0
   40.1010   23.1290   36.5890 N   0  0  0  0  0  0  0  0  0  0  0  0
   37.4070   25.1630   36.2110 H   0  0  0  0  0  0  0  0  0  0  0  0
   37.1270   24.5190   38.5370 H   0  0  0  0  0  0  0  0  0  0  0  0
   40.5980   22.1370   38.3640 H   0  0  0  0  0  0  0  0  0  0  0  0
   35.7590   28.6010   33.2190 O   0  0  0  0  0  0  0  0  0  0  0  0
   34.6710   29.2750   33.7340 C   0  0  0  0  0  2  0  0  0  0  0  0
   33.6910   29.6960   32.7890 N   0  0  0  0  0  4  0  0  0  0  0  0
   33.9160   29.5330   31.7960 H   0  0  0  0  0  0  0  0  0  0  0  0
   32.3770   29.1020   32.9990 C   0  0  0  0  0  2  0  0  0  0  0  0
   32.4540   28.0590   33.3170 H   0  0  0  0  0  0  0  0  0  0  0  0
   33.5370   31.1440   32.9550 C   0  0  0  0  0  2  0  0  0  0  0  0
   32.4810   31.4180   33.2230 H   0  0  0  0  0  0  0  0  0  0  0  0
  1  6  1  0  0  0  0
  1  7  1  1  0  0  0
  1  2  1  0  0  0  0
  2  8  1  1  0  0  0
  3  2  1  0  0  0  0
  3 10  1  0  0  0  0
  4  5  1  0  0  0  0
  4  3  1  0  0  0  0
  5  6  1  0  0  0  0
  5 12  1  0  0  0  0
  6 13  1  6  0  0  0
  6 30  1  0  0  0  0
  9  3  1  0  0  0  0
 11  5  1  0  0  0  0
 14  1  1  0  0  0  0
 15 14  1  0  0  0  0
 16  2  1  0  0  0  0
 16 17  1  0  0  0  0
 17 19  1  0  0  0  0
 17 20  1  0  0  0  0
 18 17  1  0  0  0  0
 20 21  1  0  0  0  0
 21 26  2  0  0  0  0
 21 22  1  0  0  0  0
 22 23  2  0  0  0  0
 23 28  1  0  0  0  0
 23 24  1  0  0  0  0
 25 29  1  0  0  0  0
 25 24  2  0  0  0  0
 26 25  1  0  0  0  0
 27 22  1  0  0  0  0
 30 31  1  0  0  0  0
 32 36  1  0  0  0  0
 32 34  1  0  0  0  0
 32 31  1  0  0  0  0
 33 32  1  0  0  0  0
 34 35  1  0  0  0  0
 36 37  1  0  0  0  0
M  END
>  <minimizedAffinity>
-4.3598175

$$$$

 OpenBabel03262521573D

 37 38  0  0  1  0  0  0  0  0999 V2000
   37.8940   25.3560   34.2140 C   0  0  1  0  0  0  0  0  0  0  0  0
   39.3000   25.6850   33.7380 C   0  0  2  0  0  0  0  0  0  0  0  0
   39.7160   26.9560   34.3880 C   0  0  0  0  0  0  0  0  0  0  0  0
   38.7640   27.4950   35.2260 O   0  0  0  0  0  0  0  0  0  0  0  0
   38.4070   26.6070   36.2440 C   0  0  0  0  0  0  0  0  0  0  0  0
   37.9640   25.2670   35.7140 C   0  0  2  0  0  0  0  0  0  0  0  0
   37.6210   24.4160   33.7140 H   0  0  0  0  0  0  0  0  0  0  0  0
   39.9620   24.8700   34.1230 H   0  0  0  0  0  0  0  0  0  0  0  0
   39.9780   27.7490   33.6440 H   0  0  0  0  0  0  0  0  0  0  0  0
   40.6500   26.8310   35.0110 H   0  0  0  0  0  0  0  0  0  0  0  0
   37.5670   27.1040   36.7740 H   0  0  0  0  0  0  0  0  0  0  0  0
   39.2100   26.5190   37.0170 H   0  0  0  0  0  0  0  0  0  0  0  0
   37.0300   24.9880   36.2080 H   0  0  0  0  0  0  0  0  0  0  0  0
   37.0180   26.3890   33.9100 O   0  0  0  0  0  0  0  0  0  0  0  0
   36.9840   26.4490   32.9140 H   0  0  0  0  0  0  0  0  0  0  0  0
   39.3960   25.8040   31.9420 S   0  0  0  0  0  0  0  0  0  0  0  0
   39.2440   27.5150   31.4030 C   0  0  0  0  0  0  0  0  0  0  0  0
   40.2350   27.8430   31.0280 H   0  0  0  0  0  0  0  0  0  0  0  0
   39.0620   28.1350   32.3280 H   0  0  0  0  0  0  0  0  0  0  0  0
   37.9620   27.8000   30.1950 S   0  0  0  0  0  0  0  0  0  0  0  0
   36.6140   28.6660   30.9610 C   0  0  0  0  0  0  0  0  0  0  0  0
   36.4080   29.9470   30.4810 C   0  0  0  0  0  0  0  0  0  0  0  0
   35.3490   30.6980   31.0470 C   0  0  0  0  0  0  0  0  0  0  0  0
   34.5980   30.1160   32.0250 N   0  0  0  0  0  0  0  0  0  0  0  0
   34.8610   28.8620   32.4400 C   0  0  0  0  0  0  0  0  0  0  0  0
   35.8420   28.1460   31.9270 N   0  0  0  0  0  0  0  0  0  0  0  0
   36.9780   30.4510   29.7050 H   0  0  0  0  0  0  0  0  0  0  0  0
   35.1500   31.6960   30.7090 H   0  0  0  0  0  0  0  0  0  0  0  0
   34.2280   28.4470   33.2260 H   0  0  0  0  0  0  0  0  0  0  0  0
   38.9550   24.3060   35.9920 O   0  0  0  0  0  0  0  0  0  0  0  0
   38.4100   23.1200   36.4380 C   0  0  0  0  0  2  0  0  0  0  0  0
   39.0050   22.5580   37.6040 N   0  0  0  0  0  4  0  0  0  0  0  0
   38.6990   21.6050   37.8580 H   0  0  0  0  0  0  0  0  0  0  0  0
   40.4600   22.5060   37.5560 C   0  0  0  0  0  2  0  0  0  0  0  0
   40.8210   22.2590   36.5550 H   0  0  0  0  0  0  0  0  0  0  0  0
   38.6450   23.4290   38.7260 C   0  0  0  0  0  2  0  0  0  0  0  0
   39.5560   23.8480   39.2320 H   0  0  0  0  0  0  0  0  0  0  0  0
  1  7  1  6  0  0  0
  1  6  1  0  0  0  0
  2  8  1  1  0  0  0
  2  1  1  0  0  0  0
  2  3  1  0  0  0  0
  3 10  1  0  0  0  0
  3  4  1  0  0  0  0
  4  5  1  0  0  0  0
  5 11  1  0  0  0  0
  5 12  1  0  0  0  0
  6 30  1  0  0  0  0
  6 13  1  1  0  0  0
  6  5  1  0  0  0  0
  9  3  1  0  0  0  0
 14  1  1  0  0  0  0
 15 14  1  0  0  0  0
 16  2  1  0  0  0  0
 17 16  1  0  0  0  0
 17 19  1  0  0  0  0
 18 17  1  0  0  0  0
 20 21  1  0  0  0  0
 20 17  1  0  0  0  0
 21 26  1  0  0  0  0
 22 21  2  0  0  0  0
 22 23  1  0  0  0  0
 23 24  2  0  0  0  0
 24 25  1  0  0  0  0
 25 29  1  0  0  0  0
 26 25  2  0  0  0  0
 27 22  1  0  0  0  0
 28 23  1  0  0  0  0
 30 31  1  0  0  0  0
 31 32  1  0  0  0  0
 32 33  1  0  0  0  0
 32 36  1  0  0  0  0
 34 32  1  0  0  0  0
 35 34  1  0  0  0  0
 36 37  1  0  0  0  0
M  END
>  <minimizedAffinity>
-4.33850718

$$$$

 OpenBabel03262521573D

 37 38  0  0  1  0  0  0  0  0999 V2000
   37.7560   26.1480   34.7460 C   0  0  1  0  0  0  0  0  0  0  0  0
   37.9470   25.9210   33.2540 C   0  0  2  0  0  0  0  0  0  0  0  0
   39.2160   26.5830   32.8510 C   0  0  0  0  0  0  0  0  0  0  0  0
   39.8750   27.2100   33.8860 O   0  0  0  0  0  0  0  0  0  0  0  0
   40.1820   26.3210   34.9190 C   0  0  0  0  0  0  0  0  0  0  0  0
   38.9720   25.5760   35.4210 C   0  0  2  0  0  0  0  0  0  0  0  0
   36.8120   25.6470   35.0050 H   0  0  0  0  0  0  0  0  0  0  0  0
   38.0780   24.8180   33.1170 H   0  0  0  0  0  0  0  0  0  0  0  0
   39.0590   27.3530   32.0540 H   0  0  0  0  0  0  0  0  0  0  0  0
   39.9540   25.8550   32.4020 H   0  0  0  0  0  0  0  0  0  0  0  0
   40.6010   26.9570   35.7270 H   0  0  0  0  0  0  0  0  0  0  0  0
   41.0220   25.6380   34.6400 H   0  0  0  0  0  0  0  0  0  0  0  0
   38.9630   25.6210   36.5130 H   0  0  0  0  0  0  0  0  0  0  0  0
   37.7300   27.5050   35.0360 O   0  0  0  0  0  0  0  0  0  0  0  0
   36.9280   27.8790   34.5770 H   0  0  0  0  0  0  0  0  0  0  0  0
   36.5510   26.5330   32.2910 S   0  0  0  0  0  0  0  0  0  0  0  0
   36.0010   25.2960   31.1030 C   0  0  0  0  0  0  0  0  0  0  0  0
   35.8190   25.8100   30.1380 H   0  0  0  0  0  0  0  0  0  0  0  0
   34.9850   24.9430   31.4440 H   0  0  0  0  0  0  0  0  0  0  0  0
   37.1110   23.9130   30.9080 S   0  0  0  0  0  0  0  0  0  0  0  0
   36.5000   22.5320   31.8410 C   0  0  0  0  0  0  0  0  0  0  0  0
   35.4960   21.8140   31.2150 C   0  0  0  0  0  0  0  0  0  0  0  0
   34.9600   20.6980   31.9020 C   0  0  0  0  0  0  0  0  0  0  0  0
   35.4630   20.3980   33.1340 N   0  0  0  0  0  0  0  0  0  0  0  0
   36.4420   21.1460   33.6790 C   0  0  0  0  0  0  0  0  0  0  0  0
   36.9550   22.1880   33.0560 N   0  0  0  0  0  0  0  0  0  0  0  0
   35.0660   22.0150   30.2380 H   0  0  0  0  0  0  0  0  0  0  0  0
   34.1800   20.1100   31.4580 H   0  0  0  0  0  0  0  0  0  0  0  0
   36.8050   20.8590   34.6670 H   0  0  0  0  0  0  0  0  0  0  0  0
   39.0450   24.2340   35.0020 O   0  0  0  0  0  0  0  0  0  0  0  0
   38.5900   23.3660   35.9720 C   0  0  0  0  0  2  0  0  0  0  0  0
   39.0280   23.6280   37.3020 N   0  0  0  0  0  4  0  0  0  0  0  0
   39.4160   24.5690   37.4770 H   0  0  0  0  0  0  0  0  0  0  0  0
   37.9960   23.4330   38.3120 C   0  0  0  0  0  2  0  0  0  0  0  0
   37.0180   23.7660   37.9560 H   0  0  0  0  0  0  0  0  0  0  0  0
   40.0970   22.6700   37.5930 C   0  0  0  0  0  2  0  0  0  0  0  0
   39.8450   22.0270   38.4780 H   0  0  0  0  0  0  0  0  0  0  0  0
  1  7  1  1  0  0  0
  1 14  1  0  0  0  0
  1  6  1  0  0  0  0
  2  8  1  6  0  0  0
  2  1  1  0  0  0  0
  3  2  1  0  0  0  0
  3  4  1  0  0  0  0
  4  5  1  0  0  0  0
  5  6  1  0  0  0  0
  5 11  1  0  0  0  0
  6 13  1  1  0  0  0
  9  3  1  0  0  0  0
 10  3  1  0  0  0  0
 12  5  1  0  0  0  0
 15 14  1  0  0  0  0
 16  2  1  0  0  0  0
 17 19  1  0  0  0  0
 17 16  1  0  0  0  0
 18 17  1  0  0  0  0
 20 17  1  0  0  0  0
 20 21  1  0  0  0  0
 21 26  1  0  0  0  0
 22 21  2  0  0  0  0
 22 23  1  0  0  0  0
 23 24  2  0  0  0  0
 24 25  1  0  0  0  0
 25 29  1  0  0  0  0
 26 25  2  0  0  0  0
 27 22  1  0  0  0  0
 28 23  1  0  0  0  0
 30  6  1  0  0  0  0
 30 31  1  0  0  0  0
 31 32  1  0  0  0  0
 32 33  1  0  0  0  0
 32 36  1  0  0  0  0
 32 34  1  0  0  0  0
 35 34  1  0  0  0  0
 36 37  1  0  0  0  0
M  END
>  <minimizedAffinity>
-4.2907033

$$$$

 OpenBabel03262521573D

 37 38  0  0  1  0  0  0  0  0999 V2000
   36.9230   22.3400   32.8520 C   0  0  1  0  0  0  0  0  0  0  0  0
   38.1790   21.9900   32.0680 C   0  0  2  0  0  0  0  0  0  0  0  0
   37.9070   20.7430   31.3050 C   0  0  0  0  0  0  0  0  0  0  0  0
   36.6380   20.2380   31.4890 O   0  0  0  0  0  0  0  0  0  0  0  0
   35.6550   21.1650   31.1320 C   0  0  0  0  0  0  0  0  0  0  0  0
   35.8190   22.4850   31.8410 C   0  0  2  0  0  0  0  0  0  0  0  0
   37.1620   23.2620   33.4020 H   0  0  0  0  0  0  0  0  0  0  0  0
   38.3310   22.8170   31.3310 H   0  0  0  0  0  0  0  0  0  0  0  0
   38.6220   19.9220   31.5620 H   0  0  0  0  0  0  0  0  0  0  0  0
   38.0300   20.8890   30.1910 H   0  0  0  0  0  0  0  0  0  0  0  0
   34.6950   20.6900   31.4280 H   0  0  0  0  0  0  0  0  0  0  0  0
   35.5780   21.2790   30.0230 H   0  0  0  0  0  0  0  0  0  0  0  0
   34.8510   22.7850   32.2490 H   0  0  0  0  0  0  0  0  0  0  0  0
   36.5660   21.2990   33.6980 O   0  0  0  0  0  0  0  0  0  0  0  0
   37.3070   21.2020   34.3580 H   0  0  0  0  0  0  0  0  0  0  0  0
   39.6170   21.8040   33.1400 S   0  0  0  0  0  0  0  0  0  0  0  0
   40.5240   23.3540   33.2690 C   0  0  0  0  0  0  0  0  0  0  0  0
   40.7480   23.7030   32.2410 H   0  0  0  0  0  0  0  0  0  0  0  0
   41.5290   23.1090   33.7200 H   0  0  0  0  0  0  0  0  0  0  0  0
   39.7000   24.6160   34.2240 S   0  0  0  0  0  0  0  0  0  0  0  0
   39.4120   24.0150   35.8690 C   0  0  0  0  0  0  0  0  0  0  0  0
   38.2450   24.4770   36.4540 C   0  0  0  0  0  0  0  0  0  0  0  0
   37.9500   24.0390   37.7680 C   0  0  0  0  0  0  0  0  0  0  0  0
   38.8290   23.1920   38.3760 N   0  0  0  0  0  0  0  0  0  0  0  0
   39.9460   22.7860   37.7410 C   0  0  0  0  0  0  0  0  0  0  0  0
   40.2390   23.1820   36.5190 N   0  0  0  0  0  0  0  0  0  0  0  0
   37.5170   25.1500   36.0080 H   0  0  0  0  0  0  0  0  0  0  0  0
   37.0580   24.3690   38.2630 H   0  0  0  0  0  0  0  0  0  0  0  0
   40.6130   22.1090   38.2760 H   0  0  0  0  0  0  0  0  0  0  0  0
   36.2680   23.4530   30.9230 O   0  0  0  0  0  0  0  0  0  0  0  0
   35.5930   24.6480   31.0630 C   0  0  0  0  0  2  0  0  0  0  0  0
   36.3050   25.8180   30.6710 N   0  0  0  0  0  4  0  0  0  0  0  0
   36.2640   26.0620   29.6690 H   0  0  0  0  0  0  0  0  0  0  0  0
   35.8980   27.0210   31.3870 C   0  0  0  0  0  2  0  0  0  0  0  0
   34.8200   27.0390   31.5630 H   0  0  0  0  0  0  0  0  0  0  0  0
   37.7150   25.5850   30.9930 C   0  0  0  0  0  2  0  0  0  0  0  0
   38.1060   26.3530   31.7120 H   0  0  0  0  0  0  0  0  0  0  0  0
  1  7  1  1  0  0  0
  1 14  1  0  0  0  0
  2  8  1  6  0  0  0
  2  1  1  0  0  0  0
  2 16  1  0  0  0  0
  3  4  1  0  0  0  0
  3  9  1  0  0  0  0
  3  2  1  0  0  0  0
  5 11  1  0  0  0  0
  5  4  1  0  0  0  0
  5  6  1  0  0  0  0
  6 13  1  1  0  0  0
  6  1  1  0  0  0  0
 10  3  1  0  0  0  0
 12  5  1  0  0  0  0
 14 15  1  0  0  0  0
 16 17  1  0  0  0  0
 17 19  1  0  0  0  0
 17 20  1  0  0  0  0
 18 17  1  0  0  0  0
 20 21  1  0  0  0  0
 21 22  2  0  0  0  0
 21 26  1  0  0  0  0
 22 23  1  0  0  0  0
 23 28  1  0  0  0  0
 23 24  2  0  0  0  0
 25 29  1  0  0  0  0
 25 24  1  0  0  0  0
 26 25  2  0  0  0  0
 27 22  1  0  0  0  0
 30 31  1  0  0  0  0
 30  6  1  0  0  0  0
 32 36  1  0  0  0  0
 32 31  1  0  0  0  0
 32 34  1  0  0  0  0
 33 32  1  0  0  0  0
 34 35  1  0  0  0  0
 36 37  1  0  0  0  0
M  END
>  <minimizedAffinity>
-4.26311874

$$$$
