
 OpenBabel03272506253D

 30 31  0  0  0  0  0  0  0  0999 V2000
   37.5830   30.3210   47.2510 C   0  0  0  0  0  0  0  0  0  0  0  0
   37.6220   29.7430   45.9980 C   0  0  0  0  0  0  0  0  0  0  0  0
   38.5350   30.0200   45.0050 C   0  0  0  0  0  0  0  0  0  0  0  0
   39.5190   30.9780   45.2830 C   0  0  0  0  0  0  0  0  0  0  0  0
   39.5070   31.5750   46.5250 C   0  0  0  0  0  0  0  0  0  0  0  0
   38.5740   31.2680   47.4890 C   0  0  0  0  0  0  0  0  0  0  0  0
   36.8760   28.9830   45.7190 H   0  0  0  0  0  0  0  0  0  0  0  0
   38.5130   29.5330   44.0470 H   0  0  0  0  0  0  0  0  0  0  0  0
   40.2720   31.2510   44.5550 H   0  0  0  0  0  0  0  0  0  0  0  0
   40.2660   32.3170   46.7450 H   0  0  0  0  0  0  0  0  0  0  0  0
   36.9700   29.5550   49.4690 C   0  0  0  0  0  0  0  0  0  0  0  0
   36.5530   29.9020   48.1510 C   0  0  0  0  0  0  0  0  0  0  0  0
   35.2060   29.8050   47.8590 C   0  0  0  0  0  0  0  0  0  0  0  0
   34.3470   29.3890   48.8250 N   0  0  0  0  0  0  0  0  0  0  0  0
   34.7700   29.0630   50.0800 C   0  0  0  0  0  0  0  0  0  0  0  0
   36.0920   29.1500   50.3930 N   0  0  0  0  0  0  0  0  0  0  0  0
   38.0270   29.6220   49.7300 H   0  0  0  0  0  0  0  0  0  0  0  0
   34.0840   28.7340   50.8380 H   0  0  0  0  0  0  0  0  0  0  0  0
   34.6350   30.1360   46.5240 C   0  0  0  0  0  0  0  0  0  0  0  0
   33.3250   30.6320   46.6900 F   0  0  0  0  0  0  0  0  0  0  0  0
   35.3350   31.0080   45.7610 F   0  0  0  0  0  0  0  0  0  0  0  0
   34.4440   28.9580   45.7920 F   0  0  0  0  0  0  0  0  0  0  0  0
   38.5420   32.0300   49.1060 S   0  0  0  0  0  0  0  0  0  0  0  0
   38.0730   33.7750   49.0020 C   0  0  0  0  0  2  0  0  0  0  0  0
   39.2210   34.6430   49.1930 N   0  0  0  0  0  4  0  0  0  0  0  0
   38.9210   35.6240   49.3170 H   0  0  0  0  0  0  0  0  0  0  0  0
   40.0810   34.5520   48.0290 C   0  0  0  0  0  2  0  0  0  0  0  0
   41.0760   34.1240   48.2970 H   0  0  0  0  0  0  0  0  0  0  0  0
   39.9780   34.2740   50.3780 C   0  0  0  0  0  2  0  0  0  0  0  0
   40.2480   33.2090   50.3980 H   0  0  0  0  0  0  0  0  0  0  0  0
  1  6  1  0  0  0  0
  1 12  1  0  0  0  0
  2  1  2  0  0  0  0
  3  4  2  0  0  0  0
  3  2  1  0  0  0  0
  4  5  1  0  0  0  0
  5 10  1  0  0  0  0
  5  6  2  0  0  0  0
  6 23  1  0  0  0  0
  7  2  1  0  0  0  0
  8  3  1  0  0  0  0
  9  4  1  0  0  0  0
 11 17  1  0  0  0  0
 11 16  1  0  0  0  0
 12 11  2  0  0  0  0
 13 12  1  0  0  0  0
 13 14  2  0  0  0  0
 14 15  1  0  0  0  0
 15 16  2  0  0  0  0
 15 18  1  0  0  0  0
 19 20  1  0  0  0  0
 19 13  1  0  0  0  0
 21 19  1  0  0  0  0
 22 19  1  0  0  0  0
 24 23  1  0  0  0  0
 24 25  1  0  0  0  0
 25 26  1  0  0  0  0
 25 29  1  0  0  0  0
 27 28  1  0  0  0  0
 27 25  1  0  0  0  0
 29 30  1  0  0  0  0
M  END
>  <minimizedAffinity>
-3.29995775

>  <minimizedRMSD>
1.32118726

$$$$
