
 OpenBabel03262521543D

 37 38  0  0  1  0  0  0  0  0999 V2000
   33.1970   27.1610   48.3700 C   0  0  1  0  0  0  0  0  0  0  0  0
   33.6720   28.5580   48.7380 C   0  0  2  0  0  0  0  0  0  0  0  0
   33.4580   29.4380   47.5590 C   0  0  0  0  0  0  0  0  0  0  0  0
   32.9050   28.7960   46.4730 O   0  0  0  0  0  0  0  0  0  0  0  0
   31.6720   28.2160   46.7860 C   0  0  0  0  0  0  0  0  0  0  0  0
   31.7510   27.2950   47.9760 C   0  0  2  0  0  0  0  0  0  0  0  0
   33.3710   26.5420   49.2610 H   0  0  0  0  0  0  0  0  0  0  0  0
   33.0000   28.9140   49.5580 H   0  0  0  0  0  0  0  0  0  0  0  0
   34.4070   29.9130   47.2040 H   0  0  0  0  0  0  0  0  0  0  0  0
   32.7750   30.3070   47.7930 H   0  0  0  0  0  0  0  0  0  0  0  0
   31.3870   27.6430   45.8780 H   0  0  0  0  0  0  0  0  0  0  0  0
   30.8690   28.9860   46.8910 H   0  0  0  0  0  0  0  0  0  0  0  0
   31.2480   26.3580   47.7260 H   0  0  0  0  0  0  0  0  0  0  0  0
   33.8790   26.6880   47.2570 O   0  0  0  0  0  0  0  0  0  0  0  0
   34.8370   26.6110   47.5220 H   0  0  0  0  0  0  0  0  0  0  0  0
   35.3970   28.5700   49.2630 S   0  0  0  0  0  0  0  0  0  0  0  0
   35.6600   29.7820   50.5680 C   0  0  0  0  0  0  0  0  0  0  0  0
   35.1860   29.3950   51.4920 H   0  0  0  0  0  0  0  0  0  0  0  0
   35.0610   30.6970   50.2920 H   0  0  0  0  0  0  0  0  0  0  0  0
   37.3700   30.2130   50.8440 S   0  0  0  0  0  0  0  0  0  0  0  0
   37.9940   31.0780   49.4250 C   0  0  0  0  0  0  0  0  0  0  0  0
   38.3690   32.3880   49.6690 C   0  0  0  0  0  0  0  0  0  0  0  0
   38.8760   33.1400   48.5820 C   0  0  0  0  0  0  0  0  0  0  0  0
   38.9660   32.5310   47.3650 N   0  0  0  0  0  0  0  0  0  0  0  0
   38.5810   31.2510   47.2050 C   0  0  0  0  0  0  0  0  0  0  0  0
   38.1060   30.5330   48.2040 N   0  0  0  0  0  0  0  0  0  0  0  0
   38.3150   32.9130   50.6190 H   0  0  0  0  0  0  0  0  0  0  0  0
   39.1790   34.1590   48.7210 H   0  0  0  0  0  0  0  0  0  0  0  0
   38.6750   30.8150   46.2090 H   0  0  0  0  0  0  0  0  0  0  0  0
   31.1120   27.8990   49.0750 O   0  0  0  0  0  0  0  0  0  0  0  0
   29.9680   27.2210   49.4420 C   0  0  0  0  0  2  0  0  0  0  0  0
   28.7410   27.7550   48.9540 N   0  0  0  0  0  4  0  0  0  0  0  0
   28.7200   28.0100   47.9540 H   0  0  0  0  0  0  0  0  0  0  0  0
   27.5940   26.8800   49.1620 C   0  0  0  0  0  2  0  0  0  0  0  0
   27.8570   25.8290   49.0150 H   0  0  0  0  0  0  0  0  0  0  0  0
   28.4820   28.9830   49.7100 C   0  0  0  0  0  2  0  0  0  0  0  0
   27.5080   28.9290   50.2640 H   0  0  0  0  0  0  0  0  0  0  0  0
  1  2  1  0  0  0  0
  1  7  1  1  0  0  0
  2 16  1  0  0  0  0
  2  8  1  1  0  0  0
  3 10  1  0  0  0  0
  3  2  1  0  0  0  0
  4  5  1  0  0  0  0
  4  3  1  0  0  0  0
  5 12  1  0  0  0  0
  5  6  1  0  0  0  0
  6 13  1  6  0  0  0
  6  1  1  0  0  0  0
  6 30  1  0  0  0  0
  9  3  1  0  0  0  0
 11  5  1  0  0  0  0
 14 15  1  0  0  0  0
 14  1  1  0  0  0  0
 16 17  1  0  0  0  0
 17 20  1  0  0  0  0
 17 18  1  0  0  0  0
 19 17  1  0  0  0  0
 21 22  1  0  0  0  0
 21 20  1  0  0  0  0
 22 27  1  0  0  0  0
 23 28  1  0  0  0  0
 23 22  2  0  0  0  0
 24 23  1  0  0  0  0
 25 24  2  0  0  0  0
 25 26  1  0  0  0  0
 26 21  2  0  0  0  0
 29 25  1  0  0  0  0
 30 31  1  0  0  0  0
 32 34  1  0  0  0  0
 32 31  1  0  0  0  0
 32 36  1  0  0  0  0
 33 32  1  0  0  0  0
 35 34  1  0  0  0  0
 36 37  1  0  0  0  0
M  END
>  <minimizedAffinity>
-4.55881214

>  <minimizedRMSD>
0.955883563

$$$$
