
 OpenBabel03262521533D

 37 38  0  0  1  0  0  0  0  0999 V2000
   32.5690   27.0680   48.1540 C   0  0  1  0  0  0  0  0  0  0  0  0
   33.2550   28.4150   48.3210 C   0  0  2  0  0  0  0  0  0  0  0  0
   33.5990   28.9240   46.9670 C   0  0  0  0  0  0  0  0  0  0  0  0
   33.2250   28.0840   45.9410 O   0  0  0  0  0  0  0  0  0  0  0  0
   31.8500   27.8320   45.9520 C   0  0  0  0  0  0  0  0  0  0  0  0
   31.3680   27.3090   47.2810 C   0  0  2  0  0  0  0  0  0  0  0  0
   32.3320   26.7250   49.1710 H   0  0  0  0  0  0  0  0  0  0  0  0
   32.4920   29.1040   48.7630 H   0  0  0  0  0  0  0  0  0  0  0  0
   34.6950   29.1110   46.8490 H   0  0  0  0  0  0  0  0  0  0  0  0
   33.1150   29.9220   46.7500 H   0  0  0  0  0  0  0  0  0  0  0  0
   31.6950   27.0670   45.1620 H   0  0  0  0  0  0  0  0  0  0  0  0
   31.2660   28.7170   45.6000 H   0  0  0  0  0  0  0  0  0  0  0  0
   30.7380   26.4340   47.1040 H   0  0  0  0  0  0  0  0  0  0  0  0
   33.3920   26.1800   47.4760 O   0  0  0  0  0  0  0  0  0  0  0  0
   34.1900   26.0320   48.0550 H   0  0  0  0  0  0  0  0  0  0  0  0
   34.7150   28.3060   49.3730 S   0  0  0  0  0  0  0  0  0  0  0  0
   35.1390   29.9200   50.0500 C   0  0  0  0  0  0  0  0  0  0  0  0
   34.4750   30.1100   50.9170 H   0  0  0  0  0  0  0  0  0  0  0  0
   34.8410   30.6880   49.2790 H   0  0  0  0  0  0  0  0  0  0  0  0
   36.8580   30.1090   50.4910 S   0  0  0  0  0  0  0  0  0  0  0  0
   37.7140   30.9410   49.1770 C   0  0  0  0  0  0  0  0  0  0  0  0
   38.1560   32.2140   49.4940 C   0  0  0  0  0  0  0  0  0  0  0  0
   38.8470   32.9380   48.4920 C   0  0  0  0  0  0  0  0  0  0  0  0
   39.0360   32.3400   47.2810 N   0  0  0  0  0  0  0  0  0  0  0  0
   38.5760   31.0960   47.0470 C   0  0  0  0  0  0  0  0  0  0  0  0
   37.9300   30.4050   47.9650 N   0  0  0  0  0  0  0  0  0  0  0  0
   38.0290   32.7280   50.4420 H   0  0  0  0  0  0  0  0  0  0  0  0
   39.2090   33.9280   48.6900 H   0  0  0  0  0  0  0  0  0  0  0  0
   38.7550   30.6690   46.0600 H   0  0  0  0  0  0  0  0  0  0  0  0
   30.6200   28.3100   47.9300 O   0  0  0  0  0  0  0  0  0  0  0  0
   29.2790   27.9920   47.9930 C   0  0  0  0  0  2  0  0  0  0  0  0
   28.9190   26.9840   48.9320 N   0  0  0  0  0  4  0  0  0  0  0  0
   29.3630   26.0600   48.8020 H   0  0  0  0  0  0  0  0  0  0  0  0
   29.1750   27.3520   50.3180 C   0  0  0  0  0  2  0  0  0  0  0  0
   30.1020   27.9220   50.4190 H   0  0  0  0  0  0  0  0  0  0  0  0
   27.4740   26.7810   48.8040 C   0  0  0  0  0  2  0  0  0  0  0  0
   26.9410   26.9830   49.7700 H   0  0  0  0  0  0  0  0  0  0  0  0
  1  2  1  0  0  0  0
  1  7  1  1  0  0  0
  2  8  1  1  0  0  0
  2 16  1  0  0  0  0
  3  2  1  0  0  0  0
  4  5  1  0  0  0  0
  4  3  1  0  0  0  0
  5  6  1  0  0  0  0
  6 13  1  6  0  0  0
  6 30  1  0  0  0  0
  6  1  1  0  0  0  0
  9  3  1  0  0  0  0
 10  3  1  0  0  0  0
 11  5  1  0  0  0  0
 12  5  1  0  0  0  0
 14 15  1  0  0  0  0
 14  1  1  0  0  0  0
 16 17  1  0  0  0  0
 17 20  1  0  0  0  0
 17 18  1  0  0  0  0
 19 17  1  0  0  0  0
 21 22  1  0  0  0  0
 21 20  1  0  0  0  0
 22 27  1  0  0  0  0
 23 28  1  0  0  0  0
 23 22  2  0  0  0  0
 24 23  1  0  0  0  0
 25 24  2  0  0  0  0
 25 26  1  0  0  0  0
 26 21  2  0  0  0  0
 29 25  1  0  0  0  0
 30 31  1  0  0  0  0
 31 32  1  0  0  0  0
 32 34  1  0  0  0  0
 33 32  1  0  0  0  0
 34 35  1  0  0  0  0
 36 32  1  0  0  0  0
 36 37  1  0  0  0  0
M  END
>  <minimizedAffinity>
-4.43583679

>  <minimizedRMSD>
0.66859287

$$$$
