
 OpenBabel03262521533D

 37 38  0  0  1  0  0  0  0  0999 V2000
   32.6990   27.0140   48.2860 C   0  0  1  0  0  0  0  0  0  0  0  0
   33.2840   28.3710   48.6480 C   0  0  2  0  0  0  0  0  0  0  0  0
   33.0760   29.2810   47.4910 C   0  0  0  0  0  0  0  0  0  0  0  0
   32.4310   28.6930   46.4250 O   0  0  0  0  0  0  0  0  0  0  0  0
   31.1770   28.1930   46.7890 C   0  0  0  0  0  0  0  0  0  0  0  0
   31.2490   27.2500   47.9630 C   0  0  2  0  0  0  0  0  0  0  0  0
   32.8720   26.3710   49.1610 H   0  0  0  0  0  0  0  0  0  0  0  0
   32.6760   28.7580   49.5030 H   0  0  0  0  0  0  0  0  0  0  0  0
   34.0370   29.6960   47.0980 H   0  0  0  0  0  0  0  0  0  0  0  0
   32.4650   30.1900   47.7670 H   0  0  0  0  0  0  0  0  0  0  0  0
   30.8130   27.6540   45.8890 H   0  0  0  0  0  0  0  0  0  0  0  0
   30.4340   29.0130   46.9410 H   0  0  0  0  0  0  0  0  0  0  0  0
   30.6730   26.3530   47.7250 H   0  0  0  0  0  0  0  0  0  0  0  0
   33.2950   26.5130   47.1370 O   0  0  0  0  0  0  0  0  0  0  0  0
   34.2570   26.3690   47.3560 H   0  0  0  0  0  0  0  0  0  0  0  0
   35.0280   28.2600   49.0920 S   0  0  0  0  0  0  0  0  0  0  0  0
   35.4400   29.4530   50.3750 C   0  0  0  0  0  0  0  0  0  0  0  0
   34.9420   29.1310   51.3120 H   0  0  0  0  0  0  0  0  0  0  0  0
   34.9360   30.4230   50.0950 H   0  0  0  0  0  0  0  0  0  0  0  0
   37.1890   29.7040   50.6180 S   0  0  0  0  0  0  0  0  0  0  0  0
   37.8210   30.7410   49.3230 C   0  0  0  0  0  0  0  0  0  0  0  0
   38.2060   32.0050   49.7350 C   0  0  0  0  0  0  0  0  0  0  0  0
   38.7200   32.8880   48.7540 C   0  0  0  0  0  0  0  0  0  0  0  0
   38.8040   32.4420   47.4680 N   0  0  0  0  0  0  0  0  0  0  0  0
   38.4080   31.1960   47.1440 C   0  0  0  0  0  0  0  0  0  0  0  0
   37.9270   30.3590   48.0410 N   0  0  0  0  0  0  0  0  0  0  0  0
   38.1580   32.4020   50.7450 H   0  0  0  0  0  0  0  0  0  0  0  0
   39.0310   33.8780   49.0240 H   0  0  0  0  0  0  0  0  0  0  0  0
   38.4980   30.8930   46.1000 H   0  0  0  0  0  0  0  0  0  0  0  0
   30.7030   27.8790   49.0980 O   0  0  0  0  0  0  0  0  0  0  0  0
   29.6920   27.1310   49.6650 C   0  0  0  0  0  2  0  0  0  0  0  0
   28.6090   27.8650   50.2240 N   0  0  0  0  0  4  0  0  0  0  0  0
   28.8200   28.8280   50.5310 H   0  0  0  0  0  0  0  0  0  0  0  0
   27.4540   27.9790   49.3400 C   0  0  0  0  0  2  0  0  0  0  0  0
   27.7580   28.1110   48.2990 H   0  0  0  0  0  0  0  0  0  0  0  0
   28.1660   27.1300   51.4110 C   0  0  0  0  0  2  0  0  0  0  0  0
   27.0890   26.8250   51.3290 H   0  0  0  0  0  0  0  0  0  0  0  0
  1  2  1  0  0  0  0
  1  7  1  1  0  0  0
  2 16  1  0  0  0  0
  2  8  1  1  0  0  0
  3 10  1  0  0  0  0
  3  2  1  0  0  0  0
  4  5  1  0  0  0  0
  4  3  1  0  0  0  0
  5 12  1  0  0  0  0
  5  6  1  0  0  0  0
  6 13  1  6  0  0  0
  6  1  1  0  0  0  0
  6 30  1  0  0  0  0
  9  3  1  0  0  0  0
 11  5  1  0  0  0  0
 14 15  1  0  0  0  0
 14  1  1  0  0  0  0
 16 17  1  0  0  0  0
 17 20  1  0  0  0  0
 17 18  1  0  0  0  0
 19 17  1  0  0  0  0
 21 22  1  0  0  0  0
 21 20  1  0  0  0  0
 22 27  1  0  0  0  0
 23 28  1  0  0  0  0
 23 22  2  0  0  0  0
 24 23  1  0  0  0  0
 25 24  2  0  0  0  0
 25 26  1  0  0  0  0
 26 21  2  0  0  0  0
 29 25  1  0  0  0  0
 30 31  1  0  0  0  0
 31 32  1  0  0  0  0
 32 33  1  0  0  0  0
 32 36  1  0  0  0  0
 34 32  1  0  0  0  0
 35 34  1  0  0  0  0
 37 36  1  0  0  0  0
M  END
>  <minimizedAffinity>
-4.60482264

>  <minimizedRMSD>
1.192855

$$$$
