
 OpenBabel03272506253D

 30 31  0  0  0  0  0  0  0  0999 V2000
   37.5830   30.3210   47.2510 C   0  0  0  0  0  0  0  0  0  0  0  0
   37.6230   29.7420   45.9980 C   0  0  0  0  0  0  0  0  0  0  0  0
   38.5360   30.0190   45.0050 C   0  0  0  0  0  0  0  0  0  0  0  0
   39.5190   30.9780   45.2830 C   0  0  0  0  0  0  0  0  0  0  0  0
   39.5070   31.5750   46.5250 C   0  0  0  0  0  0  0  0  0  0  0  0
   38.5730   31.2680   47.4890 C   0  0  0  0  0  0  0  0  0  0  0  0
   36.8770   28.9820   45.7190 H   0  0  0  0  0  0  0  0  0  0  0  0
   38.5140   29.5320   44.0470 H   0  0  0  0  0  0  0  0  0  0  0  0
   40.2720   31.2510   44.5550 H   0  0  0  0  0  0  0  0  0  0  0  0
   40.2660   32.3170   46.7450 H   0  0  0  0  0  0  0  0  0  0  0  0
   36.9700   29.5540   49.4690 C   0  0  0  0  0  0  0  0  0  0  0  0
   36.5530   29.9020   48.1510 C   0  0  0  0  0  0  0  0  0  0  0  0
   35.2060   29.8050   47.8580 C   0  0  0  0  0  0  0  0  0  0  0  0
   34.3470   29.3880   48.8240 N   0  0  0  0  0  0  0  0  0  0  0  0
   34.7710   29.0610   50.0790 C   0  0  0  0  0  0  0  0  0  0  0  0
   36.0920   29.1490   50.3930 N   0  0  0  0  0  0  0  0  0  0  0  0
   38.0270   29.6210   49.7300 H   0  0  0  0  0  0  0  0  0  0  0  0
   34.0840   28.7330   50.8380 H   0  0  0  0  0  0  0  0  0  0  0  0
   34.6350   30.1370   46.5240 C   0  0  0  0  0  0  0  0  0  0  0  0
   33.3260   30.6320   46.6900 F   0  0  0  0  0  0  0  0  0  0  0  0
   35.3350   31.0070   45.7610 F   0  0  0  0  0  0  0  0  0  0  0  0
   34.4430   28.9590   45.7920 F   0  0  0  0  0  0  0  0  0  0  0  0
   38.5410   32.0300   49.1050 S   0  0  0  0  0  0  0  0  0  0  0  0
   38.0730   33.7760   49.0010 C   0  0  0  0  0  2  0  0  0  0  0  0
   39.2220   34.6440   49.1940 N   0  0  0  0  0  4  0  0  0  0  0  0
   38.9230   35.6240   49.3180 H   0  0  0  0  0  0  0  0  0  0  0  0
   40.0830   34.5520   48.0290 C   0  0  0  0  0  2  0  0  0  0  0  0
   41.0770   34.1230   48.2980 H   0  0  0  0  0  0  0  0  0  0  0  0
   39.9780   34.2730   50.3780 C   0  0  0  0  0  2  0  0  0  0  0  0
   40.2470   33.2080   50.3980 H   0  0  0  0  0  0  0  0  0  0  0  0
  1  6  1  0  0  0  0
  1 12  1  0  0  0  0
  2  1  2  0  0  0  0
  3  4  2  0  0  0  0
  3  2  1  0  0  0  0
  4  5  1  0  0  0  0
  5 10  1  0  0  0  0
  5  6  2  0  0  0  0
  6 23  1  0  0  0  0
  7  2  1  0  0  0  0
  8  3  1  0  0  0  0
  9  4  1  0  0  0  0
 11 17  1  0  0  0  0
 11 16  1  0  0  0  0
 12 11  2  0  0  0  0
 13 12  1  0  0  0  0
 13 14  2  0  0  0  0
 14 15  1  0  0  0  0
 15 16  2  0  0  0  0
 15 18  1  0  0  0  0
 19 20  1  0  0  0  0
 19 13  1  0  0  0  0
 21 19  1  0  0  0  0
 22 19  1  0  0  0  0
 24 23  1  0  0  0  0
 24 25  1  0  0  0  0
 25 26  1  0  0  0  0
 25 29  1  0  0  0  0
 27 28  1  0  0  0  0
 27 25  1  0  0  0  0
 29 30  1  0  0  0  0
M  END
>  <minimizedAffinity>
-3.2978003

>  <minimizedRMSD>
1.30898404

$$$$
