
 OpenBabel03262521543D

 37 38  0  0  1  0  0  0  0  0999 V2000
   32.9650   27.1470   47.8390 C   0  0  1  0  0  0  0  0  0  0  0  0
   33.4710   28.5060   48.2970 C   0  0  2  0  0  0  0  0  0  0  0  0
   33.8980   29.2640   47.0910 C   0  0  0  0  0  0  0  0  0  0  0  0
   33.7360   28.5750   45.9090 O   0  0  0  0  0  0  0  0  0  0  0  0
   32.4060   28.1950   45.7090 C   0  0  0  0  0  0  0  0  0  0  0  0
   31.8460   27.4140   46.8700 C   0  0  2  0  0  0  0  0  0  0  0  0
   32.6610   26.6180   48.7530 H   0  0  0  0  0  0  0  0  0  0  0  0
   32.5910   29.0360   48.7400 H   0  0  0  0  0  0  0  0  0  0  0  0
   34.9730   29.5720   47.1410 H   0  0  0  0  0  0  0  0  0  0  0  0
   33.3300   30.2330   46.9720 H   0  0  0  0  0  0  0  0  0  0  0  0
   32.4250   27.5610   44.7970 H   0  0  0  0  0  0  0  0  0  0  0  0
   31.7650   29.0660   45.4270 H   0  0  0  0  0  0  0  0  0  0  0  0
   31.3430   26.5250   46.4830 H   0  0  0  0  0  0  0  0  0  0  0  0
   33.9530   26.4660   47.1400 O   0  0  0  0  0  0  0  0  0  0  0  0
   34.6960   26.3010   47.7850 H   0  0  0  0  0  0  0  0  0  0  0  0
   34.8120   28.3630   49.4930 S   0  0  0  0  0  0  0  0  0  0  0  0
   35.2680   29.9800   50.1410 C   0  0  0  0  0  0  0  0  0  0  0  0
   34.6360   30.1800   51.0300 H   0  0  0  0  0  0  0  0  0  0  0  0
   34.9460   30.7430   49.3750 H   0  0  0  0  0  0  0  0  0  0  0  0
   37.0020   30.1630   50.5170 S   0  0  0  0  0  0  0  0  0  0  0  0
   37.8070   31.0120   49.1820 C   0  0  0  0  0  0  0  0  0  0  0  0
   38.2480   32.2870   49.4940 C   0  0  0  0  0  0  0  0  0  0  0  0
   38.9000   33.0240   48.4760 C   0  0  0  0  0  0  0  0  0  0  0  0
   39.0540   32.4370   47.2550 N   0  0  0  0  0  0  0  0  0  0  0  0
   38.5970   31.1910   47.0270 C   0  0  0  0  0  0  0  0  0  0  0  0
   37.9880   30.4880   47.9610 N   0  0  0  0  0  0  0  0  0  0  0  0
   38.1480   32.7930   50.4500 H   0  0  0  0  0  0  0  0  0  0  0  0
   39.2590   34.0160   48.6690 H   0  0  0  0  0  0  0  0  0  0  0  0
   38.7480   30.7710   46.0310 H   0  0  0  0  0  0  0  0  0  0  0  0
   30.9230   28.2170   47.5680 O   0  0  0  0  0  0  0  0  0  0  0  0
   29.6760   27.6310   47.6310 C   0  0  0  0  0  2  0  0  0  0  0  0
   29.3160   27.0590   48.8840 N   0  0  0  0  0  4  0  0  0  0  0  0
   29.6630   26.1040   49.0670 H   0  0  0  0  0  0  0  0  0  0  0  0
   29.7260   27.8540   50.0350 C   0  0  0  0  0  2  0  0  0  0  0  0
   30.7050   28.3140   49.8760 H   0  0  0  0  0  0  0  0  0  0  0  0
   27.8530   26.9890   48.9150 C   0  0  0  0  0  2  0  0  0  0  0  0
   27.4290   27.5720   49.7730 H   0  0  0  0  0  0  0  0  0  0  0  0
  1  2  1  0  0  0  0
  1  7  1  1  0  0  0
  2  8  1  1  0  0  0
  2 16  1  0  0  0  0
  3  9  1  0  0  0  0
  3  2  1  0  0  0  0
  4  3  1  0  0  0  0
  5  4  1  0  0  0  0
  5  6  1  0  0  0  0
  6 13  1  6  0  0  0
  6 30  1  0  0  0  0
  6  1  1  0  0  0  0
 10  3  1  0  0  0  0
 11  5  1  0  0  0  0
 12  5  1  0  0  0  0
 14 15  1  0  0  0  0
 14  1  1  0  0  0  0
 16 17  1  0  0  0  0
 17 20  1  0  0  0  0
 17 18  1  0  0  0  0
 19 17  1  0  0  0  0
 21 22  1  0  0  0  0
 21 20  1  0  0  0  0
 22 27  1  0  0  0  0
 23 28  1  0  0  0  0
 23 22  2  0  0  0  0
 24 23  1  0  0  0  0
 25 24  2  0  0  0  0
 25 26  1  0  0  0  0
 26 21  2  0  0  0  0
 29 25  1  0  0  0  0
 30 31  1  0  0  0  0
 31 32  1  0  0  0  0
 32 36  1  0  0  0  0
 32 33  1  0  0  0  0
 32 34  1  0  0  0  0
 35 34  1  0  0  0  0
 36 37  1  0  0  0  0
M  END
>  <minimizedAffinity>
-4.41259623

>  <minimizedRMSD>
0.621432841

$$$$
