
 OpenBabel03262521543D

 37 38  0  0  1  0  0  0  0  0999 V2000
   33.2560   27.1620   48.3810 C   0  0  1  0  0  0  0  0  0  0  0  0
   33.7160   28.5680   48.7340 C   0  0  2  0  0  0  0  0  0  0  0  0
   33.4760   29.4370   47.5510 C   0  0  0  0  0  0  0  0  0  0  0  0
   32.9200   28.7780   46.4750 O   0  0  0  0  0  0  0  0  0  0  0  0
   31.6990   28.1830   46.8070 C   0  0  0  0  0  0  0  0  0  0  0  0
   31.8050   27.2720   48.0030 C   0  0  2  0  0  0  0  0  0  0  0  0
   33.4500   26.5520   49.2750 H   0  0  0  0  0  0  0  0  0  0  0  0
   33.0470   28.9200   49.5590 H   0  0  0  0  0  0  0  0  0  0  0  0
   34.4140   29.9220   47.1820 H   0  0  0  0  0  0  0  0  0  0  0  0
   32.7830   30.2970   47.7860 H   0  0  0  0  0  0  0  0  0  0  0  0
   31.4130   27.5990   45.9060 H   0  0  0  0  0  0  0  0  0  0  0  0
   30.8860   28.9420   46.9150 H   0  0  0  0  0  0  0  0  0  0  0  0
   31.3130   26.3260   47.7650 H   0  0  0  0  0  0  0  0  0  0  0  0
   33.9330   26.6900   47.2640 O   0  0  0  0  0  0  0  0  0  0  0  0
   34.8950   26.6300   47.5190 H   0  0  0  0  0  0  0  0  0  0  0  0
   35.4450   28.6100   49.2390 S   0  0  0  0  0  0  0  0  0  0  0  0
   35.7020   29.8200   50.5480 C   0  0  0  0  0  0  0  0  0  0  0  0
   35.2160   29.4350   51.4670 H   0  0  0  0  0  0  0  0  0  0  0  0
   35.1090   30.7380   50.2660 H   0  0  0  0  0  0  0  0  0  0  0  0
   37.4100   30.2420   50.8400 S   0  0  0  0  0  0  0  0  0  0  0  0
   38.0400   31.1450   49.4470 C   0  0  0  0  0  0  0  0  0  0  0  0
   38.3940   32.4540   49.7230 C   0  0  0  0  0  0  0  0  0  0  0  0
   38.9050   33.2350   48.6570 C   0  0  0  0  0  0  0  0  0  0  0  0
   39.0170   32.6530   47.4290 N   0  0  0  0  0  0  0  0  0  0  0  0
   38.6510   31.3710   47.2390 C   0  0  0  0  0  0  0  0  0  0  0  0
   38.1740   30.6270   48.2170 N   0  0  0  0  0  0  0  0  0  0  0  0
   38.3230   32.9580   50.6820 H   0  0  0  0  0  0  0  0  0  0  0  0
   39.1920   34.2550   48.8210 H   0  0  0  0  0  0  0  0  0  0  0  0
   38.7620   30.9570   46.2350 H   0  0  0  0  0  0  0  0  0  0  0  0
   31.1690   27.8740   49.1040 O   0  0  0  0  0  0  0  0  0  0  0  0
   29.8000   27.7140   49.0600 C   0  0  0  0  0  2  0  0  0  0  0  0
   29.0250   28.8960   49.2280 N   0  0  0  0  0  4  0  0  0  0  0  0
   29.5330   29.7310   49.5600 H   0  0  0  0  0  0  0  0  0  0  0  0
   28.3200   29.3160   48.0230 C   0  0  0  0  0  2  0  0  0  0  0  0
   28.9250   29.1520   47.1270 H   0  0  0  0  0  0  0  0  0  0  0  0
   28.0040   28.5950   50.2350 C   0  0  0  0  0  2  0  0  0  0  0  0
   26.9680   28.7320   49.8270 H   0  0  0  0  0  0  0  0  0  0  0  0
  1  2  1  0  0  0  0
  1  7  1  1  0  0  0
  2 16  1  0  0  0  0
  2  8  1  1  0  0  0
  3 10  1  0  0  0  0
  3  2  1  0  0  0  0
  4  5  1  0  0  0  0
  4  3  1  0  0  0  0
  5 12  1  0  0  0  0
  5  6  1  0  0  0  0
  6 13  1  6  0  0  0
  6  1  1  0  0  0  0
  6 30  1  0  0  0  0
  9  3  1  0  0  0  0
 11  5  1  0  0  0  0
 14 15  1  0  0  0  0
 14  1  1  0  0  0  0
 16 17  1  0  0  0  0
 17 20  1  0  0  0  0
 17 18  1  0  0  0  0
 19 17  1  0  0  0  0
 21 22  1  0  0  0  0
 21 20  1  0  0  0  0
 22 27  1  0  0  0  0
 23 28  1  0  0  0  0
 23 22  2  0  0  0  0
 24 23  1  0  0  0  0
 25 24  2  0  0  0  0
 25 26  1  0  0  0  0
 26 21  2  0  0  0  0
 29 25  1  0  0  0  0
 31 30  1  0  0  0  0
 31 32  1  0  0  0  0
 32 33  1  0  0  0  0
 32 36  1  0  0  0  0
 34 32  1  0  0  0  0
 35 34  1  0  0  0  0
 37 36  1  0  0  0  0
M  END
>  <minimizedAffinity>
-4.68857622

>  <minimizedRMSD>
0.478057504

$$$$
