
 OpenBabel03262521533D

 37 38  0  0  1  0  0  0  0  0999 V2000
   33.0170   27.0690   48.1470 C   0  0  1  0  0  0  0  0  0  0  0  0
   33.5160   28.4550   48.5240 C   0  0  2  0  0  0  0  0  0  0  0  0
   33.4960   29.2970   47.2980 C   0  0  0  0  0  0  0  0  0  0  0  0
   33.0490   28.6380   46.1740 O   0  0  0  0  0  0  0  0  0  0  0  0
   31.7580   28.1310   46.3480 C   0  0  0  0  0  0  0  0  0  0  0  0
   31.6410   27.2550   47.5700 C   0  0  2  0  0  0  0  0  0  0  0  0
   33.0470   26.4790   49.0740 H   0  0  0  0  0  0  0  0  0  0  0  0
   32.7660   28.8760   49.2400 H   0  0  0  0  0  0  0  0  0  0  0  0
   34.5050   29.7110   47.0500 H   0  0  0  0  0  0  0  0  0  0  0  0
   32.8360   30.2060   47.4150 H   0  0  0  0  0  0  0  0  0  0  0  0
   31.5590   27.5360   45.4320 H   0  0  0  0  0  0  0  0  0  0  0  0
   30.9890   28.9420   46.3250 H   0  0  0  0  0  0  0  0  0  0  0  0
   31.1250   26.3340   47.2900 H   0  0  0  0  0  0  0  0  0  0  0  0
   33.8060   26.5190   47.1460 O   0  0  0  0  0  0  0  0  0  0  0  0
   34.7190   26.4080   47.5320 H   0  0  0  0  0  0  0  0  0  0  0  0
   35.1600   28.4070   49.2620 S   0  0  0  0  0  0  0  0  0  0  0  0
   35.4260   29.8340   50.3280 C   0  0  0  0  0  0  0  0  0  0  0  0
   34.8440   29.6760   51.2580 H   0  0  0  0  0  0  0  0  0  0  0  0
   34.9370   30.7160   49.8220 H   0  0  0  0  0  0  0  0  0  0  0  0
   37.1390   30.1840   50.6810 S   0  0  0  0  0  0  0  0  0  0  0  0
   37.8670   31.0210   49.2950 C   0  0  0  0  0  0  0  0  0  0  0  0
   38.2910   32.3120   49.5610 C   0  0  0  0  0  0  0  0  0  0  0  0
   38.8810   33.0410   48.5000 C   0  0  0  0  0  0  0  0  0  0  0  0
   38.9970   32.4310   47.2860 N   0  0  0  0  0  0  0  0  0  0  0  0
   38.5590   31.1700   47.1040 C   0  0  0  0  0  0  0  0  0  0  0  0
   38.0070   30.4740   48.0780 N   0  0  0  0  0  0  0  0  0  0  0  0
   38.2210   32.8360   50.5100 H   0  0  0  0  0  0  0  0  0  0  0  0
   39.2260   34.0450   48.6570 H   0  0  0  0  0  0  0  0  0  0  0  0
   38.6770   30.7330   46.1120 H   0  0  0  0  0  0  0  0  0  0  0  0
   30.9020   27.9330   48.5580 O   0  0  0  0  0  0  0  0  0  0  0  0
   30.0870   27.0760   49.2700 C   0  0  0  0  0  2  0  0  0  0  0  0
   28.8290   27.6050   49.6750 N   0  0  0  0  0  4  0  0  0  0  0  0
   28.7520   28.6340   49.7030 H   0  0  0  0  0  0  0  0  0  0  0  0
   27.7080   27.1480   48.8640 C   0  0  0  0  0  2  0  0  0  0  0  0
   27.9820   27.0720   47.8070 H   0  0  0  0  0  0  0  0  0  0  0  0
   28.5880   27.1260   51.0390 C   0  0  0  0  0  2  0  0  0  0  0  0
   27.6450   26.5230   51.1060 H   0  0  0  0  0  0  0  0  0  0  0  0
  1  2  1  0  0  0  0
  1  7  1  1  0  0  0
  2  8  1  1  0  0  0
  2 16  1  0  0  0  0
  3 10  1  0  0  0  0
  3  2  1  0  0  0  0
  4  5  1  0  0  0  0
  4  3  1  0  0  0  0
  5  6  1  0  0  0  0
  6 13  1  6  0  0  0
  6  1  1  0  0  0  0
  6 30  1  0  0  0  0
  9  3  1  0  0  0  0
 11  5  1  0  0  0  0
 12  5  1  0  0  0  0
 14 15  1  0  0  0  0
 14  1  1  0  0  0  0
 16 17  1  0  0  0  0
 17 20  1  0  0  0  0
 17 18  1  0  0  0  0
 19 17  1  0  0  0  0
 21 22  1  0  0  0  0
 21 20  1  0  0  0  0
 22 27  1  0  0  0  0
 23 28  1  0  0  0  0
 23 22  2  0  0  0  0
 24 23  1  0  0  0  0
 25 24  2  0  0  0  0
 25 26  1  0  0  0  0
 26 21  2  0  0  0  0
 29 25  1  0  0  0  0
 30 31  1  0  0  0  0
 31 32  1  0  0  0  0
 32 33  1  0  0  0  0
 32 36  1  0  0  0  0
 34 32  1  0  0  0  0
 35 34  1  0  0  0  0
 36 37  1  0  0  0  0
M  END
>  <minimizedAffinity>
-4.59370375

>  <minimizedRMSD>
1.15455139

$$$$
