
 OpenBabel03262522143D

 43 45  0  0  1  0  0  0  0  0999 V2000
   39.5640   32.9500   43.7920 C   0  0  0  0  0  0  0  0  0  0  0  0
   38.5000   32.8410   44.0460 H   0  0  0  0  0  0  0  0  0  0  0  0
   39.7510   33.8410   43.1820 H   0  0  0  0  0  0  0  0  0  0  0  0
   38.7830   29.7790   42.3990 C   0  0  1  0  0  0  0  0  0  0  0  0
   38.7920   31.2750   42.1220 C   0  0  0  0  0  0  0  0  0  0  0  0
   39.9500   31.7270   42.9760 C   0  0  2  0  0  0  0  0  0  0  0  0
   40.3510   30.6780   43.7560 O   0  0  0  0  0  0  0  0  0  0  0  0
   39.3060   29.7640   43.8270 C   0  0  0  0  0  0  0  0  0  0  0  0
   39.4890   29.2550   41.7370 H   0  0  0  0  0  0  0  0  0  0  0  0
   39.0560   31.3890   41.0700 H   0  0  0  0  0  0  0  0  0  0  0  0
   37.8550   31.7460   42.4230 H   0  0  0  0  0  0  0  0  0  0  0  0
   40.8150   32.0350   42.3510 H   0  0  0  0  0  0  0  0  0  0  0  0
   38.5090   30.0820   44.5020 H   0  0  0  0  0  0  0  0  0  0  0  0
   39.7020   28.7510   44.0780 H   0  0  0  0  0  0  0  0  0  0  0  0
   37.5100   29.2560   42.3170 O   0  0  0  0  0  0  0  0  0  0  0  0
   37.2650   28.4220   41.2630 C   0  0  0  0  0  2  0  0  0  0  0  0
   35.8520   28.6350   40.9090 N   0  0  0  0  0  4  0  0  0  0  0  0
   35.3620   28.6790   41.8490 H   0  0  0  0  0  0  0  0  0  0  0  0
   35.3130   27.5630   40.1310 C   0  0  0  0  0  2  0  0  0  0  0  0
   35.8330   26.6230   40.4040 H   0  0  0  0  0  0  0  0  0  0  0  0
   35.6600   29.9410   40.2980 C   0  0  0  0  0  2  0  0  0  0  0  0
   34.7790   30.4660   40.7640 H   0  0  0  0  0  0  0  0  0  0  0  0
   40.6670   32.9910   45.2290 S   0  0  0  0  0  0  0  0  0  0  0  0
   37.7760   31.7580   47.6540 C   0  0  0  0  0  0  0  0  0  0  0  0
   37.9330   32.5420   48.8070 C   0  0  0  0  0  0  0  0  0  0  0  0
   38.9360   33.4850   48.8900 C   0  0  0  0  0  0  0  0  0  0  0  0
   39.7550   33.6030   47.7880 C   0  0  0  0  0  0  0  0  0  0  0  0
   39.5790   32.8310   46.6860 C   0  0  0  0  0  0  0  0  0  0  0  0
   38.6010   31.9050   46.5920 N   0  0  0  0  0  0  0  0  0  0  0  0
   37.2600   32.4040   49.6380 H   0  0  0  0  0  0  0  0  0  0  0  0
   39.0650   34.0980   49.7820 H   0  0  0  0  0  0  0  0  0  0  0  0
   40.5500   34.3380   47.8320 H   0  0  0  0  0  0  0  0  0  0  0  0
   36.7000   30.7930   47.6470 C   0  0  0  0  0  0  0  0  0  0  0  0
   36.2130   30.3940   46.5870 O   0  0  0  0  0  0  0  0  0  0  0  0
   37.0150   29.6320   49.8020 C   0  0  0  0  0  0  0  0  0  0  0  0
   36.1300   30.2370   48.8810 C   0  0  0  0  0  0  0  0  0  0  0  0
   34.7720   30.2790   49.1860 C   0  0  0  0  0  0  0  0  0  0  0  0
   34.3340   29.7350   50.3600 N   0  0  0  0  0  0  0  0  0  0  0  0
   35.2110   29.1590   51.2250 C   0  0  0  0  0  0  0  0  0  0  0  0
   36.5260   29.1100   50.9480 N   0  0  0  0  0  0  0  0  0  0  0  0
   38.0870   29.5620   49.6340 H   0  0  0  0  0  0  0  0  0  0  0  0
   34.1590   30.7480   48.4510 H   0  0  0  0  0  0  0  0  0  0  0  0
   34.6930   28.7850   52.0940 H   0  0  0  0  0  0  0  0  0  0  0  0
  1  2  1  0  0  0  0
  1 23  1  0  0  0  0
  3  1  1  0  0  0  0
  4  9  1  6  0  0  0
  4  8  1  0  0  0  0
  5  4  1  0  0  0  0
  5 11  1  0  0  0  0
  5  6  1  0  0  0  0
  6 12  1  6  0  0  0
  6  7  1  0  0  0  0
  6  1  1  0  0  0  0
  7  8  1  0  0  0  0
  8 14  1  0  0  0  0
  8 13  1  0  0  0  0
 10  5  1  0  0  0  0
 15  4  1  0  0  0  0
 16 15  1  0  0  0  0
 17 16  1  0  0  0  0
 17 18  1  0  0  0  0
 19 20  1  0  0  0  0
 19 17  1  0  0  0  0
 21 22  1  0  0  0  0
 21 17  1  0  0  0  0
 23 28  1  0  0  0  0
 24 25  1  0  0  0  0
 25 26  2  0  0  0  0
 25 30  1  0  0  0  0
 26 31  1  0  0  0  0
 27 32  1  0  0  0  0
 27 26  1  0  0  0  0
 28 27  2  0  0  0  0
 29 28  1  0  0  0  0
 29 24  2  0  0  0  0
 33 24  1  0  0  0  0
 33 36  1  0  0  0  0
 34 33  2  0  0  0  0
 35 40  1  0  0  0  0
 36 37  1  0  0  0  0
 36 35  2  0  0  0  0
 37 38  2  0  0  0  0
 38 39  1  0  0  0  0
 39 43  1  0  0  0  0
 40 39  2  0  0  0  0
 41 35  1  0  0  0  0
 42 37  1  0  0  0  0
M  END
>  <minimizedAffinity>
-4.73993254

>  <minimizedRMSD>
0.12518236

$$$$
