
 OpenBabel03262522143D

 43 45  0  0  1  0  0  0  0  0999 V2000
   39.4760   32.9320   43.7840 C   0  0  0  0  0  0  0  0  0  0  0  0
   38.4320   32.7220   44.0590 H   0  0  0  0  0  0  0  0  0  0  0  0
   39.5570   33.7940   43.1120 H   0  0  0  0  0  0  0  0  0  0  0  0
   39.0000   29.6530   42.5050 C   0  0  1  0  0  0  0  0  0  0  0  0
   38.9160   31.1320   42.1580 C   0  0  0  0  0  0  0  0  0  0  0  0
   39.9920   31.7070   43.0460 C   0  0  2  0  0  0  0  0  0  0  0  0
   40.4250   30.7250   43.8940 O   0  0  0  0  0  0  0  0  0  0  0  0
   39.4470   29.7390   43.9560 C   0  0  0  0  0  0  0  0  0  0  0  0
   39.7760   29.1550   41.9040 H   0  0  0  0  0  0  0  0  0  0  0  0
   39.2270   31.2200   41.1170 H   0  0  0  0  0  0  0  0  0  0  0  0
   37.9330   31.5450   42.3890 H   0  0  0  0  0  0  0  0  0  0  0  0
   40.8640   32.0510   42.4520 H   0  0  0  0  0  0  0  0  0  0  0  0
   38.5940   30.0260   44.5750 H   0  0  0  0  0  0  0  0  0  0  0  0
   39.9010   28.7710   44.2730 H   0  0  0  0  0  0  0  0  0  0  0  0
   37.7750   29.0340   42.3840 O   0  0  0  0  0  0  0  0  0  0  0  0
   37.7000   28.0090   41.4840 C   0  0  0  0  0  2  0  0  0  0  0  0
   38.4040   26.8790   42.1110 N   0  0  0  0  0  4  0  0  0  0  0  0
   39.0060   27.3400   42.8530 H   0  0  0  0  0  0  0  0  0  0  0  0
   39.2330   26.1670   41.1880 C   0  0  0  0  0  2  0  0  0  0  0  0
   39.5900   26.8710   40.4100 H   0  0  0  0  0  0  0  0  0  0  0  0
   37.4730   26.0200   42.8270 C   0  0  0  0  0  2  0  0  0  0  0  0
   37.8700   25.7840   43.8550 H   0  0  0  0  0  0  0  0  0  0  0  0
   40.5760   33.1940   45.1990 S   0  0  0  0  0  0  0  0  0  0  0  0
   37.7880   31.7970   47.6540 C   0  0  0  0  0  0  0  0  0  0  0  0
   37.9640   32.5360   48.8350 C   0  0  0  0  0  0  0  0  0  0  0  0
   38.9490   33.4980   48.9270 C   0  0  0  0  0  0  0  0  0  0  0  0
   39.7310   33.6790   47.8070 C   0  0  0  0  0  0  0  0  0  0  0  0
   39.5380   32.9500   46.6790 C   0  0  0  0  0  0  0  0  0  0  0  0
   38.5770   32.0060   46.5760 N   0  0  0  0  0  0  0  0  0  0  0  0
   37.3200   32.3490   49.6780 H   0  0  0  0  0  0  0  0  0  0  0  0
   39.0920   34.0760   49.8400 H   0  0  0  0  0  0  0  0  0  0  0  0
   40.5110   34.4290   47.8580 H   0  0  0  0  0  0  0  0  0  0  0  0
   36.7330   30.8100   47.6400 C   0  0  0  0  0  0  0  0  0  0  0  0
   36.2700   30.3920   46.5750 O   0  0  0  0  0  0  0  0  0  0  0  0
   37.0370   29.6400   49.7910 C   0  0  0  0  0  0  0  0  0  0  0  0
   36.1570   30.2500   48.8690 C   0  0  0  0  0  0  0  0  0  0  0  0
   34.7980   30.2940   49.1690 C   0  0  0  0  0  0  0  0  0  0  0  0
   34.3550   29.7470   50.3390 N   0  0  0  0  0  0  0  0  0  0  0  0
   35.2270   29.1660   51.2050 C   0  0  0  0  0  0  0  0  0  0  0  0
   36.5430   29.1140   50.9330 N   0  0  0  0  0  0  0  0  0  0  0  0
   38.1100   29.5680   49.6270 H   0  0  0  0  0  0  0  0  0  0  0  0
   34.1890   30.7670   48.4340 H   0  0  0  0  0  0  0  0  0  0  0  0
   34.7040   28.7890   52.0710 H   0  0  0  0  0  0  0  0  0  0  0  0
  1  2  1  0  0  0  0
  1 23  1  0  0  0  0
  3  1  1  0  0  0  0
  4  9  1  6  0  0  0
  4  8  1  0  0  0  0
  5 11  1  0  0  0  0
  5  4  1  0  0  0  0
  5  6  1  0  0  0  0
  6 12  1  6  0  0  0
  6  1  1  0  0  0  0
  6  7  1  0  0  0  0
  7  8  1  0  0  0  0
  8 14  1  0  0  0  0
  8 13  1  0  0  0  0
 10  5  1  0  0  0  0
 15  4  1  0  0  0  0
 16 17  1  0  0  0  0
 16 15  1  0  0  0  0
 17 21  1  0  0  0  0
 17 18  1  0  0  0  0
 19 17  1  0  0  0  0
 20 19  1  0  0  0  0
 21 22  1  0  0  0  0
 23 28  1  0  0  0  0
 24 25  1  0  0  0  0
 25 26  2  0  0  0  0
 25 30  1  0  0  0  0
 26 31  1  0  0  0  0
 27 32  1  0  0  0  0
 27 26  1  0  0  0  0
 28 27  2  0  0  0  0
 29 28  1  0  0  0  0
 29 24  2  0  0  0  0
 33 24  1  0  0  0  0
 33 36  1  0  0  0  0
 34 33  2  0  0  0  0
 35 40  1  0  0  0  0
 36 37  1  0  0  0  0
 36 35  2  0  0  0  0
 37 38  2  0  0  0  0
 38 39  1  0  0  0  0
 39 43  1  0  0  0  0
 40 39  2  0  0  0  0
 41 35  1  0  0  0  0
 42 37  1  0  0  0  0
M  END
>  <minimizedAffinity>
-4.93551159

>  <minimizedRMSD>
0.326021731

$$$$
