
 OpenBabel03272500423D

 46 48  0  0  1  0  0  0  0  0999 V2000
   35.5370   30.4870   46.6870 C   0  0  1  0  0  0  0  0  0  0  0  0
   34.7070   29.5230   46.0620 C   0  0  0  0  0  0  0  0  0  0  0  0
   35.4100   29.1430   47.3250 C   0  0  2  0  0  0  0  0  0  0  0  0
   35.0980   31.3440   47.2760 H   0  0  0  0  0  0  0  0  0  0  0  0
   33.6440   29.5170   45.8970 H   0  0  0  0  0  0  0  0  0  0  0  0
   35.1950   29.0310   45.1610 H   0  0  0  0  0  0  0  0  0  0  0  0
   36.2770   28.4500   47.3170 H   0  0  0  0  0  0  0  0  0  0  0  0
   35.3610   28.5530   49.7220 C   0  0  2  0  0  0  0  0  0  0  0  0
   34.5790   28.9660   48.5640 C   0  0  1  0  0  0  0  0  0  0  0  0
   33.9540   30.2180   48.9590 C   0  0  0  0  0  0  0  0  0  0  0  0
   34.7280   30.8080   49.9740 O   0  0  0  0  0  0  0  0  0  0  0  0
   34.9490   29.7360   50.7620 C   0  0  0  0  0  0  0  0  0  0  0  0
   35.1290   27.6260   50.2400 H   0  0  0  0  0  0  0  0  0  0  0  0
   33.7960   28.2050   48.3220 H   0  0  0  0  0  0  0  0  0  0  0  0
   33.7410   31.0110   48.2760 H   0  0  0  0  0  0  0  0  0  0  0  0
   32.9800   29.9780   49.4790 H   0  0  0  0  0  0  0  0  0  0  0  0
   35.7310   29.7910   51.5140 H   0  0  0  0  0  0  0  0  0  0  0  0
   33.9910   29.3290   51.1550 H   0  0  0  0  0  0  0  0  0  0  0  0
   36.7100   28.8550   49.5850 O   0  0  0  0  0  0  0  0  0  0  0  0
   37.4210   29.0890   50.6280 C   0  0  0  0  0  0  0  0  0  0  0  0
   37.0830   29.9490   51.2400 H   0  0  0  0  0  0  0  0  0  0  0  0
   37.4180   28.2250   51.3500 H   0  0  0  0  0  0  0  0  0  0  0  0
   38.4890   29.2680   50.3870 H   0  0  0  0  0  0  0  0  0  0  0  0
   36.9470   30.7680   46.1910 C   0  0  0  0  0  0  0  0  0  0  0  0
   37.9420   30.9120   47.1400 C   0  0  0  0  0  0  0  0  0  0  0  0
   39.2050   31.1810   46.6670 C   0  0  0  0  0  0  0  0  0  0  0  0
   39.4140   31.2940   45.3180 N   0  0  0  0  0  0  0  0  0  0  0  0
   38.4200   31.1500   44.3970 C   0  0  0  0  0  0  0  0  0  0  0  0
   37.1730   30.8840   44.8580 N   0  0  0  0  0  0  0  0  0  0  0  0
   38.6860   31.2790   43.0110 N   0  0  0  0  0  0  0  0  0  0  0  0
   37.7810   30.8240   48.1980 H   0  0  0  0  0  0  0  0  0  0  0  0
   40.0770   31.3180   47.2810 H   0  0  0  0  0  0  0  0  0  0  0  0
   39.2980   32.0480   42.6720 H   0  0  0  0  0  0  0  0  0  0  0  0
   38.0210   30.1950   41.8650 S   0  0  0  0  0  0  0  0  0  0  0  0
   38.5390   30.4230   40.4800 O   0  0  0  0  0  0  0  0  0  0  0  0
   39.3220   31.0040   40.3040 H   0  0  0  0  0  0  0  0  0  0  0  0
   36.5340   30.4050   41.8240 O   0  0  0  0  0  0  0  0  0  0  0  0
   35.9260   29.7680   42.2720 H   0  0  0  0  0  0  0  0  0  0  0  0
   38.2700   28.5990   42.3120 O   0  0  0  0  0  0  0  0  0  0  0  0
   39.5700   28.3130   42.6580 C   0  0  0  0  0  2  0  0  0  0  0  0
   40.3940   28.5370   41.4620 N   0  0  0  0  0  4  0  0  0  0  0  0
   39.9410   29.2680   40.8690 H   0  0  0  0  0  0  0  0  0  0  0  0
   41.7210   28.9730   41.7670 C   0  0  0  0  0  2  0  0  0  0  0  0
   42.4350   28.1360   41.5460 H   0  0  0  0  0  0  0  0  0  0  0  0
   40.3710   27.3040   40.6940 C   0  0  0  0  0  2  0  0  0  0  0  0
   40.8780   26.4680   41.1940 H   0  0  0  0  0  0  0  0  0  0  0  0
  1  4  1  1  0  0  0
  1  3  1  0  0  0  0
  2  1  1  0  0  0  0
  2  3  1  0  0  0  0
  3  7  1  6  0  0  0
  3  9  1  0  0  0  0
  5  2  1  0  0  0  0
  6  2  1  0  0  0  0
  8 13  1  1  0  0  0
  8 12  1  0  0  0  0
  9 14  1  6  0  0  0
  9 10  1  0  0  0  0
  9  8  1  0  0  0  0
 10 16  1  0  0  0  0
 10 11  1  0  0  0  0
 11 12  1  0  0  0  0
 12 18  1  0  0  0  0
 12 17  1  0  0  0  0
 15 10  1  0  0  0  0
 19  8  1  0  0  0  0
 19 20  1  0  0  0  0
 20 21  1  0  0  0  0
 20 22  1  0  0  0  0
 23 20  1  0  0  0  0
 24  1  1  0  0  0  0
 24 25  1  0  0  0  0
 25 31  1  0  0  0  0
 26 25  2  0  0  0  0
 26 32  1  0  0  0  0
 27 26  1  0  0  0  0
 28 29  1  0  0  0  0
 28 27  2  0  0  0  0
 29 24  2  0  0  0  0
 30 28  1  0  0  0  0
 33 30  1  0  0  0  0
 34 39  1  0  0  0  0
 34 30  1  0  0  0  0
 35 34  1  0  0  0  0
 36 35  1  0  0  0  0
 37 34  1  0  0  0  0
 37 38  1  0  0  0  0
 39 40  1  0  0  0  0
 41 43  1  0  0  0  0
 41 40  1  0  0  0  0
 42 41  1  0  0  0  0
 44 43  1  0  0  0  0
 45 46  1  0  0  0  0
 45 41  1  0  0  0  0
M  END
>  <minimizedAffinity>
-3.83310771

>  <minimizedRMSD>
3.86624837

$$$$
