
 OpenBabel03262522143D

 43 45  0  0  1  0  0  0  0  0999 V2000
   39.5000   32.9390   43.7870 C   0  0  0  0  0  0  0  0  0  0  0  0
   38.4510   32.7490   44.0570 H   0  0  0  0  0  0  0  0  0  0  0  0
   39.6040   33.8150   43.1370 H   0  0  0  0  0  0  0  0  0  0  0  0
   38.9630   29.6820   42.4790 C   0  0  1  0  0  0  0  0  0  0  0  0
   38.8840   31.1660   42.1530 C   0  0  0  0  0  0  0  0  0  0  0  0
   39.9860   31.7190   43.0210 C   0  0  2  0  0  0  0  0  0  0  0  0
   40.4320   30.7230   43.8450 O   0  0  0  0  0  0  0  0  0  0  0  0
   39.4460   29.7450   43.9190 C   0  0  0  0  0  0  0  0  0  0  0  0
   39.7180   29.1850   41.8520 H   0  0  0  0  0  0  0  0  0  0  0  0
   39.1690   31.2650   41.1050 H   0  0  0  0  0  0  0  0  0  0  0  0
   37.9100   31.5850   42.4140 H   0  0  0  0  0  0  0  0  0  0  0  0
   40.8460   32.0630   42.4100 H   0  0  0  0  0  0  0  0  0  0  0  0
   38.6110   30.0310   44.5630 H   0  0  0  0  0  0  0  0  0  0  0  0
   39.8990   28.7680   44.2120 H   0  0  0  0  0  0  0  0  0  0  0  0
   37.7290   29.0750   42.3800 O   0  0  0  0  0  0  0  0  0  0  0  0
   37.7020   27.8530   41.7730 C   0  0  0  0  0  2  0  0  0  0  0  0
   36.3560   27.7280   41.1890 N   0  0  0  0  0  4  0  0  0  0  0  0
   35.7150   28.0620   41.9650 H   0  0  0  0  0  0  0  0  0  0  0  0
   36.0310   26.3810   40.8370 C   0  0  0  0  0  2  0  0  0  0  0  0
   36.5630   25.6930   41.5220 H   0  0  0  0  0  0  0  0  0  0  0  0
   36.1780   28.6680   40.0920 C   0  0  0  0  0  2  0  0  0  0  0  0
   35.1970   29.2110   40.1970 H   0  0  0  0  0  0  0  0  0  0  0  0
   40.6050   33.1400   45.2090 S   0  0  0  0  0  0  0  0  0  0  0  0
   37.7860   31.7870   47.6560 C   0  0  0  0  0  0  0  0  0  0  0  0
   37.9550   32.5390   48.8290 C   0  0  0  0  0  0  0  0  0  0  0  0
   38.9450   33.4960   48.9190 C   0  0  0  0  0  0  0  0  0  0  0  0
   39.7380   33.6600   47.8040 C   0  0  0  0  0  0  0  0  0  0  0  0
   39.5510   32.9180   46.6830 C   0  0  0  0  0  0  0  0  0  0  0  0
   38.5860   31.9790   46.5820 N   0  0  0  0  0  0  0  0  0  0  0  0
   37.3030   32.3660   49.6690 H   0  0  0  0  0  0  0  0  0  0  0  0
   39.0840   34.0840   49.8260 H   0  0  0  0  0  0  0  0  0  0  0  0
   40.5220   34.4060   47.8530 H   0  0  0  0  0  0  0  0  0  0  0  0
   36.7260   30.8050   47.6430 C   0  0  0  0  0  0  0  0  0  0  0  0
   36.2570   30.3930   46.5790 O   0  0  0  0  0  0  0  0  0  0  0  0
   37.0320   29.6390   49.7960 C   0  0  0  0  0  0  0  0  0  0  0  0
   36.1510   30.2470   48.8730 C   0  0  0  0  0  0  0  0  0  0  0  0
   34.7930   30.2890   49.1740 C   0  0  0  0  0  0  0  0  0  0  0  0
   34.3500   29.7430   50.3440 N   0  0  0  0  0  0  0  0  0  0  0  0
   35.2240   29.1640   51.2110 C   0  0  0  0  0  0  0  0  0  0  0  0
   36.5390   29.1150   50.9390 N   0  0  0  0  0  0  0  0  0  0  0  0
   38.1060   29.5690   49.6320 H   0  0  0  0  0  0  0  0  0  0  0  0
   34.1820   30.7600   48.4380 H   0  0  0  0  0  0  0  0  0  0  0  0
   34.7020   28.7880   52.0780 H   0  0  0  0  0  0  0  0  0  0  0  0
  1  2  1  0  0  0  0
  1 23  1  0  0  0  0
  3  1  1  0  0  0  0
  4  9  1  6  0  0  0
  4  8  1  0  0  0  0
  5 11  1  0  0  0  0
  5  4  1  0  0  0  0
  5  6  1  0  0  0  0
  6 12  1  6  0  0  0
  6  1  1  0  0  0  0
  6  7  1  0  0  0  0
  7  8  1  0  0  0  0
  8 14  1  0  0  0  0
  8 13  1  0  0  0  0
 10  5  1  0  0  0  0
 15  4  1  0  0  0  0
 16 15  1  0  0  0  0
 17 16  1  0  0  0  0
 17 18  1  0  0  0  0
 19 17  1  0  0  0  0
 19 20  1  0  0  0  0
 21 22  1  0  0  0  0
 21 17  1  0  0  0  0
 23 28  1  0  0  0  0
 24 25  1  0  0  0  0
 25 26  2  0  0  0  0
 25 30  1  0  0  0  0
 26 31  1  0  0  0  0
 27 32  1  0  0  0  0
 27 26  1  0  0  0  0
 28 27  2  0  0  0  0
 29 28  1  0  0  0  0
 29 24  2  0  0  0  0
 33 24  1  0  0  0  0
 33 36  1  0  0  0  0
 34 33  2  0  0  0  0
 35 40  1  0  0  0  0
 36 37  1  0  0  0  0
 36 35  2  0  0  0  0
 37 38  2  0  0  0  0
 38 39  1  0  0  0  0
 39 43  1  0  0  0  0
 40 39  2  0  0  0  0
 41 35  1  0  0  0  0
 42 37  1  0  0  0  0
M  END
>  <minimizedAffinity>
-4.77726507

>  <minimizedRMSD>
0.57563895

$$$$
