
 OpenBabel03262522143D

 43 45  0  0  1  0  0  0  0  0999 V2000
   39.3800   33.0940   43.9440 C   0  0  0  0  0  0  0  0  0  0  0  0
   38.3570   32.8010   44.2250 H   0  0  0  0  0  0  0  0  0  0  0  0
   39.3870   33.9480   43.2580 H   0  0  0  0  0  0  0  0  0  0  0  0
   39.2310   29.7240   42.8320 C   0  0  1  0  0  0  0  0  0  0  0  0
   38.9490   31.1650   42.4310 C   0  0  0  0  0  0  0  0  0  0  0  0
   39.9970   31.9040   43.2260 C   0  0  2  0  0  0  0  0  0  0  0  0
   40.5930   31.0220   44.0840 O   0  0  0  0  0  0  0  0  0  0  0  0
   39.7460   29.9320   44.2480 C   0  0  0  0  0  0  0  0  0  0  0  0
   40.0250   29.2940   42.2050 H   0  0  0  0  0  0  0  0  0  0  0  0
   39.1860   31.2390   41.3700 H   0  0  0  0  0  0  0  0  0  0  0  0
   37.9380   31.4690   42.7070 H   0  0  0  0  0  0  0  0  0  0  0  0
   40.7850   32.3200   42.5640 H   0  0  0  0  0  0  0  0  0  0  0  0
   38.9020   30.1450   44.9070 H   0  0  0  0  0  0  0  0  0  0  0  0
   40.3310   29.0400   44.5750 H   0  0  0  0  0  0  0  0  0  0  0  0
   38.0840   28.9600   42.8140 O   0  0  0  0  0  0  0  0  0  0  0  0
   38.0410   27.9550   41.8900 C   0  0  0  0  0  2  0  0  0  0  0  0
   39.2700   27.1720   42.0970 N   0  0  0  0  0  4  0  0  0  0  0  0
   39.9410   27.8700   42.5320 H   0  0  0  0  0  0  0  0  0  0  0  0
   39.8160   26.6710   40.8750 C   0  0  0  0  0  2  0  0  0  0  0  0
   39.5610   27.3710   40.0540 H   0  0  0  0  0  0  0  0  0  0  0  0
   39.0650   26.1390   43.1000 C   0  0  0  0  0  2  0  0  0  0  0  0
   39.9100   26.1420   43.8450 H   0  0  0  0  0  0  0  0  0  0  0  0
   40.4550   33.4720   45.3510 S   0  0  0  0  0  0  0  0  0  0  0  0
   37.7700   31.8560   47.7880 C   0  0  0  0  0  0  0  0  0  0  0  0
   37.9510   32.5360   49.0020 C   0  0  0  0  0  0  0  0  0  0  0  0
   38.9070   33.5220   49.1260 C   0  0  0  0  0  0  0  0  0  0  0  0
   39.6570   33.7890   48.0000 C   0  0  0  0  0  0  0  0  0  0  0  0
   39.4600   33.1150   46.8390 C   0  0  0  0  0  0  0  0  0  0  0  0
   38.5270   32.1480   46.7050 N   0  0  0  0  0  0  0  0  0  0  0  0
   37.3330   32.2830   49.8480 H   0  0  0  0  0  0  0  0  0  0  0  0
   39.0540   34.0550   50.0650 H   0  0  0  0  0  0  0  0  0  0  0  0
   40.4140   34.5600   48.0750 H   0  0  0  0  0  0  0  0  0  0  0  0
   36.7470   30.8370   47.7430 C   0  0  0  0  0  0  0  0  0  0  0  0
   36.3320   30.4020   46.6650 O   0  0  0  0  0  0  0  0  0  0  0  0
   37.0060   29.6250   49.8760 C   0  0  0  0  0  0  0  0  0  0  0  0
   36.1470   30.2640   48.9550 C   0  0  0  0  0  0  0  0  0  0  0  0
   34.7860   30.3230   49.2380 C   0  0  0  0  0  0  0  0  0  0  0  0
   34.3190   29.7620   50.3930 N   0  0  0  0  0  0  0  0  0  0  0  0
   35.1720   29.1530   51.2590 C   0  0  0  0  0  0  0  0  0  0  0  0
   36.4900   29.0870   51.0030 N   0  0  0  0  0  0  0  0  0  0  0  0
   38.0800   29.5400   49.7240 H   0  0  0  0  0  0  0  0  0  0  0  0
   34.1920   30.8180   48.5040 H   0  0  0  0  0  0  0  0  0  0  0  0
   34.6330   28.7690   52.1120 H   0  0  0  0  0  0  0  0  0  0  0  0
  1  2  1  0  0  0  0
  1 23  1  0  0  0  0
  3  1  1  0  0  0  0
  4  9  1  6  0  0  0
  4  8  1  0  0  0  0
  5 11  1  0  0  0  0
  5  4  1  0  0  0  0
  5  6  1  0  0  0  0
  6 12  1  6  0  0  0
  6  1  1  0  0  0  0
  6  7  1  0  0  0  0
  7  8  1  0  0  0  0
  8 14  1  0  0  0  0
  8 13  1  0  0  0  0
 10  5  1  0  0  0  0
 15  4  1  0  0  0  0
 16 17  1  0  0  0  0
 16 15  1  0  0  0  0
 17 18  1  0  0  0  0
 17 21  1  0  0  0  0
 19 17  1  0  0  0  0
 20 19  1  0  0  0  0
 21 22  1  0  0  0  0
 23 28  1  0  0  0  0
 24 25  1  0  0  0  0
 25 26  2  0  0  0  0
 25 30  1  0  0  0  0
 26 31  1  0  0  0  0
 27 32  1  0  0  0  0
 27 26  1  0  0  0  0
 28 27  2  0  0  0  0
 29 28  1  0  0  0  0
 29 24  2  0  0  0  0
 33 24  1  0  0  0  0
 33 36  1  0  0  0  0
 34 33  2  0  0  0  0
 35 40  1  0  0  0  0
 36 37  1  0  0  0  0
 36 35  2  0  0  0  0
 37 38  2  0  0  0  0
 38 39  1  0  0  0  0
 39 43  1  0  0  0  0
 40 39  2  0  0  0  0
 41 35  1  0  0  0  0
 42 37  1  0  0  0  0
M  END
>  <minimizedAffinity>
-5.06706238

>  <minimizedRMSD>
0.622332752

$$$$
