
 OpenBabel03262522143D

 43 45  0  0  1  0  0  0  0  0999 V2000
   39.3410   32.9920   43.7540 C   0  0  0  0  0  0  0  0  0  0  0  0
   38.3300   32.6840   44.0590 H   0  0  0  0  0  0  0  0  0  0  0  0
   39.3200   33.8540   43.0770 H   0  0  0  0  0  0  0  0  0  0  0  0
   39.2070   29.6310   42.6170 C   0  0  1  0  0  0  0  0  0  0  0  0
   38.8940   31.0710   42.2370 C   0  0  0  0  0  0  0  0  0  0  0  0
   39.9540   31.8180   43.0080 C   0  0  2  0  0  0  0  0  0  0  0  0
   40.5870   30.9370   43.8410 O   0  0  0  0  0  0  0  0  0  0  0  0
   39.7600   29.8340   44.0190 C   0  0  0  0  0  0  0  0  0  0  0  0
   39.9890   29.2170   41.9630 H   0  0  0  0  0  0  0  0  0  0  0  0
   39.1000   31.1570   41.1700 H   0  0  0  0  0  0  0  0  0  0  0  0
   37.8870   31.3580   42.5440 H   0  0  0  0  0  0  0  0  0  0  0  0
   40.7170   32.2500   42.3280 H   0  0  0  0  0  0  0  0  0  0  0  0
   38.9320   30.0290   44.7040 H   0  0  0  0  0  0  0  0  0  0  0  0
   40.3670   28.9480   44.3220 H   0  0  0  0  0  0  0  0  0  0  0  0
   38.0710   28.8510   42.6250 O   0  0  0  0  0  0  0  0  0  0  0  0
   38.0340   27.8260   41.7230 C   0  0  0  0  0  0  0  0  0  0  0  0
   39.2620   27.0500   41.9530 N   0  0  0  0  0  0  0  0  0  0  0  0
   39.9450   27.7670   42.3320 H   0  0  0  0  0  0  0  0  0  0  0  0
   39.7820   26.4720   40.7530 C   0  0  0  0  0  0  0  0  0  0  0  0
   39.5150   27.1230   39.8970 H   0  0  0  0  0  0  0  0  0  0  0  0
   39.0710   26.0790   43.0200 C   0  0  0  0  0  0  0  0  0  0  0  0
   39.9300   26.1210   43.7470 H   0  0  0  0  0  0  0  0  0  0  0  0
   40.4480   33.3700   45.1380 S   0  0  0  0  0  0  0  0  0  0  0  0
   37.7840   31.8210   47.6400 C   0  0  0  0  0  0  0  0  0  0  0  0
   37.9970   32.5100   48.8440 C   0  0  0  0  0  0  0  0  0  0  0  0
   38.9720   33.4820   48.9390 C   0  0  0  0  0  0  0  0  0  0  0  0
   39.7040   33.7260   47.7970 C   0  0  0  0  0  0  0  0  0  0  0  0
   39.4750   33.0440   46.6470 C   0  0  0  0  0  0  0  0  0  0  0  0
   38.5240   32.0900   46.5400 N   0  0  0  0  0  0  0  0  0  0  0  0
   37.3920   32.2760   49.7030 H   0  0  0  0  0  0  0  0  0  0  0  0
   39.1440   34.0220   49.8700 H   0  0  0  0  0  0  0  0  0  0  0  0
   40.4750   34.4850   47.8500 H   0  0  0  0  0  0  0  0  0  0  0  0
   36.7430   30.8190   47.6240 C   0  0  0  0  0  0  0  0  0  0  0  0
   36.2930   30.3890   46.5590 O   0  0  0  0  0  0  0  0  0  0  0  0
   37.0470   29.6390   49.7700 C   0  0  0  0  0  0  0  0  0  0  0  0
   36.1680   30.2570   48.8530 C   0  0  0  0  0  0  0  0  0  0  0  0
   34.8100   30.3070   49.1560 C   0  0  0  0  0  0  0  0  0  0  0  0
   34.3670   29.7580   50.3250 N   0  0  0  0  0  0  0  0  0  0  0  0
   35.2380   29.1690   51.1870 C   0  0  0  0  0  0  0  0  0  0  0  0
   36.5530   29.1110   50.9110 N   0  0  0  0  0  0  0  0  0  0  0  0
   38.1190   29.5620   49.6030 H   0  0  0  0  0  0  0  0  0  0  0  0
   34.2010   30.7860   48.4240 H   0  0  0  0  0  0  0  0  0  0  0  0
   34.7160   28.7910   52.0530 H   0  0  0  0  0  0  0  0  0  0  0  0
  1  2  1  0  0  0  0
  1 23  1  0  0  0  0
  3  1  1  0  0  0  0
  4  9  1  6  0  0  0
  4 15  1  0  0  0  0
  4  8  1  0  0  0  0
  5 11  1  0  0  0  0
  5  4  1  0  0  0  0
  5  6  1  0  0  0  0
  6 12  1  6  0  0  0
  6  1  1  0  0  0  0
  6  7  1  0  0  0  0
  7  8  1  0  0  0  0
  8 14  1  0  0  0  0
  8 13  1  0  0  0  0
 10  5  1  0  0  0  0
 16 17  1  0  0  0  0
 16 15  1  0  0  0  0
 17 18  1  0  0  0  0
 17 21  1  0  0  0  0
 19 17  1  0  0  0  0
 20 19  1  0  0  0  0
 21 22  1  0  0  0  0
 23 28  1  0  0  0  0
 24 25  1  0  0  0  0
 25 26  2  0  0  0  0
 25 30  1  0  0  0  0
 26 31  1  0  0  0  0
 27 32  1  0  0  0  0
 27 26  1  0  0  0  0
 28 27  2  0  0  0  0
 29 28  1  0  0  0  0
 29 24  2  0  0  0  0
 33 24  1  0  0  0  0
 33 36  1  0  0  0  0
 34 33  2  0  0  0  0
 35 40  1  0  0  0  0
 36 37  1  0  0  0  0
 36 35  2  0  0  0  0
 37 38  2  0  0  0  0
 38 39  1  0  0  0  0
 39 43  1  0  0  0  0
 40 39  2  0  0  0  0
 41 35  1  0  0  0  0
 42 37  1  0  0  0  0
M  END
>  <minimizedAffinity>
-5.07133436

>  <minimizedRMSD>
0.49637264

$$$$
