
 OpenBabel03272505023D

 27 28  0  0  0  0  0  0  0  0999 V2000
   38.5160   30.5940   46.8070 Cl  0  0  0  0  0  0  0  0  0  0  0  0
   38.8960   32.0600   47.7010 C   0  0  0  0  0  0  0  0  0  0  0  0
   38.3590   32.2450   48.9440 C   0  0  0  0  0  0  0  0  0  0  0  0
   38.6990   33.4150   49.5860 C   0  0  0  0  0  0  0  0  0  0  0  0
   39.5440   34.3230   48.9560 C   0  0  0  0  0  0  0  0  0  0  0  0
   40.0590   34.1080   47.7230 C   0  0  0  0  0  0  0  0  0  0  0  0
   39.7300   32.9510   47.0740 C   0  0  0  0  0  0  0  0  0  0  0  0
   38.3310   33.6650   50.5720 H   0  0  0  0  0  0  0  0  0  0  0  0
   39.8110   35.2510   49.4700 H   0  0  0  0  0  0  0  0  0  0  0  0
   40.7200   34.8570   47.2720 H   0  0  0  0  0  0  0  0  0  0  0  0
   37.9200   30.4670   50.6440 C   0  0  0  0  0  0  0  0  0  0  0  0
   37.4710   31.2800   49.5900 C   0  0  0  0  0  0  0  0  0  0  0  0
   36.1580   31.1290   49.1900 C   0  0  0  0  0  0  0  0  0  0  0  0
   35.3850   30.2180   49.8280 N   0  0  0  0  0  0  0  0  0  0  0  0
   35.8390   29.4570   50.8280 C   0  0  0  0  0  0  0  0  0  0  0  0
   37.1230   29.5750   51.2520 N   0  0  0  0  0  0  0  0  0  0  0  0
   38.9470   30.5990   50.9420 H   0  0  0  0  0  0  0  0  0  0  0  0
   35.8020   31.7500   48.3780 H   0  0  0  0  0  0  0  0  0  0  0  0
   35.1610   28.7490   51.2910 H   0  0  0  0  0  0  0  0  0  0  0  0
   40.2600   32.7270   45.7990 O   0  0  0  0  0  0  0  0  0  0  0  0
   39.8270   33.3880   44.6550 C   0  0  0  0  0  0  0  0  0  0  0  0
   39.3630   32.3750   43.7210 N   0  0  0  0  0  0  0  0  0  0  0  0
   38.4480   31.9780   43.9800 H   0  0  0  0  0  0  0  0  0  0  0  0
   39.2280   32.9490   42.4000 C   0  0  0  0  0  0  0  0  0  0  0  0
   40.2170   33.0550   41.9300 H   0  0  0  0  0  0  0  0  0  0  0  0
   40.3370   31.3060   43.7180 C   0  0  0  0  0  0  0  0  0  0  0  0
   41.2900   31.7290   43.3130 H   0  0  0  0  0  0  0  0  0  0  0  0
  1  2  1  0  0  0  0
  2  3  1  0  0  0  0
  3  4  2  0  0  0  0
  3 12  1  0  0  0  0
  4  8  1  0  0  0  0
  5  9  1  0  0  0  0
  5  4  1  0  0  0  0
  6  5  2  0  0  0  0
  7  2  2  0  0  0  0
  7  6  1  0  0  0  0
 10  6  1  0  0  0  0
 11 17  1  0  0  0  0
 11 16  1  0  0  0  0
 12 11  2  0  0  0  0
 13 12  1  0  0  0  0
 13 14  2  0  0  0  0
 14 15  1  0  0  0  0
 15 16  2  0  0  0  0
 15 19  1  0  0  0  0
 18 13  1  0  0  0  0
 20  7  1  0  0  0  0
 21 20  1  0  0  0  0
 22 23  1  0  0  0  0
 22 21  1  0  0  0  0
 24 22  1  0  0  0  0
 25 24  1  0  0  0  0
 26 22  1  0  0  0  0
 27 26  1  0  0  0  0
M  END
>  <minimizedAffinity>
-5.72582388

>  <minimizedRMSD>
1.16872871

$$$$
