
 OpenBabel03272504433D

 43 44  0  0  0  0  0  0  0  0999 V2000
   37.4560   27.7680   33.1150 C   0  0  0  0  0  0  0  0  0  0  0  0
   38.0310   28.0960   32.2050 H   0  0  0  0  0  0  0  0  0  0  0  0
   37.9990   28.2440   33.9580 H   0  0  0  0  0  0  0  0  0  0  0  0
   39.1050   26.7970   35.3960 Cl  0  0  0  0  0  0  0  0  0  0  0  0
   38.3190   25.7310   34.2160 C   0  0  0  0  0  0  0  0  0  0  0  0
   38.4620   24.3940   34.3430 C   0  0  0  0  0  0  0  0  0  0  0  0
   37.8560   23.5550   33.4370 C   0  0  0  0  0  0  0  0  0  0  0  0
   37.1110   24.1160   32.4110 C   0  0  0  0  0  0  0  0  0  0  0  0
   37.0070   25.5120   32.3400 C   0  0  0  0  0  0  0  0  0  0  0  0
   37.5940   26.3440   33.2240 C   0  0  0  0  0  0  0  0  0  0  0  0
   37.9850   22.4730   33.5600 H   0  0  0  0  0  0  0  0  0  0  0  0
   36.6780   23.3750   31.7560 H   0  0  0  0  0  0  0  0  0  0  0  0
   36.4050   25.7120   31.4890 H   0  0  0  0  0  0  0  0  0  0  0  0
   41.2820   23.0030   36.2690 C   0  0  0  0  0  0  0  0  0  0  0  0
   40.6300   22.7240   37.5270 C   0  0  0  0  0  0  0  0  0  0  0  0
   39.2620   23.0270   37.6490 C   0  0  0  0  0  0  0  0  0  0  0  0
   38.6140   23.5650   36.5840 N   0  0  0  0  0  0  0  0  0  0  0  0
   39.2540   23.8150   35.4170 C   0  0  0  0  0  0  0  0  0  0  0  0
   40.5610   23.5360   35.2750 N   0  0  0  0  0  0  0  0  0  0  0  0
   42.3290   22.7690   36.1830 H   0  0  0  0  0  0  0  0  0  0  0  0
   41.2620   22.2950   38.2920 H   0  0  0  0  0  0  0  0  0  0  0  0
   38.6830   22.7410   38.8820 N   0  0  0  0  0  0  0  0  0  0  0  0
   37.7930   22.2830   39.1490 H   0  0  0  0  0  0  0  0  0  0  0  0
   39.1690   23.0050   39.7770 H   0  0  0  0  0  0  0  0  0  0  0  0
   36.1110   28.3680   33.0640 C   0  0  0  0  0  0  0  0  0  0  0  0
   35.3590   27.7430   32.5290 H   0  0  0  0  0  0  0  0  0  0  0  0
   36.1690   29.3110   32.4560 H   0  0  0  0  0  0  0  0  0  0  0  0
   35.6390   28.6540   34.3180 O   0  0  0  0  0  0  0  0  0  0  0  0
   33.4140   29.7110   35.2480 O   0  0  0  0  0  0  0  0  0  0  0  0
   34.5310   29.8990   34.2630 P   0  0  2  0  0  0  0  0  0  0  0  0
   33.8930   29.9110   32.6570 O   0  0  0  0  0  0  0  0  0  0  0  0
   32.5440   29.5790   32.7610 C   0  0  0  0  0  2  0  0  0  0  0  0
   31.6770   30.4920   32.0780 N   0  0  0  0  0  4  0  0  0  0  0  0
   30.9700   30.0180   31.4740 H   0  0  0  0  0  0  0  0  0  0  0  0
   30.9500   31.3600   32.9820 C   0  0  0  0  0  2  0  0  0  0  0  0
   31.5680   32.2310   33.2900 H   0  0  0  0  0  0  0  0  0  0  0  0
   32.4850   31.3360   31.2180 C   0  0  0  0  0  2  0  0  0  0  0  0
   33.5590   31.2220   31.4610 H   0  0  0  0  0  0  0  0  0  0  0  0
   35.2260   31.3880   34.4970 O   0  0  0  0  0  0  0  0  0  0  0  0
   35.9370   31.4200   35.6800 C   0  0  0  0  0  0  0  0  0  0  0  0
   35.1140   31.5350   36.7990 F   0  0  0  0  0  0  0  0  0  0  0  0
   36.6700   30.2590   35.8600 F   0  0  0  0  0  0  0  0  0  0  0  0
   36.8050   32.5070   35.6840 F   0  0  0  0  0  0  0  0  0  0  0  0
  1 10  1  0  0  0  0
  1  3  1  0  0  0  0
  2  1  1  0  0  0  0
  5  6  1  0  0  0  0
  5  4  1  0  0  0  0
  6 18  1  0  0  0  0
  7 11  1  0  0  0  0
  7  6  2  0  0  0  0
  8  7  1  0  0  0  0
  9  8  2  0  0  0  0
  9 10  1  0  0  0  0
 10  5  2  0  0  0  0
 12  8  1  0  0  0  0
 13  9  1  0  0  0  0
 14 15  1  0  0  0  0
 15 16  2  0  0  0  0
 15 21  1  0  0  0  0
 16 22  1  0  0  0  0
 17 16  1  0  0  0  0
 18 17  2  0  0  0  0
 19 18  1  0  0  0  0
 19 14  2  0  0  0  0
 20 14  1  0  0  0  0
 22 23  1  0  0  0  0
 22 24  1  0  0  0  0
 25  1  1  0  0  0  0
 25 28  1  0  0  0  0
 26 25  1  0  0  0  0
 27 25  1  0  0  0  0
 30 28  1  0  0  0  0
 30 39  1  0  0  0  0
 30 29  2  1  0  0  0
 31 32  1  0  0  0  0
 31 30  1  0  0  0  0
 33 32  1  0  0  0  0
 33 35  1  0  0  0  0
 34 33  1  0  0  0  0
 35 36  1  0  0  0  0
 37 38  1  0  0  0  0
 37 33  1  0  0  0  0
 39 40  1  0  0  0  0
 40 43  1  0  0  0  0
 40 42  1  0  0  0  0
 40 41  1  0  0  0  0
M  END
>  <minimizedAffinity>
-5.79587603

$$$$

 OpenBabel03272504433D

 43 44  0  0  0  0  0  0  0  0999 V2000
   37.1410   27.9650   33.5180 C   0  0  0  0  0  0  0  0  0  0  0  0
   37.4000   28.3800   32.5050 H   0  0  0  0  0  0  0  0  0  0  0  0
   37.8810   28.4380   34.1960 H   0  0  0  0  0  0  0  0  0  0  0  0
   38.8250   26.8860   35.7230 Cl  0  0  0  0  0  0  0  0  0  0  0  0
   38.1400   25.8940   34.4230 C   0  0  0  0  0  0  0  0  0  0  0  0
   38.3830   24.5660   34.4150 C   0  0  0  0  0  0  0  0  0  0  0  0
   37.8570   23.7820   33.4140 C   0  0  0  0  0  0  0  0  0  0  0  0
   37.0860   24.3910   32.4340 C   0  0  0  0  0  0  0  0  0  0  0  0
   36.8770   25.7750   32.5050 C   0  0  0  0  0  0  0  0  0  0  0  0
   37.3860   26.5510   33.4830 C   0  0  0  0  0  0  0  0  0  0  0  0
   38.0660   22.7070   33.4280 H   0  0  0  0  0  0  0  0  0  0  0  0
   36.7210   23.6920   31.6960 H   0  0  0  0  0  0  0  0  0  0  0  0
   36.2740   26.0180   31.6650 H   0  0  0  0  0  0  0  0  0  0  0  0
   41.2500   23.0940   36.2070 C   0  0  0  0  0  0  0  0  0  0  0  0
   40.6280   22.7510   37.4640 C   0  0  0  0  0  0  0  0  0  0  0  0
   39.2620   23.0410   37.6310 C   0  0  0  0  0  0  0  0  0  0  0  0
   38.5880   23.6280   36.6090 N   0  0  0  0  0  0  0  0  0  0  0  0
   39.2010   23.9380   35.4410 C   0  0  0  0  0  0  0  0  0  0  0  0
   40.5050   23.6720   35.2570 N   0  0  0  0  0  0  0  0  0  0  0  0
   42.2960   22.8700   36.0860 H   0  0  0  0  0  0  0  0  0  0  0  0
   41.2780   22.2880   38.1920 H   0  0  0  0  0  0  0  0  0  0  0  0
   38.7110   22.6920   38.8610 N   0  0  0  0  0  0  0  0  0  0  0  0
   37.8290   22.2180   39.1250 H   0  0  0  0  0  0  0  0  0  0  0  0
   39.2160   22.9140   39.7570 H   0  0  0  0  0  0  0  0  0  0  0  0
   35.8090   28.4650   33.9040 C   0  0  0  0  0  0  0  0  0  0  0  0
   35.1950   27.7240   34.4670 H   0  0  0  0  0  0  0  0  0  0  0  0
   35.2200   28.6560   32.9680 H   0  0  0  0  0  0  0  0  0  0  0  0
   35.8980   29.6180   34.6400 O   0  0  0  0  0  0  0  0  0  0  0  0
   33.3570   29.9350   35.2550 O   0  0  0  0  0  0  0  0  0  0  0  0
   34.5070   30.5230   34.4870 P   0  0  2  0  0  0  0  0  0  0  0  0
   34.1260   30.5510   32.8020 O   0  0  0  0  0  0  0  0  0  0  0  0
   34.7370   31.6850   32.2720 C   0  0  0  0  0  2  0  0  0  0  0  0
   36.1650   31.5930   32.2250 N   0  0  0  0  0  4  0  0  0  0  0  0
   36.5790   31.1390   33.0690 H   0  0  0  0  0  0  0  0  0  0  0  0
   36.6440   30.8590   31.0710 C   0  0  0  0  0  2  0  0  0  0  0  0
   36.6900   31.5100   30.1700 H   0  0  0  0  0  0  0  0  0  0  0  0
   36.7090   32.9360   32.1460 C   0  0  0  0  0  2  0  0  0  0  0  0
   35.9080   33.6660   31.9220 H   0  0  0  0  0  0  0  0  0  0  0  0
   34.7170   32.1070   34.9410 O   0  0  0  0  0  0  0  0  0  0  0  0
   35.4560   32.1930   36.1030 C   0  0  0  0  0  0  0  0  0  0  0  0
   36.6920   31.5540   36.0020 F   0  0  0  0  0  0  0  0  0  0  0  0
   35.7310   33.5090   36.4310 F   0  0  0  0  0  0  0  0  0  0  0  0
   34.7630   31.6000   37.1530 F   0  0  0  0  0  0  0  0  0  0  0  0
  1 25  1  0  0  0  0
  1  3  1  0  0  0  0
  2  1  1  0  0  0  0
  5  4  1  0  0  0  0
  6  5  1  0  0  0  0
  6 18  1  0  0  0  0
  7 11  1  0  0  0  0
  7  6  2  0  0  0  0
  8  9  2  0  0  0  0
  8  7  1  0  0  0  0
  9 10  1  0  0  0  0
 10  1  1  0  0  0  0
 10  5  2  0  0  0  0
 12  8  1  0  0  0  0
 13  9  1  0  0  0  0
 14 15  1  0  0  0  0
 15 16  2  0  0  0  0
 15 21  1  0  0  0  0
 16 22  1  0  0  0  0
 17 16  1  0  0  0  0
 18 17  2  0  0  0  0
 19 18  1  0  0  0  0
 19 14  2  0  0  0  0
 20 14  1  0  0  0  0
 22 23  1  0  0  0  0
 22 24  1  0  0  0  0
 25 26  1  0  0  0  0
 25 28  1  0  0  0  0
 27 25  1  0  0  0  0
 30 28  1  0  0  0  0
 30 39  1  0  0  0  0
 30 29  2  1  0  0  0
 31 30  1  0  0  0  0
 32 31  1  0  0  0  0
 33 32  1  0  0  0  0
 33 34  1  0  0  0  0
 35 33  1  0  0  0  0
 36 35  1  0  0  0  0
 37 33  1  0  0  0  0
 38 37  1  0  0  0  0
 39 40  1  0  0  0  0
 40 42  1  0  0  0  0
 40 43  1  0  0  0  0
 41 40  1  0  0  0  0
M  END
>  <minimizedAffinity>
-5.45960665

$$$$

 OpenBabel03272504433D

 43 44  0  0  0  0  0  0  0  0999 V2000
   36.5100   28.6800   33.2710 C   0  0  0  0  0  0  0  0  0  0  0  0
   37.0340   29.2350   32.4440 H   0  0  0  0  0  0  0  0  0  0  0  0
   37.0110   29.0410   34.1920 H   0  0  0  0  0  0  0  0  0  0  0  0
   38.0550   27.4080   35.4750 Cl  0  0  0  0  0  0  0  0  0  0  0  0
   37.4990   26.5450   34.0280 C   0  0  0  0  0  0  0  0  0  0  0  0
   37.7800   25.2310   33.9000 C   0  0  0  0  0  0  0  0  0  0  0  0
   37.3540   24.5490   32.7840 C   0  0  0  0  0  0  0  0  0  0  0  0
   36.6420   25.2420   31.8160 C   0  0  0  0  0  0  0  0  0  0  0  0
   36.3870   26.6060   32.0160 C   0  0  0  0  0  0  0  0  0  0  0  0
   36.7980   27.2840   33.1060 C   0  0  0  0  0  0  0  0  0  0  0  0
   37.5930   23.4820   32.7010 H   0  0  0  0  0  0  0  0  0  0  0  0
   36.3530   24.6180   30.9830 H   0  0  0  0  0  0  0  0  0  0  0  0
   35.8420   26.9240   31.1620 H   0  0  0  0  0  0  0  0  0  0  0  0
   40.5510   23.6560   35.7540 C   0  0  0  0  0  0  0  0  0  0  0  0
   39.8420   23.1470   36.9050 C   0  0  0  0  0  0  0  0  0  0  0  0
   38.4560   23.3700   36.9850 C   0  0  0  0  0  0  0  0  0  0  0  0
   37.8440   24.0500   35.9810 N   0  0  0  0  0  0  0  0  0  0  0  0
   38.5380   24.5150   34.9140 C   0  0  0  0  0  0  0  0  0  0  0  0
   39.8630   24.3160   34.8150 N   0  0  0  0  0  0  0  0  0  0  0  0
   41.6120   23.4820   35.7000 H   0  0  0  0  0  0  0  0  0  0  0  0
   40.4500   22.6240   37.6290 H   0  0  0  0  0  0  0  0  0  0  0  0
   37.8210   22.8620   38.1140 N   0  0  0  0  0  0  0  0  0  0  0  0
   36.9420   22.3310   38.2450 H   0  0  0  0  0  0  0  0  0  0  0  0
   38.2410   22.9940   39.0710 H   0  0  0  0  0  0  0  0  0  0  0  0
   35.1090   29.1330   33.3260 C   0  0  0  0  0  0  0  0  0  0  0  0
   34.4020   28.4870   32.7550 H   0  0  0  0  0  0  0  0  0  0  0  0
   35.0410   30.1330   32.8180 H   0  0  0  0  0  0  0  0  0  0  0  0
   34.6650   29.2400   34.6190 O   0  0  0  0  0  0  0  0  0  0  0  0
   33.3080   30.8240   36.2260 O   0  0  0  0  0  0  0  0  0  0  0  0
   33.9840   30.7370   34.8880 P   0  0  2  0  0  0  0  0  0  0  0  0
   32.8190   30.9750   33.6330 O   0  0  0  0  0  0  0  0  0  0  0  0
   31.5910   30.5600   34.1440 C   0  0  0  0  0  2  0  0  0  0  0  0
   31.5450   29.1620   34.4530 N   0  0  0  0  0  4  0  0  0  0  0  0
   32.4090   28.8140   34.9260 H   0  0  0  0  0  0  0  0  0  0  0  0
   30.4250   28.8100   35.3010 C   0  0  0  0  0  2  0  0  0  0  0  0
   29.4960   28.6750   34.7070 H   0  0  0  0  0  0  0  0  0  0  0  0
   31.4040   28.4230   33.2120 C   0  0  0  0  0  2  0  0  0  0  0  0
   31.1480   29.1060   32.3800 H   0  0  0  0  0  0  0  0  0  0  0  0
   35.0790   31.9770   34.7440 O   0  0  0  0  0  0  0  0  0  0  0  0
   35.9850   31.9570   35.7850 C   0  0  0  0  0  0  0  0  0  0  0  0
   35.4130   32.3300   37.0010 F   0  0  0  0  0  0  0  0  0  0  0  0
   36.5050   30.6890   35.9780 F   0  0  0  0  0  0  0  0  0  0  0  0
   37.0290   32.8390   35.5240 F   0  0  0  0  0  0  0  0  0  0  0  0
  1 25  1  0  0  0  0
  1  3  1  0  0  0  0
  2  1  1  0  0  0  0
  5  4  1  0  0  0  0
  6  5  1  0  0  0  0
  6 18  1  0  0  0  0
  7  6  2  0  0  0  0
  8  9  2  0  0  0  0
  8  7  1  0  0  0  0
  9 10  1  0  0  0  0
 10  1  1  0  0  0  0
 10  5  2  0  0  0  0
 11  7  1  0  0  0  0
 12  8  1  0  0  0  0
 13  9  1  0  0  0  0
 14 15  1  0  0  0  0
 15 16  2  0  0  0  0
 15 21  1  0  0  0  0
 16 22  1  0  0  0  0
 17 16  1  0  0  0  0
 18 17  2  0  0  0  0
 19 18  1  0  0  0  0
 19 14  2  0  0  0  0
 20 14  1  0  0  0  0
 22 23  1  0  0  0  0
 22 24  1  0  0  0  0
 25 28  1  0  0  0  0
 26 25  1  0  0  0  0
 27 25  1  0  0  0  0
 28 30  1  0  0  0  0
 30 29  2  1  0  0  0
 31 32  1  0  0  0  0
 31 30  1  0  0  0  0
 32 33  1  0  0  0  0
 33 34  1  0  0  0  0
 33 35  1  0  0  0  0
 36 35  1  0  0  0  0
 37 33  1  0  0  0  0
 38 37  1  0  0  0  0
 39 30  1  0  0  0  0
 39 40  1  0  0  0  0
 40 42  1  0  0  0  0
 40 41  1  0  0  0  0
 43 40  1  0  0  0  0
M  END
>  <minimizedAffinity>
-5.41667318

$$$$

 OpenBabel03272504433D

 43 44  0  0  0  0  0  0  0  0999 V2000
   36.6540   28.4000   34.1890 C   0  0  0  0  0  0  0  0  0  0  0  0
   37.5620   29.0480   34.0380 H   0  0  0  0  0  0  0  0  0  0  0  0
   36.4410   28.4900   35.2730 H   0  0  0  0  0  0  0  0  0  0  0  0
   38.3150   27.0610   36.2650 Cl  0  0  0  0  0  0  0  0  0  0  0  0
   37.8000   26.2850   34.7560 C   0  0  0  0  0  0  0  0  0  0  0  0
   38.1700   25.0100   34.5160 C   0  0  0  0  0  0  0  0  0  0  0  0
   37.7770   24.3940   33.3500 C   0  0  0  0  0  0  0  0  0  0  0  0
   37.0050   25.1130   32.4500 C   0  0  0  0  0  0  0  0  0  0  0  0
   36.6580   26.4340   32.7650 C   0  0  0  0  0  0  0  0  0  0  0  0
   37.0370   27.0460   33.9050 C   0  0  0  0  0  0  0  0  0  0  0  0
   38.0890   23.3570   33.1760 H   0  0  0  0  0  0  0  0  0  0  0  0
   36.7490   24.5420   31.5700 H   0  0  0  0  0  0  0  0  0  0  0  0
   36.0810   26.7830   31.9460 H   0  0  0  0  0  0  0  0  0  0  0  0
   41.0300   23.3070   36.1030 C   0  0  0  0  0  0  0  0  0  0  0  0
   40.4200   22.8570   37.3330 C   0  0  0  0  0  0  0  0  0  0  0  0
   39.0640   23.1590   37.5520 C   0  0  0  0  0  0  0  0  0  0  0  0
   38.3880   23.8580   36.6040 N   0  0  0  0  0  0  0  0  0  0  0  0
   38.9900   24.2670   35.4600 C   0  0  0  0  0  0  0  0  0  0  0  0
   40.2840   23.9910   35.2270 N   0  0  0  0  0  0  0  0  0  0  0  0
   42.0680   23.0720   35.9420 H   0  0  0  0  0  0  0  0  0  0  0  0
   41.0710   22.3110   38.0000 H   0  0  0  0  0  0  0  0  0  0  0  0
   38.5250   22.7050   38.7520 N   0  0  0  0  0  0  0  0  0  0  0  0
   37.6370   22.2270   38.9840 H   0  0  0  0  0  0  0  0  0  0  0  0
   39.0500   22.8270   39.6560 H   0  0  0  0  0  0  0  0  0  0  0  0
   35.5210   29.0040   33.4660 C   0  0  0  0  0  0  0  0  0  0  0  0
   35.2790   28.4980   32.5030 H   0  0  0  0  0  0  0  0  0  0  0  0
   35.8100   30.0470   33.1650 H   0  0  0  0  0  0  0  0  0  0  0  0
   34.3920   29.0420   34.2420 O   0  0  0  0  0  0  0  0  0  0  0  0
   32.8230   29.8060   32.2700 O   0  0  0  0  0  0  0  0  0  0  0  0
   33.3050   30.1580   33.6490 P   0  0  2  0  0  0  0  0  0  0  0  0
   34.1360   31.6720   33.6040 O   0  0  0  0  0  0  0  0  0  0  0  0
   33.9400   32.2730   34.8450 C   0  0  0  0  0  2  0  0  0  0  0  0
   34.5030   31.5300   35.9330 N   0  0  0  0  0  4  0  0  0  0  0  0
   34.3270   30.5030   35.8680 H   0  0  0  0  0  0  0  0  0  0  0  0
   35.9360   31.7080   36.0530 C   0  0  0  0  0  2  0  0  0  0  0  0
   36.1820   32.6400   36.6070 H   0  0  0  0  0  0  0  0  0  0  0  0
   33.9000   31.9950   37.1680 C   0  0  0  0  0  2  0  0  0  0  0  0
   33.3370   32.9330   36.9950 H   0  0  0  0  0  0  0  0  0  0  0  0
   31.9970   30.3770   34.6480 O   0  0  0  0  0  0  0  0  0  0  0  0
   31.5250   29.1670   35.1150 C   0  0  0  0  0  0  0  0  0  0  0  0
   30.2540   29.2680   35.6790 F   0  0  0  0  0  0  0  0  0  0  0  0
   31.4190   28.2380   34.0950 F   0  0  0  0  0  0  0  0  0  0  0  0
   32.3800   28.6690   36.0930 F   0  0  0  0  0  0  0  0  0  0  0  0
  1  3  1  0  0  0  0
  2  1  1  0  0  0  0
  5  4  1  0  0  0  0
  6  5  1  0  0  0  0
  6 18  1  0  0  0  0
  7  6  2  0  0  0  0
  8  9  2  0  0  0  0
  8  7  1  0  0  0  0
  9 10  1  0  0  0  0
 10  1  1  0  0  0  0
 10  5  2  0  0  0  0
 11  7  1  0  0  0  0
 12  8  1  0  0  0  0
 13  9  1  0  0  0  0
 14 15  1  0  0  0  0
 15 16  2  0  0  0  0
 15 21  1  0  0  0  0
 16 22  1  0  0  0  0
 17 16  1  0  0  0  0
 18 17  2  0  0  0  0
 19 18  1  0  0  0  0
 19 14  2  0  0  0  0
 20 14  1  0  0  0  0
 22 23  1  0  0  0  0
 22 24  1  0  0  0  0
 25  1  1  0  0  0  0
 25 28  1  0  0  0  0
 26 25  1  0  0  0  0
 27 25  1  0  0  0  0
 30 29  2  6  0  0  0
 30 28  1  0  0  0  0
 30 39  1  0  0  0  0
 31 30  1  0  0  0  0
 31 32  1  0  0  0  0
 32 33  1  0  0  0  0
 33 35  1  0  0  0  0
 33 37  1  0  0  0  0
 34 33  1  0  0  0  0
 35 36  1  0  0  0  0
 38 37  1  0  0  0  0
 39 40  1  0  0  0  0
 40 41  1  0  0  0  0
 40 43  1  0  0  0  0
 42 40  1  0  0  0  0
M  END
>  <minimizedAffinity>
-5.38803434

$$$$

 OpenBabel03272504433D

 43 44  0  0  0  0  0  0  0  0999 V2000
   35.5220   29.8380   31.8180 C   0  0  0  0  0  0  0  0  0  0  0  0
   35.8020   30.7670   31.2480 H   0  0  0  0  0  0  0  0  0  0  0  0
   34.6560   29.4320   31.2560 H   0  0  0  0  0  0  0  0  0  0  0  0
   32.9540   28.6460   32.7410 Cl  0  0  0  0  0  0  0  0  0  0  0  0
   33.9160   29.7920   33.6950 C   0  0  0  0  0  0  0  0  0  0  0  0
   33.4750   30.1560   34.9180 C   0  0  0  0  0  0  0  0  0  0  0  0
   34.2110   31.0420   35.6710 C   0  0  0  0  0  0  0  0  0  0  0  0
   35.3940   31.5370   35.1420 C   0  0  0  0  0  0  0  0  0  0  0  0
   35.7880   31.1150   33.8650 C   0  0  0  0  0  0  0  0  0  0  0  0
   35.0760   30.2460   33.1190 C   0  0  0  0  0  0  0  0  0  0  0  0
   33.8350   31.3240   36.6610 H   0  0  0  0  0  0  0  0  0  0  0  0
   35.8950   32.2230   35.8090 H   0  0  0  0  0  0  0  0  0  0  0  0
   36.7020   31.6170   33.6660 H   0  0  0  0  0  0  0  0  0  0  0  0
   29.9560   29.8840   35.9850 C   0  0  0  0  0  0  0  0  0  0  0  0
   29.9440   28.5400   36.5130 C   0  0  0  0  0  0  0  0  0  0  0  0
   31.1390   27.8000   36.4760 C   0  0  0  0  0  0  0  0  0  0  0  0
   32.2490   28.3760   35.9490 N   0  0  0  0  0  0  0  0  0  0  0  0
   32.2290   29.6400   35.4600 C   0  0  0  0  0  0  0  0  0  0  0  0
   31.0990   30.3680   35.4840 N   0  0  0  0  0  0  0  0  0  0  0  0
   29.0380   30.4450   36.0160 H   0  0  0  0  0  0  0  0  0  0  0  0
   28.9940   28.2040   36.9030 H   0  0  0  0  0  0  0  0  0  0  0  0
   31.0730   26.5100   36.9950 N   0  0  0  0  0  0  0  0  0  0  0  0
   31.6920   25.9780   37.6320 H   0  0  0  0  0  0  0  0  0  0  0  0
   30.2720   25.8730   36.7480 H   0  0  0  0  0  0  0  0  0  0  0  0
   36.6210   28.8630   31.6960 C   0  0  0  0  0  0  0  0  0  0  0  0
   37.6360   29.3240   31.7090 H   0  0  0  0  0  0  0  0  0  0  0  0
   36.5510   28.3770   30.6860 H   0  0  0  0  0  0  0  0  0  0  0  0
   36.5560   27.9070   32.6760 O   0  0  0  0  0  0  0  0  0  0  0  0
   39.0010   27.5280   31.7740 O   0  0  0  0  0  0  0  0  0  0  0  0
   38.0240   27.1350   32.8450 P   0  0  2  0  0  0  0  0  0  0  0  0
   37.6980   25.4410   32.7380 O   0  0  0  0  0  0  0  0  0  0  0  0
   37.0530   25.2340   31.5210 C   0  0  0  0  0  2  0  0  0  0  0  0
   35.6950   24.8030   31.6610 N   0  0  0  0  0  4  0  0  0  0  0  0
   35.3090   24.9570   32.6190 H   0  0  0  0  0  0  0  0  0  0  0  0
   34.7980   25.4600   30.7320 C   0  0  0  0  0  2  0  0  0  0  0  0
   34.8160   24.9650   29.7360 H   0  0  0  0  0  0  0  0  0  0  0  0
   35.6350   23.3780   31.3940 C   0  0  0  0  0  2  0  0  0  0  0  0
   36.5830   23.0280   30.9420 H   0  0  0  0  0  0  0  0  0  0  0  0
   38.7130   27.3810   34.3350 O   0  0  0  0  0  0  0  0  0  0  0  0
   37.7490   27.4380   35.3210 C   0  0  0  0  0  0  0  0  0  0  0  0
   37.1550   28.6960   35.4180 F   0  0  0  0  0  0  0  0  0  0  0  0
   36.7200   26.5460   35.0740 F   0  0  0  0  0  0  0  0  0  0  0  0
   38.3150   27.1450   36.5580 F   0  0  0  0  0  0  0  0  0  0  0  0
  1 10  1  0  0  0  0
  2  1  1  0  0  0  0
  3  1  1  0  0  0  0
  4  5  1  0  0  0  0
  5  6  1  0  0  0  0
  6 18  1  0  0  0  0
  6  7  2  0  0  0  0
  7 11  1  0  0  0  0
  8  7  1  0  0  0  0
  8 12  1  0  0  0  0
  9  8  2  0  0  0  0
 10  5  2  0  0  0  0
 10  9  1  0  0  0  0
 13  9  1  0  0  0  0
 14 20  1  0  0  0  0
 14 15  1  0  0  0  0
 15 21  1  0  0  0  0
 16 15  2  0  0  0  0
 16 22  1  0  0  0  0
 17 16  1  0  0  0  0
 18 19  1  0  0  0  0
 18 17  2  0  0  0  0
 19 14  2  0  0  0  0
 22 23  1  0  0  0  0
 24 22  1  0  0  0  0
 25 26  1  0  0  0  0
 25  1  1  0  0  0  0
 25 28  1  0  0  0  0
 27 25  1  0  0  0  0
 28 30  1  0  0  0  0
 30 29  2  6  0  0  0
 30 39  1  0  0  0  0
 31 30  1  0  0  0  0
 32 33  1  0  0  0  0
 32 31  1  0  0  0  0
 33 34  1  0  0  0  0
 35 33  1  0  0  0  0
 36 35  1  0  0  0  0
 37 33  1  0  0  0  0
 38 37  1  0  0  0  0
 39 40  1  0  0  0  0
 40 41  1  0  0  0  0
 40 43  1  0  0  0  0
 42 40  1  0  0  0  0
M  END
>  <minimizedAffinity>
-5.38568211

$$$$

 OpenBabel03272504433D

 43 44  0  0  0  0  0  0  0  0999 V2000
   37.5120   27.4450   34.8980 C   0  0  0  0  0  0  0  0  0  0  0  0
   36.9370   28.1260   35.5860 H   0  0  0  0  0  0  0  0  0  0  0  0
   38.5650   27.7690   35.0220 H   0  0  0  0  0  0  0  0  0  0  0  0
   35.7000   29.7860   34.5800 Cl  0  0  0  0  0  0  0  0  0  0  0  0
   36.2630   28.7780   33.2340 C   0  0  0  0  0  0  0  0  0  0  0  0
   35.8600   29.0740   31.9800 C   0  0  0  0  0  0  0  0  0  0  0  0
   36.2890   28.3030   30.9250 C   0  0  0  0  0  0  0  0  0  0  0  0
   37.1320   27.2330   31.1890 C   0  0  0  0  0  0  0  0  0  0  0  0
   37.5090   26.9840   32.5150 C   0  0  0  0  0  0  0  0  0  0  0  0
   37.0960   27.7350   33.5560 C   0  0  0  0  0  0  0  0  0  0  0  0
   35.9500   28.5620   29.9160 H   0  0  0  0  0  0  0  0  0  0  0  0
   37.4120   26.6920   30.2960 H   0  0  0  0  0  0  0  0  0  0  0  0
   38.1400   26.1300   32.4790 H   0  0  0  0  0  0  0  0  0  0  0  0
   34.5820   32.3980   31.0210 C   0  0  0  0  0  0  0  0  0  0  0  0
   33.1690   32.2150   31.2550 C   0  0  0  0  0  0  0  0  0  0  0  0
   32.7300   30.9660   31.7290 C   0  0  0  0  0  0  0  0  0  0  0  0
   33.6470   29.9890   31.9460 N   0  0  0  0  0  0  0  0  0  0  0  0
   34.9670   30.1910   31.7150 C   0  0  0  0  0  0  0  0  0  0  0  0
   35.4120   31.3750   31.2620 N   0  0  0  0  0  0  0  0  0  0  0  0
   34.9120   33.3560   30.6570 H   0  0  0  0  0  0  0  0  0  0  0  0
   32.5490   33.0740   31.0430 H   0  0  0  0  0  0  0  0  0  0  0  0
   31.3590   30.8410   31.9370 N   0  0  0  0  0  0  0  0  0  0  0  0
   30.8010   30.4430   32.7130 H   0  0  0  0  0  0  0  0  0  0  0  0
   30.6740   31.1920   31.2190 H   0  0  0  0  0  0  0  0  0  0  0  0
   37.4130   26.0670   35.4110 C   0  0  0  0  0  0  0  0  0  0  0  0
   37.1610   25.3120   34.6300 H   0  0  0  0  0  0  0  0  0  0  0  0
   36.5510   26.0190   36.1290 H   0  0  0  0  0  0  0  0  0  0  0  0
   38.5660   25.6810   36.0440 O   0  0  0  0  0  0  0  0  0  0  0  0
   40.2550   23.6620   36.0460 O   0  0  0  0  0  0  0  0  0  0  0  0
   38.8130   24.0410   35.8730 P   0  0  2  0  0  0  0  0  0  0  0  0
   38.2930   23.6340   34.2760 O   0  0  0  0  0  0  0  0  0  0  0  0
   38.2760   22.2430   34.2040 C   0  0  0  0  0  2  0  0  0  0  0  0
   37.6030   21.7410   33.0440 N   0  0  0  0  0  4  0  0  0  0  0  0
   37.3610   22.4840   32.3510 H   0  0  0  0  0  0  0  0  0  0  0  0
   38.3720   20.7370   32.3380 C   0  0  0  0  0  2  0  0  0  0  0  0
   38.2490   19.7340   32.8020 H   0  0  0  0  0  0  0  0  0  0  0  0
   36.3600   21.1230   33.4660 C   0  0  0  0  0  2  0  0  0  0  0  0
   36.3440   20.9950   34.5650 H   0  0  0  0  0  0  0  0  0  0  0  0
   37.8790   23.1380   36.9080 O   0  0  0  0  0  0  0  0  0  0  0  0
   38.1410   23.4680   38.2220 C   0  0  0  0  0  0  0  0  0  0  0  0
   37.9080   24.8160   38.4940 F   0  0  0  0  0  0  0  0  0  0  0  0
   37.3330   22.7570   39.0920 F   0  0  0  0  0  0  0  0  0  0  0  0
   39.4730   23.2040   38.5240 F   0  0  0  0  0  0  0  0  0  0  0  0
  1  3  1  0  0  0  0
  1 25  1  0  0  0  0
  1  2  1  0  0  0  0
  5 10  1  0  0  0  0
  5  4  1  0  0  0  0
  6  5  2  0  0  0  0
  7  8  2  0  0  0  0
  7  6  1  0  0  0  0
  8  9  1  0  0  0  0
  9 10  2  0  0  0  0
 10  1  1  0  0  0  0
 11  7  1  0  0  0  0
 12  8  1  0  0  0  0
 13  9  1  0  0  0  0
 14 15  2  0  0  0  0
 14 19  1  0  0  0  0
 15 16  1  0  0  0  0
 16 22  1  0  0  0  0
 16 17  2  0  0  0  0
 18 17  1  0  0  0  0
 18  6  1  0  0  0  0
 19 18  2  0  0  0  0
 20 14  1  0  0  0  0
 21 15  1  0  0  0  0
 22 23  1  0  0  0  0
 24 22  1  0  0  0  0
 25 28  1  0  0  0  0
 25 27  1  0  0  0  0
 26 25  1  0  0  0  0
 30 28  1  0  0  0  0
 30 29  2  1  0  0  0
 30 39  1  0  0  0  0
 31 30  1  0  0  0  0
 32 31  1  0  0  0  0
 33 37  1  0  0  0  0
 33 32  1  0  0  0  0
 34 33  1  0  0  0  0
 35 36  1  0  0  0  0
 35 33  1  0  0  0  0
 37 38  1  0  0  0  0
 39 40  1  0  0  0  0
 40 41  1  0  0  0  0
 40 43  1  0  0  0  0
 40 42  1  0  0  0  0
M  END
>  <minimizedAffinity>
-5.3503232

$$$$

 OpenBabel03272504433D

 43 44  0  0  0  0  0  0  0  0999 V2000
   37.5490   27.8580   32.1210 C   0  0  0  0  0  0  0  0  0  0  0  0
   38.2160   28.0360   33.0100 H   0  0  0  0  0  0  0  0  0  0  0  0
   38.2080   28.0530   31.2500 H   0  0  0  0  0  0  0  0  0  0  0  0
   36.2760   28.3310   34.7700 Cl  0  0  0  0  0  0  0  0  0  0  0  0
   35.8300   29.1970   33.2870 C   0  0  0  0  0  0  0  0  0  0  0  0
   34.8580   30.1320   33.3420 C   0  0  0  0  0  0  0  0  0  0  0  0
   34.5020   30.8130   32.2010 C   0  0  0  0  0  0  0  0  0  0  0  0
   35.1610   30.5100   31.0180 C   0  0  0  0  0  0  0  0  0  0  0  0
   36.1590   29.5270   31.0350 C   0  0  0  0  0  0  0  0  0  0  0  0
   36.5170   28.8550   32.1480 C   0  0  0  0  0  0  0  0  0  0  0  0
   33.7110   31.5690   32.2680 H   0  0  0  0  0  0  0  0  0  0  0  0
   34.8090   31.0980   30.1820 H   0  0  0  0  0  0  0  0  0  0  0  0
   36.5140   29.4610   30.0370 H   0  0  0  0  0  0  0  0  0  0  0  0
   32.3470   30.1760   36.0410 C   0  0  0  0  0  0  0  0  0  0  0  0
   32.9700   31.0930   36.9670 C   0  0  0  0  0  0  0  0  0  0  0  0
   34.2150   31.6460   36.6180 C   0  0  0  0  0  0  0  0  0  0  0  0
   34.7760   31.2980   35.4320 N   0  0  0  0  0  0  0  0  0  0  0  0
   34.1660   30.4340   34.5840 C   0  0  0  0  0  0  0  0  0  0  0  0
   32.9760   29.8920   34.8950 N   0  0  0  0  0  0  0  0  0  0  0  0
   31.3940   29.7550   36.3150 H   0  0  0  0  0  0  0  0  0  0  0  0
   32.4160   31.2830   37.8750 H   0  0  0  0  0  0  0  0  0  0  0  0
   34.7730   32.5210   37.5450 N   0  0  0  0  0  0  0  0  0  0  0  0
   35.2270   33.4470   37.4490 H   0  0  0  0  0  0  0  0  0  0  0  0
   34.7850   32.2820   38.5700 H   0  0  0  0  0  0  0  0  0  0  0  0
   37.1830   26.4310   32.0850 C   0  0  0  0  0  0  0  0  0  0  0  0
   36.4120   26.1820   31.3200 H   0  0  0  0  0  0  0  0  0  0  0  0
   36.6960   26.1680   33.0620 H   0  0  0  0  0  0  0  0  0  0  0  0
   38.2800   25.6350   31.8840 O   0  0  0  0  0  0  0  0  0  0  0  0
   40.1700   24.4620   33.2950 O   0  0  0  0  0  0  0  0  0  0  0  0
   38.7260   24.8760   33.3000 P   0  0  2  0  0  0  0  0  0  0  0  0
   37.7220   23.4760   33.4400 O   0  0  0  0  0  0  0  0  0  0  0  0
   38.4290   22.5530   34.2060 C   0  0  0  0  0  2  0  0  0  0  0  0
   38.6430   22.9770   35.5570 N   0  0  0  0  0  4  0  0  0  0  0  0
   38.8460   23.9980   35.6420 H   0  0  0  0  0  0  0  0  0  0  0  0
   37.5160   22.6950   36.4210 C   0  0  0  0  0  2  0  0  0  0  0  0
   37.5390   21.6440   36.7840 H   0  0  0  0  0  0  0  0  0  0  0  0
   39.7900   22.2630   36.0860 C   0  0  0  0  0  2  0  0  0  0  0  0
   40.0700   21.4290   35.4150 H   0  0  0  0  0  0  0  0  0  0  0  0
   38.4240   25.7990   34.6470 O   0  0  0  0  0  0  0  0  0  0  0  0
   39.5390   26.5310   35.0030 C   0  0  0  0  0  0  0  0  0  0  0  0
   39.2670   27.4790   35.9880 F   0  0  0  0  0  0  0  0  0  0  0  0
   40.5340   25.7180   35.5170 F   0  0  0  0  0  0  0  0  0  0  0  0
   40.0370   27.2090   33.8950 F   0  0  0  0  0  0  0  0  0  0  0  0
  1 10  1  0  0  0  0
  1  2  1  0  0  0  0
  3  1  1  0  0  0  0
  5  6  1  0  0  0  0
  5  4  1  0  0  0  0
  6 18  1  0  0  0  0
  7 11  1  0  0  0  0
  7  6  2  0  0  0  0
  8  9  2  0  0  0  0
  8  7  1  0  0  0  0
  9 10  1  0  0  0  0
 10  5  2  0  0  0  0
 12  8  1  0  0  0  0
 13  9  1  0  0  0  0
 14 20  1  0  0  0  0
 14 15  1  0  0  0  0
 15 21  1  0  0  0  0
 16 15  2  0  0  0  0
 16 22  1  0  0  0  0
 17 16  1  0  0  0  0
 18 19  1  0  0  0  0
 18 17  2  0  0  0  0
 19 14  2  0  0  0  0
 22 24  1  0  0  0  0
 23 22  1  0  0  0  0
 25  1  1  0  0  0  0
 25 27  1  0  0  0  0
 26 25  1  0  0  0  0
 28 25  1  0  0  0  0
 28 30  1  0  0  0  0
 30 29  2  6  0  0  0
 30 31  1  0  0  0  0
 30 39  1  0  0  0  0
 31 32  1  0  0  0  0
 32 33  1  0  0  0  0
 33 34  1  0  0  0  0
 33 37  1  0  0  0  0
 33 35  1  0  0  0  0
 35 36  1  0  0  0  0
 38 37  1  0  0  0  0
 39 40  1  0  0  0  0
 40 42  1  0  0  0  0
 40 41  1  0  0  0  0
 43 40  1  0  0  0  0
M  END
>  <minimizedAffinity>
-5.13909817

$$$$

 OpenBabel03272504433D

 43 44  0  0  0  0  0  0  0  0999 V2000
   37.6710   27.7640   32.1030 C   0  0  0  0  0  0  0  0  0  0  0  0
   38.1830   27.7780   33.1050 H   0  0  0  0  0  0  0  0  0  0  0  0
   38.4710   28.0520   31.3910 H   0  0  0  0  0  0  0  0  0  0  0  0
   36.3180   28.2290   34.7130 Cl  0  0  0  0  0  0  0  0  0  0  0  0
   35.9550   29.1360   33.2330 C   0  0  0  0  0  0  0  0  0  0  0  0
   35.0130   30.1030   33.2710 C   0  0  0  0  0  0  0  0  0  0  0  0
   34.7210   30.8160   32.1310 C   0  0  0  0  0  0  0  0  0  0  0  0
   35.4130   30.5140   30.9670 C   0  0  0  0  0  0  0  0  0  0  0  0
   36.3770   29.4980   31.0010 C   0  0  0  0  0  0  0  0  0  0  0  0
   36.6720   28.7940   32.1130 C   0  0  0  0  0  0  0  0  0  0  0  0
   33.9540   31.5960   32.1860 H   0  0  0  0  0  0  0  0  0  0  0  0
   35.1120   31.1290   30.1320 H   0  0  0  0  0  0  0  0  0  0  0  0
   36.7670   29.4380   30.0160 H   0  0  0  0  0  0  0  0  0  0  0  0
   32.4150   30.1650   35.8870 C   0  0  0  0  0  0  0  0  0  0  0  0
   33.0240   31.0590   36.8430 C   0  0  0  0  0  0  0  0  0  0  0  0
   34.2900   31.5930   36.5410 C   0  0  0  0  0  0  0  0  0  0  0  0
   34.8830   31.2470   35.3700 N   0  0  0  0  0  0  0  0  0  0  0  0
   34.2850   30.4050   34.4930 C   0  0  0  0  0  0  0  0  0  0  0  0
   33.0760   29.8810   34.7580 N   0  0  0  0  0  0  0  0  0  0  0  0
   31.4460   29.7600   36.1240 H   0  0  0  0  0  0  0  0  0  0  0  0
   32.4440   31.2510   37.7340 H   0  0  0  0  0  0  0  0  0  0  0  0
   34.8340   32.4470   37.4960 N   0  0  0  0  0  0  0  0  0  0  0  0
   35.3080   33.3650   37.4270 H   0  0  0  0  0  0  0  0  0  0  0  0
   34.8070   32.1960   38.5180 H   0  0  0  0  0  0  0  0  0  0  0  0
   37.2840   26.3760   31.7920 C   0  0  0  0  0  0  0  0  0  0  0  0
   36.7410   26.2650   30.8250 H   0  0  0  0  0  0  0  0  0  0  0  0
   36.5440   26.0350   32.5650 H   0  0  0  0  0  0  0  0  0  0  0  0
   38.3700   25.5390   31.7890 O   0  0  0  0  0  0  0  0  0  0  0  0
   39.6120   23.7790   33.3030 O   0  0  0  0  0  0  0  0  0  0  0  0
   38.3050   24.4830   33.0770 P   0  0  2  0  0  0  0  0  0  0  0  0
   37.0800   23.3250   32.6960 O   0  0  0  0  0  0  0  0  0  0  0  0
   37.7370   22.1850   32.2390 C   0  0  0  0  0  2  0  0  0  0  0  0
   37.0690   21.5390   31.1490 N   0  0  0  0  0  4  0  0  0  0  0  0
   37.4370   21.8200   30.2130 H   0  0  0  0  0  0  0  0  0  0  0  0
   37.1450   20.0940   31.2190 C   0  0  0  0  0  2  0  0  0  0  0  0
   36.3660   19.6820   31.8960 H   0  0  0  0  0  0  0  0  0  0  0  0
   35.6660   21.9060   31.1890 C   0  0  0  0  0  2  0  0  0  0  0  0
   35.4200   22.3970   32.1500 H   0  0  0  0  0  0  0  0  0  0  0  0
   37.8250   25.2170   34.4870 O   0  0  0  0  0  0  0  0  0  0  0  0
   38.2610   24.5050   35.5860 C   0  0  0  0  0  0  0  0  0  0  0  0
   37.6380   24.9060   36.7670 F   0  0  0  0  0  0  0  0  0  0  0  0
   37.9940   23.1530   35.4510 F   0  0  0  0  0  0  0  0  0  0  0  0
   39.6310   24.6800   35.7550 F   0  0  0  0  0  0  0  0  0  0  0  0
  1 10  1  0  0  0  0
  1  2  1  0  0  0  0
  3  1  1  0  0  0  0
  5  6  1  0  0  0  0
  5  4  1  0  0  0  0
  6 18  1  0  0  0  0
  7 11  1  0  0  0  0
  7  6  2  0  0  0  0
  8  9  2  0  0  0  0
  8  7  1  0  0  0  0
  9 10  1  0  0  0  0
 10  5  2  0  0  0  0
 12  8  1  0  0  0  0
 13  9  1  0  0  0  0
 14 20  1  0  0  0  0
 14 15  1  0  0  0  0
 15 21  1  0  0  0  0
 16 15  2  0  0  0  0
 16 22  1  0  0  0  0
 17 16  1  0  0  0  0
 18 19  1  0  0  0  0
 18 17  2  0  0  0  0
 19 14  2  0  0  0  0
 22 24  1  0  0  0  0
 23 22  1  0  0  0  0
 25  1  1  0  0  0  0
 25 27  1  0  0  0  0
 26 25  1  0  0  0  0
 28 25  1  0  0  0  0
 28 30  1  0  0  0  0
 30 29  2  1  0  0  0
 30 39  1  0  0  0  0
 31 30  1  0  0  0  0
 32 31  1  0  0  0  0
 33 37  1  0  0  0  0
 33 35  1  0  0  0  0
 33 32  1  0  0  0  0
 34 33  1  0  0  0  0
 35 36  1  0  0  0  0
 37 38  1  0  0  0  0
 39 40  1  0  0  0  0
 40 43  1  0  0  0  0
 40 41  1  0  0  0  0
 42 40  1  0  0  0  0
M  END
>  <minimizedAffinity>
-4.99918985

$$$$

 OpenBabel03272504433D

 43 44  0  0  0  0  0  0  0  0999 V2000
   38.4690   26.5700   32.6140 C   0  0  0  0  0  0  0  0  0  0  0  0
   38.7710   26.6880   33.6920 H   0  0  0  0  0  0  0  0  0  0  0  0
   39.4110   26.7400   32.0540 H   0  0  0  0  0  0  0  0  0  0  0  0
   36.9720   27.7060   34.9240 Cl  0  0  0  0  0  0  0  0  0  0  0  0
   36.7830   28.2620   33.2500 C   0  0  0  0  0  0  0  0  0  0  0  0
   35.9150   29.2610   32.9860 C   0  0  0  0  0  0  0  0  0  0  0  0
   35.7590   29.7040   31.6930 C   0  0  0  0  0  0  0  0  0  0  0  0
   36.5070   29.1010   30.6920 C   0  0  0  0  0  0  0  0  0  0  0  0
   37.3880   28.0690   31.0400 C   0  0  0  0  0  0  0  0  0  0  0  0
   37.5500   27.6280   32.3040 C   0  0  0  0  0  0  0  0  0  0  0  0
   35.0490   30.5170   31.5010 H   0  0  0  0  0  0  0  0  0  0  0  0
   36.3120   29.5200   29.7160 H   0  0  0  0  0  0  0  0  0  0  0  0
   37.8410   27.7600   30.1310 H   0  0  0  0  0  0  0  0  0  0  0  0
   34.8690   31.4440   35.7680 C   0  0  0  0  0  0  0  0  0  0  0  0
   33.5290   30.9570   35.9950 C   0  0  0  0  0  0  0  0  0  0  0  0
   33.0560   29.9090   35.1860 C   0  0  0  0  0  0  0  0  0  0  0  0
   33.8740   29.4010   34.2290 N   0  0  0  0  0  0  0  0  0  0  0  0
   35.1270   29.8800   34.0400 C   0  0  0  0  0  0  0  0  0  0  0  0
   35.6030   30.8810   34.8000 N   0  0  0  0  0  0  0  0  0  0  0  0
   35.2250   32.2470   36.3910 H   0  0  0  0  0  0  0  0  0  0  0  0
   32.9850   31.4500   36.7890 H   0  0  0  0  0  0  0  0  0  0  0  0
   31.7580   29.4780   35.4450 N   0  0  0  0  0  0  0  0  0  0  0  0
   31.3370   28.5370   35.5380 H   0  0  0  0  0  0  0  0  0  0  0  0
   30.9800   30.1730   35.5880 H   0  0  0  0  0  0  0  0  0  0  0  0
   38.0700   25.1690   32.3890 C   0  0  0  0  0  0  0  0  0  0  0  0
   38.8890   24.5250   31.9930 H   0  0  0  0  0  0  0  0  0  0  0  0
   37.2900   25.1510   31.5820 H   0  0  0  0  0  0  0  0  0  0  0  0
   37.5690   24.5980   33.5300 O   0  0  0  0  0  0  0  0  0  0  0  0
   39.9320   23.9330   34.4840 O   0  0  0  0  0  0  0  0  0  0  0  0
   38.5860   23.3990   34.0850 P   0  0  2  0  0  0  0  0  0  0  0  0
   38.7700   22.2760   32.7850 O   0  0  0  0  0  0  0  0  0  0  0  0
   37.8000   21.2930   32.9660 C   0  0  0  0  0  2  0  0  0  0  0  0
   36.4610   21.7790   32.8170 N   0  0  0  0  0  4  0  0  0  0  0  0
   36.2880   22.6780   33.3210 H   0  0  0  0  0  0  0  0  0  0  0  0
   36.0890   21.9900   31.4330 C   0  0  0  0  0  2  0  0  0  0  0  0
   35.7620   21.0420   30.9540 H   0  0  0  0  0  0  0  0  0  0  0  0
   35.5510   20.7930   33.3690 C   0  0  0  0  0  2  0  0  0  0  0  0
   36.0800   19.8400   33.5590 H   0  0  0  0  0  0  0  0  0  0  0  0
   37.9390   22.5410   35.3510 O   0  0  0  0  0  0  0  0  0  0  0  0
   37.9690   23.2820   36.5150 C   0  0  0  0  0  0  0  0  0  0  0  0
   37.7360   24.6390   36.2950 F   0  0  0  0  0  0  0  0  0  0  0  0
   36.9950   22.8640   37.4050 F   0  0  0  0  0  0  0  0  0  0  0  0
   39.2160   23.1640   37.1210 F   0  0  0  0  0  0  0  0  0  0  0  0
  1  2  1  0  0  0  0
  3  1  1  0  0  0  0
  5  4  1  0  0  0  0
  6  5  1  0  0  0  0
  6 18  1  0  0  0  0
  7  6  2  0  0  0  0
  8  9  2  0  0  0  0
  8  7  1  0  0  0  0
  9 10  1  0  0  0  0
 10  1  1  0  0  0  0
 10  5  2  0  0  0  0
 11  7  1  0  0  0  0
 12  8  1  0  0  0  0
 13  9  1  0  0  0  0
 14 15  1  0  0  0  0
 14 20  1  0  0  0  0
 15 21  1  0  0  0  0
 16 22  1  0  0  0  0
 16 15  2  0  0  0  0
 17 16  1  0  0  0  0
 18 17  2  0  0  0  0
 18 19  1  0  0  0  0
 19 14  2  0  0  0  0
 22 23  1  0  0  0  0
 22 24  1  0  0  0  0
 25  1  1  0  0  0  0
 25 28  1  0  0  0  0
 26 25  1  0  0  0  0
 27 25  1  0  0  0  0
 28 30  1  0  0  0  0
 30 29  2  1  0  0  0
 30 39  1  0  0  0  0
 31 32  1  0  0  0  0
 31 30  1  0  0  0  0
 33 32  1  0  0  0  0
 33 34  1  0  0  0  0
 33 37  1  0  0  0  0
 35 33  1  0  0  0  0
 36 35  1  0  0  0  0
 37 38  1  0  0  0  0
 39 40  1  0  0  0  0
 40 43  1  0  0  0  0
 40 42  1  0  0  0  0
 41 40  1  0  0  0  0
M  END
>  <minimizedAffinity>
-4.97814417

$$$$
