
 OpenBabel03272508263D

 36 38  0  0  1  0  0  0  0  0999 V2000
   33.8780   28.8890   47.2470 C   0  0  2  0  0  0  0  0  0  0  0  0
   34.5830   28.1370   48.3510 C   0  0  2  0  0  0  0  0  0  0  0  0
   33.6570   27.9820   49.3340 O   0  0  0  0  0  0  0  0  0  0  0  0
   32.3820   28.0840   48.8390 C   0  0  0  0  0  0  0  0  0  0  0  0
   32.4910   28.2710   47.3250 C   0  0  1  0  0  0  0  0  0  0  0  0
   33.7250   29.9630   47.5110 H   0  0  0  0  0  0  0  0  0  0  0  0
   34.8780   27.1570   47.9550 H   0  0  0  0  0  0  0  0  0  0  0  0
   31.7300   27.2520   49.1130 H   0  0  0  0  0  0  0  0  0  0  0  0
   31.9280   29.0240   49.2300 H   0  0  0  0  0  0  0  0  0  0  0  0
   32.5230   27.2240   46.9310 H   0  0  0  0  0  0  0  0  0  0  0  0
   35.6390   30.4020   49.0610 C   0  0  1  0  0  0  0  0  0  0  0  0
   35.7330   28.9830   48.8060 C   0  0  1  0  0  0  0  0  0  0  0  0
   35.8830   29.4260   50.2240 C   0  0  0  0  0  0  0  0  0  0  0  0
   34.7240   31.0010   49.2520 H   0  0  0  0  0  0  0  0  0  0  0  0
   36.6980   28.6510   48.3190 H   0  0  0  0  0  0  0  0  0  0  0  0
   35.0570   29.2370   50.9390 H   0  0  0  0  0  0  0  0  0  0  0  0
   36.8840   29.3900   50.6850 H   0  0  0  0  0  0  0  0  0  0  0  0
   36.8280   31.3160   48.8380 C   0  0  0  0  0  0  0  0  0  0  0  0
   37.0330   32.3460   49.7590 C   0  0  0  0  0  0  0  0  0  0  0  0
   38.1180   33.1690   49.4950 C   0  0  0  0  0  0  0  0  0  0  0  0
   38.9150   32.9620   48.3980 N   0  0  0  0  0  0  0  0  0  0  0  0
   38.6750   31.9460   47.5280 C   0  0  0  0  0  0  0  0  0  0  0  0
   37.6240   31.1200   47.7540 N   0  0  0  0  0  0  0  0  0  0  0  0
   36.4060   32.4970   50.6080 H   0  0  0  0  0  0  0  0  0  0  0  0
   38.3740   33.9980   50.1370 H   0  0  0  0  0  0  0  0  0  0  0  0
   39.2850   31.7620   46.6620 H   0  0  0  0  0  0  0  0  0  0  0  0
   34.4330   28.7340   46.0060 O   0  0  0  0  0  0  0  0  0  0  0  0
   34.3460   29.5940   45.5190 H   0  0  0  0  0  0  0  0  0  0  0  0
   31.4970   29.0510   46.8200 O   0  0  0  0  0  0  0  0  0  0  0  0
   30.8640   28.5210   45.7240 C   0  0  0  0  0  2  0  0  0  0  0  0
   31.0080   29.2300   44.4900 N   0  0  0  0  0  4  0  0  0  0  0  0
   31.3260   30.2110   44.7090 H   0  0  0  0  0  0  0  0  0  0  0  0
   29.7080   29.3380   43.7910 C   0  0  0  0  0  2  0  0  0  0  0  0
   29.3170   28.3270   43.6350 H   0  0  0  0  0  0  0  0  0  0  0  0
   31.8950   28.6040   43.5410 C   0  0  0  0  0  2  0  0  0  0  0  0
   31.4420   28.5270   42.5090 H   0  0  0  0  0  0  0  0  0  0  0  0
  1  5  1  0  0  0  0
  1  6  1  1  0  0  0
  1  2  1  0  0  0  0
  2  7  1  6  0  0  0
  2 12  1  0  0  0  0
  2  3  1  0  0  0  0
  4  8  1  0  0  0  0
  4  9  1  0  0  0  0
  4  3  1  0  0  0  0
  5 10  1  6  0  0  0
  5  4  1  0  0  0  0
 11 14  1  6  0  0  0
 11 13  1  0  0  0  0
 12 15  1  6  0  0  0
 12 11  1  0  0  0  0
 12 13  1  0  0  0  0
 13 17  1  0  0  0  0
 13 16  1  0  0  0  0
 18 11  1  0  0  0  0
 18 19  1  0  0  0  0
 19 24  1  0  0  0  0
 20 19  2  0  0  0  0
 20 25  1  0  0  0  0
 21 20  1  0  0  0  0
 22 23  1  0  0  0  0
 22 21  2  0  0  0  0
 23 18  2  0  0  0  0
 26 22  1  0  0  0  0
 27  1  1  0  0  0  0
 28 27  1  0  0  0  0
 29  5  1  0  0  0  0
 30 29  1  0  0  0  0
 31 32  1  0  0  0  0
 31 30  1  0  0  0  0
 33 31  1  0  0  0  0
 34 33  1  0  0  0  0
 35 31  1  0  0  0  0
 36 35  1  0  0  0  0
M  END
>  <minimizedAffinity>
-4.39561892

>  <minimizedRMSD>
0.377124459

$$$$
