
 OpenBabel03272508263D

 36 38  0  0  1  0  0  0  0  0999 V2000
   33.9190   28.9020   47.3110 C   0  0  2  0  0  0  0  0  0  0  0  0
   34.6450   28.1670   48.4140 C   0  0  2  0  0  0  0  0  0  0  0  0
   33.7270   28.0000   49.4020 O   0  0  0  0  0  0  0  0  0  0  0  0
   32.4480   28.0760   48.9140 C   0  0  0  0  0  0  0  0  0  0  0  0
   32.5440   28.2590   47.4000 C   0  0  1  0  0  0  0  0  0  0  0  0
   33.7490   29.9740   47.5720 H   0  0  0  0  0  0  0  0  0  0  0  0
   34.9550   27.1910   48.0200 H   0  0  0  0  0  0  0  0  0  0  0  0
   31.8130   27.2330   49.1950 H   0  0  0  0  0  0  0  0  0  0  0  0
   31.9790   29.0090   49.3050 H   0  0  0  0  0  0  0  0  0  0  0  0
   32.5940   27.2120   47.0090 H   0  0  0  0  0  0  0  0  0  0  0  0
   35.6860   30.4680   49.0230 C   0  0  1  0  0  0  0  0  0  0  0  0
   35.7820   29.0360   48.8590 C   0  0  1  0  0  0  0  0  0  0  0  0
   35.8810   29.5640   50.2510 C   0  0  0  0  0  0  0  0  0  0  0  0
   34.7680   31.0810   49.1420 H   0  0  0  0  0  0  0  0  0  0  0  0
   36.7620   28.6710   48.4300 H   0  0  0  0  0  0  0  0  0  0  0  0
   35.0290   29.4220   50.9450 H   0  0  0  0  0  0  0  0  0  0  0  0
   36.8650   29.5540   50.7510 H   0  0  0  0  0  0  0  0  0  0  0  0
   36.8870   31.3630   48.7880 C   0  0  0  0  0  0  0  0  0  0  0  0
   37.1040   32.4050   49.6940 C   0  0  0  0  0  0  0  0  0  0  0  0
   38.2000   33.2090   49.4190 C   0  0  0  0  0  0  0  0  0  0  0  0
   38.9980   32.9740   48.3280 N   0  0  0  0  0  0  0  0  0  0  0  0
   38.7470   31.9470   47.4750 C   0  0  0  0  0  0  0  0  0  0  0  0
   37.6850   31.1380   47.7110 N   0  0  0  0  0  0  0  0  0  0  0  0
   36.4770   32.5770   50.5380 H   0  0  0  0  0  0  0  0  0  0  0  0
   38.4650   34.0450   50.0490 H   0  0  0  0  0  0  0  0  0  0  0  0
   39.3570   31.7410   46.6140 H   0  0  0  0  0  0  0  0  0  0  0  0
   34.4710   28.7510   46.0670 O   0  0  0  0  0  0  0  0  0  0  0  0
   34.3660   29.6080   45.5780 H   0  0  0  0  0  0  0  0  0  0  0  0
   31.5340   29.0190   46.8970 O   0  0  0  0  0  0  0  0  0  0  0  0
   30.8090   28.4100   45.9030 C   0  0  0  0  0  2  0  0  0  0  0  0
   31.1590   28.7400   44.5560 N   0  0  0  0  0  4  0  0  0  0  0  0
   31.7900   29.5850   44.5770 H   0  0  0  0  0  0  0  0  0  0  0  0
   29.9570   29.1100   43.7770 C   0  0  0  0  0  2  0  0  0  0  0  0
   29.2500   28.2760   43.8190 H   0  0  0  0  0  0  0  0  0  0  0  0
   31.7710   27.6640   43.8170 C   0  0  0  0  0  2  0  0  0  0  0  0
   31.2990   27.5110   42.8010 H   0  0  0  0  0  0  0  0  0  0  0  0
  1  5  1  0  0  0  0
  1  6  1  1  0  0  0
  1  2  1  0  0  0  0
  2  7  1  6  0  0  0
  2 12  1  0  0  0  0
  2  3  1  0  0  0  0
  4  8  1  0  0  0  0
  4  9  1  0  0  0  0
  4  3  1  0  0  0  0
  5 10  1  6  0  0  0
  5  4  1  0  0  0  0
 11 14  1  6  0  0  0
 11 13  1  0  0  0  0
 12 15  1  6  0  0  0
 12 11  1  0  0  0  0
 12 13  1  0  0  0  0
 13 17  1  0  0  0  0
 13 16  1  0  0  0  0
 18 11  1  0  0  0  0
 18 19  1  0  0  0  0
 19 24  1  0  0  0  0
 20 19  2  0  0  0  0
 20 25  1  0  0  0  0
 21 20  1  0  0  0  0
 22 23  1  0  0  0  0
 22 21  2  0  0  0  0
 23 18  2  0  0  0  0
 26 22  1  0  0  0  0
 27  1  1  0  0  0  0
 28 27  1  0  0  0  0
 29  5  1  0  0  0  0
 30 29  1  0  0  0  0
 31 32  1  0  0  0  0
 31 30  1  0  0  0  0
 33 34  1  0  0  0  0
 33 31  1  0  0  0  0
 35 31  1  0  0  0  0
 36 35  1  0  0  0  0
M  END
>  <minimizedAffinity>
-4.39414024

>  <minimizedRMSD>
0.223978981

$$$$
