
 OpenBabel03262521363D

 35 37  0  0  1  0  0  0  0  0999 V2000
   38.8320   23.3840   35.1820 C   0  0  1  0  0  0  0  0  0  0  0  0
   38.7160   24.4930   36.1320 C   0  0  2  0  0  0  0  0  0  0  0  0
   38.1560   23.7990   37.3890 C   0  0  0  0  0  0  0  0  0  0  0  0
   37.2570   22.9280   36.8410 O   0  0  0  0  0  0  0  0  0  0  0  0
   37.7270   22.4270   35.6490 C   0  0  0  0  0  0  0  0  0  0  0  0
   39.8240   22.8800   35.2740 H   0  0  0  0  0  0  0  0  0  0  0  0
   39.7160   24.8490   36.4430 H   0  0  0  0  0  0  0  0  0  0  0  0
   37.5870   24.5900   37.9240 H   0  0  0  0  0  0  0  0  0  0  0  0
   38.9550   23.3470   37.9810 H   0  0  0  0  0  0  0  0  0  0  0  0
   36.9580   22.3230   34.8630 H   0  0  0  0  0  0  0  0  0  0  0  0
   38.1780   21.4380   35.8440 H   0  0  0  0  0  0  0  0  0  0  0  0
   38.3350   26.6880   34.7750 C   0  0  1  0  0  0  0  0  0  0  0  0
   38.3380   26.9940   36.1820 C   0  0  0  0  0  0  0  0  0  0  0  0
   37.7950   25.6250   35.7290 C   0  0  2  0  0  0  0  0  0  0  0  0
   39.3140   26.4350   34.2810 H   0  0  0  0  0  0  0  0  0  0  0  0
   39.2460   27.0420   36.7820 H   0  0  0  0  0  0  0  0  0  0  0  0
   37.5680   27.7440   36.5230 H   0  0  0  0  0  0  0  0  0  0  0  0
   36.7310   25.4180   35.7730 H   0  0  0  0  0  0  0  0  0  0  0  0
   35.5920   28.7460   33.2750 C   0  0  0  0  0  0  0  0  0  0  0  0
   36.5600   28.3100   34.1660 C   0  0  0  0  0  0  0  0  0  0  0  0
   37.3080   27.1930   33.8450 C   0  0  0  0  0  0  0  0  0  0  0  0
   37.0470   26.5680   32.6460 N   0  0  0  0  0  0  0  0  0  0  0  0
   36.0970   27.0040   31.7830 C   0  0  0  0  0  0  0  0  0  0  0  0
   35.3550   28.1120   32.1000 N   0  0  0  0  0  0  0  0  0  0  0  0
   35.0160   29.6250   33.5450 H   0  0  0  0  0  0  0  0  0  0  0  0
   36.7870   28.7680   35.1120 H   0  0  0  0  0  0  0  0  0  0  0  0
   35.9890   26.4260   30.8740 H   0  0  0  0  0  0  0  0  0  0  0  0
   38.6060   23.7280   33.8430 O   0  0  0  0  0  0  0  0  0  0  0  0
   37.6810   22.8610   33.2650 C   0  0  0  0  0  2  0  0  0  0  0  0
   37.0990   23.5010   32.1140 N   0  0  0  0  0  4  0  0  0  0  0  0
   36.8910   24.4940   32.3420 H   0  0  0  0  0  0  0  0  0  0  0  0
   37.9920   23.4270   30.9680 C   0  0  0  0  0  2  0  0  0  0  0  0
   37.9900   22.3420   30.6750 H   0  0  0  0  0  0  0  0  0  0  0  0
   35.8410   22.8280   31.8020 C   0  0  0  0  0  2  0  0  0  0  0  0
   34.9760   23.4860   32.0370 H   0  0  0  0  0  0  0  0  0  0  0  0
  1  6  1  1  0  0  0
  1  5  1  0  0  0  0
  1  2  1  0  0  0  0
  2  7  1  1  0  0  0
  2  3  1  0  0  0  0
  3  8  1  0  0  0  0
  3  9  1  0  0  0  0
  4  3  1  0  0  0  0
  5 11  1  0  0  0  0
  5  4  1  0  0  0  0
 10  5  1  0  0  0  0
 12 15  1  6  0  0  0
 12 14  1  0  0  0  0
 12 13  1  0  0  0  0
 13 17  1  0  0  0  0
 13 16  1  0  0  0  0
 14 18  1  1  0  0  0
 14  2  1  0  0  0  0
 14 13  1  0  0  0  0
 19 25  1  0  0  0  0
 19 20  1  0  0  0  0
 20 26  1  0  0  0  0
 21 20  2  0  0  0  0
 21 12  1  0  0  0  0
 22 21  1  0  0  0  0
 23 24  1  0  0  0  0
 23 22  2  0  0  0  0
 24 19  2  0  0  0  0
 27 23  1  0  0  0  0
 28  1  1  0  0  0  0
 29 28  1  0  0  0  0
 30 31  1  0  0  0  0
 30 29  1  0  0  0  0
 32 30  1  0  0  0  0
 33 32  1  0  0  0  0
 34 35  1  0  0  0  0
 34 30  1  0  0  0  0
M  END
>  <minimizedAffinity>
-4.4442358

$$$$

 OpenBabel03262521363D

 35 37  0  0  1  0  0  0  0  0999 V2000
   37.0310   25.4890   32.1970 C   0  0  1  0  0  0  0  0  0  0  0  0
   37.3870   26.5660   33.1260 C   0  0  2  0  0  0  0  0  0  0  0  0
   38.0990   27.5770   32.2060 C   0  0  0  0  0  0  0  0  0  0  0  0
   38.8260   26.7480   31.4000 O   0  0  0  0  0  0  0  0  0  0  0  0
   38.1270   25.5940   31.1280 C   0  0  0  0  0  0  0  0  0  0  0  0
   36.0350   25.6770   31.7290 H   0  0  0  0  0  0  0  0  0  0  0  0
   36.4830   27.1020   33.4680 H   0  0  0  0  0  0  0  0  0  0  0  0
   38.8060   28.1200   32.8700 H   0  0  0  0  0  0  0  0  0  0  0  0
   37.3800   28.2240   31.6970 H   0  0  0  0  0  0  0  0  0  0  0  0
   38.7410   24.6780   31.1220 H   0  0  0  0  0  0  0  0  0  0  0  0
   37.6430   25.7090   30.1410 H   0  0  0  0  0  0  0  0  0  0  0  0
   37.6780   25.8540   35.6180 C   0  0  1  0  0  0  0  0  0  0  0  0
   38.2040   27.1830   35.4380 C   0  0  0  0  0  0  0  0  0  0  0  0
   38.3060   26.1880   34.2670 C   0  0  2  0  0  0  0  0  0  0  0  0
   36.5620   25.7160   35.6060 H   0  0  0  0  0  0  0  0  0  0  0  0
   37.5750   28.0680   35.3410 H   0  0  0  0  0  0  0  0  0  0  0  0
   39.1670   27.4080   35.9830 H   0  0  0  0  0  0  0  0  0  0  0  0
   39.2680   25.7660   33.9900 H   0  0  0  0  0  0  0  0  0  0  0  0
   40.1410   23.1630   36.4530 C   0  0  0  0  0  0  0  0  0  0  0  0
   39.4920   24.1670   35.7530 C   0  0  0  0  0  0  0  0  0  0  0  0
   38.4060   24.7930   36.3380 C   0  0  0  0  0  0  0  0  0  0  0  0
   38.0270   24.3790   37.5950 N   0  0  0  0  0  0  0  0  0  0  0  0
   38.6700   23.3960   38.2690 C   0  0  0  0  0  0  0  0  0  0  0  0
   39.7470   22.7740   37.6910 N   0  0  0  0  0  0  0  0  0  0  0  0
   40.9920   22.6850   35.9790 H   0  0  0  0  0  0  0  0  0  0  0  0
   39.7560   24.5120   34.7700 H   0  0  0  0  0  0  0  0  0  0  0  0
   38.2750   23.1620   39.2490 H   0  0  0  0  0  0  0  0  0  0  0  0
   37.0530   24.2030   32.7510 O   0  0  0  0  0  0  0  0  0  0  0  0
   36.3910   23.3020   31.9190 C   0  0  0  0  0  2  0  0  0  0  0  0
   36.6340   21.9650   32.3930 N   0  0  0  0  0  4  0  0  0  0  0  0
   37.1750   21.4400   31.6770 H   0  0  0  0  0  0  0  0  0  0  0  0
   37.3580   21.9800   33.6550 C   0  0  0  0  0  2  0  0  0  0  0  0
   36.6190   22.3770   34.4030 H   0  0  0  0  0  0  0  0  0  0  0  0
   35.3460   21.3010   32.5740 C   0  0  0  0  0  2  0  0  0  0  0  0
   35.2010   20.5120   31.8030 H   0  0  0  0  0  0  0  0  0  0  0  0
  1  6  1  6  0  0  0
  1 28  1  0  0  0  0
  1  2  1  0  0  0  0
  2  7  1  1  0  0  0
  2 14  1  0  0  0  0
  3  8  1  0  0  0  0
  3  2  1  0  0  0  0
  4  3  1  0  0  0  0
  5  4  1  0  0  0  0
  5  1  1  0  0  0  0
  9  3  1  0  0  0  0
 10  5  1  0  0  0  0
 11  5  1  0  0  0  0
 12 15  1  1  0  0  0
 12 21  1  0  0  0  0
 13 12  1  0  0  0  0
 13 17  1  0  0  0  0
 14 18  1  6  0  0  0
 14 13  1  0  0  0  0
 14 12  1  0  0  0  0
 16 13  1  0  0  0  0
 19 24  1  0  0  0  0
 20 21  1  0  0  0  0
 20 19  2  0  0  0  0
 21 22  2  0  0  0  0
 22 23  1  0  0  0  0
 23 27  1  0  0  0  0
 24 23  2  0  0  0  0
 25 19  1  0  0  0  0
 26 20  1  0  0  0  0
 29 30  1  0  0  0  0
 29 28  1  0  0  0  0
 30 34  1  0  0  0  0
 30 32  1  0  0  0  0
 31 30  1  0  0  0  0
 32 33  1  0  0  0  0
 35 34  1  0  0  0  0
M  END
>  <minimizedAffinity>
-4.44273996

$$$$

 OpenBabel03262521363D

 35 37  0  0  1  0  0  0  0  0999 V2000
   38.2180   25.8330   34.4190 C   0  0  1  0  0  0  0  0  0  0  0  0
   38.0160   25.8380   32.9670 C   0  0  2  0  0  0  0  0  0  0  0  0
   37.4280   27.2420   32.7180 C   0  0  0  0  0  0  0  0  0  0  0  0
   36.5900   27.3800   33.7890 O   0  0  0  0  0  0  0  0  0  0  0  0
   37.1330   26.7980   34.9120 C   0  0  0  0  0  0  0  0  0  0  0  0
   39.2250   26.2370   34.6840 H   0  0  0  0  0  0  0  0  0  0  0  0
   38.9850   25.8530   32.4360 H   0  0  0  0  0  0  0  0  0  0  0  0
   36.8040   27.1330   31.8040 H   0  0  0  0  0  0  0  0  0  0  0  0
   38.2180   27.9910   32.6330 H   0  0  0  0  0  0  0  0  0  0  0  0
   36.4050   26.2610   35.5440 H   0  0  0  0  0  0  0  0  0  0  0  0
   37.6150   27.5900   35.5120 H   0  0  0  0  0  0  0  0  0  0  0  0
   37.6530   23.4500   31.9840 C   0  0  1  0  0  0  0  0  0  0  0  0
   37.3970   24.4300   30.9590 C   0  0  0  0  0  0  0  0  0  0  0  0
   37.0690   24.7920   32.4210 C   0  0  2  0  0  0  0  0  0  0  0  0
   38.7190   23.2680   32.2940 H   0  0  0  0  0  0  0  0  0  0  0  0
   38.1860   24.9680   30.4350 H   0  0  0  0  0  0  0  0  0  0  0  0
   36.5120   24.2220   30.2900 H   0  0  0  0  0  0  0  0  0  0  0  0
   36.0360   24.8590   32.7480 H   0  0  0  0  0  0  0  0  0  0  0  0
   35.0420   20.8000   31.5760 C   0  0  0  0  0  0  0  0  0  0  0  0
   35.8900   21.8540   31.2770 C   0  0  0  0  0  0  0  0  0  0  0  0
   36.7470   22.3190   32.2570 C   0  0  0  0  0  0  0  0  0  0  0  0
   36.7100   21.7020   33.4880 N   0  0  0  0  0  0  0  0  0  0  0  0
   35.8750   20.6720   33.7680 C   0  0  0  0  0  0  0  0  0  0  0  0
   35.0250   20.2100   32.7970 N   0  0  0  0  0  0  0  0  0  0  0  0
   34.3780   20.4480   30.7930 H   0  0  0  0  0  0  0  0  0  0  0  0
   35.9430   22.3620   30.3310 H   0  0  0  0  0  0  0  0  0  0  0  0
   35.9420   20.2740   34.7720 H   0  0  0  0  0  0  0  0  0  0  0  0
   38.0380   24.5870   35.0340 O   0  0  0  0  0  0  0  0  0  0  0  0
   38.2210   24.6920   36.4110 C   0  0  0  0  0  2  0  0  0  0  0  0
   38.2150   23.3710   36.9830 N   0  0  0  0  0  4  0  0  0  0  0  0
   37.2720   22.9500   36.8630 H   0  0  0  0  0  0  0  0  0  0  0  0
   39.2230   22.5260   36.3610 C   0  0  0  0  0  2  0  0  0  0  0  0
   40.2040   22.9450   36.7160 H   0  0  0  0  0  0  0  0  0  0  0  0
   38.4870   23.4890   38.4130 C   0  0  0  0  0  2  0  0  0  0  0  0
   37.5760   23.2550   39.0060 H   0  0  0  0  0  0  0  0  0  0  0  0
  1  6  1  1  0  0  0
  1  5  1  0  0  0  0
  1 28  1  0  0  0  0
  2  7  1  6  0  0  0
  2  1  1  0  0  0  0
  3  2  1  0  0  0  0
  3  4  1  0  0  0  0
  4  5  1  0  0  0  0
  5 11  1  0  0  0  0
  5 10  1  0  0  0  0
  8  3  1  0  0  0  0
  9  3  1  0  0  0  0
 12 21  1  0  0  0  0
 12 15  1  1  0  0  0
 12 14  1  0  0  0  0
 13 12  1  0  0  0  0
 13 14  1  0  0  0  0
 14 18  1  1  0  0  0
 14  2  1  0  0  0  0
 16 13  1  0  0  0  0
 17 13  1  0  0  0  0
 19 24  1  0  0  0  0
 20 19  2  0  0  0  0
 20 21  1  0  0  0  0
 21 22  2  0  0  0  0
 22 23  1  0  0  0  0
 23 27  1  0  0  0  0
 24 23  2  0  0  0  0
 25 19  1  0  0  0  0
 26 20  1  0  0  0  0
 28 29  1  0  0  0  0
 29 30  1  0  0  0  0
 30 34  1  0  0  0  0
 31 30  1  0  0  0  0
 32 33  1  0  0  0  0
 32 30  1  0  0  0  0
 34 35  1  0  0  0  0
M  END
>  <minimizedAffinity>
-4.24686956

$$$$

 OpenBabel03262521363D

 35 37  0  0  1  0  0  0  0  0999 V2000
   37.1980   25.5300   32.3500 C   0  0  1  0  0  0  0  0  0  0  0  0
   37.6480   26.6220   33.2170 C   0  0  2  0  0  0  0  0  0  0  0  0
   38.5050   27.4760   32.2610 C   0  0  0  0  0  0  0  0  0  0  0  0
   39.1540   26.5120   31.5420 O   0  0  0  0  0  0  0  0  0  0  0  0
   38.3320   25.4310   31.3200 C   0  0  0  0  0  0  0  0  0  0  0  0
   36.2460   25.7970   31.8310 H   0  0  0  0  0  0  0  0  0  0  0  0
   36.8030   27.2820   33.4860 H   0  0  0  0  0  0  0  0  0  0  0  0
   39.2490   27.9790   32.9150 H   0  0  0  0  0  0  0  0  0  0  0  0
   37.8830   28.1630   31.6810 H   0  0  0  0  0  0  0  0  0  0  0  0
   38.8340   24.4520   31.4010 H   0  0  0  0  0  0  0  0  0  0  0  0
   37.8970   25.5300   30.3100 H   0  0  0  0  0  0  0  0  0  0  0  0
   37.7510   25.7890   35.6870 C   0  0  1  0  0  0  0  0  0  0  0  0
   38.2260   27.1470   35.6230 C   0  0  0  0  0  0  0  0  0  0  0  0
   38.4800   26.2220   34.4170 C   0  0  2  0  0  0  0  0  0  0  0  0
   36.6480   25.6040   35.5660 H   0  0  0  0  0  0  0  0  0  0  0  0
   37.5670   28.0080   35.5130 H   0  0  0  0  0  0  0  0  0  0  0  0
   39.1250   27.3840   36.2630 H   0  0  0  0  0  0  0  0  0  0  0  0
   39.4810   25.8580   34.2090 H   0  0  0  0  0  0  0  0  0  0  0  0
   38.7510   23.3460   38.3400 C   0  0  0  0  0  0  0  0  0  0  0  0
   38.0480   24.3400   37.6790 C   0  0  0  0  0  0  0  0  0  0  0  0
   38.4620   24.7230   36.4160 C   0  0  0  0  0  0  0  0  0  0  0  0
   39.5600   24.0880   35.8800 N   0  0  0  0  0  0  0  0  0  0  0  0
   40.2390   23.1160   36.5370 C   0  0  0  0  0  0  0  0  0  0  0  0
   39.8300   22.7360   37.7890 N   0  0  0  0  0  0  0  0  0  0  0  0
   38.4100   23.0590   39.3290 H   0  0  0  0  0  0  0  0  0  0  0  0
   37.1920   24.8610   38.0660 H   0  0  0  0  0  0  0  0  0  0  0  0
   41.0850   22.6960   36.0090 H   0  0  0  0  0  0  0  0  0  0  0  0
   37.0490   24.2920   32.9890 O   0  0  0  0  0  0  0  0  0  0  0  0
   37.8680   23.3340   32.3950 C   0  0  0  0  0  2  0  0  0  0  0  0
   38.4170   22.4890   33.4230 N   0  0  0  0  0  4  0  0  0  0  0  0
   38.9660   23.0710   34.0880 H   0  0  0  0  0  0  0  0  0  0  0  0
   37.3660   21.7760   34.1320 C   0  0  0  0  0  2  0  0  0  0  0  0
   36.9730   21.0330   33.3860 H   0  0  0  0  0  0  0  0  0  0  0  0
   39.3240   21.5320   32.7950 C   0  0  0  0  0  2  0  0  0  0  0  0
   40.3800   21.7630   33.0560 H   0  0  0  0  0  0  0  0  0  0  0  0
  1  6  1  6  0  0  0
  1 28  1  0  0  0  0
  1  2  1  0  0  0  0
  2  7  1  1  0  0  0
  2 14  1  0  0  0  0
  3  8  1  0  0  0  0
  3  2  1  0  0  0  0
  4  3  1  0  0  0  0
  5 10  1  0  0  0  0
  5  4  1  0  0  0  0
  5  1  1  0  0  0  0
  9  3  1  0  0  0  0
 11  5  1  0  0  0  0
 12 15  1  6  0  0  0
 12 21  1  0  0  0  0
 13 12  1  0  0  0  0
 13 17  1  0  0  0  0
 14 18  1  6  0  0  0
 14 13  1  0  0  0  0
 14 12  1  0  0  0  0
 16 13  1  0  0  0  0
 19 25  1  0  0  0  0
 20 26  1  0  0  0  0
 20 19  2  0  0  0  0
 21 20  1  0  0  0  0
 22 21  2  0  0  0  0
 22 23  1  0  0  0  0
 23 24  2  0  0  0  0
 24 19  1  0  0  0  0
 27 23  1  0  0  0  0
 29 28  1  0  0  0  0
 29 30  1  0  0  0  0
 30 31  1  0  0  0  0
 30 32  1  0  0  0  0
 33 32  1  0  0  0  0
 34 35  1  0  0  0  0
 34 30  1  0  0  0  0
M  END
>  <minimizedAffinity>
-4.20279169

$$$$

 OpenBabel03262521363D

 35 37  0  0  1  0  0  0  0  0999 V2000
   36.8990   26.4410   32.6040 C   0  0  1  0  0  0  0  0  0  0  0  0
   37.0880   26.9890   33.9500 C   0  0  2  0  0  0  0  0  0  0  0  0
   36.2810   28.3010   33.8920 C   0  0  0  0  0  0  0  0  0  0  0  0
   36.5820   28.7510   32.6380 O   0  0  0  0  0  0  0  0  0  0  0  0
   36.6920   27.7020   31.7550 C   0  0  0  0  0  0  0  0  0  0  0  0
   35.9810   25.8050   32.5570 H   0  0  0  0  0  0  0  0  0  0  0  0
   36.5560   26.3770   34.7020 H   0  0  0  0  0  0  0  0  0  0  0  0
   36.7730   28.9740   34.6270 H   0  0  0  0  0  0  0  0  0  0  0  0
   35.2220   28.1220   34.0910 H   0  0  0  0  0  0  0  0  0  0  0  0
   37.5110   27.8050   31.0230 H   0  0  0  0  0  0  0  0  0  0  0  0
   35.7350   27.6060   31.2120 H   0  0  0  0  0  0  0  0  0  0  0  0
   39.3270   26.1860   35.0200 C   0  0  1  0  0  0  0  0  0  0  0  0
   38.7190   27.1740   35.8750 C   0  0  0  0  0  0  0  0  0  0  0  0
   38.5150   27.2940   34.3520 C   0  0  2  0  0  0  0  0  0  0  0  0
   38.8650   25.1610   34.9770 H   0  0  0  0  0  0  0  0  0  0  0  0
   37.8650   26.9650   36.5180 H   0  0  0  0  0  0  0  0  0  0  0  0
   39.4240   27.9220   36.3410 H   0  0  0  0  0  0  0  0  0  0  0  0
   39.0150   28.0790   33.7940 H   0  0  0  0  0  0  0  0  0  0  0  0
   42.5760   27.1960   33.4600 C   0  0  0  0  0  0  0  0  0  0  0  0
   41.2340   27.2070   33.8050 C   0  0  0  0  0  0  0  0  0  0  0  0
   40.7520   26.2190   34.6430 C   0  0  0  0  0  0  0  0  0  0  0  0
   41.6420   25.2680   35.0930 N   0  0  0  0  0  0  0  0  0  0  0  0
   42.9530   25.2690   34.7470 C   0  0  0  0  0  0  0  0  0  0  0  0
   43.4310   26.2480   33.9160 N   0  0  0  0  0  0  0  0  0  0  0  0
   42.9350   27.9810   32.8020 H   0  0  0  0  0  0  0  0  0  0  0  0
   40.5100   27.9280   33.4700 H   0  0  0  0  0  0  0  0  0  0  0  0
   43.5480   24.4680   35.1660 H   0  0  0  0  0  0  0  0  0  0  0  0
   37.9910   25.7220   32.1010 O   0  0  0  0  0  0  0  0  0  0  0  0
   37.5550   24.6600   31.3130 C   0  0  0  0  0  2  0  0  0  0  0  0
   36.7270   23.7950   32.1120 N   0  0  0  0  0  4  0  0  0  0  0  0
   36.2460   24.3600   32.8410 H   0  0  0  0  0  0  0  0  0  0  0  0
   35.7470   23.1020   31.2900 C   0  0  0  0  0  2  0  0  0  0  0  0
   36.3500   22.3730   30.6830 H   0  0  0  0  0  0  0  0  0  0  0  0
   37.5870   22.8210   32.7780 C   0  0  0  0  0  2  0  0  0  0  0  0
   37.6390   23.0260   33.8700 H   0  0  0  0  0  0  0  0  0  0  0  0
  1  6  1  6  0  0  0
  1  2  1  0  0  0  0
  2 14  1  0  0  0  0
  2  7  1  1  0  0  0
  3  2  1  0  0  0  0
  3  9  1  0  0  0  0
  3  8  1  0  0  0  0
  4  3  1  0  0  0  0
  5  1  1  0  0  0  0
  5  4  1  0  0  0  0
 10  5  1  0  0  0  0
 11  5  1  0  0  0  0
 12 15  1  1  0  0  0
 12 13  1  0  0  0  0
 13 17  1  0  0  0  0
 13 16  1  0  0  0  0
 14 18  1  6  0  0  0
 14 12  1  0  0  0  0
 14 13  1  0  0  0  0
 19 20  2  0  0  0  0
 19 24  1  0  0  0  0
 20 21  1  0  0  0  0
 21 12  1  0  0  0  0
 21 22  2  0  0  0  0
 23 22  1  0  0  0  0
 23 27  1  0  0  0  0
 24 23  2  0  0  0  0
 25 19  1  0  0  0  0
 26 20  1  0  0  0  0
 28  1  1  0  0  0  0
 29 28  1  0  0  0  0
 29 30  1  0  0  0  0
 30 34  1  0  0  0  0
 30 31  1  0  0  0  0
 32 30  1  0  0  0  0
 33 32  1  0  0  0  0
 34 35  1  0  0  0  0
M  END
>  <minimizedAffinity>
-4.10877419

$$$$

 OpenBabel03262521363D

 35 37  0  0  1  0  0  0  0  0999 V2000
   37.0930   25.6010   31.9540 C   0  0  1  0  0  0  0  0  0  0  0  0
   38.1000   24.5390   31.8780 C   0  0  2  0  0  0  0  0  0  0  0  0
   37.5480   23.6370   30.7560 C   0  0  0  0  0  0  0  0  0  0  0  0
   36.2100   23.6510   31.0290 O   0  0  0  0  0  0  0  0  0  0  0  0
   35.8170   24.8880   31.4890 C   0  0  0  0  0  0  0  0  0  0  0  0
   37.3340   26.4320   31.2480 H   0  0  0  0  0  0  0  0  0  0  0  0
   39.0510   24.9290   31.4680 H   0  0  0  0  0  0  0  0  0  0  0  0
   37.9370   22.6220   30.9870 H   0  0  0  0  0  0  0  0  0  0  0  0
   37.8360   24.0110   29.7700 H   0  0  0  0  0  0  0  0  0  0  0  0
   35.0790   24.8570   32.3080 H   0  0  0  0  0  0  0  0  0  0  0  0
   35.3900   25.4510   30.6410 H   0  0  0  0  0  0  0  0  0  0  0  0
   39.4780   24.0640   34.0410 C   0  0  1  0  0  0  0  0  0  0  0  0
   39.6480   22.9710   33.1190 C   0  0  0  0  0  0  0  0  0  0  0  0
   38.3010   23.7170   33.1320 C   0  0  2  0  0  0  0  0  0  0  0  0
   39.9880   25.0400   33.8110 H   0  0  0  0  0  0  0  0  0  0  0  0
   40.2860   23.0250   32.2370 H   0  0  0  0  0  0  0  0  0  0  0  0
   39.6480   21.9390   33.5750 H   0  0  0  0  0  0  0  0  0  0  0  0
   37.4160   23.2390   33.5410 H   0  0  0  0  0  0  0  0  0  0  0  0
   37.8620   24.3380   37.4050 C   0  0  0  0  0  0  0  0  0  0  0  0
   38.1100   24.5330   36.0560 C   0  0  0  0  0  0  0  0  0  0  0  0
   39.1710   23.8690   35.4700 C   0  0  0  0  0  0  0  0  0  0  0  0
   39.9310   23.0420   36.2670 N   0  0  0  0  0  0  0  0  0  0  0  0
   39.6780   22.8590   37.5860 C   0  0  0  0  0  0  0  0  0  0  0  0
   38.6260   23.5170   38.1680 N   0  0  0  0  0  0  0  0  0  0  0  0
   37.0240   24.8670   37.8470 H   0  0  0  0  0  0  0  0  0  0  0  0
   37.5430   25.1740   35.4050 H   0  0  0  0  0  0  0  0  0  0  0  0
   40.3480   22.1850   38.1020 H   0  0  0  0  0  0  0  0  0  0  0  0
   36.8850   26.1240   33.2370 O   0  0  0  0  0  0  0  0  0  0  0  0
   37.2430   27.4700   33.2800 C   0  0  0  0  0  2  0  0  0  0  0  0
   36.0690   28.2720   33.0550 N   0  0  0  0  0  4  0  0  0  0  0  0
   35.2900   27.6590   32.7410 H   0  0  0  0  0  0  0  0  0  0  0  0
   35.6860   28.9900   34.2610 C   0  0  0  0  0  2  0  0  0  0  0  0
   36.4900   29.7630   34.3990 H   0  0  0  0  0  0  0  0  0  0  0  0
   36.3620   29.2250   31.9870 C   0  0  0  0  0  2  0  0  0  0  0  0
   35.8030   28.9610   31.0620 H   0  0  0  0  0  0  0  0  0  0  0  0
  1  6  1  6  0  0  0
  1 28  1  0  0  0  0
  2  7  1  6  0  0  0
  2  1  1  0  0  0  0
  2 14  1  0  0  0  0
  3  8  1  0  0  0  0
  3  4  1  0  0  0  0
  3  2  1  0  0  0  0
  4  5  1  0  0  0  0
  5  1  1  0  0  0  0
  5 10  1  0  0  0  0
  9  3  1  0  0  0  0
 11  5  1  0  0  0  0
 12 15  1  6  0  0  0
 12 21  1  0  0  0  0
 13 14  1  0  0  0  0
 13 17  1  0  0  0  0
 13 12  1  0  0  0  0
 14 18  1  1  0  0  0
 14 12  1  0  0  0  0
 16 13  1  0  0  0  0
 19 25  1  0  0  0  0
 19 24  1  0  0  0  0
 20 19  2  0  0  0  0
 21 20  1  0  0  0  0
 21 22  2  0  0  0  0
 22 23  1  0  0  0  0
 23 27  1  0  0  0  0
 23 24  2  0  0  0  0
 26 20  1  0  0  0  0
 28 29  1  0  0  0  0
 30 29  1  0  0  0  0
 30 32  1  0  0  0  0
 31 30  1  0  0  0  0
 32 33  1  0  0  0  0
 34 30  1  0  0  0  0
 35 34  1  0  0  0  0
M  END
>  <minimizedAffinity>
-4.05800438

$$$$

 OpenBabel03262521363D

 35 37  0  0  1  0  0  0  0  0999 V2000
   36.0810   27.2820   31.1760 C   0  0  1  0  0  0  0  0  0  0  0  0
   36.0540   28.0290   32.4360 C   0  0  2  0  0  0  0  0  0  0  0  0
   36.0600   29.4940   31.9560 C   0  0  0  0  0  0  0  0  0  0  0  0
   36.9390   29.4350   30.9130 O   0  0  0  0  0  0  0  0  0  0  0  0
   36.8100   28.2460   30.2310 C   0  0  0  0  0  0  0  0  0  0  0  0
   35.0470   27.1000   30.7960 H   0  0  0  0  0  0  0  0  0  0  0  0
   35.0760   27.9130   32.9400 H   0  0  0  0  0  0  0  0  0  0  0  0
   36.5400   30.0640   32.7810 H   0  0  0  0  0  0  0  0  0  0  0  0
   35.0510   29.8320   31.7090 H   0  0  0  0  0  0  0  0  0  0  0  0
   37.7660   27.8040   29.9000 H   0  0  0  0  0  0  0  0  0  0  0  0
   36.1710   28.4230   29.3480 H   0  0  0  0  0  0  0  0  0  0  0  0
   37.0980   26.6990   34.4220 C   0  0  1  0  0  0  0  0  0  0  0  0
   36.8330   28.0510   34.8430 C   0  0  0  0  0  0  0  0  0  0  0  0
   37.2210   27.8010   33.3730 C   0  0  2  0  0  0  0  0  0  0  0  0
   36.2250   26.0020   34.2850 H   0  0  0  0  0  0  0  0  0  0  0  0
   35.8350   28.4190   35.0820 H   0  0  0  0  0  0  0  0  0  0  0  0
   37.6240   28.5280   35.4900 H   0  0  0  0  0  0  0  0  0  0  0  0
   38.1970   28.1020   33.0070 H   0  0  0  0  0  0  0  0  0  0  0  0
   40.7580   26.0170   34.8060 C   0  0  0  0  0  0  0  0  0  0  0  0
   39.5740   26.6980   34.5710 C   0  0  0  0  0  0  0  0  0  0  0  0
   38.3780   26.0140   34.6810 C   0  0  0  0  0  0  0  0  0  0  0  0
   38.4300   24.6800   35.0210 N   0  0  0  0  0  0  0  0  0  0  0  0
   39.5940   24.0250   35.2480 C   0  0  0  0  0  0  0  0  0  0  0  0
   40.7810   24.7020   35.1400 N   0  0  0  0  0  0  0  0  0  0  0  0
   41.6860   26.5710   34.7160 H   0  0  0  0  0  0  0  0  0  0  0  0
   39.4960   27.7350   34.2990 H   0  0  0  0  0  0  0  0  0  0  0  0
   39.5010   22.9790   35.5070 H   0  0  0  0  0  0  0  0  0  0  0  0
   36.7810   26.0700   31.2230 O   0  0  0  0  0  0  0  0  0  0  0  0
   35.8950   24.9970   31.2990 C   0  0  0  0  0  2  0  0  0  0  0  0
   36.5450   23.9030   31.9720 N   0  0  0  0  0  4  0  0  0  0  0  0
   36.5240   24.0710   32.9980 H   0  0  0  0  0  0  0  0  0  0  0  0
   35.8990   22.6380   31.6590 C   0  0  0  0  0  2  0  0  0  0  0  0
   36.1520   22.4480   30.5800 H   0  0  0  0  0  0  0  0  0  0  0  0
   37.9400   23.8630   31.5420 C   0  0  0  0  0  2  0  0  0  0  0  0
   38.6140   24.1750   32.3700 H   0  0  0  0  0  0  0  0  0  0  0  0
  1  6  1  6  0  0  0
  1 28  1  0  0  0  0
  1  2  1  0  0  0  0
  2  7  1  1  0  0  0
  2 14  1  0  0  0  0
  3  2  1  0  0  0  0
  3  8  1  0  0  0  0
  4  3  1  0  0  0  0
  5  4  1  0  0  0  0
  5  1  1  0  0  0  0
  9  3  1  0  0  0  0
 10  5  1  0  0  0  0
 11  5  1  0  0  0  0
 12 15  1  6  0  0  0
 12 21  1  0  0  0  0
 12 13  1  0  0  0  0
 13 16  1  0  0  0  0
 13 17  1  0  0  0  0
 14 18  1  6  0  0  0
 14 12  1  0  0  0  0
 14 13  1  0  0  0  0
 19 24  1  0  0  0  0
 20 21  1  0  0  0  0
 20 19  2  0  0  0  0
 21 22  2  0  0  0  0
 22 23  1  0  0  0  0
 23 27  1  0  0  0  0
 24 23  2  0  0  0  0
 25 19  1  0  0  0  0
 26 20  1  0  0  0  0
 28 29  1  0  0  0  0
 29 30  1  0  0  0  0
 30 31  1  0  0  0  0
 32 30  1  0  0  0  0
 33 32  1  0  0  0  0
 34 30  1  0  0  0  0
 34 35  1  0  0  0  0
M  END
>  <minimizedAffinity>
-4.03549719

$$$$

 OpenBabel03262521363D

 35 37  0  0  1  0  0  0  0  0999 V2000
   38.4530   26.6810   34.0110 C   0  0  1  0  0  0  0  0  0  0  0  0
   37.5960   26.9060   32.8430 C   0  0  2  0  0  0  0  0  0  0  0  0
   36.6790   28.0500   33.3180 C   0  0  0  0  0  0  0  0  0  0  0  0
   36.4350   27.6860   34.6120 O   0  0  0  0  0  0  0  0  0  0  0  0
   37.5510   27.1100   35.1760 C   0  0  0  0  0  0  0  0  0  0  0  0
   39.3550   27.3390   33.9770 H   0  0  0  0  0  0  0  0  0  0  0  0
   38.1750   27.3500   32.0120 H   0  0  0  0  0  0  0  0  0  0  0  0
   35.7380   27.9220   32.7400 H   0  0  0  0  0  0  0  0  0  0  0  0
   37.1580   29.0230   33.1810 H   0  0  0  0  0  0  0  0  0  0  0  0
   37.3380   26.2460   35.8280 H   0  0  0  0  0  0  0  0  0  0  0  0
   38.0790   27.8820   35.7620 H   0  0  0  0  0  0  0  0  0  0  0  0
   37.0990   25.0470   31.0820 C   0  0  1  0  0  0  0  0  0  0  0  0
   36.0310   26.0140   31.0670 C   0  0  0  0  0  0  0  0  0  0  0  0
   36.7490   25.7320   32.4010 C   0  0  2  0  0  0  0  0  0  0  0  0
   38.0910   25.3410   30.6390 H   0  0  0  0  0  0  0  0  0  0  0  0
   36.1200   26.9970   30.6050 H   0  0  0  0  0  0  0  0  0  0  0  0
   34.9890   25.5940   30.9670 H   0  0  0  0  0  0  0  0  0  0  0  0
   36.2430   25.1800   33.1870 H   0  0  0  0  0  0  0  0  0  0  0  0
   35.4740   21.7130   31.5840 C   0  0  0  0  0  0  0  0  0  0  0  0
   35.6520   23.0870   31.5500 C   0  0  0  0  0  0  0  0  0  0  0  0
   36.8640   23.5920   31.1160 C   0  0  0  0  0  0  0  0  0  0  0  0
   37.8360   22.6920   30.7380 N   0  0  0  0  0  0  0  0  0  0  0  0
   37.6490   21.3510   30.7760 C   0  0  0  0  0  0  0  0  0  0  0  0
   36.4480   20.8490   31.2060 N   0  0  0  0  0  0  0  0  0  0  0  0
   34.5160   21.3370   31.9260 H   0  0  0  0  0  0  0  0  0  0  0  0
   34.9200   23.8180   31.8420 H   0  0  0  0  0  0  0  0  0  0  0  0
   38.4900   20.7510   30.4540 H   0  0  0  0  0  0  0  0  0  0  0  0
   38.8510   25.3530   34.2030 O   0  0  0  0  0  0  0  0  0  0  0  0
   38.7390   24.9980   35.5460 C   0  0  0  0  0  2  0  0  0  0  0  0
   38.7880   23.5640   35.6550 N   0  0  0  0  0  4  0  0  0  0  0  0
   39.7710   23.2670   35.8200 H   0  0  0  0  0  0  0  0  0  0  0  0
   37.9350   23.0910   36.7350 C   0  0  0  0  0  2  0  0  0  0  0  0
   36.8880   23.2740   36.3700 H   0  0  0  0  0  0  0  0  0  0  0  0
   38.3420   22.9910   34.3880 C   0  0  0  0  0  2  0  0  0  0  0  0
   39.1950   22.5240   33.8470 H   0  0  0  0  0  0  0  0  0  0  0  0
  1  6  1  6  0  0  0
  1 28  1  0  0  0  0
  1  5  1  0  0  0  0
  2  7  1  6  0  0  0
  2  3  1  0  0  0  0
  2  1  1  0  0  0  0
  3  4  1  0  0  0  0
  4  5  1  0  0  0  0
  5 11  1  0  0  0  0
  5 10  1  0  0  0  0
  8  3  1  0  0  0  0
  9  3  1  0  0  0  0
 12 15  1  6  0  0  0
 12 21  1  0  0  0  0
 12 14  1  0  0  0  0
 13 12  1  0  0  0  0
 13 14  1  0  0  0  0
 14  2  1  0  0  0  0
 14 18  1  1  0  0  0
 16 13  1  0  0  0  0
 17 13  1  0  0  0  0
 19 25  1  0  0  0  0
 20 19  1  0  0  0  0
 20 26  1  0  0  0  0
 21 20  2  0  0  0  0
 22 23  2  0  0  0  0
 22 21  1  0  0  0  0
 23 24  1  0  0  0  0
 24 19  2  0  0  0  0
 27 23  1  0  0  0  0
 28 29  1  0  0  0  0
 29 30  1  0  0  0  0
 30 31  1  0  0  0  0
 30 32  1  0  0  0  0
 33 32  1  0  0  0  0
 34 30  1  0  0  0  0
 35 34  1  0  0  0  0
M  END
>  <minimizedAffinity>
-4.00220156

$$$$

 OpenBabel03262521363D

 35 37  0  0  1  0  0  0  0  0999 V2000
   37.6650   24.7420   31.7930 C   0  0  1  0  0  0  0  0  0  0  0  0
   37.7340   23.2820   31.9000 C   0  0  2  0  0  0  0  0  0  0  0  0
   36.4120   22.8370   31.2450 C   0  0  0  0  0  0  0  0  0  0  0  0
   35.5420   23.7790   31.7180 O   0  0  0  0  0  0  0  0  0  0  0  0
   36.1540   25.0080   31.8080 C   0  0  0  0  0  0  0  0  0  0  0  0
   38.0960   25.0930   30.8250 H   0  0  0  0  0  0  0  0  0  0  0  0
   38.5170   22.8770   31.2330 H   0  0  0  0  0  0  0  0  0  0  0  0
   36.1650   21.8660   31.7260 H   0  0  0  0  0  0  0  0  0  0  0  0
   36.5080   22.7840   30.1570 H   0  0  0  0  0  0  0  0  0  0  0  0
   35.8800   25.5900   32.7040 H   0  0  0  0  0  0  0  0  0  0  0  0
   35.8920   25.5900   30.9060 H   0  0  0  0  0  0  0  0  0  0  0  0
   39.1710   22.7300   34.0060 C   0  0  1  0  0  0  0  0  0  0  0  0
   38.7590   21.5020   33.3770 C   0  0  0  0  0  0  0  0  0  0  0  0
   37.8160   22.7180   33.3020 C   0  0  2  0  0  0  0  0  0  0  0  0
   39.9660   23.3470   33.5030 H   0  0  0  0  0  0  0  0  0  0  0  0
   39.2120   21.1160   32.4640 H   0  0  0  0  0  0  0  0  0  0  0  0
   38.4440   20.6730   34.0750 H   0  0  0  0  0  0  0  0  0  0  0  0
   36.8980   22.7340   33.8810 H   0  0  0  0  0  0  0  0  0  0  0  0
   39.8720   22.7160   37.6820 C   0  0  0  0  0  0  0  0  0  0  0  0
   40.0220   22.4880   36.3240 C   0  0  0  0  0  0  0  0  0  0  0  0
   39.0560   22.9670   35.4570 C   0  0  0  0  0  0  0  0  0  0  0  0
   37.9890   23.6490   35.9980 N   0  0  0  0  0  0  0  0  0  0  0  0
   37.8550   23.8640   37.3290 C   0  0  0  0  0  0  0  0  0  0  0  0
   38.8110   23.3910   38.1890 N   0  0  0  0  0  0  0  0  0  0  0  0
   40.6410   22.3340   38.3460 H   0  0  0  0  0  0  0  0  0  0  0  0
   40.8370   21.9560   35.8670 H   0  0  0  0  0  0  0  0  0  0  0  0
   36.9710   24.4130   37.6280 H   0  0  0  0  0  0  0  0  0  0  0  0
   38.2640   25.4390   32.8500 O   0  0  0  0  0  0  0  0  0  0  0  0
   37.3210   26.2150   33.5200 C   0  0  0  0  0  2  0  0  0  0  0  0
   37.8660   26.6190   34.7900 N   0  0  0  0  0  4  0  0  0  0  0  0
   37.6150   25.9130   35.5100 H   0  0  0  0  0  0  0  0  0  0  0  0
   39.3120   26.7660   34.7160 C   0  0  0  0  0  2  0  0  0  0  0  0
   39.4730   27.6770   34.0780 H   0  0  0  0  0  0  0  0  0  0  0  0
   37.2600   27.8940   35.1650 C   0  0  0  0  0  2  0  0  0  0  0  0
   36.5630   27.7590   36.0220 H   0  0  0  0  0  0  0  0  0  0  0  0
  1  6  1  6  0  0  0
  1  5  1  0  0  0  0
  1  2  1  0  0  0  0
  1 28  1  0  0  0  0
  2  7  1  6  0  0  0
  2 14  1  0  0  0  0
  3  4  1  0  0  0  0
  3  8  1  0  0  0  0
  3  2  1  0  0  0  0
  4  5  1  0  0  0  0
  5 10  1  0  0  0  0
  9  3  1  0  0  0  0
 11  5  1  0  0  0  0
 12 15  1  6  0  0  0
 12 21  1  0  0  0  0
 13 12  1  0  0  0  0
 13 17  1  0  0  0  0
 14 13  1  0  0  0  0
 14 18  1  1  0  0  0
 14 12  1  0  0  0  0
 16 13  1  0  0  0  0
 19 24  1  0  0  0  0
 19 25  1  0  0  0  0
 20 19  2  0  0  0  0
 21 22  2  0  0  0  0
 21 20  1  0  0  0  0
 22 23  1  0  0  0  0
 23 27  1  0  0  0  0
 23 24  2  0  0  0  0
 26 20  1  0  0  0  0
 28 29  1  0  0  0  0
 29 30  1  0  0  0  0
 30 34  1  0  0  0  0
 30 31  1  0  0  0  0
 32 30  1  0  0  0  0
 33 32  1  0  0  0  0
 34 35  1  0  0  0  0
M  END
>  <minimizedAffinity>
-3.97254276

$$$$
