
 OpenBabel03272508293D

 36 38  0  0  1  0  0  0  0  0999 V2000
   35.2810   25.4050   31.1000 C   0  0  2  0  0  0  0  0  0  0  0  0
   36.4610   26.3470   31.1280 C   0  0  2  0  0  0  0  0  0  0  0  0
   37.3150   25.8310   32.0510 O   0  0  0  0  0  0  0  0  0  0  0  0
   37.0890   24.4930   32.2480 C   0  0  0  0  0  0  0  0  0  0  0  0
   35.9810   24.0680   31.2830 C   0  0  1  0  0  0  0  0  0  0  0  0
   34.6410   25.5160   32.0080 H   0  0  0  0  0  0  0  0  0  0  0  0
   36.9280   26.3310   30.1350 H   0  0  0  0  0  0  0  0  0  0  0  0
   37.9830   23.8720   32.1600 H   0  0  0  0  0  0  0  0  0  0  0  0
   36.6700   24.3550   33.2720 H   0  0  0  0  0  0  0  0  0  0  0  0
   36.5330   23.8020   30.3470 H   0  0  0  0  0  0  0  0  0  0  0  0
   36.1810   28.2790   32.8420 C   0  0  1  0  0  0  0  0  0  0  0  0
   35.9500   27.6940   31.5410 C   0  0  1  0  0  0  0  0  0  0  0  0
   36.8320   28.8970   31.5940 C   0  0  0  0  0  0  0  0  0  0  0  0
   36.9600   28.0060   33.5840 H   0  0  0  0  0  0  0  0  0  0  0  0
   34.9250   27.8880   31.1080 H   0  0  0  0  0  0  0  0  0  0  0  0
   37.9240   28.7730   31.4500 H   0  0  0  0  0  0  0  0  0  0  0  0
   36.4410   29.8550   31.2110 H   0  0  0  0  0  0  0  0  0  0  0  0
   35.1660   29.2160   33.4670 C   0  0  0  0  0  0  0  0  0  0  0  0
   35.5830   29.9860   34.5560 C   0  0  0  0  0  0  0  0  0  0  0  0
   34.6100   30.8070   35.1070 C   0  0  0  0  0  0  0  0  0  0  0  0
   33.3360   30.8380   34.5990 N   0  0  0  0  0  0  0  0  0  0  0  0
   32.9770   30.0700   33.5380 C   0  0  0  0  0  0  0  0  0  0  0  0
   33.9010   29.2550   32.9710 N   0  0  0  0  0  0  0  0  0  0  0  0
   36.5760   29.9530   34.9420 H   0  0  0  0  0  0  0  0  0  0  0  0
   34.8160   31.4470   35.9520 H   0  0  0  0  0  0  0  0  0  0  0  0
   31.9870   30.0760   33.1200 H   0  0  0  0  0  0  0  0  0  0  0  0
   34.5500   25.4400   29.9430 O   0  0  0  0  0  0  0  0  0  0  0  0
   33.5950   25.3080   30.1770 H   0  0  0  0  0  0  0  0  0  0  0  0
   35.1920   23.0840   31.7920 O   0  0  0  0  0  0  0  0  0  0  0  0
   35.6070   21.8110   31.4850 C   0  0  0  0  0  2  0  0  0  0  0  0
   35.0480   20.7460   32.2610 N   0  0  0  0  0  4  0  0  0  0  0  0
   34.0100   20.9100   32.3460 H   0  0  0  0  0  0  0  0  0  0  0  0
   35.6060   20.7470   33.6310 C   0  0  0  0  0  2  0  0  0  0  0  0
   36.6960   20.6680   33.5590 H   0  0  0  0  0  0  0  0  0  0  0  0
   35.3150   19.4260   31.7450 C   0  0  0  0  0  2  0  0  0  0  0  0
   35.6990   18.7200   32.5390 H   0  0  0  0  0  0  0  0  0  0  0  0
  1  2  1  0  0  0  0
  1  5  1  0  0  0  0
  1  6  1  1  0  0  0
  2  7  1  6  0  0  0
  2 12  1  0  0  0  0
  2  3  1  0  0  0  0
  3  4  1  0  0  0  0
  4  9  1  0  0  0  0
  5 10  1  6  0  0  0
  5 29  1  0  0  0  0
  5  4  1  0  0  0  0
  8  4  1  0  0  0  0
 11 18  1  0  0  0  0
 11 14  1  1  0  0  0
 12 15  1  6  0  0  0
 12 13  1  0  0  0  0
 12 11  1  0  0  0  0
 13 11  1  0  0  0  0
 16 13  1  0  0  0  0
 17 13  1  0  0  0  0
 18 19  1  0  0  0  0
 19 24  1  0  0  0  0
 19 20  2  0  0  0  0
 20 25  1  0  0  0  0
 21 20  1  0  0  0  0
 22 21  2  0  0  0  0
 23 18  2  0  0  0  0
 23 22  1  0  0  0  0
 26 22  1  0  0  0  0
 27 28  1  0  0  0  0
 27  1  1  0  0  0  0
 30 29  1  0  0  0  0
 30 31  1  0  0  0  0
 31 32  1  0  0  0  0
 31 33  1  0  0  0  0
 34 33  1  0  0  0  0
 35 31  1  0  0  0  0
 35 36  1  0  0  0  0
M  END
>  <minimizedAffinity>
-4.69453907

$$$$

 OpenBabel03272508293D

 36 38  0  0  1  0  0  0  0  0999 V2000
   36.0970   26.8660   31.1510 C   0  0  2  0  0  0  0  0  0  0  0  0
   36.6970   27.6190   32.3160 C   0  0  2  0  0  0  0  0  0  0  0  0
   36.9140   26.6830   33.2780 O   0  0  0  0  0  0  0  0  0  0  0  0
   36.9980   25.4250   32.7420 C   0  0  0  0  0  0  0  0  0  0  0  0
   36.8780   25.5640   31.2240 C   0  0  1  0  0  0  0  0  0  0  0  0
   35.0380   26.5730   31.3500 H   0  0  0  0  0  0  0  0  0  0  0  0
   37.6520   28.0450   31.9850 H   0  0  0  0  0  0  0  0  0  0  0  0
   37.8890   24.8700   33.0430 H   0  0  0  0  0  0  0  0  0  0  0  0
   36.1020   24.8450   33.0660 H   0  0  0  0  0  0  0  0  0  0  0  0
   37.9320   25.7390   30.8900 H   0  0  0  0  0  0  0  0  0  0  0  0
   35.9140   29.5800   33.8300 C   0  0  1  0  0  0  0  0  0  0  0  0
   35.6920   28.6390   32.7560 C   0  0  1  0  0  0  0  0  0  0  0  0
   35.8040   30.0790   32.3810 C   0  0  0  0  0  0  0  0  0  0  0  0
   36.8840   29.8950   34.2700 H   0  0  0  0  0  0  0  0  0  0  0  0
   34.6420   28.2240   32.6980 H   0  0  0  0  0  0  0  0  0  0  0  0
   36.7220   30.4350   31.8710 H   0  0  0  0  0  0  0  0  0  0  0  0
   34.8910   30.6180   32.0730 H   0  0  0  0  0  0  0  0  0  0  0  0
   34.7650   30.0760   34.6840 C   0  0  0  0  0  0  0  0  0  0  0  0
   35.0020   31.1770   35.5110 C   0  0  0  0  0  0  0  0  0  0  0  0
   33.9260   31.5750   36.2900 C   0  0  0  0  0  0  0  0  0  0  0  0
   32.7250   30.9150   36.2330 N   0  0  0  0  0  0  0  0  0  0  0  0
   32.5420   29.8480   35.4120 C   0  0  0  0  0  0  0  0  0  0  0  0
   33.5700   29.4290   34.6340 N   0  0  0  0  0  0  0  0  0  0  0  0
   35.9400   31.6830   35.5470 H   0  0  0  0  0  0  0  0  0  0  0  0
   33.9920   32.4140   36.9670 H   0  0  0  0  0  0  0  0  0  0  0  0
   31.6110   29.3130   35.3480 H   0  0  0  0  0  0  0  0  0  0  0  0
   36.2480   27.4810   29.9380 O   0  0  0  0  0  0  0  0  0  0  0  0
   35.4320   27.3070   29.4010 H   0  0  0  0  0  0  0  0  0  0  0  0
   36.2550   24.5010   30.6470 O   0  0  0  0  0  0  0  0  0  0  0  0
   35.6530   23.6470   31.5370 C   0  0  0  0  0  2  0  0  0  0  0  0
   35.7470   22.2480   31.2530 N   0  0  0  0  0  4  0  0  0  0  0  0
   35.1780   22.0480   30.3880 H   0  0  0  0  0  0  0  0  0  0  0  0
   35.1660   21.4490   32.3540 C   0  0  0  0  0  2  0  0  0  0  0  0
   35.6870   21.7100   33.2810 H   0  0  0  0  0  0  0  0  0  0  0  0
   37.0950   21.7580   31.1020 C   0  0  0  0  0  2  0  0  0  0  0  0
   37.2880   20.8240   31.7070 H   0  0  0  0  0  0  0  0  0  0  0  0
  1  5  1  0  0  0  0
  1  6  1  1  0  0  0
  1  2  1  0  0  0  0
  2  7  1  6  0  0  0
  2 12  1  0  0  0  0
  2  3  1  0  0  0  0
  4  8  1  0  0  0  0
  4  9  1  0  0  0  0
  4  3  1  0  0  0  0
  5 10  1  6  0  0  0
  5  4  1  0  0  0  0
 11 14  1  1  0  0  0
 11 18  1  0  0  0  0
 12 15  1  6  0  0  0
 12 11  1  0  0  0  0
 13 12  1  0  0  0  0
 13 11  1  0  0  0  0
 16 13  1  0  0  0  0
 17 13  1  0  0  0  0
 18 19  1  0  0  0  0
 19 24  1  0  0  0  0
 19 20  2  0  0  0  0
 20 25  1  0  0  0  0
 21 20  1  0  0  0  0
 22 21  2  0  0  0  0
 23 18  2  0  0  0  0
 23 22  1  0  0  0  0
 26 22  1  0  0  0  0
 27  1  1  0  0  0  0
 28 27  1  0  0  0  0
 29  5  1  0  0  0  0
 29 30  1  0  0  0  0
 31 30  1  0  0  0  0
 31 33  1  0  0  0  0
 32 31  1  0  0  0  0
 33 34  1  0  0  0  0
 35 31  1  0  0  0  0
 35 36  1  0  0  0  0
M  END
>  <minimizedAffinity>
-4.66736889

$$$$

 OpenBabel03272508293D

 36 38  0  0  1  0  0  0  0  0999 V2000
   37.8650   26.9100   33.0920 C   0  0  2  0  0  0  0  0  0  0  0  0
   39.2250   27.3820   33.5510 C   0  0  2  0  0  0  0  0  0  0  0  0
   40.0610   27.1510   32.5040 O   0  0  0  0  0  0  0  0  0  0  0  0
   39.3700   27.0650   31.3230 C   0  0  0  0  0  0  0  0  0  0  0  0
   37.8970   27.3330   31.6320 C   0  0  1  0  0  0  0  0  0  0  0  0
   37.8030   25.7950   33.0630 H   0  0  0  0  0  0  0  0  0  0  0  0
   39.1580   28.4590   33.7480 H   0  0  0  0  0  0  0  0  0  0  0  0
   39.7570   27.7120   30.5330 H   0  0  0  0  0  0  0  0  0  0  0  0
   39.4190   26.0110   30.9640 H   0  0  0  0  0  0  0  0  0  0  0  0
   37.8100   28.4460   31.5620 H   0  0  0  0  0  0  0  0  0  0  0  0
   39.5140   25.1220   34.8020 C   0  0  1  0  0  0  0  0  0  0  0  0
   39.6030   26.5640   34.7490 C   0  0  1  0  0  0  0  0  0  0  0  0
   40.8890   25.8110   34.8240 C   0  0  0  0  0  0  0  0  0  0  0  0
   39.4580   24.4120   33.9510 H   0  0  0  0  0  0  0  0  0  0  0  0
   39.3170   27.0920   35.7060 H   0  0  0  0  0  0  0  0  0  0  0  0
   41.5300   25.7440   33.9220 H   0  0  0  0  0  0  0  0  0  0  0  0
   41.4570   25.8290   35.7700 H   0  0  0  0  0  0  0  0  0  0  0  0
   39.2250   24.4050   36.1050 C   0  0  0  0  0  0  0  0  0  0  0  0
   38.1640   24.8790   36.8810 C   0  0  0  0  0  0  0  0  0  0  0  0
   37.9570   24.2050   38.0760 C   0  0  0  0  0  0  0  0  0  0  0  0
   38.7550   23.1510   38.4430 N   0  0  0  0  0  0  0  0  0  0  0  0
   39.7760   22.7260   37.6550 C   0  0  0  0  0  0  0  0  0  0  0  0
   40.0080   23.3590   36.4780 N   0  0  0  0  0  0  0  0  0  0  0  0
   37.5510   25.6990   36.5850 H   0  0  0  0  0  0  0  0  0  0  0  0
   37.1670   24.4830   38.7570 H   0  0  0  0  0  0  0  0  0  0  0  0
   40.4150   21.9020   37.9190 H   0  0  0  0  0  0  0  0  0  0  0  0
   36.8110   27.4720   33.7610 O   0  0  0  0  0  0  0  0  0  0  0  0
   36.1030   26.7830   33.8530 H   0  0  0  0  0  0  0  0  0  0  0  0
   37.0560   26.6330   30.8250 O   0  0  0  0  0  0  0  0  0  0  0  0
   37.1990   25.2690   30.9060 C   0  0  0  0  0  2  0  0  0  0  0  0
   36.0270   24.4830   30.6720 N   0  0  0  0  0  4  0  0  0  0  0  0
   36.0390   24.1630   29.6670 H   0  0  0  0  0  0  0  0  0  0  0  0
   34.8050   25.2950   30.8580 C   0  0  0  0  0  2  0  0  0  0  0  0
   34.8190   25.7110   31.8710 H   0  0  0  0  0  0  0  0  0  0  0  0
   35.8720   23.3590   31.5630 C   0  0  0  0  0  2  0  0  0  0  0  0
   34.8370   23.3020   32.0130 H   0  0  0  0  0  0  0  0  0  0  0  0
  1  6  1  1  0  0  0
  1  2  1  0  0  0  0
  1 27  1  0  0  0  0
  2  7  1  1  0  0  0
  2 12  1  0  0  0  0
  3  2  1  0  0  0  0
  4  5  1  0  0  0  0
  4  3  1  0  0  0  0
  5 10  1  6  0  0  0
  5  1  1  0  0  0  0
  8  4  1  0  0  0  0
  9  4  1  0  0  0  0
 11 14  1  6  0  0  0
 11 13  1  0  0  0  0
 11 18  1  0  0  0  0
 12 11  1  0  0  0  0
 12 13  1  0  0  0  0
 12 15  1  1  0  0  0
 13 17  1  0  0  0  0
 16 13  1  0  0  0  0
 18 23  2  0  0  0  0
 18 19  1  0  0  0  0
 19 20  2  0  0  0  0
 20 21  1  0  0  0  0
 20 25  1  0  0  0  0
 22 26  1  0  0  0  0
 22 21  2  0  0  0  0
 23 22  1  0  0  0  0
 24 19  1  0  0  0  0
 27 28  1  0  0  0  0
 29 30  1  0  0  0  0
 29  5  1  0  0  0  0
 31 33  1  0  0  0  0
 31 30  1  0  0  0  0
 31 35  1  0  0  0  0
 32 31  1  0  0  0  0
 33 34  1  0  0  0  0
 35 36  1  0  0  0  0
M  END
>  <minimizedAffinity>
-4.5815897

$$$$

 OpenBabel03272508293D

 36 38  0  0  1  0  0  0  0  0999 V2000
   37.5610   25.6100   34.0160 C   0  0  2  0  0  0  0  0  0  0  0  0
   37.7600   27.0790   33.7220 C   0  0  2  0  0  0  0  0  0  0  0  0
   37.8210   27.6870   34.9360 O   0  0  0  0  0  0  0  0  0  0  0  0
   38.1730   26.8000   35.9210 C   0  0  0  0  0  0  0  0  0  0  0  0
   38.4320   25.4500   35.2530 C   0  0  1  0  0  0  0  0  0  0  0  0
   36.5240   25.3960   34.3700 H   0  0  0  0  0  0  0  0  0  0  0  0
   38.7170   27.1900   33.1970 H   0  0  0  0  0  0  0  0  0  0  0  0
   39.0110   27.1300   36.5390 H   0  0  0  0  0  0  0  0  0  0  0  0
   37.2910   26.6470   36.5860 H   0  0  0  0  0  0  0  0  0  0  0  0
   39.5110   25.5010   34.9620 H   0  0  0  0  0  0  0  0  0  0  0  0
   36.4470   28.8670   32.3690 C   0  0  1  0  0  0  0  0  0  0  0  0
   36.5730   27.5420   32.9330 C   0  0  1  0  0  0  0  0  0  0  0  0
   36.6000   27.6480   31.4450 C   0  0  0  0  0  0  0  0  0  0  0  0
   37.2540   29.6020   32.1680 H   0  0  0  0  0  0  0  0  0  0  0  0
   35.6160   27.1110   33.3510 H   0  0  0  0  0  0  0  0  0  0  0  0
   37.5600   27.5060   30.9100 H   0  0  0  0  0  0  0  0  0  0  0  0
   35.7210   27.3010   30.8740 H   0  0  0  0  0  0  0  0  0  0  0  0
   35.0890   29.5230   32.2130 C   0  0  0  0  0  0  0  0  0  0  0  0
   35.0010   30.6330   31.3700 C   0  0  0  0  0  0  0  0  0  0  0  0
   33.7440   31.2120   31.2830 C   0  0  0  0  0  0  0  0  0  0  0  0
   32.6790   30.7070   31.9860 N   0  0  0  0  0  0  0  0  0  0  0  0
   32.8140   29.6240   32.7950 C   0  0  0  0  0  0  0  0  0  0  0  0
   34.0280   29.0300   32.9050 N   0  0  0  0  0  0  0  0  0  0  0  0
   35.8350   31.0170   30.8280 H   0  0  0  0  0  0  0  0  0  0  0  0
   33.5560   32.0750   30.6620 H   0  0  0  0  0  0  0  0  0  0  0  0
   31.9960   29.2080   33.3560 H   0  0  0  0  0  0  0  0  0  0  0  0
   37.9510   24.7700   33.0090 O   0  0  0  0  0  0  0  0  0  0  0  0
   37.3220   24.0020   32.9880 H   0  0  0  0  0  0  0  0  0  0  0  0
   38.0930   24.3980   36.0460 O   0  0  0  0  0  0  0  0  0  0  0  0
   39.0070   23.3730   36.0470 C   0  0  0  0  0  2  0  0  0  0  0  0
   39.1680   22.6530   37.2730 N   0  0  0  0  0  4  0  0  0  0  0  0
   38.6100   21.7610   37.2070 H   0  0  0  0  0  0  0  0  0  0  0  0
   38.6230   23.4270   38.4100 C   0  0  0  0  0  2  0  0  0  0  0  0
   39.1290   24.3980   38.4400 H   0  0  0  0  0  0  0  0  0  0  0  0
   40.5370   22.3740   37.6280 C   0  0  0  0  0  2  0  0  0  0  0  0
   40.7720   22.6490   38.6980 H   0  0  0  0  0  0  0  0  0  0  0  0
  1  6  1  1  0  0  0
  1  5  1  0  0  0  0
  2  7  1  6  0  0  0
  2  1  1  0  0  0  0
  2  3  1  0  0  0  0
  3  4  1  0  0  0  0
  4  8  1  0  0  0  0
  4  9  1  0  0  0  0
  5 10  1  6  0  0  0
  5  4  1  0  0  0  0
  5 29  1  0  0  0  0
 11 14  1  1  0  0  0
 11 12  1  0  0  0  0
 12 15  1  1  0  0  0
 12  2  1  0  0  0  0
 13 11  1  0  0  0  0
 13 12  1  0  0  0  0
 16 13  1  0  0  0  0
 17 13  1  0  0  0  0
 18 11  1  0  0  0  0
 18 23  1  0  0  0  0
 19 18  2  0  0  0  0
 20 19  1  0  0  0  0
 20 21  2  0  0  0  0
 21 22  1  0  0  0  0
 22 23  2  0  0  0  0
 22 26  1  0  0  0  0
 24 19  1  0  0  0  0
 25 20  1  0  0  0  0
 27  1  1  0  0  0  0
 28 27  1  0  0  0  0
 29 30  1  0  0  0  0
 30 31  1  0  0  0  0
 31 35  1  0  0  0  0
 31 33  1  0  0  0  0
 32 31  1  0  0  0  0
 33 34  1  0  0  0  0
 35 36  1  0  0  0  0
M  END
>  <minimizedAffinity>
-4.56861353

$$$$

 OpenBabel03272508293D

 36 38  0  0  1  0  0  0  0  0999 V2000
   39.0030   23.9580   34.7770 C   0  0  2  0  0  0  0  0  0  0  0  0
   38.8250   24.9990   35.8580 C   0  0  2  0  0  0  0  0  0  0  0  0
   37.7460   24.5910   36.5780 O   0  0  0  0  0  0  0  0  0  0  0  0
   37.5230   23.2470   36.4270 C   0  0  0  0  0  0  0  0  0  0  0  0
   38.6370   22.6940   35.5380 C   0  0  1  0  0  0  0  0  0  0  0  0
   38.2220   24.0480   33.9840 H   0  0  0  0  0  0  0  0  0  0  0  0
   39.7230   24.9860   36.4890 H   0  0  0  0  0  0  0  0  0  0  0  0
   37.4280   22.7020   37.3680 H   0  0  0  0  0  0  0  0  0  0  0  0
   36.5780   23.1110   35.8500 H   0  0  0  0  0  0  0  0  0  0  0  0
   39.4520   22.4420   36.2620 H   0  0  0  0  0  0  0  0  0  0  0  0
   37.2630   26.9070   35.0400 C   0  0  1  0  0  0  0  0  0  0  0  0
   38.5720   26.3110   35.1810 C   0  0  1  0  0  0  0  0  0  0  0  0
   38.3160   27.5650   35.9470 C   0  0  0  0  0  0  0  0  0  0  0  0
   36.3450   26.6810   35.6230 H   0  0  0  0  0  0  0  0  0  0  0  0
   39.2520   26.4430   34.2880 H   0  0  0  0  0  0  0  0  0  0  0  0
   38.1780   27.5090   37.0460 H   0  0  0  0  0  0  0  0  0  0  0  0
   38.7980   28.4990   35.6090 H   0  0  0  0  0  0  0  0  0  0  0  0
   36.9270   27.7790   33.8470 C   0  0  0  0  0  0  0  0  0  0  0  0
   35.9150   28.7300   34.0060 C   0  0  0  0  0  0  0  0  0  0  0  0
   35.6280   29.4830   32.8780 C   0  0  0  0  0  0  0  0  0  0  0  0
   36.3060   29.2870   31.7010 N   0  0  0  0  0  0  0  0  0  0  0  0
   37.2830   28.3490   31.5950 C   0  0  0  0  0  0  0  0  0  0  0  0
   37.5930   27.5930   32.6770 N   0  0  0  0  0  0  0  0  0  0  0  0
   35.3950   28.8740   34.9260 H   0  0  0  0  0  0  0  0  0  0  0  0
   34.8650   30.2470   32.8820 H   0  0  0  0  0  0  0  0  0  0  0  0
   37.8300   28.1750   30.6850 H   0  0  0  0  0  0  0  0  0  0  0  0
   40.2670   23.8890   34.2560 O   0  0  0  0  0  0  0  0  0  0  0  0
   40.1910   23.6840   33.2890 H   0  0  0  0  0  0  0  0  0  0  0  0
   38.2200   21.6650   34.7520 O   0  0  0  0  0  0  0  0  0  0  0  0
   37.4260   22.0450   33.6980 C   0  0  0  0  0  2  0  0  0  0  0  0
   36.4420   21.1040   33.2600 N   0  0  0  0  0  4  0  0  0  0  0  0
   36.9360   20.3180   32.7600 H   0  0  0  0  0  0  0  0  0  0  0  0
   35.5160   21.7270   32.2890 C   0  0  0  0  0  2  0  0  0  0  0  0
   35.0580   22.6020   32.7620 H   0  0  0  0  0  0  0  0  0  0  0  0
   35.5970   20.5890   34.3100 C   0  0  0  0  0  2  0  0  0  0  0  0
   34.5000   20.6360   34.0460 H   0  0  0  0  0  0  0  0  0  0  0  0
  1  6  1  6  0  0  0
  1  5  1  0  0  0  0
  1  2  1  0  0  0  0
  2  7  1  1  0  0  0
  2  3  1  0  0  0  0
  4  3  1  0  0  0  0
  4  8  1  0  0  0  0
  5 10  1  1  0  0  0
  5  4  1  0  0  0  0
  9  4  1  0  0  0  0
 11 12  1  0  0  0  0
 11 14  1  1  0  0  0
 11 13  1  0  0  0  0
 12 15  1  6  0  0  0
 12  2  1  0  0  0  0
 12 13  1  0  0  0  0
 13 16  1  0  0  0  0
 17 13  1  0  0  0  0
 18 19  1  0  0  0  0
 18 11  1  0  0  0  0
 19 24  1  0  0  0  0
 20 25  1  0  0  0  0
 20 19  2  0  0  0  0
 21 20  1  0  0  0  0
 22 21  2  0  0  0  0
 22 23  1  0  0  0  0
 23 18  2  0  0  0  0
 26 22  1  0  0  0  0
 27  1  1  0  0  0  0
 28 27  1  0  0  0  0
 29  5  1  0  0  0  0
 30 29  1  0  0  0  0
 31 30  1  0  0  0  0
 31 35  1  0  0  0  0
 32 31  1  0  0  0  0
 33 34  1  0  0  0  0
 33 31  1  0  0  0  0
 36 35  1  0  0  0  0
M  END
>  <minimizedAffinity>
-4.55326271

$$$$

 OpenBabel03272508293D

 36 38  0  0  1  0  0  0  0  0999 V2000
   38.6640   24.1610   33.7130 C   0  0  2  0  0  0  0  0  0  0  0  0
   37.9620   24.8210   32.5490 C   0  0  2  0  0  0  0  0  0  0  0  0
   37.0680   25.6810   33.1060 O   0  0  0  0  0  0  0  0  0  0  0  0
   37.4270   26.0150   34.3860 C   0  0  0  0  0  0  0  0  0  0  0  0
   38.7600   25.3280   34.6840 C   0  0  1  0  0  0  0  0  0  0  0  0
   38.0050   23.4190   34.2260 H   0  0  0  0  0  0  0  0  0  0  0  0
   38.7130   25.3790   31.9760 H   0  0  0  0  0  0  0  0  0  0  0  0
   37.4580   27.0900   34.5750 H   0  0  0  0  0  0  0  0  0  0  0  0
   36.6870   25.5610   35.0870 H   0  0  0  0  0  0  0  0  0  0  0  0
   39.5220   26.0600   34.3170 H   0  0  0  0  0  0  0  0  0  0  0  0
   36.2490   22.8820   32.3120 C   0  0  1  0  0  0  0  0  0  0  0  0
   37.2750   23.7420   31.7690 C   0  0  1  0  0  0  0  0  0  0  0  0
   35.8960   23.9090   31.2240 C   0  0  0  0  0  0  0  0  0  0  0  0
   35.6240   23.0530   33.2140 H   0  0  0  0  0  0  0  0  0  0  0  0
   37.9960   23.2330   31.0620 H   0  0  0  0  0  0  0  0  0  0  0  0
   35.3070   24.8030   31.5100 H   0  0  0  0  0  0  0  0  0  0  0  0
   35.6840   23.5480   30.2030 H   0  0  0  0  0  0  0  0  0  0  0  0
   36.0790   21.4590   31.8180 C   0  0  0  0  0  0  0  0  0  0  0  0
   35.0780   20.6840   32.4090 C   0  0  0  0  0  0  0  0  0  0  0  0
   34.9820   19.3830   31.9390 C   0  0  0  0  0  0  0  0  0  0  0  0
   35.8250   18.9170   30.9620 N   0  0  0  0  0  0  0  0  0  0  0  0
   36.7840   19.7090   30.4160 C   0  0  0  0  0  0  0  0  0  0  0  0
   36.9090   20.9880   30.8490 N   0  0  0  0  0  0  0  0  0  0  0  0
   34.4300   21.0580   33.1680 H   0  0  0  0  0  0  0  0  0  0  0  0
   34.2470   18.6920   32.3220 H   0  0  0  0  0  0  0  0  0  0  0  0
   37.4570   19.3680   29.6500 H   0  0  0  0  0  0  0  0  0  0  0  0
   39.8960   23.6450   33.4170 O   0  0  0  0  0  0  0  0  0  0  0  0
   40.0160   22.8120   33.9430 H   0  0  0  0  0  0  0  0  0  0  0  0
   38.8840   24.9650   35.9890 O   0  0  0  0  0  0  0  0  0  0  0  0
   38.0350   23.9580   36.3790 C   0  0  0  0  0  2  0  0  0  0  0  0
   38.5750   22.9620   37.2530 N   0  0  0  0  0  4  0  0  0  0  0  0
   37.9550   22.1110   37.2060 H   0  0  0  0  0  0  0  0  0  0  0  0
   38.5670   23.4350   38.6540 C   0  0  0  0  0  2  0  0  0  0  0  0
   39.1340   24.3710   38.7060 H   0  0  0  0  0  0  0  0  0  0  0  0
   39.9470   22.6090   36.9820 C   0  0  0  0  0  2  0  0  0  0  0  0
   40.5880   22.6160   37.9120 H   0  0  0  0  0  0  0  0  0  0  0  0
  1  6  1  1  0  0  0
  1  5  1  0  0  0  0
  2  7  1  6  0  0  0
  2  3  1  0  0  0  0
  2  1  1  0  0  0  0
  3  4  1  0  0  0  0
  4  8  1  0  0  0  0
  4  5  1  0  0  0  0
  4  9  1  0  0  0  0
  5 10  1  6  0  0  0
  5 29  1  0  0  0  0
 11 14  1  1  0  0  0
 12 15  1  6  0  0  0
 12 11  1  0  0  0  0
 12  2  1  0  0  0  0
 13 16  1  0  0  0  0
 13 12  1  0  0  0  0
 13 11  1  0  0  0  0
 17 13  1  0  0  0  0
 18 11  1  0  0  0  0
 18 19  1  0  0  0  0
 19 24  1  0  0  0  0
 20 25  1  0  0  0  0
 20 19  2  0  0  0  0
 21 20  1  0  0  0  0
 22 23  1  0  0  0  0
 22 21  2  0  0  0  0
 23 18  2  0  0  0  0
 26 22  1  0  0  0  0
 27  1  1  0  0  0  0
 27 28  1  0  0  0  0
 29 30  1  0  0  0  0
 30 31  1  0  0  0  0
 31 33  1  0  0  0  0
 32 31  1  0  0  0  0
 33 34  1  0  0  0  0
 35 31  1  0  0  0  0
 35 36  1  0  0  0  0
M  END
>  <minimizedAffinity>
-4.45059252

$$$$

 OpenBabel03272508293D

 36 38  0  0  1  0  0  0  0  0999 V2000
   36.2850   25.8510   30.9240 C   0  0  2  0  0  0  0  0  0  0  0  0
   36.4370   25.2310   32.2940 C   0  0  2  0  0  0  0  0  0  0  0  0
   37.4540   25.9100   32.8880 O   0  0  0  0  0  0  0  0  0  0  0  0
   37.6340   27.1420   32.3140 C   0  0  0  0  0  0  0  0  0  0  0  0
   36.5560   27.3130   31.2440 C   0  0  1  0  0  0  0  0  0  0  0  0
   37.1160   25.5510   30.2410 H   0  0  0  0  0  0  0  0  0  0  0  0
   35.5020   25.3980   32.8440 H   0  0  0  0  0  0  0  0  0  0  0  0
   37.6510   27.9680   33.0280 H   0  0  0  0  0  0  0  0  0  0  0  0
   38.6070   27.1350   31.7680 H   0  0  0  0  0  0  0  0  0  0  0  0
   35.6890   27.7400   31.8070 H   0  0  0  0  0  0  0  0  0  0  0  0
   36.0270   22.8860   31.2540 C   0  0  1  0  0  0  0  0  0  0  0  0
   36.7810   23.7860   32.0960 C   0  0  1  0  0  0  0  0  0  0  0  0
   37.4580   23.2910   30.8620 C   0  0  0  0  0  0  0  0  0  0  0  0
   35.3210   23.1470   30.4390 H   0  0  0  0  0  0  0  0  0  0  0  0
   37.1680   23.3270   33.0540 H   0  0  0  0  0  0  0  0  0  0  0  0
   37.5980   23.9830   30.0080 H   0  0  0  0  0  0  0  0  0  0  0  0
   38.2670   22.5470   30.9650 H   0  0  0  0  0  0  0  0  0  0  0  0
   35.9320   21.4080   31.5790 C   0  0  0  0  0  0  0  0  0  0  0  0
   35.5890   21.0550   32.8860 C   0  0  0  0  0  0  0  0  0  0  0  0
   35.5400   19.6920   33.1380 C   0  0  0  0  0  0  0  0  0  0  0  0
   35.8160   18.7780   32.1530 N   0  0  0  0  0  0  0  0  0  0  0  0
   36.1450   19.1700   30.8950 C   0  0  0  0  0  0  0  0  0  0  0  0
   36.2020   20.4940   30.6100 N   0  0  0  0  0  0  0  0  0  0  0  0
   35.3770   21.7750   33.6440 H   0  0  0  0  0  0  0  0  0  0  0  0
   35.2870   19.3020   34.1120 H   0  0  0  0  0  0  0  0  0  0  0  0
   36.3650   18.4740   30.1050 H   0  0  0  0  0  0  0  0  0  0  0  0
   35.0540   25.6760   30.3530 O   0  0  0  0  0  0  0  0  0  0  0  0
   35.1820   25.5580   29.3760 H   0  0  0  0  0  0  0  0  0  0  0  0
   36.9810   28.0510   30.1830 O   0  0  0  0  0  0  0  0  0  0  0  0
   36.6090   29.3720   30.2290 C   0  0  0  0  0  2  0  0  0  0  0  0
   36.9840   30.1860   29.1140 N   0  0  0  0  0  4  0  0  0  0  0  0
   36.1240   30.3630   28.5300 H   0  0  0  0  0  0  0  0  0  0  0  0
   37.9590   29.4790   28.2530 C   0  0  0  0  0  2  0  0  0  0  0  0
   38.8250   29.2060   28.8660 H   0  0  0  0  0  0  0  0  0  0  0  0
   37.6260   31.4280   29.4680 C   0  0  0  0  0  2  0  0  0  0  0  0
   38.5770   31.6070   28.8850 H   0  0  0  0  0  0  0  0  0  0  0  0
  1  6  1  6  0  0  0
  1  5  1  0  0  0  0
  1  2  1  0  0  0  0
  2  7  1  1  0  0  0
  2  3  1  0  0  0  0
  4  3  1  0  0  0  0
  4  8  1  0  0  0  0
  5 10  1  1  0  0  0
  5  4  1  0  0  0  0
  9  4  1  0  0  0  0
 11 14  1  6  0  0  0
 11 18  1  0  0  0  0
 11 12  1  0  0  0  0
 12  2  1  0  0  0  0
 12 15  1  1  0  0  0
 13 17  1  0  0  0  0
 13 11  1  0  0  0  0
 13 12  1  0  0  0  0
 16 13  1  0  0  0  0
 18 19  1  0  0  0  0
 19 20  2  0  0  0  0
 19 24  1  0  0  0  0
 20 25  1  0  0  0  0
 21 20  1  0  0  0  0
 22 21  2  0  0  0  0
 23 22  1  0  0  0  0
 23 18  2  0  0  0  0
 26 22  1  0  0  0  0
 27  1  1  0  0  0  0
 28 27  1  0  0  0  0
 29 30  1  0  0  0  0
 29  5  1  0  0  0  0
 31 35  1  0  0  0  0
 31 30  1  0  0  0  0
 32 31  1  0  0  0  0
 33 34  1  0  0  0  0
 33 31  1  0  0  0  0
 36 35  1  0  0  0  0
M  END
>  <minimizedAffinity>
-4.39391136

$$$$

 OpenBabel03272508293D

 36 38  0  0  1  0  0  0  0  0999 V2000
   37.6300   27.0840   32.8770 C   0  0  2  0  0  0  0  0  0  0  0  0
   36.8600   26.7520   34.1340 C   0  0  2  0  0  0  0  0  0  0  0  0
   36.2940   27.9220   34.5320 O   0  0  0  0  0  0  0  0  0  0  0  0
   36.1870   28.8050   33.4890 C   0  0  0  0  0  0  0  0  0  0  0  0
   36.6970   28.0980   32.2340 C   0  0  1  0  0  0  0  0  0  0  0  0
   38.5600   27.6590   33.1030 H   0  0  0  0  0  0  0  0  0  0  0  0
   36.0790   26.0280   33.8680 H   0  0  0  0  0  0  0  0  0  0  0  0
   35.1860   29.2220   33.3590 H   0  0  0  0  0  0  0  0  0  0  0  0
   36.8930   29.6490   33.6710 H   0  0  0  0  0  0  0  0  0  0  0  0
   35.7900   27.5750   31.8380 H   0  0  0  0  0  0  0  0  0  0  0  0
   38.9130   25.3210   34.8340 C   0  0  1  0  0  0  0  0  0  0  0  0
   37.8450   26.2450   35.1430 C   0  0  1  0  0  0  0  0  0  0  0  0
   39.2400   26.7710   35.2270 C   0  0  0  0  0  0  0  0  0  0  0  0
   39.3460   25.0890   33.8390 H   0  0  0  0  0  0  0  0  0  0  0  0
   37.3500   26.0800   36.1450 H   0  0  0  0  0  0  0  0  0  0  0  0
   39.6040   27.4630   34.4420 H   0  0  0  0  0  0  0  0  0  0  0  0
   39.6720   26.9660   36.2230 H   0  0  0  0  0  0  0  0  0  0  0  0
   39.4140   24.3330   35.8690 C   0  0  0  0  0  0  0  0  0  0  0  0
   40.6500   23.7260   35.6370 C   0  0  0  0  0  0  0  0  0  0  0  0
   41.0510   22.8110   36.5990 C   0  0  0  0  0  0  0  0  0  0  0  0
   40.2660   22.5420   37.6920 N   0  0  0  0  0  0  0  0  0  0  0  0
   39.0690   23.1580   37.8750 C   0  0  0  0  0  0  0  0  0  0  0  0
   38.6440   24.0590   36.9550 N   0  0  0  0  0  0  0  0  0  0  0  0
   41.2510   23.9430   34.7830 H   0  0  0  0  0  0  0  0  0  0  0  0
   41.9870   22.2800   36.5260 H   0  0  0  0  0  0  0  0  0  0  0  0
   38.4360   22.9650   38.7220 H   0  0  0  0  0  0  0  0  0  0  0  0
   37.8650   26.0160   32.0540 O   0  0  0  0  0  0  0  0  0  0  0  0
   38.7600   26.1360   31.6430 H   0  0  0  0  0  0  0  0  0  0  0  0
   37.3040   28.9470   31.3620 O   0  0  0  0  0  0  0  0  0  0  0  0
   36.5760   29.2070   30.2260 C   0  0  0  0  0  2  0  0  0  0  0  0
   36.4950   30.5740   29.8120 N   0  0  0  0  0  4  0  0  0  0  0  0
   35.9300   30.6160   28.9220 H   0  0  0  0  0  0  0  0  0  0  0  0
   37.8390   31.1090   29.5030 C   0  0  0  0  0  2  0  0  0  0  0  0
   38.4690   30.9910   30.3920 H   0  0  0  0  0  0  0  0  0  0  0  0
   35.9520   31.4690   30.8040 C   0  0  0  0  0  2  0  0  0  0  0  0
   36.5850   32.3930   30.9470 H   0  0  0  0  0  0  0  0  0  0  0  0
  1  6  1  1  0  0  0
  1  2  1  0  0  0  0
  2  7  1  6  0  0  0
  2  3  1  0  0  0  0
  2 12  1  0  0  0  0
  4  9  1  0  0  0  0
  4  3  1  0  0  0  0
  5 10  1  6  0  0  0
  5  1  1  0  0  0  0
  5  4  1  0  0  0  0
  8  4  1  0  0  0  0
 11 14  1  6  0  0  0
 11 12  1  0  0  0  0
 11 13  1  0  0  0  0
 11 18  1  0  0  0  0
 12 13  1  0  0  0  0
 12 15  1  1  0  0  0
 13 17  1  0  0  0  0
 16 13  1  0  0  0  0
 18 23  1  0  0  0  0
 19 18  2  0  0  0  0
 19 20  1  0  0  0  0
 20 21  2  0  0  0  0
 21 22  1  0  0  0  0
 22 26  1  0  0  0  0
 23 22  2  0  0  0  0
 24 19  1  0  0  0  0
 25 20  1  0  0  0  0
 27  1  1  0  0  0  0
 28 27  1  0  0  0  0
 29  5  1  0  0  0  0
 30 29  1  0  0  0  0
 31 30  1  0  0  0  0
 31 35  1  0  0  0  0
 32 31  1  0  0  0  0
 33 31  1  0  0  0  0
 33 34  1  0  0  0  0
 35 36  1  0  0  0  0
M  END
>  <minimizedAffinity>
-4.36189556

$$$$

 OpenBabel03272508293D

 36 38  0  0  1  0  0  0  0  0999 V2000
   38.6920   25.2510   32.0490 C   0  0  2  0  0  0  0  0  0  0  0  0
   37.6480   25.6120   31.0190 C   0  0  2  0  0  0  0  0  0  0  0  0
   36.9390   26.6360   31.5650 O   0  0  0  0  0  0  0  0  0  0  0  0
   37.6590   27.2790   32.5370 C   0  0  0  0  0  0  0  0  0  0  0  0
   39.0410   26.6270   32.5930 C   0  0  1  0  0  0  0  0  0  0  0  0
   38.2450   24.7080   32.9170 H   0  0  0  0  0  0  0  0  0  0  0  0
   38.1710   25.9560   30.1170 H   0  0  0  0  0  0  0  0  0  0  0  0
   37.7110   28.3620   32.4100 H   0  0  0  0  0  0  0  0  0  0  0  0
   37.1830   27.0680   33.5230 H   0  0  0  0  0  0  0  0  0  0  0  0
   39.6320   27.1930   31.8300 H   0  0  0  0  0  0  0  0  0  0  0  0
   36.3280   23.5420   31.8690 C   0  0  1  0  0  0  0  0  0  0  0  0
   36.7920   24.4010   30.8040 C   0  0  1  0  0  0  0  0  0  0  0  0
   35.3260   24.4040   31.0840 C   0  0  0  0  0  0  0  0  0  0  0  0
   36.2630   23.7750   32.9530 H   0  0  0  0  0  0  0  0  0  0  0  0
   37.0820   23.8640   29.8530 H   0  0  0  0  0  0  0  0  0  0  0  0
   34.8730   25.2820   31.5870 H   0  0  0  0  0  0  0  0  0  0  0  0
   34.6500   23.9100   30.3650 H   0  0  0  0  0  0  0  0  0  0  0  0
   36.0990   22.0620   31.6350 C   0  0  0  0  0  0  0  0  0  0  0  0
   35.0560   21.4510   32.3340 C   0  0  0  0  0  0  0  0  0  0  0  0
   34.9060   20.0910   32.1050 C   0  0  0  0  0  0  0  0  0  0  0  0
   35.7380   19.4200   31.2450 N   0  0  0  0  0  0  0  0  0  0  0  0
   36.7400   20.0590   30.5870 C   0  0  0  0  0  0  0  0  0  0  0  0
   36.9180   21.3880   30.7850 N   0  0  0  0  0  0  0  0  0  0  0  0
   34.4150   21.9830   33.0000 H   0  0  0  0  0  0  0  0  0  0  0  0
   34.1340   19.5130   32.5900 H   0  0  0  0  0  0  0  0  0  0  0  0
   37.4060   19.5560   29.9080 H   0  0  0  0  0  0  0  0  0  0  0  0
   39.7920   24.6100   31.5460 O   0  0  0  0  0  0  0  0  0  0  0  0
   40.0920   23.9420   32.2160 H   0  0  0  0  0  0  0  0  0  0  0  0
   39.5680   26.6200   33.8470 O   0  0  0  0  0  0  0  0  0  0  0  0
   39.1620   25.5630   34.6250 C   0  0  0  0  0  2  0  0  0  0  0  0
   38.1580   25.8350   35.6070 N   0  0  0  0  0  4  0  0  0  0  0  0
   37.2230   25.8710   35.1220 H   0  0  0  0  0  0  0  0  0  0  0  0
   38.3800   27.1570   36.2310 C   0  0  0  0  0  2  0  0  0  0  0  0
   39.3860   27.1700   36.6650 H   0  0  0  0  0  0  0  0  0  0  0  0
   38.1270   24.9000   36.7050 C   0  0  0  0  0  2  0  0  0  0  0  0
   38.1030   25.4130   37.7110 H   0  0  0  0  0  0  0  0  0  0  0  0
  1  5  1  0  0  0  0
  1  6  1  1  0  0  0
  2  7  1  6  0  0  0
  2  3  1  0  0  0  0
  2  1  1  0  0  0  0
  3  4  1  0  0  0  0
  4  5  1  0  0  0  0
  4  9  1  0  0  0  0
  5 10  1  6  0  0  0
  5 29  1  0  0  0  0
  8  4  1  0  0  0  0
 11 14  1  1  0  0  0
 12 15  1  6  0  0  0
 12  2  1  0  0  0  0
 12 13  1  0  0  0  0
 12 11  1  0  0  0  0
 13 16  1  0  0  0  0
 13 11  1  0  0  0  0
 17 13  1  0  0  0  0
 18 11  1  0  0  0  0
 18 19  1  0  0  0  0
 19 24  1  0  0  0  0
 20 19  2  0  0  0  0
 20 25  1  0  0  0  0
 21 20  1  0  0  0  0
 22 23  1  0  0  0  0
 22 21  2  0  0  0  0
 23 18  2  0  0  0  0
 26 22  1  0  0  0  0
 27  1  1  0  0  0  0
 27 28  1  0  0  0  0
 29 30  1  0  0  0  0
 30 31  1  0  0  0  0
 31 33  1  0  0  0  0
 31 35  1  0  0  0  0
 32 31  1  0  0  0  0
 33 34  1  0  0  0  0
 35 36  1  0  0  0  0
M  END
>  <minimizedAffinity>
-4.32107067

$$$$
