
 OpenBabel03272508083D

 22 22  0  0  0  0  0  0  0  0999 V2000
   38.3100   32.8550   48.0080 O   0  0  0  0  0  0  0  0  0  0  0  0
   38.3130   31.6730   47.1040 P   0  0  2  0  0  0  0  0  0  0  0  0
   37.3290   31.9510   45.7490 O   0  0  0  0  0  0  0  0  0  0  0  0
   36.8260   32.8040   45.8440 H   0  0  0  0  0  0  0  0  0  0  0  0
   37.9020   30.2090   47.8510 O   0  0  0  0  0  0  0  0  0  0  0  0
   37.2150   30.0450   51.4780 C   0  0  0  0  0  0  0  0  0  0  0  0
   37.9400   30.3490   50.3260 C   0  0  0  0  0  0  0  0  0  0  0  0
   37.3990   30.0200   49.0910 C   0  0  0  0  0  0  0  0  0  0  0  0
   36.1730   29.4090   49.0910 N   0  0  0  0  0  0  0  0  0  0  0  0
   35.5040   29.1320   50.2190 C   0  0  0  0  0  0  0  0  0  0  0  0
   36.0250   29.4490   51.4150 N   0  0  0  0  0  0  0  0  0  0  0  0
   37.7000   30.3310   52.4170 H   0  0  0  0  0  0  0  0  0  0  0  0
   38.9080   30.8270   50.2620 H   0  0  0  0  0  0  0  0  0  0  0  0
   34.5320   28.6470   50.1990 H   0  0  0  0  0  0  0  0  0  0  0  0
   39.9120   31.5010   46.5010 O   0  0  0  0  0  0  0  0  0  0  0  0
   39.9390   31.0740   45.1970 C   0  0  0  0  0  2  0  0  0  0  0  0
   40.4610   32.0680   44.2670 N   0  0  0  0  0  4  0  0  0  0  0  0
   41.5080   31.9380   44.1540 H   0  0  0  0  0  0  0  0  0  0  0  0
   39.7950   31.8320   42.9980 C   0  0  0  0  0  2  0  0  0  0  0  0
   40.4700   32.0330   42.1420 H   0  0  0  0  0  0  0  0  0  0  0  0
   40.1930   33.4160   44.6730 C   0  0  0  0  0  2  0  0  0  0  0  0
   40.2530   33.5930   45.7660 H   0  0  0  0  0  0  0  0  0  0  0  0
  2  5  1  0  0  0  0
  2  1  2  1  0  0  0
  3  4  1  0  0  0  0
  3  2  1  0  0  0  0
  5  8  1  0  0  0  0
  6 12  1  0  0  0  0
  7  6  2  0  0  0  0
  8  7  1  0  0  0  0
  9  8  2  0  0  0  0
  9 10  1  0  0  0  0
 10 11  2  0  0  0  0
 11  6  1  0  0  0  0
 13  7  1  0  0  0  0
 14 10  1  0  0  0  0
 15  2  1  0  0  0  0
 16 15  1  0  0  0  0
 17 21  1  0  0  0  0
 17 16  1  0  0  0  0
 18 17  1  0  0  0  0
 19 17  1  0  0  0  0
 20 19  1  0  0  0  0
 21 22  1  0  0  0  0
M  END
>  <minimizedAffinity>
-4.63694906

>  <minimizedRMSD>
0.632627368

$$$$
