
 OpenBabel03272508083D

 22 22  0  0  0  0  0  0  0  0999 V2000
   39.1310   32.7420   48.0490 O   0  0  0  0  0  0  0  0  0  0  0  0
   38.7070   31.7460   47.0280 P   0  0  2  0  0  0  0  0  0  0  0  0
   37.7100   32.4720   45.8600 O   0  0  0  0  0  0  0  0  0  0  0  0
   37.4810   33.4050   46.1180 H   0  0  0  0  0  0  0  0  0  0  0  0
   37.9770   30.3530   47.6550 O   0  0  0  0  0  0  0  0  0  0  0  0
   37.3490   30.2130   51.2940 C   0  0  0  0  0  0  0  0  0  0  0  0
   38.0350   30.5470   50.1270 C   0  0  0  0  0  0  0  0  0  0  0  0
   37.5040   30.1530   48.9060 C   0  0  0  0  0  0  0  0  0  0  0  0
   36.3280   29.4530   48.9350 N   0  0  0  0  0  0  0  0  0  0  0  0
   35.6950   29.1490   50.0770 C   0  0  0  0  0  0  0  0  0  0  0  0
   36.2050   29.5290   51.2590 N   0  0  0  0  0  0  0  0  0  0  0  0
   37.8220   30.5540   52.2210 H   0  0  0  0  0  0  0  0  0  0  0  0
   38.9630   31.0940   50.0400 H   0  0  0  0  0  0  0  0  0  0  0  0
   34.7620   28.5920   50.0800 H   0  0  0  0  0  0  0  0  0  0  0  0
   40.1220   31.2430   46.1940 O   0  0  0  0  0  0  0  0  0  0  0  0
   40.2690   31.8670   44.9810 C   0  0  0  0  0  2  0  0  0  0  0  0
   39.4170   31.3160   43.9330 N   0  0  0  0  0  4  0  0  0  0  0  0
   38.3980   31.4950   44.1690 H   0  0  0  0  0  0  0  0  0  0  0  0
   39.7680   32.0130   42.7090 C   0  0  0  0  0  2  0  0  0  0  0  0
   38.8840   32.1680   42.0600 H   0  0  0  0  0  0  0  0  0  0  0  0
   39.6150   29.9120   43.7250 C   0  0  0  0  0  2  0  0  0  0  0  0
   39.8090   29.3270   44.6470 H   0  0  0  0  0  0  0  0  0  0  0  0
  2  5  1  0  0  0  0
  2  1  2  1  0  0  0
  3  4  1  0  0  0  0
  3  2  1  0  0  0  0
  5  8  1  0  0  0  0
  6 12  1  0  0  0  0
  7  6  2  0  0  0  0
  8  9  2  0  0  0  0
  8  7  1  0  0  0  0
  9 10  1  0  0  0  0
 10 14  1  0  0  0  0
 10 11  2  0  0  0  0
 11  6  1  0  0  0  0
 13  7  1  0  0  0  0
 15  2  1  0  0  0  0
 16 15  1  0  0  0  0
 17 18  1  0  0  0  0
 17 16  1  0  0  0  0
 19 17  1  0  0  0  0
 20 19  1  0  0  0  0
 21 17  1  0  0  0  0
 21 22  1  0  0  0  0
M  END
>  <minimizedAffinity>
-4.59849596

>  <minimizedRMSD>
0.517641068

$$$$
