
 OpenBabel03272508083D

 22 22  0  0  0  0  0  0  0  0999 V2000
   38.3240   32.8660   47.9980 O   0  0  0  0  0  0  0  0  0  0  0  0
   38.3250   31.6840   47.0940 P   0  0  2  0  0  0  0  0  0  0  0  0
   37.3330   31.9610   45.7430 O   0  0  0  0  0  0  0  0  0  0  0  0
   36.8300   32.8140   45.8410 H   0  0  0  0  0  0  0  0  0  0  0  0
   37.9190   30.2200   47.8420 O   0  0  0  0  0  0  0  0  0  0  0  0
   37.2290   30.0610   51.4690 C   0  0  0  0  0  0  0  0  0  0  0  0
   37.9530   30.3690   50.3170 C   0  0  0  0  0  0  0  0  0  0  0  0
   37.4160   30.0300   49.0820 C   0  0  0  0  0  0  0  0  0  0  0  0
   36.1970   29.4070   49.0830 N   0  0  0  0  0  0  0  0  0  0  0  0
   35.5290   29.1260   50.2110 C   0  0  0  0  0  0  0  0  0  0  0  0
   36.0450   29.4530   51.4060 N   0  0  0  0  0  0  0  0  0  0  0  0
   37.7100   30.3560   52.4080 H   0  0  0  0  0  0  0  0  0  0  0  0
   38.9150   30.8570   50.2530 H   0  0  0  0  0  0  0  0  0  0  0  0
   34.5620   28.6310   50.1910 H   0  0  0  0  0  0  0  0  0  0  0  0
   39.9200   31.5140   46.4830 O   0  0  0  0  0  0  0  0  0  0  0  0
   39.9430   31.0600   45.1890 C   0  0  0  0  0  2  0  0  0  0  0  0
   40.4240   32.0500   44.2310 N   0  0  0  0  0  4  0  0  0  0  0  0
   41.4620   31.9080   44.0610 H   0  0  0  0  0  0  0  0  0  0  0  0
   39.6880   31.8210   43.0000 C   0  0  0  0  0  2  0  0  0  0  0  0
   40.3160   32.0140   42.1080 H   0  0  0  0  0  0  0  0  0  0  0  0
   40.1930   33.4000   44.6500 C   0  0  0  0  0  2  0  0  0  0  0  0
   40.3150   33.5770   45.7380 H   0  0  0  0  0  0  0  0  0  0  0  0
  2  5  1  0  0  0  0
  2  1  2  1  0  0  0
  3  4  1  0  0  0  0
  3  2  1  0  0  0  0
  5  8  1  0  0  0  0
  6 12  1  0  0  0  0
  7  6  2  0  0  0  0
  8  9  2  0  0  0  0
  8  7  1  0  0  0  0
  9 10  1  0  0  0  0
 10 11  2  0  0  0  0
 11  6  1  0  0  0  0
 13  7  1  0  0  0  0
 14 10  1  0  0  0  0
 15  2  1  0  0  0  0
 16 15  1  0  0  0  0
 17 21  1  0  0  0  0
 17 16  1  0  0  0  0
 18 17  1  0  0  0  0
 19 17  1  0  0  0  0
 20 19  1  0  0  0  0
 21 22  1  0  0  0  0
M  END
>  <minimizedAffinity>
-4.62780619

>  <minimizedRMSD>
0.641965508

$$$$
