
 OpenBabel03272503473D

 22 22  0  0  0  0  0  0  0  0999 V2000
   39.7950   27.1730   34.1640 O   0  0  0  0  0  0  0  0  0  0  0  0
   38.4880   26.9590   34.9010 P   0  0  2  0  0  0  0  0  0  0  0  0
   38.6910   27.6220   36.4350 O   0  0  0  0  0  0  0  0  0  0  0  0
   39.1470   28.5020   36.3600 H   0  0  0  0  0  0  0  0  0  0  0  0
   38.1130   25.2870   35.0430 O   0  0  0  0  0  0  0  0  0  0  0  0
   38.5270   24.5140   36.1200 C   0  0  0  0  0  0  0  0  0  0  0  0
   39.5590   23.5790   36.0910 C   0  0  0  0  0  0  0  0  0  0  0  0
   39.8600   22.8770   37.2620 C   0  0  0  0  0  0  0  0  0  0  0  0
   39.1190   23.1510   38.3710 N   0  0  0  0  0  0  0  0  0  0  0  0
   38.1200   24.0640   38.3760 C   0  0  0  0  0  0  0  0  0  0  0  0
   37.8270   24.7460   37.2410 N   0  0  0  0  0  0  0  0  0  0  0  0
   40.0680   23.4460   35.1770 H   0  0  0  0  0  0  0  0  0  0  0  0
   40.6580   22.1480   37.2550 H   0  0  0  0  0  0  0  0  0  0  0  0
   37.5490   24.2520   39.2940 H   0  0  0  0  0  0  0  0  0  0  0  0
   37.2010   27.6600   34.0660 O   0  0  0  0  0  0  0  0  0  0  0  0
   37.3190   27.5650   32.7020 C   0  0  0  0  0  2  0  0  0  0  0  0
   37.6480   26.2660   32.1960 N   0  0  0  0  0  4  0  0  0  0  0  0
   38.1210   25.6600   32.9140 H   0  0  0  0  0  0  0  0  0  0  0  0
   38.4060   26.3670   30.9680 C   0  0  0  0  0  2  0  0  0  0  0  0
   37.7260   26.3080   30.0700 H   0  0  0  0  0  0  0  0  0  0  0  0
   36.3860   25.5930   31.8690 C   0  0  0  0  0  2  0  0  0  0  0  0
   36.5200   24.5140   31.6990 H   0  0  0  0  0  0  0  0  0  0  0  0
  2  1  2  6  0  0  0
  2  5  1  0  0  0  0
  2  3  1  0  0  0  0
  4  3  1  0  0  0  0
  5  6  1  0  0  0  0
  6 11  1  0  0  0  0
  7  6  2  0  0  0  0
  7  8  1  0  0  0  0
  8  9  2  0  0  0  0
  9 10  1  0  0  0  0
 10 14  1  0  0  0  0
 11 10  2  0  0  0  0
 12  7  1  0  0  0  0
 13  8  1  0  0  0  0
 15  2  1  0  0  0  0
 16 15  1  0  0  0  0
 17 16  1  0  0  0  0
 17 18  1  0  0  0  0
 19 17  1  0  0  0  0
 20 19  1  0  0  0  0
 21 17  1  0  0  0  0
 22 21  1  0  0  0  0
M  END
>  <minimizedAffinity>
-3.95455003

$$$$

 OpenBabel03272503473D

 22 22  0  0  0  0  0  0  0  0999 V2000
   36.9200   26.5090   35.0030 O   0  0  0  0  0  0  0  0  0  0  0  0
   38.2220   26.1720   35.7020 P   0  0  2  0  0  0  0  0  0  0  0  0
   38.8860   27.6350   36.2070 O   0  0  0  0  0  0  0  0  0  0  0  0
   38.1750   28.2030   36.6050 H   0  0  0  0  0  0  0  0  0  0  0  0
   39.3180   25.3780   34.6420 O   0  0  0  0  0  0  0  0  0  0  0  0
   40.5880   25.8700   34.3720 C   0  0  0  0  0  0  0  0  0  0  0  0
   41.7810   25.3080   34.8180 C   0  0  0  0  0  0  0  0  0  0  0  0
   42.9870   25.9200   34.4610 C   0  0  0  0  0  0  0  0  0  0  0  0
   42.9200   27.0420   33.6900 N   0  0  0  0  0  0  0  0  0  0  0  0
   41.7490   27.5710   33.2680 C   0  0  0  0  0  0  0  0  0  0  0  0
   40.5790   26.9770   33.6140 N   0  0  0  0  0  0  0  0  0  0  0  0
   41.7160   24.4370   35.4100 H   0  0  0  0  0  0  0  0  0  0  0  0
   43.9200   25.4960   34.8000 H   0  0  0  0  0  0  0  0  0  0  0  0
   41.7440   28.4760   32.6480 H   0  0  0  0  0  0  0  0  0  0  0  0
   37.9610   25.1110   36.9870 O   0  0  0  0  0  0  0  0  0  0  0  0
   37.8210   23.8030   36.5960 C   0  0  0  0  0  2  0  0  0  0  0  0
   38.5000   22.8350   37.4060 N   0  0  0  0  0  4  0  0  0  0  0  0
   37.9960   21.9120   37.4390 H   0  0  0  0  0  0  0  0  0  0  0  0
   38.7750   23.3660   38.7230 C   0  0  0  0  0  2  0  0  0  0  0  0
   39.8100   23.8130   38.7680 H   0  0  0  0  0  0  0  0  0  0  0  0
   39.7940   22.5670   36.7700 C   0  0  0  0  0  2  0  0  0  0  0  0
   40.2840   21.6710   37.1810 H   0  0  0  0  0  0  0  0  0  0  0  0
  2  1  2  6  0  0  0
  2  3  1  0  0  0  0
  2 15  1  0  0  0  0
  3  4  1  0  0  0  0
  5  2  1  0  0  0  0
  6  5  1  0  0  0  0
  6  7  1  0  0  0  0
  7 12  1  0  0  0  0
  8 13  1  0  0  0  0
  8  7  2  0  0  0  0
  9  8  1  0  0  0  0
 10 11  1  0  0  0  0
 10  9  2  0  0  0  0
 11  6  2  0  0  0  0
 14 10  1  0  0  0  0
 16 15  1  0  0  0  0
 16 17  1  0  0  0  0
 17 18  1  0  0  0  0
 17 19  1  0  0  0  0
 19 20  1  0  0  0  0
 21 22  1  0  0  0  0
 21 17  1  0  0  0  0
M  END
>  <minimizedAffinity>
-3.85917425

$$$$

 OpenBabel03272503473D

 22 22  0  0  0  0  0  0  0  0999 V2000
   37.4560   23.1800   37.0560 O   0  0  0  0  0  0  0  0  0  0  0  0
   38.7420   22.9310   36.2930 P   0  0  2  0  0  0  0  0  0  0  0  0
   39.7940   22.1710   37.3650 O   0  0  0  0  0  0  0  0  0  0  0  0
   39.3050   21.4690   37.8690 H   0  0  0  0  0  0  0  0  0  0  0  0
   39.4430   24.4030   35.7450 O   0  0  0  0  0  0  0  0  0  0  0  0
   38.6820   25.4820   35.3170 C   0  0  0  0  0  0  0  0  0  0  0  0
   38.6030   26.7160   35.9570 C   0  0  0  0  0  0  0  0  0  0  0  0
   37.7900   27.7090   35.4010 C   0  0  0  0  0  0  0  0  0  0  0  0
   37.1180   27.4060   34.2560 N   0  0  0  0  0  0  0  0  0  0  0  0
   37.2100   26.1990   33.6510 C   0  0  0  0  0  0  0  0  0  0  0  0
   37.9970   25.2350   34.1890 N   0  0  0  0  0  0  0  0  0  0  0  0
   39.1660   26.8430   36.8400 H   0  0  0  0  0  0  0  0  0  0  0  0
   37.7180   28.6720   35.8860 H   0  0  0  0  0  0  0  0  0  0  0  0
   36.6490   26.0000   32.7290 H   0  0  0  0  0  0  0  0  0  0  0  0
   38.4560   22.0060   34.9120 O   0  0  0  0  0  0  0  0  0  0  0  0
   37.1340   21.6800   34.7360 C   0  0  0  0  0  2  0  0  0  0  0  0
   36.7220   21.4670   33.3810 N   0  0  0  0  0  4  0  0  0  0  0  0
   36.4460   22.3610   32.8970 H   0  0  0  0  0  0  0  0  0  0  0  0
   35.6910   20.4560   33.3080 C   0  0  0  0  0  2  0  0  0  0  0  0
   36.1380   19.4400   33.1040 H   0  0  0  0  0  0  0  0  0  0  0  0
   37.8830   20.9530   32.6470 C   0  0  0  0  0  2  0  0  0  0  0  0
   37.7360   20.9830   31.5570 H   0  0  0  0  0  0  0  0  0  0  0  0
  2  1  2  1  0  0  0
  2  3  1  0  0  0  0
  3  4  1  0  0  0  0
  5  2  1  0  0  0  0
  6  5  1  0  0  0  0
  6  7  1  0  0  0  0
  7 12  1  0  0  0  0
  8 13  1  0  0  0  0
  8  7  2  0  0  0  0
  9  8  1  0  0  0  0
 10 11  1  0  0  0  0
 10  9  2  0  0  0  0
 11  6  2  0  0  0  0
 14 10  1  0  0  0  0
 15  2  1  0  0  0  0
 16 15  1  0  0  0  0
 17 16  1  0  0  0  0
 18 17  1  0  0  0  0
 19 17  1  0  0  0  0
 20 19  1  0  0  0  0
 21 17  1  0  0  0  0
 22 21  1  0  0  0  0
M  END
>  <minimizedAffinity>
-3.6158309

$$$$

 OpenBabel03272503473D

 22 22  0  0  0  0  0  0  0  0999 V2000
   38.4830   27.1890   36.5470 O   0  0  0  0  0  0  0  0  0  0  0  0
   38.2770   25.9170   35.7490 P   0  0  2  0  0  0  0  0  0  0  0  0
   39.7670   25.5380   35.0630 O   0  0  0  0  0  0  0  0  0  0  0  0
   40.4850   25.6570   35.7390 H   0  0  0  0  0  0  0  0  0  0  0  0
   37.1100   26.1370   34.5050 O   0  0  0  0  0  0  0  0  0  0  0  0
   37.4250   26.0390   33.1570 C   0  0  0  0  0  0  0  0  0  0  0  0
   36.8860   25.1120   32.2690 C   0  0  0  0  0  0  0  0  0  0  0  0
   37.3030   25.1390   30.9340 C   0  0  0  0  0  0  0  0  0  0  0  0
   38.2220   26.0800   30.5800 N   0  0  0  0  0  0  0  0  0  0  0  0
   38.7330   26.9710   31.4600 C   0  0  0  0  0  0  0  0  0  0  0  0
   38.3290   26.9460   32.7540 N   0  0  0  0  0  0  0  0  0  0  0  0
   36.1800   24.4270   32.6520 H   0  0  0  0  0  0  0  0  0  0  0  0
   36.8930   24.4260   30.2340 H   0  0  0  0  0  0  0  0  0  0  0  0
   39.4720   27.7120   31.1290 H   0  0  0  0  0  0  0  0  0  0  0  0
   37.6900   24.6760   36.7290 O   0  0  0  0  0  0  0  0  0  0  0  0
   38.1820   23.4390   36.3970 C   0  0  0  0  0  2  0  0  0  0  0  0
   38.7610   22.6910   37.4740 N   0  0  0  0  0  4  0  0  0  0  0  0
   38.3730   21.7150   37.5420 H   0  0  0  0  0  0  0  0  0  0  0  0
   38.6580   23.4160   38.7210 C   0  0  0  0  0  2  0  0  0  0  0  0
   39.5950   24.0130   38.9170 H   0  0  0  0  0  0  0  0  0  0  0  0
   40.1890   22.5380   37.1800 C   0  0  0  0  0  2  0  0  0  0  0  0
   40.6700   21.7830   37.8200 H   0  0  0  0  0  0  0  0  0  0  0  0
  2  1  2  1  0  0  0
  2 15  1  0  0  0  0
  3  4  1  0  0  0  0
  3  2  1  0  0  0  0
  5  2  1  0  0  0  0
  6  5  1  0  0  0  0
  7 12  1  0  0  0  0
  7  6  2  0  0  0  0
  8  7  1  0  0  0  0
  9  8  2  0  0  0  0
  9 10  1  0  0  0  0
 10 11  2  0  0  0  0
 11  6  1  0  0  0  0
 13  8  1  0  0  0  0
 14 10  1  0  0  0  0
 16 15  1  0  0  0  0
 16 17  1  0  0  0  0
 17 18  1  0  0  0  0
 17 19  1  0  0  0  0
 19 20  1  0  0  0  0
 21 17  1  0  0  0  0
 21 22  1  0  0  0  0
M  END
>  <minimizedAffinity>
-3.56749916

$$$$

 OpenBabel03272503473D

 22 22  0  0  0  0  0  0  0  0999 V2000
   39.8790   26.1880   35.0090 O   0  0  0  0  0  0  0  0  0  0  0  0
   38.4860   26.1150   35.6020 P   0  0  2  0  0  0  0  0  0  0  0  0
   38.3330   27.4420   36.6270 O   0  0  0  0  0  0  0  0  0  0  0  0
   38.7040   28.2500   36.1820 H   0  0  0  0  0  0  0  0  0  0  0  0
   38.2610   24.6660   36.5000 O   0  0  0  0  0  0  0  0  0  0  0  0
   39.1960   23.6400   36.5140 C   0  0  0  0  0  0  0  0  0  0  0  0
   39.7930   23.1090   37.6550 C   0  0  0  0  0  0  0  0  0  0  0  0
   40.7190   22.0720   37.5060 C   0  0  0  0  0  0  0  0  0  0  0  0
   40.9860   21.6410   36.2420 N   0  0  0  0  0  0  0  0  0  0  0  0
   40.3940   22.1720   35.1480 C   0  0  0  0  0  0  0  0  0  0  0  0
   39.4950   23.1770   35.2900 N   0  0  0  0  0  0  0  0  0  0  0  0
   39.5120   23.5200   38.5850 H   0  0  0  0  0  0  0  0  0  0  0  0
   41.1900   21.6500   38.3820 H   0  0  0  0  0  0  0  0  0  0  0  0
   40.6400   21.7920   34.1480 H   0  0  0  0  0  0  0  0  0  0  0  0
   37.3120   26.1030   34.3900 O   0  0  0  0  0  0  0  0  0  0  0  0
   37.4330   27.1430   33.5030 C   0  0  0  0  0  2  0  0  0  0  0  0
   36.5920   27.0720   32.3450 N   0  0  0  0  0  4  0  0  0  0  0  0
   35.9520   26.2370   32.3610 H   0  0  0  0  0  0  0  0  0  0  0  0
   37.3770   27.1470   31.1320 C   0  0  0  0  0  2  0  0  0  0  0  0
   37.4380   28.2100   30.7580 H   0  0  0  0  0  0  0  0  0  0  0  0
   35.7190   28.2510   32.3670 C   0  0  0  0  0  2  0  0  0  0  0  0
   34.8840   28.1660   31.6550 H   0  0  0  0  0  0  0  0  0  0  0  0
  2  1  2  6  0  0  0
  2  5  1  0  0  0  0
  2  3  1  0  0  0  0
  4  3  1  0  0  0  0
  5  6  1  0  0  0  0
  6  7  1  0  0  0  0
  7 12  1  0  0  0  0
  8  7  2  0  0  0  0
  8 13  1  0  0  0  0
  9  8  1  0  0  0  0
 10 11  1  0  0  0  0
 10  9  2  0  0  0  0
 11  6  2  0  0  0  0
 14 10  1  0  0  0  0
 15  2  1  0  0  0  0
 16 15  1  0  0  0  0
 17 18  1  0  0  0  0
 17 21  1  0  0  0  0
 17 16  1  0  0  0  0
 19 17  1  0  0  0  0
 20 19  1  0  0  0  0
 22 21  1  0  0  0  0
M  END
>  <minimizedAffinity>
-3.53581786

$$$$

 OpenBabel03272503473D

 22 22  0  0  0  0  0  0  0  0999 V2000
   38.0950   25.3740   36.9640 O   0  0  0  0  0  0  0  0  0  0  0  0
   38.4120   26.2350   35.7580 P   0  0  2  0  0  0  0  0  0  0  0  0
   38.6680   27.7940   36.3370 O   0  0  0  0  0  0  0  0  0  0  0  0
   39.2320   27.7570   37.1540 H   0  0  0  0  0  0  0  0  0  0  0  0
   37.1100   26.2450   34.6340 O   0  0  0  0  0  0  0  0  0  0  0  0
   36.8500   27.3230   33.7990 C   0  0  0  0  0  0  0  0  0  0  0  0
   37.2750   27.4400   32.4780 C   0  0  0  0  0  0  0  0  0  0  0  0
   36.9320   28.5910   31.7610 C   0  0  0  0  0  0  0  0  0  0  0  0
   36.1960   29.5390   32.4060 N   0  0  0  0  0  0  0  0  0  0  0  0
   35.7940   29.4040   33.6900 C   0  0  0  0  0  0  0  0  0  0  0  0
   36.1260   28.2890   34.3860 N   0  0  0  0  0  0  0  0  0  0  0  0
   37.8410   26.6440   32.0780 H   0  0  0  0  0  0  0  0  0  0  0  0
   37.2540   28.6950   30.7360 H   0  0  0  0  0  0  0  0  0  0  0  0
   35.2020   30.1950   34.1690 H   0  0  0  0  0  0  0  0  0  0  0  0
   39.7490   25.6350   34.9210 O   0  0  0  0  0  0  0  0  0  0  0  0
   39.4460   24.5880   34.0870 C   0  0  0  0  0  2  0  0  0  0  0  0
   38.6130   23.5660   34.6490 N   0  0  0  0  0  4  0  0  0  0  0  0
   37.9160   23.9480   35.3400 H   0  0  0  0  0  0  0  0  0  0  0  0
   39.4120   22.4940   35.2010 C   0  0  0  0  0  2  0  0  0  0  0  0
   39.5500   21.6660   34.4470 H   0  0  0  0  0  0  0  0  0  0  0  0
   37.8240   22.9960   33.5530 C   0  0  0  0  0  2  0  0  0  0  0  0
   36.9910   22.3750   33.9160 H   0  0  0  0  0  0  0  0  0  0  0  0
  2  3  1  0  0  0  0
  2  1  2  1  0  0  0
  3  4  1  0  0  0  0
  5  2  1  0  0  0  0
  6 11  1  0  0  0  0
  6  5  1  0  0  0  0
  7  6  2  0  0  0  0
  8  9  2  0  0  0  0
  8  7  1  0  0  0  0
  9 10  1  0  0  0  0
 10 14  1  0  0  0  0
 10 11  2  0  0  0  0
 12  7  1  0  0  0  0
 13  8  1  0  0  0  0
 15  2  1  0  0  0  0
 16 17  1  0  0  0  0
 16 15  1  0  0  0  0
 17 19  1  0  0  0  0
 17 18  1  0  0  0  0
 20 19  1  0  0  0  0
 21 22  1  0  0  0  0
 21 17  1  0  0  0  0
M  END
>  <minimizedAffinity>
-3.45895243

$$$$

 OpenBabel03272503473D

 22 22  0  0  0  0  0  0  0  0999 V2000
   39.2020   27.3740   35.8110 O   0  0  0  0  0  0  0  0  0  0  0  0
   38.0810   26.7750   34.9850 P   0  0  2  0  0  0  0  0  0  0  0  0
   36.8970   27.9640   34.8520 O   0  0  0  0  0  0  0  0  0  0  0  0
   37.3240   28.8380   34.6530 H   0  0  0  0  0  0  0  0  0  0  0  0
   37.4160   25.3830   35.7450 O   0  0  0  0  0  0  0  0  0  0  0  0
   38.1720   24.5240   36.5310 C   0  0  0  0  0  0  0  0  0  0  0  0
   37.9170   24.2170   37.8650 C   0  0  0  0  0  0  0  0  0  0  0  0
   38.7730   23.3300   38.5250 C   0  0  0  0  0  0  0  0  0  0  0  0
   39.8160   22.8150   37.8160 N   0  0  0  0  0  0  0  0  0  0  0  0
   40.0450   23.1280   36.5200 C   0  0  0  0  0  0  0  0  0  0  0  0
   39.2160   23.9880   35.8790 N   0  0  0  0  0  0  0  0  0  0  0  0
   37.0810   24.6750   38.3160 H   0  0  0  0  0  0  0  0  0  0  0  0
   38.5880   23.0820   39.5600 H   0  0  0  0  0  0  0  0  0  0  0  0
   40.8990   22.6880   35.9890 H   0  0  0  0  0  0  0  0  0  0  0  0
   38.6460   26.2630   33.4800 O   0  0  0  0  0  0  0  0  0  0  0  0
   39.8940   26.7430   33.1730 C   0  0  0  0  0  2  0  0  0  0  0  0
   40.9860   26.1180   33.8590 N   0  0  0  0  0  4  0  0  0  0  0  0
   40.7300   25.8150   34.8340 H   0  0  0  0  0  0  0  0  0  0  0  0
   42.1630   26.9580   33.8300 C   0  0  0  0  0  2  0  0  0  0  0  0
   42.8310   26.6830   32.9630 H   0  0  0  0  0  0  0  0  0  0  0  0
   41.3140   24.8900   33.1280 C   0  0  0  0  0  2  0  0  0  0  0  0
   41.9750   24.2240   33.7050 H   0  0  0  0  0  0  0  0  0  0  0  0
  2  5  1  0  0  0  0
  2  1  2  1  0  0  0
  3  2  1  0  0  0  0
  4  3  1  0  0  0  0
  5  6  1  0  0  0  0
  6  7  1  0  0  0  0
  7 12  1  0  0  0  0
  7  8  2  0  0  0  0
  8 13  1  0  0  0  0
  9  8  1  0  0  0  0
 10  9  2  0  0  0  0
 11 10  1  0  0  0  0
 11  6  2  0  0  0  0
 14 10  1  0  0  0  0
 15  2  1  0  0  0  0
 16 15  1  0  0  0  0
 16 17  1  0  0  0  0
 17 18  1  0  0  0  0
 19 17  1  0  0  0  0
 20 19  1  0  0  0  0
 21 22  1  0  0  0  0
 21 17  1  0  0  0  0
M  END
>  <minimizedAffinity>
-3.45665359

$$$$

 OpenBabel03272503473D

 22 22  0  0  0  0  0  0  0  0999 V2000
   38.4370   22.4340   35.1370 O   0  0  0  0  0  0  0  0  0  0  0  0
   38.1810   23.1460   36.4500 P   0  0  2  0  0  0  0  0  0  0  0  0
   36.9310   22.3130   37.2090 O   0  0  0  0  0  0  0  0  0  0  0  0
   37.0880   21.3350   37.1320 H   0  0  0  0  0  0  0  0  0  0  0  0
   37.7130   24.7810   36.1970 O   0  0  0  0  0  0  0  0  0  0  0  0
   38.2740   25.5770   35.2080 C   0  0  0  0  0  0  0  0  0  0  0  0
   39.5050   26.2220   35.2960 C   0  0  0  0  0  0  0  0  0  0  0  0
   39.9380   26.9920   34.2120 C   0  0  0  0  0  0  0  0  0  0  0  0
   39.1210   27.0670   33.1250 N   0  0  0  0  0  0  0  0  0  0  0  0
   37.9290   26.4320   33.0610 C   0  0  0  0  0  0  0  0  0  0  0  0
   37.5070   25.6840   34.1120 N   0  0  0  0  0  0  0  0  0  0  0  0
   40.0570   26.0960   36.1860 H   0  0  0  0  0  0  0  0  0  0  0  0
   40.8910   27.4980   34.2650 H   0  0  0  0  0  0  0  0  0  0  0  0
   37.3030   26.5200   32.1640 H   0  0  0  0  0  0  0  0  0  0  0  0
   39.5800   23.1990   37.3920 O   0  0  0  0  0  0  0  0  0  0  0  0
   40.4550   22.1750   37.1290 C   0  0  0  0  0  2  0  0  0  0  0  0
   41.8270   22.5550   36.9710 N   0  0  0  0  0  4  0  0  0  0  0  0
   42.2390   22.9570   37.8530 H   0  0  0  0  0  0  0  0  0  0  0  0
   41.9940   23.4290   35.8320 C   0  0  0  0  0  2  0  0  0  0  0  0
   42.2750   22.8400   34.9110 H   0  0  0  0  0  0  0  0  0  0  0  0
   42.5880   21.3320   36.6920 C   0  0  0  0  0  2  0  0  0  0  0  0
   43.6740   21.4840   36.7910 H   0  0  0  0  0  0  0  0  0  0  0  0
  2  1  2  6  0  0  0
  2  3  1  0  0  0  0
  2 15  1  0  0  0  0
  4  3  1  0  0  0  0
  5  2  1  0  0  0  0
  6  7  1  0  0  0  0
  6  5  1  0  0  0  0
  7 12  1  0  0  0  0
  8 13  1  0  0  0  0
  8  7  2  0  0  0  0
  9  8  1  0  0  0  0
 10  9  2  0  0  0  0
 10 11  1  0  0  0  0
 11  6  2  0  0  0  0
 14 10  1  0  0  0  0
 16 15  1  0  0  0  0
 17 16  1  0  0  0  0
 17 18  1  0  0  0  0
 19 17  1  0  0  0  0
 20 19  1  0  0  0  0
 21 22  1  0  0  0  0
 21 17  1  0  0  0  0
M  END
>  <minimizedAffinity>
-3.43882394

$$$$

 OpenBabel03272503473D

 22 22  0  0  0  0  0  0  0  0999 V2000
   38.9840   21.9160   35.8310 O   0  0  0  0  0  0  0  0  0  0  0  0
   39.5840   23.0200   36.6790 P   0  0  2  0  0  0  0  0  0  0  0  0
   39.9470   22.3320   38.1720 O   0  0  0  0  0  0  0  0  0  0  0  0
   40.3730   21.4450   38.0350 H   0  0  0  0  0  0  0  0  0  0  0  0
   38.4760   24.3170   36.8970 O   0  0  0  0  0  0  0  0  0  0  0  0
   38.2310   25.2660   35.9140 C   0  0  0  0  0  0  0  0  0  0  0  0
   37.9450   24.9890   34.5790 C   0  0  0  0  0  0  0  0  0  0  0  0
   37.7190   26.0560   33.7060 C   0  0  0  0  0  0  0  0  0  0  0  0
   37.7930   27.3170   34.2170 N   0  0  0  0  0  0  0  0  0  0  0  0
   38.0720   27.5630   35.5170 C   0  0  0  0  0  0  0  0  0  0  0  0
   38.2920   26.5280   36.3660 N   0  0  0  0  0  0  0  0  0  0  0  0
   37.9130   23.9740   34.2910 H   0  0  0  0  0  0  0  0  0  0  0  0
   37.4970   25.8570   32.6670 H   0  0  0  0  0  0  0  0  0  0  0  0
   38.1210   28.5960   35.8850 H   0  0  0  0  0  0  0  0  0  0  0  0
   40.9440   23.6840   35.9330 O   0  0  0  0  0  0  0  0  0  0  0  0
   41.6380   22.7850   35.1630 C   0  0  0  0  0  2  0  0  0  0  0  0
   43.0630   22.9380   35.1630 N   0  0  0  0  0  4  0  0  0  0  0  0
   43.5590   22.1020   34.7590 H   0  0  0  0  0  0  0  0  0  0  0  0
   43.5460   23.2860   36.4810 C   0  0  0  0  0  2  0  0  0  0  0  0
   43.6420   24.4050   36.5910 H   0  0  0  0  0  0  0  0  0  0  0  0
   43.3800   24.0620   34.2770 C   0  0  0  0  0  2  0  0  0  0  0  0
   44.4510   24.1080   34.0250 H   0  0  0  0  0  0  0  0  0  0  0  0
  2  1  2  6  0  0  0
  2  5  1  0  0  0  0
  2  3  1  0  0  0  0
  4  3  1  0  0  0  0
  6 11  1  0  0  0  0
  6  5  1  0  0  0  0
  7  6  2  0  0  0  0
  8  9  2  0  0  0  0
  8  7  1  0  0  0  0
  9 10  1  0  0  0  0
 10 14  1  0  0  0  0
 10 11  2  0  0  0  0
 12  7  1  0  0  0  0
 13  8  1  0  0  0  0
 15  2  1  0  0  0  0
 16 17  1  0  0  0  0
 16 15  1  0  0  0  0
 17 19  1  0  0  0  0
 18 17  1  0  0  0  0
 19 20  1  0  0  0  0
 21 17  1  0  0  0  0
 22 21  1  0  0  0  0
M  END
>  <minimizedAffinity>
-3.43093538

$$$$
