
 OpenBabel03272508083D

 22 22  0  0  0  0  0  0  0  0999 V2000
   39.0680   32.8810   48.1340 O   0  0  0  0  0  0  0  0  0  0  0  0
   38.7280   31.8470   47.1200 P   0  0  2  0  0  0  0  0  0  0  0  0
   37.6660   32.4760   45.9540 O   0  0  0  0  0  0  0  0  0  0  0  0
   37.3590   33.3880   46.2080 H   0  0  0  0  0  0  0  0  0  0  0  0
   38.1230   30.4000   47.7590 O   0  0  0  0  0  0  0  0  0  0  0  0
   37.3330   30.2450   51.3660 C   0  0  0  0  0  0  0  0  0  0  0  0
   38.0620   30.5970   50.2300 C   0  0  0  0  0  0  0  0  0  0  0  0
   37.6000   30.1870   48.9870 C   0  0  0  0  0  0  0  0  0  0  0  0
   36.4440   29.4530   48.9640 N   0  0  0  0  0  0  0  0  0  0  0  0
   35.7690   29.1320   50.0770 C   0  0  0  0  0  0  0  0  0  0  0  0
   36.2130   29.5280   51.2800 N   0  0  0  0  0  0  0  0  0  0  0  0
   37.7540   30.6000   52.3130 H   0  0  0  0  0  0  0  0  0  0  0  0
   38.9770   31.1710   50.1850 H   0  0  0  0  0  0  0  0  0  0  0  0
   34.8520   28.5490   50.0380 H   0  0  0  0  0  0  0  0  0  0  0  0
   40.1770   31.4620   46.2820 O   0  0  0  0  0  0  0  0  0  0  0  0
   40.3550   32.2300   45.1600 C   0  0  0  0  0  2  0  0  0  0  0  0
   39.7150   31.6830   43.9690 N   0  0  0  0  0  4  0  0  0  0  0  0
   38.7690   31.2770   44.2250 H   0  0  0  0  0  0  0  0  0  0  0  0
   39.5440   32.7920   43.0480 C   0  0  0  0  0  2  0  0  0  0  0  0
   38.6070   32.6950   42.4640 H   0  0  0  0  0  0  0  0  0  0  0  0
   40.5000   30.6740   43.3190 C   0  0  0  0  0  2  0  0  0  0  0  0
   41.0610   30.0070   44.0040 H   0  0  0  0  0  0  0  0  0  0  0  0
  2  5  1  0  0  0  0
  2  1  2  1  0  0  0
  3  4  1  0  0  0  0
  3  2  1  0  0  0  0
  5  8  1  0  0  0  0
  6 12  1  0  0  0  0
  7  6  2  0  0  0  0
  8  7  1  0  0  0  0
  9  8  2  0  0  0  0
  9 10  1  0  0  0  0
 10 11  2  0  0  0  0
 11  6  1  0  0  0  0
 13  7  1  0  0  0  0
 14 10  1  0  0  0  0
 15  2  1  0  0  0  0
 16 15  1  0  0  0  0
 17 18  1  0  0  0  0
 17 16  1  0  0  0  0
 19 17  1  0  0  0  0
 20 19  1  0  0  0  0
 21 17  1  0  0  0  0
 21 22  1  0  0  0  0
M  END
>  <minimizedAffinity>
-4.7395649

>  <minimizedRMSD>
0.97461921

$$$$
