
 OpenBabel03262521313D

 41 43  0  0  1  0  0  0  0  0999 V2000
   38.2490   31.0420   47.5300 C   0  0  1  0  0  0  0  0  0  0  0  0
   37.2640   29.9050   47.7320 C   0  0  2  0  0  0  0  0  0  0  0  0
   36.1630   30.2180   46.9150 O   0  0  0  0  0  0  0  0  0  0  0  0
   36.7930   30.7420   45.8110 C   0  0  0  0  0  0  0  0  0  0  0  0
   37.6000   31.9240   46.5970 C   0  0  2  0  0  0  0  0  0  0  0  0
   39.1310   30.5570   46.9460 H   0  0  0  0  0  0  0  0  0  0  0  0
   37.6860   28.9570   47.3720 H   0  0  0  0  0  0  0  0  0  0  0  0
   36.1340   31.2580   45.1610 H   0  0  0  0  0  0  0  0  0  0  0  0
   37.4050   30.0200   45.3920 H   0  0  0  0  0  0  0  0  0  0  0  0
   36.6940   32.4630   46.6560 H   0  0  0  0  0  0  0  0  0  0  0  0
   37.2410   29.6370   51.4760 C   0  0  0  0  0  0  0  0  0  0  0  0
   37.7790   29.8130   50.1650 C   0  0  0  0  0  0  0  0  0  0  0  0
   36.8280   29.7370   49.1240 C   0  0  0  0  0  0  0  0  0  0  0  0
   35.4800   29.5040   49.3970 N   0  0  0  0  0  0  0  0  0  0  0  0
   35.0630   29.3500   50.6680 C   0  0  0  0  0  0  0  0  0  0  0  0
   35.9280   29.4150   51.6940 N   0  0  0  0  0  0  0  0  0  0  0  0
   37.8940   29.6810   52.3370 H   0  0  0  0  0  0  0  0  0  0  0  0
   38.8150   29.9740   50.0460 H   0  0  0  0  0  0  0  0  0  0  0  0
   33.9970   29.1780   50.7020 H   0  0  0  0  0  0  0  0  0  0  0  0
   38.8090   31.5290   48.6370 O   0  0  0  0  0  0  0  0  0  0  0  0
   38.7610   32.4960   48.7800 H   0  0  0  0  0  0  0  0  0  0  0  0
   38.5180   32.4700   45.7480 O   0  0  0  0  0  0  0  0  0  0  0  0
   39.2540   31.3810   43.7440 C   0  0  1  0  0  0  0  0  0  0  0  0
   39.4540   31.8030   45.1670 C   0  0  1  0  0  0  0  0  0  0  0  0
   40.6060   32.8320   45.0210 C   0  0  0  0  0  0  0  0  0  0  0  0
   40.2220   33.5160   43.8570 O   0  0  0  0  0  0  0  0  0  0  0  0
   39.6950   32.5870   42.9760 C   0  0  0  0  0  0  0  0  0  0  0  0
   38.2120   31.0960   43.5780 H   0  0  0  0  0  0  0  0  0  0  0  0
   39.9650   30.9700   45.7110 H   0  0  0  0  0  0  0  0  0  0  0  0
   40.6260   33.5130   45.8750 H   0  0  0  0  0  0  0  0  0  0  0  0
   41.5530   32.3080   44.8250 H   0  0  0  0  0  0  0  0  0  0  0  0
   40.5410   32.3260   42.2730 H   0  0  0  0  0  0  0  0  0  0  0  0
   38.9150   32.9920   42.3220 H   0  0  0  0  0  0  0  0  0  0  0  0
   40.1570   30.3040   43.5500 O   0  0  0  0  0  0  0  0  0  0  0  0
   39.5420   29.1510   43.1390 C   0  0  0  0  0  0  0  0  0  0  0  0
   40.5510   28.2650   42.5910 N   0  0  0  0  0  0  0  0  0  0  0  0
   41.0140   27.7530   43.3800 H   0  0  0  0  0  0  0  0  0  0  0  0
   41.5780   28.9860   41.8810 C   0  0  0  0  0  0  0  0  0  0  0  0
   41.3560   29.1350   40.8060 H   0  0  0  0  0  0  0  0  0  0  0  0
   39.9100   27.2650   41.7830 C   0  0  0  0  0  0  0  0  0  0  0  0
   39.9830   27.5460   40.7150 H   0  0  0  0  0  0  0  0  0  0  0  0
  1  6  1  6  0  0  0
  1  2  1  0  0  0  0
  1 20  1  0  0  0  0
  2  7  1  6  0  0  0
  2 13  1  0  0  0  0
  3  2  1  0  0  0  0
  4  5  1  0  0  0  0
  4  3  1  0  0  0  0
  5 10  1  1  0  0  0
  5  1  1  0  0  0  0
  8  4  1  0  0  0  0
  9  4  1  0  0  0  0
 11 16  1  0  0  0  0
 11 17  1  0  0  0  0
 12 11  2  0  0  0  0
 13 14  2  0  0  0  0
 13 12  1  0  0  0  0
 14 15  1  0  0  0  0
 15 19  1  0  0  0  0
 15 16  2  0  0  0  0
 18 12  1  0  0  0  0
 20 21  1  0  0  0  0
 22  5  1  0  0  0  0
 23 28  1  6  0  0  0
 23 24  1  0  0  0  0
 24 29  1  1  0  0  0
 24 22  1  0  0  0  0
 25 24  1  0  0  0  0
 25 30  1  0  0  0  0
 26 25  1  0  0  0  0
 27 23  1  0  0  0  0
 27 26  1  0  0  0  0
 31 25  1  0  0  0  0
 32 27  1  0  0  0  0
 33 27  1  0  0  0  0
 34 23  1  0  0  0  0
 35 34  1  0  0  0  0
 36 35  1  0  0  0  0
 36 37  1  0  0  0  0
 38 36  1  0  0  0  0
 39 38  1  0  0  0  0
 40 36  1  0  0  0  0
 41 40  1  0  0  0  0
M  END
>  <minimizedAffinity>
-5.24009609

>  <minimizedRMSD>
1.89876652

$$$$
