
 OpenBabel03262521103D

 22 22  0  0  0  0  0  0  0  0999 V2000
   39.8600   25.8340   35.0410 O   0  0  0  0  0  0  0  0  0  0  0  0
   38.5290   26.2220   35.6370 P   0  0  1  0  0  0  0  0  0  0  0  0
   38.5440   27.7940   36.2610 O   0  0  0  0  0  0  0  0  0  0  0  0
   39.2970   28.2730   35.8340 H   0  0  0  0  0  0  0  0  0  0  0  0
   37.2620   26.1890   34.4720 O   0  0  0  0  0  0  0  0  0  0  0  0
   36.9110   27.3160   33.7340 C   0  0  0  0  0  0  0  0  0  0  0  0
   37.2480   27.5550   32.4040 C   0  0  0  0  0  0  0  0  0  0  0  0
   36.8080   28.7490   31.8200 C   0  0  0  0  0  0  0  0  0  0  0  0
   36.0780   29.6080   32.5750 N   0  0  0  0  0  0  0  0  0  0  0  0
   35.7700   29.3400   33.8650 C   0  0  0  0  0  0  0  0  0  0  0  0
   36.1850   28.1960   34.4460 N   0  0  0  0  0  0  0  0  0  0  0  0
   37.8240   26.8070   31.9190 H   0  0  0  0  0  0  0  0  0  0  0  0
   37.0730   28.9300   30.7870 H   0  0  0  0  0  0  0  0  0  0  0  0
   35.1760   30.0640   34.4420 H   0  0  0  0  0  0  0  0  0  0  0  0
   38.1920   25.1000   36.8600 O   0  0  0  0  0  0  0  0  0  0  0  0
   37.9770   23.8350   36.3790 C   0  0  0  0  0  2  0  0  0  0  0  0
   38.5940   22.9080   37.3420 N   0  0  0  0  0  4  0  0  0  0  0  0
   37.9800   22.0410   37.3630 H   0  0  0  0  0  0  0  0  0  0  0  0
   39.9420   22.5810   36.9810 C   0  0  0  0  0  2  0  0  0  0  0  0
   40.6390   23.1460   37.6350 H   0  0  0  0  0  0  0  0  0  0  0  0
   38.5750   23.5030   38.6500 C   0  0  0  0  0  2  0  0  0  0  0  0
   38.6150   24.6100   38.6490 H   0  0  0  0  0  0  0  0  0  0  0  0
  2  1  2  6  0  0  0
  2  3  1  0  0  0  0
  2 15  1  0  0  0  0
  4  3  1  0  0  0  0
  5  2  1  0  0  0  0
  6 11  1  0  0  0  0
  6  5  1  0  0  0  0
  7  6  2  0  0  0  0
  8  7  1  0  0  0  0
  8  9  2  0  0  0  0
  9 10  1  0  0  0  0
 10 14  1  0  0  0  0
 10 11  2  0  0  0  0
 12  7  1  0  0  0  0
 13  8  1  0  0  0  0
 16 15  1  0  0  0  0
 16 17  1  0  0  0  0
 17 18  1  0  0  0  0
 17 21  1  0  0  0  0
 19 17  1  0  0  0  0
 19 20  1  0  0  0  0
 22 21  1  0  0  0  0
M  END
>  <minimizedAffinity>
-4.09446096

$$$$

 OpenBabel03262521103D

 22 22  0  0  0  0  0  0  0  0999 V2000
   36.8220   27.9100   34.6950 O   0  0  0  0  0  0  0  0  0  0  0  0
   37.9330   27.0080   35.1760 P   0  0  1  0  0  0  0  0  0  0  0  0
   38.7410   27.6480   36.5150 O   0  0  0  0  0  0  0  0  0  0  0  0
   38.1400   28.3160   36.9300 H   0  0  0  0  0  0  0  0  0  0  0  0
   37.3480   25.4660   35.6700 O   0  0  0  0  0  0  0  0  0  0  0  0
   38.1030   24.6160   36.4740 C   0  0  0  0  0  0  0  0  0  0  0  0
   37.8760   24.3570   37.8240 C   0  0  0  0  0  0  0  0  0  0  0  0
   38.7410   23.4710   38.4770 C   0  0  0  0  0  0  0  0  0  0  0  0
   39.7520   22.9100   37.7650 N   0  0  0  0  0  0  0  0  0  0  0  0
   39.9400   23.1870   36.4540 C   0  0  0  0  0  0  0  0  0  0  0  0
   39.1170   24.0380   35.8070 N   0  0  0  0  0  0  0  0  0  0  0  0
   37.0530   24.8570   38.2700 H   0  0  0  0  0  0  0  0  0  0  0  0
   38.5610   23.2740   39.5250 H   0  0  0  0  0  0  0  0  0  0  0  0
   40.7720   22.7100   35.9140 H   0  0  0  0  0  0  0  0  0  0  0  0
   39.0000   26.8080   33.8760 O   0  0  0  0  0  0  0  0  0  0  0  0
   38.3630   26.7550   32.6640 C   0  0  0  0  0  2  0  0  0  0  0  0
   37.4890   25.5720   32.6990 N   0  0  0  0  0  4  0  0  0  0  0  0
   37.2050   25.4350   33.7140 H   0  0  0  0  0  0  0  0  0  0  0  0
   36.3410   25.7300   31.8560 C   0  0  0  0  0  2  0  0  0  0  0  0
   36.4890   25.1410   30.9270 H   0  0  0  0  0  0  0  0  0  0  0  0
   38.2380   24.4180   32.2830 C   0  0  0  0  0  2  0  0  0  0  0  0
   39.0590   24.6380   31.5720 H   0  0  0  0  0  0  0  0  0  0  0  0
  2  1  2  6  0  0  0
  2  5  1  0  0  0  0
  2  3  1  0  0  0  0
  3  4  1  0  0  0  0
  5  6  1  0  0  0  0
  6  7  1  0  0  0  0
  7 12  1  0  0  0  0
  7  8  2  0  0  0  0
  8 13  1  0  0  0  0
  9  8  1  0  0  0  0
 10  9  2  0  0  0  0
 11 10  1  0  0  0  0
 11  6  2  0  0  0  0
 14 10  1  0  0  0  0
 15  2  1  0  0  0  0
 16 17  1  0  0  0  0
 16 15  1  0  0  0  0
 17 18  1  0  0  0  0
 19 17  1  0  0  0  0
 20 19  1  0  0  0  0
 21 17  1  0  0  0  0
 22 21  1  0  0  0  0
M  END
>  <minimizedAffinity>
-3.98577929

$$$$

 OpenBabel03262521103D

 22 22  0  0  0  0  0  0  0  0999 V2000
   39.8320   26.7620   35.2150 O   0  0  0  0  0  0  0  0  0  0  0  0
   38.8660   25.6410   34.9200 P   0  0  1  0  0  0  0  0  0  0  0  0
   37.2760   26.0430   35.3310 O   0  0  0  0  0  0  0  0  0  0  0  0
   37.2250   27.0310   35.3760 H   0  0  0  0  0  0  0  0  0  0  0  0
   38.8330   25.2360   33.2480 O   0  0  0  0  0  0  0  0  0  0  0  0
   37.6370   25.0870   32.5500 C   0  0  0  0  0  0  0  0  0  0  0  0
   37.0340   23.8770   32.2180 C   0  0  0  0  0  0  0  0  0  0  0  0
   35.8270   23.9180   31.5090 C   0  0  0  0  0  0  0  0  0  0  0  0
   35.3080   25.1290   31.1840 N   0  0  0  0  0  0  0  0  0  0  0  0
   35.9240   26.2840   31.5250 C   0  0  0  0  0  0  0  0  0  0  0  0
   37.0870   26.2650   32.2080 N   0  0  0  0  0  0  0  0  0  0  0  0
   37.5370   22.9960   32.5270 H   0  0  0  0  0  0  0  0  0  0  0  0
   35.3620   22.9750   31.2530 H   0  0  0  0  0  0  0  0  0  0  0  0
   35.4690   27.2450   31.2420 H   0  0  0  0  0  0  0  0  0  0  0  0
   39.3880   24.2960   35.8090 O   0  0  0  0  0  0  0  0  0  0  0  0
   38.3900   23.3860   36.0360 C   0  0  0  0  0  2  0  0  0  0  0  0
   38.6670   22.7750   37.3460 N   0  0  0  0  0  4  0  0  0  0  0  0
   38.2120   21.8140   37.3340 H   0  0  0  0  0  0  0  0  0  0  0  0
   40.0730   22.6800   37.6050 C   0  0  0  0  0  2  0  0  0  0  0  0
   40.3630   23.4750   38.3230 H   0  0  0  0  0  0  0  0  0  0  0  0
   38.0380   23.5560   38.3750 C   0  0  0  0  0  2  0  0  0  0  0  0
   37.9350   24.6330   38.1340 H   0  0  0  0  0  0  0  0  0  0  0  0
  2  1  2  1  0  0  0
  2  3  1  0  0  0  0
  2 15  1  0  0  0  0
  3  4  1  0  0  0  0
  5  2  1  0  0  0  0
  6  5  1  0  0  0  0
  7 12  1  0  0  0  0
  7  6  1  0  0  0  0
  8  7  2  0  0  0  0
  9  8  1  0  0  0  0
  9 10  2  0  0  0  0
 10 11  1  0  0  0  0
 11  6  2  0  0  0  0
 13  8  1  0  0  0  0
 14 10  1  0  0  0  0
 15 16  1  0  0  0  0
 16 17  1  0  0  0  0
 17 19  1  0  0  0  0
 17 21  1  0  0  0  0
 18 17  1  0  0  0  0
 19 20  1  0  0  0  0
 22 21  1  0  0  0  0
M  END
>  <minimizedAffinity>
-3.74999428

$$$$

 OpenBabel03262521103D

 22 22  0  0  0  0  0  0  0  0999 V2000
   37.1990   22.6700   36.6810 O   0  0  0  0  0  0  0  0  0  0  0  0
   38.5570   22.6950   36.0230 P   0  0  1  0  0  0  0  0  0  0  0  0
   39.7250   21.8840   36.9370 O   0  0  0  0  0  0  0  0  0  0  0  0
   39.2460   21.2740   37.5530 H   0  0  0  0  0  0  0  0  0  0  0  0
   38.5470   21.9260   34.4830 O   0  0  0  0  0  0  0  0  0  0  0  0
   37.4680   22.0420   33.6100 C   0  0  0  0  0  0  0  0  0  0  0  0
   36.4230   21.1310   33.4820 C   0  0  0  0  0  0  0  0  0  0  0  0
   35.4190   21.4100   32.5470 C   0  0  0  0  0  0  0  0  0  0  0  0
   35.5130   22.5500   31.8170 N   0  0  0  0  0  0  0  0  0  0  0  0
   36.5460   23.4130   31.9700 C   0  0  0  0  0  0  0  0  0  0  0  0
   37.5220   23.1610   32.8650 N   0  0  0  0  0  0  0  0  0  0  0  0
   36.4610   20.2750   34.1090 H   0  0  0  0  0  0  0  0  0  0  0  0
   34.6090   20.6990   32.4510 H   0  0  0  0  0  0  0  0  0  0  0  0
   36.5830   24.3260   31.3590 H   0  0  0  0  0  0  0  0  0  0  0  0
   38.9790   24.3240   35.8290 O   0  0  0  0  0  0  0  0  0  0  0  0
   38.1450   25.1760   36.5050 C   0  0  0  0  0  2  0  0  0  0  0  0
   38.2080   26.4700   35.8070 N   0  0  0  0  0  4  0  0  0  0  0  0
   37.9550   27.2130   36.5240 H   0  0  0  0  0  0  0  0  0  0  0  0
   39.5040   26.7120   35.2450 C   0  0  0  0  0  2  0  0  0  0  0  0
   39.4620   26.5360   34.1500 H   0  0  0  0  0  0  0  0  0  0  0  0
   37.2180   26.4940   34.7660 C   0  0  0  0  0  2  0  0  0  0  0  0
   36.9800   25.5000   34.3380 H   0  0  0  0  0  0  0  0  0  0  0  0
  2  1  2  1  0  0  0
  2  3  1  0  0  0  0
  3  4  1  0  0  0  0
  5  2  1  0  0  0  0
  6  5  1  0  0  0  0
  7  6  1  0  0  0  0
  7 12  1  0  0  0  0
  8  7  2  0  0  0  0
  9 10  2  0  0  0  0
  9  8  1  0  0  0  0
 10 11  1  0  0  0  0
 11  6  2  0  0  0  0
 13  8  1  0  0  0  0
 14 10  1  0  0  0  0
 15  2  1  0  0  0  0
 15 16  1  0  0  0  0
 17 16  1  0  0  0  0
 17 18  1  0  0  0  0
 19 17  1  0  0  0  0
 20 19  1  0  0  0  0
 21 17  1  0  0  0  0
 22 21  1  0  0  0  0
M  END
>  <minimizedAffinity>
-3.70248771

$$$$

 OpenBabel03262521103D

 22 22  0  0  0  0  0  0  0  0999 V2000
   36.8820   27.2210   34.5590 O   0  0  0  0  0  0  0  0  0  0  0  0
   38.2790   26.7210   34.8320 P   0  0  1  0  0  0  0  0  0  0  0  0
   38.9040   27.3300   36.2800 O   0  0  0  0  0  0  0  0  0  0  0  0
   38.1370   27.6280   36.8300 H   0  0  0  0  0  0  0  0  0  0  0  0
   38.3370   25.0060   34.9780 O   0  0  0  0  0  0  0  0  0  0  0  0
   38.6190   24.3800   36.1900 C   0  0  0  0  0  0  0  0  0  0  0  0
   39.6200   23.4360   36.4050 C   0  0  0  0  0  0  0  0  0  0  0  0
   39.7590   22.9090   37.6940 C   0  0  0  0  0  0  0  0  0  0  0  0
   38.9160   23.3420   38.6650 N   0  0  0  0  0  0  0  0  0  0  0  0
   37.9540   24.2620   38.4170 C   0  0  0  0  0  0  0  0  0  0  0  0
   37.8050   24.7820   37.1820 N   0  0  0  0  0  0  0  0  0  0  0  0
   40.2150   23.1780   35.5650 H   0  0  0  0  0  0  0  0  0  0  0  0
   40.5380   22.1750   37.8560 H   0  0  0  0  0  0  0  0  0  0  0  0
   37.2920   24.5870   39.2330 H   0  0  0  0  0  0  0  0  0  0  0  0
   39.2380   27.2010   33.5210 O   0  0  0  0  0  0  0  0  0  0  0  0
   40.5780   27.1780   33.8020 C   0  0  0  0  0  2  0  0  0  0  0  0
   40.9680   25.7610   33.8840 N   0  0  0  0  0  4  0  0  0  0  0  0
   40.1630   25.2530   34.3580 H   0  0  0  0  0  0  0  0  0  0  0  0
   41.2420   25.2070   32.5910 C   0  0  0  0  0  2  0  0  0  0  0  0
   42.3410   25.1230   32.4580 H   0  0  0  0  0  0  0  0  0  0  0  0
   42.1310   25.6370   34.7190 C   0  0  0  0  0  2  0  0  0  0  0  0
   42.7920   26.5260   34.7160 H   0  0  0  0  0  0  0  0  0  0  0  0
  2  1  2  6  0  0  0
  2  5  1  0  0  0  0
  2  3  1  0  0  0  0
  3  4  1  0  0  0  0
  5  6  1  0  0  0  0
  6  7  2  0  0  0  0
  6 11  1  0  0  0  0
  7  8  1  0  0  0  0
  8 13  1  0  0  0  0
  8  9  2  0  0  0  0
 10  9  1  0  0  0  0
 10 14  1  0  0  0  0
 11 10  2  0  0  0  0
 12  7  1  0  0  0  0
 15 16  1  0  0  0  0
 15  2  1  0  0  0  0
 16 17  1  0  0  0  0
 17 18  1  0  0  0  0
 17 21  1  0  0  0  0
 19 17  1  0  0  0  0
 20 19  1  0  0  0  0
 22 21  1  0  0  0  0
M  END
>  <minimizedAffinity>
-3.65447688

$$$$

 OpenBabel03262521103D

 22 22  0  0  0  0  0  0  0  0999 V2000
   38.9150   25.1820   33.7300 O   0  0  0  0  0  0  0  0  0  0  0  0
   38.5030   23.7880   33.3240 P   0  0  1  0  0  0  0  0  0  0  0  0
   39.8110   22.8710   32.7700 O   0  0  0  0  0  0  0  0  0  0  0  0
   40.6360   23.2950   33.1180 H   0  0  0  0  0  0  0  0  0  0  0  0
   37.8300   22.9020   34.6380 O   0  0  0  0  0  0  0  0  0  0  0  0
   38.3580   22.9780   35.9240 C   0  0  0  0  0  0  0  0  0  0  0  0
   39.6090   22.5110   36.3180 C   0  0  0  0  0  0  0  0  0  0  0  0
   39.9770   22.6710   37.6600 C   0  0  0  0  0  0  0  0  0  0  0  0
   39.1000   23.2710   38.5040 N   0  0  0  0  0  0  0  0  0  0  0  0
   37.8910   23.7120   38.0830 C   0  0  0  0  0  0  0  0  0  0  0  0
   37.5190   23.5670   36.7940 N   0  0  0  0  0  0  0  0  0  0  0  0
   40.2050   22.0590   35.5650 H   0  0  0  0  0  0  0  0  0  0  0  0
   40.9500   22.3070   37.9610 H   0  0  0  0  0  0  0  0  0  0  0  0
   37.2100   24.1940   38.8000 H   0  0  0  0  0  0  0  0  0  0  0  0
   37.3360   23.9540   32.1080 O   0  0  0  0  0  0  0  0  0  0  0  0
   37.5820   25.0120   31.2730 C   0  0  0  0  0  2  0  0  0  0  0  0
   36.2830   25.4160   30.7110 N   0  0  0  0  0  4  0  0  0  0  0  0
   36.3950   25.4090   29.6540 H   0  0  0  0  0  0  0  0  0  0  0  0
   35.2250   24.5440   31.1270 C   0  0  0  0  0  2  0  0  0  0  0  0
   34.6290   25.0470   31.9160 H   0  0  0  0  0  0  0  0  0  0  0  0
   35.9880   26.7620   31.1210 C   0  0  0  0  0  2  0  0  0  0  0  0
   36.4270   27.0490   32.0980 H   0  0  0  0  0  0  0  0  0  0  0  0
  2  1  2  1  0  0  0
  2  5  1  0  0  0  0
  3  4  1  0  0  0  0
  3  2  1  0  0  0  0
  5  6  1  0  0  0  0
  6  7  2  0  0  0  0
  6 11  1  0  0  0  0
  7  8  1  0  0  0  0
  8 13  1  0  0  0  0
  8  9  2  0  0  0  0
 10  9  1  0  0  0  0
 10 14  1  0  0  0  0
 11 10  2  0  0  0  0
 12  7  1  0  0  0  0
 15  2  1  0  0  0  0
 16 15  1  0  0  0  0
 17 21  1  0  0  0  0
 17 19  1  0  0  0  0
 17 16  1  0  0  0  0
 18 17  1  0  0  0  0
 19 20  1  0  0  0  0
 21 22  1  0  0  0  0
M  END
>  <minimizedAffinity>
-3.58331823

$$$$

 OpenBabel03262521103D

 22 22  0  0  0  0  0  0  0  0999 V2000
   36.9250   22.7480   37.0260 O   0  0  0  0  0  0  0  0  0  0  0  0
   38.3090   23.3220   37.2070 P   0  0  1  0  0  0  0  0  0  0  0  0
   39.0240   22.8230   38.6550 O   0  0  0  0  0  0  0  0  0  0  0  0
   38.5510   22.0040   38.9490 H   0  0  0  0  0  0  0  0  0  0  0  0
   39.3850   22.8310   35.9560 O   0  0  0  0  0  0  0  0  0  0  0  0
   40.7440   22.6380   36.1880 C   0  0  0  0  0  0  0  0  0  0  0  0
   41.7680   23.4900   35.7800 C   0  0  0  0  0  0  0  0  0  0  0  0
   43.0830   23.1360   36.1010 C   0  0  0  0  0  0  0  0  0  0  0  0
   43.2940   21.9870   36.7910 N   0  0  0  0  0  0  0  0  0  0  0  0
   42.2720   21.1840   37.1710 C   0  0  0  0  0  0  0  0  0  0  0  0
   40.9980   21.5090   36.8710 N   0  0  0  0  0  0  0  0  0  0  0  0
   41.4760   24.3600   35.2450 H   0  0  0  0  0  0  0  0  0  0  0  0
   43.8750   23.8010   35.7810 H   0  0  0  0  0  0  0  0  0  0  0  0
   42.4870   20.2620   37.7300 H   0  0  0  0  0  0  0  0  0  0  0  0
   38.1490   25.0090   37.1730 O   0  0  0  0  0  0  0  0  0  0  0  0
   37.7080   25.4790   35.9640 C   0  0  0  0  0  2  0  0  0  0  0  0
   38.8980   25.6350   35.1130 N   0  0  0  0  0  4  0  0  0  0  0  0
   39.6130   24.9300   35.4610 H   0  0  0  0  0  0  0  0  0  0  0  0
   38.5960   25.4270   33.7280 C   0  0  0  0  0  2  0  0  0  0  0  0
   38.5500   26.4110   33.2150 H   0  0  0  0  0  0  0  0  0  0  0  0
   39.4420   26.9530   35.2960 C   0  0  0  0  0  2  0  0  0  0  0  0
   38.6920   27.7230   35.5670 H   0  0  0  0  0  0  0  0  0  0  0  0
  2  1  2  6  0  0  0
  2  3  1  0  0  0  0
  3  4  1  0  0  0  0
  5  6  1  0  0  0  0
  5  2  1  0  0  0  0
  6 11  1  0  0  0  0
  7  8  1  0  0  0  0
  7  6  2  0  0  0  0
  8  9  2  0  0  0  0
  9 10  1  0  0  0  0
 10 14  1  0  0  0  0
 11 10  2  0  0  0  0
 12  7  1  0  0  0  0
 13  8  1  0  0  0  0
 15  2  1  0  0  0  0
 16 15  1  0  0  0  0
 17 21  1  0  0  0  0
 17 18  1  0  0  0  0
 17 16  1  0  0  0  0
 19 17  1  0  0  0  0
 20 19  1  0  0  0  0
 21 22  1  0  0  0  0
M  END
>  <minimizedAffinity>
-3.5730834

$$$$

 OpenBabel03262521103D

 22 22  0  0  0  0  0  0  0  0999 V2000
   34.9860   25.5410   30.7030 O   0  0  0  0  0  0  0  0  0  0  0  0
   36.3190   25.6410   31.4030 P   0  0  1  0  0  0  0  0  0  0  0  0
   37.5810   25.9780   30.3300 O   0  0  0  0  0  0  0  0  0  0  0  0
   37.1770   26.3660   29.5140 H   0  0  0  0  0  0  0  0  0  0  0  0
   36.3440   26.9050   32.5720 O   0  0  0  0  0  0  0  0  0  0  0  0
   37.3320   26.9820   33.5510 C   0  0  0  0  0  0  0  0  0  0  0  0
   37.1120   27.1310   34.9180 C   0  0  0  0  0  0  0  0  0  0  0  0
   38.2290   27.1920   35.7590 C   0  0  0  0  0  0  0  0  0  0  0  0
   39.4640   27.1020   35.2040 N   0  0  0  0  0  0  0  0  0  0  0  0
   39.6370   26.9570   33.8690 C   0  0  0  0  0  0  0  0  0  0  0  0
   38.5730   26.8970   33.0420 N   0  0  0  0  0  0  0  0  0  0  0  0
   36.1000   27.1900   35.2320 H   0  0  0  0  0  0  0  0  0  0  0  0
   38.0540   27.3080   36.8210 H   0  0  0  0  0  0  0  0  0  0  0  0
   40.6560   26.8880   33.4590 H   0  0  0  0  0  0  0  0  0  0  0  0
   36.5790   24.1580   32.1800 O   0  0  0  0  0  0  0  0  0  0  0  0
   35.8510   23.1340   31.6340 C   0  0  0  0  0  2  0  0  0  0  0  0
   36.4080   21.8850   32.1770 N   0  0  0  0  0  4  0  0  0  0  0  0
   35.5910   21.3470   32.5940 H   0  0  0  0  0  0  0  0  0  0  0  0
   37.0770   21.1150   31.1700 C   0  0  0  0  0  2  0  0  0  0  0  0
   38.1740   21.2310   31.2960 H   0  0  0  0  0  0  0  0  0  0  0  0
   37.3270   22.1980   33.2370 C   0  0  0  0  0  2  0  0  0  0  0  0
   37.8320   23.1790   33.1290 H   0  0  0  0  0  0  0  0  0  0  0  0
  2  1  2  6  0  0  0
  2 15  1  0  0  0  0
  2  5  1  0  0  0  0
  3  2  1  0  0  0  0
  4  3  1  0  0  0  0
  5  6  1  0  0  0  0
  6  7  1  0  0  0  0
  7 12  1  0  0  0  0
  7  8  2  0  0  0  0
  8 13  1  0  0  0  0
  9  8  1  0  0  0  0
 10  9  2  0  0  0  0
 11  6  2  0  0  0  0
 11 10  1  0  0  0  0
 14 10  1  0  0  0  0
 16 17  1  0  0  0  0
 16 15  1  0  0  0  0
 17 18  1  0  0  0  0
 17 21  1  0  0  0  0
 19 20  1  0  0  0  0
 19 17  1  0  0  0  0
 22 21  1  0  0  0  0
M  END
>  <minimizedAffinity>
-3.5550108

$$$$

 OpenBabel03262521103D

 22 22  0  0  0  0  0  0  0  0999 V2000
   39.7450   26.9410   34.1240 O   0  0  0  0  0  0  0  0  0  0  0  0
   38.7430   26.5930   35.1980 P   0  0  1  0  0  0  0  0  0  0  0  0
   38.7090   27.7420   36.4370 O   0  0  0  0  0  0  0  0  0  0  0  0
   39.1010   28.5760   36.0750 H   0  0  0  0  0  0  0  0  0  0  0  0
   37.1360   26.5130   34.5850 O   0  0  0  0  0  0  0  0  0  0  0  0
   36.8270   26.8880   33.2800 C   0  0  0  0  0  0  0  0  0  0  0  0
   36.6570   28.1940   32.8270 C   0  0  0  0  0  0  0  0  0  0  0  0
   36.3460   28.3850   31.4760 C   0  0  0  0  0  0  0  0  0  0  0  0
   36.2270   27.2930   30.6780 N   0  0  0  0  0  0  0  0  0  0  0  0
   36.4000   26.0380   31.1560 C   0  0  0  0  0  0  0  0  0  0  0  0
   36.7000   25.8340   32.4550 N   0  0  0  0  0  0  0  0  0  0  0  0
   36.7760   28.9640   33.5470 H   0  0  0  0  0  0  0  0  0  0  0  0
   36.2140   29.4010   31.1290 H   0  0  0  0  0  0  0  0  0  0  0  0
   36.2950   25.1810   30.4750 H   0  0  0  0  0  0  0  0  0  0  0  0
   39.1830   25.0740   35.8060 O   0  0  0  0  0  0  0  0  0  0  0  0
   39.8600   24.3090   34.8930 C   0  0  0  0  0  2  0  0  0  0  0  0
   38.9140   24.0190   33.8030 N   0  0  0  0  0  4  0  0  0  0  0  0
   38.2960   24.8770   33.7030 H   0  0  0  0  0  0  0  0  0  0  0  0
   39.5890   23.7180   32.5750 C   0  0  0  0  0  2  0  0  0  0  0  0
   39.5580   22.6220   32.4030 H   0  0  0  0  0  0  0  0  0  0  0  0
   38.0830   22.9090   34.1810 C   0  0  0  0  0  2  0  0  0  0  0  0
   38.5660   22.1910   34.8730 H   0  0  0  0  0  0  0  0  0  0  0  0
  2  1  2  6  0  0  0
  2 15  1  0  0  0  0
  2  3  1  0  0  0  0
  4  3  1  0  0  0  0
  5  2  1  0  0  0  0
  6  5  1  0  0  0  0
  7  6  1  0  0  0  0
  7 12  1  0  0  0  0
  8  7  2  0  0  0  0
  9 10  2  0  0  0  0
  9  8  1  0  0  0  0
 10 11  1  0  0  0  0
 11  6  2  0  0  0  0
 13  8  1  0  0  0  0
 14 10  1  0  0  0  0
 16 15  1  0  0  0  0
 17 21  1  0  0  0  0
 17 16  1  0  0  0  0
 18 17  1  0  0  0  0
 19 17  1  0  0  0  0
 20 19  1  0  0  0  0
 21 22  1  0  0  0  0
M  END
>  <minimizedAffinity>
-3.35651588

$$$$
