
 OpenBabel03272508073D

 22 22  0  0  0  0  0  0  0  0999 V2000
   39.2800   32.2960   47.9040 O   0  0  0  0  0  0  0  0  0  0  0  0
   38.5170   31.4640   46.9350 P   0  0  2  0  0  0  0  0  0  0  0  0
   37.5290   32.4380   45.9550 O   0  0  0  0  0  0  0  0  0  0  0  0
   37.5370   33.3810   46.2690 H   0  0  0  0  0  0  0  0  0  0  0  0
   37.6170   30.2100   47.6310 O   0  0  0  0  0  0  0  0  0  0  0  0
   37.3730   30.1600   51.3190 C   0  0  0  0  0  0  0  0  0  0  0  0
   37.9500   30.4340   50.0790 C   0  0  0  0  0  0  0  0  0  0  0  0
   37.2690   30.0570   48.9290 C   0  0  0  0  0  0  0  0  0  0  0  0
   36.0620   29.4320   49.0960 N   0  0  0  0  0  0  0  0  0  0  0  0
   35.5380   29.1850   50.3050 C   0  0  0  0  0  0  0  0  0  0  0  0
   36.1930   29.5480   51.4190 N   0  0  0  0  0  0  0  0  0  0  0  0
   37.9620   30.4830   52.1830 H   0  0  0  0  0  0  0  0  0  0  0  0
   38.8950   30.9210   49.8830 H   0  0  0  0  0  0  0  0  0  0  0  0
   34.5780   28.6880   50.4180 H   0  0  0  0  0  0  0  0  0  0  0  0
   39.6610   30.7380   45.8790 O   0  0  0  0  0  0  0  0  0  0  0  0
   39.0980   30.3200   44.7000 C   0  0  0  0  0  2  0  0  0  0  0  0
   40.0050   29.5390   43.8660 N   0  0  0  0  0  4  0  0  0  0  0  0
   40.7490   29.0860   44.4720 H   0  0  0  0  0  0  0  0  0  0  0  0
   39.1970   28.5130   43.2310 C   0  0  0  0  0  2  0  0  0  0  0  0
   39.7600   27.5660   43.1130 H   0  0  0  0  0  0  0  0  0  0  0  0
   40.6360   30.3140   42.8390 C   0  0  0  0  0  2  0  0  0  0  0  0
   40.9080   31.3470   43.1370 H   0  0  0  0  0  0  0  0  0  0  0  0
  2  5  1  0  0  0  0
  2  1  2  1  0  0  0
  3  4  1  0  0  0  0
  3  2  1  0  0  0  0
  5  8  1  0  0  0  0
  6 11  1  0  0  0  0
  6 12  1  0  0  0  0
  7  6  2  0  0  0  0
  8  9  2  0  0  0  0
  8  7  1  0  0  0  0
  9 10  1  0  0  0  0
 10 14  1  0  0  0  0
 10 11  2  0  0  0  0
 13  7  1  0  0  0  0
 15  2  1  0  0  0  0
 16 15  1  0  0  0  0
 17 18  1  0  0  0  0
 17 16  1  0  0  0  0
 19 17  1  0  0  0  0
 20 19  1  0  0  0  0
 21 22  1  0  0  0  0
 21 17  1  0  0  0  0
M  END
>  <minimizedAffinity>
-4.51030302

>  <minimizedRMSD>
1.39868319

$$$$
