
 OpenBabel03272508083D

 22 22  0  0  0  0  0  0  0  0999 V2000
   39.2130   32.7780   48.0860 O   0  0  0  0  0  0  0  0  0  0  0  0
   38.7430   31.8320   47.0380 P   0  0  2  0  0  0  0  0  0  0  0  0
   37.6960   32.6110   45.9520 O   0  0  0  0  0  0  0  0  0  0  0  0
   37.4800   33.5310   46.2640 H   0  0  0  0  0  0  0  0  0  0  0  0
   38.0390   30.4100   47.6310 O   0  0  0  0  0  0  0  0  0  0  0  0
   37.3200   30.1930   51.2500 C   0  0  0  0  0  0  0  0  0  0  0  0
   38.0340   30.5530   50.1070 C   0  0  0  0  0  0  0  0  0  0  0  0
   37.5360   30.1820   48.8650 C   0  0  0  0  0  0  0  0  0  0  0  0
   36.3620   29.4780   48.8500 N   0  0  0  0  0  0  0  0  0  0  0  0
   35.7020   29.1490   49.9690 C   0  0  0  0  0  0  0  0  0  0  0  0
   36.1810   29.5060   51.1710 N   0  0  0  0  0  0  0  0  0  0  0  0
   37.7690   30.5160   52.1940 H   0  0  0  0  0  0  0  0  0  0  0  0
   38.9620   31.1050   50.0550 H   0  0  0  0  0  0  0  0  0  0  0  0
   34.7710   28.5900   49.9370 H   0  0  0  0  0  0  0  0  0  0  0  0
   40.1190   31.3700   46.1200 O   0  0  0  0  0  0  0  0  0  0  0  0
   39.8970   31.4400   44.7680 C   0  0  0  0  0  2  0  0  0  0  0  0
   38.7880   30.6080   44.3130 N   0  0  0  0  0  4  0  0  0  0  0  0
   37.9860   30.6710   45.0040 H   0  0  0  0  0  0  0  0  0  0  0  0
   38.3740   31.1440   43.0280 C   0  0  0  0  0  2  0  0  0  0  0  0
   37.2780   31.0610   42.8870 H   0  0  0  0  0  0  0  0  0  0  0  0
   39.1520   29.2330   44.1310 C   0  0  0  0  0  2  0  0  0  0  0  0
   39.8710   28.8400   44.8780 H   0  0  0  0  0  0  0  0  0  0  0  0
  2  5  1  0  0  0  0
  2  1  2  1  0  0  0
  3  4  1  0  0  0  0
  3  2  1  0  0  0  0
  5  8  1  0  0  0  0
  6 12  1  0  0  0  0
  7  6  2  0  0  0  0
  8  7  1  0  0  0  0
  9  8  2  0  0  0  0
  9 10  1  0  0  0  0
 10 11  2  0  0  0  0
 11  6  1  0  0  0  0
 13  7  1  0  0  0  0
 14 10  1  0  0  0  0
 15  2  1  0  0  0  0
 16 15  1  0  0  0  0
 17 16  1  0  0  0  0
 17 18  1  0  0  0  0
 19 17  1  0  0  0  0
 20 19  1  0  0  0  0
 21 17  1  0  0  0  0
 21 22  1  0  0  0  0
M  END
>  <minimizedAffinity>
-4.38741541

>  <minimizedRMSD>
0.739702165

$$$$
