
 OpenBabel03272508083D

 22 22  0  0  0  0  0  0  0  0999 V2000
   39.0440   32.8970   48.1650 O   0  0  0  0  0  0  0  0  0  0  0  0
   38.6940   31.8580   47.1580 P   0  0  2  0  0  0  0  0  0  0  0  0
   37.5830   32.4690   46.0270 O   0  0  0  0  0  0  0  0  0  0  0  0
   37.2650   33.3730   46.2940 H   0  0  0  0  0  0  0  0  0  0  0  0
   38.1400   30.3970   47.8100 O   0  0  0  0  0  0  0  0  0  0  0  0
   37.3110   30.2310   51.4080 C   0  0  0  0  0  0  0  0  0  0  0  0
   38.0530   30.5850   50.2810 C   0  0  0  0  0  0  0  0  0  0  0  0
   37.6030   30.1810   49.0310 C   0  0  0  0  0  0  0  0  0  0  0  0
   36.4450   29.4510   48.9930 N   0  0  0  0  0  0  0  0  0  0  0  0
   35.7570   29.1280   50.0970 C   0  0  0  0  0  0  0  0  0  0  0  0
   36.1890   29.5180   51.3070 N   0  0  0  0  0  0  0  0  0  0  0  0
   37.7220   30.5810   52.3600 H   0  0  0  0  0  0  0  0  0  0  0  0
   38.9710   31.1560   50.2480 H   0  0  0  0  0  0  0  0  0  0  0  0
   34.8390   28.5480   50.0460 H   0  0  0  0  0  0  0  0  0  0  0  0
   40.1240   31.5070   46.2740 O   0  0  0  0  0  0  0  0  0  0  0  0
   39.8710   30.8210   45.1130 C   0  0  0  0  0  2  0  0  0  0  0  0
   40.5200   31.3970   43.9410 N   0  0  0  0  0  4  0  0  0  0  0  0
   41.4910   31.7380   44.2000 H   0  0  0  0  0  0  0  0  0  0  0  0
   40.6180   30.3300   42.9610 C   0  0  0  0  0  2  0  0  0  0  0  0
   41.5500   30.4090   42.3640 H   0  0  0  0  0  0  0  0  0  0  0  0
   39.7780   32.4770   43.3580 C   0  0  0  0  0  2  0  0  0  0  0  0
   39.2660   33.1360   44.0880 H   0  0  0  0  0  0  0  0  0  0  0  0
  2  5  1  0  0  0  0
  2  1  2  1  0  0  0
  3  4  1  0  0  0  0
  3  2  1  0  0  0  0
  5  8  1  0  0  0  0
  6 12  1  0  0  0  0
  7  6  2  0  0  0  0
  8  7  1  0  0  0  0
  9  8  2  0  0  0  0
  9 10  1  0  0  0  0
 10 11  2  0  0  0  0
 11  6  1  0  0  0  0
 13  7  1  0  0  0  0
 14 10  1  0  0  0  0
 15  2  1  0  0  0  0
 16 15  1  0  0  0  0
 17 18  1  0  0  0  0
 17 16  1  0  0  0  0
 19 17  1  0  0  0  0
 20 19  1  0  0  0  0
 21 17  1  0  0  0  0
 21 22  1  0  0  0  0
M  END
>  <minimizedAffinity>
-4.70587254

>  <minimizedRMSD>
1.10759139

$$$$
