
 OpenBabel03272508083D

 22 22  0  0  0  0  0  0  0  0999 V2000
   38.3240   32.8660   47.9980 O   0  0  0  0  0  0  0  0  0  0  0  0
   38.3240   31.6840   47.0940 P   0  0  2  0  0  0  0  0  0  0  0  0
   37.3330   31.9610   45.7440 O   0  0  0  0  0  0  0  0  0  0  0  0
   36.8300   32.8130   45.8410 H   0  0  0  0  0  0  0  0  0  0  0  0
   37.9190   30.2190   47.8420 O   0  0  0  0  0  0  0  0  0  0  0  0
   37.2290   30.0610   51.4690 C   0  0  0  0  0  0  0  0  0  0  0  0
   37.9520   30.3680   50.3170 C   0  0  0  0  0  0  0  0  0  0  0  0
   37.4160   30.0290   49.0820 C   0  0  0  0  0  0  0  0  0  0  0  0
   36.1970   29.4070   49.0830 N   0  0  0  0  0  0  0  0  0  0  0  0
   35.5290   29.1260   50.2110 C   0  0  0  0  0  0  0  0  0  0  0  0
   36.0440   29.4530   51.4060 N   0  0  0  0  0  0  0  0  0  0  0  0
   37.7090   30.3560   52.4080 H   0  0  0  0  0  0  0  0  0  0  0  0
   38.9150   30.8560   50.2530 H   0  0  0  0  0  0  0  0  0  0  0  0
   34.5610   28.6310   50.1920 H   0  0  0  0  0  0  0  0  0  0  0  0
   39.9200   31.5140   46.4830 O   0  0  0  0  0  0  0  0  0  0  0  0
   39.9430   31.0600   45.1890 C   0  0  0  0  0  2  0  0  0  0  0  0
   40.4250   32.0500   44.2310 N   0  0  0  0  0  4  0  0  0  0  0  0
   41.4620   31.9080   44.0620 H   0  0  0  0  0  0  0  0  0  0  0  0
   39.6900   31.8210   42.9990 C   0  0  0  0  0  2  0  0  0  0  0  0
   40.3200   32.0140   42.1080 H   0  0  0  0  0  0  0  0  0  0  0  0
   40.1920   33.4010   44.6500 C   0  0  0  0  0  2  0  0  0  0  0  0
   40.3120   33.5770   45.7380 H   0  0  0  0  0  0  0  0  0  0  0  0
  2  5  1  0  0  0  0
  2  1  2  1  0  0  0
  3  4  1  0  0  0  0
  3  2  1  0  0  0  0
  5  8  1  0  0  0  0
  6 12  1  0  0  0  0
  7  6  2  0  0  0  0
  8  9  2  0  0  0  0
  8  7  1  0  0  0  0
  9 10  1  0  0  0  0
 10 11  2  0  0  0  0
 11  6  1  0  0  0  0
 13  7  1  0  0  0  0
 14 10  1  0  0  0  0
 15  2  1  0  0  0  0
 16 15  1  0  0  0  0
 17 21  1  0  0  0  0
 17 16  1  0  0  0  0
 18 17  1  0  0  0  0
 19 17  1  0  0  0  0
 20 19  1  0  0  0  0
 21 22  1  0  0  0  0
M  END
>  <minimizedAffinity>
-4.62802601

>  <minimizedRMSD>
0.620797992

$$$$
