
 OpenBabel03272508083D

 22 22  0  0  0  0  0  0  0  0999 V2000
   38.8740   32.9250   48.2760 O   0  0  0  0  0  0  0  0  0  0  0  0
   38.6120   31.8600   47.2700 P   0  0  2  0  0  0  0  0  0  0  0  0
   37.4950   32.3930   46.1080 O   0  0  0  0  0  0  0  0  0  0  0  0
   37.1160   33.2780   46.3590 H   0  0  0  0  0  0  0  0  0  0  0  0
   38.1330   30.3720   47.9220 O   0  0  0  0  0  0  0  0  0  0  0  0
   37.2440   30.1090   51.5000 C   0  0  0  0  0  0  0  0  0  0  0  0
   38.0170   30.4720   50.3970 C   0  0  0  0  0  0  0  0  0  0  0  0
   37.5690   30.1340   49.1270 C   0  0  0  0  0  0  0  0  0  0  0  0
   36.3820   29.4570   49.0460 N   0  0  0  0  0  0  0  0  0  0  0  0
   35.6640   29.1240   50.1280 C   0  0  0  0  0  0  0  0  0  0  0  0
   36.0940   29.4490   51.3570 N   0  0  0  0  0  0  0  0  0  0  0  0
   37.6550   30.4060   52.4700 H   0  0  0  0  0  0  0  0  0  0  0  0
   38.9580   31.0040   50.3980 H   0  0  0  0  0  0  0  0  0  0  0  0
   34.7230   28.5860   50.0430 H   0  0  0  0  0  0  0  0  0  0  0  0
   40.0820   31.5900   46.4240 O   0  0  0  0  0  0  0  0  0  0  0  0
   39.8780   31.1540   45.1400 C   0  0  0  0  0  2  0  0  0  0  0  0
   40.5080   31.9970   44.1290 N   0  0  0  0  0  4  0  0  0  0  0  0
   41.5630   31.9060   44.1940 H   0  0  0  0  0  0  0  0  0  0  0  0
   40.0500   31.5060   42.8420 C   0  0  0  0  0  2  0  0  0  0  0  0
   40.8400   31.5900   42.0690 H   0  0  0  0  0  0  0  0  0  0  0  0
   40.1440   33.3790   44.2410 C   0  0  0  0  0  2  0  0  0  0  0  0
   40.0330   33.7480   45.2810 H   0  0  0  0  0  0  0  0  0  0  0  0
  2  5  1  0  0  0  0
  2  1  2  1  0  0  0
  3  4  1  0  0  0  0
  3  2  1  0  0  0  0
  5  8  1  0  0  0  0
  6 12  1  0  0  0  0
  7 13  1  0  0  0  0
  7  6  2  0  0  0  0
  8  7  1  0  0  0  0
  9  8  2  0  0  0  0
  9 10  1  0  0  0  0
 10 11  2  0  0  0  0
 11  6  1  0  0  0  0
 14 10  1  0  0  0  0
 15  2  1  0  0  0  0
 16 15  1  0  0  0  0
 17 18  1  0  0  0  0
 17 21  1  0  0  0  0
 17 16  1  0  0  0  0
 19 17  1  0  0  0  0
 20 19  1  0  0  0  0
 21 22  1  0  0  0  0
M  END
>  <minimizedAffinity>
-4.60837364

>  <minimizedRMSD>
0.924845457

$$$$
