
 OpenBabel03262522113D

 28 29  0  0  0  0  0  0  0  0999 V2000
   37.7770   31.6880   47.4880 C   0  0  0  0  0  0  0  0  0  0  0  0
   37.9830   32.4650   48.6180 C   0  0  0  0  0  0  0  0  0  0  0  0
   39.0180   33.3770   48.6380 C   0  0  0  0  0  0  0  0  0  0  0  0
   39.7910   33.4480   47.4970 C   0  0  0  0  0  0  0  0  0  0  0  0
   39.5760   32.6770   46.3950 C   0  0  0  0  0  0  0  0  0  0  0  0
   38.5600   31.7860   46.3820 N   0  0  0  0  0  0  0  0  0  0  0  0
   37.3740   32.4040   49.5040 H   0  0  0  0  0  0  0  0  0  0  0  0
   39.2220   34.0130   49.5020 H   0  0  0  0  0  0  0  0  0  0  0  0
   40.6080   34.1620   47.5020 H   0  0  0  0  0  0  0  0  0  0  0  0
   36.6700   30.7440   47.5270 C   0  0  0  0  0  0  0  0  0  0  0  0
   36.1340   30.3420   46.4850 O   0  0  0  0  0  0  0  0  0  0  0  0
   37.0100   29.6380   49.6990 C   0  0  0  0  0  0  0  0  0  0  0  0
   36.1290   30.2240   48.7730 C   0  0  0  0  0  0  0  0  0  0  0  0
   34.7900   30.2660   49.1140 C   0  0  0  0  0  0  0  0  0  0  0  0
   34.3560   29.7540   50.3080 N   0  0  0  0  0  0  0  0  0  0  0  0
   35.2530   29.1980   51.1650 C   0  0  0  0  0  0  0  0  0  0  0  0
   36.5470   29.1380   50.8750 N   0  0  0  0  0  0  0  0  0  0  0  0
   38.0580   29.5950   49.4530 H   0  0  0  0  0  0  0  0  0  0  0  0
   34.1600   30.7240   48.3720 H   0  0  0  0  0  0  0  0  0  0  0  0
   34.7360   28.8500   52.0480 H   0  0  0  0  0  0  0  0  0  0  0  0
   40.6010   32.7890   44.9200 S   0  0  0  0  0  0  0  0  0  0  0  0
   40.2980   31.2390   44.0040 C   0  0  0  0  0  0  0  0  0  0  0  0
   39.4730   31.5100   42.8350 N   0  0  0  0  0  0  0  0  0  0  0  0
   38.5710   31.0220   42.9050 H   0  0  0  0  0  0  0  0  0  0  0  0
   40.2380   31.0390   41.6920 C   0  0  0  0  0  0  0  0  0  0  0  0
   39.7450   31.3930   40.7880 H   0  0  0  0  0  0  0  0  0  0  0  0
   39.3490   32.9600   42.7500 C   0  0  0  0  0  0  0  0  0  0  0  0
   39.2120   33.3680   43.7860 H   0  0  0  0  0  0  0  0  0  0  0  0
  1 10  1  0  0  0  0
  1  2  1  0  0  0  0
  2  3  2  0  0  0  0
  2  7  1  0  0  0  0
  3  8  1  0  0  0  0
  4  9  1  0  0  0  0
  4  3  1  0  0  0  0
  5  4  2  0  0  0  0
  6  5  1  0  0  0  0
  6  1  2  0  0  0  0
 10 13  1  0  0  0  0
 11 10  2  0  0  0  0
 12 17  1  0  0  0  0
 13 14  1  0  0  0  0
 13 12  2  0  0  0  0
 14 15  2  0  0  0  0
 15 16  1  0  0  0  0
 16 20  1  0  0  0  0
 17 16  2  0  0  0  0
 18 12  1  0  0  0  0
 19 14  1  0  0  0  0
 21  5  1  0  0  0  0
 22 21  1  0  0  0  0
 23 24  1  0  0  0  0
 23 22  1  0  0  0  0
 25 23  1  0  0  0  0
 26 25  1  0  0  0  0
 27 23  1  0  0  0  0
 27 28  1  0  0  0  0
M  END
>  <minimizedAffinity>
-4.96212435

>  <minimizedRMSD>
1.78828645

$$$$
