
 OpenBabel03272506453D

 30 31  0  0  1  0  0  0  0  0999 V2000
   39.0020   26.6040   35.2810 C   0  0  2  0  0  0  0  0  0  0  0  0
   38.3400   27.0510   33.9980 C   0  0  1  0  0  0  0  0  0  0  0  0
   38.0120   25.9270   33.2810 O   0  0  0  0  0  0  0  0  0  0  0  0
   38.1940   24.8070   34.0750 C   0  0  0  0  0  0  0  0  0  0  0  0
   38.2480   25.3010   35.5140 C   0  0  1  0  0  0  0  0  0  0  0  0
   40.0620   26.4160   35.1020 H   0  0  0  0  0  0  0  0  0  0  0  0
   38.9530   27.7320   33.3880 H   0  0  0  0  0  0  0  0  0  0  0  0
   37.3270   24.1540   33.8850 H   0  0  0  0  0  0  0  0  0  0  0  0
   39.1740   24.3720   33.7650 H   0  0  0  0  0  0  0  0  0  0  0  0
   37.2330   25.5210   35.8430 H   0  0  0  0  0  0  0  0  0  0  0  0
   38.7540   27.5100   36.3170 O   0  0  0  0  0  0  0  0  0  0  0  0
   37.8650   27.2590   36.6830 H   0  0  0  0  0  0  0  0  0  0  0  0
   36.7610   27.8620   34.4760 S   0  0  0  0  0  0  0  0  0  0  0  0
   34.7170   30.4510   32.2680 C   0  0  0  0  0  0  0  0  0  0  0  0
   35.3190   30.4200   31.0100 C   0  0  0  0  0  0  0  0  0  0  0  0
   36.4150   29.5520   30.8340 C   0  0  0  0  0  0  0  0  0  0  0  0
   36.8180   28.8040   31.8920 N   0  0  0  0  0  0  0  0  0  0  0  0
   36.2080   28.8630   33.0940 C   0  0  0  0  0  0  0  0  0  0  0  0
   35.1500   29.6860   33.3010 N   0  0  0  0  0  0  0  0  0  0  0  0
   33.8680   31.0960   32.4760 H   0  0  0  0  0  0  0  0  0  0  0  0
   34.9580   31.0350   30.2080 H   0  0  0  0  0  0  0  0  0  0  0  0
   36.9150   29.4940   29.8760 H   0  0  0  0  0  0  0  0  0  0  0  0
   38.9150   24.4310   36.3220 O   0  0  0  0  0  0  0  0  0  0  0  0
   38.4950   23.1370   36.3780 C   0  0  0  0  0  2  0  0  0  0  0  0
   39.0210   22.5990   37.6410 N   0  0  0  0  0  4  0  0  0  0  0  0
   38.7140   21.6310   37.7920 H   0  0  0  0  0  0  0  0  0  0  0  0
   40.4900   22.5600   37.5730 C   0  0  0  0  0  2  0  0  0  0  0  0
   40.8660   21.9010   36.7830 H   0  0  0  0  0  0  0  0  0  0  0  0
   38.6960   23.5110   38.7230 C   0  0  0  0  0  2  0  0  0  0  0  0
   39.3140   23.2690   39.6070 H   0  0  0  0  0  0  0  0  0  0  0  0
  1  6  1  6  0  0  0
  1  5  1  0  0  0  0
  1 11  1  0  0  0  0
  2  7  1  6  0  0  0
  2 13  1  0  0  0  0
  2  1  1  0  0  0  0
  3  2  1  0  0  0  0
  3  4  1  0  0  0  0
  4  5  1  0  0  0  0
  5 10  1  1  0  0  0
  5 23  1  0  0  0  0
  8  4  1  0  0  0  0
  9  4  1  0  0  0  0
 11 12  1  0  0  0  0
 14 20  1  0  0  0  0
 14 19  1  0  0  0  0
 15 14  2  0  0  0  0
 16 15  1  0  0  0  0
 16 17  2  0  0  0  0
 17 18  1  0  0  0  0
 18 19  2  0  0  0  0
 18 13  1  0  0  0  0
 21 15  1  0  0  0  0
 22 16  1  0  0  0  0
 23 24  1  0  0  0  0
 24 25  1  0  0  0  0
 25 26  1  0  0  0  0
 25 29  1  0  0  0  0
 27 25  1  0  0  0  0
 28 27  1  0  0  0  0
 29 30  1  0  0  0  0
M  END
>  <minimizedAffinity>
-4.5399437

$$$$

 OpenBabel03272506453D

 30 31  0  0  1  0  0  0  0  0999 V2000
   38.7560   26.6310   35.4060 C   0  0  2  0  0  0  0  0  0  0  0  0
   38.6340   26.8400   33.9140 C   0  0  1  0  0  0  0  0  0  0  0  0
   38.5740   25.6030   33.3220 O   0  0  0  0  0  0  0  0  0  0  0  0
   38.4190   24.6330   34.2980 C   0  0  0  0  0  0  0  0  0  0  0  0
   37.9400   25.3540   35.5510 C   0  0  1  0  0  0  0  0  0  0  0  0
   39.8000   26.4600   35.6700 H   0  0  0  0  0  0  0  0  0  0  0  0
   39.4460   27.4390   33.4750 H   0  0  0  0  0  0  0  0  0  0  0  0
   37.6720   23.9230   33.9080 H   0  0  0  0  0  0  0  0  0  0  0  0
   39.4330   24.1950   34.4530 H   0  0  0  0  0  0  0  0  0  0  0  0
   36.8800   25.5810   35.4350 H   0  0  0  0  0  0  0  0  0  0  0  0
   38.1580   27.6820   36.1100 O   0  0  0  0  0  0  0  0  0  0  0  0
   37.1900   27.4560   36.1540 H   0  0  0  0  0  0  0  0  0  0  0  0
   37.0100   27.6520   33.6270 S   0  0  0  0  0  0  0  0  0  0  0  0
   36.2020   30.0920   30.6020 C   0  0  0  0  0  0  0  0  0  0  0  0
   37.1190   29.7610   29.6050 C   0  0  0  0  0  0  0  0  0  0  0  0
   38.0370   28.7280   29.8820 C   0  0  0  0  0  0  0  0  0  0  0  0
   37.9740   28.1210   31.0940 N   0  0  0  0  0  0  0  0  0  0  0  0
   37.0710   28.4710   32.0320 C   0  0  0  0  0  0  0  0  0  0  0  0
   36.1710   29.4600   31.8020 N   0  0  0  0  0  0  0  0  0  0  0  0
   35.4650   30.8770   30.4590 H   0  0  0  0  0  0  0  0  0  0  0  0
   37.1230   30.2750   28.6630 H   0  0  0  0  0  0  0  0  0  0  0  0
   38.7680   28.4360   29.1390 H   0  0  0  0  0  0  0  0  0  0  0  0
   38.2350   24.6530   36.6810 O   0  0  0  0  0  0  0  0  0  0  0  0
   37.9250   23.3270   36.7280 C   0  0  0  0  0  2  0  0  0  0  0  0
   38.7010   22.7730   37.8460 N   0  0  0  0  0  4  0  0  0  0  0  0
   38.3850   21.8270   38.0890 H   0  0  0  0  0  0  0  0  0  0  0  0
   40.1090   22.6450   37.4380 C   0  0  0  0  0  2  0  0  0  0  0  0
   40.2520   21.9570   36.6000 H   0  0  0  0  0  0  0  0  0  0  0  0
   38.6900   23.7160   38.9510 C   0  0  0  0  0  2  0  0  0  0  0  0
   39.4830   23.4480   39.6720 H   0  0  0  0  0  0  0  0  0  0  0  0
  1  5  1  0  0  0  0
  1  6  1  1  0  0  0
  1 11  1  0  0  0  0
  2  7  1  6  0  0  0
  2  1  1  0  0  0  0
  3  2  1  0  0  0  0
  3  4  1  0  0  0  0
  4  9  1  0  0  0  0
  4  5  1  0  0  0  0
  5 10  1  6  0  0  0
  5 23  1  0  0  0  0
  8  4  1  0  0  0  0
 11 12  1  0  0  0  0
 13  2  1  0  0  0  0
 14 19  1  0  0  0  0
 15 16  1  0  0  0  0
 15 14  2  0  0  0  0
 16 17  2  0  0  0  0
 17 18  1  0  0  0  0
 18 13  1  0  0  0  0
 19 18  2  0  0  0  0
 20 14  1  0  0  0  0
 21 15  1  0  0  0  0
 22 16  1  0  0  0  0
 23 24  1  0  0  0  0
 24 25  1  0  0  0  0
 25 26  1  0  0  0  0
 25 29  1  0  0  0  0
 27 25  1  0  0  0  0
 28 27  1  0  0  0  0
 29 30  1  0  0  0  0
M  END
>  <minimizedAffinity>
-4.33870697

$$$$

 OpenBabel03272506453D

 30 31  0  0  1  0  0  0  0  0999 V2000
   38.9070   27.1530   33.2080 C   0  0  2  0  0  0  0  0  0  0  0  0
   38.6890   26.6890   34.6300 C   0  0  1  0  0  0  0  0  0  0  0  0
   37.5280   27.2630   35.0850 O   0  0  0  0  0  0  0  0  0  0  0  0
   36.8680   27.8650   34.0270 C   0  0  0  0  0  0  0  0  0  0  0  0
   37.4580   27.2700   32.7550 C   0  0  1  0  0  0  0  0  0  0  0  0
   39.3970   28.1280   33.2100 H   0  0  0  0  0  0  0  0  0  0  0  0
   39.5240   26.9150   35.3110 H   0  0  0  0  0  0  0  0  0  0  0  0
   35.8010   27.6190   34.1530 H   0  0  0  0  0  0  0  0  0  0  0  0
   37.1020   28.9540   34.1050 H   0  0  0  0  0  0  0  0  0  0  0  0
   37.0380   26.2750   32.6120 H   0  0  0  0  0  0  0  0  0  0  0  0
   39.5810   26.1820   32.4610 O   0  0  0  0  0  0  0  0  0  0  0  0
   38.8790   25.5490   32.1510 H   0  0  0  0  0  0  0  0  0  0  0  0
   38.3970   24.8760   34.5530 S   0  0  0  0  0  0  0  0  0  0  0  0
   37.9450   24.0750   38.4140 C   0  0  0  0  0  0  0  0  0  0  0  0
   38.9800   23.1970   38.7330 C   0  0  0  0  0  0  0  0  0  0  0  0
   39.8650   22.8310   37.7000 C   0  0  0  0  0  0  0  0  0  0  0  0
   39.6600   23.3530   36.4640 N   0  0  0  0  0  0  0  0  0  0  0  0
   38.6460   24.2010   36.1970 C   0  0  0  0  0  0  0  0  0  0  0  0
   37.7740   24.5750   37.1660 N   0  0  0  0  0  0  0  0  0  0  0  0
   37.2260   24.4000   39.1600 H   0  0  0  0  0  0  0  0  0  0  0  0
   39.0950   22.8140   39.7300 H   0  0  0  0  0  0  0  0  0  0  0  0
   40.6840   22.1520   37.8990 H   0  0  0  0  0  0  0  0  0  0  0  0
   37.2950   28.1000   31.6870 O   0  0  0  0  0  0  0  0  0  0  0  0
   36.7090   27.6070   30.5600 C   0  0  0  0  0  2  0  0  0  0  0  0
   36.5330   28.7590   29.6640 N   0  0  0  0  0  4  0  0  0  0  0  0
   35.6300   28.7200   29.1770 H   0  0  0  0  0  0  0  0  0  0  0  0
   36.5170   29.9940   30.4640 C   0  0  0  0  0  2  0  0  0  0  0  0
   35.6860   30.0330   31.1750 H   0  0  0  0  0  0  0  0  0  0  0  0
   37.6870   28.8650   28.7890 C   0  0  0  0  0  2  0  0  0  0  0  0
   37.7010   29.8650   28.3180 H   0  0  0  0  0  0  0  0  0  0  0  0
  1  6  1  6  0  0  0
  1  2  1  0  0  0  0
  2  3  1  0  0  0  0
  2  7  1  1  0  0  0
  4  9  1  0  0  0  0
  4  8  1  0  0  0  0
  4  3  1  0  0  0  0
  5 10  1  6  0  0  0
  5  1  1  0  0  0  0
  5  4  1  0  0  0  0
 11  1  1  0  0  0  0
 12 11  1  0  0  0  0
 13  2  1  0  0  0  0
 13 18  1  0  0  0  0
 14 15  1  0  0  0  0
 14 20  1  0  0  0  0
 15 21  1  0  0  0  0
 16 22  1  0  0  0  0
 16 15  2  0  0  0  0
 17 16  1  0  0  0  0
 18 17  2  0  0  0  0
 18 19  1  0  0  0  0
 19 14  2  0  0  0  0
 23  5  1  0  0  0  0
 24 23  1  0  0  0  0
 25 27  1  0  0  0  0
 25 24  1  0  0  0  0
 26 25  1  0  0  0  0
 27 28  1  0  0  0  0
 29 25  1  0  0  0  0
 30 29  1  0  0  0  0
M  END
>  <minimizedAffinity>
-4.19587755

$$$$

 OpenBabel03272506453D

 30 31  0  0  1  0  0  0  0  0999 V2000
   37.4320   26.3900   33.3530 C   0  0  2  0  0  0  0  0  0  0  0  0
   37.8310   24.9330   33.4130 C   0  0  1  0  0  0  0  0  0  0  0  0
   38.0310   24.5010   32.1250 O   0  0  0  0  0  0  0  0  0  0  0  0
   38.0180   25.5880   31.2670 C   0  0  0  0  0  0  0  0  0  0  0  0
   38.2340   26.8230   32.1330 C   0  0  1  0  0  0  0  0  0  0  0  0
   36.3610   26.4710   33.1660 H   0  0  0  0  0  0  0  0  0  0  0  0
   37.1050   24.2870   33.9280 H   0  0  0  0  0  0  0  0  0  0  0  0
   38.8410   25.4240   30.5540 H   0  0  0  0  0  0  0  0  0  0  0  0
   37.0020   25.5970   30.8050 H   0  0  0  0  0  0  0  0  0  0  0  0
   39.2910   26.8830   32.3920 H   0  0  0  0  0  0  0  0  0  0  0  0
   37.8620   27.0750   34.4950 O   0  0  0  0  0  0  0  0  0  0  0  0
   38.8080   27.3220   34.3160 H   0  0  0  0  0  0  0  0  0  0  0  0
   39.4620   24.8680   34.2590 S   0  0  0  0  0  0  0  0  0  0  0  0
   37.9470   24.2910   37.8820 C   0  0  0  0  0  0  0  0  0  0  0  0
   38.7590   23.3230   38.4720 C   0  0  0  0  0  0  0  0  0  0  0  0
   39.8330   22.8220   37.7100 C   0  0  0  0  0  0  0  0  0  0  0  0
   40.0130   23.3070   36.4560 N   0  0  0  0  0  0  0  0  0  0  0  0
   39.2030   24.2440   35.9210 C   0  0  0  0  0  0  0  0  0  0  0  0
   38.1590   24.7500   36.6240 N   0  0  0  0  0  0  0  0  0  0  0  0
   37.1010   24.7210   38.4100 H   0  0  0  0  0  0  0  0  0  0  0  0
   38.5710   22.9750   39.4700 H   0  0  0  0  0  0  0  0  0  0  0  0
   40.4910   22.0700   38.1260 H   0  0  0  0  0  0  0  0  0  0  0  0
   37.7440   27.9470   31.5400 O   0  0  0  0  0  0  0  0  0  0  0  0
   36.4400   27.9650   31.1490 C   0  0  0  0  0  2  0  0  0  0  0  0
   36.3540   28.9760   30.0860 N   0  0  0  0  0  4  0  0  0  0  0  0
   35.4190   28.9950   29.6620 H   0  0  0  0  0  0  0  0  0  0  0  0
   36.5690   30.3090   30.6700 C   0  0  0  0  0  2  0  0  0  0  0  0
   35.8090   30.5820   31.4090 H   0  0  0  0  0  0  0  0  0  0  0  0
   37.4400   28.7730   29.1430 C   0  0  0  0  0  2  0  0  0  0  0  0
   37.5530   29.6740   28.5130 H   0  0  0  0  0  0  0  0  0  0  0  0
  1  6  1  6  0  0  0
  1  2  1  0  0  0  0
  1 11  1  0  0  0  0
  2  7  1  1  0  0  0
  2 13  1  0  0  0  0
  3  2  1  0  0  0  0
  4  3  1  0  0  0  0
  4  5  1  0  0  0  0
  5 10  1  1  0  0  0
  5  1  1  0  0  0  0
  8  4  1  0  0  0  0
  9  4  1  0  0  0  0
 12 11  1  0  0  0  0
 13 18  1  0  0  0  0
 14 20  1  0  0  0  0
 14 15  1  0  0  0  0
 15 21  1  0  0  0  0
 16 22  1  0  0  0  0
 16 15  2  0  0  0  0
 17 16  1  0  0  0  0
 18 17  2  0  0  0  0
 18 19  1  0  0  0  0
 19 14  2  0  0  0  0
 23  5  1  0  0  0  0
 24 23  1  0  0  0  0
 25 27  1  0  0  0  0
 25 24  1  0  0  0  0
 26 25  1  0  0  0  0
 27 28  1  0  0  0  0
 29 25  1  0  0  0  0
 30 29  1  0  0  0  0
M  END
>  <minimizedAffinity>
-4.05160856

$$$$

 OpenBabel03272506453D

 30 31  0  0  1  0  0  0  0  0999 V2000
   38.1840   27.0250   33.2000 C   0  0  2  0  0  0  0  0  0  0  0  0
   39.1140   26.3420   34.1770 C   0  0  1  0  0  0  0  0  0  0  0  0
   38.9050   26.9010   35.4140 O   0  0  0  0  0  0  0  0  0  0  0  0
   37.7830   27.7110   35.3690 C   0  0  0  0  0  0  0  0  0  0  0  0
   37.0070   27.3040   34.1230 C   0  0  1  0  0  0  0  0  0  0  0  0
   38.6370   27.9540   32.8500 H   0  0  0  0  0  0  0  0  0  0  0  0
   40.1780   26.4000   33.9020 H   0  0  0  0  0  0  0  0  0  0  0  0
   37.2260   27.5120   36.2980 H   0  0  0  0  0  0  0  0  0  0  0  0
   38.1670   28.7550   35.2770 H   0  0  0  0  0  0  0  0  0  0  0  0
   36.4780   26.3750   34.3340 H   0  0  0  0  0  0  0  0  0  0  0  0
   37.8100   26.1540   32.1710 O   0  0  0  0  0  0  0  0  0  0  0  0
   37.0480   25.6270   32.5330 H   0  0  0  0  0  0  0  0  0  0  0  0
   38.5710   24.5890   34.2820 S   0  0  0  0  0  0  0  0  0  0  0  0
   39.8690   22.9330   37.6480 C   0  0  0  0  0  0  0  0  0  0  0  0
   38.9130   23.2530   38.6100 C   0  0  0  0  0  0  0  0  0  0  0  0
   37.8060   24.0220   38.1970 C   0  0  0  0  0  0  0  0  0  0  0  0
   37.7370   24.4020   36.8970 N   0  0  0  0  0  0  0  0  0  0  0  0
   38.6860   24.0720   35.9960 C   0  0  0  0  0  0  0  0  0  0  0  0
   39.7650   23.3330   36.3560 N   0  0  0  0  0  0  0  0  0  0  0  0
   40.7480   22.3440   37.8940 H   0  0  0  0  0  0  0  0  0  0  0  0
   39.0170   22.9250   39.6270 H   0  0  0  0  0  0  0  0  0  0  0  0
   37.0370   24.2950   38.9090 H   0  0  0  0  0  0  0  0  0  0  0  0
   36.2020   28.3100   33.6790 O   0  0  0  0  0  0  0  0  0  0  0  0
   35.8520   29.3000   34.5480 C   0  0  0  0  0  2  0  0  0  0  0  0
   34.7590   30.0360   33.8970 N   0  0  0  0  0  4  0  0  0  0  0  0
   33.9770   30.1940   34.5430 H   0  0  0  0  0  0  0  0  0  0  0  0
   35.2440   31.3680   33.5030 C   0  0  0  0  0  2  0  0  0  0  0  0
   35.5570   31.9800   34.3550 H   0  0  0  0  0  0  0  0  0  0  0  0
   34.3960   29.3620   32.6630 C   0  0  0  0  0  2  0  0  0  0  0  0
   33.7890   30.0420   32.0380 H   0  0  0  0  0  0  0  0  0  0  0  0
  1  6  1  6  0  0  0
  1  5  1  0  0  0  0
  1  2  1  0  0  0  0
  2  7  1  6  0  0  0
  2 13  1  0  0  0  0
  2  3  1  0  0  0  0
  4  3  1  0  0  0  0
  4  8  1  0  0  0  0
  5 10  1  1  0  0  0
  5  4  1  0  0  0  0
  9  4  1  0  0  0  0
 11 12  1  0  0  0  0
 11  1  1  0  0  0  0
 13 18  1  0  0  0  0
 14 20  1  0  0  0  0
 14 15  1  0  0  0  0
 15 21  1  0  0  0  0
 16 15  2  0  0  0  0
 16 22  1  0  0  0  0
 17 16  1  0  0  0  0
 18 19  1  0  0  0  0
 18 17  2  0  0  0  0
 19 14  2  0  0  0  0
 23  5  1  0  0  0  0
 23 24  1  0  0  0  0
 25 26  1  0  0  0  0
 25 24  1  0  0  0  0
 27 25  1  0  0  0  0
 27 28  1  0  0  0  0
 29 25  1  0  0  0  0
 30 29  1  0  0  0  0
M  END
>  <minimizedAffinity>
-4.03130436

$$$$

 OpenBabel03272506453D

 30 31  0  0  1  0  0  0  0  0999 V2000
   37.1760   26.6730   33.5540 C   0  0  2  0  0  0  0  0  0  0  0  0
   37.6360   25.2340   33.5060 C   0  0  1  0  0  0  0  0  0  0  0  0
   37.8410   24.9030   32.1900 O   0  0  0  0  0  0  0  0  0  0  0  0
   37.7750   26.0470   31.4120 C   0  0  0  0  0  0  0  0  0  0  0  0
   37.9460   27.2250   32.3620 C   0  0  1  0  0  0  0  0  0  0  0  0
   36.1000   26.7210   33.3800 H   0  0  0  0  0  0  0  0  0  0  0  0
   36.9430   24.5220   33.9790 H   0  0  0  0  0  0  0  0  0  0  0  0
   38.5970   25.9700   30.6830 H   0  0  0  0  0  0  0  0  0  0  0  0
   36.7550   26.0460   30.9590 H   0  0  0  0  0  0  0  0  0  0  0  0
   39.0020   27.3120   32.6180 H   0  0  0  0  0  0  0  0  0  0  0  0
   37.5870   27.2930   34.7380 O   0  0  0  0  0  0  0  0  0  0  0  0
   38.5200   27.5930   34.5720 H   0  0  0  0  0  0  0  0  0  0  0  0
   39.2770   25.1800   34.3350 S   0  0  0  0  0  0  0  0  0  0  0  0
   39.7310   22.8600   37.5240 C   0  0  0  0  0  0  0  0  0  0  0  0
   38.7650   23.2890   38.4330 C   0  0  0  0  0  0  0  0  0  0  0  0
   37.9270   24.3520   38.0410 C   0  0  0  0  0  0  0  0  0  0  0  0
   38.1090   24.8910   36.8090 N   0  0  0  0  0  0  0  0  0  0  0  0
   39.0570   24.4470   35.9580 C   0  0  0  0  0  0  0  0  0  0  0  0
   39.8810   23.4260   36.3010 N   0  0  0  0  0  0  0  0  0  0  0  0
   40.4110   22.0470   37.7590 H   0  0  0  0  0  0  0  0  0  0  0  0
   38.6650   22.8240   39.3960 H   0  0  0  0  0  0  0  0  0  0  0  0
   37.1620   24.7190   38.7130 H   0  0  0  0  0  0  0  0  0  0  0  0
   37.4040   28.3670   31.8540 O   0  0  0  0  0  0  0  0  0  0  0  0
   36.0870   28.3670   31.5070 C   0  0  0  0  0  2  0  0  0  0  0  0
   35.8230   29.6960   30.9370 N   0  0  0  0  0  4  0  0  0  0  0  0
   34.8530   29.7760   30.6090 H   0  0  0  0  0  0  0  0  0  0  0  0
   35.9860   30.7120   31.9890 C   0  0  0  0  0  2  0  0  0  0  0  0
   35.2800   30.5910   32.8160 H   0  0  0  0  0  0  0  0  0  0  0  0
   36.8280   29.9950   29.9330 C   0  0  0  0  0  2  0  0  0  0  0  0
   36.8110   31.0770   29.7060 H   0  0  0  0  0  0  0  0  0  0  0  0
  1  6  1  6  0  0  0
  1 11  1  0  0  0  0
  2  1  1  0  0  0  0
  2  7  1  1  0  0  0
  2 13  1  0  0  0  0
  3  2  1  0  0  0  0
  4  3  1  0  0  0  0
  4  5  1  0  0  0  0
  5 10  1  1  0  0  0
  5  1  1  0  0  0  0
  8  4  1  0  0  0  0
  9  4  1  0  0  0  0
 12 11  1  0  0  0  0
 13 18  1  0  0  0  0
 14 20  1  0  0  0  0
 14 15  1  0  0  0  0
 15 21  1  0  0  0  0
 16 15  2  0  0  0  0
 16 22  1  0  0  0  0
 17 16  1  0  0  0  0
 18 19  1  0  0  0  0
 18 17  2  0  0  0  0
 19 14  2  0  0  0  0
 23  5  1  0  0  0  0
 24 23  1  0  0  0  0
 25 24  1  0  0  0  0
 25 27  1  0  0  0  0
 26 25  1  0  0  0  0
 27 28  1  0  0  0  0
 29 25  1  0  0  0  0
 30 29  1  0  0  0  0
M  END
>  <minimizedAffinity>
-3.97949886

$$$$

 OpenBabel03272506453D

 30 31  0  0  1  0  0  0  0  0999 V2000
   38.6840   24.6780   33.8810 C   0  0  2  0  0  0  0  0  0  0  0  0
   37.9270   25.7870   33.1870 C   0  0  1  0  0  0  0  0  0  0  0  0
   37.1920   26.4520   34.1380 O   0  0  0  0  0  0  0  0  0  0  0  0
   37.5760   26.0230   35.3970 C   0  0  0  0  0  0  0  0  0  0  0  0
   38.9280   25.3440   35.2290 C   0  0  1  0  0  0  0  0  0  0  0  0
   38.0400   23.8040   33.9870 H   0  0  0  0  0  0  0  0  0  0  0  0
   37.2770   25.4450   32.3670 H   0  0  0  0  0  0  0  0  0  0  0  0
   37.6330   26.9280   36.0230 H   0  0  0  0  0  0  0  0  0  0  0  0
   36.7980   25.2910   35.7180 H   0  0  0  0  0  0  0  0  0  0  0  0
   39.6910   26.1140   35.1230 H   0  0  0  0  0  0  0  0  0  0  0  0
   39.8950   24.4160   33.2330 O   0  0  0  0  0  0  0  0  0  0  0  0
   40.5390   25.0850   33.5900 H   0  0  0  0  0  0  0  0  0  0  0  0
   39.1850   26.9700   32.5580 S   0  0  0  0  0  0  0  0  0  0  0  0
   38.6950   28.1980   28.8150 C   0  0  0  0  0  0  0  0  0  0  0  0
   37.5370   28.9740   28.8290 C   0  0  0  0  0  0  0  0  0  0  0  0
   36.8710   29.1270   30.0610 C   0  0  0  0  0  0  0  0  0  0  0  0
   37.3930   28.5140   31.1540 N   0  0  0  0  0  0  0  0  0  0  0  0
   38.5170   27.7710   31.0980 C   0  0  0  0  0  0  0  0  0  0  0  0
   39.1850   27.6010   29.9300 N   0  0  0  0  0  0  0  0  0  0  0  0
   39.2600   28.0370   27.9010 H   0  0  0  0  0  0  0  0  0  0  0  0
   37.1690   29.4370   27.9330 H   0  0  0  0  0  0  0  0  0  0  0  0
   35.9680   29.7210   30.1220 H   0  0  0  0  0  0  0  0  0  0  0  0
   39.1740   24.4540   36.2300 O   0  0  0  0  0  0  0  0  0  0  0  0
   38.5210   23.2580   36.2180 C   0  0  0  0  0  2  0  0  0  0  0  0
   38.8910   22.5880   37.4730 N   0  0  0  0  0  4  0  0  0  0  0  0
   38.5090   21.6350   37.5150 H   0  0  0  0  0  0  0  0  0  0  0  0
   40.3540   22.4470   37.5310 C   0  0  0  0  0  2  0  0  0  0  0  0
   40.7580   21.8270   36.7250 H   0  0  0  0  0  0  0  0  0  0  0  0
   38.5260   23.4340   38.5940 C   0  0  0  0  0  2  0  0  0  0  0  0
   39.0420   23.0810   39.5060 H   0  0  0  0  0  0  0  0  0  0  0  0
  1  6  1  1  0  0  0
  1  5  1  0  0  0  0
  2  7  1  6  0  0  0
  2  1  1  0  0  0  0
  2  3  1  0  0  0  0
  3  4  1  0  0  0  0
  4  9  1  0  0  0  0
  4  8  1  0  0  0  0
  5 10  1  6  0  0  0
  5  4  1  0  0  0  0
  5 23  1  0  0  0  0
 11 12  1  0  0  0  0
 11  1  1  0  0  0  0
 13  2  1  0  0  0  0
 14 15  2  0  0  0  0
 14 19  1  0  0  0  0
 15 16  1  0  0  0  0
 16 22  1  0  0  0  0
 16 17  2  0  0  0  0
 18 17  1  0  0  0  0
 18 13  1  0  0  0  0
 19 18  2  0  0  0  0
 20 14  1  0  0  0  0
 21 15  1  0  0  0  0
 24 23  1  0  0  0  0
 24 25  1  0  0  0  0
 25 26  1  0  0  0  0
 25 27  1  0  0  0  0
 25 29  1  0  0  0  0
 28 27  1  0  0  0  0
 29 30  1  0  0  0  0
M  END
>  <minimizedAffinity>
-3.92481256

$$$$

 OpenBabel03272506453D

 30 31  0  0  1  0  0  0  0  0999 V2000
   36.7350   27.2420   32.8700 C   0  0  2  0  0  0  0  0  0  0  0  0
   37.2400   26.0030   33.5720 C   0  0  1  0  0  0  0  0  0  0  0  0
   38.1720   25.4090   32.7560 O   0  0  0  0  0  0  0  0  0  0  0  0
   38.4750   26.2620   31.7080 C   0  0  0  0  0  0  0  0  0  0  0  0
   38.0020   27.6470   32.1280 C   0  0  1  0  0  0  0  0  0  0  0  0
   35.9420   26.9710   32.1710 H   0  0  0  0  0  0  0  0  0  0  0  0
   36.4520   25.2840   33.8430 H   0  0  0  0  0  0  0  0  0  0  0  0
   39.5680   26.2100   31.5780 H   0  0  0  0  0  0  0  0  0  0  0  0
   37.8890   25.8880   30.8340 H   0  0  0  0  0  0  0  0  0  0  0  0
   38.7230   28.0590   32.8340 H   0  0  0  0  0  0  0  0  0  0  0  0
   36.3660   28.2260   33.7920 O   0  0  0  0  0  0  0  0  0  0  0  0
   37.2090   28.6990   34.0290 H   0  0  0  0  0  0  0  0  0  0  0  0
   38.1310   26.5750   35.0740 S   0  0  0  0  0  0  0  0  0  0  0  0
   40.0930   23.3390   36.2730 C   0  0  0  0  0  0  0  0  0  0  0  0
   39.4250   22.9050   37.4170 C   0  0  0  0  0  0  0  0  0  0  0  0
   38.3080   23.6520   37.8420 C   0  0  0  0  0  0  0  0  0  0  0  0
   37.9510   24.7410   37.1170 N   0  0  0  0  0  0  0  0  0  0  0  0
   38.6250   25.1290   36.0150 C   0  0  0  0  0  0  0  0  0  0  0  0
   39.7040   24.4350   35.5750 N   0  0  0  0  0  0  0  0  0  0  0  0
   40.9610   22.8130   35.8880 H   0  0  0  0  0  0  0  0  0  0  0  0
   39.7510   22.0330   37.9530 H   0  0  0  0  0  0  0  0  0  0  0  0
   37.7580   23.3530   38.7250 H   0  0  0  0  0  0  0  0  0  0  0  0
   37.7620   28.4470   31.0520 O   0  0  0  0  0  0  0  0  0  0  0  0
   36.9190   28.0000   30.0790 C   0  0  0  0  0  2  0  0  0  0  0  0
   37.3690   28.6390   28.8350 N   0  0  0  0  0  4  0  0  0  0  0  0
   36.6960   28.4890   28.0730 H   0  0  0  0  0  0  0  0  0  0  0  0
   37.4410   30.0940   29.0400 C   0  0  0  0  0  2  0  0  0  0  0  0
   36.4720   30.5430   29.2780 H   0  0  0  0  0  0  0  0  0  0  0  0
   38.7240   28.2090   28.5370 C   0  0  0  0  0  2  0  0  0  0  0  0
   39.1650   28.8830   27.7810 H   0  0  0  0  0  0  0  0  0  0  0  0
  1  6  1  6  0  0  0
  1  2  1  0  0  0  0
  1 11  1  0  0  0  0
  2  7  1  1  0  0  0
  2 13  1  0  0  0  0
  3  2  1  0  0  0  0
  4  5  1  0  0  0  0
  4  3  1  0  0  0  0
  5 10  1  1  0  0  0
  5  1  1  0  0  0  0
  8  4  1  0  0  0  0
  9  4  1  0  0  0  0
 11 12  1  0  0  0  0
 13 18  1  0  0  0  0
 14 15  1  0  0  0  0
 15 16  2  0  0  0  0
 15 21  1  0  0  0  0
 16 22  1  0  0  0  0
 17 16  1  0  0  0  0
 18 17  2  0  0  0  0
 19 18  1  0  0  0  0
 19 14  2  0  0  0  0
 20 14  1  0  0  0  0
 23  5  1  0  0  0  0
 24 23  1  0  0  0  0
 25 27  1  0  0  0  0
 25 24  1  0  0  0  0
 26 25  1  0  0  0  0
 27 28  1  0  0  0  0
 29 25  1  0  0  0  0
 30 29  1  0  0  0  0
M  END
>  <minimizedAffinity>
-3.91567516

$$$$

 OpenBabel03272506453D

 30 31  0  0  1  0  0  0  0  0999 V2000
   38.5960   25.5170   34.4840 C   0  0  2  0  0  0  0  0  0  0  0  0
   38.6500   25.7420   32.9900 C   0  0  1  0  0  0  0  0  0  0  0  0
   39.2330   24.6370   32.4200 O   0  0  0  0  0  0  0  0  0  0  0  0
   39.3510   23.6380   33.3710 C   0  0  0  0  0  0  0  0  0  0  0  0
   38.4030   24.0070   34.5050 C   0  0  1  0  0  0  0  0  0  0  0  0
   39.5510   25.7950   34.9320 H   0  0  0  0  0  0  0  0  0  0  0  0
   39.1840   26.6570   32.6910 H   0  0  0  0  0  0  0  0  0  0  0  0
   39.0630   22.7010   32.8680 H   0  0  0  0  0  0  0  0  0  0  0  0
   40.4130   23.6700   33.7130 H   0  0  0  0  0  0  0  0  0  0  0  0
   37.3860   23.7640   34.1970 H   0  0  0  0  0  0  0  0  0  0  0  0
   37.4930   26.1640   35.0490 O   0  0  0  0  0  0  0  0  0  0  0  0
   36.7260   25.5430   34.9230 H   0  0  0  0  0  0  0  0  0  0  0  0
   36.9090   25.7940   32.4020 S   0  0  0  0  0  0  0  0  0  0  0  0
   36.1590   29.3180   30.7370 C   0  0  0  0  0  0  0  0  0  0  0  0
   35.7490   30.1420   31.7840 C   0  0  0  0  0  0  0  0  0  0  0  0
   35.7010   29.5790   33.0760 C   0  0  0  0  0  0  0  0  0  0  0  0
   36.0560   28.2780   33.2220 N   0  0  0  0  0  0  0  0  0  0  0  0
   36.4470   27.5140   32.1810 C   0  0  0  0  0  0  0  0  0  0  0  0
   36.5050   28.0210   30.9240 N   0  0  0  0  0  0  0  0  0  0  0  0
   36.2190   29.6840   29.7160 H   0  0  0  0  0  0  0  0  0  0  0  0
   35.4800   31.1670   31.6110 H   0  0  0  0  0  0  0  0  0  0  0  0
   35.3890   30.1800   33.9200 H   0  0  0  0  0  0  0  0  0  0  0  0
   38.7770   23.4330   35.6820 O   0  0  0  0  0  0  0  0  0  0  0  0
   37.8140   22.9000   36.4850 C   0  0  0  0  0  2  0  0  0  0  0  0
   38.3640   22.9360   37.8470 N   0  0  0  0  0  4  0  0  0  0  0  0
   38.1030   22.0960   38.3790 H   0  0  0  0  0  0  0  0  0  0  0  0
   39.8340   22.9350   37.7740 C   0  0  0  0  0  2  0  0  0  0  0  0
   40.2400   22.0330   37.3060 H   0  0  0  0  0  0  0  0  0  0  0  0
   37.9960   24.1890   38.4810 C   0  0  0  0  0  2  0  0  0  0  0  0
   38.6250   24.3480   39.3760 H   0  0  0  0  0  0  0  0  0  0  0  0
  1  5  1  0  0  0  0
  1  6  1  1  0  0  0
  1 11  1  0  0  0  0
  2  7  1  6  0  0  0
  2  1  1  0  0  0  0
  3  2  1  0  0  0  0
  3  4  1  0  0  0  0
  4  9  1  0  0  0  0
  4  5  1  0  0  0  0
  5 10  1  6  0  0  0
  5 23  1  0  0  0  0
  8  4  1  0  0  0  0
 12 11  1  0  0  0  0
 13  2  1  0  0  0  0
 14 19  2  0  0  0  0
 14 15  1  0  0  0  0
 15 16  2  0  0  0  0
 16 17  1  0  0  0  0
 16 22  1  0  0  0  0
 18 13  1  0  0  0  0
 18 17  2  0  0  0  0
 19 18  1  0  0  0  0
 20 14  1  0  0  0  0
 21 15  1  0  0  0  0
 23 24  1  0  0  0  0
 24 25  1  0  0  0  0
 25 26  1  0  0  0  0
 25 29  1  0  0  0  0
 27 25  1  0  0  0  0
 28 27  1  0  0  0  0
 29 30  1  0  0  0  0
M  END
>  <minimizedAffinity>
-3.90367389

$$$$
