
 OpenBabel03272506423D

 30 31  0  0  1  0  0  0  0  0999 V2000
   32.3780   28.3570   47.5180 C   0  0  2  0  0  0  0  0  0  0  0  0
   33.6230   28.4150   48.3720 C   0  0  1  0  0  0  0  0  0  0  0  0
   34.1880   27.1630   48.3750 O   0  0  0  0  0  0  0  0  0  0  0  0
   33.5560   26.3720   47.4310 C   0  0  0  0  0  0  0  0  0  0  0  0
   32.8210   27.3210   46.4940 C   0  0  1  0  0  0  0  0  0  0  0  0
   31.5410   27.9870   48.1120 H   0  0  0  0  0  0  0  0  0  0  0  0
   33.4480   28.7610   49.4020 H   0  0  0  0  0  0  0  0  0  0  0  0
   34.3530   25.8080   46.9220 H   0  0  0  0  0  0  0  0  0  0  0  0
   32.8360   25.7380   48.0020 H   0  0  0  0  0  0  0  0  0  0  0  0
   33.5480   27.7660   45.8140 H   0  0  0  0  0  0  0  0  0  0  0  0
   32.1350   29.5890   46.9010 O   0  0  0  0  0  0  0  0  0  0  0  0
   32.7010   29.5930   46.0830 H   0  0  0  0  0  0  0  0  0  0  0  0
   34.8010   29.5320   47.5110 S   0  0  0  0  0  0  0  0  0  0  0  0
   37.3800   29.4820   50.5290 C   0  0  0  0  0  0  0  0  0  0  0  0
   37.9860   30.7370   50.5180 C   0  0  0  0  0  0  0  0  0  0  0  0
   37.5760   31.6500   49.5250 C   0  0  0  0  0  0  0  0  0  0  0  0
   36.6230   31.2550   48.6440 N   0  0  0  0  0  0  0  0  0  0  0  0
   36.0610   30.0290   48.6890 C   0  0  0  0  0  0  0  0  0  0  0  0
   36.4290   29.1250   49.6300 N   0  0  0  0  0  0  0  0  0  0  0  0
   37.6460   28.7290   51.2650 H   0  0  0  0  0  0  0  0  0  0  0  0
   38.7360   30.9970   51.2410 H   0  0  0  0  0  0  0  0  0  0  0  0
   38.0180   32.6360   49.4770 H   0  0  0  0  0  0  0  0  0  0  0  0
   31.7810   26.7060   45.8670 O   0  0  0  0  0  0  0  0  0  0  0  0
   31.6480   26.8560   44.5190 C   0  0  0  0  0  2  0  0  0  0  0  0
   32.6150   25.9290   43.9150 N   0  0  0  0  0  4  0  0  0  0  0  0
   33.5080   25.9370   44.4210 H   0  0  0  0  0  0  0  0  0  0  0  0
   32.0950   24.5560   44.0190 C   0  0  0  0  0  2  0  0  0  0  0  0
   31.9620   24.2240   45.0530 H   0  0  0  0  0  0  0  0  0  0  0  0
   32.7240   26.2080   42.4950 C   0  0  0  0  0  2  0  0  0  0  0  0
   33.2180   25.3580   41.9900 H   0  0  0  0  0  0  0  0  0  0  0  0
  1  6  1  1  0  0  0
  1  2  1  0  0  0  0
  2  3  1  0  0  0  0
  2  7  1  1  0  0  0
  4  9  1  0  0  0  0
  4  3  1  0  0  0  0
  5 10  1  6  0  0  0
  5  4  1  0  0  0  0
  5  1  1  0  0  0  0
  8  4  1  0  0  0  0
 11  1  1  0  0  0  0
 12 11  1  0  0  0  0
 13  2  1  0  0  0  0
 13 18  1  0  0  0  0
 14 20  1  0  0  0  0
 15 14  1  0  0  0  0
 15 21  1  0  0  0  0
 16 15  2  0  0  0  0
 17 18  2  0  0  0  0
 17 16  1  0  0  0  0
 18 19  1  0  0  0  0
 19 14  2  0  0  0  0
 22 16  1  0  0  0  0
 23  5  1  0  0  0  0
 24 23  1  0  0  0  0
 25 27  1  0  0  0  0
 25 26  1  0  0  0  0
 25 24  1  0  0  0  0
 27 28  1  0  0  0  0
 29 25  1  0  0  0  0
 30 29  1  0  0  0  0
M  END
>  <minimizedAffinity>
-3.50121284

>  <minimizedRMSD>
0.438399822

$$$$
