
 OpenBabel03272506423D

 30 31  0  0  1  0  0  0  0  0999 V2000
   32.3900   28.3560   47.5360 C   0  0  2  0  0  0  0  0  0  0  0  0
   33.6320   28.4310   48.3940 C   0  0  1  0  0  0  0  0  0  0  0  0
   34.2040   27.1830   48.4130 O   0  0  0  0  0  0  0  0  0  0  0  0
   33.5790   26.3760   47.4770 C   0  0  0  0  0  0  0  0  0  0  0  0
   32.8420   27.3100   46.5260 C   0  0  1  0  0  0  0  0  0  0  0  0
   31.5530   27.9870   48.1320 H   0  0  0  0  0  0  0  0  0  0  0  0
   33.4520   28.7880   49.4190 H   0  0  0  0  0  0  0  0  0  0  0  0
   34.3820   25.8110   46.9760 H   0  0  0  0  0  0  0  0  0  0  0  0
   32.8620   25.7450   48.0520 H   0  0  0  0  0  0  0  0  0  0  0  0
   33.5680   27.7510   45.8430 H   0  0  0  0  0  0  0  0  0  0  0  0
   32.1410   29.5780   46.9040 O   0  0  0  0  0  0  0  0  0  0  0  0
   32.7100   29.5760   46.0880 H   0  0  0  0  0  0  0  0  0  0  0  0
   34.8060   29.5450   47.5220 S   0  0  0  0  0  0  0  0  0  0  0  0
   37.4030   29.4960   50.5250 C   0  0  0  0  0  0  0  0  0  0  0  0
   38.0120   30.7500   50.5070 C   0  0  0  0  0  0  0  0  0  0  0  0
   37.5990   31.6610   49.5140 C   0  0  0  0  0  0  0  0  0  0  0  0
   36.6390   31.2660   48.6400 N   0  0  0  0  0  0  0  0  0  0  0  0
   36.0740   30.0420   48.6910 C   0  0  0  0  0  0  0  0  0  0  0  0
   36.4460   29.1390   49.6320 N   0  0  0  0  0  0  0  0  0  0  0  0
   37.6710   28.7440   51.2610 H   0  0  0  0  0  0  0  0  0  0  0  0
   38.7670   31.0100   51.2240 H   0  0  0  0  0  0  0  0  0  0  0  0
   38.0430   32.6460   49.4600 H   0  0  0  0  0  0  0  0  0  0  0  0
   31.8070   26.6810   45.9030 O   0  0  0  0  0  0  0  0  0  0  0  0
   31.9480   26.3270   44.5950 C   0  0  0  0  0  2  0  0  0  0  0  0
   31.9230   24.8580   44.5740 N   0  0  0  0  0  4  0  0  0  0  0  0
   32.7870   24.4620   44.9610 H   0  0  0  0  0  0  0  0  0  0  0  0
   30.8300   24.3820   45.4370 C   0  0  0  0  0  2  0  0  0  0  0  0
   30.9550   24.6680   46.4850 H   0  0  0  0  0  0  0  0  0  0  0  0
   31.6000   24.4030   43.2340 C   0  0  0  0  0  2  0  0  0  0  0  0
   31.3050   23.3380   43.2670 H   0  0  0  0  0  0  0  0  0  0  0  0
  1  6  1  1  0  0  0
  1  2  1  0  0  0  0
  2  3  1  0  0  0  0
  2  7  1  1  0  0  0
  4  9  1  0  0  0  0
  4  3  1  0  0  0  0
  5 10  1  6  0  0  0
  5  4  1  0  0  0  0
  5  1  1  0  0  0  0
  8  4  1  0  0  0  0
 11  1  1  0  0  0  0
 12 11  1  0  0  0  0
 13  2  1  0  0  0  0
 13 18  1  0  0  0  0
 14 20  1  0  0  0  0
 15 14  1  0  0  0  0
 15 21  1  0  0  0  0
 16 15  2  0  0  0  0
 17 18  2  0  0  0  0
 17 16  1  0  0  0  0
 18 19  1  0  0  0  0
 19 14  2  0  0  0  0
 22 16  1  0  0  0  0
 23  5  1  0  0  0  0
 24 23  1  0  0  0  0
 25 24  1  0  0  0  0
 25 26  1  0  0  0  0
 25 27  1  0  0  0  0
 27 28  1  0  0  0  0
 29 30  1  0  0  0  0
 29 25  1  0  0  0  0
M  END
>  <minimizedAffinity>
-3.56605911

>  <minimizedRMSD>
0.325906694

$$$$
