
 OpenBabel03272506433D

 30 31  0  0  1  0  0  0  0  0999 V2000
   32.2360   28.1770   47.6320 C   0  0  2  0  0  0  0  0  0  0  0  0
   33.5110   28.1900   48.4430 C   0  0  1  0  0  0  0  0  0  0  0  0
   34.0950   26.9530   48.3270 O   0  0  0  0  0  0  0  0  0  0  0  0
   33.4400   26.2260   47.3470 C   0  0  0  0  0  0  0  0  0  0  0  0
   32.6560   27.2320   46.5140 C   0  0  1  0  0  0  0  0  0  0  0  0
   31.4280   27.7460   48.2250 H   0  0  0  0  0  0  0  0  0  0  0  0
   33.3700   28.4520   49.5030 H   0  0  0  0  0  0  0  0  0  0  0  0
   34.2270   25.7190   46.7660 H   0  0  0  0  0  0  0  0  0  0  0  0
   32.7520   25.5360   47.8910 H   0  0  0  0  0  0  0  0  0  0  0  0
   33.3490   27.7420   45.8460 H   0  0  0  0  0  0  0  0  0  0  0  0
   31.9510   29.4480   47.1240 O   0  0  0  0  0  0  0  0  0  0  0  0
   32.4850   29.5270   46.2890 H   0  0  0  0  0  0  0  0  0  0  0  0
   34.6380   29.3940   47.6300 S   0  0  0  0  0  0  0  0  0  0  0  0
   37.2940   29.3150   50.5800 C   0  0  0  0  0  0  0  0  0  0  0  0
   37.7620   30.6240   50.6910 C   0  0  0  0  0  0  0  0  0  0  0  0
   37.2290   31.5830   49.8070 C   0  0  0  0  0  0  0  0  0  0  0  0
   36.2970   31.1790   48.9060 N   0  0  0  0  0  0  0  0  0  0  0  0
   35.8710   29.9020   48.8310 C   0  0  0  0  0  0  0  0  0  0  0  0
   36.3610   28.9510   49.6650 N   0  0  0  0  0  0  0  0  0  0  0  0
   37.6600   28.5240   51.2280 H   0  0  0  0  0  0  0  0  0  0  0  0
   38.5010   30.8890   51.4230 H   0  0  0  0  0  0  0  0  0  0  0  0
   37.5610   32.6120   49.8550 H   0  0  0  0  0  0  0  0  0  0  0  0
   31.6020   26.6490   45.8790 O   0  0  0  0  0  0  0  0  0  0  0  0
   31.8490   25.8310   44.8180 C   0  0  0  0  0  2  0  0  0  0  0  0
   31.0930   24.5980   45.0800 N   0  0  0  0  0  4  0  0  0  0  0  0
   31.6230   23.9540   45.6780 H   0  0  0  0  0  0  0  0  0  0  0  0
   29.8670   24.9330   45.8210 C   0  0  0  0  0  2  0  0  0  0  0  0
   30.0650   25.3790   46.8010 H   0  0  0  0  0  0  0  0  0  0  0  0
   30.6540   24.0280   43.8190 C   0  0  0  0  0  2  0  0  0  0  0  0
   29.8640   23.2770   44.0090 H   0  0  0  0  0  0  0  0  0  0  0  0
  1  6  1  1  0  0  0
  1  2  1  0  0  0  0
  2  7  1  1  0  0  0
  3  2  1  0  0  0  0
  4  9  1  0  0  0  0
  4  3  1  0  0  0  0
  5 10  1  6  0  0  0
  5  4  1  0  0  0  0
  5  1  1  0  0  0  0
  8  4  1  0  0  0  0
 11  1  1  0  0  0  0
 12 11  1  0  0  0  0
 13  2  1  0  0  0  0
 13 18  1  0  0  0  0
 14 15  1  0  0  0  0
 14 20  1  0  0  0  0
 15 21  1  0  0  0  0
 16 22  1  0  0  0  0
 16 15  2  0  0  0  0
 17 16  1  0  0  0  0
 18 17  2  0  0  0  0
 18 19  1  0  0  0  0
 19 14  2  0  0  0  0
 23  5  1  0  0  0  0
 24 25  1  0  0  0  0
 24 23  1  0  0  0  0
 25 26  1  0  0  0  0
 25 27  1  0  0  0  0
 27 28  1  0  0  0  0
 29 30  1  0  0  0  0
 29 25  1  0  0  0  0
M  END
>  <minimizedAffinity>
-3.60299349

>  <minimizedRMSD>
0.798572779

$$$$
