
 OpenBabel03272506423D

 30 31  0  0  1  0  0  0  0  0999 V2000
   32.2290   28.1730   47.5420 C   0  0  2  0  0  0  0  0  0  0  0  0
   33.5010   28.1400   48.3560 C   0  0  1  0  0  0  0  0  0  0  0  0
   34.0890   26.9140   48.1650 O   0  0  0  0  0  0  0  0  0  0  0  0
   33.4400   26.2480   47.1400 C   0  0  0  0  0  0  0  0  0  0  0  0
   32.6560   27.3010   46.3690 C   0  0  1  0  0  0  0  0  0  0  0  0
   31.4200   27.7040   48.1040 H   0  0  0  0  0  0  0  0  0  0  0  0
   33.3560   28.3350   49.4300 H   0  0  0  0  0  0  0  0  0  0  0  0
   34.2300   25.7800   46.5310 H   0  0  0  0  0  0  0  0  0  0  0  0
   32.7520   25.5230   47.6370 H   0  0  0  0  0  0  0  0  0  0  0  0
   33.3500   27.8540   45.7360 H   0  0  0  0  0  0  0  0  0  0  0  0
   31.9410   29.4730   47.1130 O   0  0  0  0  0  0  0  0  0  0  0  0
   32.4790   29.6050   46.2860 H   0  0  0  0  0  0  0  0  0  0  0  0
   34.6280   29.3950   47.6240 S   0  0  0  0  0  0  0  0  0  0  0  0
   37.1950   29.2560   50.6480 C   0  0  0  0  0  0  0  0  0  0  0  0
   37.6320   30.5680   50.8230 C   0  0  0  0  0  0  0  0  0  0  0  0
   37.1050   31.5500   49.9600 C   0  0  0  0  0  0  0  0  0  0  0  0
   36.2100   31.1620   49.0170 N   0  0  0  0  0  0  0  0  0  0  0  0
   35.8130   29.8810   48.8800 C   0  0  0  0  0  0  0  0  0  0  0  0
   36.2980   28.9080   49.6920 N   0  0  0  0  0  0  0  0  0  0  0  0
   37.5590   28.4480   51.2760 H   0  0  0  0  0  0  0  0  0  0  0  0
   38.3430   30.8190   51.5860 H   0  0  0  0  0  0  0  0  0  0  0  0
   37.4140   32.5830   50.0570 H   0  0  0  0  0  0  0  0  0  0  0  0
   31.6060   26.7560   45.6940 O   0  0  0  0  0  0  0  0  0  0  0  0
   31.0210   27.4790   44.6990 C   0  0  0  0  0  2  0  0  0  0  0  0
   32.1150   28.1920   44.0260 N   0  0  0  0  0  4  0  0  0  0  0  0
   32.9650   28.2030   44.6010 H   0  0  0  0  0  0  0  0  0  0  0  0
   32.4650   27.4800   42.7870 C   0  0  0  0  0  2  0  0  0  0  0  0
   32.8300   26.4640   42.9640 H   0  0  0  0  0  0  0  0  0  0  0  0
   31.6500   29.5050   43.6140 C   0  0  0  0  0  2  0  0  0  0  0  0
   32.3540   29.9310   42.8770 H   0  0  0  0  0  0  0  0  0  0  0  0
  1  6  1  1  0  0  0
  1  2  1  0  0  0  0
  2  7  1  1  0  0  0
  3  2  1  0  0  0  0
  4  9  1  0  0  0  0
  4  3  1  0  0  0  0
  5 10  1  6  0  0  0
  5  4  1  0  0  0  0
  5  1  1  0  0  0  0
  8  4  1  0  0  0  0
 11  1  1  0  0  0  0
 12 11  1  0  0  0  0
 13  2  1  0  0  0  0
 13 18  1  0  0  0  0
 14 15  1  0  0  0  0
 14 20  1  0  0  0  0
 15 21  1  0  0  0  0
 16 22  1  0  0  0  0
 16 15  2  0  0  0  0
 17 16  1  0  0  0  0
 18 17  2  0  0  0  0
 18 19  1  0  0  0  0
 19 14  2  0  0  0  0
 23  5  1  0  0  0  0
 24 23  1  0  0  0  0
 25 26  1  0  0  0  0
 25 24  1  0  0  0  0
 27 28  1  0  0  0  0
 27 25  1  0  0  0  0
 29 25  1  0  0  0  0
 30 29  1  0  0  0  0
M  END
>  <minimizedAffinity>
-3.53576112

>  <minimizedRMSD>
1.21109152

$$$$
