
 OpenBabel03272504193D

 25 25  0  0  0  0  0  0  0  0999 V2000
   35.8570   30.2460   49.8220 O   0  0  0  0  0  0  0  0  0  0  0  0
   35.6980   28.9480   49.3600 C   0  0  0  0  0  0  0  0  0  0  0  0
   35.6530   28.2680   50.2300 H   0  0  0  0  0  0  0  0  0  0  0  0
   36.5320   28.6100   48.7120 H   0  0  0  0  0  0  0  0  0  0  0  0
   34.4340   28.7760   48.5910 C   0  0  0  0  0  0  0  0  0  0  0  0
   34.2970   29.4980   47.4030 C   0  0  0  0  0  0  0  0  0  0  0  0
   33.1130   29.3430   46.6710 C   0  0  0  0  0  0  0  0  0  0  0  0
   32.1650   28.4950   47.1660 N   0  0  0  0  0  0  0  0  0  0  0  0
   32.3370   27.8190   48.3160 C   0  0  0  0  0  0  0  0  0  0  0  0
   33.4630   27.9530   49.0320 N   0  0  0  0  0  0  0  0  0  0  0  0
   35.0670   30.1710   47.0230 H   0  0  0  0  0  0  0  0  0  0  0  0
   33.0090   29.8980   45.7590 H   0  0  0  0  0  0  0  0  0  0  0  0
   31.5340   27.1640   48.6410 H   0  0  0  0  0  0  0  0  0  0  0  0
   37.7340   30.1370   47.9940 O   0  0  0  0  0  0  0  0  0  0  0  0
   37.4030   30.7510   49.3450 P   0  0  2  0  0  0  0  0  0  0  0  0
   38.5680   30.1670   50.4320 O   0  0  0  0  0  0  0  0  0  0  0  0
   39.4520   30.1710   49.9750 H   0  0  0  0  0  0  0  0  0  0  0  0
   37.4770   32.4200   49.1850 O   0  0  0  0  0  0  0  0  0  0  0  0
   38.7470   32.9330   49.1420 C   0  0  0  0  0  2  0  0  0  0  0  0
   39.1010   33.6120   47.9260 N   0  0  0  0  0  4  0  0  0  0  0  0
   38.2490   34.1620   47.6190 H   0  0  0  0  0  0  0  0  0  0  0  0
   40.1520   34.6050   48.1500 C   0  0  0  0  0  2  0  0  0  0  0  0
   41.0960   34.1300   48.4370 H   0  0  0  0  0  0  0  0  0  0  0  0
   39.5140   32.7650   46.8520 C   0  0  0  0  0  2  0  0  0  0  0  0
   39.8210   31.7570   47.1830 H   0  0  0  0  0  0  0  0  0  0  0  0
  2  1  1  0  0  0  0
  2  3  1  0  0  0  0
  4  2  1  0  0  0  0
  5 10  1  0  0  0  0
  5  2  1  0  0  0  0
  6  5  2  0  0  0  0
  7  8  2  0  0  0  0
  7  6  1  0  0  0  0
  8  9  1  0  0  0  0
  9 13  1  0  0  0  0
  9 10  2  0  0  0  0
 11  6  1  0  0  0  0
 12  7  1  0  0  0  0
 15 14  2  6  0  0  0
 15  1  1  0  0  0  0
 15 16  1  0  0  0  0
 17 16  1  0  0  0  0
 18 15  1  0  0  0  0
 19 18  1  0  0  0  0
 20 22  1  0  0  0  0
 20 19  1  0  0  0  0
 21 20  1  0  0  0  0
 22 23  1  0  0  0  0
 24 25  1  0  0  0  0
 24 20  1  0  0  0  0
M  END
>  <minimizedAffinity>
-4.14645576

>  <minimizedRMSD>
1.71832514

$$$$
