
 OpenBabel03272506423D

 30 31  0  0  1  0  0  0  0  0999 V2000
   32.3050   28.3300   47.4450 C   0  0  2  0  0  0  0  0  0  0  0  0
   33.5150   28.3600   48.3510 C   0  0  1  0  0  0  0  0  0  0  0  0
   34.0780   27.1070   48.3390 O   0  0  0  0  0  0  0  0  0  0  0  0
   33.4840   26.3450   47.3470 C   0  0  0  0  0  0  0  0  0  0  0  0
   32.7890   27.3240   46.4090 C   0  0  1  0  0  0  0  0  0  0  0  0
   31.4450   27.9440   47.9940 H   0  0  0  0  0  0  0  0  0  0  0  0
   33.2990   28.6750   49.3830 H   0  0  0  0  0  0  0  0  0  0  0  0
   34.3010   25.7960   46.8530 H   0  0  0  0  0  0  0  0  0  0  0  0
   32.7410   25.6960   47.8680 H   0  0  0  0  0  0  0  0  0  0  0  0
   33.5420   27.7870   45.7730 H   0  0  0  0  0  0  0  0  0  0  0  0
   32.0890   29.5800   46.8560 O   0  0  0  0  0  0  0  0  0  0  0  0
   32.6870   29.6070   46.0620 H   0  0  0  0  0  0  0  0  0  0  0  0
   34.7280   29.5000   47.5710 S   0  0  0  0  0  0  0  0  0  0  0  0
   37.3020   29.3180   50.5880 C   0  0  0  0  0  0  0  0  0  0  0  0
   37.7890   30.6160   50.7370 C   0  0  0  0  0  0  0  0  0  0  0  0
   37.2950   31.6010   49.8590 C   0  0  0  0  0  0  0  0  0  0  0  0
   36.3820   31.2310   48.9260 N   0  0  0  0  0  0  0  0  0  0  0  0
   35.9360   29.9630   48.8140 C   0  0  0  0  0  0  0  0  0  0  0  0
   36.3880   28.9880   49.6420 N   0  0  0  0  0  0  0  0  0  0  0  0
   37.6370   28.5080   51.2290 H   0  0  0  0  0  0  0  0  0  0  0  0
   38.5120   30.8530   51.4940 H   0  0  0  0  0  0  0  0  0  0  0  0
   37.6440   32.6230   49.9360 H   0  0  0  0  0  0  0  0  0  0  0  0
   31.7740   26.7300   45.7230 O   0  0  0  0  0  0  0  0  0  0  0  0
   31.8020   26.7550   44.3610 C   0  0  0  0  0  2  0  0  0  0  0  0
   32.3200   25.4440   43.9470 N   0  0  0  0  0  4  0  0  0  0  0  0
   33.2450   25.2620   44.3540 H   0  0  0  0  0  0  0  0  0  0  0  0
   31.4300   24.3900   44.4600 C   0  0  0  0  0  2  0  0  0  0  0  0
   31.3800   24.3650   45.5530 H   0  0  0  0  0  0  0  0  0  0  0  0
   32.2670   25.3420   42.5000 C   0  0  0  0  0  2  0  0  0  0  0  0
   32.3830   24.2840   42.2000 H   0  0  0  0  0  0  0  0  0  0  0  0
  1  6  1  1  0  0  0
  1  2  1  0  0  0  0
  2  7  1  1  0  0  0
  3  2  1  0  0  0  0
  4  9  1  0  0  0  0
  4  3  1  0  0  0  0
  5 10  1  6  0  0  0
  5  4  1  0  0  0  0
  5  1  1  0  0  0  0
  8  4  1  0  0  0  0
 11  1  1  0  0  0  0
 12 11  1  0  0  0  0
 13  2  1  0  0  0  0
 13 18  1  0  0  0  0
 14 15  1  0  0  0  0
 14 20  1  0  0  0  0
 15 21  1  0  0  0  0
 16 22  1  0  0  0  0
 16 15  2  0  0  0  0
 17 16  1  0  0  0  0
 18 17  2  0  0  0  0
 18 19  1  0  0  0  0
 19 14  2  0  0  0  0
 23  5  1  0  0  0  0
 24 23  1  0  0  0  0
 25 26  1  0  0  0  0
 25 24  1  0  0  0  0
 25 27  1  0  0  0  0
 27 28  1  0  0  0  0
 29 25  1  0  0  0  0
 30 29  1  0  0  0  0
M  END
>  <minimizedAffinity>
-3.52431083

>  <minimizedRMSD>
0.418595016

$$$$
