
 OpenBabel03272506433D

 30 31  0  0  1  0  0  0  0  0999 V2000
   32.2160   28.1600   47.6260 C   0  0  2  0  0  0  0  0  0  0  0  0
   33.5110   28.1380   48.4050 C   0  0  1  0  0  0  0  0  0  0  0  0
   34.0750   26.8960   48.2470 O   0  0  0  0  0  0  0  0  0  0  0  0
   33.3860   26.2010   47.2670 C   0  0  0  0  0  0  0  0  0  0  0  0
   32.5970   27.2360   46.4770 C   0  0  1  0  0  0  0  0  0  0  0  0
   31.4170   27.7270   48.2280 H   0  0  0  0  0  0  0  0  0  0  0  0
   33.3990   28.3770   49.4740 H   0  0  0  0  0  0  0  0  0  0  0  0
   34.1520   25.6970   46.6560 H   0  0  0  0  0  0  0  0  0  0  0  0
   32.7020   25.5080   47.8120 H   0  0  0  0  0  0  0  0  0  0  0  0
   33.2810   27.7520   45.8030 H   0  0  0  0  0  0  0  0  0  0  0  0
   31.9370   29.4460   47.1530 O   0  0  0  0  0  0  0  0  0  0  0  0
   32.4520   29.5370   46.3070 H   0  0  0  0  0  0  0  0  0  0  0  0
   34.6350   29.3450   47.5930 S   0  0  0  0  0  0  0  0  0  0  0  0
   37.2510   29.3110   50.5780 C   0  0  0  0  0  0  0  0  0  0  0  0
   37.7270   30.6180   50.6680 C   0  0  0  0  0  0  0  0  0  0  0  0
   37.2120   31.5620   49.7570 C   0  0  0  0  0  0  0  0  0  0  0  0
   36.2900   31.1460   48.8530 N   0  0  0  0  0  0  0  0  0  0  0  0
   35.8550   29.8700   48.7990 C   0  0  0  0  0  0  0  0  0  0  0  0
   36.3280   28.9330   49.6590 N   0  0  0  0  0  0  0  0  0  0  0  0
   37.6030   28.5310   51.2470 H   0  0  0  0  0  0  0  0  0  0  0  0
   38.4580   30.8930   51.4040 H   0  0  0  0  0  0  0  0  0  0  0  0
   37.5510   32.5900   49.7880 H   0  0  0  0  0  0  0  0  0  0  0  0
   31.5200   26.6820   45.8540 O   0  0  0  0  0  0  0  0  0  0  0  0
   31.0890   27.2270   44.6820 C   0  0  0  0  0  2  0  0  0  0  0  0
   29.6270   27.0820   44.6880 N   0  0  0  0  0  4  0  0  0  0  0  0
   29.3410   26.1870   45.1030 H   0  0  0  0  0  0  0  0  0  0  0  0
   29.0410   28.1340   45.5340 C   0  0  0  0  0  2  0  0  0  0  0  0
   29.3560   28.0690   46.5800 H   0  0  0  0  0  0  0  0  0  0  0  0
   29.1160   27.3150   43.3490 C   0  0  0  0  0  2  0  0  0  0  0  0
   28.0250   27.4870   43.3950 H   0  0  0  0  0  0  0  0  0  0  0  0
  1  6  1  1  0  0  0
  1  2  1  0  0  0  0
  2  7  1  1  0  0  0
  3  2  1  0  0  0  0
  4  9  1  0  0  0  0
  4  3  1  0  0  0  0
  5 10  1  6  0  0  0
  5  4  1  0  0  0  0
  5  1  1  0  0  0  0
  8  4  1  0  0  0  0
 11  1  1  0  0  0  0
 12 11  1  0  0  0  0
 13  2  1  0  0  0  0
 13 18  1  0  0  0  0
 14 15  1  0  0  0  0
 14 20  1  0  0  0  0
 15 21  1  0  0  0  0
 16 22  1  0  0  0  0
 16 15  2  0  0  0  0
 17 16  1  0  0  0  0
 18 17  2  0  0  0  0
 18 19  1  0  0  0  0
 19 14  2  0  0  0  0
 23  5  1  0  0  0  0
 24 25  1  0  0  0  0
 24 23  1  0  0  0  0
 25 26  1  0  0  0  0
 25 27  1  0  0  0  0
 27 28  1  0  0  0  0
 29 30  1  0  0  0  0
 29 25  1  0  0  0  0
M  END
>  <minimizedAffinity>
-3.59292626

>  <minimizedRMSD>
0.616413891

$$$$
