
 OpenBabel03272506423D

 30 31  0  0  1  0  0  0  0  0999 V2000
   32.2910   28.2640   47.5970 C   0  0  2  0  0  0  0  0  0  0  0  0
   33.5620   28.2700   48.4160 C   0  0  1  0  0  0  0  0  0  0  0  0
   34.1280   27.0220   48.3210 O   0  0  0  0  0  0  0  0  0  0  0  0
   33.4680   26.2910   47.3470 C   0  0  0  0  0  0  0  0  0  0  0  0
   32.7040   27.2970   46.4960 C   0  0  1  0  0  0  0  0  0  0  0  0
   31.4730   27.8540   48.1910 H   0  0  0  0  0  0  0  0  0  0  0  0
   33.4180   28.5480   49.4710 H   0  0  0  0  0  0  0  0  0  0  0  0
   34.2500   25.7640   46.7790 H   0  0  0  0  0  0  0  0  0  0  0  0
   32.7660   25.6200   47.8970 H   0  0  0  0  0  0  0  0  0  0  0  0
   33.4090   27.7870   45.8240 H   0  0  0  0  0  0  0  0  0  0  0  0
   32.0290   29.5320   47.0690 O   0  0  0  0  0  0  0  0  0  0  0  0
   32.5700   29.5900   46.2360 H   0  0  0  0  0  0  0  0  0  0  0  0
   34.7120   29.4440   47.5930 S   0  0  0  0  0  0  0  0  0  0  0  0
   37.2960   29.3780   50.6060 C   0  0  0  0  0  0  0  0  0  0  0  0
   37.8410   30.6610   50.6540 C   0  0  0  0  0  0  0  0  0  0  0  0
   37.3860   31.5970   49.7040 C   0  0  0  0  0  0  0  0  0  0  0  0
   36.4500   31.1980   48.8060 N   0  0  0  0  0  0  0  0  0  0  0  0
   35.9480   29.9460   48.7930 C   0  0  0  0  0  0  0  0  0  0  0  0
   36.3620   29.0180   49.6910 N   0  0  0  0  0  0  0  0  0  0  0  0
   37.6000   28.6050   51.3060 H   0  0  0  0  0  0  0  0  0  0  0  0
   38.5790   30.9230   51.3870 H   0  0  0  0  0  0  0  0  0  0  0  0
   37.7790   32.6060   49.7020 H   0  0  0  0  0  0  0  0  0  0  0  0
   31.6460   26.7210   45.8620 O   0  0  0  0  0  0  0  0  0  0  0  0
   31.6430   26.6760   44.5000 C   0  0  0  0  0  2  0  0  0  0  0  0
   30.6820   25.6260   44.1350 N   0  0  0  0  0  4  0  0  0  0  0  0
   31.1280   24.7020   44.1100 H   0  0  0  0  0  0  0  0  0  0  0  0
   29.6370   25.5500   45.1690 C   0  0  0  0  0  2  0  0  0  0  0  0
   30.0260   25.2760   46.1540 H   0  0  0  0  0  0  0  0  0  0  0  0
   30.0040   26.0030   42.9080 C   0  0  0  0  0  2  0  0  0  0  0  0
   29.1010   25.3770   42.7800 H   0  0  0  0  0  0  0  0  0  0  0  0
  1  6  1  1  0  0  0
  1  2  1  0  0  0  0
  2  7  1  1  0  0  0
  3  2  1  0  0  0  0
  4  9  1  0  0  0  0
  4  3  1  0  0  0  0
  5 10  1  6  0  0  0
  5  4  1  0  0  0  0
  5  1  1  0  0  0  0
  8  4  1  0  0  0  0
 11  1  1  0  0  0  0
 12 11  1  0  0  0  0
 13  2  1  0  0  0  0
 13 18  1  0  0  0  0
 14 15  1  0  0  0  0
 14 20  1  0  0  0  0
 15 21  1  0  0  0  0
 16 15  2  0  0  0  0
 17 16  1  0  0  0  0
 18 17  2  0  0  0  0
 18 19  1  0  0  0  0
 19 14  2  0  0  0  0
 22 16  1  0  0  0  0
 23  5  1  0  0  0  0
 24 23  1  0  0  0  0
 25 24  1  0  0  0  0
 25 27  1  0  0  0  0
 26 25  1  0  0  0  0
 27 28  1  0  0  0  0
 29 25  1  0  0  0  0
 30 29  1  0  0  0  0
M  END
>  <minimizedAffinity>
-3.54844189

>  <minimizedRMSD>
0.980228782

$$$$
