
 OpenBabel03272506423D

 30 31  0  0  1  0  0  0  0  0999 V2000
   32.4470   28.4180   47.5140 C   0  0  2  0  0  0  0  0  0  0  0  0
   33.6760   28.5090   48.3880 C   0  0  1  0  0  0  0  0  0  0  0  0
   34.2570   27.2650   48.4270 O   0  0  0  0  0  0  0  0  0  0  0  0
   33.6510   26.4460   47.4890 C   0  0  0  0  0  0  0  0  0  0  0  0
   32.9210   27.3660   46.5200 C   0  0  1  0  0  0  0  0  0  0  0  0
   31.6050   28.0490   48.1010 H   0  0  0  0  0  0  0  0  0  0  0  0
   33.4790   28.8740   49.4080 H   0  0  0  0  0  0  0  0  0  0  0  0
   34.4640   25.8820   47.0050 H   0  0  0  0  0  0  0  0  0  0  0  0
   32.9290   25.8150   48.0600 H   0  0  0  0  0  0  0  0  0  0  0  0
   33.6530   27.8060   45.8440 H   0  0  0  0  0  0  0  0  0  0  0  0
   32.1990   29.6330   46.8680 O   0  0  0  0  0  0  0  0  0  0  0  0
   32.7790   29.6280   46.0600 H   0  0  0  0  0  0  0  0  0  0  0  0
   34.8550   29.6240   47.5240 S   0  0  0  0  0  0  0  0  0  0  0  0
   37.4910   29.5180   50.4900 C   0  0  0  0  0  0  0  0  0  0  0  0
   38.0780   30.7820   50.5090 C   0  0  0  0  0  0  0  0  0  0  0  0
   37.6350   31.7200   49.5540 C   0  0  0  0  0  0  0  0  0  0  0  0
   36.6710   31.3380   48.6790 N   0  0  0  0  0  0  0  0  0  0  0  0
   36.1290   30.1030   48.6940 C   0  0  0  0  0  0  0  0  0  0  0  0
   36.5290   29.1750   49.5980 N   0  0  0  0  0  0  0  0  0  0  0  0
   37.7830   28.7450   51.1960 H   0  0  0  0  0  0  0  0  0  0  0  0
   38.8370   31.0310   51.2250 H   0  0  0  0  0  0  0  0  0  0  0  0
   38.0600   32.7150   49.5300 H   0  0  0  0  0  0  0  0  0  0  0  0
   31.8990   26.7250   45.8880 O   0  0  0  0  0  0  0  0  0  0  0  0
   32.1440   25.5170   45.3080 C   0  0  0  0  0  2  0  0  0  0  0  0
   32.7910   25.8110   44.0240 N   0  0  0  0  0  4  0  0  0  0  0  0
   33.1830   26.7590   44.0100 H   0  0  0  0  0  0  0  0  0  0  0  0
   33.9270   24.8940   43.8340 C   0  0  0  0  0  2  0  0  0  0  0  0
   34.7030   25.0080   44.5980 H   0  0  0  0  0  0  0  0  0  0  0  0
   31.8650   25.5260   42.9420 C   0  0  0  0  0  2  0  0  0  0  0  0
   32.4170   25.4730   41.9870 H   0  0  0  0  0  0  0  0  0  0  0  0
  1  6  1  1  0  0  0
  1  2  1  0  0  0  0
  2  3  1  0  0  0  0
  2  7  1  1  0  0  0
  4  9  1  0  0  0  0
  4  3  1  0  0  0  0
  5 10  1  6  0  0  0
  5  4  1  0  0  0  0
  5  1  1  0  0  0  0
  8  4  1  0  0  0  0
 11  1  1  0  0  0  0
 12 11  1  0  0  0  0
 13  2  1  0  0  0  0
 13 18  1  0  0  0  0
 14 15  1  0  0  0  0
 14 20  1  0  0  0  0
 15 21  1  0  0  0  0
 16 15  2  0  0  0  0
 17 18  2  0  0  0  0
 17 16  1  0  0  0  0
 18 19  1  0  0  0  0
 19 14  2  0  0  0  0
 22 16  1  0  0  0  0
 23  5  1  0  0  0  0
 24 23  1  0  0  0  0
 25 24  1  0  0  0  0
 26 25  1  0  0  0  0
 27 25  1  0  0  0  0
 27 28  1  0  0  0  0
 29 25  1  0  0  0  0
 30 29  1  0  0  0  0
M  END
>  <minimizedAffinity>
-3.52822375

>  <minimizedRMSD>
1.31831002

$$$$
