
 OpenBabel03272507333D

 34 36  0  0  1  0  0  0  0  0999 V2000
   35.8400   29.1530   49.8110 C   0  0  0  0  0  0  0  0  0  0  0  0
   34.8400   29.6580   50.6140 C   0  0  0  0  0  0  0  0  0  0  0  0
   33.6250   29.1350   50.1470 C   0  0  0  0  0  0  0  0  0  0  0  0
   33.9660   28.3370   49.0800 C   0  0  0  0  0  0  0  0  0  0  0  0
   35.2710   28.3800   48.9200 O   0  0  0  0  0  0  0  0  0  0  0  0
   34.8820   30.3250   51.4560 H   0  0  0  0  0  0  0  0  0  0  0  0
   32.6350   29.3080   50.5270 H   0  0  0  0  0  0  0  0  0  0  0  0
   37.2380   29.4890   50.0130 C   0  0  0  0  0  0  0  0  0  0  0  0
   37.8940   28.8710   50.8640 O   0  0  0  0  0  0  0  0  0  0  0  0
   37.7810   30.5380   49.1950 C   0  0  0  0  0  0  0  0  0  0  0  0
   38.1250   31.7200   49.8320 C   0  0  0  0  0  0  0  0  0  0  0  0
   38.6540   32.7610   49.0620 C   0  0  0  0  0  0  0  0  0  0  0  0
   38.8060   32.5560   47.7120 N   0  0  0  0  0  0  0  0  0  0  0  0
   38.4640   31.4010   47.1320 C   0  0  0  0  0  0  0  0  0  0  0  0
   37.9560   30.3980   47.8610 N   0  0  0  0  0  0  0  0  0  0  0  0
   38.0190   31.9140   50.8890 H   0  0  0  0  0  0  0  0  0  0  0  0
   38.9370   33.6920   49.4930 H   0  0  0  0  0  0  0  0  0  0  0  0
   38.5860   31.2450   46.0650 H   0  0  0  0  0  0  0  0  0  0  0  0
   33.0380   27.5630   48.2540 C   0  0  0  0  0  0  0  0  0  0  0  0
   31.8200   27.4880   48.6280 O   0  0  0  0  0  0  0  0  0  0  0  0
   33.5180   26.8740   47.0100 C   0  0  1  0  0  0  0  0  0  0  0  0
   33.7990   25.3540   47.3130 C   0  0  0  0  0  0  0  0  0  0  0  0
   32.7260   25.8090   46.3940 C   0  0  2  0  0  0  0  0  0  0  0  0
   34.4690   27.3050   46.6270 H   0  0  0  0  0  0  0  0  0  0  0  0
   34.7320   24.9270   46.9470 H   0  0  0  0  0  0  0  0  0  0  0  0
   33.4790   24.9680   48.2810 H   0  0  0  0  0  0  0  0  0  0  0  0
   31.6750   25.7330   46.7270 H   0  0  0  0  0  0  0  0  0  0  0  0
   32.9240   25.4700   44.9380 C   0  0  0  0  0  2  0  0  0  0  0  0
   31.7220   25.5650   44.1480 N   0  0  0  0  0  4  0  0  0  0  0  0
   30.8980   25.1100   44.6010 H   0  0  0  0  0  0  0  0  0  0  0  0
   31.9840   24.8760   42.8870 C   0  0  0  0  0  2  0  0  0  0  0  0
   31.8440   25.5240   42.0010 H   0  0  0  0  0  0  0  0  0  0  0  0
   31.4520   26.9650   43.7880 C   0  0  0  0  0  2  0  0  0  0  0  0
   32.3890   27.5480   43.9270 H   0  0  0  0  0  0  0  0  0  0  0  0
  1  8  1  0  0  0  0
  1  2  2  0  0  0  0
  2  6  1  0  0  0  0
  3  7  1  0  0  0  0
  3  2  1  0  0  0  0
  4  3  2  0  0  0  0
  5  4  1  0  0  0  0
  5  1  1  0  0  0  0
  8  9  2  0  0  0  0
 10 11  1  0  0  0  0
 10  8  1  0  0  0  0
 11 16  1  0  0  0  0
 12 17  1  0  0  0  0
 12 11  2  0  0  0  0
 13 12  1  0  0  0  0
 14 13  2  0  0  0  0
 14 15  1  0  0  0  0
 15 10  2  0  0  0  0
 18 14  1  0  0  0  0
 19 20  2  0  0  0  0
 19  4  1  0  0  0  0
 21 24  1  6  0  0  0
 21 22  1  0  0  0  0
 21 19  1  0  0  0  0
 22 26  1  0  0  0  0
 23 27  1  1  0  0  0
 23 21  1  0  0  0  0
 23 22  1  0  0  0  0
 25 22  1  0  0  0  0
 28 23  1  0  0  0  0
 29 30  1  0  0  0  0
 29 28  1  0  0  0  0
 31 29  1  0  0  0  0
 32 31  1  0  0  0  0
 33 34  1  0  0  0  0
 33 29  1  0  0  0  0
M  END
>  <minimizedAffinity>
-4.60651064

>  <minimizedRMSD>
0.141975671

$$$$
