
 OpenBabel03272507333D

 34 36  0  0  1  0  0  0  0  0999 V2000
   35.8160   29.1400   49.8050 C   0  0  0  0  0  0  0  0  0  0  0  0
   34.8070   29.6570   50.5870 C   0  0  0  0  0  0  0  0  0  0  0  0
   33.5970   29.1290   50.1120 C   0  0  0  0  0  0  0  0  0  0  0  0
   33.9510   28.3160   49.0610 C   0  0  0  0  0  0  0  0  0  0  0  0
   35.2580   28.3540   48.9170 O   0  0  0  0  0  0  0  0  0  0  0  0
   34.8390   30.3360   51.4200 H   0  0  0  0  0  0  0  0  0  0  0  0
   32.6030   29.3090   50.4770 H   0  0  0  0  0  0  0  0  0  0  0  0
   37.2120   29.4770   50.0200 C   0  0  0  0  0  0  0  0  0  0  0  0
   37.8590   28.8610   50.8800 O   0  0  0  0  0  0  0  0  0  0  0  0
   37.7640   30.5230   49.2040 C   0  0  0  0  0  0  0  0  0  0  0  0
   38.1140   31.7010   49.8440 C   0  0  0  0  0  0  0  0  0  0  0  0
   38.6520   32.7400   49.0770 C   0  0  0  0  0  0  0  0  0  0  0  0
   38.8040   32.5360   47.7260 N   0  0  0  0  0  0  0  0  0  0  0  0
   38.4550   31.3850   47.1440 C   0  0  0  0  0  0  0  0  0  0  0  0
   37.9390   30.3840   47.8710 N   0  0  0  0  0  0  0  0  0  0  0  0
   38.0090   31.8950   50.9010 H   0  0  0  0  0  0  0  0  0  0  0  0
   38.9410   33.6680   49.5100 H   0  0  0  0  0  0  0  0  0  0  0  0
   38.5770   31.2300   46.0770 H   0  0  0  0  0  0  0  0  0  0  0  0
   33.0320   27.5310   48.2340 C   0  0  0  0  0  0  0  0  0  0  0  0
   31.8090   27.4650   48.5920 O   0  0  0  0  0  0  0  0  0  0  0  0
   33.5280   26.8220   47.0070 C   0  0  1  0  0  0  0  0  0  0  0  0
   33.7850   25.3020   47.3340 C   0  0  0  0  0  0  0  0  0  0  0  0
   32.7350   25.7590   46.3890 C   0  0  2  0  0  0  0  0  0  0  0  0
   34.4910   27.2380   46.6380 H   0  0  0  0  0  0  0  0  0  0  0  0
   34.7200   24.8610   46.9910 H   0  0  0  0  0  0  0  0  0  0  0  0
   33.4420   24.9320   48.3000 H   0  0  0  0  0  0  0  0  0  0  0  0
   31.6770   25.6990   46.7030 H   0  0  0  0  0  0  0  0  0  0  0  0
   32.9570   25.4000   44.9410 C   0  0  0  0  0  2  0  0  0  0  0  0
   33.4630   24.0670   44.7390 N   0  0  0  0  0  4  0  0  0  0  0  0
   34.1190   23.7600   45.4930 H   0  0  0  0  0  0  0  0  0  0  0  0
   34.1980   24.0750   43.4780 C   0  0  0  0  0  2  0  0  0  0  0  0
   33.8100   23.3410   42.7450 H   0  0  0  0  0  0  0  0  0  0  0  0
   32.3550   23.1180   44.5490 C   0  0  0  0  0  2  0  0  0  0  0  0
   31.4420   23.6970   44.2850 H   0  0  0  0  0  0  0  0  0  0  0  0
  1  8  1  0  0  0  0
  1  2  2  0  0  0  0
  2  6  1  0  0  0  0
  3  7  1  0  0  0  0
  3  2  1  0  0  0  0
  4  3  2  0  0  0  0
  5  4  1  0  0  0  0
  5  1  1  0  0  0  0
  8  9  2  0  0  0  0
 10 11  1  0  0  0  0
 10  8  1  0  0  0  0
 11 16  1  0  0  0  0
 12 17  1  0  0  0  0
 12 11  2  0  0  0  0
 13 12  1  0  0  0  0
 14 13  2  0  0  0  0
 14 15  1  0  0  0  0
 15 10  2  0  0  0  0
 18 14  1  0  0  0  0
 19 20  2  0  0  0  0
 19  4  1  0  0  0  0
 21 24  1  6  0  0  0
 21 22  1  0  0  0  0
 21 19  1  0  0  0  0
 22 26  1  0  0  0  0
 23 27  1  1  0  0  0
 23 21  1  0  0  0  0
 23 22  1  0  0  0  0
 25 22  1  0  0  0  0
 28 23  1  0  0  0  0
 29 28  1  0  0  0  0
 29 30  1  0  0  0  0
 31 29  1  0  0  0  0
 32 31  1  0  0  0  0
 33 29  1  0  0  0  0
 34 33  1  0  0  0  0
M  END
>  <minimizedAffinity>
-4.59786224

>  <minimizedRMSD>
0.221370801

$$$$
