
 OpenBabel03272507323D

 34 36  0  0  1  0  0  0  0  0999 V2000
   35.8560   29.1460   49.8020 C   0  0  0  0  0  0  0  0  0  0  0  0
   34.8090   29.6220   50.5610 C   0  0  0  0  0  0  0  0  0  0  0  0
   33.6320   29.0570   50.0500 C   0  0  0  0  0  0  0  0  0  0  0  0
   34.0410   28.2640   49.0030 C   0  0  0  0  0  0  0  0  0  0  0  0
   35.3490   28.3480   48.8950 O   0  0  0  0  0  0  0  0  0  0  0  0
   34.7960   30.2960   51.3990 H   0  0  0  0  0  0  0  0  0  0  0  0
   32.6230   29.2000   50.3900 H   0  0  0  0  0  0  0  0  0  0  0  0
   37.2330   29.5290   50.0560 C   0  0  0  0  0  0  0  0  0  0  0  0
   37.8660   28.9580   50.9560 O   0  0  0  0  0  0  0  0  0  0  0  0
   37.7850   30.5670   49.2300 C   0  0  0  0  0  0  0  0  0  0  0  0
   38.1190   31.7580   49.8550 C   0  0  0  0  0  0  0  0  0  0  0  0
   38.6550   32.7900   49.0770 C   0  0  0  0  0  0  0  0  0  0  0  0
   38.8240   32.5660   47.7310 N   0  0  0  0  0  0  0  0  0  0  0  0
   38.4910   31.4030   47.1640 C   0  0  0  0  0  0  0  0  0  0  0  0
   37.9760   30.4080   47.9010 N   0  0  0  0  0  0  0  0  0  0  0  0
   38.0000   31.9680   50.9070 H   0  0  0  0  0  0  0  0  0  0  0  0
   38.9320   33.7270   49.4980 H   0  0  0  0  0  0  0  0  0  0  0  0
   38.6260   31.2310   46.1000 H   0  0  0  0  0  0  0  0  0  0  0  0
   33.1720   27.4540   48.1470 C   0  0  0  0  0  0  0  0  0  0  0  0
   31.9250   27.4230   48.4160 O   0  0  0  0  0  0  0  0  0  0  0  0
   33.7440   26.6820   46.9940 C   0  0  1  0  0  0  0  0  0  0  0  0
   33.7930   25.1470   47.3500 C   0  0  0  0  0  0  0  0  0  0  0  0
   32.9300   25.7000   46.2760 C   0  0  2  0  0  0  0  0  0  0  0  0
   34.7860   26.9880   46.7540 H   0  0  0  0  0  0  0  0  0  0  0  0
   34.7120   24.6050   47.1310 H   0  0  0  0  0  0  0  0  0  0  0  0
   33.2910   24.8270   48.2620 H   0  0  0  0  0  0  0  0  0  0  0  0
   31.8400   25.7570   46.4500 H   0  0  0  0  0  0  0  0  0  0  0  0
   33.2980   25.3030   44.8700 C   0  0  0  0  0  2  0  0  0  0  0  0
   34.7030   25.0530   44.6820 N   0  0  0  0  0  4  0  0  0  0  0  0
   35.2720   25.2460   45.5370 H   0  0  0  0  0  0  0  0  0  0  0  0
   35.1590   25.9510   43.6250 C   0  0  0  0  0  2  0  0  0  0  0  0
   35.6110   25.4180   42.7650 H   0  0  0  0  0  0  0  0  0  0  0  0
   34.9210   23.6920   44.1670 C   0  0  0  0  0  2  0  0  0  0  0  0
   33.9590   23.3190   43.7510 H   0  0  0  0  0  0  0  0  0  0  0  0
  1  8  1  0  0  0  0
  1  2  2  0  0  0  0
  2  6  1  0  0  0  0
  3  7  1  0  0  0  0
  3  2  1  0  0  0  0
  4  3  2  0  0  0  0
  5  4  1  0  0  0  0
  5  1  1  0  0  0  0
  8  9  2  0  0  0  0
 10 11  1  0  0  0  0
 10  8  1  0  0  0  0
 11 16  1  0  0  0  0
 12 17  1  0  0  0  0
 12 11  2  0  0  0  0
 13 12  1  0  0  0  0
 14 13  2  0  0  0  0
 14 15  1  0  0  0  0
 15 10  2  0  0  0  0
 18 14  1  0  0  0  0
 19 20  2  0  0  0  0
 19  4  1  0  0  0  0
 21 24  1  6  0  0  0
 21 22  1  0  0  0  0
 21 19  1  0  0  0  0
 22 26  1  0  0  0  0
 23 27  1  1  0  0  0
 23 21  1  0  0  0  0
 23 22  1  0  0  0  0
 25 22  1  0  0  0  0
 28 23  1  0  0  0  0
 29 28  1  0  0  0  0
 29 30  1  0  0  0  0
 31 29  1  0  0  0  0
 32 31  1  0  0  0  0
 33 29  1  0  0  0  0
 34 33  1  0  0  0  0
M  END
>  <minimizedAffinity>
-4.69936037

>  <minimizedRMSD>
0.707547784

$$$$
