
 OpenBabel03272507333D

 34 36  0  0  1  0  0  0  0  0999 V2000
   35.8090   29.1380   49.8040 C   0  0  0  0  0  0  0  0  0  0  0  0
   34.8020   29.6590   50.5870 C   0  0  0  0  0  0  0  0  0  0  0  0
   33.5900   29.1340   50.1150 C   0  0  0  0  0  0  0  0  0  0  0  0
   33.9400   28.3190   49.0640 C   0  0  0  0  0  0  0  0  0  0  0  0
   35.2470   28.3530   48.9180 O   0  0  0  0  0  0  0  0  0  0  0  0
   34.8380   30.3400   51.4190 H   0  0  0  0  0  0  0  0  0  0  0  0
   32.5970   29.3170   50.4810 H   0  0  0  0  0  0  0  0  0  0  0  0
   37.2060   29.4720   50.0150 C   0  0  0  0  0  0  0  0  0  0  0  0
   37.8550   28.8530   50.8720 O   0  0  0  0  0  0  0  0  0  0  0  0
   37.7580   30.5190   49.2010 C   0  0  0  0  0  0  0  0  0  0  0  0
   38.1060   31.6970   49.8410 C   0  0  0  0  0  0  0  0  0  0  0  0
   38.6440   32.7370   49.0750 C   0  0  0  0  0  0  0  0  0  0  0  0
   38.7980   32.5330   47.7240 N   0  0  0  0  0  0  0  0  0  0  0  0
   38.4510   31.3820   47.1420 C   0  0  0  0  0  0  0  0  0  0  0  0
   37.9340   30.3800   47.8670 N   0  0  0  0  0  0  0  0  0  0  0  0
   37.9990   31.8900   50.8980 H   0  0  0  0  0  0  0  0  0  0  0  0
   38.9320   33.6650   49.5080 H   0  0  0  0  0  0  0  0  0  0  0  0
   38.5740   31.2270   46.0740 H   0  0  0  0  0  0  0  0  0  0  0  0
   33.0180   27.5350   48.2400 C   0  0  0  0  0  0  0  0  0  0  0  0
   31.7970   27.4660   48.6050 O   0  0  0  0  0  0  0  0  0  0  0  0
   33.5070   26.8310   47.0080 C   0  0  1  0  0  0  0  0  0  0  0  0
   33.7920   25.3160   47.3350 C   0  0  0  0  0  0  0  0  0  0  0  0
   32.7230   25.7540   46.4030 C   0  0  2  0  0  0  0  0  0  0  0  0
   34.4580   27.2600   46.6240 H   0  0  0  0  0  0  0  0  0  0  0  0
   34.7280   24.8880   46.9790 H   0  0  0  0  0  0  0  0  0  0  0  0
   33.4690   24.9420   48.3060 H   0  0  0  0  0  0  0  0  0  0  0  0
   31.6700   25.6790   46.7320 H   0  0  0  0  0  0  0  0  0  0  0  0
   32.9300   25.3950   44.9540 C   0  0  0  0  0  2  0  0  0  0  0  0
   32.7450   23.9960   44.6660 N   0  0  0  0  0  4  0  0  0  0  0  0
   33.4570   23.3860   45.1270 H   0  0  0  0  0  0  0  0  0  0  0  0
   32.8840   23.8360   43.2200 C   0  0  0  0  0  2  0  0  0  0  0  0
   31.9900   23.3870   42.7450 H   0  0  0  0  0  0  0  0  0  0  0  0
   31.3710   23.5810   44.9810 C   0  0  0  0  0  2  0  0  0  0  0  0
   30.7380   24.4930   45.0500 H   0  0  0  0  0  0  0  0  0  0  0  0
  1  8  1  0  0  0  0
  1  2  2  0  0  0  0
  2  6  1  0  0  0  0
  3  7  1  0  0  0  0
  3  2  1  0  0  0  0
  4  3  2  0  0  0  0
  5  4  1  0  0  0  0
  5  1  1  0  0  0  0
  8  9  2  0  0  0  0
 10 11  1  0  0  0  0
 10  8  1  0  0  0  0
 11 16  1  0  0  0  0
 12 17  1  0  0  0  0
 12 11  2  0  0  0  0
 13 12  1  0  0  0  0
 14 13  2  0  0  0  0
 14 15  1  0  0  0  0
 15 10  2  0  0  0  0
 18 14  1  0  0  0  0
 19 20  2  0  0  0  0
 19  4  1  0  0  0  0
 21 24  1  6  0  0  0
 21 22  1  0  0  0  0
 21 19  1  0  0  0  0
 22 26  1  0  0  0  0
 23 27  1  1  0  0  0
 23 21  1  0  0  0  0
 23 22  1  0  0  0  0
 25 22  1  0  0  0  0
 28 23  1  0  0  0  0
 29 28  1  0  0  0  0
 29 33  1  0  0  0  0
 29 30  1  0  0  0  0
 31 29  1  0  0  0  0
 32 31  1  0  0  0  0
 33 34  1  0  0  0  0
M  END
>  <minimizedAffinity>
-4.59961843

>  <minimizedRMSD>
0.298273534

$$$$
