
 OpenBabel03272507323D

 34 36  0  0  1  0  0  0  0  0999 V2000
   35.8550   29.1540   49.8170 C   0  0  0  0  0  0  0  0  0  0  0  0
   34.8410   29.6500   50.6070 C   0  0  0  0  0  0  0  0  0  0  0  0
   33.6370   29.1090   50.1300 C   0  0  0  0  0  0  0  0  0  0  0  0
   34.0000   28.3100   49.0710 C   0  0  0  0  0  0  0  0  0  0  0  0
   35.3060   28.3680   48.9240 O   0  0  0  0  0  0  0  0  0  0  0  0
   34.8650   30.3220   51.4450 H   0  0  0  0  0  0  0  0  0  0  0  0
   32.6420   29.2710   50.4990 H   0  0  0  0  0  0  0  0  0  0  0  0
   37.2460   29.5090   50.0310 C   0  0  0  0  0  0  0  0  0  0  0  0
   37.8980   28.9140   50.9030 O   0  0  0  0  0  0  0  0  0  0  0  0
   37.7900   30.5480   49.2020 C   0  0  0  0  0  0  0  0  0  0  0  0
   38.1480   31.7320   49.8280 C   0  0  0  0  0  0  0  0  0  0  0  0
   38.6770   32.7640   49.0470 C   0  0  0  0  0  0  0  0  0  0  0  0
   38.8150   32.5490   47.6960 N   0  0  0  0  0  0  0  0  0  0  0  0
   38.4600   31.3940   47.1280 C   0  0  0  0  0  0  0  0  0  0  0  0
   37.9510   30.3980   47.8670 N   0  0  0  0  0  0  0  0  0  0  0  0
   38.0530   31.9340   50.8840 H   0  0  0  0  0  0  0  0  0  0  0  0
   38.9710   33.6960   49.4690 H   0  0  0  0  0  0  0  0  0  0  0  0
   38.5700   31.2290   46.0600 H   0  0  0  0  0  0  0  0  0  0  0  0
   33.0910   27.5190   48.2400 C   0  0  0  0  0  0  0  0  0  0  0  0
   31.8680   27.4390   48.5960 O   0  0  0  0  0  0  0  0  0  0  0  0
   33.5950   26.8210   47.0100 C   0  0  1  0  0  0  0  0  0  0  0  0
   33.7980   25.2880   47.3100 C   0  0  0  0  0  0  0  0  0  0  0  0
   32.7860   25.7960   46.3500 C   0  0  2  0  0  0  0  0  0  0  0  0
   34.5790   27.2150   46.6730 H   0  0  0  0  0  0  0  0  0  0  0  0
   34.7260   24.8250   46.9800 H   0  0  0  0  0  0  0  0  0  0  0  0
   33.4200   24.9080   48.2590 H   0  0  0  0  0  0  0  0  0  0  0  0
   31.7190   25.7620   46.6370 H   0  0  0  0  0  0  0  0  0  0  0  0
   33.0320   25.4610   44.9010 C   0  0  0  0  0  2  0  0  0  0  0  0
   32.1280   26.1140   43.9890 N   0  0  0  0  0  4  0  0  0  0  0  0
   31.1960   26.3230   44.4150 H   0  0  0  0  0  0  0  0  0  0  0  0
   31.9170   25.2020   42.8680 C   0  0  0  0  0  2  0  0  0  0  0  0
   32.1930   25.6440   41.8910 H   0  0  0  0  0  0  0  0  0  0  0  0
   32.7530   27.3150   43.4130 C   0  0  0  0  0  2  0  0  0  0  0  0
   33.8520   27.2420   43.5650 H   0  0  0  0  0  0  0  0  0  0  0  0
  1  8  1  0  0  0  0
  1  2  2  0  0  0  0
  2  6  1  0  0  0  0
  3  7  1  0  0  0  0
  3  2  1  0  0  0  0
  4  3  2  0  0  0  0
  5  4  1  0  0  0  0
  5  1  1  0  0  0  0
  8  9  2  0  0  0  0
 10 11  1  0  0  0  0
 10  8  1  0  0  0  0
 11 16  1  0  0  0  0
 12 17  1  0  0  0  0
 12 11  2  0  0  0  0
 13 12  1  0  0  0  0
 14 13  2  0  0  0  0
 14 15  1  0  0  0  0
 15 10  2  0  0  0  0
 18 14  1  0  0  0  0
 19 20  2  0  0  0  0
 19  4  1  0  0  0  0
 21 24  1  6  0  0  0
 21 22  1  0  0  0  0
 21 19  1  0  0  0  0
 22 26  1  0  0  0  0
 23 27  1  1  0  0  0
 23 21  1  0  0  0  0
 23 22  1  0  0  0  0
 25 22  1  0  0  0  0
 28 23  1  0  0  0  0
 29 30  1  0  0  0  0
 29 28  1  0  0  0  0
 31 29  1  0  0  0  0
 32 31  1  0  0  0  0
 33 34  1  0  0  0  0
 33 29  1  0  0  0  0
M  END
>  <minimizedAffinity>
-4.59617138

>  <minimizedRMSD>
0.120681956

$$$$
