
 OpenBabel03272507333D

 34 36  0  0  1  0  0  0  0  0999 V2000
   35.8950   29.1830   49.8300 C   0  0  0  0  0  0  0  0  0  0  0  0
   34.9170   29.6690   50.6700 C   0  0  0  0  0  0  0  0  0  0  0  0
   33.6900   29.1570   50.2230 C   0  0  0  0  0  0  0  0  0  0  0  0
   34.0030   28.3840   49.1290 C   0  0  0  0  0  0  0  0  0  0  0  0
   35.3030   28.4300   48.9360 O   0  0  0  0  0  0  0  0  0  0  0  0
   34.9820   30.3160   51.5250 H   0  0  0  0  0  0  0  0  0  0  0  0
   32.7110   29.3210   50.6330 H   0  0  0  0  0  0  0  0  0  0  0  0
   37.2980   29.5140   50.0020 C   0  0  0  0  0  0  0  0  0  0  0  0
   37.9720   28.8900   50.8350 O   0  0  0  0  0  0  0  0  0  0  0  0
   37.8270   30.5660   49.1770 C   0  0  0  0  0  0  0  0  0  0  0  0
   38.1720   31.7490   49.8110 C   0  0  0  0  0  0  0  0  0  0  0  0
   38.6860   32.7940   49.0350 C   0  0  0  0  0  0  0  0  0  0  0  0
   38.8230   32.5890   47.6820 N   0  0  0  0  0  0  0  0  0  0  0  0
   38.4790   31.4330   47.1070 C   0  0  0  0  0  0  0  0  0  0  0  0
   37.9850   30.4270   47.8420 N   0  0  0  0  0  0  0  0  0  0  0  0
   38.0780   31.9430   50.8680 H   0  0  0  0  0  0  0  0  0  0  0  0
   38.9700   33.7250   49.4620 H   0  0  0  0  0  0  0  0  0  0  0  0
   38.5890   31.2770   46.0380 H   0  0  0  0  0  0  0  0  0  0  0  0
   33.0530   27.6290   48.3100 C   0  0  0  0  0  0  0  0  0  0  0  0
   31.8410   27.5600   48.7050 O   0  0  0  0  0  0  0  0  0  0  0  0
   33.5040   26.9520   47.0490 C   0  0  1  0  0  0  0  0  0  0  0  0
   33.7820   25.4260   47.3300 C   0  0  0  0  0  0  0  0  0  0  0  0
   32.6940   25.8980   46.4360 C   0  0  2  0  0  0  0  0  0  0  0  0
   34.4500   27.3820   46.6520 H   0  0  0  0  0  0  0  0  0  0  0  0
   34.7040   24.9980   46.9400 H   0  0  0  0  0  0  0  0  0  0  0  0
   33.4780   25.0310   48.2990 H   0  0  0  0  0  0  0  0  0  0  0  0
   31.6490   25.8250   46.7900 H   0  0  0  0  0  0  0  0  0  0  0  0
   32.8610   25.5750   44.9740 C   0  0  0  0  0  2  0  0  0  0  0  0
   32.0180   26.3560   44.1040 N   0  0  0  0  0  4  0  0  0  0  0  0
   31.1880   26.7610   44.5930 H   0  0  0  0  0  0  0  0  0  0  0  0
   31.5320   25.4580   43.0600 C   0  0  0  0  0  2  0  0  0  0  0  0
   31.7960   25.7950   42.0390 H   0  0  0  0  0  0  0  0  0  0  0  0
   32.8070   27.3840   43.4080 C   0  0  0  0  0  2  0  0  0  0  0  0
   33.8810   27.1010   43.4710 H   0  0  0  0  0  0  0  0  0  0  0  0
  1  8  1  0  0  0  0
  1  2  2  0  0  0  0
  2  6  1  0  0  0  0
  3  7  1  0  0  0  0
  3  2  1  0  0  0  0
  4  3  2  0  0  0  0
  5  4  1  0  0  0  0
  5  1  1  0  0  0  0
  8  9  2  0  0  0  0
 10 11  1  0  0  0  0
 10  8  1  0  0  0  0
 11 16  1  0  0  0  0
 12 17  1  0  0  0  0
 12 11  2  0  0  0  0
 13 12  1  0  0  0  0
 14 13  2  0  0  0  0
 14 15  1  0  0  0  0
 15 10  2  0  0  0  0
 18 14  1  0  0  0  0
 19 20  2  0  0  0  0
 19  4  1  0  0  0  0
 21 24  1  6  0  0  0
 21 22  1  0  0  0  0
 21 19  1  0  0  0  0
 22 26  1  0  0  0  0
 23 27  1  1  0  0  0
 23 21  1  0  0  0  0
 23 22  1  0  0  0  0
 25 22  1  0  0  0  0
 28 23  1  0  0  0  0
 29 30  1  0  0  0  0
 29 28  1  0  0  0  0
 31 29  1  0  0  0  0
 32 31  1  0  0  0  0
 33 34  1  0  0  0  0
 33 29  1  0  0  0  0
M  END
>  <minimizedAffinity>
-4.60069132

>  <minimizedRMSD>
0.303889751

$$$$
