
 OpenBabel03272507323D

 34 36  0  0  1  0  0  0  0  0999 V2000
   35.8550   29.1450   49.8030 C   0  0  0  0  0  0  0  0  0  0  0  0
   34.8080   29.6220   50.5610 C   0  0  0  0  0  0  0  0  0  0  0  0
   33.6310   29.0560   50.0500 C   0  0  0  0  0  0  0  0  0  0  0  0
   34.0410   28.2630   49.0040 C   0  0  0  0  0  0  0  0  0  0  0  0
   35.3480   28.3480   48.8960 O   0  0  0  0  0  0  0  0  0  0  0  0
   34.7940   30.2960   51.3990 H   0  0  0  0  0  0  0  0  0  0  0  0
   32.6220   29.1990   50.3890 H   0  0  0  0  0  0  0  0  0  0  0  0
   37.2320   29.5290   50.0570 C   0  0  0  0  0  0  0  0  0  0  0  0
   37.8650   28.9580   50.9580 O   0  0  0  0  0  0  0  0  0  0  0  0
   37.7840   30.5670   49.2310 C   0  0  0  0  0  0  0  0  0  0  0  0
   38.1180   31.7580   49.8550 C   0  0  0  0  0  0  0  0  0  0  0  0
   38.6550   32.7890   49.0760 C   0  0  0  0  0  0  0  0  0  0  0  0
   38.8240   32.5650   47.7310 N   0  0  0  0  0  0  0  0  0  0  0  0
   38.4900   31.4010   47.1640 C   0  0  0  0  0  0  0  0  0  0  0  0
   37.9750   30.4070   47.9010 N   0  0  0  0  0  0  0  0  0  0  0  0
   37.9990   31.9680   50.9070 H   0  0  0  0  0  0  0  0  0  0  0  0
   38.9320   33.7260   49.4970 H   0  0  0  0  0  0  0  0  0  0  0  0
   38.6250   31.2290   46.1000 H   0  0  0  0  0  0  0  0  0  0  0  0
   33.1720   27.4530   48.1480 C   0  0  0  0  0  0  0  0  0  0  0  0
   31.9250   27.4200   48.4160 O   0  0  0  0  0  0  0  0  0  0  0  0
   33.7450   26.6810   46.9950 C   0  0  1  0  0  0  0  0  0  0  0  0
   33.7940   25.1460   47.3490 C   0  0  0  0  0  0  0  0  0  0  0  0
   32.9300   25.7000   46.2760 C   0  0  2  0  0  0  0  0  0  0  0  0
   34.7860   26.9880   46.7550 H   0  0  0  0  0  0  0  0  0  0  0  0
   34.7120   24.6040   47.1300 H   0  0  0  0  0  0  0  0  0  0  0  0
   33.2910   24.8260   48.2610 H   0  0  0  0  0  0  0  0  0  0  0  0
   31.8400   25.7570   46.4490 H   0  0  0  0  0  0  0  0  0  0  0  0
   33.2990   25.3030   44.8690 C   0  0  0  0  0  2  0  0  0  0  0  0
   34.7040   25.0530   44.6810 N   0  0  0  0  0  4  0  0  0  0  0  0
   35.2730   25.2460   45.5380 H   0  0  0  0  0  0  0  0  0  0  0  0
   35.1620   25.9520   43.6250 C   0  0  0  0  0  2  0  0  0  0  0  0
   35.6130   25.4200   42.7660 H   0  0  0  0  0  0  0  0  0  0  0  0
   34.9220   23.6930   44.1670 C   0  0  0  0  0  2  0  0  0  0  0  0
   33.9610   23.3200   43.7500 H   0  0  0  0  0  0  0  0  0  0  0  0
  1  8  1  0  0  0  0
  1  2  2  0  0  0  0
  2  6  1  0  0  0  0
  3  7  1  0  0  0  0
  3  2  1  0  0  0  0
  4  3  2  0  0  0  0
  5  4  1  0  0  0  0
  5  1  1  0  0  0  0
  8  9  2  0  0  0  0
 10 11  1  0  0  0  0
 10  8  1  0  0  0  0
 11 16  1  0  0  0  0
 12 17  1  0  0  0  0
 12 11  2  0  0  0  0
 13 12  1  0  0  0  0
 14 13  2  0  0  0  0
 14 15  1  0  0  0  0
 15 10  2  0  0  0  0
 18 14  1  0  0  0  0
 19 20  2  0  0  0  0
 19  4  1  0  0  0  0
 21 24  1  6  0  0  0
 21 22  1  0  0  0  0
 21 19  1  0  0  0  0
 22 26  1  0  0  0  0
 23 27  1  1  0  0  0
 23 21  1  0  0  0  0
 23 22  1  0  0  0  0
 25 22  1  0  0  0  0
 28 23  1  0  0  0  0
 29 28  1  0  0  0  0
 29 30  1  0  0  0  0
 31 29  1  0  0  0  0
 32 31  1  0  0  0  0
 33 29  1  0  0  0  0
 34 33  1  0  0  0  0
M  END
>  <minimizedAffinity>
-4.69956684

>  <minimizedRMSD>
0.293992519

$$$$
