
 OpenBabel03272509473D

 28 30  0  0  0  0  0  0  0  0999 V2000
   32.8930   27.9980   48.6930 C   0  0  0  0  0  0  0  0  0  0  0  0
   31.8580   28.3940   48.8570 H   0  0  0  0  0  0  0  0  0  0  0  0
   32.7970   26.9110   48.8990 H   0  0  0  0  0  0  0  0  0  0  0  0
   33.2460   28.2820   47.2890 C   0  0  0  0  0  0  0  0  0  0  0  0
   33.1660   29.5380   46.7890 N   0  0  0  0  0  0  0  0  0  0  0  0
   33.4930   29.8620   45.5460 C   0  0  0  0  0  3  0  0  0  0  0  0
   33.9350   28.9180   44.6970 N   0  0  0  0  0  0  0  0  0  0  0  0
   34.0510   27.6470   45.0850 C   0  0  0  0  0  0  0  0  0  0  0  0
   34.5000   26.7060   44.1870 C   0  0  0  0  0  3  0  0  0  0  0  0
   34.5900   25.4100   44.6500 C   0  0  0  0  0  0  0  0  0  0  0  0
   34.9440   24.6740   43.9390 H   0  0  0  0  0  0  0  0  0  0  0  0
   34.2540   25.0380   45.9450 C   0  0  0  0  0  0  0  0  0  0  0  0
   34.3610   23.9840   46.2110 H   0  0  0  0  0  0  0  0  0  0  0  0
   33.8110   26.0380   46.7910 C   0  0  0  0  0  3  0  0  0  0  0  0
   33.7020   27.3510   46.3820 C   0  0  0  0  0  0  0  0  0  0  0  0
   33.7680   28.7050   49.6720 C   0  0  0  0  0  0  0  0  0  0  0  0
   33.4000   28.4950   50.7030 H   0  0  0  0  0  0  0  0  0  0  0  0
   33.6690   29.7930   49.5450 H   0  0  0  0  0  0  0  0  0  0  0  0
   35.1160   28.2780   49.5320 O   0  0  0  0  0  0  0  0  0  0  0  0
   37.4790   30.3160   51.3530 C   0  0  0  0  0  0  0  0  0  0  0  0
   38.1780   30.8910   50.2910 C   0  0  0  0  0  0  0  0  0  0  0  0
   37.8010   30.5470   48.9880 C   0  0  0  0  0  0  0  0  0  0  0  0
   36.7630   29.6640   48.8580 N   0  0  0  0  0  0  0  0  0  0  0  0
   36.1190   29.1360   49.9040 C   0  0  0  0  0  0  0  0  0  0  0  0
   36.4900   29.4740   51.1560 N   0  0  0  0  0  0  0  0  0  0  0  0
   37.7540   30.5670   52.3770 H   0  0  0  0  0  0  0  0  0  0  0  0
   38.9890   31.5820   50.4530 H   0  0  0  0  0  0  0  0  0  0  0  0
   38.3050   30.9580   48.1200 H   0  0  0  0  0  0  0  0  0  0  0  0
  1  2  1  0  0  0  0
  1  3  1  0  0  0  0
  1 16  1  0  0  0  0
  4  1  1  0  0  0  0
  5  4  1  0  0  0  0
  6  5  2  0  0  0  0
  7  8  2  0  0  0  0
  7  6  1  0  0  0  0
  8 15  1  0  0  0  0
  9 10  2  0  0  0  0
  9  8  1  0  0  0  0
 10 12  1  0  0  0  0
 11 10  1  0  0  0  0
 12 13  1  0  0  0  0
 12 14  2  0  0  0  0
 15 14  1  0  0  0  0
 15  4  2  0  0  0  0
 16 17  1  0  0  0  0
 18 16  1  0  0  0  0
 19 16  1  0  0  0  0
 19 24  1  0  0  0  0
 20 26  1  0  0  0  0
 21 27  1  0  0  0  0
 21 20  2  0  0  0  0
 22 21  1  0  0  0  0
 23 22  2  0  0  0  0
 23 24  1  0  0  0  0
 24 25  2  0  0  0  0
 25 20  1  0  0  0  0
 28 22  1  0  0  0  0
M  END
>  <minimizedAffinity>
-4.54461575

>  <minimizedRMSD>
1.43437576

$$$$
