
 OpenBabel03272507303D

 32 35  0  0  0  0  0  0  0  0999 V2000
   35.8600   29.2420   49.6010 C   0  0  0  0  0  0  0  0  0  0  0  0
   34.8190   29.3840   50.4460 C   0  0  0  0  0  0  0  0  0  0  0  0
   33.6620   28.9130   49.8260 C   0  0  0  0  0  0  0  0  0  0  0  0
   34.1020   28.4840   48.5560 C   0  0  0  0  0  0  0  0  0  0  0  0
   35.3600   28.7200   48.5440 O   0  0  0  0  0  0  0  0  0  0  0  0
   34.6800   29.7620   51.4480 H   0  0  0  0  0  0  0  0  0  0  0  0
   32.6340   28.8510   50.1600 H   0  0  0  0  0  0  0  0  0  0  0  0
   37.2090   29.6340   49.9250 C   0  0  0  0  0  0  0  0  0  0  0  0
   37.7830   29.0840   50.8760 O   0  0  0  0  0  0  0  0  0  0  0  0
   37.8130   30.6700   49.0930 C   0  0  0  0  0  0  0  0  0  0  0  0
   38.0700   31.8880   49.7420 C   0  0  0  0  0  0  0  0  0  0  0  0
   38.6510   32.8970   48.9680 C   0  0  0  0  0  0  0  0  0  0  0  0
   38.9310   32.6620   47.6600 N   0  0  0  0  0  0  0  0  0  0  0  0
   38.6590   31.4640   47.0860 C   0  0  0  0  0  0  0  0  0  0  0  0
   38.1090   30.4850   47.7970 N   0  0  0  0  0  0  0  0  0  0  0  0
   37.8480   32.0780   50.7810 H   0  0  0  0  0  0  0  0  0  0  0  0
   38.8840   33.8760   49.3900 H   0  0  0  0  0  0  0  0  0  0  0  0
   38.8700   31.2480   46.0550 H   0  0  0  0  0  0  0  0  0  0  0  0
   33.2230   27.9000   47.5360 C   0  0  0  0  0  0  0  0  0  0  0  0
   31.9840   27.8790   47.7330 O   0  0  0  0  0  0  0  0  0  0  0  0
   33.4300   27.2810   46.2500 C   0  0  0  0  0  0  0  0  0  0  0  0
   33.1990   28.0710   45.1740 N   0  0  0  0  0  0  0  0  0  0  0  0
   33.3440   27.6430   43.8870 C   0  0  0  0  0  3  0  0  0  0  0  0
   33.7330   26.3870   43.6490 N   0  0  0  0  0  0  0  0  0  0  0  0
   33.9920   25.5230   44.6440 C   0  0  0  0  0  0  0  0  0  0  0  0
   34.4240   24.2360   44.4170 C   0  0  0  0  0  3  0  0  0  0  0  0
   34.7160   23.3830   45.4460 C   0  0  0  0  0  0  0  0  0  0  0  0
   35.0530   22.3740   45.2680 H   0  0  0  0  0  0  0  0  0  0  0  0
   34.5520   23.8860   46.7350 C   0  0  0  0  0  0  0  0  0  0  0  0
   34.7910   23.1920   47.5350 H   0  0  0  0  0  0  0  0  0  0  0  0
   34.1190   25.1750   46.9280 C   0  0  0  0  0  3  0  0  0  0  0  0
   33.8210   26.0330   45.9060 C   0  0  0  0  0  0  0  0  0  0  0  0
  1  8  1  0  0  0  0
  1  2  2  0  0  0  0
  2  6  1  0  0  0  0
  3  7  1  0  0  0  0
  3  2  1  0  0  0  0
  4  3  2  0  0  0  0
  5  4  1  0  0  0  0
  5  1  1  0  0  0  0
  8  9  2  0  0  0  0
 10 11  1  0  0  0  0
 10  8  1  0  0  0  0
 11 16  1  0  0  0  0
 12 17  1  0  0  0  0
 12 11  2  0  0  0  0
 13 12  1  0  0  0  0
 14 13  2  0  0  0  0
 14 15  1  0  0  0  0
 15 10  2  0  0  0  0
 18 14  1  0  0  0  0
 19 20  2  0  0  0  0
 19  4  1  0  0  0  0
 21 19  1  0  0  0  0
 22 21  2  0  0  0  0
 23 22  1  0  0  0  0
 24 23  2  0  0  0  0
 24 25  1  0  0  0  0
 25 32  1  0  0  0  0
 26 25  2  0  0  0  0
 26 27  1  0  0  0  0
 27 29  2  0  0  0  0
 28 27  1  0  0  0  0
 29 31  1  0  0  0  0
 29 30  1  0  0  0  0
 32 21  1  0  0  0  0
 32 31  2  0  0  0  0
M  END
>  <minimizedAffinity>
-5.37978649

>  <minimizedRMSD>
1.64739883

$$$$
