
 OpenBabel03262522253D

 38 41  0  0  0  0  0  0  0  0999 V2000
   35.8750   28.1620   32.2020 C   0  0  0  0  0  0  0  0  0  0  0  0
   35.8500   28.8800   33.4070 C   0  0  0  0  0  0  0  0  0  0  0  0
   36.4410   28.2840   34.5260 C   0  0  0  0  0  0  0  0  0  0  0  0
   36.9910   27.0630   34.3600 N   0  0  0  0  0  0  0  0  0  0  0  0
   36.9870   26.4250   33.1940 C   0  0  0  0  0  0  0  0  0  0  0  0
   36.4220   26.9610   32.0640 N   0  0  0  0  0  0  0  0  0  0  0  0
   35.4430   28.5290   31.2580 H   0  0  0  0  0  0  0  0  0  0  0  0
   36.4040   28.8620   35.4330 H   0  0  0  0  0  0  0  0  0  0  0  0
   35.2440   30.1000   33.3610 O   0  0  0  0  0  0  0  0  0  0  0  0
   34.9890   30.7510   34.5730 C   0  0  0  0  0  0  0  0  0  0  0  0
   35.8300   31.6110   35.2610 C   0  0  0  0  0  0  0  0  0  0  0  0
   35.4320   32.1580   36.4210 C   0  0  0  0  0  0  0  0  0  0  0  0
   34.1760   31.8410   36.9050 C   0  0  0  0  0  0  0  0  0  0  0  0
   33.3400   30.9720   36.2030 C   0  0  0  0  0  0  0  0  0  0  0  0
   33.7790   30.4440   35.0370 N   0  0  0  0  0  0  0  0  0  0  0  0
   36.7840   31.7560   34.7420 H   0  0  0  0  0  0  0  0  0  0  0  0
   36.1140   32.8170   36.9170 H   0  0  0  0  0  0  0  0  0  0  0  0
   33.8670   32.2870   37.8410 H   0  0  0  0  0  0  0  0  0  0  0  0
   31.9730   30.6510   36.7650 C   0  0  0  0  0  0  0  0  0  0  0  0
   31.5140   31.5500   37.2190 H   0  0  0  0  0  0  0  0  0  0  0  0
   31.3780   30.2250   35.9400 H   0  0  0  0  0  0  0  0  0  0  0  0
   32.1550   29.8990   37.5610 H   0  0  0  0  0  0  0  0  0  0  0  0
   37.8260   24.8150   33.4040 S   0  0  0  0  0  0  0  0  0  0  0  0
   39.2120   25.1950   34.5550 C   0  0  0  0  0  0  0  0  0  0  0  0
   40.1040   24.7280   34.0640 H   0  0  0  0  0  0  0  0  0  0  0  0
   39.4140   26.2710   34.6190 H   0  0  0  0  0  0  0  0  0  0  0  0
   39.0410   24.5080   35.8450 C   0  0  0  0  0  0  0  0  0  0  0  0
   38.0590   24.7160   36.7390 N   0  0  0  0  0  0  0  0  0  0  0  0
   38.0190   24.0050   37.9040 C   0  0  0  0  0  3  0  0  0  0  0  0
   38.9610   23.0810   38.1800 N   0  0  0  0  0  0  0  0  0  0  0  0
   39.9570   22.8470   37.3060 C   0  0  0  0  0  0  0  0  0  0  0  0
   40.9490   21.8950   37.5670 C   0  0  0  0  0  3  0  0  0  0  0  0
   41.9710   21.6510   36.6780 C   0  0  0  0  0  0  0  0  0  0  0  0
   42.7570   20.9180   36.8490 H   0  0  0  0  0  0  0  0  0  0  0  0
   42.0410   22.3520   35.4900 C   0  0  0  0  0  0  0  0  0  0  0  0
   42.8280   22.1960   34.7550 H   0  0  0  0  0  0  0  0  0  0  0  0
   41.0620   23.2750   35.2610 C   0  0  0  0  0  3  0  0  0  0  0  0
   40.0150   23.5630   36.1130 C   0  0  0  0  0  0  0  0  0  0  0  0
  1  2  1  0  0  0  0
  2  3  2  0  0  0  0
  3  8  1  0  0  0  0
  4  3  1  0  0  0  0
  5 23  1  0  0  0  0
  5  4  2  0  0  0  0
  6  1  2  0  0  0  0
  6  5  1  0  0  0  0
  7  1  1  0  0  0  0
  9  2  1  0  0  0  0
  9 10  1  0  0  0  0
 10 15  2  0  0  0  0
 10 11  1  0  0  0  0
 11 12  2  0  0  0  0
 12 13  1  0  0  0  0
 12 17  1  0  0  0  0
 13 18  1  0  0  0  0
 14 19  1  0  0  0  0
 14 13  2  0  0  0  0
 15 14  1  0  0  0  0
 16 11  1  0  0  0  0
 19 20  1  0  0  0  0
 19 22  1  0  0  0  0
 21 19  1  0  0  0  0
 23 24  1  0  0  0  0
 24 26  1  0  0  0  0
 24 27  1  0  0  0  0
 25 24  1  0  0  0  0
 27 38  2  0  0  0  0
 27 28  1  0  0  0  0
 28 29  2  0  0  0  0
 29 30  1  0  0  0  0
 31 32  1  0  0  0  0
 31 30  2  0  0  0  0
 33 34  1  0  0  0  0
 33 32  2  0  0  0  0
 35 33  1  0  0  0  0
 36 35  1  0  0  0  0
 37 35  2  0  0  0  0
 37 38  1  0  0  0  0
 38 31  1  0  0  0  0
M  END
>  <minimizedAffinity>
-6.31037521

$$$$

 OpenBabel03262522253D

 38 41  0  0  0  0  0  0  0  0999 V2000
   38.0760   26.2280   34.5350 C   0  0  0  0  0  0  0  0  0  0  0  0
   37.7350   25.0920   33.7840 C   0  0  0  0  0  0  0  0  0  0  0  0
   36.9360   25.2840   32.6520 C   0  0  0  0  0  0  0  0  0  0  0  0
   36.5560   26.5470   32.3670 N   0  0  0  0  0  0  0  0  0  0  0  0
   36.9080   27.5890   33.1130 C   0  0  0  0  0  0  0  0  0  0  0  0
   37.6900   27.4610   34.2350 N   0  0  0  0  0  0  0  0  0  0  0  0
   38.6980   26.2000   35.4430 H   0  0  0  0  0  0  0  0  0  0  0  0
   36.6940   24.3930   32.0990 H   0  0  0  0  0  0  0  0  0  0  0  0
   38.2230   23.9050   34.2430 O   0  0  0  0  0  0  0  0  0  0  0  0
   38.3850   23.7550   35.6240 C   0  0  0  0  0  0  0  0  0  0  0  0
   37.5670   24.2500   36.6270 C   0  0  0  0  0  0  0  0  0  0  0  0
   37.8640   24.0150   37.9160 C   0  0  0  0  0  0  0  0  0  0  0  0
   38.9950   23.2770   38.2100 C   0  0  0  0  0  0  0  0  0  0  0  0
   39.8100   22.7850   37.1900 C   0  0  0  0  0  0  0  0  0  0  0  0
   39.4750   23.0440   35.9050 N   0  0  0  0  0  0  0  0  0  0  0  0
   36.7150   24.8110   36.2260 H   0  0  0  0  0  0  0  0  0  0  0  0
   37.2040   24.4160   38.6570 H   0  0  0  0  0  0  0  0  0  0  0  0
   39.2240   23.0950   39.2520 H   0  0  0  0  0  0  0  0  0  0  0  0
   41.0390   21.9810   37.5530 C   0  0  0  0  0  0  0  0  0  0  0  0
   40.8320   21.3130   38.4110 H   0  0  0  0  0  0  0  0  0  0  0  0
   41.3500   21.4410   36.6430 H   0  0  0  0  0  0  0  0  0  0  0  0
   41.7990   22.7310   37.8560 H   0  0  0  0  0  0  0  0  0  0  0  0
   36.1880   29.1020   32.3840 S   0  0  0  0  0  0  0  0  0  0  0  0
   34.6090   29.3180   33.3050 C   0  0  0  0  0  0  0  0  0  0  0  0
   33.9540   29.8750   32.5880 H   0  0  0  0  0  0  0  0  0  0  0  0
   34.1120   28.3600   33.5060 H   0  0  0  0  0  0  0  0  0  0  0  0
   34.7850   30.1940   34.4730 C   0  0  0  0  0  0  0  0  0  0  0  0
   35.9230   30.7990   34.8570 N   0  0  0  0  0  0  0  0  0  0  0  0
   35.9480   31.5910   35.9690 C   0  0  0  0  0  3  0  0  0  0  0  0
   34.8340   31.7810   36.7040 N   0  0  0  0  0  0  0  0  0  0  0  0
   33.6780   31.1920   36.3480 C   0  0  0  0  0  0  0  0  0  0  0  0
   32.5070   31.3710   37.0920 C   0  0  0  0  0  3  0  0  0  0  0  0
   31.3220   30.7700   36.7340 C   0  0  0  0  0  0  0  0  0  0  0  0
   30.3930   30.8890   37.2900 H   0  0  0  0  0  0  0  0  0  0  0  0
   31.2620   29.9630   35.6150 C   0  0  0  0  0  0  0  0  0  0  0  0
   30.3490   29.4660   35.2910 H   0  0  0  0  0  0  0  0  0  0  0  0
   32.4180   29.8040   34.9070 C   0  0  0  0  0  3  0  0  0  0  0  0
   33.6340   30.3800   35.2170 C   0  0  0  0  0  0  0  0  0  0  0  0
  1  7  1  0  0  0  0
  2  9  1  0  0  0  0
  2  1  2  0  0  0  0
  3  2  1  0  0  0  0
  4  3  2  0  0  0  0
  4  5  1  0  0  0  0
  5  6  2  0  0  0  0
  6  1  1  0  0  0  0
  8  3  1  0  0  0  0
  9 10  1  0  0  0  0
 10 15  2  0  0  0  0
 10 11  1  0  0  0  0
 11 12  2  0  0  0  0
 12 13  1  0  0  0  0
 12 17  1  0  0  0  0
 13 18  1  0  0  0  0
 14 19  1  0  0  0  0
 14 13  2  0  0  0  0
 15 14  1  0  0  0  0
 16 11  1  0  0  0  0
 19 22  1  0  0  0  0
 19 20  1  0  0  0  0
 21 19  1  0  0  0  0
 23  5  1  0  0  0  0
 23 24  1  0  0  0  0
 24 26  1  0  0  0  0
 24 27  1  0  0  0  0
 25 24  1  0  0  0  0
 27 28  2  0  0  0  0
 27 38  1  0  0  0  0
 28 29  1  0  0  0  0
 29 30  2  0  0  0  0
 31 30  1  0  0  0  0
 31 32  1  0  0  0  0
 33 32  2  0  0  0  0
 33 34  1  0  0  0  0
 35 33  1  0  0  0  0
 36 35  1  0  0  0  0
 37 38  1  0  0  0  0
 37 35  2  0  0  0  0
 38 31  2  0  0  0  0
M  END
>  <minimizedAffinity>
-6.20287704

$$$$

 OpenBabel03262522253D

 38 41  0  0  0  0  0  0  0  0999 V2000
   37.1450   25.0980   32.6290 C   0  0  0  0  0  0  0  0  0  0  0  0
   38.2150   25.4180   33.4800 C   0  0  0  0  0  0  0  0  0  0  0  0
   38.4550   26.7720   33.7350 C   0  0  0  0  0  0  0  0  0  0  0  0
   37.6370   27.6690   33.1430 N   0  0  0  0  0  0  0  0  0  0  0  0
   36.6360   27.3120   32.3450 C   0  0  0  0  0  0  0  0  0  0  0  0
   36.3550   25.9990   32.0600 N   0  0  0  0  0  0  0  0  0  0  0  0
   36.8620   24.0700   32.3570 H   0  0  0  0  0  0  0  0  0  0  0  0
   39.2820   26.9810   34.3910 H   0  0  0  0  0  0  0  0  0  0  0  0
   38.9190   24.3610   33.9750 O   0  0  0  0  0  0  0  0  0  0  0  0
   38.8100   24.0830   35.3410 C   0  0  0  0  0  0  0  0  0  0  0  0
   37.8570   24.5640   36.2250 C   0  0  0  0  0  0  0  0  0  0  0  0
   37.8910   24.1990   37.5170 C   0  0  0  0  0  0  0  0  0  0  0  0
   38.8920   23.3420   37.9360 C   0  0  0  0  0  0  0  0  0  0  0  0
   39.8450   22.8660   37.0350 C   0  0  0  0  0  0  0  0  0  0  0  0
   39.7750   23.2580   35.7420 N   0  0  0  0  0  0  0  0  0  0  0  0
   37.1380   25.2290   35.7330 H   0  0  0  0  0  0  0  0  0  0  0  0
   37.1350   24.5940   38.1630 H   0  0  0  0  0  0  0  0  0  0  0  0
   38.9080   23.0550   38.9790 H   0  0  0  0  0  0  0  0  0  0  0  0
   40.9240   21.9290   37.5330 C   0  0  0  0  0  0  0  0  0  0  0  0
   40.5130   21.2130   38.2700 H   0  0  0  0  0  0  0  0  0  0  0  0
   41.3590   21.4410   36.6450 H   0  0  0  0  0  0  0  0  0  0  0  0
   41.6660   22.5820   38.0380 H   0  0  0  0  0  0  0  0  0  0  0  0
   35.7870   28.8210   31.7600 S   0  0  0  0  0  0  0  0  0  0  0  0
   35.6650   29.8640   33.2710 C   0  0  0  0  0  0  0  0  0  0  0  0
   36.3080   29.3320   34.0170 H   0  0  0  0  0  0  0  0  0  0  0  0
   36.1080   30.8580   33.1250 H   0  0  0  0  0  0  0  0  0  0  0  0
   34.2990   29.8570   33.8170 C   0  0  0  0  0  0  0  0  0  0  0  0
   33.2340   29.2160   33.3050 N   0  0  0  0  0  0  0  0  0  0  0  0
   32.0160   29.2950   33.9180 C   0  0  0  0  0  3  0  0  0  0  0  0
   31.8570   30.0150   35.0450 N   0  0  0  0  0  0  0  0  0  0  0  0
   32.9020   30.6680   35.5860 C   0  0  0  0  0  0  0  0  0  0  0  0
   32.7670   31.4230   36.7550 C   0  0  0  0  0  3  0  0  0  0  0  0
   33.8310   32.0940   37.3130 C   0  0  0  0  0  0  0  0  0  0  0  0
   33.7590   32.6900   38.2210 H   0  0  0  0  0  0  0  0  0  0  0  0
   35.0770   32.0360   36.7190 C   0  0  0  0  0  0  0  0  0  0  0  0
   35.9490   32.5480   37.1210 H   0  0  0  0  0  0  0  0  0  0  0  0
   35.1820   31.2930   35.5790 C   0  0  0  0  0  3  0  0  0  0  0  0
   34.1520   30.6000   34.9750 C   0  0  0  0  0  0  0  0  0  0  0  0
  1  2  1  0  0  0  0
  2  3  2  0  0  0  0
  2  9  1  0  0  0  0
  3  8  1  0  0  0  0
  4  3  1  0  0  0  0
  5  4  2  0  0  0  0
  6  5  1  0  0  0  0
  6  1  2  0  0  0  0
  7  1  1  0  0  0  0
  9 10  1  0  0  0  0
 10 15  2  0  0  0  0
 10 11  1  0  0  0  0
 11 12  2  0  0  0  0
 12 13  1  0  0  0  0
 12 17  1  0  0  0  0
 13 18  1  0  0  0  0
 14 19  1  0  0  0  0
 14 13  2  0  0  0  0
 15 14  1  0  0  0  0
 16 11  1  0  0  0  0
 19 22  1  0  0  0  0
 19 20  1  0  0  0  0
 21 19  1  0  0  0  0
 23  5  1  0  0  0  0
 23 24  1  0  0  0  0
 24 27  1  0  0  0  0
 24 25  1  0  0  0  0
 26 24  1  0  0  0  0
 27 38  1  0  0  0  0
 28 27  2  0  0  0  0
 28 29  1  0  0  0  0
 29 30  2  0  0  0  0
 30 31  1  0  0  0  0
 31 32  1  0  0  0  0
 32 33  2  0  0  0  0
 33 34  1  0  0  0  0
 35 36  1  0  0  0  0
 35 33  1  0  0  0  0
 37 35  2  0  0  0  0
 38 37  1  0  0  0  0
 38 31  2  0  0  0  0
M  END
>  <minimizedAffinity>
-6.18079424

$$$$

 OpenBabel03262522253D

 38 41  0  0  0  0  0  0  0  0999 V2000
   37.8770   25.2800   30.8550 C   0  0  0  0  0  0  0  0  0  0  0  0
   36.7540   24.4390   30.9170 C   0  0  0  0  0  0  0  0  0  0  0  0
   35.5050   25.0410   31.0970 C   0  0  0  0  0  0  0  0  0  0  0  0
   35.4740   26.3870   31.1960 N   0  0  0  0  0  0  0  0  0  0  0  0
   36.5690   27.1380   31.1300 C   0  0  0  0  0  0  0  0  0  0  0  0
   37.8200   26.6010   30.9550 N   0  0  0  0  0  0  0  0  0  0  0  0
   38.9080   24.9200   30.7160 H   0  0  0  0  0  0  0  0  0  0  0  0
   34.6670   24.3680   31.1400 H   0  0  0  0  0  0  0  0  0  0  0  0
   37.0030   23.1040   30.7950 O   0  0  0  0  0  0  0  0  0  0  0  0
   36.4770   22.2480   31.7690 C   0  0  0  0  0  0  0  0  0  0  0  0
   35.4240   21.3590   31.6280 C   0  0  0  0  0  0  0  0  0  0  0  0
   35.0380   20.6020   32.6690 C   0  0  0  0  0  0  0  0  0  0  0  0
   35.7110   20.7340   33.8690 C   0  0  0  0  0  0  0  0  0  0  0  0
   36.7700   21.6340   33.9960 C   0  0  0  0  0  0  0  0  0  0  0  0
   37.1280   22.3780   32.9230 N   0  0  0  0  0  0  0  0  0  0  0  0
   35.0010   21.3770   30.6170 H   0  0  0  0  0  0  0  0  0  0  0  0
   34.2200   19.9290   32.5150 H   0  0  0  0  0  0  0  0  0  0  0  0
   35.3910   20.1190   34.6990 H   0  0  0  0  0  0  0  0  0  0  0  0
   37.4820   21.7490   35.3260 C   0  0  0  0  0  0  0  0  0  0  0  0
   37.5950   20.7540   35.7980 H   0  0  0  0  0  0  0  0  0  0  0  0
   38.4440   22.2530   35.1320 H   0  0  0  0  0  0  0  0  0  0  0  0
   36.8190   22.3750   35.9580 H   0  0  0  0  0  0  0  0  0  0  0  0
   36.0870   28.8920   31.3090 S   0  0  0  0  0  0  0  0  0  0  0  0
   36.0130   29.1380   33.1310 C   0  0  0  0  0  0  0  0  0  0  0  0
   36.2430   28.1250   33.5490 H   0  0  0  0  0  0  0  0  0  0  0  0
   36.8000   29.8130   33.4910 H   0  0  0  0  0  0  0  0  0  0  0  0
   34.6490   29.4700   33.5710 C   0  0  0  0  0  0  0  0  0  0  0  0
   33.5020   29.0090   33.0430 N   0  0  0  0  0  0  0  0  0  0  0  0
   32.2960   29.4020   33.5520 C   0  0  0  0  0  3  0  0  0  0  0  0
   32.2330   30.2570   34.5910 N   0  0  0  0  0  0  0  0  0  0  0  0
   33.3620   30.7370   35.1450 C   0  0  0  0  0  0  0  0  0  0  0  0
   33.3260   31.6260   36.2240 C   0  0  0  0  0  3  0  0  0  0  0  0
   34.4760   32.1210   36.7940 C   0  0  0  0  0  0  0  0  0  0  0  0
   34.4830   32.8140   37.6340 H   0  0  0  0  0  0  0  0  0  0  0  0
   35.7110   31.7450   36.3040 C   0  0  0  0  0  0  0  0  0  0  0  0
   36.6500   32.1090   36.7200 H   0  0  0  0  0  0  0  0  0  0  0  0
   35.7190   30.8780   35.2510 C   0  0  0  0  0  3  0  0  0  0  0  0
   34.6000   30.3490   34.6390 C   0  0  0  0  0  0  0  0  0  0  0  0
  1  2  2  0  0  0  0
  1  6  1  0  0  0  0
  2  3  1  0  0  0  0
  3  8  1  0  0  0  0
  3  4  2  0  0  0  0
  5  4  1  0  0  0  0
  5 23  1  0  0  0  0
  6  5  2  0  0  0  0
  7  1  1  0  0  0  0
  9  2  1  0  0  0  0
  9 10  1  0  0  0  0
 10 15  1  0  0  0  0
 11 10  2  0  0  0  0
 11 12  1  0  0  0  0
 12 13  2  0  0  0  0
 13 14  1  0  0  0  0
 13 18  1  0  0  0  0
 14 19  1  0  0  0  0
 15 14  2  0  0  0  0
 16 11  1  0  0  0  0
 17 12  1  0  0  0  0
 19 20  1  0  0  0  0
 19 22  1  0  0  0  0
 21 19  1  0  0  0  0
 23 24  1  0  0  0  0
 24 26  1  0  0  0  0
 24 25  1  0  0  0  0
 24 27  1  0  0  0  0
 27 38  1  0  0  0  0
 28 29  1  0  0  0  0
 28 27  2  0  0  0  0
 29 30  2  0  0  0  0
 30 31  1  0  0  0  0
 31 32  1  0  0  0  0
 32 33  2  0  0  0  0
 33 34  1  0  0  0  0
 35 36  1  0  0  0  0
 35 33  1  0  0  0  0
 37 35  2  0  0  0  0
 38 31  2  0  0  0  0
 38 37  1  0  0  0  0
M  END
>  <minimizedAffinity>
-6.14478588

$$$$

 OpenBabel03262522253D

 38 41  0  0  0  0  0  0  0  0999 V2000
   36.3960   29.1240   31.9100 C   0  0  0  0  0  0  0  0  0  0  0  0
   35.8060   29.2750   33.1750 C   0  0  0  0  0  0  0  0  0  0  0  0
   36.1620   28.3560   34.1670 C   0  0  0  0  0  0  0  0  0  0  0  0
   37.0480   27.3930   33.8320 N   0  0  0  0  0  0  0  0  0  0  0  0
   37.5780   27.2960   32.6170 C   0  0  0  0  0  0  0  0  0  0  0  0
   37.2650   28.1690   31.6050 N   0  0  0  0  0  0  0  0  0  0  0  0
   36.1930   29.7860   31.0540 H   0  0  0  0  0  0  0  0  0  0  0  0
   35.6920   28.5010   35.1240 H   0  0  0  0  0  0  0  0  0  0  0  0
   34.9350   30.3150   33.3060 O   0  0  0  0  0  0  0  0  0  0  0  0
   34.9490   31.0340   34.5060 C   0  0  0  0  0  0  0  0  0  0  0  0
   35.9210   31.9180   34.9470 C   0  0  0  0  0  0  0  0  0  0  0  0
   35.7840   32.5320   36.1340 C   0  0  0  0  0  0  0  0  0  0  0  0
   34.6620   32.2600   36.8940 C   0  0  0  0  0  0  0  0  0  0  0  0
   33.6910   31.3670   36.4370 C   0  0  0  0  0  0  0  0  0  0  0  0
   33.8670   30.7700   35.2360 N   0  0  0  0  0  0  0  0  0  0  0  0
   36.7420   32.0210   34.2280 H   0  0  0  0  0  0  0  0  0  0  0  0
   36.5590   33.2070   36.4340 H   0  0  0  0  0  0  0  0  0  0  0  0
   34.5630   32.7610   37.8470 H   0  0  0  0  0  0  0  0  0  0  0  0
   32.4770   31.0970   37.2980 C   0  0  0  0  0  0  0  0  0  0  0  0
   32.1290   32.0260   37.7890 H   0  0  0  0  0  0  0  0  0  0  0  0
   31.7170   30.6360   36.6450 H   0  0  0  0  0  0  0  0  0  0  0  0
   32.8240   30.3870   38.0770 H   0  0  0  0  0  0  0  0  0  0  0  0
   38.7170   25.8670   32.5880 S   0  0  0  0  0  0  0  0  0  0  0  0
   38.0330   24.7410   33.8730 C   0  0  0  0  0  0  0  0  0  0  0  0
   37.6910   25.4340   34.6830 H   0  0  0  0  0  0  0  0  0  0  0  0
   37.1440   24.2020   33.5220 H   0  0  0  0  0  0  0  0  0  0  0  0
   39.0870   23.9000   34.4630 C   0  0  0  0  0  0  0  0  0  0  0  0
   40.0880   23.2890   33.8050 N   0  0  0  0  0  0  0  0  0  0  0  0
   41.0030   22.5330   34.4800 C   0  0  0  0  0  3  0  0  0  0  0  0
   40.9220   22.3850   35.8170 N   0  0  0  0  0  0  0  0  0  0  0  0
   39.9330   22.9830   36.5070 C   0  0  0  0  0  0  0  0  0  0  0  0
   39.8240   22.8450   37.8950 C   0  0  0  0  0  3  0  0  0  0  0  0
   38.8160   23.4530   38.6070 C   0  0  0  0  0  0  0  0  0  0  0  0
   38.7020   23.3670   39.6860 H   0  0  0  0  0  0  0  0  0  0  0  0
   37.8730   24.2250   37.9550 C   0  0  0  0  0  0  0  0  0  0  0  0
   37.0570   24.7260   38.4730 H   0  0  0  0  0  0  0  0  0  0  0  0
   38.0020   24.3420   36.6020 C   0  0  0  0  0  3  0  0  0  0  0  0
   38.9900   23.7570   35.8360 C   0  0  0  0  0  0  0  0  0  0  0  0
  1  2  1  0  0  0  0
  2  9  1  0  0  0  0
  2  3  2  0  0  0  0
  3  8  1  0  0  0  0
  4  3  1  0  0  0  0
  5  4  2  0  0  0  0
  6  1  2  0  0  0  0
  6  5  1  0  0  0  0
  7  1  1  0  0  0  0
  9 10  1  0  0  0  0
 10 11  2  0  0  0  0
 10 15  1  0  0  0  0
 11 12  1  0  0  0  0
 12 17  1  0  0  0  0
 12 13  2  0  0  0  0
 13 18  1  0  0  0  0
 14 13  1  0  0  0  0
 14 19  1  0  0  0  0
 15 14  2  0  0  0  0
 16 11  1  0  0  0  0
 19 20  1  0  0  0  0
 19 22  1  0  0  0  0
 21 19  1  0  0  0  0
 23  5  1  0  0  0  0
 23 24  1  0  0  0  0
 24 27  1  0  0  0  0
 24 25  1  0  0  0  0
 26 24  1  0  0  0  0
 27 38  1  0  0  0  0
 28 27  2  0  0  0  0
 28 29  1  0  0  0  0
 29 30  2  0  0  0  0
 30 31  1  0  0  0  0
 31 32  1  0  0  0  0
 32 33  2  0  0  0  0
 33 34  1  0  0  0  0
 35 36  1  0  0  0  0
 35 33  1  0  0  0  0
 37 35  2  0  0  0  0
 38 31  2  0  0  0  0
 38 37  1  0  0  0  0
M  END
>  <minimizedAffinity>
-6.1374855

$$$$

 OpenBabel03262522253D

 38 41  0  0  0  0  0  0  0  0999 V2000
   35.7610   27.6850   32.0170 C   0  0  0  0  0  0  0  0  0  0  0  0
   35.8410   28.4910   33.1640 C   0  0  0  0  0  0  0  0  0  0  0  0
   36.5610   27.9930   34.2540 C   0  0  0  0  0  0  0  0  0  0  0  0
   37.1270   26.7740   34.1190 N   0  0  0  0  0  0  0  0  0  0  0  0
   37.0210   26.0520   33.0090 C   0  0  0  0  0  0  0  0  0  0  0  0
   36.3260   26.4900   31.9090 N   0  0  0  0  0  0  0  0  0  0  0  0
   35.2220   27.9710   31.1010 H   0  0  0  0  0  0  0  0  0  0  0  0
   36.6020   28.6360   35.1160 H   0  0  0  0  0  0  0  0  0  0  0  0
   35.1970   29.6910   33.0950 O   0  0  0  0  0  0  0  0  0  0  0  0
   34.3330   30.0320   34.1410 C   0  0  0  0  0  0  0  0  0  0  0  0
   33.0580   29.5410   34.3740 C   0  0  0  0  0  0  0  0  0  0  0  0
   32.3530   29.9750   35.4320 C   0  0  0  0  0  0  0  0  0  0  0  0
   32.9270   30.9120   36.2700 C   0  0  0  0  0  0  0  0  0  0  0  0
   34.2120   31.3980   36.0230 C   0  0  0  0  0  0  0  0  0  0  0  0
   34.8880   30.9350   34.9460 N   0  0  0  0  0  0  0  0  0  0  0  0
   32.7550   28.8080   33.6190 H   0  0  0  0  0  0  0  0  0  0  0  0
   31.3730   29.5680   35.5730 H   0  0  0  0  0  0  0  0  0  0  0  0
   32.3490   31.2530   37.1180 H   0  0  0  0  0  0  0  0  0  0  0  0
   34.8040   32.4230   36.9630 C   0  0  0  0  0  0  0  0  0  0  0  0
   34.5360   32.1950   38.0130 H   0  0  0  0  0  0  0  0  0  0  0  0
   35.8920   32.4340   36.7830 H   0  0  0  0  0  0  0  0  0  0  0  0
   34.3380   33.3880   36.6740 H   0  0  0  0  0  0  0  0  0  0  0  0
   37.9240   24.4810   33.2440 S   0  0  0  0  0  0  0  0  0  0  0  0
   39.3060   24.9390   34.3710 C   0  0  0  0  0  0  0  0  0  0  0  0
   40.2000   24.4420   33.9140 H   0  0  0  0  0  0  0  0  0  0  0  0
   39.5060   26.0180   34.3630 H   0  0  0  0  0  0  0  0  0  0  0  0
   39.1320   24.3400   35.7030 C   0  0  0  0  0  0  0  0  0  0  0  0
   38.1510   24.6100   36.5820 N   0  0  0  0  0  0  0  0  0  0  0  0
   38.1090   23.9780   37.7910 C   0  0  0  0  0  3  0  0  0  0  0  0
   39.0470   23.0710   38.1280 N   0  0  0  0  0  0  0  0  0  0  0  0
   40.0420   22.7750   37.2710 C   0  0  0  0  0  0  0  0  0  0  0  0
   41.0300   21.8390   37.5940 C   0  0  0  0  0  3  0  0  0  0  0  0
   42.0510   21.5320   36.7240 C   0  0  0  0  0  0  0  0  0  0  0  0
   42.8340   20.8090   36.9440 H   0  0  0  0  0  0  0  0  0  0  0  0
   42.1240   22.1540   35.4930 C   0  0  0  0  0  0  0  0  0  0  0  0
   42.9110   21.9460   34.7690 H   0  0  0  0  0  0  0  0  0  0  0  0
   41.1490   23.0630   35.2020 C   0  0  0  0  0  3  0  0  0  0  0  0
   40.1030   23.4110   36.0340 C   0  0  0  0  0  0  0  0  0  0  0  0
  1  2  1  0  0  0  0
  2  3  2  0  0  0  0
  3  8  1  0  0  0  0
  4  3  1  0  0  0  0
  5 23  1  0  0  0  0
  5  4  2  0  0  0  0
  6  1  2  0  0  0  0
  6  5  1  0  0  0  0
  7  1  1  0  0  0  0
  9  2  1  0  0  0  0
  9 10  1  0  0  0  0
 10 11  2  0  0  0  0
 10 15  1  0  0  0  0
 11 12  1  0  0  0  0
 12 17  1  0  0  0  0
 12 13  2  0  0  0  0
 13 18  1  0  0  0  0
 14 13  1  0  0  0  0
 14 19  1  0  0  0  0
 15 14  2  0  0  0  0
 16 11  1  0  0  0  0
 19 20  1  0  0  0  0
 21 19  1  0  0  0  0
 22 19  1  0  0  0  0
 23 24  1  0  0  0  0
 24 27  1  0  0  0  0
 25 24  1  0  0  0  0
 26 24  1  0  0  0  0
 27 38  2  0  0  0  0
 27 28  1  0  0  0  0
 28 29  2  0  0  0  0
 29 30  1  0  0  0  0
 31 32  1  0  0  0  0
 31 30  2  0  0  0  0
 33 34  1  0  0  0  0
 33 32  2  0  0  0  0
 35 33  1  0  0  0  0
 36 35  1  0  0  0  0
 37 35  2  0  0  0  0
 37 38  1  0  0  0  0
 38 31  1  0  0  0  0
M  END
>  <minimizedAffinity>
-5.94353056

$$$$

 OpenBabel03262522253D

 38 41  0  0  0  0  0  0  0  0999 V2000
   36.3440   24.3680   31.5000 C   0  0  0  0  0  0  0  0  0  0  0  0
   37.2110   24.2330   32.5960 C   0  0  0  0  0  0  0  0  0  0  0  0
   37.6370   25.4030   33.2310 C   0  0  0  0  0  0  0  0  0  0  0  0
   37.1790   26.5760   32.7430 N   0  0  0  0  0  0  0  0  0  0  0  0
   36.3570   26.6480   31.7010 C   0  0  0  0  0  0  0  0  0  0  0  0
   35.9080   25.5330   31.0390 N   0  0  0  0  0  0  0  0  0  0  0  0
   35.9450   23.5200   30.9240 H   0  0  0  0  0  0  0  0  0  0  0  0
   38.3000   25.2630   34.0670 H   0  0  0  0  0  0  0  0  0  0  0  0
   37.5540   22.9560   32.9300 O   0  0  0  0  0  0  0  0  0  0  0  0
   36.8100   21.9110   32.3720 C   0  0  0  0  0  0  0  0  0  0  0  0
   35.5300   21.5090   32.7210 C   0  0  0  0  0  0  0  0  0  0  0  0
   34.9510   20.4790   32.0840 C   0  0  0  0  0  0  0  0  0  0  0  0
   35.6580   19.8380   31.0840 C   0  0  0  0  0  0  0  0  0  0  0  0
   36.9460   20.2530   30.7430 C   0  0  0  0  0  0  0  0  0  0  0  0
   37.4930   21.2960   31.4100 N   0  0  0  0  0  0  0  0  0  0  0  0
   35.1120   22.1210   33.5290 H   0  0  0  0  0  0  0  0  0  0  0  0
   33.9620   20.2030   32.3850 H   0  0  0  0  0  0  0  0  0  0  0  0
   35.1800   19.0090   30.5780 H   0  0  0  0  0  0  0  0  0  0  0  0
   37.6870   19.5250   29.6430 C   0  0  0  0  0  0  0  0  0  0  0  0
   36.9990   19.2580   28.8170 H   0  0  0  0  0  0  0  0  0  0  0  0
   38.5160   20.1800   29.3270 H   0  0  0  0  0  0  0  0  0  0  0  0
   38.0660   18.5940   30.1130 H   0  0  0  0  0  0  0  0  0  0  0  0
   35.9860   28.4070   31.3690 S   0  0  0  0  0  0  0  0  0  0  0  0
   36.0030   29.1770   33.0400 C   0  0  0  0  0  0  0  0  0  0  0  0
   36.3920   28.3660   33.7060 H   0  0  0  0  0  0  0  0  0  0  0  0
   36.7180   30.0080   33.1060 H   0  0  0  0  0  0  0  0  0  0  0  0
   34.6400   29.4800   33.5040 C   0  0  0  0  0  0  0  0  0  0  0  0
   33.4930   29.0170   32.9780 N   0  0  0  0  0  0  0  0  0  0  0  0
   32.2890   29.3800   33.5100 C   0  0  0  0  0  3  0  0  0  0  0  0
   32.2260   30.2080   34.5710 N   0  0  0  0  0  0  0  0  0  0  0  0
   33.3550   30.6890   35.1240 C   0  0  0  0  0  0  0  0  0  0  0  0
   33.3210   31.5500   36.2260 C   0  0  0  0  0  3  0  0  0  0  0  0
   34.4710   32.0460   36.7950 C   0  0  0  0  0  0  0  0  0  0  0  0
   34.4790   32.7170   37.6520 H   0  0  0  0  0  0  0  0  0  0  0  0
   35.7050   31.6990   36.2820 C   0  0  0  0  0  0  0  0  0  0  0  0
   36.6430   32.0640   36.6960 H   0  0  0  0  0  0  0  0  0  0  0  0
   35.7120   30.8580   35.2070 C   0  0  0  0  0  3  0  0  0  0  0  0
   34.5920   30.3300   34.5950 C   0  0  0  0  0  0  0  0  0  0  0  0
  1  2  1  0  0  0  0
  2  9  1  0  0  0  0
  2  3  2  0  0  0  0
  3  8  1  0  0  0  0
  4  3  1  0  0  0  0
  5  4  2  0  0  0  0
  6  1  2  0  0  0  0
  6  5  1  0  0  0  0
  7  1  1  0  0  0  0
 10 11  1  0  0  0  0
 10  9  1  0  0  0  0
 11 16  1  0  0  0  0
 12 17  1  0  0  0  0
 12 11  2  0  0  0  0
 13 12  1  0  0  0  0
 14 13  2  0  0  0  0
 14 15  1  0  0  0  0
 15 10  2  0  0  0  0
 18 13  1  0  0  0  0
 19 22  1  0  0  0  0
 19 14  1  0  0  0  0
 20 19  1  0  0  0  0
 21 19  1  0  0  0  0
 23  5  1  0  0  0  0
 23 24  1  0  0  0  0
 24 26  1  0  0  0  0
 24 27  1  0  0  0  0
 24 25  1  0  0  0  0
 27 38  1  0  0  0  0
 28 27  2  0  0  0  0
 28 29  1  0  0  0  0
 29 30  2  0  0  0  0
 30 31  1  0  0  0  0
 31 32  1  0  0  0  0
 32 33  2  0  0  0  0
 33 34  1  0  0  0  0
 35 36  1  0  0  0  0
 35 33  1  0  0  0  0
 37 35  2  0  0  0  0
 38 31  2  0  0  0  0
 38 37  1  0  0  0  0
M  END
>  <minimizedAffinity>
-5.76796722

$$$$

 OpenBabel03262522253D

 38 41  0  0  0  0  0  0  0  0999 V2000
   37.8650   23.3160   31.4480 C   0  0  0  0  0  0  0  0  0  0  0  0
   36.4950   23.6210   31.4020 C   0  0  0  0  0  0  0  0  0  0  0  0
   36.0910   24.8540   31.9220 C   0  0  0  0  0  0  0  0  0  0  0  0
   37.0500   25.6590   32.4280 N   0  0  0  0  0  0  0  0  0  0  0  0
   38.3350   25.3210   32.4470 C   0  0  0  0  0  0  0  0  0  0  0  0
   38.7890   24.1240   31.9510 N   0  0  0  0  0  0  0  0  0  0  0  0
   38.2980   22.3770   31.0690 H   0  0  0  0  0  0  0  0  0  0  0  0
   35.0350   25.0560   31.8700 H   0  0  0  0  0  0  0  0  0  0  0  0
   35.6910   22.6690   30.8480 O   0  0  0  0  0  0  0  0  0  0  0  0
   35.7050   21.3900   31.4140 C   0  0  0  0  0  0  0  0  0  0  0  0
   35.2970   21.0280   32.6880 C   0  0  0  0  0  0  0  0  0  0  0  0
   35.3760   19.7470   33.0810 C   0  0  0  0  0  0  0  0  0  0  0  0
   35.8700   18.8110   32.1920 C   0  0  0  0  0  0  0  0  0  0  0  0
   36.2780   19.1890   30.9120 C   0  0  0  0  0  0  0  0  0  0  0  0
   36.1820   20.4910   30.5560 N   0  0  0  0  0  0  0  0  0  0  0  0
   34.9330   21.8870   33.2630 H   0  0  0  0  0  0  0  0  0  0  0  0
   35.0490   19.5130   34.0740 H   0  0  0  0  0  0  0  0  0  0  0  0
   35.9280   17.7820   32.5210 H   0  0  0  0  0  0  0  0  0  0  0  0
   36.8120   18.1350   29.9690 C   0  0  0  0  0  0  0  0  0  0  0  0
   36.2380   17.1930   30.0660 H   0  0  0  0  0  0  0  0  0  0  0  0
   36.7770   18.5650   28.9540 H   0  0  0  0  0  0  0  0  0  0  0  0
   37.8580   17.9550   30.2940 H   0  0  0  0  0  0  0  0  0  0  0  0
   39.2870   26.6800   33.2120 S   0  0  0  0  0  0  0  0  0  0  0  0
   40.4350   25.8130   34.3610 C   0  0  0  0  0  0  0  0  0  0  0  0
   40.9690   25.0810   33.7040 H   0  0  0  0  0  0  0  0  0  0  0  0
   41.2000   26.4870   34.7690 H   0  0  0  0  0  0  0  0  0  0  0  0
   39.6980   25.0200   35.3560 C   0  0  0  0  0  0  0  0  0  0  0  0
   38.4460   25.2450   35.7940 N   0  0  0  0  0  0  0  0  0  0  0  0
   37.8800   24.4250   36.7270 C   0  0  0  0  0  3  0  0  0  0  0  0
   38.5610   23.3750   37.2270 N   0  0  0  0  0  0  0  0  0  0  0  0
   39.8150   23.1200   36.8100 C   0  0  0  0  0  0  0  0  0  0  0  0
   40.5460   22.0390   37.3120 C   0  0  0  0  0  3  0  0  0  0  0  0
   41.8290   21.7720   36.8910 C   0  0  0  0  0  0  0  0  0  0  0  0
   42.4240   20.9400   37.2610 H   0  0  0  0  0  0  0  0  0  0  0  0
   42.4320   22.5820   35.9490 C   0  0  0  0  0  0  0  0  0  0  0  0
   43.4440   22.4140   35.5830 H   0  0  0  0  0  0  0  0  0  0  0  0
   41.6980   23.6300   35.4760 C   0  0  0  0  0  3  0  0  0  0  0  0
   40.4100   23.9460   35.8600 C   0  0  0  0  0  0  0  0  0  0  0  0
  1  6  1  0  0  0  0
  2  1  2  0  0  0  0
  2  3  1  0  0  0  0
  3  4  2  0  0  0  0
  4  5  1  0  0  0  0
  5 23  1  0  0  0  0
  6  5  2  0  0  0  0
  7  1  1  0  0  0  0
  8  3  1  0  0  0  0
  9  2  1  0  0  0  0
  9 10  1  0  0  0  0
 10 11  1  0  0  0  0
 11 12  2  0  0  0  0
 11 16  1  0  0  0  0
 12 17  1  0  0  0  0
 13 18  1  0  0  0  0
 13 12  1  0  0  0  0
 14 13  2  0  0  0  0
 15 14  1  0  0  0  0
 15 10  2  0  0  0  0
 19 20  1  0  0  0  0
 19 22  1  0  0  0  0
 19 14  1  0  0  0  0
 21 19  1  0  0  0  0
 23 24  1  0  0  0  0
 24 26  1  0  0  0  0
 24 27  1  0  0  0  0
 25 24  1  0  0  0  0
 27 28  2  0  0  0  0
 27 38  1  0  0  0  0
 28 29  1  0  0  0  0
 29 30  2  0  0  0  0
 31 30  1  0  0  0  0
 31 32  1  0  0  0  0
 33 34  1  0  0  0  0
 33 32  2  0  0  0  0
 35 33  1  0  0  0  0
 36 35  1  0  0  0  0
 37 38  1  0  0  0  0
 37 35  2  0  0  0  0
 38 31  2  0  0  0  0
M  END
>  <minimizedAffinity>
-5.69664574

$$$$

 OpenBabel03262522253D

 38 41  0  0  0  0  0  0  0  0999 V2000
   38.1910   23.4300   32.2800 C   0  0  0  0  0  0  0  0  0  0  0  0
   37.9700   23.7480   33.6290 C   0  0  0  0  0  0  0  0  0  0  0  0
   37.8990   25.1020   33.9700 C   0  0  0  0  0  0  0  0  0  0  0  0
   38.0470   26.0010   32.9740 N   0  0  0  0  0  0  0  0  0  0  0  0
   38.2550   25.6460   31.7100 C   0  0  0  0  0  0  0  0  0  0  0  0
   38.3340   24.3330   31.3180 N   0  0  0  0  0  0  0  0  0  0  0  0
   38.2660   22.4010   31.8950 H   0  0  0  0  0  0  0  0  0  0  0  0
   37.7280   25.3100   35.0120 H   0  0  0  0  0  0  0  0  0  0  0  0
   37.8470   22.6880   34.4780 O   0  0  0  0  0  0  0  0  0  0  0  0
   38.4050   22.8050   35.7560 C   0  0  0  0  0  0  0  0  0  0  0  0
   37.8210   23.3640   36.8820 C   0  0  0  0  0  0  0  0  0  0  0  0
   38.4960   23.3990   38.0420 C   0  0  0  0  0  0  0  0  0  0  0  0
   39.7720   22.8690   38.0820 C   0  0  0  0  0  0  0  0  0  0  0  0
   40.3480   22.3100   36.9410 C   0  0  0  0  0  0  0  0  0  0  0  0
   39.6340   22.2950   35.7910 N   0  0  0  0  0  0  0  0  0  0  0  0
   36.8100   23.7360   36.6800 H   0  0  0  0  0  0  0  0  0  0  0  0
   38.0060   23.8390   38.8860 H   0  0  0  0  0  0  0  0  0  0  0  0
   40.3050   22.9040   39.0230 H   0  0  0  0  0  0  0  0  0  0  0  0
   41.7460   21.7410   37.0250 C   0  0  0  0  0  0  0  0  0  0  0  0
   41.8980   21.2140   37.9870 H   0  0  0  0  0  0  0  0  0  0  0  0
   41.8820   21.0910   36.1440 H   0  0  0  0  0  0  0  0  0  0  0  0
   42.4220   22.6200   36.9860 H   0  0  0  0  0  0  0  0  0  0  0  0
   38.4000   27.1570   30.6930 S   0  0  0  0  0  0  0  0  0  0  0  0
   36.6630   27.7470   30.5420 C   0  0  0  0  0  0  0  0  0  0  0  0
   36.3880   27.5020   29.4850 H   0  0  0  0  0  0  0  0  0  0  0  0
   35.9760   27.1830   31.1860 H   0  0  0  0  0  0  0  0  0  0  0  0
   36.5820   29.2110   30.6630 C   0  0  0  0  0  0  0  0  0  0  0  0
   36.8500   30.1120   29.7020 N   0  0  0  0  0  0  0  0  0  0  0  0
   36.7340   31.4490   29.9510 C   0  0  0  0  0  3  0  0  0  0  0  0
   36.3500   31.8930   31.1640 N   0  0  0  0  0  0  0  0  0  0  0  0
   36.0730   31.0190   32.1490 C   0  0  0  0  0  0  0  0  0  0  0  0
   35.6720   31.4510   33.4180 C   0  0  0  0  0  3  0  0  0  0  0  0
   35.3880   30.5630   34.4300 C   0  0  0  0  0  0  0  0  0  0  0  0
   35.0740   30.8660   35.4270 H   0  0  0  0  0  0  0  0  0  0  0  0
   35.4950   29.2030   34.2120 C   0  0  0  0  0  0  0  0  0  0  0  0
   35.2820   28.4610   34.9790 H   0  0  0  0  0  0  0  0  0  0  0  0
   35.8880   28.8080   32.9660 C   0  0  0  0  0  3  0  0  0  0  0  0
   36.1860   29.6510   31.9140 C   0  0  0  0  0  0  0  0  0  0  0  0
  1  2  1  0  0  0  0
  2  3  2  0  0  0  0
  2  9  1  0  0  0  0
  3  8  1  0  0  0  0
  4  3  1  0  0  0  0
  5  4  2  0  0  0  0
  6  5  1  0  0  0  0
  6  1  2  0  0  0  0
  7  1  1  0  0  0  0
  9 10  1  0  0  0  0
 10 15  2  0  0  0  0
 10 11  1  0  0  0  0
 11 12  2  0  0  0  0
 12 13  1  0  0  0  0
 12 17  1  0  0  0  0
 13 18  1  0  0  0  0
 14 19  1  0  0  0  0
 14 13  2  0  0  0  0
 15 14  1  0  0  0  0
 16 11  1  0  0  0  0
 19 20  1  0  0  0  0
 21 19  1  0  0  0  0
 22 19  1  0  0  0  0
 23  5  1  0  0  0  0
 24 27  1  0  0  0  0
 24 23  1  0  0  0  0
 24 26  1  0  0  0  0
 25 24  1  0  0  0  0
 27 38  1  0  0  0  0
 28 29  1  0  0  0  0
 28 27  2  0  0  0  0
 29 30  2  0  0  0  0
 30 31  1  0  0  0  0
 31 32  1  0  0  0  0
 32 33  2  0  0  0  0
 33 34  1  0  0  0  0
 35 33  1  0  0  0  0
 35 36  1  0  0  0  0
 37 35  2  0  0  0  0
 38 31  2  0  0  0  0
 38 37  1  0  0  0  0
M  END
>  <minimizedAffinity>
-5.61610222

$$$$
