
 OpenBabel03272508193D

 34 37  0  0  0  0  0  0  0  0999 V2000
   36.2470   28.9110   32.9410 C   0  0  0  0  0  0  0  0  0  0  0  0
   36.6070   29.4590   32.0470 H   0  0  0  0  0  0  0  0  0  0  0  0
   36.9770   29.2170   33.7650 H   0  0  0  0  0  0  0  0  0  0  0  0
   37.1780   26.6850   33.6500 C   0  0  0  0  0  0  0  0  0  0  0  0
   36.4580   27.4850   32.7560 C   0  0  0  0  0  0  0  0  0  0  0  0
   36.0010   26.8220   31.6260 C   0  0  0  0  0  0  0  0  0  0  0  0
   36.2490   25.5080   31.4320 N   0  0  0  0  0  0  0  0  0  0  0  0
   36.9490   24.7630   32.3140 C   0  0  0  0  0  0  0  0  0  0  0  0
   37.4150   25.3560   33.4250 N   0  0  0  0  0  0  0  0  0  0  0  0
   35.4530   27.2480   30.8100 H   0  0  0  0  0  0  0  0  0  0  0  0
   37.1380   23.7340   32.1500 H   0  0  0  0  0  0  0  0  0  0  0  0
   37.6060   27.3330   34.9480 C   0  0  0  0  0  0  0  0  0  0  0  0
   38.1650   26.5920   36.0150 C   0  0  0  0  0  0  0  0  0  0  0  0
   39.1670   27.2160   35.0630 C   0  0  0  0  0  0  0  0  0  0  0  0
   37.3380   28.4340   35.0580 H   0  0  0  0  0  0  0  0  0  0  0  0
   38.1130   26.9800   37.0540 H   0  0  0  0  0  0  0  0  0  0  0  0
   38.0740   25.4800   36.0100 H   0  0  0  0  0  0  0  0  0  0  0  0
   39.6890   26.5160   34.4210 H   0  0  0  0  0  0  0  0  0  0  0  0
   39.6630   28.1050   35.4820 H   0  0  0  0  0  0  0  0  0  0  0  0
   34.9140   29.4030   33.3230 C   0  0  0  0  0  0  0  0  0  0  0  0
   34.3460   29.8640   32.4890 H   0  0  0  0  0  0  0  0  0  0  0  0
   34.2220   28.5650   33.6540 H   0  0  0  0  0  0  0  0  0  0  0  0
   34.9940   30.2970   34.5030 C   0  0  0  0  0  0  0  0  0  0  0  0
   35.9580   31.0720   35.0110 N   0  0  0  0  0  0  0  0  0  0  0  0
   35.8340   31.8430   36.0850 C   0  0  0  0  0  3  0  0  0  0  0  0
   34.7170   31.9410   36.7990 N   0  0  0  0  0  0  0  0  0  0  0  0
   33.6710   31.1950   36.3730 C   0  0  0  0  0  0  0  0  0  0  0  0
   32.5350   31.2960   37.1300 C   0  0  0  0  0  3  0  0  0  0  0  0
   31.4370   30.5700   36.7930 C   0  0  0  0  0  0  0  0  0  0  0  0
   30.5470   30.6520   37.3870 H   0  0  0  0  0  0  0  0  0  0  0  0
   31.5130   29.7540   35.6910 C   0  0  0  0  0  0  0  0  0  0  0  0
   30.6130   29.1930   35.4590 H   0  0  0  0  0  0  0  0  0  0  0  0
   32.6610   29.6860   34.9680 C   0  0  0  0  0  3  0  0  0  0  0  0
   33.8150   30.3960   35.2520 C   0  0  0  0  0  0  0  0  0  0  0  0
  1 20  1  0  0  0  0
  1  3  1  0  0  0  0
  2  1  1  0  0  0  0
  4 12  1  0  0  0  0
  5  1  1  0  0  0  0
  5  4  2  0  0  0  0
  6  5  1  0  0  0  0
  7  6  2  0  0  0  0
  7  8  1  0  0  0  0
  8  9  2  0  0  0  0
  9  4  1  0  0  0  0
 10  6  1  0  0  0  0
 11  8  1  0  0  0  0
 12 15  1  0  0  0  0
 12 14  1  0  0  0  0
 12 13  1  0  0  0  0
 13 16  1  0  0  0  0
 14 19  1  0  0  0  0
 14 13  1  0  0  0  0
 17 13  1  0  0  0  0
 18 14  1  0  0  0  0
 20 22  1  0  0  0  0
 20 23  1  0  0  0  0
 21 20  1  0  0  0  0
 23 24  2  0  0  0  0
 23 34  1  0  0  0  0
 24 25  1  0  0  0  0
 25 26  2  0  0  0  0
 27 26  1  0  0  0  0
 27 28  1  0  0  0  0
 29 28  2  0  0  0  0
 29 30  1  0  0  0  0
 31 29  1  0  0  0  0
 32 31  1  0  0  0  0
 33 34  1  0  0  0  0
 33 31  2  0  0  0  0
 34 27  2  0  0  0  0
M  END
>  <minimizedAffinity>
-5.41004324

$$$$

 OpenBabel03272508193D

 34 37  0  0  0  0  0  0  0  0999 V2000
   38.2880   23.9500   33.1520 C   0  0  0  0  0  0  0  0  0  0  0  0
   39.0130   23.4870   32.4530 H   0  0  0  0  0  0  0  0  0  0  0  0
   37.8720   23.0650   33.7430 H   0  0  0  0  0  0  0  0  0  0  0  0
   36.1540   23.6710   31.8520 C   0  0  0  0  0  0  0  0  0  0  0  0
   37.1580   24.4740   32.4040 C   0  0  0  0  0  0  0  0  0  0  0  0
   37.0300   25.8290   32.1300 C   0  0  0  0  0  0  0  0  0  0  0  0
   36.0080   26.3030   31.3870 N   0  0  0  0  0  0  0  0  0  0  0  0
   35.0550   25.5020   30.8660 C   0  0  0  0  0  0  0  0  0  0  0  0
   35.1300   24.1820   31.0990 N   0  0  0  0  0  0  0  0  0  0  0  0
   37.6970   26.6100   32.4360 H   0  0  0  0  0  0  0  0  0  0  0  0
   34.2580   25.8860   30.2830 H   0  0  0  0  0  0  0  0  0  0  0  0
   36.1860   22.2020   32.2080 C   0  0  0  0  0  0  0  0  0  0  0  0
   35.3330   21.2550   31.5950 C   0  0  0  0  0  0  0  0  0  0  0  0
   36.7020   21.4050   30.9590 C   0  0  0  0  0  0  0  0  0  0  0  0
   36.8540   21.9250   33.0890 H   0  0  0  0  0  0  0  0  0  0  0  0
   35.0920   20.3010   32.1090 H   0  0  0  0  0  0  0  0  0  0  0  0
   34.4530   21.6160   31.0110 H   0  0  0  0  0  0  0  0  0  0  0  0
   36.7090   21.8930   29.9920 H   0  0  0  0  0  0  0  0  0  0  0  0
   37.3800   20.5700   31.1960 H   0  0  0  0  0  0  0  0  0  0  0  0
   38.9980   24.8230   34.0990 C   0  0  0  0  0  0  0  0  0  0  0  0
   40.0660   24.9890   33.8490 H   0  0  0  0  0  0  0  0  0  0  0  0
   38.5830   25.8800   34.1070 H   0  0  0  0  0  0  0  0  0  0  0  0
   38.8220   24.3520   35.4940 C   0  0  0  0  0  0  0  0  0  0  0  0
   37.8870   24.5590   36.4280 N   0  0  0  0  0  0  0  0  0  0  0  0
   37.8830   24.0170   37.6410 C   0  0  0  0  0  3  0  0  0  0  0  0
   38.8240   23.1890   38.0820 N   0  0  0  0  0  0  0  0  0  0  0  0
   39.8260   22.9090   37.2150 C   0  0  0  0  0  0  0  0  0  0  0  0
   40.7940   22.0680   37.6930 C   0  0  0  0  0  3  0  0  0  0  0  0
   41.8510   21.7430   36.9030 C   0  0  0  0  0  0  0  0  0  0  0  0
   42.6080   21.0830   37.2800 H   0  0  0  0  0  0  0  0  0  0  0  0
   41.9040   22.2790   35.6400 C   0  0  0  0  0  0  0  0  0  0  0  0
   42.7660   21.9930   35.0440 H   0  0  0  0  0  0  0  0  0  0  0  0
   40.9200   23.1090   35.2070 C   0  0  0  0  0  3  0  0  0  0  0  0
   39.8170   23.4810   35.9550 C   0  0  0  0  0  0  0  0  0  0  0  0
  1  3  1  0  0  0  0
  1 20  1  0  0  0  0
  2  1  1  0  0  0  0
  4 12  1  0  0  0  0
  4  5  1  0  0  0  0
  5  1  1  0  0  0  0
  6  5  2  0  0  0  0
  6 10  1  0  0  0  0
  7  6  1  0  0  0  0
  8  9  1  0  0  0  0
  8  7  2  0  0  0  0
  9  4  2  0  0  0  0
 11  8  1  0  0  0  0
 12 15  1  0  0  0  0
 13 16  1  0  0  0  0
 13 12  1  0  0  0  0
 14 19  1  0  0  0  0
 14 13  1  0  0  0  0
 14 12  1  0  0  0  0
 17 13  1  0  0  0  0
 18 14  1  0  0  0  0
 20 22  1  0  0  0  0
 20 23  1  0  0  0  0
 21 20  1  0  0  0  0
 23 34  2  0  0  0  0
 23 24  1  0  0  0  0
 24 25  2  0  0  0  0
 25 26  1  0  0  0  0
 27 28  1  0  0  0  0
 27 26  2  0  0  0  0
 29 30  1  0  0  0  0
 29 28  2  0  0  0  0
 31 29  1  0  0  0  0
 32 31  1  0  0  0  0
 33 31  2  0  0  0  0
 33 34  1  0  0  0  0
 34 27  1  0  0  0  0
M  END
>  <minimizedAffinity>
-5.38779306

$$$$

 OpenBabel03272508193D

 34 37  0  0  0  0  0  0  0  0999 V2000
   36.0100   28.0260   32.2690 C   0  0  0  0  0  0  0  0  0  0  0  0
   35.0300   27.5850   31.9950 H   0  0  0  0  0  0  0  0  0  0  0  0
   36.5960   28.0270   31.2880 H   0  0  0  0  0  0  0  0  0  0  0  0
   37.0750   25.8060   32.7800 C   0  0  0  0  0  0  0  0  0  0  0  0
   36.7290   27.1130   33.1410 C   0  0  0  0  0  0  0  0  0  0  0  0
   37.0720   27.4640   34.4400 C   0  0  0  0  0  0  0  0  0  0  0  0
   37.6900   26.5910   35.2640 N   0  0  0  0  0  0  0  0  0  0  0  0
   38.0090   25.3350   34.8860 C   0  0  0  0  0  0  0  0  0  0  0  0
   37.6990   24.9430   33.6400 N   0  0  0  0  0  0  0  0  0  0  0  0
   36.8800   28.4010   34.9220 H   0  0  0  0  0  0  0  0  0  0  0  0
   38.4930   24.6590   35.5430 H   0  0  0  0  0  0  0  0  0  0  0  0
   36.8190   25.4080   31.3430 C   0  0  0  0  0  0  0  0  0  0  0  0
   36.9180   24.0690   30.9000 C   0  0  0  0  0  0  0  0  0  0  0  0
   35.5270   24.5200   31.3030 C   0  0  0  0  0  0  0  0  0  0  0  0
   36.6630   26.2710   30.6160 H   0  0  0  0  0  0  0  0  0  0  0  0
   37.1110   23.8460   29.8300 H   0  0  0  0  0  0  0  0  0  0  0  0
   37.4240   23.3170   31.5520 H   0  0  0  0  0  0  0  0  0  0  0  0
   35.1550   24.0930   32.2260 H   0  0  0  0  0  0  0  0  0  0  0  0
   34.8690   24.7070   30.4400 H   0  0  0  0  0  0  0  0  0  0  0  0
   35.8270   29.4270   32.6790 C   0  0  0  0  0  0  0  0  0  0  0  0
   36.6560   29.8290   33.2990 H   0  0  0  0  0  0  0  0  0  0  0  0
   35.8190   30.1390   31.7940 H   0  0  0  0  0  0  0  0  0  0  0  0
   34.5060   29.6270   33.3210 C   0  0  0  0  0  0  0  0  0  0  0  0
   33.2670   29.2200   33.0300 N   0  0  0  0  0  0  0  0  0  0  0  0
   32.1840   29.4790   33.7550 C   0  0  0  0  0  3  0  0  0  0  0  0
   32.2020   30.1890   34.8790 N   0  0  0  0  0  0  0  0  0  0  0  0
   33.4110   30.6550   35.2700 C   0  0  0  0  0  0  0  0  0  0  0  0
   33.4070   31.3970   36.4200 C   0  0  0  0  0  3  0  0  0  0  0  0
   34.5710   31.9240   36.8830 C   0  0  0  0  0  0  0  0  0  0  0  0
   34.5650   32.5050   37.7850 H   0  0  0  0  0  0  0  0  0  0  0  0
   35.7190   31.6870   36.1690 C   0  0  0  0  0  0  0  0  0  0  0  0
   36.6250   32.1270   36.5740 H   0  0  0  0  0  0  0  0  0  0  0  0
   35.6770   30.9430   35.0330 C   0  0  0  0  0  3  0  0  0  0  0  0
   34.5290   30.3760   34.5040 C   0  0  0  0  0  0  0  0  0  0  0  0
  1 20  1  0  0  0  0
  1  5  1  0  0  0  0
  2  1  1  0  0  0  0
  3  1  1  0  0  0  0
  4  5  2  0  0  0  0
  4  9  1  0  0  0  0
  5  6  1  0  0  0  0
  6 10  1  0  0  0  0
  6  7  2  0  0  0  0
  8  7  1  0  0  0  0
  8 11  1  0  0  0  0
  9  8  2  0  0  0  0
 12  4  1  0  0  0  0
 13 14  1  0  0  0  0
 13 12  1  0  0  0  0
 13 17  1  0  0  0  0
 14 12  1  0  0  0  0
 14 18  1  0  0  0  0
 15 12  1  0  0  0  0
 16 13  1  0  0  0  0
 19 14  1  0  0  0  0
 20 21  1  0  0  0  0
 20 23  1  0  0  0  0
 22 20  1  0  0  0  0
 23 34  1  0  0  0  0
 24 23  2  0  0  0  0
 24 25  1  0  0  0  0
 25 26  2  0  0  0  0
 26 27  1  0  0  0  0
 27 28  1  0  0  0  0
 28 29  2  0  0  0  0
 29 30  1  0  0  0  0
 31 32  1  0  0  0  0
 31 29  1  0  0  0  0
 33 31  2  0  0  0  0
 34 33  1  0  0  0  0
 34 27  2  0  0  0  0
M  END
>  <minimizedAffinity>
-5.38492918

$$$$

 OpenBabel03272508193D

 34 37  0  0  0  0  0  0  0  0999 V2000
   38.0350   26.1510   34.0390 C   0  0  0  0  0  0  0  0  0  0  0  0
   37.4460   26.3530   34.9560 H   0  0  0  0  0  0  0  0  0  0  0  0
   38.5190   27.1560   33.7940 H   0  0  0  0  0  0  0  0  0  0  0  0
   36.4380   26.8760   32.2380 C   0  0  0  0  0  0  0  0  0  0  0  0
   37.1360   25.8800   32.9310 C   0  0  0  0  0  0  0  0  0  0  0  0
   36.8560   24.5850   32.5180 C   0  0  0  0  0  0  0  0  0  0  0  0
   35.9750   24.3370   31.5240 N   0  0  0  0  0  0  0  0  0  0  0  0
   35.3160   25.3210   30.8760 C   0  0  0  0  0  0  0  0  0  0  0  0
   35.5480   26.5930   31.2360 N   0  0  0  0  0  0  0  0  0  0  0  0
   37.2600   23.6810   32.9270 H   0  0  0  0  0  0  0  0  0  0  0  0
   34.6270   25.1130   30.0990 H   0  0  0  0  0  0  0  0  0  0  0  0
   36.7840   28.3080   32.5760 C   0  0  0  0  0  0  0  0  0  0  0  0
   36.0310   29.4040   32.0930 C   0  0  0  0  0  0  0  0  0  0  0  0
   35.6320   28.8950   33.4660 C   0  0  0  0  0  0  0  0  0  0  0  0
   37.7610   28.4560   33.1410 H   0  0  0  0  0  0  0  0  0  0  0  0
   36.4910   30.4110   32.0170 H   0  0  0  0  0  0  0  0  0  0  0  0
   35.3110   29.2400   31.2560 H   0  0  0  0  0  0  0  0  0  0  0  0
   34.6840   28.3740   33.5060 H   0  0  0  0  0  0  0  0  0  0  0  0
   35.9740   29.5510   34.2830 H   0  0  0  0  0  0  0  0  0  0  0  0
   39.1160   25.2000   34.3430 C   0  0  0  0  0  0  0  0  0  0  0  0
   39.2670   24.4220   33.5660 H   0  0  0  0  0  0  0  0  0  0  0  0
   40.1340   25.7010   34.3850 H   0  0  0  0  0  0  0  0  0  0  0  0
   38.9430   24.6100   35.6930 C   0  0  0  0  0  0  0  0  0  0  0  0
   38.0540   24.7940   36.6740 N   0  0  0  0  0  0  0  0  0  0  0  0
   38.0420   24.1390   37.8300 C   0  0  0  0  0  3  0  0  0  0  0  0
   38.9280   23.2040   38.1570 N   0  0  0  0  0  0  0  0  0  0  0  0
   39.8810   22.9360   37.2330 C   0  0  0  0  0  0  0  0  0  0  0  0
   40.7940   21.9830   37.5950 C   0  0  0  0  0  3  0  0  0  0  0  0
   41.8000   21.6580   36.7410 C   0  0  0  0  0  0  0  0  0  0  0  0
   42.5140   20.9110   37.0270 H   0  0  0  0  0  0  0  0  0  0  0  0
   41.8590   22.3090   35.5330 C   0  0  0  0  0  0  0  0  0  0  0  0
   42.6780   22.0190   34.8830 H   0  0  0  0  0  0  0  0  0  0  0  0
   40.9300   23.2470   35.2150 C   0  0  0  0  0  3  0  0  0  0  0  0
   39.8800   23.6270   36.0340 C   0  0  0  0  0  0  0  0  0  0  0  0
  1 20  1  0  0  0  0
  1  2  1  0  0  0  0
  3  1  1  0  0  0  0
  4 12  1  0  0  0  0
  4  5  1  0  0  0  0
  5  1  1  0  0  0  0
  6 10  1  0  0  0  0
  6  5  2  0  0  0  0
  7  6  1  0  0  0  0
  8  9  1  0  0  0  0
  8  7  2  0  0  0  0
  9  4  2  0  0  0  0
 11  8  1  0  0  0  0
 12 15  1  0  0  0  0
 12 14  1  0  0  0  0
 13 12  1  0  0  0  0
 13 14  1  0  0  0  0
 14 18  1  0  0  0  0
 14 19  1  0  0  0  0
 16 13  1  0  0  0  0
 17 13  1  0  0  0  0
 20 22  1  0  0  0  0
 20 23  1  0  0  0  0
 21 20  1  0  0  0  0
 23 34  2  0  0  0  0
 23 24  1  0  0  0  0
 24 25  2  0  0  0  0
 25 26  1  0  0  0  0
 27 28  1  0  0  0  0
 27 26  2  0  0  0  0
 29 30  1  0  0  0  0
 29 28  2  0  0  0  0
 31 29  1  0  0  0  0
 32 31  1  0  0  0  0
 33 31  2  0  0  0  0
 33 34  1  0  0  0  0
 34 27  1  0  0  0  0
M  END
>  <minimizedAffinity>
-5.3808198

$$$$

 OpenBabel03272508193D

 34 37  0  0  0  0  0  0  0  0999 V2000
   38.1940   27.1640   35.6050 C   0  0  0  0  0  0  0  0  0  0  0  0
   38.6340   28.1710   35.4570 H   0  0  0  0  0  0  0  0  0  0  0  0
   37.9460   27.1330   36.7200 H   0  0  0  0  0  0  0  0  0  0  0  0
   39.1260   24.8500   35.9170 C   0  0  0  0  0  0  0  0  0  0  0  0
   39.2190   26.1520   35.4150 C   0  0  0  0  0  0  0  0  0  0  0  0
   40.4100   26.4360   34.7600 C   0  0  0  0  0  0  0  0  0  0  0  0
   41.3830   25.5070   34.6350 N   0  0  0  0  0  0  0  0  0  0  0  0
   41.2630   24.2580   35.1340 C   0  0  0  0  0  0  0  0  0  0  0  0
   40.1320   23.9310   35.7770 N   0  0  0  0  0  0  0  0  0  0  0  0
   40.6940   27.3720   34.3240 H   0  0  0  0  0  0  0  0  0  0  0  0
   42.0340   23.5380   35.0300 H   0  0  0  0  0  0  0  0  0  0  0  0
   37.8080   24.4570   36.5460 C   0  0  0  0  0  0  0  0  0  0  0  0
   37.6210   23.2170   37.1990 C   0  0  0  0  0  0  0  0  0  0  0  0
   38.0100   24.3740   38.1000 C   0  0  0  0  0  0  0  0  0  0  0  0
   36.9410   25.1690   36.3520 H   0  0  0  0  0  0  0  0  0  0  0  0
   36.6030   22.7860   37.3050 H   0  0  0  0  0  0  0  0  0  0  0  0
   38.3740   22.4060   37.0510 H   0  0  0  0  0  0  0  0  0  0  0  0
   39.0170   24.3310   38.4950 H   0  0  0  0  0  0  0  0  0  0  0  0
   37.1660   24.7610   38.6920 H   0  0  0  0  0  0  0  0  0  0  0  0
   36.9270   27.0600   34.8650 C   0  0  0  0  0  0  0  0  0  0  0  0
   36.5330   26.0260   34.7840 H   0  0  0  0  0  0  0  0  0  0  0  0
   36.0770   27.6040   35.3850 H   0  0  0  0  0  0  0  0  0  0  0  0
   37.0280   27.7210   33.5410 C   0  0  0  0  0  0  0  0  0  0  0  0
   37.7250   27.4610   32.4300 N   0  0  0  0  0  0  0  0  0  0  0  0
   37.6640   28.1650   31.3050 C   0  0  0  0  0  3  0  0  0  0  0  0
   36.8880   29.2320   31.1440 N   0  0  0  0  0  0  0  0  0  0  0  0
   36.1350   29.5880   32.2110 C   0  0  0  0  0  0  0  0  0  0  0  0
   35.3550   30.6990   32.0310 C   0  0  0  0  0  3  0  0  0  0  0  0
   34.5780   31.1460   33.0520 C   0  0  0  0  0  0  0  0  0  0  0  0
   33.9680   32.0160   32.9090 H   0  0  0  0  0  0  0  0  0  0  0  0
   34.6070   30.4550   34.2390 C   0  0  0  0  0  0  0  0  0  0  0  0
   33.9710   30.8470   35.0270 H   0  0  0  0  0  0  0  0  0  0  0  0
   35.3950   29.3570   34.3720 C   0  0  0  0  0  3  0  0  0  0  0  0
   36.2100   28.8450   33.3760 C   0  0  0  0  0  0  0  0  0  0  0  0
  1  3  1  0  0  0  0
  2  1  1  0  0  0  0
  4 12  1  0  0  0  0
  5  1  1  0  0  0  0
  5  4  2  0  0  0  0
  6  5  1  0  0  0  0
  7  6  2  0  0  0  0
  7  8  1  0  0  0  0
  8  9  2  0  0  0  0
  9  4  1  0  0  0  0
 10  6  1  0  0  0  0
 11  8  1  0  0  0  0
 12 13  1  0  0  0  0
 12 14  1  0  0  0  0
 13 16  1  0  0  0  0
 13 14  1  0  0  0  0
 14 18  1  0  0  0  0
 14 19  1  0  0  0  0
 15 12  1  0  0  0  0
 17 13  1  0  0  0  0
 20 22  1  0  0  0  0
 20  1  1  0  0  0  0
 21 20  1  0  0  0  0
 23 20  1  0  0  0  0
 24 23  2  0  0  0  0
 25 24  1  0  0  0  0
 26 25  2  0  0  0  0
 26 27  1  0  0  0  0
 27 34  1  0  0  0  0
 28 27  2  0  0  0  0
 28 29  1  0  0  0  0
 29 31  2  0  0  0  0
 30 29  1  0  0  0  0
 31 33  1  0  0  0  0
 31 32  1  0  0  0  0
 34 23  1  0  0  0  0
 34 33  2  0  0  0  0
M  END
>  <minimizedAffinity>
-5.29314041

$$$$

 OpenBabel03272508193D

 34 37  0  0  0  0  0  0  0  0999 V2000
   38.5490   25.8450   32.7480 C   0  0  0  0  0  0  0  0  0  0  0  0
   39.0050   26.7930   32.3980 H   0  0  0  0  0  0  0  0  0  0  0  0
   39.2490   25.0370   32.3460 H   0  0  0  0  0  0  0  0  0  0  0  0
   36.3910   26.6580   31.7460 C   0  0  0  0  0  0  0  0  0  0  0  0
   37.2860   25.6300   32.0610 C   0  0  0  0  0  0  0  0  0  0  0  0
   36.8480   24.3580   31.7210 C   0  0  0  0  0  0  0  0  0  0  0  0
   35.6480   24.1600   31.1340 N   0  0  0  0  0  0  0  0  0  0  0  0
   34.8050   25.1740   30.8440 C   0  0  0  0  0  0  0  0  0  0  0  0
   35.1790   26.4250   31.1530 N   0  0  0  0  0  0  0  0  0  0  0  0
   37.3650   23.4350   31.8930 H   0  0  0  0  0  0  0  0  0  0  0  0
   33.8660   25.0050   30.3840 H   0  0  0  0  0  0  0  0  0  0  0  0
   36.8640   28.0720   31.9990 C   0  0  0  0  0  0  0  0  0  0  0  0
   36.0030   29.1890   31.8890 C   0  0  0  0  0  0  0  0  0  0  0  0
   36.1410   28.6090   33.2840 C   0  0  0  0  0  0  0  0  0  0  0  0
   37.9840   28.1930   32.1620 H   0  0  0  0  0  0  0  0  0  0  0  0
   36.4180   30.2000   31.6950 H   0  0  0  0  0  0  0  0  0  0  0  0
   35.0190   29.0680   31.3760 H   0  0  0  0  0  0  0  0  0  0  0  0
   35.2680   28.0850   33.6520 H   0  0  0  0  0  0  0  0  0  0  0  0
   36.7750   29.2220   33.9440 H   0  0  0  0  0  0  0  0  0  0  0  0
   38.5940   25.7830   34.2170 C   0  0  0  0  0  0  0  0  0  0  0  0
   38.8830   26.7390   34.7010 H   0  0  0  0  0  0  0  0  0  0  0  0
   37.5740   25.5780   34.6730 H   0  0  0  0  0  0  0  0  0  0  0  0
   39.4340   24.6520   34.6770 C   0  0  0  0  0  0  0  0  0  0  0  0
   40.4150   23.9400   34.1130 N   0  0  0  0  0  0  0  0  0  0  0  0
   41.0870   22.9580   34.7030 C   0  0  0  0  0  3  0  0  0  0  0  0
   40.8620   22.5550   35.9500 N   0  0  0  0  0  0  0  0  0  0  0  0
   39.8830   23.2090   36.6190 C   0  0  0  0  0  0  0  0  0  0  0  0
   39.6540   22.7690   37.8950 C   0  0  0  0  0  3  0  0  0  0  0  0
   38.6780   23.3500   38.6410 C   0  0  0  0  0  0  0  0  0  0  0  0
   38.5010   23.0050   39.6400 H   0  0  0  0  0  0  0  0  0  0  0  0
   37.9520   24.3700   38.0750 C   0  0  0  0  0  0  0  0  0  0  0  0
   37.1830   24.8050   38.7060 H   0  0  0  0  0  0  0  0  0  0  0  0
   38.2140   24.7750   36.8060 C   0  0  0  0  0  3  0  0  0  0  0  0
   39.1920   24.2300   35.9900 C   0  0  0  0  0  0  0  0  0  0  0  0
  1 20  1  0  0  0  0
  2  1  1  0  0  0  0
  3  1  1  0  0  0  0
  4 12  1  0  0  0  0
  4  5  1  0  0  0  0
  5  1  1  0  0  0  0
  6 10  1  0  0  0  0
  6  5  2  0  0  0  0
  7  6  1  0  0  0  0
  8  7  2  0  0  0  0
  8  9  1  0  0  0  0
  9  4  2  0  0  0  0
 11  8  1  0  0  0  0
 12 15  1  0  0  0  0
 12 14  1  0  0  0  0
 13 12  1  0  0  0  0
 13 14  1  0  0  0  0
 14 18  1  0  0  0  0
 14 19  1  0  0  0  0
 16 13  1  0  0  0  0
 17 13  1  0  0  0  0
 20 22  1  0  0  0  0
 20 23  1  0  0  0  0
 20 21  1  0  0  0  0
 23 34  1  0  0  0  0
 24 23  2  0  0  0  0
 24 25  1  0  0  0  0
 25 26  2  0  0  0  0
 26 27  1  0  0  0  0
 27 28  1  0  0  0  0
 28 29  2  0  0  0  0
 29 30  1  0  0  0  0
 31 29  1  0  0  0  0
 31 32  1  0  0  0  0
 33 31  2  0  0  0  0
 34 27  2  0  0  0  0
 34 33  1  0  0  0  0
M  END
>  <minimizedAffinity>
-5.27741385

$$$$

 OpenBabel03272508193D

 34 37  0  0  0  0  0  0  0  0999 V2000
   35.9960   28.0550   32.4330 C   0  0  0  0  0  0  0  0  0  0  0  0
   35.5870   27.5120   33.3080 H   0  0  0  0  0  0  0  0  0  0  0  0
   35.4460   27.5990   31.5420 H   0  0  0  0  0  0  0  0  0  0  0  0
   38.1900   27.1370   33.2480 C   0  0  0  0  0  0  0  0  0  0  0  0
   37.3910   27.6960   32.2440 C   0  0  0  0  0  0  0  0  0  0  0  0
   38.0530   27.9450   31.0500 C   0  0  0  0  0  0  0  0  0  0  0  0
   39.3650   27.6600   30.9000 N   0  0  0  0  0  0  0  0  0  0  0  0
   40.1100   27.1220   31.8890 C   0  0  0  0  0  0  0  0  0  0  0  0
   39.5190   26.8610   33.0650 N   0  0  0  0  0  0  0  0  0  0  0  0
   37.6370   28.3880   30.1670 H   0  0  0  0  0  0  0  0  0  0  0  0
   41.1380   26.9040   31.7580 H   0  0  0  0  0  0  0  0  0  0  0  0
   37.4940   26.7470   34.5330 C   0  0  0  0  0  0  0  0  0  0  0  0
   38.2050   26.3340   35.6830 C   0  0  0  0  0  0  0  0  0  0  0  0
   37.8560   27.8100   35.6290 C   0  0  0  0  0  0  0  0  0  0  0  0
   36.3580   26.6890   34.4760 H   0  0  0  0  0  0  0  0  0  0  0  0
   37.7100   25.7040   36.4520 H   0  0  0  0  0  0  0  0  0  0  0  0
   39.2810   26.0560   35.5860 H   0  0  0  0  0  0  0  0  0  0  0  0
   38.6950   28.4740   35.4580 H   0  0  0  0  0  0  0  0  0  0  0  0
   37.0240   28.0800   36.2970 H   0  0  0  0  0  0  0  0  0  0  0  0
   35.6180   29.4750   32.5090 C   0  0  0  0  0  0  0  0  0  0  0  0
   36.4320   30.1420   32.8630 H   0  0  0  0  0  0  0  0  0  0  0  0
   35.3730   29.9130   31.4900 H   0  0  0  0  0  0  0  0  0  0  0  0
   34.3730   29.6550   33.2940 C   0  0  0  0  0  0  0  0  0  0  0  0
   33.1140   29.2350   33.1350 N   0  0  0  0  0  0  0  0  0  0  0  0
   32.1140   29.4760   33.9760 C   0  0  0  0  0  3  0  0  0  0  0  0
   32.2460   30.1780   35.0970 N   0  0  0  0  0  0  0  0  0  0  0  0
   33.4860   30.6550   35.3590 C   0  0  0  0  0  0  0  0  0  0  0  0
   33.5990   31.3880   36.5090 C   0  0  0  0  0  3  0  0  0  0  0  0
   34.8000   31.9260   36.8470 C   0  0  0  0  0  0  0  0  0  0  0  0
   34.8860   32.5000   37.7490 H   0  0  0  0  0  0  0  0  0  0  0  0
   35.8660   31.7080   36.0090 C   0  0  0  0  0  0  0  0  0  0  0  0
   36.8060   32.1550   36.3180 H   0  0  0  0  0  0  0  0  0  0  0  0
   35.7080   30.9720   34.8790 C   0  0  0  0  0  3  0  0  0  0  0  0
   34.5170   30.3950   34.4730 C   0  0  0  0  0  0  0  0  0  0  0  0
  1 20  1  0  0  0  0
  1  2  1  0  0  0  0
  3  1  1  0  0  0  0
  4 12  1  0  0  0  0
  5  1  1  0  0  0  0
  5  4  2  0  0  0  0
  6  5  1  0  0  0  0
  7  6  2  0  0  0  0
  7  8  1  0  0  0  0
  8  9  2  0  0  0  0
  9  4  1  0  0  0  0
 10  6  1  0  0  0  0
 11  8  1  0  0  0  0
 12 14  1  0  0  0  0
 12 13  1  0  0  0  0
 13 16  1  0  0  0  0
 14 13  1  0  0  0  0
 14 19  1  0  0  0  0
 15 12  1  0  0  0  0
 17 13  1  0  0  0  0
 18 14  1  0  0  0  0
 20 21  1  0  0  0  0
 20 23  1  0  0  0  0
 22 20  1  0  0  0  0
 23 34  1  0  0  0  0
 24 23  2  0  0  0  0
 24 25  1  0  0  0  0
 25 26  2  0  0  0  0
 26 27  1  0  0  0  0
 27 28  1  0  0  0  0
 28 29  2  0  0  0  0
 29 30  1  0  0  0  0
 31 32  1  0  0  0  0
 31 29  1  0  0  0  0
 33 31  2  0  0  0  0
 34 33  1  0  0  0  0
 34 27  2  0  0  0  0
M  END
>  <minimizedAffinity>
-5.26181364

$$$$

 OpenBabel03272508193D

 34 37  0  0  0  0  0  0  0  0999 V2000
   38.3900   24.2760   32.9300 C   0  0  0  0  0  0  0  0  0  0  0  0
   39.3520   23.8290   32.6060 H   0  0  0  0  0  0  0  0  0  0  0  0
   38.5800   25.4010   32.8870 H   0  0  0  0  0  0  0  0  0  0  0  0
   38.1110   24.9580   35.3340 C   0  0  0  0  0  0  0  0  0  0  0  0
   38.1640   23.9800   34.3350 C   0  0  0  0  0  0  0  0  0  0  0  0
   38.0460   22.6760   34.7950 C   0  0  0  0  0  0  0  0  0  0  0  0
   37.8930   22.4050   36.1100 N   0  0  0  0  0  0  0  0  0  0  0  0
   37.8470   23.3720   37.0500 C   0  0  0  0  0  0  0  0  0  0  0  0
   37.9580   24.6510   36.6600 N   0  0  0  0  0  0  0  0  0  0  0  0
   38.0830   21.7820   34.2050 H   0  0  0  0  0  0  0  0  0  0  0  0
   37.7270   23.1460   38.0790 H   0  0  0  0  0  0  0  0  0  0  0  0
   38.1290   26.3990   34.8760 C   0  0  0  0  0  0  0  0  0  0  0  0
   38.2690   27.4790   35.7780 C   0  0  0  0  0  0  0  0  0  0  0  0
   39.5590   26.9840   35.1520 C   0  0  0  0  0  0  0  0  0  0  0  0
   37.9000   26.5660   33.7730 H   0  0  0  0  0  0  0  0  0  0  0  0
   37.9030   28.4900   35.5040 H   0  0  0  0  0  0  0  0  0  0  0  0
   38.1240   27.2960   36.8700 H   0  0  0  0  0  0  0  0  0  0  0  0
   40.2220   26.4530   35.8240 H   0  0  0  0  0  0  0  0  0  0  0  0
   39.9390   27.6550   34.3650 H   0  0  0  0  0  0  0  0  0  0  0  0
   37.3410   23.9640   31.9470 C   0  0  0  0  0  0  0  0  0  0  0  0
   36.3170   23.9270   32.3730 H   0  0  0  0  0  0  0  0  0  0  0  0
   37.2430   24.7670   31.1500 H   0  0  0  0  0  0  0  0  0  0  0  0
   37.6710   22.7340   31.1870 C   0  0  0  0  0  0  0  0  0  0  0  0
   38.6550   22.4050   30.3440 N   0  0  0  0  0  0  0  0  0  0  0  0
   38.8060   21.2180   29.7680 C   0  0  0  0  0  3  0  0  0  0  0  0
   37.9820   20.1930   29.9630 N   0  0  0  0  0  0  0  0  0  0  0  0
   36.9430   20.4150   30.8020 C   0  0  0  0  0  0  0  0  0  0  0  0
   36.0960   19.3550   30.9780 C   0  0  0  0  0  3  0  0  0  0  0  0
   35.0130   19.4870   31.7880 C   0  0  0  0  0  0  0  0  0  0  0  0
   34.3510   18.6540   31.9240 H   0  0  0  0  0  0  0  0  0  0  0  0
   34.8100   20.6970   32.4060 C   0  0  0  0  0  0  0  0  0  0  0  0
   33.9330   20.7580   33.0420 H   0  0  0  0  0  0  0  0  0  0  0  0
   35.6770   21.7220   32.2030 C   0  0  0  0  0  3  0  0  0  0  0  0
   36.7990   21.6580   31.3950 C   0  0  0  0  0  0  0  0  0  0  0  0
  1  5  1  0  0  0  0
  2  1  1  0  0  0  0
  3  1  1  0  0  0  0
  4  9  1  0  0  0  0
  5  6  1  0  0  0  0
  5  4  2  0  0  0  0
  6  7  2  0  0  0  0
  7  8  1  0  0  0  0
  8 11  1  0  0  0  0
  9  8  2  0  0  0  0
 10  6  1  0  0  0  0
 12 14  1  0  0  0  0
 12  4  1  0  0  0  0
 12 13  1  0  0  0  0
 13 17  1  0  0  0  0
 14 13  1  0  0  0  0
 14 18  1  0  0  0  0
 15 12  1  0  0  0  0
 16 13  1  0  0  0  0
 19 14  1  0  0  0  0
 20 21  1  0  0  0  0
 20  1  1  0  0  0  0
 22 20  1  0  0  0  0
 23 34  1  0  0  0  0
 23 20  1  0  0  0  0
 24 23  2  0  0  0  0
 25 26  2  0  0  0  0
 25 24  1  0  0  0  0
 26 27  1  0  0  0  0
 27 28  2  0  0  0  0
 27 34  1  0  0  0  0
 28 29  1  0  0  0  0
 29 30  1  0  0  0  0
 29 31  2  0  0  0  0
 31 32  1  0  0  0  0
 33 31  1  0  0  0  0
 34 33  2  0  0  0  0
M  END
>  <minimizedAffinity>
-5.25526285

$$$$

 OpenBabel03272508193D

 34 37  0  0  0  0  0  0  0  0999 V2000
   36.8200   27.1830   34.5050 C   0  0  0  0  0  0  0  0  0  0  0  0
   36.5030   26.1330   34.3420 H   0  0  0  0  0  0  0  0  0  0  0  0
   36.0290   27.6030   35.2150 H   0  0  0  0  0  0  0  0  0  0  0  0
   36.0110   29.1710   33.1960 C   0  0  0  0  0  0  0  0  0  0  0  0
   36.6640   27.9360   33.2730 C   0  0  0  0  0  0  0  0  0  0  0  0
   37.1060   27.4400   32.0540 C   0  0  0  0  0  0  0  0  0  0  0  0
   36.9080   28.1190   30.9040 N   0  0  0  0  0  0  0  0  0  0  0  0
   36.2720   29.3090   30.8630 C   0  0  0  0  0  0  0  0  0  0  0  0
   35.8230   29.8350   32.0130 N   0  0  0  0  0  0  0  0  0  0  0  0
   37.6060   26.5070   31.8860 H   0  0  0  0  0  0  0  0  0  0  0  0
   36.1220   29.8320   29.9530 H   0  0  0  0  0  0  0  0  0  0  0  0
   35.6030   29.8060   34.5070 C   0  0  0  0  0  0  0  0  0  0  0  0
   34.8780   31.0190   34.5670 C   0  0  0  0  0  0  0  0  0  0  0  0
   34.0380   29.7560   34.6090 C   0  0  0  0  0  0  0  0  0  0  0  0
   36.0220   29.3120   35.4430 H   0  0  0  0  0  0  0  0  0  0  0  0
   34.9220   31.6540   35.4760 H   0  0  0  0  0  0  0  0  0  0  0  0
   34.8060   31.6540   33.6510 H   0  0  0  0  0  0  0  0  0  0  0  0
   33.4600   29.5580   33.7150 H   0  0  0  0  0  0  0  0  0  0  0  0
   33.6520   29.5310   35.6160 H   0  0  0  0  0  0  0  0  0  0  0  0
   38.1100   27.2090   35.2110 C   0  0  0  0  0  0  0  0  0  0  0  0
   38.7290   28.1040   34.9920 H   0  0  0  0  0  0  0  0  0  0  0  0
   37.9850   27.2710   36.3380 H   0  0  0  0  0  0  0  0  0  0  0  0
   38.8620   25.9490   34.9960 C   0  0  0  0  0  0  0  0  0  0  0  0
   39.6120   25.4810   33.9930 N   0  0  0  0  0  0  0  0  0  0  0  0
   40.2440   24.3130   33.9890 C   0  0  0  0  0  3  0  0  0  0  0  0
   40.2070   23.4510   35.0000 N   0  0  0  0  0  0  0  0  0  0  0  0
   39.4720   23.8230   36.0740 C   0  0  0  0  0  0  0  0  0  0  0  0
   39.4320   22.9160   37.0980 C   0  0  0  0  0  3  0  0  0  0  0  0
   38.7040   23.1910   38.2120 C   0  0  0  0  0  0  0  0  0  0  0  0
   38.6750   22.4790   39.0130 H   0  0  0  0  0  0  0  0  0  0  0  0
   38.0280   24.3860   38.2650 C   0  0  0  0  0  0  0  0  0  0  0  0
   37.4600   24.5650   39.1720 H   0  0  0  0  0  0  0  0  0  0  0  0
   38.0970   25.2580   37.2250 C   0  0  0  0  0  3  0  0  0  0  0  0
   38.8190   25.0430   36.0630 C   0  0  0  0  0  0  0  0  0  0  0  0
  1 20  1  0  0  0  0
  1  3  1  0  0  0  0
  2  1  1  0  0  0  0
  4  5  1  0  0  0  0
  4 12  1  0  0  0  0
  5  1  1  0  0  0  0
  6  5  2  0  0  0  0
  7  6  1  0  0  0  0
  8  7  2  0  0  0  0
  8  9  1  0  0  0  0
  9  4  2  0  0  0  0
 10  6  1  0  0  0  0
 11  8  1  0  0  0  0
 12 13  1  0  0  0  0
 12 14  1  0  0  0  0
 12 15  1  0  0  0  0
 13 14  1  0  0  0  0
 13 16  1  0  0  0  0
 14 19  1  0  0  0  0
 17 13  1  0  0  0  0
 18 14  1  0  0  0  0
 20 22  1  0  0  0  0
 21 20  1  0  0  0  0
 23 20  1  0  0  0  0
 23 34  1  0  0  0  0
 24 23  2  0  0  0  0
 25 24  1  0  0  0  0
 25 26  2  0  0  0  0
 26 27  1  0  0  0  0
 27 28  1  0  0  0  0
 28 29  2  0  0  0  0
 29 31  1  0  0  0  0
 29 30  1  0  0  0  0
 31 32  1  0  0  0  0
 33 31  2  0  0  0  0
 34 27  2  0  0  0  0
 34 33  1  0  0  0  0
M  END
>  <minimizedAffinity>
-5.25247192

$$$$
