
 OpenBabel03262521523D

 26 28  0  0  0  0  0  0  0  0999 V2000
   34.9220   29.5940   50.2980 C   0  0  0  0  0  0  0  0  0  0  0  0
   34.2420   29.6170   51.1670 H   0  0  0  0  0  0  0  0  0  0  0  0
   34.6200   30.4670   49.6470 H   0  0  0  0  0  0  0  0  0  0  0  0
   36.6440   29.8420   50.7330 S   0  0  0  0  0  0  0  0  0  0  0  0
   37.4290   30.7950   49.4490 C   0  0  0  0  0  0  0  0  0  0  0  0
   37.7260   32.1040   49.7900 C   0  0  0  0  0  0  0  0  0  0  0  0
   38.3400   32.8890   48.8220 C   0  0  0  0  0  0  0  0  0  0  0  0
   38.6260   32.3480   47.5830 N   0  0  0  0  0  0  0  0  0  0  0  0
   38.3060   31.0580   47.3190 C   0  0  0  0  0  0  0  0  0  0  0  0
   37.7240   30.3030   48.2300 N   0  0  0  0  0  0  0  0  0  0  0  0
   37.5250   32.5750   50.7430 H   0  0  0  0  0  0  0  0  0  0  0  0
   38.6150   33.9190   48.9810 H   0  0  0  0  0  0  0  0  0  0  0  0
   38.5670   30.7180   46.3230 H   0  0  0  0  0  0  0  0  0  0  0  0
   34.6620   28.1140   49.2800 S   0  0  0  0  0  0  0  0  0  0  0  0
   33.2420   28.3080   48.2290 C   0  0  0  0  0  0  0  0  0  0  0  0
   32.1050   27.7740   48.7210 N   0  0  0  0  0  0  0  0  0  0  0  0
   30.9590   27.8540   48.0220 C   0  0  0  0  0  3  0  0  0  0  0  0
   30.9220   28.4630   46.8230 N   0  0  0  0  0  0  0  0  0  0  0  0
   32.0330   29.0040   46.3030 C   0  0  0  0  0  0  0  0  0  0  0  0
   32.0070   29.6400   45.0590 C   0  0  0  0  0  3  0  0  0  0  0  0
   33.2070   30.1700   44.6010 C   0  0  0  0  0  0  0  0  0  0  0  0
   33.1270   30.6500   43.6350 H   0  0  0  0  0  0  0  0  0  0  0  0
   34.3750   30.0840   45.3230 C   0  0  0  0  0  0  0  0  0  0  0  0
   35.2850   30.5190   44.9130 H   0  0  0  0  0  0  0  0  0  0  0  0
   34.4050   29.4540   46.5600 C   0  0  0  0  0  3  0  0  0  0  0  0
   33.2020   28.9320   47.0000 C   0  0  0  0  0  0  0  0  0  0  0  0
  1  4  1  0  0  0  0
  1  2  1  0  0  0  0
  3  1  1  0  0  0  0
  5  6  1  0  0  0  0
  5  4  1  0  0  0  0
  6 11  1  0  0  0  0
  7 12  1  0  0  0  0
  7  6  2  0  0  0  0
  8  7  1  0  0  0  0
  9  8  2  0  0  0  0
  9 10  1  0  0  0  0
 10  5  2  0  0  0  0
 13  9  1  0  0  0  0
 14  1  1  0  0  0  0
 15 16  1  0  0  0  0
 15 14  1  0  0  0  0
 17 16  2  0  0  0  0
 18 17  1  0  0  0  0
 19 18  2  0  0  0  0
 19 26  1  0  0  0  0
 20 19  1  0  0  0  0
 21 20  2  0  0  0  0
 21 23  1  0  0  0  0
 22 21  1  0  0  0  0
 23 25  2  0  0  0  0
 24 23  1  0  0  0  0
 25 26  1  0  0  0  0
 26 15  2  0  0  0  0
M  END
>  <minimizedAffinity>
-4.55176163

>  <minimizedRMSD>
2.10523343

$$$$
