
 OpenBabel03262521523D

 26 28  0  0  0  0  0  0  0  0999 V2000
   34.7350   29.3240   50.2130 C   0  0  0  0  0  0  0  0  0  0  0  0
   34.1170   28.7850   50.9530 H   0  0  0  0  0  0  0  0  0  0  0  0
   34.2910   30.3600   50.1350 H   0  0  0  0  0  0  0  0  0  0  0  0
   36.4420   29.5290   50.7260 S   0  0  0  0  0  0  0  0  0  0  0  0
   37.2370   30.6830   49.6270 C   0  0  0  0  0  0  0  0  0  0  0  0
   37.2360   31.9990   50.0590 C   0  0  0  0  0  0  0  0  0  0  0  0
   37.8450   32.9380   49.2370 C   0  0  0  0  0  0  0  0  0  0  0  0
   38.4160   32.5360   48.0450 N   0  0  0  0  0  0  0  0  0  0  0  0
   38.3790   31.2300   47.6850 C   0  0  0  0  0  0  0  0  0  0  0  0
   37.8050   30.3290   48.4580 N   0  0  0  0  0  0  0  0  0  0  0  0
   36.8050   32.3660   50.9820 H   0  0  0  0  0  0  0  0  0  0  0  0
   37.9020   33.9880   49.4770 H   0  0  0  0  0  0  0  0  0  0  0  0
   38.8510   31.0060   46.7360 H   0  0  0  0  0  0  0  0  0  0  0  0
   34.5830   28.6010   48.5550 S   0  0  0  0  0  0  0  0  0  0  0  0
   33.0770   27.6710   48.4040 C   0  0  0  0  0  0  0  0  0  0  0  0
   32.0490   28.1490   49.1340 N   0  0  0  0  0  0  0  0  0  0  0  0
   30.8530   27.5350   49.1070 C   0  0  0  0  0  3  0  0  0  0  0  0
   30.6580   26.4360   48.3560 N   0  0  0  0  0  0  0  0  0  0  0  0
   31.6570   25.9320   47.6170 C   0  0  0  0  0  0  0  0  0  0  0  0
   31.4660   24.7920   46.8330 C   0  0  0  0  0  3  0  0  0  0  0  0
   32.5590   24.3430   46.1030 C   0  0  0  0  0  0  0  0  0  0  0  0
   32.3540   23.4580   45.5160 H   0  0  0  0  0  0  0  0  0  0  0  0
   33.7790   24.9780   46.1370 C   0  0  0  0  0  0  0  0  0  0  0  0
   34.6010   24.5800   45.5430 H   0  0  0  0  0  0  0  0  0  0  0  0
   33.9730   26.1130   46.9150 C   0  0  0  0  0  3  0  0  0  0  0  0
   32.8750   26.5440   47.6350 C   0  0  0  0  0  0  0  0  0  0  0  0
  1  4  1  0  0  0  0
  1  2  1  0  0  0  0
  3  1  1  0  0  0  0
  5  6  1  0  0  0  0
  5  4  1  0  0  0  0
  6 11  1  0  0  0  0
  7 12  1  0  0  0  0
  7  6  2  0  0  0  0
  8  7  1  0  0  0  0
  9  8  2  0  0  0  0
  9 10  1  0  0  0  0
 10  5  2  0  0  0  0
 13  9  1  0  0  0  0
 14  1  1  0  0  0  0
 15 14  1  0  0  0  0
 15 16  1  0  0  0  0
 17 16  2  0  0  0  0
 18 17  1  0  0  0  0
 19 26  1  0  0  0  0
 19 18  2  0  0  0  0
 20 19  1  0  0  0  0
 21 23  1  0  0  0  0
 21 20  2  0  0  0  0
 22 21  1  0  0  0  0
 23 25  2  0  0  0  0
 24 23  1  0  0  0  0
 25 26  1  0  0  0  0
 26 15  2  0  0  0  0
M  END
>  <minimizedAffinity>
-4.54078102

>  <minimizedRMSD>
2.06837583

$$$$
