
 OpenBabel03272504253D

 42 46  0  0  0  0  0  0  0  0999 V2000
   37.4270   23.3000   32.9580 C   0  0  0  0  0  0  0  0  0  0  0  0
   36.9130   23.9280   31.8220 C   0  0  0  0  0  0  0  0  0  0  0  0
   36.0110   23.3500   30.9610 C   0  0  0  0  0  0  0  0  0  0  0  0
   35.5440   22.0630   31.1860 C   0  0  0  0  0  0  0  0  0  0  0  0
   35.9960   21.3680   32.2860 C   0  0  0  0  0  0  0  0  0  0  0  0
   36.8870   22.0190   33.0810 C   0  0  0  0  0  0  0  0  0  0  0  0
   35.6600   23.9240   30.0870 H   0  0  0  0  0  0  0  0  0  0  0  0
   34.8400   21.6730   30.4690 H   0  0  0  0  0  0  0  0  0  0  0  0
   35.6540   20.3850   32.4810 H   0  0  0  0  0  0  0  0  0  0  0  0
   37.2290   21.4360   33.9540 H   0  0  0  0  0  0  0  0  0  0  0  0
   37.1270   27.5960   31.8140 C   0  0  0  0  0  0  0  0  0  0  0  0
   38.1540   27.7530   30.9790 C   0  0  0  0  0  0  0  0  0  0  0  0
   38.7900   26.7210   30.4290 C   0  0  0  0  0  0  0  0  0  0  0  0
   38.3600   25.4810   30.7370 N   0  0  0  0  0  0  0  0  0  0  0  0
   37.3290   25.2920   31.5630 C   0  0  0  0  0  0  0  0  0  0  0  0
   36.7120   26.3490   32.1050 N   0  0  0  0  0  0  0  0  0  0  0  0
   38.4340   28.7730   30.7760 H   0  0  0  0  0  0  0  0  0  0  0  0
   39.6050   27.0280   29.7800 H   0  0  0  0  0  0  0  0  0  0  0  0
   35.7400   30.9340   32.5070 C   0  0  0  0  0  0  0  0  0  0  0  0
   35.3200   30.8020   33.8470 C   0  0  0  0  0  0  0  0  0  0  0  0
   35.5210   29.5540   34.4820 C   0  0  0  0  0  0  0  0  0  0  0  0
   36.1080   28.5390   33.7760 N   0  0  0  0  0  0  0  0  0  0  0  0
   36.4880   28.7030   32.5150 C   0  0  0  0  0  0  0  0  0  0  0  0
   36.3030   29.9120   31.8720 N   0  0  0  0  0  0  0  0  0  0  0  0
   35.5890   31.8850   32.0150 H   0  0  0  0  0  0  0  0  0  0  0  0
   34.8650   31.5760   34.4100 H   0  0  0  0  0  0  0  0  0  0  0  0
   35.2370   29.3520   35.5000 H   0  0  0  0  0  0  0  0  0  0  0  0
   38.5380   23.9920   34.0380 S   0  0  0  0  0  0  0  0  0  0  0  0
   37.6650   25.0050   34.6660 O   0  0  0  0  0  0  0  0  0  0  0  0
   39.4710   24.9260   33.3550 O   0  0  0  0  0  0  0  0  0  0  0  0
   38.8090   23.5940   35.6770 C   0  0  0  0  0  0  0  0  0  0  0  0
   38.2060   23.9640   36.7950 N   0  0  0  0  0  0  0  0  0  0  0  0
   38.5000   23.7100   38.0670 C   0  0  0  0  0  3  0  0  0  0  0  0
   39.5740   22.9620   38.3180 N   0  0  0  0  0  0  0  0  0  0  0  0
   40.2750   22.5230   37.2670 C   0  0  0  0  0  0  0  0  0  0  0  0
   41.3690   21.7480   37.6150 C   0  0  0  0  0  3  0  0  0  0  0  0
   42.1850   21.2160   36.6450 C   0  0  0  0  0  0  0  0  0  0  0  0
   43.0340   20.6160   36.9170 H   0  0  0  0  0  0  0  0  0  0  0  0
   41.8870   21.4730   35.3260 C   0  0  0  0  0  0  0  0  0  0  0  0
   42.5210   21.0600   34.5740 H   0  0  0  0  0  0  0  0  0  0  0  0
   40.7860   22.2500   35.0560 C   0  0  0  0  0  3  0  0  0  0  0  0
   39.9270   22.8140   35.9770 C   0  0  0  0  0  0  0  0  0  0  0  0
  1  6  1  0  0  0  0
  1 28  1  0  0  0  0
  2  1  2  0  0  0  0
  3  4  2  0  0  0  0
  3  2  1  0  0  0  0
  4  5  1  0  0  0  0
  5  9  1  0  0  0  0
  5  6  2  0  0  0  0
  6 10  1  0  0  0  0
  7  3  1  0  0  0  0
  8  4  1  0  0  0  0
 11 16  1  0  0  0  0
 11 23  1  0  0  0  0
 12 11  2  0  0  0  0
 13 14  2  0  0  0  0
 13 12  1  0  0  0  0
 14 15  1  0  0  0  0
 15  2  1  0  0  0  0
 15 16  2  0  0  0  0
 17 12  1  0  0  0  0
 18 13  1  0  0  0  0
 19 20  1  0  0  0  0
 20 26  1  0  0  0  0
 20 21  2  0  0  0  0
 21 27  1  0  0  0  0
 22 21  1  0  0  0  0
 23 22  2  0  0  0  0
 24 19  2  0  0  0  0
 24 23  1  0  0  0  0
 25 19  1  0  0  0  0
 28 29  2  0  0  0  0
 28 31  1  0  0  0  0
 30 28  2  0  0  0  0
 31 42  2  0  0  0  0
 31 32  1  0  0  0  0
 32 33  2  0  0  0  0
 33 34  1  0  0  0  0
 35 36  1  0  0  0  0
 35 34  2  0  0  0  0
 37 38  1  0  0  0  0
 37 36  2  0  0  0  0
 39 37  1  0  0  0  0
 40 39  1  0  0  0  0
 41 39  2  0  0  0  0
 41 42  1  0  0  0  0
 42 35  1  0  0  0  0
M  END
>  <minimizedAffinity>
-6.75986147

$$$$

 OpenBabel03272504253D

 42 46  0  0  0  0  0  0  0  0999 V2000
   37.5060   27.0930   33.9210 C   0  0  0  0  0  0  0  0  0  0  0  0
   37.0300   26.4790   32.7610 C   0  0  0  0  0  0  0  0  0  0  0  0
   36.0460   27.0040   31.9570 C   0  0  0  0  0  0  0  0  0  0  0  0
   35.4540   28.2190   32.2660 C   0  0  0  0  0  0  0  0  0  0  0  0
   35.8640   28.8980   33.3940 C   0  0  0  0  0  0  0  0  0  0  0  0
   36.8410   28.3030   34.1280 C   0  0  0  0  0  0  0  0  0  0  0  0
   35.7330   26.4450   31.0590 H   0  0  0  0  0  0  0  0  0  0  0  0
   34.6890   28.5680   31.5920 H   0  0  0  0  0  0  0  0  0  0  0  0
   35.4290   29.8290   33.6510 H   0  0  0  0  0  0  0  0  0  0  0  0
   37.1480   28.8720   35.0230 H   0  0  0  0  0  0  0  0  0  0  0  0
   37.7140   22.9080   32.2380 C   0  0  0  0  0  0  0  0  0  0  0  0
   38.8940   22.9990   31.6220 C   0  0  0  0  0  0  0  0  0  0  0  0
   39.4700   24.1690   31.3570 C   0  0  0  0  0  0  0  0  0  0  0  0
   38.8240   25.2890   31.7370 N   0  0  0  0  0  0  0  0  0  0  0  0
   37.6460   25.2290   32.3620 C   0  0  0  0  0  0  0  0  0  0  0  0
   37.0880   24.0390   32.6120 N   0  0  0  0  0  0  0  0  0  0  0  0
   39.3510   22.0610   31.3560 H   0  0  0  0  0  0  0  0  0  0  0  0
   40.4230   24.0610   30.8460 H   0  0  0  0  0  0  0  0  0  0  0  0
   36.3960   19.5260   31.6240 C   0  0  0  0  0  0  0  0  0  0  0  0
   35.6560   19.2850   32.7990 C   0  0  0  0  0  0  0  0  0  0  0  0
   35.6340   20.2990   33.7860 C   0  0  0  0  0  0  0  0  0  0  0  0
   36.3260   21.4580   33.5590 N   0  0  0  0  0  0  0  0  0  0  0  0
   37.0120   21.6460   32.4390 C   0  0  0  0  0  0  0  0  0  0  0  0
   37.0490   20.6730   31.4590 N   0  0  0  0  0  0  0  0  0  0  0  0
   36.4170   18.7560   30.8650 H   0  0  0  0  0  0  0  0  0  0  0  0
   35.1140   18.3950   32.9930 H   0  0  0  0  0  0  0  0  0  0  0  0
   35.1010   20.2130   34.7160 H   0  0  0  0  0  0  0  0  0  0  0  0
   38.7200   26.4700   34.9290 S   0  0  0  0  0  0  0  0  0  0  0  0
   38.4590   27.2680   36.1440 O   0  0  0  0  0  0  0  0  0  0  0  0
   40.0580   27.0320   34.6030 O   0  0  0  0  0  0  0  0  0  0  0  0
   38.6060   25.1970   36.0610 C   0  0  0  0  0  0  0  0  0  0  0  0
   37.8890   25.0460   37.1630 N   0  0  0  0  0  0  0  0  0  0  0  0
   37.8910   24.0790   38.0760 C   0  0  0  0  0  3  0  0  0  0  0  0
   38.7390   23.0660   37.9060 N   0  0  0  0  0  0  0  0  0  0  0  0
   39.5250   23.1000   36.8250 C   0  0  0  0  0  0  0  0  0  0  0  0
   40.3710   22.0080   36.7200 C   0  0  0  0  0  3  0  0  0  0  0  0
   41.2360   21.8930   35.6570 C   0  0  0  0  0  0  0  0  0  0  0  0
   41.8910   21.0450   35.5780 H   0  0  0  0  0  0  0  0  0  0  0  0
   41.2390   22.8880   34.7060 C   0  0  0  0  0  0  0  0  0  0  0  0
   41.9100   22.7990   33.8820 H   0  0  0  0  0  0  0  0  0  0  0  0
   40.3730   23.9420   34.8770 C   0  0  0  0  0  3  0  0  0  0  0  0
   39.4820   24.1200   35.9150 C   0  0  0  0  0  0  0  0  0  0  0  0
  1  6  1  0  0  0  0
  1 28  1  0  0  0  0
  2  1  2  0  0  0  0
  3  4  2  0  0  0  0
  3  2  1  0  0  0  0
  4  5  1  0  0  0  0
  5  9  1  0  0  0  0
  5  6  2  0  0  0  0
  6 10  1  0  0  0  0
  7  3  1  0  0  0  0
  8  4  1  0  0  0  0
 11 23  1  0  0  0  0
 11 16  1  0  0  0  0
 12 11  2  0  0  0  0
 13 12  1  0  0  0  0
 13 14  2  0  0  0  0
 14 15  1  0  0  0  0
 15 16  2  0  0  0  0
 15  2  1  0  0  0  0
 17 12  1  0  0  0  0
 18 13  1  0  0  0  0
 19 20  1  0  0  0  0
 20 26  1  0  0  0  0
 20 21  2  0  0  0  0
 21 27  1  0  0  0  0
 22 21  1  0  0  0  0
 23 22  2  0  0  0  0
 24 19  2  0  0  0  0
 24 23  1  0  0  0  0
 25 19  1  0  0  0  0
 28 31  1  0  0  0  0
 28 29  2  0  0  0  0
 30 28  2  0  0  0  0
 31 32  1  0  0  0  0
 32 33  2  0  0  0  0
 34 33  1  0  0  0  0
 35 34  2  0  0  0  0
 36 35  1  0  0  0  0
 37 36  2  0  0  0  0
 38 37  1  0  0  0  0
 39 41  2  0  0  0  0
 39 37  1  0  0  0  0
 40 39  1  0  0  0  0
 41 42  1  0  0  0  0
 42 31  2  0  0  0  0
 42 35  1  0  0  0  0
M  END
>  <minimizedAffinity>
-6.66853142

$$$$

 OpenBabel03272504253D

 42 46  0  0  0  0  0  0  0  0999 V2000
   39.3730   26.2350   33.9040 C   0  0  0  0  0  0  0  0  0  0  0  0
   39.9290   25.1220   34.5380 C   0  0  0  0  0  0  0  0  0  0  0  0
   41.2690   24.9770   34.8110 C   0  0  0  0  0  0  0  0  0  0  0  0
   42.1730   25.9680   34.4590 C   0  0  0  0  0  0  0  0  0  0  0  0
   41.7120   27.1050   33.8300 C   0  0  0  0  0  0  0  0  0  0  0  0
   40.3730   27.1600   33.6010 C   0  0  0  0  0  0  0  0  0  0  0  0
   41.6170   24.0610   35.3160 H   0  0  0  0  0  0  0  0  0  0  0  0
   43.2070   25.7860   34.7020 H   0  0  0  0  0  0  0  0  0  0  0  0
   42.3820   27.8770   33.5520 H   0  0  0  0  0  0  0  0  0  0  0  0
   40.0350   28.0830   33.0970 H   0  0  0  0  0  0  0  0  0  0  0  0
   37.6620   22.2320   34.5830 C   0  0  0  0  0  0  0  0  0  0  0  0
   37.3380   22.2280   35.8760 C   0  0  0  0  0  0  0  0  0  0  0  0
   37.8340   23.1140   36.7370 C   0  0  0  0  0  0  0  0  0  0  0  0
   38.6880   24.0410   36.2630 N   0  0  0  0  0  0  0  0  0  0  0  0
   39.0250   24.0760   34.9720 C   0  0  0  0  0  0  0  0  0  0  0  0
   38.5140   23.1700   34.1300 N   0  0  0  0  0  0  0  0  0  0  0  0
   36.6450   21.4610   36.1780 H   0  0  0  0  0  0  0  0  0  0  0  0
   37.4710   22.9620   37.7500 H   0  0  0  0  0  0  0  0  0  0  0  0
   37.6720   19.8600   31.7680 C   0  0  0  0  0  0  0  0  0  0  0  0
   36.3780   19.3050   31.8520 C   0  0  0  0  0  0  0  0  0  0  0  0
   35.5290   19.7600   32.8880 C   0  0  0  0  0  0  0  0  0  0  0  0
   35.9960   20.7100   33.7560 N   0  0  0  0  0  0  0  0  0  0  0  0
   37.2220   21.2070   33.6440 C   0  0  0  0  0  0  0  0  0  0  0  0
   38.0700   20.7790   32.6410 N   0  0  0  0  0  0  0  0  0  0  0  0
   38.3260   19.5170   30.9790 H   0  0  0  0  0  0  0  0  0  0  0  0
   35.9990   18.5700   31.1880 H   0  0  0  0  0  0  0  0  0  0  0  0
   34.5260   19.4010   33.0370 H   0  0  0  0  0  0  0  0  0  0  0  0
   37.7250   26.4400   33.5590 S   0  0  0  0  0  0  0  0  0  0  0  0
   37.1880   26.4340   34.9350 O   0  0  0  0  0  0  0  0  0  0  0  0
   37.0920   25.1780   33.0910 O   0  0  0  0  0  0  0  0  0  0  0  0
   36.8290   27.8930   33.4990 C   0  0  0  0  0  0  0  0  0  0  0  0
   36.0110   28.4720   34.3630 N   0  0  0  0  0  0  0  0  0  0  0  0
   35.2540   29.5590   34.2500 C   0  0  0  0  0  3  0  0  0  0  0  0
   35.2820   30.2170   33.0910 N   0  0  0  0  0  0  0  0  0  0  0  0
   36.0730   29.7300   32.1290 C   0  0  0  0  0  0  0  0  0  0  0  0
   36.0490   30.4760   30.9620 C   0  0  0  0  0  3  0  0  0  0  0  0
   36.8160   30.1080   29.8820 C   0  0  0  0  0  0  0  0  0  0  0  0
   36.7950   30.6880   28.9770 H   0  0  0  0  0  0  0  0  0  0  0  0
   37.6050   28.9850   29.9910 C   0  0  0  0  0  0  0  0  0  0  0  0
   38.1990   28.7010   29.1530 H   0  0  0  0  0  0  0  0  0  0  0  0
   37.5770   28.2960   31.1800 C   0  0  0  0  0  3  0  0  0  0  0  0
   36.8330   28.6060   32.2990 C   0  0  0  0  0  0  0  0  0  0  0  0
  1  2  1  0  0  0  0
  2  3  2  0  0  0  0
  2 15  1  0  0  0  0
  3  7  1  0  0  0  0
  4  8  1  0  0  0  0
  4  3  1  0  0  0  0
  5  4  2  0  0  0  0
  6  5  1  0  0  0  0
  6  1  2  0  0  0  0
  9  5  1  0  0  0  0
 10  6  1  0  0  0  0
 11 12  1  0  0  0  0
 12 17  1  0  0  0  0
 12 13  2  0  0  0  0
 13 18  1  0  0  0  0
 14 13  1  0  0  0  0
 15 14  2  0  0  0  0
 16 11  2  0  0  0  0
 16 15  1  0  0  0  0
 19 20  2  0  0  0  0
 19 24  1  0  0  0  0
 20 21  1  0  0  0  0
 21 27  1  0  0  0  0
 21 22  2  0  0  0  0
 23 22  1  0  0  0  0
 23 11  1  0  0  0  0
 24 23  2  0  0  0  0
 25 19  1  0  0  0  0
 26 20  1  0  0  0  0
 28  1  1  0  0  0  0
 28 29  2  0  0  0  0
 30 28  2  0  0  0  0
 31 28  1  0  0  0  0
 31 32  1  0  0  0  0
 33 32  2  0  0  0  0
 34 33  1  0  0  0  0
 35 42  1  0  0  0  0
 35 34  2  0  0  0  0
 36 35  1  0  0  0  0
 37 39  1  0  0  0  0
 37 36  2  0  0  0  0
 38 37  1  0  0  0  0
 39 41  2  0  0  0  0
 40 39  1  0  0  0  0
 41 42  1  0  0  0  0
 42 31  2  0  0  0  0
M  END
>  <minimizedAffinity>
-6.59869051

$$$$

 OpenBabel03272504253D

 42 46  0  0  0  0  0  0  0  0999 V2000
   37.1950   27.5610   33.9000 C   0  0  0  0  0  0  0  0  0  0  0  0
   36.6260   27.2060   32.6760 C   0  0  0  0  0  0  0  0  0  0  0  0
   35.5560   27.8520   32.1030 C   0  0  0  0  0  0  0  0  0  0  0  0
   34.9640   28.9350   32.7360 C   0  0  0  0  0  0  0  0  0  0  0  0
   35.4610   29.3580   33.9490 C   0  0  0  0  0  0  0  0  0  0  0  0
   36.5200   28.6590   34.4380 C   0  0  0  0  0  0  0  0  0  0  0  0
   35.1740   27.4980   31.1310 H   0  0  0  0  0  0  0  0  0  0  0  0
   34.1290   29.3910   32.2300 H   0  0  0  0  0  0  0  0  0  0  0  0
   35.0280   30.1840   34.4520 H   0  0  0  0  0  0  0  0  0  0  0  0
   36.8960   29.0230   35.4110 H   0  0  0  0  0  0  0  0  0  0  0  0
   37.3960   23.8710   31.3400 C   0  0  0  0  0  0  0  0  0  0  0  0
   38.4630   24.1740   30.5980 C   0  0  0  0  0  0  0  0  0  0  0  0
   38.9330   25.4150   30.5010 C   0  0  0  0  0  0  0  0  0  0  0  0
   38.2990   26.3840   31.1890 N   0  0  0  0  0  0  0  0  0  0  0  0
   37.2350   26.1110   31.9470 C   0  0  0  0  0  0  0  0  0  0  0  0
   36.7800   24.8540   32.0220 N   0  0  0  0  0  0  0  0  0  0  0  0
   38.9190   23.3450   30.0840 H   0  0  0  0  0  0  0  0  0  0  0  0
   39.8010   25.4840   29.8500 H   0  0  0  0  0  0  0  0  0  0  0  0
   35.0510   21.1350   32.0870 C   0  0  0  0  0  0  0  0  0  0  0  0
   35.6820   20.0350   31.4700 C   0  0  0  0  0  0  0  0  0  0  0  0
   36.9060   20.2660   30.8000 C   0  0  0  0  0  0  0  0  0  0  0  0
   37.4200   21.5340   30.7800 N   0  0  0  0  0  0  0  0  0  0  0  0
   36.7950   22.5430   31.3730 C   0  0  0  0  0  0  0  0  0  0  0  0
   35.5990   22.3450   32.0340 N   0  0  0  0  0  0  0  0  0  0  0  0
   34.1150   20.9660   32.6010 H   0  0  0  0  0  0  0  0  0  0  0  0
   35.3000   19.0460   31.4760 H   0  0  0  0  0  0  0  0  0  0  0  0
   37.4650   19.4950   30.2990 H   0  0  0  0  0  0  0  0  0  0  0  0
   38.5160   26.7840   34.6270 S   0  0  0  0  0  0  0  0  0  0  0  0
   38.5060   27.4660   35.9370 O   0  0  0  0  0  0  0  0  0  0  0  0
   39.8140   27.3150   34.1340 O   0  0  0  0  0  0  0  0  0  0  0  0
   38.5090   25.4090   35.6400 C   0  0  0  0  0  0  0  0  0  0  0  0
   38.0030   25.1910   36.8430 N   0  0  0  0  0  0  0  0  0  0  0  0
   38.0950   24.1360   37.6470 C   0  0  0  0  0  3  0  0  0  0  0  0
   38.8060   23.0910   37.2220 N   0  0  0  0  0  0  0  0  0  0  0  0
   39.3730   23.1870   36.0140 C   0  0  0  0  0  0  0  0  0  0  0  0
   40.0860   22.0580   35.6470 C   0  0  0  0  0  3  0  0  0  0  0  0
   40.7220   21.9990   34.4290 C   0  0  0  0  0  0  0  0  0  0  0  0
   41.2750   21.1220   34.1460 H   0  0  0  0  0  0  0  0  0  0  0  0
   40.6300   23.0860   33.5900 C   0  0  0  0  0  0  0  0  0  0  0  0
   41.1230   23.0400   32.6450 H   0  0  0  0  0  0  0  0  0  0  0  0
   39.9050   24.1710   34.0220 C   0  0  0  0  0  3  0  0  0  0  0  0
   39.2460   24.2980   35.2270 C   0  0  0  0  0  0  0  0  0  0  0  0
  1  6  1  0  0  0  0
  1 28  1  0  0  0  0
  2  1  2  0  0  0  0
  3  2  1  0  0  0  0
  3  4  2  0  0  0  0
  4  5  1  0  0  0  0
  5  6  2  0  0  0  0
  5  9  1  0  0  0  0
  6 10  1  0  0  0  0
  7  3  1  0  0  0  0
  8  4  1  0  0  0  0
 11 23  1  0  0  0  0
 11 16  1  0  0  0  0
 12 11  2  0  0  0  0
 13 12  1  0  0  0  0
 13 14  2  0  0  0  0
 14 15  1  0  0  0  0
 15 16  2  0  0  0  0
 15  2  1  0  0  0  0
 17 12  1  0  0  0  0
 18 13  1  0  0  0  0
 19 25  1  0  0  0  0
 20 26  1  0  0  0  0
 20 19  2  0  0  0  0
 21 20  1  0  0  0  0
 22 21  2  0  0  0  0
 22 23  1  0  0  0  0
 23 24  2  0  0  0  0
 24 19  1  0  0  0  0
 27 21  1  0  0  0  0
 28 31  1  0  0  0  0
 28 29  2  0  0  0  0
 30 28  2  0  0  0  0
 31 32  1  0  0  0  0
 32 33  2  0  0  0  0
 34 33  1  0  0  0  0
 35 34  2  0  0  0  0
 36 35  1  0  0  0  0
 37 36  2  0  0  0  0
 38 37  1  0  0  0  0
 39 41  2  0  0  0  0
 39 37  1  0  0  0  0
 40 39  1  0  0  0  0
 41 42  1  0  0  0  0
 42 31  2  0  0  0  0
 42 35  1  0  0  0  0
M  END
>  <minimizedAffinity>
-6.54542017

$$$$

 OpenBabel03272504253D

 42 46  0  0  0  0  0  0  0  0999 V2000
   36.9280   21.5960   33.3150 C   0  0  0  0  0  0  0  0  0  0  0  0
   36.5250   22.0060   32.0430 C   0  0  0  0  0  0  0  0  0  0  0  0
   35.4850   21.4430   31.3420 C   0  0  0  0  0  0  0  0  0  0  0  0
   34.7510   20.3990   31.8850 C   0  0  0  0  0  0  0  0  0  0  0  0
   35.0760   19.9300   33.1390 C   0  0  0  0  0  0  0  0  0  0  0  0
   36.1190   20.5470   33.7560 C   0  0  0  0  0  0  0  0  0  0  0  0
   35.2400   21.8340   30.3400 H   0  0  0  0  0  0  0  0  0  0  0  0
   33.9510   20.0060   31.2780 H   0  0  0  0  0  0  0  0  0  0  0  0
   34.5300   19.1350   33.5760 H   0  0  0  0  0  0  0  0  0  0  0  0
   36.3540   20.1490   34.7590 H   0  0  0  0  0  0  0  0  0  0  0  0
   37.5440   25.3980   31.0660 C   0  0  0  0  0  0  0  0  0  0  0  0
   38.5620   25.0970   30.2590 C   0  0  0  0  0  0  0  0  0  0  0  0
   38.9420   23.8420   30.0300 C   0  0  0  0  0  0  0  0  0  0  0  0
   38.2560   22.8560   30.6400 N   0  0  0  0  0  0  0  0  0  0  0  0
   37.2260   23.1250   31.4460 C   0  0  0  0  0  0  0  0  0  0  0  0
   36.8700   24.3970   31.6630 N   0  0  0  0  0  0  0  0  0  0  0  0
   39.0560   25.9380   29.8030 H   0  0  0  0  0  0  0  0  0  0  0  0
   39.7910   23.7780   29.3550 H   0  0  0  0  0  0  0  0  0  0  0  0
   36.0970   28.2490   32.8910 C   0  0  0  0  0  0  0  0  0  0  0  0
   36.4630   29.3350   32.0690 C   0  0  0  0  0  0  0  0  0  0  0  0
   37.2110   29.0570   30.9010 C   0  0  0  0  0  0  0  0  0  0  0  0
   37.5440   27.7600   30.6220 N   0  0  0  0  0  0  0  0  0  0  0  0
   37.1810   26.7650   31.4210 C   0  0  0  0  0  0  0  0  0  0  0  0
   36.4500   27.0090   32.5680 N   0  0  0  0  0  0  0  0  0  0  0  0
   35.5250   28.4530   33.7850 H   0  0  0  0  0  0  0  0  0  0  0  0
   36.2140   30.3460   32.2690 H   0  0  0  0  0  0  0  0  0  0  0  0
   37.5380   29.8140   30.2100 H   0  0  0  0  0  0  0  0  0  0  0  0
   38.2040   22.2740   34.2030 S   0  0  0  0  0  0  0  0  0  0  0  0
   39.3180   21.4490   33.6930 O   0  0  0  0  0  0  0  0  0  0  0  0
   38.2240   21.7910   35.6090 O   0  0  0  0  0  0  0  0  0  0  0  0
   39.2680   23.5270   33.7390 C   0  0  0  0  0  0  0  0  0  0  0  0
   40.3530   23.5390   32.9810 N   0  0  0  0  0  0  0  0  0  0  0  0
   41.2150   24.5150   32.7130 C   0  0  0  0  0  3  0  0  0  0  0  0
   41.0020   25.7040   33.2760 N   0  0  0  0  0  0  0  0  0  0  0  0
   39.9330   25.8230   34.0700 C   0  0  0  0  0  0  0  0  0  0  0  0
   39.7810   27.0900   34.6080 C   0  0  0  0  0  3  0  0  0  0  0  0
   38.7230   27.3740   35.4390 C   0  0  0  0  0  0  0  0  0  0  0  0
   38.6080   28.3570   35.8560 H   0  0  0  0  0  0  0  0  0  0  0  0
   37.8240   26.3700   35.7200 C   0  0  0  0  0  0  0  0  0  0  0  0
   37.0040   26.5910   36.3650 H   0  0  0  0  0  0  0  0  0  0  0  0
   38.0400   25.1380   35.1510 C   0  0  0  0  0  3  0  0  0  0  0  0
   39.0760   24.7850   34.3110 C   0  0  0  0  0  0  0  0  0  0  0  0
  1  6  1  0  0  0  0
  1 28  1  0  0  0  0
  2  1  2  0  0  0  0
  3  4  2  0  0  0  0
  3  2  1  0  0  0  0
  4  5  1  0  0  0  0
  5  9  1  0  0  0  0
  5  6  2  0  0  0  0
  6 10  1  0  0  0  0
  7  3  1  0  0  0  0
  8  4  1  0  0  0  0
 11 23  1  0  0  0  0
 11 16  1  0  0  0  0
 12 11  2  0  0  0  0
 13 12  1  0  0  0  0
 13 14  2  0  0  0  0
 14 15  1  0  0  0  0
 15 16  2  0  0  0  0
 15  2  1  0  0  0  0
 17 12  1  0  0  0  0
 18 13  1  0  0  0  0
 19 25  1  0  0  0  0
 20 26  1  0  0  0  0
 20 19  2  0  0  0  0
 21 20  1  0  0  0  0
 22 21  2  0  0  0  0
 22 23  1  0  0  0  0
 23 24  2  0  0  0  0
 24 19  1  0  0  0  0
 27 21  1  0  0  0  0
 28 30  2  0  0  0  0
 29 28  2  0  0  0  0
 31 28  1  0  0  0  0
 31 42  1  0  0  0  0
 32 31  2  0  0  0  0
 33 32  1  0  0  0  0
 33 34  2  0  0  0  0
 34 35  1  0  0  0  0
 35 42  2  0  0  0  0
 35 36  1  0  0  0  0
 36 37  2  0  0  0  0
 37 39  1  0  0  0  0
 37 38  1  0  0  0  0
 39 40  1  0  0  0  0
 41 39  2  0  0  0  0
 42 41  1  0  0  0  0
M  END
>  <minimizedAffinity>
-6.46893835

$$$$

 OpenBabel03272504253D

 42 46  0  0  0  0  0  0  0  0999 V2000
   37.4740   22.6930   33.8240 C   0  0  0  0  0  0  0  0  0  0  0  0
   37.2600   23.2680   32.5700 C   0  0  0  0  0  0  0  0  0  0  0  0
   36.5270   22.6820   31.5650 C   0  0  0  0  0  0  0  0  0  0  0  0
   35.9360   21.4420   31.7540 C   0  0  0  0  0  0  0  0  0  0  0  0
   36.0920   20.8000   32.9630 C   0  0  0  0  0  0  0  0  0  0  0  0
   36.8340   21.4550   33.8960 C   0  0  0  0  0  0  0  0  0  0  0  0
   36.4130   23.2130   30.6050 H   0  0  0  0  0  0  0  0  0  0  0  0
   35.3770   21.0430   30.9220 H   0  0  0  0  0  0  0  0  0  0  0  0
   35.6500   19.8530   33.1330 H   0  0  0  0  0  0  0  0  0  0  0  0
   36.9400   20.9160   34.8540 H   0  0  0  0  0  0  0  0  0  0  0  0
   37.6820   26.9080   32.3080 C   0  0  0  0  0  0  0  0  0  0  0  0
   38.9220   26.9500   31.8180 C   0  0  0  0  0  0  0  0  0  0  0  0
   39.6320   25.8490   31.5830 C   0  0  0  0  0  0  0  0  0  0  0  0
   39.0570   24.6610   31.8510 N   0  0  0  0  0  0  0  0  0  0  0  0
   37.8150   24.5860   32.3330 C   0  0  0  0  0  0  0  0  0  0  0  0
   37.1260   25.7100   32.5650 N   0  0  0  0  0  0  0  0  0  0  0  0
   39.3100   27.9360   31.6230 H   0  0  0  0  0  0  0  0  0  0  0  0
   40.6230   26.0650   31.1920 H   0  0  0  0  0  0  0  0  0  0  0  0
   35.6870   29.2820   34.2900 C   0  0  0  0  0  0  0  0  0  0  0  0
   35.4720   30.3250   33.3650 C   0  0  0  0  0  0  0  0  0  0  0  0
   36.0300   30.1860   32.0720 C   0  0  0  0  0  0  0  0  0  0  0  0
   36.7470   29.0580   31.7790 N   0  0  0  0  0  0  0  0  0  0  0  0
   36.9270   28.0990   32.6780 C   0  0  0  0  0  0  0  0  0  0  0  0
   36.3930   28.2100   33.9470 N   0  0  0  0  0  0  0  0  0  0  0  0
   35.2630   29.3810   35.2800 H   0  0  0  0  0  0  0  0  0  0  0  0
   34.9190   31.2050   33.5740 H   0  0  0  0  0  0  0  0  0  0  0  0
   35.9240   30.9240   31.2960 H   0  0  0  0  0  0  0  0  0  0  0  0
   38.3720   23.3950   35.0810 S   0  0  0  0  0  0  0  0  0  0  0  0
   37.8820   22.5800   36.2110 O   0  0  0  0  0  0  0  0  0  0  0  0
   37.8010   24.6990   35.5110 O   0  0  0  0  0  0  0  0  0  0  0  0
   39.8760   22.8940   35.7160 C   0  0  0  0  0  0  0  0  0  0  0  0
   40.2280   21.8590   36.4620 N   0  0  0  0  0  0  0  0  0  0  0  0
   41.3940   21.5460   37.0190 C   0  0  0  0  0  3  0  0  0  0  0  0
   42.4160   22.3790   36.8300 N   0  0  0  0  0  0  0  0  0  0  0  0
   42.1890   23.4700   36.0900 C   0  0  0  0  0  0  0  0  0  0  0  0
   43.3040   24.2770   35.9380 C   0  0  0  0  0  3  0  0  0  0  0  0
   43.2330   25.4340   35.1960 C   0  0  0  0  0  0  0  0  0  0  0  0
   44.0990   26.0590   35.0800 H   0  0  0  0  0  0  0  0  0  0  0  0
   42.0310   25.7640   34.6140 C   0  0  0  0  0  0  0  0  0  0  0  0
   41.9760   26.6610   34.0400 H   0  0  0  0  0  0  0  0  0  0  0  0
   40.9680   24.9150   34.8090 C   0  0  0  0  0  3  0  0  0  0  0  0
   40.9680   23.7440   35.5390 C   0  0  0  0  0  0  0  0  0  0  0  0
  1  6  1  0  0  0  0
  1 28  1  0  0  0  0
  2  1  2  0  0  0  0
  3  4  2  0  0  0  0
  3  2  1  0  0  0  0
  4  5  1  0  0  0  0
  5  9  1  0  0  0  0
  5  6  2  0  0  0  0
  6 10  1  0  0  0  0
  7  3  1  0  0  0  0
  8  4  1  0  0  0  0
 11 16  1  0  0  0  0
 11 23  1  0  0  0  0
 12 11  2  0  0  0  0
 13 12  1  0  0  0  0
 13 14  2  0  0  0  0
 14 15  1  0  0  0  0
 15 16  2  0  0  0  0
 15  2  1  0  0  0  0
 17 12  1  0  0  0  0
 18 13  1  0  0  0  0
 19 25  1  0  0  0  0
 20 26  1  0  0  0  0
 20 19  2  0  0  0  0
 21 20  1  0  0  0  0
 22 21  2  0  0  0  0
 22 23  1  0  0  0  0
 23 24  2  0  0  0  0
 24 19  1  0  0  0  0
 27 21  1  0  0  0  0
 28 30  2  0  0  0  0
 28 31  1  0  0  0  0
 28 29  2  0  0  0  0
 31 32  1  0  0  0  0
 32 33  2  0  0  0  0
 34 33  1  0  0  0  0
 35 34  2  0  0  0  0
 36 35  1  0  0  0  0
 37 36  2  0  0  0  0
 38 37  1  0  0  0  0
 39 41  2  0  0  0  0
 39 37  1  0  0  0  0
 40 39  1  0  0  0  0
 41 42  1  0  0  0  0
 42 31  2  0  0  0  0
 42 35  1  0  0  0  0
M  END
>  <minimizedAffinity>
-6.4671793

$$$$

 OpenBabel03272504253D

 42 46  0  0  0  0  0  0  0  0999 V2000
   38.7620   26.3130   34.0150 C   0  0  0  0  0  0  0  0  0  0  0  0
   37.6980   26.1420   33.1270 C   0  0  0  0  0  0  0  0  0  0  0  0
   36.5800   26.9420   33.0950 C   0  0  0  0  0  0  0  0  0  0  0  0
   36.4470   28.0040   33.9770 C   0  0  0  0  0  0  0  0  0  0  0  0
   37.4510   28.2500   34.8890 C   0  0  0  0  0  0  0  0  0  0  0  0
   38.5170   27.4070   34.8460 C   0  0  0  0  0  0  0  0  0  0  0  0
   35.7890   26.7280   32.3580 H   0  0  0  0  0  0  0  0  0  0  0  0
   35.5440   28.5870   33.8960 H   0  0  0  0  0  0  0  0  0  0  0  0
   37.3740   29.0560   35.5710 H   0  0  0  0  0  0  0  0  0  0  0  0
   39.3040   27.6310   35.5880 H   0  0  0  0  0  0  0  0  0  0  0  0
   37.4260   22.9010   31.4170 C   0  0  0  0  0  0  0  0  0  0  0  0
   38.1040   23.1830   30.3040 C   0  0  0  0  0  0  0  0  0  0  0  0
   38.6330   24.3840   30.0780 C   0  0  0  0  0  0  0  0  0  0  0  0
   38.4710   25.3310   31.0220 N   0  0  0  0  0  0  0  0  0  0  0  0
   37.8050   25.0760   32.1500 C   0  0  0  0  0  0  0  0  0  0  0  0
   37.2790   23.8610   32.3490 N   0  0  0  0  0  0  0  0  0  0  0  0
   38.1970   22.3730   29.6010 H   0  0  0  0  0  0  0  0  0  0  0  0
   39.1440   24.4430   29.1210 H   0  0  0  0  0  0  0  0  0  0  0  0
   34.8170   20.4700   32.3290 C   0  0  0  0  0  0  0  0  0  0  0  0
   35.4690   19.2420   32.0920 C   0  0  0  0  0  0  0  0  0  0  0  0
   36.7990   19.2820   31.6130 C   0  0  0  0  0  0  0  0  0  0  0  0
   37.3900   20.4980   31.4030 N   0  0  0  0  0  0  0  0  0  0  0  0
   36.7430   21.6320   31.6380 C   0  0  0  0  0  0  0  0  0  0  0  0
   35.4430   21.6210   32.1060 N   0  0  0  0  0  0  0  0  0  0  0  0
   33.8000   20.4470   32.6950 H   0  0  0  0  0  0  0  0  0  0  0  0
   35.0270   18.2910   32.2490 H   0  0  0  0  0  0  0  0  0  0  0  0
   37.3820   18.4030   31.4020 H   0  0  0  0  0  0  0  0  0  0  0  0
   40.1530   25.3430   34.0730 S   0  0  0  0  0  0  0  0  0  0  0  0
   41.0190   26.2130   34.8950 O   0  0  0  0  0  0  0  0  0  0  0  0
   40.9350   25.4170   32.8100 O   0  0  0  0  0  0  0  0  0  0  0  0
   40.6040   24.2110   35.2680 C   0  0  0  0  0  0  0  0  0  0  0  0
   41.6580   23.4200   35.3940 N   0  0  0  0  0  0  0  0  0  0  0  0
   41.9370   22.4790   36.2910 C   0  0  0  0  0  3  0  0  0  0  0  0
   41.0390   22.2480   37.2480 N   0  0  0  0  0  0  0  0  0  0  0  0
   39.9230   22.9850   37.2320 C   0  0  0  0  0  0  0  0  0  0  0  0
   39.0480   22.6870   38.2630 C   0  0  0  0  0  3  0  0  0  0  0  0
   37.8580   23.3650   38.3880 C   0  0  0  0  0  0  0  0  0  0  0  0
   37.1810   23.1310   39.1880 H   0  0  0  0  0  0  0  0  0  0  0  0
   37.5620   24.3420   37.4650 C   0  0  0  0  0  0  0  0  0  0  0  0
   36.6390   24.8670   37.5620 H   0  0  0  0  0  0  0  0  0  0  0  0
   38.4790   24.5820   36.4690 C   0  0  0  0  0  3  0  0  0  0  0  0
   39.6860   23.9420   36.2840 C   0  0  0  0  0  0  0  0  0  0  0  0
  1 28  1  0  0  0  0
  1  6  1  0  0  0  0
  2  1  2  0  0  0  0
  3  2  1  0  0  0  0
  3  4  2  0  0  0  0
  4  5  1  0  0  0  0
  5  9  1  0  0  0  0
  6  5  2  0  0  0  0
  6 10  1  0  0  0  0
  7  3  1  0  0  0  0
  8  4  1  0  0  0  0
 11 23  1  0  0  0  0
 11 16  1  0  0  0  0
 12 11  2  0  0  0  0
 13 12  1  0  0  0  0
 13 14  2  0  0  0  0
 14 15  1  0  0  0  0
 15 16  2  0  0  0  0
 15  2  1  0  0  0  0
 17 12  1  0  0  0  0
 18 13  1  0  0  0  0
 19 25  1  0  0  0  0
 20 26  1  0  0  0  0
 20 19  2  0  0  0  0
 21 20  1  0  0  0  0
 22 21  2  0  0  0  0
 22 23  1  0  0  0  0
 23 24  2  0  0  0  0
 24 19  1  0  0  0  0
 27 21  1  0  0  0  0
 28 29  2  0  0  0  0
 28 31  1  0  0  0  0
 30 28  2  0  0  0  0
 31 32  2  0  0  0  0
 31 42  1  0  0  0  0
 32 33  1  0  0  0  0
 33 34  2  0  0  0  0
 35 34  1  0  0  0  0
 35 36  1  0  0  0  0
 36 37  2  0  0  0  0
 37 38  1  0  0  0  0
 39 40  1  0  0  0  0
 39 37  1  0  0  0  0
 41 39  2  0  0  0  0
 42 41  1  0  0  0  0
 42 35  2  0  0  0  0
M  END
>  <minimizedAffinity>
-6.30193472

$$$$

 OpenBabel03272504253D

 42 46  0  0  0  0  0  0  0  0999 V2000
   37.1670   26.0290   32.6420 C   0  0  0  0  0  0  0  0  0  0  0  0
   36.1620   26.7130   31.9570 C   0  0  0  0  0  0  0  0  0  0  0  0
   35.2180   26.1070   31.1610 C   0  0  0  0  0  0  0  0  0  0  0  0
   35.2140   24.7300   30.9950 C   0  0  0  0  0  0  0  0  0  0  0  0
   36.1700   23.9730   31.6370 C   0  0  0  0  0  0  0  0  0  0  0  0
   37.0610   24.6580   32.4010 C   0  0  0  0  0  0  0  0  0  0  0  0
   34.4610   26.7310   30.6570 H   0  0  0  0  0  0  0  0  0  0  0  0
   34.4460   24.3240   30.3560 H   0  0  0  0  0  0  0  0  0  0  0  0
   36.1870   22.9200   31.5270 H   0  0  0  0  0  0  0  0  0  0  0  0
   37.8130   24.0240   32.9030 H   0  0  0  0  0  0  0  0  0  0  0  0
   35.4670   30.0580   33.3090 C   0  0  0  0  0  0  0  0  0  0  0  0
   35.9710   30.8010   32.3240 C   0  0  0  0  0  0  0  0  0  0  0  0
   36.5400   30.2650   31.2460 C   0  0  0  0  0  0  0  0  0  0  0  0
   36.5930   28.9210   31.1660 N   0  0  0  0  0  0  0  0  0  0  0  0
   36.0880   28.1500   32.1320 C   0  0  0  0  0  0  0  0  0  0  0  0
   35.5260   28.7170   33.2070 N   0  0  0  0  0  0  0  0  0  0  0  0
   35.8850   31.8670   32.4570 H   0  0  0  0  0  0  0  0  0  0  0  0
   36.9040   31.0140   30.5480 H   0  0  0  0  0  0  0  0  0  0  0  0
   33.1190   30.9570   35.9970 C   0  0  0  0  0  0  0  0  0  0  0  0
   33.9400   31.7110   36.8600 C   0  0  0  0  0  0  0  0  0  0  0  0
   35.2960   31.8870   36.4960 C   0  0  0  0  0  0  0  0  0  0  0  0
   35.7460   31.3230   35.3330 N   0  0  0  0  0  0  0  0  0  0  0  0
   34.9410   30.6200   34.5470 C   0  0  0  0  0  0  0  0  0  0  0  0
   33.6130   30.4330   34.8800 N   0  0  0  0  0  0  0  0  0  0  0  0
   32.0820   30.8190   36.2690 H   0  0  0  0  0  0  0  0  0  0  0  0
   33.6090   32.1560   37.7640 H   0  0  0  0  0  0  0  0  0  0  0  0
   36.0030   32.4440   37.0850 H   0  0  0  0  0  0  0  0  0  0  0  0
   38.3410   26.7520   33.6320 S   0  0  0  0  0  0  0  0  0  0  0  0
   38.8340   25.5510   34.3370 O   0  0  0  0  0  0  0  0  0  0  0  0
   37.7360   27.4380   34.8030 O   0  0  0  0  0  0  0  0  0  0  0  0
   40.0120   26.9360   33.3300 C   0  0  0  0  0  0  0  0  0  0  0  0
   41.0710   26.8870   34.1220 N   0  0  0  0  0  0  0  0  0  0  0  0
   42.3550   27.1280   33.8720 C   0  0  0  0  0  3  0  0  0  0  0  0
   42.6910   27.4830   32.6320 N   0  0  0  0  0  0  0  0  0  0  0  0
   41.7060   27.5690   31.7320 C   0  0  0  0  0  0  0  0  0  0  0  0
   42.1410   27.9370   30.4690 C   0  0  0  0  0  3  0  0  0  0  0  0
   41.2470   28.0610   29.4310 C   0  0  0  0  0  0  0  0  0  0  0  0
   41.5870   28.3470   28.4530 H   0  0  0  0  0  0  0  0  0  0  0  0
   39.9170   27.8120   29.6800 C   0  0  0  0  0  0  0  0  0  0  0  0
   39.2240   27.9090   28.8750 H   0  0  0  0  0  0  0  0  0  0  0  0
   39.5590   27.4520   30.9580 C   0  0  0  0  0  3  0  0  0  0  0  0
   40.3990   27.3100   32.0420 C   0  0  0  0  0  0  0  0  0  0  0  0
  1 28  1  0  0  0  0
  2 15  1  0  0  0  0
  2  1  2  0  0  0  0
  3  2  1  0  0  0  0
  4  3  2  0  0  0  0
  4  5  1  0  0  0  0
  5  6  2  0  0  0  0
  6  1  1  0  0  0  0
  6 10  1  0  0  0  0
  7  3  1  0  0  0  0
  8  4  1  0  0  0  0
  9  5  1  0  0  0  0
 11 23  1  0  0  0  0
 12 17  1  0  0  0  0
 12 11  2  0  0  0  0
 13 12  1  0  0  0  0
 14 13  2  0  0  0  0
 14 15  1  0  0  0  0
 15 16  2  0  0  0  0
 16 11  1  0  0  0  0
 18 13  1  0  0  0  0
 19 25  1  0  0  0  0
 19 20  1  0  0  0  0
 20 26  1  0  0  0  0
 21 20  2  0  0  0  0
 21 27  1  0  0  0  0
 22 21  1  0  0  0  0
 23 24  1  0  0  0  0
 23 22  2  0  0  0  0
 24 19  2  0  0  0  0
 28 29  2  0  0  0  0
 28 30  2  0  0  0  0
 31 28  1  0  0  0  0
 31 32  1  0  0  0  0
 33 32  2  0  0  0  0
 34 33  1  0  0  0  0
 35 42  1  0  0  0  0
 35 34  2  0  0  0  0
 36 35  1  0  0  0  0
 37 39  1  0  0  0  0
 37 36  2  0  0  0  0
 38 37  1  0  0  0  0
 39 41  2  0  0  0  0
 40 39  1  0  0  0  0
 41 42  1  0  0  0  0
 42 31  2  0  0  0  0
M  END
>  <minimizedAffinity>
-6.24556398

$$$$

 OpenBabel03272504253D

 42 46  0  0  0  0  0  0  0  0999 V2000
   37.3160   27.1810   33.4930 C   0  0  0  0  0  0  0  0  0  0  0  0
   38.0900   26.0230   33.5950 C   0  0  0  0  0  0  0  0  0  0  0  0
   38.8200   25.6750   34.7070 C   0  0  0  0  0  0  0  0  0  0  0  0
   38.8240   26.4880   35.8310 C   0  0  0  0  0  0  0  0  0  0  0  0
   38.0860   27.6520   35.8220 C   0  0  0  0  0  0  0  0  0  0  0  0
   37.3970   27.9140   34.6790 C   0  0  0  0  0  0  0  0  0  0  0  0
   39.4020   24.7390   34.6940 H   0  0  0  0  0  0  0  0  0  0  0  0
   39.4200   26.1530   36.6650 H   0  0  0  0  0  0  0  0  0  0  0  0
   38.0710   28.2880   36.6680 H   0  0  0  0  0  0  0  0  0  0  0  0
   36.8150   28.8520   34.7030 H   0  0  0  0  0  0  0  0  0  0  0  0
   37.4770   23.1270   31.4190 C   0  0  0  0  0  0  0  0  0  0  0  0
   38.1840   23.5020   30.3520 C   0  0  0  0  0  0  0  0  0  0  0  0
   38.8390   24.6600   30.3020 C   0  0  0  0  0  0  0  0  0  0  0  0
   38.7770   25.4640   31.3810 N   0  0  0  0  0  0  0  0  0  0  0  0
   38.0840   25.1130   32.4670 C   0  0  0  0  0  0  0  0  0  0  0  0
   37.4320   23.9440   32.4870 N   0  0  0  0  0  0  0  0  0  0  0  0
   38.1920   22.8020   29.5330 H   0  0  0  0  0  0  0  0  0  0  0  0
   39.3560   24.8090   29.3580 H   0  0  0  0  0  0  0  0  0  0  0  0
   34.8190   20.7530   32.3380 C   0  0  0  0  0  0  0  0  0  0  0  0
   35.1490   19.6300   31.5530 C   0  0  0  0  0  0  0  0  0  0  0  0
   36.2840   19.7200   30.7130 C   0  0  0  0  0  0  0  0  0  0  0  0
   37.0060   20.8830   30.7000 N   0  0  0  0  0  0  0  0  0  0  0  0
   36.6620   21.9190   31.4550 C   0  0  0  0  0  0  0  0  0  0  0  0
   35.5580   21.8560   32.2830 N   0  0  0  0  0  0  0  0  0  0  0  0
   33.9530   20.6910   32.9820 H   0  0  0  0  0  0  0  0  0  0  0  0
   34.6030   18.7210   31.5500 H   0  0  0  0  0  0  0  0  0  0  0  0
   36.6190   18.9200   30.0760 H   0  0  0  0  0  0  0  0  0  0  0  0
   36.4050   27.6320   32.1350 S   0  0  0  0  0  0  0  0  0  0  0  0
   35.2840   28.3140   32.8130 O   0  0  0  0  0  0  0  0  0  0  0  0
   35.6350   26.4890   31.5770 O   0  0  0  0  0  0  0  0  0  0  0  0
   36.4400   29.1100   31.2800 C   0  0  0  0  0  0  0  0  0  0  0  0
   35.7740   30.2430   31.4310 N   0  0  0  0  0  0  0  0  0  0  0  0
   35.7560   31.3470   30.6900 C   0  0  0  0  0  3  0  0  0  0  0  0
   36.5170   31.3720   29.5960 N   0  0  0  0  0  0  0  0  0  0  0  0
   37.2430   30.2810   29.3290 C   0  0  0  0  0  0  0  0  0  0  0  0
   38.0090   30.3940   28.1800 C   0  0  0  0  0  3  0  0  0  0  0  0
   38.8170   29.3570   27.7760 C   0  0  0  0  0  0  0  0  0  0  0  0
   39.4100   29.4460   26.8840 H   0  0  0  0  0  0  0  0  0  0  0  0
   38.8440   28.2120   28.5380 C   0  0  0  0  0  0  0  0  0  0  0  0
   39.4700   27.4080   28.2240 H   0  0  0  0  0  0  0  0  0  0  0  0
   38.0560   28.1730   29.6640 C   0  0  0  0  0  3  0  0  0  0  0  0
   37.2250   29.1710   30.1270 C   0  0  0  0  0  0  0  0  0  0  0  0
  1  2  2  0  0  0  0
  1  6  1  0  0  0  0
  2  3  1  0  0  0  0
  3  4  2  0  0  0  0
  4  8  1  0  0  0  0
  5  4  1  0  0  0  0
  5  9  1  0  0  0  0
  6 10  1  0  0  0  0
  6  5  2  0  0  0  0
  7  3  1  0  0  0  0
 11 23  1  0  0  0  0
 11 16  1  0  0  0  0
 12 11  2  0  0  0  0
 13 12  1  0  0  0  0
 13 14  2  0  0  0  0
 14 15  1  0  0  0  0
 15 16  2  0  0  0  0
 15  2  1  0  0  0  0
 17 12  1  0  0  0  0
 18 13  1  0  0  0  0
 19 25  1  0  0  0  0
 20 19  2  0  0  0  0
 21 20  1  0  0  0  0
 22 21  2  0  0  0  0
 22 23  1  0  0  0  0
 23 24  2  0  0  0  0
 24 19  1  0  0  0  0
 26 20  1  0  0  0  0
 27 21  1  0  0  0  0
 28 29  2  0  0  0  0
 28  1  1  0  0  0  0
 30 28  2  0  0  0  0
 31 32  1  0  0  0  0
 31 28  1  0  0  0  0
 33 32  2  0  0  0  0
 34 33  1  0  0  0  0
 35 34  2  0  0  0  0
 35 42  1  0  0  0  0
 36 35  1  0  0  0  0
 37 36  2  0  0  0  0
 37 39  1  0  0  0  0
 38 37  1  0  0  0  0
 39 41  2  0  0  0  0
 40 39  1  0  0  0  0
 41 42  1  0  0  0  0
 42 31  2  0  0  0  0
M  END
>  <minimizedAffinity>
-6.23027468

$$$$
