
 OpenBabel03272510123D

 38 42  0  0  0  0  0  0  0  0999 V2000
   37.5440   25.9260   31.9600 O   0  0  0  0  0  0  0  0  0  0  0  0
   38.4210   25.0900   32.6460 C   0  0  0  0  0  0  0  0  0  0  0  0
   39.4350   24.5710   31.8610 C   0  0  0  0  0  0  0  0  0  0  0  0
   40.2080   23.7660   32.7060 C   0  0  0  0  0  0  0  0  0  0  0  0
   39.6470   23.8260   33.9420 N   0  0  0  0  0  0  0  0  0  0  0  0
   38.5980   24.6080   33.8900 N   0  0  0  0  0  0  0  0  0  0  0  0
   39.7540   24.6300   30.8260 H   0  0  0  0  0  0  0  0  0  0  0  0
   41.0860   23.1670   32.5520 H   0  0  0  0  0  0  0  0  0  0  0  0
   40.0640   23.1820   35.1400 C   0  0  0  0  0  0  0  0  0  0  0  0
   41.0680   22.2880   35.2200 N   0  0  0  0  0  0  0  0  0  0  0  0
   41.3990   21.7200   36.4150 C   0  0  0  0  0  3  0  0  0  0  0  0
   40.7020   22.0640   37.5370 N   0  0  0  0  0  0  0  0  0  0  0  0
   39.6940   22.9520   37.4910 C   0  0  0  0  0  0  0  0  0  0  0  0
   39.0220   23.2690   38.6390 C   0  0  0  0  0  3  0  0  0  0  0  0
   37.9820   24.1820   38.6060 C   0  0  0  0  0  0  0  0  0  0  0  0
   37.3760   24.5150   39.4400 H   0  0  0  0  0  0  0  0  0  0  0  0
   37.6210   24.7810   37.3940 C   0  0  0  0  0  0  0  0  0  0  0  0
   36.8100   25.5110   37.2950 H   0  0  0  0  0  0  0  0  0  0  0  0
   38.3090   24.4510   36.2470 C   0  0  0  0  0  3  0  0  0  0  0  0
   39.3430   23.5400   36.2850 C   0  0  0  0  0  0  0  0  0  0  0  0
   35.7780   29.1040   34.0940 C   0  0  0  0  0  0  0  0  0  0  0  0
   35.5190   28.9160   32.7810 C   0  0  0  0  0  0  0  0  0  0  0  0
   36.0590   27.8990   32.0170 C   0  0  0  0  0  0  0  0  0  0  0  0
   36.9160   27.0010   32.5830 C   0  0  0  0  0  0  0  0  0  0  0  0
   37.1880   27.1920   33.9410 C   0  0  0  0  0  0  0  0  0  0  0  0
   36.6380   28.1990   34.6500 N   0  0  0  0  0  0  0  0  0  0  0  0
   34.8500   29.5810   32.2580 H   0  0  0  0  0  0  0  0  0  0  0  0
   35.8480   27.7530   30.9680 H   0  0  0  0  0  0  0  0  0  0  0  0
   37.8590   26.5160   34.4500 H   0  0  0  0  0  0  0  0  0  0  0  0
   36.0090   31.0440   35.6530 C   0  0  0  0  0  0  0  0  0  0  0  0
   35.2250   30.1560   34.8990 C   0  0  0  0  0  0  0  0  0  0  0  0
   33.8620   30.3420   34.9630 C   0  0  0  0  0  0  0  0  0  0  0  0
   33.3420   31.3410   35.7250 N   0  0  0  0  0  0  0  0  0  0  0  0
   34.1570   32.1730   36.4380 C   0  0  0  0  0  0  0  0  0  0  0  0
   35.5020   32.0250   36.4040 N   0  0  0  0  0  0  0  0  0  0  0  0
   37.0810   30.9390   35.6360 H   0  0  0  0  0  0  0  0  0  0  0  0
   33.2430   29.6650   34.3840 H   0  0  0  0  0  0  0  0  0  0  0  0
   33.5350   32.8880   36.9690 H   0  0  0  0  0  0  0  0  0  0  0  0
  1 24  1  0  0  0  0
  1  2  1  0  0  0  0
  2  6  2  0  0  0  0
  3  2  1  0  0  0  0
  3  4  2  0  0  0  0
  4  5  1  0  0  0  0
  5  9  1  0  0  0  0
  6  5  1  0  0  0  0
  7  3  1  0  0  0  0
  8  4  1  0  0  0  0
  9 10  2  0  0  0  0
  9 20  1  0  0  0  0
 10 11  1  0  0  0  0
 11 12  2  0  0  0  0
 13 12  1  0  0  0  0
 13 14  1  0  0  0  0
 15 14  2  0  0  0  0
 15 16  1  0  0  0  0
 17 15  1  0  0  0  0
 18 17  1  0  0  0  0
 19 20  1  0  0  0  0
 19 17  2  0  0  0  0
 20 13  2  0  0  0  0
 21 26  1  0  0  0  0
 21 31  1  0  0  0  0
 22 21  2  0  0  0  0
 23 24  2  0  0  0  0
 23 22  1  0  0  0  0
 24 25  1  0  0  0  0
 25 29  1  0  0  0  0
 25 26  2  0  0  0  0
 27 22  1  0  0  0  0
 28 23  1  0  0  0  0
 30 35  1  0  0  0  0
 31 32  1  0  0  0  0
 31 30  2  0  0  0  0
 32 33  2  0  0  0  0
 33 34  1  0  0  0  0
 34 38  1  0  0  0  0
 35 34  2  0  0  0  0
 36 30  1  0  0  0  0
 37 32  1  0  0  0  0
M  END
>  <minimizedAffinity>
-6.84671831

$$$$

 OpenBabel03272510123D

 38 42  0  0  0  0  0  0  0  0999 V2000
   36.1730   27.5410   32.0110 O   0  0  0  0  0  0  0  0  0  0  0  0
   36.2210   28.9270   31.8950 C   0  0  0  0  0  0  0  0  0  0  0  0
   36.4220   29.3780   30.6020 C   0  0  0  0  0  0  0  0  0  0  0  0
   36.4430   30.7760   30.6750 C   0  0  0  0  0  0  0  0  0  0  0  0
   36.2600   31.1120   31.9790 N   0  0  0  0  0  0  0  0  0  0  0  0
   36.1310   30.0150   32.6820 N   0  0  0  0  0  0  0  0  0  0  0  0
   36.5570   28.9440   29.6170 H   0  0  0  0  0  0  0  0  0  0  0  0
   36.5690   31.5490   29.9410 H   0  0  0  0  0  0  0  0  0  0  0  0
   36.2040   32.4080   32.5630 C   0  0  0  0  0  0  0  0  0  0  0  0
   36.4350   33.5580   31.9010 N   0  0  0  0  0  0  0  0  0  0  0  0
   36.3590   34.7570   32.5450 C   0  0  0  0  0  3  0  0  0  0  0  0
   36.0440   34.7870   33.8720 N   0  0  0  0  0  0  0  0  0  0  0  0
   35.8070   33.6580   34.5620 C   0  0  0  0  0  0  0  0  0  0  0  0
   35.4940   33.7330   35.8910 C   0  0  0  0  0  3  0  0  0  0  0  0
   35.2470   32.5780   36.6140 C   0  0  0  0  0  0  0  0  0  0  0  0
   34.9920   32.5040   37.6630 H   0  0  0  0  0  0  0  0  0  0  0  0
   35.3190   31.3330   35.9780 C   0  0  0  0  0  0  0  0  0  0  0  0
   35.1350   30.3810   36.4880 H   0  0  0  0  0  0  0  0  0  0  0  0
   35.6350   31.2750   34.6390 C   0  0  0  0  0  3  0  0  0  0  0  0
   35.8800   32.4290   33.9250 C   0  0  0  0  0  0  0  0  0  0  0  0
   38.0230   25.2850   35.0550 C   0  0  0  0  0  0  0  0  0  0  0  0
   37.6160   26.5540   35.2770 C   0  0  0  0  0  0  0  0  0  0  0  0
   37.0030   27.3540   34.3300 C   0  0  0  0  0  0  0  0  0  0  0  0
   36.7740   26.8720   33.0750 C   0  0  0  0  0  0  0  0  0  0  0  0
   37.1940   25.5590   32.8410 C   0  0  0  0  0  0  0  0  0  0  0  0
   37.7880   24.8130   33.7940 N   0  0  0  0  0  0  0  0  0  0  0  0
   37.7590   27.0100   36.2430 H   0  0  0  0  0  0  0  0  0  0  0  0
   36.6800   28.3680   34.5130 H   0  0  0  0  0  0  0  0  0  0  0  0
   37.0420   25.1170   31.8670 H   0  0  0  0  0  0  0  0  0  0  0  0
   38.1390   24.2170   37.3120 C   0  0  0  0  0  0  0  0  0  0  0  0
   38.6610   24.4440   36.0290 C   0  0  0  0  0  0  0  0  0  0  0  0
   39.8450   23.8080   35.7310 C   0  0  0  0  0  0  0  0  0  0  0  0
   40.4460   23.0110   36.6540 N   0  0  0  0  0  0  0  0  0  0  0  0
   39.8890   22.8290   37.8880 C   0  0  0  0  0  0  0  0  0  0  0  0
   38.7270   23.4360   38.2220 N   0  0  0  0  0  0  0  0  0  0  0  0
   37.2150   24.6930   37.5930 H   0  0  0  0  0  0  0  0  0  0  0  0
   40.2600   23.9720   34.7420 H   0  0  0  0  0  0  0  0  0  0  0  0
   40.5310   22.1620   38.4580 H   0  0  0  0  0  0  0  0  0  0  0  0
  1 24  1  0  0  0  0
  2  1  1  0  0  0  0
  2  6  2  0  0  0  0
  3  4  2  0  0  0  0
  3  2  1  0  0  0  0
  4  5  1  0  0  0  0
  5  9  1  0  0  0  0
  5  6  1  0  0  0  0
  7  3  1  0  0  0  0
  8  4  1  0  0  0  0
  9 20  1  0  0  0  0
 10 11  1  0  0  0  0
 10  9  2  0  0  0  0
 11 12  2  0  0  0  0
 12 13  1  0  0  0  0
 13 14  1  0  0  0  0
 14 15  2  0  0  0  0
 15 16  1  0  0  0  0
 17 18  1  0  0  0  0
 17 15  1  0  0  0  0
 19 17  2  0  0  0  0
 20 13  2  0  0  0  0
 20 19  1  0  0  0  0
 21 22  1  0  0  0  0
 21 31  1  0  0  0  0
 22 27  1  0  0  0  0
 23 28  1  0  0  0  0
 23 22  2  0  0  0  0
 24 23  1  0  0  0  0
 25 24  2  0  0  0  0
 25 26  1  0  0  0  0
 26 21  2  0  0  0  0
 29 25  1  0  0  0  0
 30 36  1  0  0  0  0
 30 35  1  0  0  0  0
 31 30  2  0  0  0  0
 32 31  1  0  0  0  0
 32 33  2  0  0  0  0
 33 34  1  0  0  0  0
 34 35  2  0  0  0  0
 34 38  1  0  0  0  0
 37 32  1  0  0  0  0
M  END
>  <minimizedAffinity>
-6.55882215

$$$$

 OpenBabel03272510123D

 38 42  0  0  0  0  0  0  0  0999 V2000
   37.7510   25.9300   31.9850 O   0  0  0  0  0  0  0  0  0  0  0  0
   38.6200   25.0830   32.6670 C   0  0  0  0  0  0  0  0  0  0  0  0
   39.6410   24.5740   31.8850 C   0  0  0  0  0  0  0  0  0  0  0  0
   40.4040   23.7550   32.7260 C   0  0  0  0  0  0  0  0  0  0  0  0
   39.8290   23.7960   33.9560 N   0  0  0  0  0  0  0  0  0  0  0  0
   38.7830   24.5810   33.9060 N   0  0  0  0  0  0  0  0  0  0  0  0
   39.9720   24.6480   30.8540 H   0  0  0  0  0  0  0  0  0  0  0  0
   41.2830   23.1570   32.5710 H   0  0  0  0  0  0  0  0  0  0  0  0
   40.2330   23.1330   35.1480 C   0  0  0  0  0  0  0  0  0  0  0  0
   41.2350   22.2360   35.2250 N   0  0  0  0  0  0  0  0  0  0  0  0
   41.5520   21.6490   36.4150 C   0  0  0  0  0  3  0  0  0  0  0  0
   40.8430   21.9770   37.5340 N   0  0  0  0  0  0  0  0  0  0  0  0
   39.8380   22.8680   37.4920 C   0  0  0  0  0  0  0  0  0  0  0  0
   39.1540   23.1680   38.6370 C   0  0  0  0  0  3  0  0  0  0  0  0
   38.1160   24.0830   38.6070 C   0  0  0  0  0  0  0  0  0  0  0  0
   37.5020   24.4040   39.4400 H   0  0  0  0  0  0  0  0  0  0  0  0
   37.7690   24.7010   37.4010 C   0  0  0  0  0  0  0  0  0  0  0  0
   36.9610   25.4340   37.3050 H   0  0  0  0  0  0  0  0  0  0  0  0
   38.4680   24.3880   36.2560 C   0  0  0  0  0  3  0  0  0  0  0  0
   39.5010   23.4750   36.2910 C   0  0  0  0  0  0  0  0  0  0  0  0
   35.4750   29.0320   33.7100 C   0  0  0  0  0  0  0  0  0  0  0  0
   36.4140   28.3740   34.4250 C   0  0  0  0  0  0  0  0  0  0  0  0
   37.1980   27.3500   33.9290 C   0  0  0  0  0  0  0  0  0  0  0  0
   37.0480   26.9400   32.6370 C   0  0  0  0  0  0  0  0  0  0  0  0
   36.0770   27.6180   31.8920 C   0  0  0  0  0  0  0  0  0  0  0  0
   35.3340   28.6140   32.4160 N   0  0  0  0  0  0  0  0  0  0  0  0
   36.5960   28.6370   35.4550 H   0  0  0  0  0  0  0  0  0  0  0  0
   37.9470   26.8280   34.5060 H   0  0  0  0  0  0  0  0  0  0  0  0
   35.9080   27.3420   30.8610 H   0  0  0  0  0  0  0  0  0  0  0  0
   33.2650   30.1590   34.0160 C   0  0  0  0  0  0  0  0  0  0  0  0
   34.6540   30.0970   34.2130 C   0  0  0  0  0  0  0  0  0  0  0  0
   35.2150   31.1290   34.9310 C   0  0  0  0  0  0  0  0  0  0  0  0
   34.4340   32.1360   35.4070 N   0  0  0  0  0  0  0  0  0  0  0  0
   33.0870   32.1410   35.1820 C   0  0  0  0  0  0  0  0  0  0  0  0
   32.4960   31.1460   34.4810 N   0  0  0  0  0  0  0  0  0  0  0  0
   32.7800   29.3750   33.4600 H   0  0  0  0  0  0  0  0  0  0  0  0
   36.2860   31.0950   35.0920 H   0  0  0  0  0  0  0  0  0  0  0  0
   32.6660   33.0290   35.6460 H   0  0  0  0  0  0  0  0  0  0  0  0
  1 24  1  0  0  0  0
  1  2  1  0  0  0  0
  2  6  2  0  0  0  0
  3  2  1  0  0  0  0
  3  4  2  0  0  0  0
  4  5  1  0  0  0  0
  5  9  1  0  0  0  0
  6  5  1  0  0  0  0
  7  3  1  0  0  0  0
  8  4  1  0  0  0  0
  9 10  2  0  0  0  0
  9 20  1  0  0  0  0
 10 11  1  0  0  0  0
 11 12  2  0  0  0  0
 13 12  1  0  0  0  0
 13 14  1  0  0  0  0
 15 14  2  0  0  0  0
 15 16  1  0  0  0  0
 17 15  1  0  0  0  0
 18 17  1  0  0  0  0
 19 20  1  0  0  0  0
 19 17  2  0  0  0  0
 20 13  2  0  0  0  0
 21 31  1  0  0  0  0
 21 22  1  0  0  0  0
 22 27  1  0  0  0  0
 23 22  2  0  0  0  0
 23 28  1  0  0  0  0
 24 23  1  0  0  0  0
 25 26  1  0  0  0  0
 25 24  2  0  0  0  0
 26 21  2  0  0  0  0
 29 25  1  0  0  0  0
 30 31  2  0  0  0  0
 30 35  1  0  0  0  0
 31 32  1  0  0  0  0
 32 37  1  0  0  0  0
 32 33  2  0  0  0  0
 34 33  1  0  0  0  0
 34 38  1  0  0  0  0
 35 34  2  0  0  0  0
 36 30  1  0  0  0  0
M  END
>  <minimizedAffinity>
-6.48237419

$$$$

 OpenBabel03272510123D

 38 42  0  0  0  0  0  0  0  0999 V2000
   36.2550   28.8220   33.4870 O   0  0  0  0  0  0  0  0  0  0  0  0
   35.4700   29.7780   34.1260 C   0  0  0  0  0  0  0  0  0  0  0  0
   34.2060   29.3320   34.4700 C   0  0  0  0  0  0  0  0  0  0  0  0
   33.5680   30.4110   35.0930 C   0  0  0  0  0  0  0  0  0  0  0  0
   34.4480   31.4460   35.1030 N   0  0  0  0  0  0  0  0  0  0  0  0
   35.5600   31.0580   34.5320 N   0  0  0  0  0  0  0  0  0  0  0  0
   33.6300   28.4170   34.3800 H   0  0  0  0  0  0  0  0  0  0  0  0
   32.5920   30.5400   35.5220 H   0  0  0  0  0  0  0  0  0  0  0  0
   34.2710   32.7570   35.6260 C   0  0  0  0  0  0  0  0  0  0  0  0
   33.1140   33.2340   36.1250 N   0  0  0  0  0  0  0  0  0  0  0  0
   33.0380   34.5080   36.6050 C   0  0  0  0  0  3  0  0  0  0  0  0
   34.1470   35.3030   36.5780 N   0  0  0  0  0  0  0  0  0  0  0  0
   35.3170   34.8580   36.0870 C   0  0  0  0  0  0  0  0  0  0  0  0
   36.4040   35.6860   36.0780 C   0  0  0  0  0  3  0  0  0  0  0  0
   37.6150   35.2410   35.5760 C   0  0  0  0  0  0  0  0  0  0  0  0
   38.5420   35.7960   35.5140 H   0  0  0  0  0  0  0  0  0  0  0  0
   37.7220   33.9380   35.0760 C   0  0  0  0  0  0  0  0  0  0  0  0
   38.6470   33.5200   34.6650 H   0  0  0  0  0  0  0  0  0  0  0  0
   36.6170   33.1160   35.0920 C   0  0  0  0  0  3  0  0  0  0  0  0
   35.4140   33.5650   35.5930 C   0  0  0  0  0  0  0  0  0  0  0  0
   38.3130   25.6980   35.4310 C   0  0  0  0  0  0  0  0  0  0  0  0
   38.2500   26.9350   35.9720 C   0  0  0  0  0  0  0  0  0  0  0  0
   37.5950   28.0070   35.3950 C   0  0  0  0  0  0  0  0  0  0  0  0
   36.9560   27.8530   34.2000 C   0  0  0  0  0  0  0  0  0  0  0  0
   37.0200   26.5750   33.6360 C   0  0  0  0  0  0  0  0  0  0  0  0
   37.6700   25.5560   34.2340 N   0  0  0  0  0  0  0  0  0  0  0  0
   38.7280   27.1410   36.9170 H   0  0  0  0  0  0  0  0  0  0  0  0
   37.5470   28.9930   35.8320 H   0  0  0  0  0  0  0  0  0  0  0  0
   36.5350   26.3860   32.6890 H   0  0  0  0  0  0  0  0  0  0  0  0
   38.5620   23.9500   37.2000 C   0  0  0  0  0  0  0  0  0  0  0  0
   38.9900   24.5770   36.0200 C   0  0  0  0  0  0  0  0  0  0  0  0
   40.1200   24.0570   35.4290 C   0  0  0  0  0  0  0  0  0  0  0  0
   40.7580   22.9940   35.9880 N   0  0  0  0  0  0  0  0  0  0  0  0
   40.2920   22.4260   37.1390 C   0  0  0  0  0  0  0  0  0  0  0  0
   39.1860   22.9070   37.7530 N   0  0  0  0  0  0  0  0  0  0  0  0
   37.6830   24.3210   37.7010 H   0  0  0  0  0  0  0  0  0  0  0  0
   40.4630   24.5300   34.5150 H   0  0  0  0  0  0  0  0  0  0  0  0
   40.9490   21.6020   37.4040 H   0  0  0  0  0  0  0  0  0  0  0  0
  1  2  1  0  0  0  0
  1 24  1  0  0  0  0
  2  3  1  0  0  0  0
  2  6  2  0  0  0  0
  3  4  2  0  0  0  0
  4  5  1  0  0  0  0
  4  8  1  0  0  0  0
  5  9  1  0  0  0  0
  6  5  1  0  0  0  0
  7  3  1  0  0  0  0
  9 10  1  0  0  0  0
 10 11  2  0  0  0  0
 12 11  1  0  0  0  0
 13 12  2  0  0  0  0
 14 13  1  0  0  0  0
 15 14  2  0  0  0  0
 16 15  1  0  0  0  0
 17 19  2  0  0  0  0
 17 15  1  0  0  0  0
 18 17  1  0  0  0  0
 19 20  1  0  0  0  0
 20  9  2  0  0  0  0
 20 13  1  0  0  0  0
 21 22  1  0  0  0  0
 21 31  1  0  0  0  0
 22 27  1  0  0  0  0
 23 28  1  0  0  0  0
 23 22  2  0  0  0  0
 24 23  1  0  0  0  0
 25 24  2  0  0  0  0
 25 26  1  0  0  0  0
 26 21  2  0  0  0  0
 29 25  1  0  0  0  0
 30 36  1  0  0  0  0
 30 35  1  0  0  0  0
 31 30  2  0  0  0  0
 32 33  2  0  0  0  0
 32 31  1  0  0  0  0
 33 34  1  0  0  0  0
 34 38  1  0  0  0  0
 34 35  2  0  0  0  0
 37 32  1  0  0  0  0
M  END
>  <minimizedAffinity>
-6.33568382

$$$$

 OpenBabel03272510123D

 38 42  0  0  0  0  0  0  0  0999 V2000
   36.2470   27.6700   32.4450 O   0  0  0  0  0  0  0  0  0  0  0  0
   35.7020   28.9180   32.7370 C   0  0  0  0  0  0  0  0  0  0  0  0
   36.2190   29.9510   31.9750 C   0  0  0  0  0  0  0  0  0  0  0  0
   35.5650   31.1130   32.4000 C   0  0  0  0  0  0  0  0  0  0  0  0
   34.6980   30.7500   33.3810 N   0  0  0  0  0  0  0  0  0  0  0  0
   34.7900   29.4570   33.5670 N   0  0  0  0  0  0  0  0  0  0  0  0
   36.9540   30.0710   31.1870 H   0  0  0  0  0  0  0  0  0  0  0  0
   35.6310   32.1440   32.1070 H   0  0  0  0  0  0  0  0  0  0  0  0
   33.8060   31.5700   34.1270 C   0  0  0  0  0  0  0  0  0  0  0  0
   33.7510   32.9130   34.0470 N   0  0  0  0  0  0  0  0  0  0  0  0
   32.8610   33.6180   34.8030 C   0  0  0  0  0  3  0  0  0  0  0  0
   32.0210   32.9510   35.6470 N   0  0  0  0  0  0  0  0  0  0  0  0
   32.0500   31.6110   35.7500 C   0  0  0  0  0  0  0  0  0  0  0  0
   31.1910   30.9820   36.6070 C   0  0  0  0  0  3  0  0  0  0  0  0
   31.2100   29.6030   36.7240 C   0  0  0  0  0  0  0  0  0  0  0  0
   30.5850   28.9900   37.3620 H   0  0  0  0  0  0  0  0  0  0  0  0
   32.1130   28.8540   35.9610 C   0  0  0  0  0  0  0  0  0  0  0  0
   32.1820   27.7620   36.0020 H   0  0  0  0  0  0  0  0  0  0  0  0
   32.9710   29.5030   35.1010 C   0  0  0  0  0  3  0  0  0  0  0  0
   32.9480   30.8770   34.9900 C   0  0  0  0  0  0  0  0  0  0  0  0
   38.3360   25.2030   35.1520 C   0  0  0  0  0  0  0  0  0  0  0  0
   38.0530   26.4890   35.4560 C   0  0  0  0  0  0  0  0  0  0  0  0
   37.3730   27.3560   34.6210 C   0  0  0  0  0  0  0  0  0  0  0  0
   36.9400   26.9300   33.4000 C   0  0  0  0  0  0  0  0  0  0  0  0
   37.2310   25.6000   33.0810 C   0  0  0  0  0  0  0  0  0  0  0  0
   37.8970   24.7870   33.9260 N   0  0  0  0  0  0  0  0  0  0  0  0
   38.3590   26.9040   36.4020 H   0  0  0  0  0  0  0  0  0  0  0  0
   37.1490   28.3830   34.8690 H   0  0  0  0  0  0  0  0  0  0  0  0
   36.9170   25.2000   32.1280 H   0  0  0  0  0  0  0  0  0  0  0  0
   40.2850   23.7300   35.6790 C   0  0  0  0  0  0  0  0  0  0  0  0
   39.0410   24.2920   36.0080 C   0  0  0  0  0  0  0  0  0  0  0  0
   38.5090   23.9240   37.2240 C   0  0  0  0  0  0  0  0  0  0  0  0
   39.1810   23.0620   38.0330 N   0  0  0  0  0  0  0  0  0  0  0  0
   40.3890   22.5480   37.6570 C   0  0  0  0  0  0  0  0  0  0  0  0
   40.9470   22.8830   36.4710 N   0  0  0  0  0  0  0  0  0  0  0  0
   40.7430   23.9870   34.7380 H   0  0  0  0  0  0  0  0  0  0  0  0
   37.5490   24.3510   37.4930 H   0  0  0  0  0  0  0  0  0  0  0  0
   40.7410   21.8890   38.4460 H   0  0  0  0  0  0  0  0  0  0  0  0
  1  2  1  0  0  0  0
  1 24  1  0  0  0  0
  2  6  2  0  0  0  0
  3  4  2  0  0  0  0
  3  2  1  0  0  0  0
  4  5  1  0  0  0  0
  5  6  1  0  0  0  0
  5  9  1  0  0  0  0
  7  3  1  0  0  0  0
  8  4  1  0  0  0  0
  9 20  1  0  0  0  0
 10  9  2  0  0  0  0
 10 11  1  0  0  0  0
 11 12  2  0  0  0  0
 12 13  1  0  0  0  0
 13 14  1  0  0  0  0
 14 15  2  0  0  0  0
 15 16  1  0  0  0  0
 17 18  1  0  0  0  0
 17 15  1  0  0  0  0
 19 17  2  0  0  0  0
 20 19  1  0  0  0  0
 20 13  2  0  0  0  0
 21 22  1  0  0  0  0
 21 31  1  0  0  0  0
 22 27  1  0  0  0  0
 23 28  1  0  0  0  0
 23 22  2  0  0  0  0
 24 23  1  0  0  0  0
 25 24  2  0  0  0  0
 25 26  1  0  0  0  0
 26 21  2  0  0  0  0
 29 25  1  0  0  0  0
 30 31  2  0  0  0  0
 30 35  1  0  0  0  0
 31 32  1  0  0  0  0
 32 37  1  0  0  0  0
 32 33  2  0  0  0  0
 34 33  1  0  0  0  0
 34 38  1  0  0  0  0
 35 34  2  0  0  0  0
 36 30  1  0  0  0  0
M  END
>  <minimizedAffinity>
-6.23087358

$$$$

 OpenBabel03272510123D

 38 42  0  0  0  0  0  0  0  0999 V2000
   36.3970   28.6030   32.9660 O   0  0  0  0  0  0  0  0  0  0  0  0
   35.1460   29.1550   33.2270 C   0  0  0  0  0  0  0  0  0  0  0  0
   34.1190   28.6040   32.4800 C   0  0  0  0  0  0  0  0  0  0  0  0
   32.9520   29.2710   32.8700 C   0  0  0  0  0  0  0  0  0  0  0  0
   33.3070   30.1800   33.8160 N   0  0  0  0  0  0  0  0  0  0  0  0
   34.5980   30.1000   34.0150 N   0  0  0  0  0  0  0  0  0  0  0  0
   34.0060   27.8370   31.7210 H   0  0  0  0  0  0  0  0  0  0  0  0
   31.9240   29.1900   32.5720 H   0  0  0  0  0  0  0  0  0  0  0  0
   32.4790   31.1000   34.5190 C   0  0  0  0  0  0  0  0  0  0  0  0
   31.1690   31.2930   34.2750 N   0  0  0  0  0  0  0  0  0  0  0  0
   30.4530   32.1990   35.0020 C   0  0  0  0  0  3  0  0  0  0  0  0
   31.0760   32.9120   35.9840 N   0  0  0  0  0  0  0  0  0  0  0  0
   32.3820   32.7420   36.2540 C   0  0  0  0  0  0  0  0  0  0  0  0
   32.9660   33.4770   37.2480 C   0  0  0  0  0  3  0  0  0  0  0  0
   34.3100   33.3120   37.5360 C   0  0  0  0  0  0  0  0  0  0  0  0
   34.8860   33.8300   38.2930 H   0  0  0  0  0  0  0  0  0  0  0  0
   35.0690   32.3900   36.8050 C   0  0  0  0  0  0  0  0  0  0  0  0
   36.1350   32.2090   36.9800 H   0  0  0  0  0  0  0  0  0  0  0  0
   34.4650   31.6580   35.8080 C   0  0  0  0  0  3  0  0  0  0  0  0
   33.1260   31.8270   35.5250 C   0  0  0  0  0  0  0  0  0  0  0  0
   38.1880   25.6710   35.4090 C   0  0  0  0  0  0  0  0  0  0  0  0
   38.0320   26.9400   35.8440 C   0  0  0  0  0  0  0  0  0  0  0  0
   37.4550   27.9540   35.1020 C   0  0  0  0  0  0  0  0  0  0  0  0
   36.9990   27.7030   33.8410 C   0  0  0  0  0  0  0  0  0  0  0  0
   37.1590   26.3900   33.3870 C   0  0  0  0  0  0  0  0  0  0  0  0
   37.7280   25.4300   34.1450 N   0  0  0  0  0  0  0  0  0  0  0  0
   38.3650   27.2230   36.8300 H   0  0  0  0  0  0  0  0  0  0  0  0
   37.3330   28.9670   35.4550 H   0  0  0  0  0  0  0  0  0  0  0  0
   36.8190   26.1240   32.3960 H   0  0  0  0  0  0  0  0  0  0  0  0
   39.8990   23.8760   35.7260 C   0  0  0  0  0  0  0  0  0  0  0  0
   38.7860   24.6090   36.1690 C   0  0  0  0  0  0  0  0  0  0  0  0
   38.2760   24.2590   37.3980 C   0  0  0  0  0  0  0  0  0  0  0  0
   38.8460   23.2540   38.1160 N   0  0  0  0  0  0  0  0  0  0  0  0
   39.9280   22.5770   37.6320 C   0  0  0  0  0  0  0  0  0  0  0  0
   40.4600   22.8880   36.4270 N   0  0  0  0  0  0  0  0  0  0  0  0
   40.3340   24.1120   34.7690 H   0  0  0  0  0  0  0  0  0  0  0  0
   37.4170   24.8180   37.7550 H   0  0  0  0  0  0  0  0  0  0  0  0
   40.2150   21.8240   38.3610 H   0  0  0  0  0  0  0  0  0  0  0  0
  1  2  1  0  0  0  0
  1 24  1  0  0  0  0
  2  6  2  0  0  0  0
  3  4  2  0  0  0  0
  3  2  1  0  0  0  0
  4  5  1  0  0  0  0
  5  6  1  0  0  0  0
  5  9  1  0  0  0  0
  7  3  1  0  0  0  0
  8  4  1  0  0  0  0
  9 20  1  0  0  0  0
 10  9  2  0  0  0  0
 10 11  1  0  0  0  0
 11 12  2  0  0  0  0
 12 13  1  0  0  0  0
 13 14  1  0  0  0  0
 14 15  2  0  0  0  0
 15 16  1  0  0  0  0
 17 18  1  0  0  0  0
 17 15  1  0  0  0  0
 19 17  2  0  0  0  0
 20 19  1  0  0  0  0
 20 13  2  0  0  0  0
 21 22  1  0  0  0  0
 21 31  1  0  0  0  0
 22 27  1  0  0  0  0
 23 28  1  0  0  0  0
 23 22  2  0  0  0  0
 24 23  1  0  0  0  0
 25 24  2  0  0  0  0
 25 26  1  0  0  0  0
 26 21  2  0  0  0  0
 29 25  1  0  0  0  0
 30 31  2  0  0  0  0
 30 35  1  0  0  0  0
 31 32  1  0  0  0  0
 32 37  1  0  0  0  0
 32 33  2  0  0  0  0
 34 33  1  0  0  0  0
 34 38  1  0  0  0  0
 35 34  2  0  0  0  0
 36 30  1  0  0  0  0
M  END
>  <minimizedAffinity>
-6.2166996

$$$$

 OpenBabel03272510123D

 38 42  0  0  0  0  0  0  0  0999 V2000
   36.5940   26.4390   32.3110 O   0  0  0  0  0  0  0  0  0  0  0  0
   37.7330   25.7320   32.6880 C   0  0  0  0  0  0  0  0  0  0  0  0
   38.7040   25.6610   31.7040 C   0  0  0  0  0  0  0  0  0  0  0  0
   39.7600   24.9230   32.2520 C   0  0  0  0  0  0  0  0  0  0  0  0
   39.3980   24.5830   33.5160 N   0  0  0  0  0  0  0  0  0  0  0  0
   38.2050   25.0650   33.7570 N   0  0  0  0  0  0  0  0  0  0  0  0
   38.8370   26.0110   30.6860 H   0  0  0  0  0  0  0  0  0  0  0  0
   40.7150   24.6130   31.8720 H   0  0  0  0  0  0  0  0  0  0  0  0
   40.1310   23.8330   34.4790 C   0  0  0  0  0  0  0  0  0  0  0  0
   41.3110   23.2290   34.2430 N   0  0  0  0  0  0  0  0  0  0  0  0
   41.9420   22.5300   35.2300 C   0  0  0  0  0  3  0  0  0  0  0  0
   41.3680   22.4460   36.4650 N   0  0  0  0  0  0  0  0  0  0  0  0
   40.1920   23.0380   36.7330 C   0  0  0  0  0  0  0  0  0  0  0  0
   39.6520   22.9300   37.9850 C   0  0  0  0  0  3  0  0  0  0  0  0
   38.4410   23.5350   38.2740 C   0  0  0  0  0  0  0  0  0  0  0  0
   37.9120   23.5230   39.2200 H   0  0  0  0  0  0  0  0  0  0  0  0
   37.7700   24.2580   37.2810 C   0  0  0  0  0  0  0  0  0  0  0  0
   36.8110   24.7620   37.4410 H   0  0  0  0  0  0  0  0  0  0  0  0
   38.3280   24.3580   36.0260 C   0  0  0  0  0  3  0  0  0  0  0  0
   39.5340   23.7530   35.7430 C   0  0  0  0  0  0  0  0  0  0  0  0
   35.8290   30.1840   34.0890 C   0  0  0  0  0  0  0  0  0  0  0  0
   35.7110   30.0090   32.7550 C   0  0  0  0  0  0  0  0  0  0  0  0
   35.9450   28.8130   32.1020 C   0  0  0  0  0  0  0  0  0  0  0  0
   36.3220   27.7100   32.8100 C   0  0  0  0  0  0  0  0  0  0  0  0
   36.4450   27.8870   34.1920 C   0  0  0  0  0  0  0  0  0  0  0  0
   36.2070   29.0730   34.7900 N   0  0  0  0  0  0  0  0  0  0  0  0
   35.4160   30.8300   32.1220 H   0  0  0  0  0  0  0  0  0  0  0  0
   35.8490   28.6790   31.0350 H   0  0  0  0  0  0  0  0  0  0  0  0
   36.7410   27.0530   34.8110 H   0  0  0  0  0  0  0  0  0  0  0  0
   35.3540   31.4980   36.1620 C   0  0  0  0  0  0  0  0  0  0  0  0
   35.5900   31.4200   34.7810 C   0  0  0  0  0  0  0  0  0  0  0  0
   35.5850   32.6130   34.0930 C   0  0  0  0  0  0  0  0  0  0  0  0
   35.3600   33.7820   34.7510 N   0  0  0  0  0  0  0  0  0  0  0  0
   35.1360   33.7930   36.0980 C   0  0  0  0  0  0  0  0  0  0  0  0
   35.1320   32.6430   36.8120 N   0  0  0  0  0  0  0  0  0  0  0  0
   35.3480   30.5910   36.7440 H   0  0  0  0  0  0  0  0  0  0  0  0
   35.7670   32.5690   33.0250 H   0  0  0  0  0  0  0  0  0  0  0  0
   34.9810   34.8230   36.4100 H   0  0  0  0  0  0  0  0  0  0  0  0
  1  2  1  0  0  0  0
  1 24  1  0  0  0  0
  2  6  2  0  0  0  0
  3  4  2  0  0  0  0
  3  2  1  0  0  0  0
  4  5  1  0  0  0  0
  5  6  1  0  0  0  0
  5  9  1  0  0  0  0
  7  3  1  0  0  0  0
  8  4  1  0  0  0  0
  9 20  1  0  0  0  0
 10  9  2  0  0  0  0
 10 11  1  0  0  0  0
 11 12  2  0  0  0  0
 12 13  1  0  0  0  0
 13 14  1  0  0  0  0
 14 15  2  0  0  0  0
 15 16  1  0  0  0  0
 17 18  1  0  0  0  0
 17 15  1  0  0  0  0
 19 17  2  0  0  0  0
 20 19  1  0  0  0  0
 20 13  2  0  0  0  0
 21 31  1  0  0  0  0
 21 26  1  0  0  0  0
 22 21  2  0  0  0  0
 23 22  1  0  0  0  0
 23 24  2  0  0  0  0
 24 25  1  0  0  0  0
 25 26  2  0  0  0  0
 25 29  1  0  0  0  0
 27 22  1  0  0  0  0
 28 23  1  0  0  0  0
 30 36  1  0  0  0  0
 30 35  1  0  0  0  0
 31 30  2  0  0  0  0
 32 33  2  0  0  0  0
 32 31  1  0  0  0  0
 33 34  1  0  0  0  0
 34 38  1  0  0  0  0
 34 35  2  0  0  0  0
 37 32  1  0  0  0  0
M  END
>  <minimizedAffinity>
-6.19236231

$$$$

 OpenBabel03272510123D

 38 42  0  0  0  0  0  0  0  0999 V2000
   37.2130   25.0080   31.7950 O   0  0  0  0  0  0  0  0  0  0  0  0
   38.1650   24.2950   32.5200 C   0  0  0  0  0  0  0  0  0  0  0  0
   39.1540   23.7230   31.7400 C   0  0  0  0  0  0  0  0  0  0  0  0
   40.0100   23.0560   32.6250 C   0  0  0  0  0  0  0  0  0  0  0  0
   39.5180   23.2440   33.8770 N   0  0  0  0  0  0  0  0  0  0  0  0
   38.4350   23.9740   33.7990 N   0  0  0  0  0  0  0  0  0  0  0  0
   39.4100   23.6680   30.6870 H   0  0  0  0  0  0  0  0  0  0  0  0
   40.9030   22.4760   32.4880 H   0  0  0  0  0  0  0  0  0  0  0  0
   40.0320   22.7650   35.1150 C   0  0  0  0  0  0  0  0  0  0  0  0
   41.0780   21.9260   35.2370 N   0  0  0  0  0  0  0  0  0  0  0  0
   41.5020   21.5200   36.4680 C   0  0  0  0  0  3  0  0  0  0  0  0
   40.8560   21.9710   37.5820 N   0  0  0  0  0  0  0  0  0  0  0  0
   39.8090   22.8090   37.4950 C   0  0  0  0  0  0  0  0  0  0  0  0
   39.1900   23.2370   38.6370 C   0  0  0  0  0  3  0  0  0  0  0  0
   38.1110   24.1000   38.5610 C   0  0  0  0  0  0  0  0  0  0  0  0
   37.5400   24.5080   39.3860 H   0  0  0  0  0  0  0  0  0  0  0  0
   37.6540   24.5340   37.3110 C   0  0  0  0  0  0  0  0  0  0  0  0
   36.8080   25.2160   37.1780 H   0  0  0  0  0  0  0  0  0  0  0  0
   38.2890   24.0930   36.1710 C   0  0  0  0  0  3  0  0  0  0  0  0
   39.3630   23.2330   36.2520 C   0  0  0  0  0  0  0  0  0  0  0  0
   36.0760   29.0020   32.5260 C   0  0  0  0  0  0  0  0  0  0  0  0
   36.5790   28.2280   33.5130 C   0  0  0  0  0  0  0  0  0  0  0  0
   36.9740   26.9130   33.3490 C   0  0  0  0  0  0  0  0  0  0  0  0
   36.8650   26.3150   32.1290 C   0  0  0  0  0  0  0  0  0  0  0  0
   36.3430   27.1110   31.1040 C   0  0  0  0  0  0  0  0  0  0  0  0
   35.9710   28.3920   31.3080 N   0  0  0  0  0  0  0  0  0  0  0  0
   36.6990   28.6260   34.5080 H   0  0  0  0  0  0  0  0  0  0  0  0
   37.3760   26.3000   34.1420 H   0  0  0  0  0  0  0  0  0  0  0  0
   36.2300   26.6980   30.1130 H   0  0  0  0  0  0  0  0  0  0  0  0
   34.8920   30.8220   33.7660 C   0  0  0  0  0  0  0  0  0  0  0  0
   35.6620   30.3680   32.6820 C   0  0  0  0  0  0  0  0  0  0  0  0
   36.0160   31.3140   31.7470 C   0  0  0  0  0  0  0  0  0  0  0  0
   35.6230   32.6080   31.8990 N   0  0  0  0  0  0  0  0  0  0  0  0
   34.8740   32.9890   32.9760 C   0  0  0  0  0  0  0  0  0  0  0  0
   34.5040   32.0900   33.9180 N   0  0  0  0  0  0  0  0  0  0  0  0
   34.5900   30.1190   34.5240 H   0  0  0  0  0  0  0  0  0  0  0  0
   36.6110   30.9790   30.9050 H   0  0  0  0  0  0  0  0  0  0  0  0
   34.6760   34.0540   32.8950 H   0  0  0  0  0  0  0  0  0  0  0  0
  1 24  1  0  0  0  0
  1  2  1  0  0  0  0
  2  6  2  0  0  0  0
  3  2  1  0  0  0  0
  3  4  2  0  0  0  0
  4  5  1  0  0  0  0
  5  9  1  0  0  0  0
  6  5  1  0  0  0  0
  7  3  1  0  0  0  0
  8  4  1  0  0  0  0
  9 10  2  0  0  0  0
  9 20  1  0  0  0  0
 10 11  1  0  0  0  0
 11 12  2  0  0  0  0
 13 12  1  0  0  0  0
 13 14  1  0  0  0  0
 15 14  2  0  0  0  0
 15 16  1  0  0  0  0
 17 15  1  0  0  0  0
 18 17  1  0  0  0  0
 19 20  1  0  0  0  0
 19 17  2  0  0  0  0
 20 13  2  0  0  0  0
 21 31  1  0  0  0  0
 21 22  1  0  0  0  0
 22 27  1  0  0  0  0
 23 22  2  0  0  0  0
 23 28  1  0  0  0  0
 24 23  1  0  0  0  0
 25 26  1  0  0  0  0
 25 24  2  0  0  0  0
 26 21  2  0  0  0  0
 29 25  1  0  0  0  0
 30 35  1  0  0  0  0
 30 36  1  0  0  0  0
 31 30  2  0  0  0  0
 32 33  2  0  0  0  0
 32 31  1  0  0  0  0
 33 34  1  0  0  0  0
 34 35  2  0  0  0  0
 37 32  1  0  0  0  0
 38 34  1  0  0  0  0
M  END
>  <minimizedAffinity>
-6.15463591

$$$$

 OpenBabel03272510123D

 38 42  0  0  0  0  0  0  0  0999 V2000
   38.1750   27.7070   32.3680 O   0  0  0  0  0  0  0  0  0  0  0  0
   36.8510   28.1200   32.4870 C   0  0  0  0  0  0  0  0  0  0  0  0
   35.9720   27.4390   31.6630 C   0  0  0  0  0  0  0  0  0  0  0  0
   34.7050   27.9790   31.9130 C   0  0  0  0  0  0  0  0  0  0  0  0
   34.8610   28.9450   32.8560 N   0  0  0  0  0  0  0  0  0  0  0  0
   36.1260   29.0160   33.1820 N   0  0  0  0  0  0  0  0  0  0  0  0
   36.0210   26.6460   30.9240 H   0  0  0  0  0  0  0  0  0  0  0  0
   33.7280   27.7750   31.5190 H   0  0  0  0  0  0  0  0  0  0  0  0
   33.8700   29.7820   33.4420 C   0  0  0  0  0  0  0  0  0  0  0  0
   32.5780   29.8210   33.0640 N   0  0  0  0  0  0  0  0  0  0  0  0
   31.6980   30.6570   33.6860 C   0  0  0  0  0  3  0  0  0  0  0  0
   32.1360   31.4590   34.6990 N   0  0  0  0  0  0  0  0  0  0  0  0
   33.4190   31.4450   35.1000 C   0  0  0  0  0  0  0  0  0  0  0  0
   33.8160   32.2650   36.1200 C   0  0  0  0  0  3  0  0  0  0  0  0
   35.1340   32.2600   36.5430 C   0  0  0  0  0  0  0  0  0  0  0  0
   35.5700   32.8570   37.3340 H   0  0  0  0  0  0  0  0  0  0  0  0
   36.0590   31.4120   35.9230 C   0  0  0  0  0  0  0  0  0  0  0  0
   37.1150   31.3560   36.2070 H   0  0  0  0  0  0  0  0  0  0  0  0
   35.6430   30.5920   34.8980 C   0  0  0  0  0  3  0  0  0  0  0  0
   34.3290   30.6020   34.4800 C   0  0  0  0  0  0  0  0  0  0  0  0
   39.9210   24.7780   34.8470 C   0  0  0  0  0  0  0  0  0  0  0  0
   39.5530   25.9800   35.3420 C   0  0  0  0  0  0  0  0  0  0  0  0
   38.9750   26.9880   34.5920 C   0  0  0  0  0  0  0  0  0  0  0  0
   38.7440   26.8020   33.2610 C   0  0  0  0  0  0  0  0  0  0  0  0
   39.1250   25.5590   32.7450 C   0  0  0  0  0  0  0  0  0  0  0  0
   39.6850   24.6020   33.5130 N   0  0  0  0  0  0  0  0  0  0  0  0
   39.7000   26.2080   36.3850 H   0  0  0  0  0  0  0  0  0  0  0  0
   38.6820   27.9470   34.9920 H   0  0  0  0  0  0  0  0  0  0  0  0
   38.9700   25.3470   31.6970 H   0  0  0  0  0  0  0  0  0  0  0  0
   41.8200   23.2420   35.3790 C   0  0  0  0  0  0  0  0  0  0  0  0
   40.5230   23.7230   35.6140 C   0  0  0  0  0  0  0  0  0  0  0  0
   39.8280   23.1260   36.6420 C   0  0  0  0  0  0  0  0  0  0  0  0
   40.4010   22.1280   37.3680 N   0  0  0  0  0  0  0  0  0  0  0  0
   41.6690   21.7030   37.0900 C   0  0  0  0  0  0  0  0  0  0  0  0
   42.3860   22.2620   36.0880 N   0  0  0  0  0  0  0  0  0  0  0  0
   42.4040   23.6770   34.5850 H   0  0  0  0  0  0  0  0  0  0  0  0
   38.8240   23.4880   36.8370 H   0  0  0  0  0  0  0  0  0  0  0  0
   41.9210   20.9060   37.7850 H   0  0  0  0  0  0  0  0  0  0  0  0
  1  2  1  0  0  0  0
  1 24  1  0  0  0  0
  2  6  2  0  0  0  0
  3  4  2  0  0  0  0
  3  2  1  0  0  0  0
  4  5  1  0  0  0  0
  5  6  1  0  0  0  0
  5  9  1  0  0  0  0
  7  3  1  0  0  0  0
  8  4  1  0  0  0  0
  9 20  1  0  0  0  0
 10  9  2  0  0  0  0
 10 11  1  0  0  0  0
 11 12  2  0  0  0  0
 12 13  1  0  0  0  0
 13 14  1  0  0  0  0
 14 15  2  0  0  0  0
 15 16  1  0  0  0  0
 17 18  1  0  0  0  0
 17 15  1  0  0  0  0
 19 17  2  0  0  0  0
 20 19  1  0  0  0  0
 20 13  2  0  0  0  0
 21 22  1  0  0  0  0
 21 31  1  0  0  0  0
 22 27  1  0  0  0  0
 23 28  1  0  0  0  0
 23 22  2  0  0  0  0
 24 23  1  0  0  0  0
 25 24  2  0  0  0  0
 25 26  1  0  0  0  0
 26 21  2  0  0  0  0
 29 25  1  0  0  0  0
 30 31  2  0  0  0  0
 30 35  1  0  0  0  0
 31 32  1  0  0  0  0
 32 37  1  0  0  0  0
 32 33  2  0  0  0  0
 34 33  1  0  0  0  0
 34 38  1  0  0  0  0
 35 34  2  0  0  0  0
 36 30  1  0  0  0  0
M  END
>  <minimizedAffinity>
-6.04832125

$$$$
