
 OpenBabel03272504573D

 36 39  0  0  1  0  0  0  0  0999 V2000
   35.9290   29.8980   48.9010 C   0  0  1  0  0  0  0  0  0  0  0  0
   34.7110   30.4230   49.4730 C   0  0  0  0  0  0  0  0  0  0  0  0
   34.6530   29.4470   48.3410 C   0  0  2  0  0  0  0  0  0  0  0  0
   36.5350   29.0650   49.3990 H   0  0  0  0  0  0  0  0  0  0  0  0
   34.7620   30.2660   50.5360 H   0  0  0  0  0  0  0  0  0  0  0  0
   34.4480   31.4720   49.2270 H   0  0  0  0  0  0  0  0  0  0  0  0
   34.0790   29.8600   47.5290 H   0  0  0  0  0  0  0  0  0  0  0  0
   36.7950   30.7440   48.0080 C   0  0  0  0  0  0  0  0  0  0  0  0
   37.6570   31.6430   48.6590 C   0  0  0  0  0  0  0  0  0  0  0  0
   38.4400   32.4040   47.8210 C   0  0  0  0  0  0  0  0  0  0  0  0
   38.3520   32.2580   46.4790 N   0  0  0  0  0  0  0  0  0  0  0  0
   37.5080   31.3780   45.8890 C   0  0  0  0  0  0  0  0  0  0  0  0
   36.7010   30.5940   46.6810 N   0  0  0  0  0  0  0  0  0  0  0  0
   37.4140   31.1890   44.5070 N   0  0  0  0  0  0  0  0  0  0  0  0
   37.7370   31.7670   49.7080 H   0  0  0  0  0  0  0  0  0  0  0  0
   39.1290   33.1190   48.2500 H   0  0  0  0  0  0  0  0  0  0  0  0
   38.1340   30.6310   43.9590 H   0  0  0  0  0  0  0  0  0  0  0  0
   36.6100   31.6110   44.0020 H   0  0  0  0  0  0  0  0  0  0  0  0
   34.2700   28.1490   48.6890 O   0  0  0  0  0  0  0  0  0  0  0  0
   32.5610   26.3650   47.9590 O   0  0  0  0  0  0  0  0  0  0  0  0
   32.7160   27.8350   48.1790 P   0  0  1  0  0  0  0  0  0  0  0  0
   31.6110   28.2150   49.4600 O   0  0  0  0  0  0  0  0  0  0  0  0
   30.7470   27.8740   49.1210 H   0  0  0  0  0  0  0  0  0  0  0  0
   32.3750   28.7770   46.8330 O   0  0  0  0  0  0  0  0  0  0  0  0
   31.1800   28.9790   46.2110 C   0  0  0  0  0  0  0  0  0  0  0  0
   30.1910   28.0880   46.1460 N   0  0  0  0  0  0  0  0  0  0  0  0
   29.0700   28.4380   45.4940 C   0  0  0  0  0  3  0  0  0  0  0  0
   28.9120   29.6490   44.9090 N   0  0  0  0  0  0  0  0  0  0  0  0
   29.8800   30.5830   44.9470 C   0  0  0  0  0  0  0  0  0  0  0  0
   29.7530   31.8310   44.3590 C   0  0  0  0  0  3  0  0  0  0  0  0
   30.7600   32.7520   44.4190 C   0  0  0  0  0  0  0  0  0  0  0  0
   30.6900   33.7310   43.9720 H   0  0  0  0  0  0  0  0  0  0  0  0
   31.9150   32.4330   45.0740 C   0  0  0  0  0  0  0  0  0  0  0  0
   32.7280   33.1470   45.1340 H   0  0  0  0  0  0  0  0  0  0  0  0
   32.0320   31.1870   45.6550 C   0  0  0  0  0  3  0  0  0  0  0  0
   31.0460   30.2380   45.6160 C   0  0  0  0  0  0  0  0  0  0  0  0
  1  4  1  1  0  0  0
  1  2  1  0  0  0  0
  2  5  1  0  0  0  0
  3  7  1  6  0  0  0
  3 19  1  0  0  0  0
  3  1  1  0  0  0  0
  3  2  1  0  0  0  0
  6  2  1  0  0  0  0
  8  9  1  0  0  0  0
  8  1  1  0  0  0  0
  9 15  1  0  0  0  0
 10 16  1  0  0  0  0
 10  9  2  0  0  0  0
 11 10  1  0  0  0  0
 12 11  2  0  0  0  0
 12 13  1  0  0  0  0
 13  8  2  0  0  0  0
 14 12  1  0  0  0  0
 17 14  1  0  0  0  0
 18 14  1  0  0  0  0
 21 20  2  6  0  0  0
 21 19  1  0  0  0  0
 21 22  1  0  0  0  0
 23 22  1  0  0  0  0
 24 21  1  0  0  0  0
 25 24  1  0  0  0  0
 26 25  1  0  0  0  0
 27 26  2  0  0  0  0
 28 29  2  0  0  0  0
 28 27  1  0  0  0  0
 29 36  1  0  0  0  0
 30 31  2  0  0  0  0
 30 29  1  0  0  0  0
 31 33  1  0  0  0  0
 32 31  1  0  0  0  0
 33 34  1  0  0  0  0
 33 35  2  0  0  0  0
 36 35  1  0  0  0  0
 36 25  2  0  0  0  0
M  END
>  <minimizedAffinity>
-5.16854239

>  <minimizedRMSD>
4.9170289

$$$$
