
 OpenBabel03272509473D

 28 30  0  0  0  0  0  0  0  0999 V2000
   34.1990   27.4220   48.4280 C   0  0  0  0  0  0  0  0  0  0  0  0
   34.0220   26.6500   49.2220 H   0  0  0  0  0  0  0  0  0  0  0  0
   35.0740   27.0300   47.8680 H   0  0  0  0  0  0  0  0  0  0  0  0
   32.9760   27.4830   47.6060 C   0  0  0  0  0  0  0  0  0  0  0  0
   32.4310   28.6720   47.2520 N   0  0  0  0  0  0  0  0  0  0  0  0
   31.3510   28.7950   46.4960 C   0  0  0  0  0  3  0  0  0  0  0  0
   30.7260   27.7000   46.0280 N   0  0  0  0  0  0  0  0  0  0  0  0
   31.1770   26.4770   46.3170 C   0  0  0  0  0  0  0  0  0  0  0  0
   30.5100   25.3790   45.8280 C   0  0  0  0  0  3  0  0  0  0  0  0
   31.0240   24.1460   46.1690 C   0  0  0  0  0  0  0  0  0  0  0  0
   30.4940   23.2850   45.7810 H   0  0  0  0  0  0  0  0  0  0  0  0
   32.1540   23.9840   46.9620 C   0  0  0  0  0  0  0  0  0  0  0  0
   32.4780   22.9630   47.1740 H   0  0  0  0  0  0  0  0  0  0  0  0
   32.7720   25.1340   47.4160 C   0  0  0  0  0  3  0  0  0  0  0  0
   32.3010   26.3920   47.1050 C   0  0  0  0  0  0  0  0  0  0  0  0
   34.4870   28.6970   49.1470 C   0  0  0  0  0  0  0  0  0  0  0  0
   33.6910   28.8710   49.9070 H   0  0  0  0  0  0  0  0  0  0  0  0
   34.4130   29.5440   48.4500 H   0  0  0  0  0  0  0  0  0  0  0  0
   35.7610   28.6370   49.7710 O   0  0  0  0  0  0  0  0  0  0  0  0
   38.3000   31.1880   50.0850 C   0  0  0  0  0  0  0  0  0  0  0  0
   38.2810   31.7150   48.7940 C   0  0  0  0  0  0  0  0  0  0  0  0
   37.3890   31.1620   47.8670 C   0  0  0  0  0  0  0  0  0  0  0  0
   36.5960   30.1380   48.3100 N   0  0  0  0  0  0  0  0  0  0  0  0
   36.6470   29.6630   49.5580 C   0  0  0  0  0  0  0  0  0  0  0  0
   37.5100   30.2010   50.4430 N   0  0  0  0  0  0  0  0  0  0  0  0
   38.9860   31.6010   50.8250 H   0  0  0  0  0  0  0  0  0  0  0  0
   38.9290   32.5240   48.5000 H   0  0  0  0  0  0  0  0  0  0  0  0
   37.3250   31.5260   46.8470 H   0  0  0  0  0  0  0  0  0  0  0  0
  1 16  1  0  0  0  0
  1  2  1  0  0  0  0
  3  1  1  0  0  0  0
  4  1  1  0  0  0  0
  5  4  1  0  0  0  0
  6  5  2  0  0  0  0
  7  8  2  0  0  0  0
  7  6  1  0  0  0  0
  8 15  1  0  0  0  0
  9 10  2  0  0  0  0
  9  8  1  0  0  0  0
 10 12  1  0  0  0  0
 11 10  1  0  0  0  0
 12 13  1  0  0  0  0
 12 14  2  0  0  0  0
 15 14  1  0  0  0  0
 15  4  2  0  0  0  0
 16 19  1  0  0  0  0
 16 17  1  0  0  0  0
 18 16  1  0  0  0  0
 20 25  1  0  0  0  0
 20 26  1  0  0  0  0
 21 20  2  0  0  0  0
 22 23  2  0  0  0  0
 22 21  1  0  0  0  0
 23 24  1  0  0  0  0
 24 19  1  0  0  0  0
 24 25  2  0  0  0  0
 27 21  1  0  0  0  0
 28 22  1  0  0  0  0
M  END
>  <minimizedAffinity>
-4.07492781

>  <minimizedRMSD>
2.93249989

$$$$
