
 OpenBabel03272504413D

 48 51  0  0  0  0  0  0  0  0999 V2000
   34.6440   29.4380   48.8800 C   0  0  0  0  0  0  0  0  0  0  0  0
   35.5120   29.5240   49.5720 H   0  0  0  0  0  0  0  0  0  0  0  0
   33.9530   30.2540   49.2460 H   0  0  0  0  0  0  0  0  0  0  0  0
   37.4110   30.5190   48.6650 Cl  0  0  0  0  0  0  0  0  0  0  0  0
   36.3190   30.3160   47.2920 C   0  0  0  0  0  0  0  0  0  0  0  0
   36.7440   30.6670   46.0590 C   0  0  0  0  0  0  0  0  0  0  0  0
   35.9010   30.5170   44.9770 C   0  0  0  0  0  0  0  0  0  0  0  0
   34.6250   30.0020   45.1840 C   0  0  0  0  0  0  0  0  0  0  0  0
   34.2590   29.6590   46.5010 C   0  0  0  0  0  0  0  0  0  0  0  0
   35.0710   29.8030   47.5620 C   0  0  0  0  0  0  0  0  0  0  0  0
   36.2660   30.8070   43.9850 H   0  0  0  0  0  0  0  0  0  0  0  0
   34.0550   29.9250   44.2830 H   0  0  0  0  0  0  0  0  0  0  0  0
   33.2920   29.3060   46.4420 H   0  0  0  0  0  0  0  0  0  0  0  0
   39.7450   32.8000   46.2480 C   0  0  0  0  0  0  0  0  0  0  0  0
   40.6210   32.1060   45.3430 C   0  0  0  0  0  0  0  0  0  0  0  0
   40.1380   30.9480   44.7170 C   0  0  0  0  0  0  0  0  0  0  0  0
   38.8760   30.5320   44.9900 N   0  0  0  0  0  0  0  0  0  0  0  0
   38.0750   31.2080   45.8460 C   0  0  0  0  0  0  0  0  0  0  0  0
   38.5120   32.3210   46.4610 N   0  0  0  0  0  0  0  0  0  0  0  0
   40.0860   33.6830   46.7370 H   0  0  0  0  0  0  0  0  0  0  0  0
   41.5790   32.5500   45.2290 H   0  0  0  0  0  0  0  0  0  0  0  0
   41.0230   30.3030   43.8450 N   0  0  0  0  0  0  0  0  0  0  0  0
   41.5290   29.3990   44.0380 H   0  0  0  0  0  0  0  0  0  0  0  0
   41.1380   30.8210   42.9510 H   0  0  0  0  0  0  0  0  0  0  0  0
   34.0140   28.1350   49.1140 C   0  0  0  0  0  0  0  0  0  0  0  0
   34.4660   27.5650   49.9800 H   0  0  0  0  0  0  0  0  0  0  0  0
   34.2150   27.4830   48.2330 H   0  0  0  0  0  0  0  0  0  0  0  0
   32.6640   28.2610   49.3090 O   0  0  0  0  0  0  0  0  0  0  0  0
   32.7390   26.3080   47.5630 O   0  0  0  0  0  0  0  0  0  0  0  0
   31.8240   27.2830   48.2610 P   0  0  2  0  0  0  0  0  0  0  0  0
   31.0970   28.3240   47.0820 O   0  0  0  0  0  0  0  0  0  0  0  0
   30.2810   27.7220   46.1330 C   0  0  0  0  0  0  0  0  0  0  0  0
   30.5150   26.5650   45.4890 N   0  0  0  0  0  0  0  0  0  0  0  0
   29.6280   26.1230   44.6030 C   0  0  0  0  0  0  0  0  0  0  0  0
   28.4920   26.7900   44.3180 N   0  0  0  0  0  0  0  0  0  0  0  0
   28.2020   27.9580   44.9320 C   0  0  0  0  0  0  0  0  0  0  0  0
   27.0310   28.6180   44.6210 C   0  0  0  0  0  0  0  0  0  0  0  0
   26.7700   29.8050   45.2660 C   0  0  0  0  0  0  0  0  0  0  0  0
   25.8850   30.4270   45.1150 H   0  0  0  0  0  0  0  0  0  0  0  0
   27.6440   30.3260   46.1970 C   0  0  0  0  0  0  0  0  0  0  0  0
   27.4790   31.2470   46.7240 H   0  0  0  0  0  0  0  0  0  0  0  0
   28.8050   29.6360   46.4840 C   0  0  0  0  0  0  0  0  0  0  0  0
   29.1180   28.4450   45.8690 C   0  0  0  0  0  0  0  0  0  0  0  0
   30.5710   26.4680   48.9690 O   0  0  0  0  0  0  0  0  0  0  0  0
   29.8300   27.3010   49.7730 C   0  0  0  0  0  0  0  0  0  0  0  0
   29.3630   26.6600   50.9200 F   0  0  0  0  0  0  0  0  0  0  0  0
   30.5790   28.3750   50.2250 F   0  0  0  0  0  0  0  0  0  0  0  0
   28.7350   27.7750   49.0660 F   0  0  0  0  0  0  0  0  0  0  0  0
  1 25  1  0  0  0  0
  1  3  1  0  0  0  0
  1  2  1  0  0  0  0
  5 10  1  0  0  0  0
  5  4  1  0  0  0  0
  6  5  2  0  0  0  0
  7  8  2  0  0  0  0
  7  6  1  0  0  0  0
  8  9  1  0  0  0  0
  9 10  2  0  0  0  0
 10  1  1  0  0  0  0
 11  7  1  0  0  0  0
 12  8  1  0  0  0  0
 13  9  1  0  0  0  0
 14 19  1  0  0  0  0
 14 20  1  0  0  0  0
 15 14  2  0  0  0  0
 16 17  2  0  0  0  0
 16 15  1  0  0  0  0
 17 18  1  0  0  0  0
 18  6  1  0  0  0  0
 18 19  2  0  0  0  0
 21 15  1  0  0  0  0
 22 23  1  0  0  0  0
 22 16  1  0  0  0  0
 24 22  1  0  0  0  0
 25 28  1  0  0  0  0
 25 26  1  0  0  0  0
 27 25  1  0  0  0  0
 30 29  2  6  0  0  0
 30 44  1  0  0  0  0
 30 28  1  0  0  0  0
 31 30  1  0  0  0  0
 32 31  1  0  0  0  0
 33 32  2  0  0  0  0
 34 33  1  0  0  0  0
 35 34  2  0  0  0  0
 35 36  1  0  0  0  0
 36 43  1  0  0  0  0
 37 36  2  0  0  0  0
 37 38  1  0  0  0  0
 38 40  2  0  0  0  0
 39 38  1  0  0  0  0
 40 42  1  0  0  0  0
 40 41  1  0  0  0  0
 43 32  1  0  0  0  0
 43 42  2  0  0  0  0
 44 45  1  0  0  0  0
 45 47  1  0  0  0  0
 45 46  1  0  0  0  0
 48 45  1  0  0  0  0
M  END
>  <minimizedAffinity>
-6.28309679

>  <minimizedRMSD>
0.580615044

$$$$
