
 OpenBabel03262522283D

 49 53  0  0  0  0  0  0  0  0999 V2000
   35.2120   30.8530   49.7270 C   0  0  0  0  0  0  0  0  0  0  0  0
   34.6740   30.6440   50.6770 H   0  0  0  0  0  0  0  0  0  0  0  0
   35.2230   31.9370   49.4900 H   0  0  0  0  0  0  0  0  0  0  0  0
   33.6900   28.6690   50.4210 F   0  0  0  0  0  0  0  0  0  0  0  0
   33.8400   28.9750   49.1020 C   0  0  0  0  0  0  0  0  0  0  0  0
   34.5840   30.0530   48.6250 C   0  0  0  0  0  0  0  0  0  0  0  0
   34.7010   30.3140   47.2880 C   0  0  0  0  0  0  0  0  0  0  0  0
   34.0630   29.4880   46.3400 C   0  0  0  0  0  0  0  0  0  0  0  0
   33.3210   28.4150   46.7960 C   0  0  0  0  0  0  0  0  0  0  0  0
   33.2200   28.1740   48.1610 C   0  0  0  0  0  0  0  0  0  0  0  0
   35.3040   31.1760   47.0610 H   0  0  0  0  0  0  0  0  0  0  0  0
   34.1960   29.7520   45.3000 H   0  0  0  0  0  0  0  0  0  0  0  0
   32.8360   27.7890   46.0580 H   0  0  0  0  0  0  0  0  0  0  0  0
   32.4580   27.0800   48.5120 O   0  0  0  0  0  0  0  0  0  0  0  0
   31.1000   27.2930   48.7180 C   0  0  0  0  0  0  0  0  0  0  0  0
   30.5810   28.0250   49.7260 N   0  0  0  0  0  0  0  0  0  0  0  0
   29.2470   28.1930   49.8690 C   0  0  0  0  0  3  0  0  0  0  0  0
   28.4110   27.6060   48.9710 N   0  0  0  0  0  0  0  0  0  0  0  0
   28.8460   26.8620   47.9400 C   0  0  0  0  0  0  0  0  0  0  0  0
   27.9560   26.2870   47.0540 C   0  0  0  0  0  3  0  0  0  0  0  0
   28.4260   25.5270   46.0030 C   0  0  0  0  0  0  0  0  0  0  0  0
   27.8120   25.0360   45.2580 H   0  0  0  0  0  0  0  0  0  0  0  0
   29.7880   25.3600   45.8640 C   0  0  0  0  0  0  0  0  0  0  0  0
   30.2470   24.7870   45.0790 H   0  0  0  0  0  0  0  0  0  0  0  0
   30.6770   25.9350   46.7480 C   0  0  0  0  0  3  0  0  0  0  0  0
   30.2280   26.7100   47.8220 C   0  0  0  0  0  0  0  0  0  0  0  0
   36.8950   30.2110   49.9550 S   0  0  0  0  0  0  0  0  0  0  0  0
   39.1280   32.8690   47.9110 C   0  0  0  0  0  0  0  0  0  0  0  0
   39.3570   32.1830   46.7250 C   0  0  0  0  0  0  0  0  0  0  0  0
   38.8140   30.9340   46.6060 C   0  0  0  0  0  0  0  0  0  0  0  0
   38.0900   30.4350   47.6410 N   0  0  0  0  0  0  0  0  0  0  0  0
   37.8930   31.1100   48.7460 C   0  0  0  0  0  0  0  0  0  0  0  0
   38.4100   32.3730   48.9320 N   0  0  0  0  0  0  0  0  0  0  0  0
   39.5320   33.8720   48.0710 H   0  0  0  0  0  0  0  0  0  0  0  0
   38.9790   30.3770   45.6890 H   0  0  0  0  0  0  0  0  0  0  0  0
   40.0990   32.7890   45.7610 O   0  0  0  0  0  0  0  0  0  0  0  0
   40.0830   32.2960   44.4650 C   0  0  0  0  0  0  0  0  0  0  0  0
   40.6360   31.1080   44.0170 C   0  0  0  0  0  0  0  0  0  0  0  0
   40.5260   30.7830   42.7130 C   0  0  0  0  0  0  0  0  0  0  0  0
   39.8670   31.6390   41.8720 C   0  0  0  0  0  0  0  0  0  0  0  0
   39.3190   32.8250   42.3410 C   0  0  0  0  0  0  0  0  0  0  0  0
   39.4420   33.1330   43.6540 N   0  0  0  0  0  0  0  0  0  0  0  0
   41.1300   30.5190   44.7780 H   0  0  0  0  0  0  0  0  0  0  0  0
   40.9430   29.8760   42.3470 H   0  0  0  0  0  0  0  0  0  0  0  0
   39.7760   31.3820   40.8240 H   0  0  0  0  0  0  0  0  0  0  0  0
   38.5930   33.7580   41.3780 C   0  0  0  0  0  0  0  0  0  0  0  0
   37.6760   33.2230   41.0880 H   0  0  0  0  0  0  0  0  0  0  0  0
   39.1960   33.9210   40.4640 H   0  0  0  0  0  0  0  0  0  0  0  0
   38.3550   34.6650   41.9310 H   0  0  0  0  0  0  0  0  0  0  0  0
  1 27  1  0  0  0  0
  1  2  1  0  0  0  0
  3  1  1  0  0  0  0
  5  4  1  0  0  0  0
  6  5  1  0  0  0  0
  6  1  1  0  0  0  0
  7  6  2  0  0  0  0
  8  9  2  0  0  0  0
  8  7  1  0  0  0  0
  9 10  1  0  0  0  0
 10 14  1  0  0  0  0
 10  5  2  0  0  0  0
 11  7  1  0  0  0  0
 12  8  1  0  0  0  0
 13  9  1  0  0  0  0
 14 15  1  0  0  0  0
 15 16  1  0  0  0  0
 16 17  2  0  0  0  0
 18 17  1  0  0  0  0
 19 18  2  0  0  0  0
 20 19  1  0  0  0  0
 21 20  2  0  0  0  0
 22 21  1  0  0  0  0
 23 21  1  0  0  0  0
 23 25  2  0  0  0  0
 24 23  1  0  0  0  0
 25 26  1  0  0  0  0
 26 19  1  0  0  0  0
 26 15  2  0  0  0  0
 28 34  1  0  0  0  0
 28 33  1  0  0  0  0
 29 28  2  0  0  0  0
 30 29  1  0  0  0  0
 30 31  2  0  0  0  0
 31 32  1  0  0  0  0
 32 33  2  0  0  0  0
 32 27  1  0  0  0  0
 35 30  1  0  0  0  0
 36 29  1  0  0  0  0
 37 36  1  0  0  0  0
 38 37  1  0  0  0  0
 38 43  1  0  0  0  0
 39 38  2  0  0  0  0
 40 41  2  0  0  0  0
 40 39  1  0  0  0  0
 41 42  1  0  0  0  0
 42 37  2  0  0  0  0
 44 39  1  0  0  0  0
 45 40  1  0  0  0  0
 46 49  1  0  0  0  0
 46 41  1  0  0  0  0
 47 46  1  0  0  0  0
 48 46  1  0  0  0  0
M  END
>  <minimizedAffinity>
-6.96738338

>  <minimizedRMSD>
1.78458965

$$$$
