
 OpenBabel03262521523D

 26 28  0  0  0  0  0  0  0  0999 V2000
   34.7830   29.1520   49.7890 C   0  0  0  0  0  0  0  0  0  0  0  0
   34.1940   29.0880   50.7200 H   0  0  0  0  0  0  0  0  0  0  0  0
   34.5310   30.1540   49.3330 H   0  0  0  0  0  0  0  0  0  0  0  0
   36.5560   29.1380   50.0650 S   0  0  0  0  0  0  0  0  0  0  0  0
   37.2950   30.4520   49.1160 C   0  0  0  0  0  0  0  0  0  0  0  0
   37.9190   31.4360   49.8650 C   0  0  0  0  0  0  0  0  0  0  0  0
   38.5110   32.4830   49.1710 C   0  0  0  0  0  0  0  0  0  0  0  0
   38.4570   32.5050   47.7900 N   0  0  0  0  0  0  0  0  0  0  0  0
   37.8290   31.5080   47.1220 C   0  0  0  0  0  0  0  0  0  0  0  0
   37.2630   30.5080   47.7700 N   0  0  0  0  0  0  0  0  0  0  0  0
   37.9900   31.4660   50.9440 H   0  0  0  0  0  0  0  0  0  0  0  0
   39.0230   33.3000   49.6540 H   0  0  0  0  0  0  0  0  0  0  0  0
   37.8360   31.6070   46.0430 H   0  0  0  0  0  0  0  0  0  0  0  0
   34.2540   27.9140   48.5710 S   0  0  0  0  0  0  0  0  0  0  0  0
   32.9100   28.5290   47.5850 C   0  0  0  0  0  0  0  0  0  0  0  0
   33.2750   29.4110   46.6310 N   0  0  0  0  0  0  0  0  0  0  0  0
   32.3500   29.9500   45.8170 C   0  0  0  0  0  3  0  0  0  0  0  0
   31.0510   29.6240   45.9350 N   0  0  0  0  0  0  0  0  0  0  0  0
   30.6520   28.7510   46.8710 C   0  0  0  0  0  0  0  0  0  0  0  0
   29.3050   28.4050   47.0030 C   0  0  0  0  0  3  0  0  0  0  0  0
   28.9870   27.4930   48.0020 C   0  0  0  0  0  0  0  0  0  0  0  0
   27.9320   27.2620   48.0580 H   0  0  0  0  0  0  0  0  0  0  0  0
   29.9390   26.9450   48.8310 C   0  0  0  0  0  0  0  0  0  0  0  0
   29.6310   26.2350   49.5960 H   0  0  0  0  0  0  0  0  0  0  0  0
   31.2790   27.2870   48.7020 C   0  0  0  0  0  3  0  0  0  0  0  0
   31.5770   28.1960   47.7040 C   0  0  0  0  0  0  0  0  0  0  0  0
  1  4  1  0  0  0  0
  1  2  1  0  0  0  0
  3  1  1  0  0  0  0
  5  6  1  0  0  0  0
  5  4  1  0  0  0  0
  6 11  1  0  0  0  0
  7 12  1  0  0  0  0
  7  6  2  0  0  0  0
  8  7  1  0  0  0  0
  9 10  1  0  0  0  0
  9  8  2  0  0  0  0
 10  5  2  0  0  0  0
 13  9  1  0  0  0  0
 14  1  1  0  0  0  0
 15 26  1  0  0  0  0
 15 14  1  0  0  0  0
 16 15  2  0  0  0  0
 17 18  2  0  0  0  0
 17 16  1  0  0  0  0
 18 19  1  0  0  0  0
 19 20  2  0  0  0  0
 19 26  1  0  0  0  0
 20 21  1  0  0  0  0
 21 22  1  0  0  0  0
 21 23  2  0  0  0  0
 23 24  1  0  0  0  0
 25 23  1  0  0  0  0
 26 25  2  0  0  0  0
M  END
>  <minimizedAffinity>
-4.56750917

>  <minimizedRMSD>
2.43584251

$$$$
