
 OpenBabel03272504573D

 36 39  0  0  1  0  0  0  0  0999 V2000
   37.0470   31.5700   48.6340 C   0  0  1  0  0  0  0  0  0  0  0  0
   36.3520   30.8160   47.6170 C   0  0  0  0  0  0  0  0  0  0  0  0
   37.3020   30.1300   48.5480 C   0  0  2  0  0  0  0  0  0  0  0  0
   36.5490   31.8920   49.6120 H   0  0  0  0  0  0  0  0  0  0  0  0
   35.3040   31.0330   47.7170 H   0  0  0  0  0  0  0  0  0  0  0  0
   36.6980   30.9390   46.5710 H   0  0  0  0  0  0  0  0  0  0  0  0
   38.0510   29.6010   47.9830 H   0  0  0  0  0  0  0  0  0  0  0  0
   38.1920   32.4780   48.2790 C   0  0  0  0  0  0  0  0  0  0  0  0
   38.5580   33.4170   49.2580 C   0  0  0  0  0  0  0  0  0  0  0  0
   39.6100   34.2350   48.9110 C   0  0  0  0  0  0  0  0  0  0  0  0
   40.2140   34.1030   47.7090 N   0  0  0  0  0  0  0  0  0  0  0  0
   39.8330   33.1830   46.7920 C   0  0  0  0  0  0  0  0  0  0  0  0
   38.7850   32.3410   47.0870 N   0  0  0  0  0  0  0  0  0  0  0  0
   40.4550   33.0080   45.5510 N   0  0  0  0  0  0  0  0  0  0  0  0
   38.0950   33.5310   50.2040 H   0  0  0  0  0  0  0  0  0  0  0  0
   39.9490   34.9840   49.6150 H   0  0  0  0  0  0  0  0  0  0  0  0
   41.3840   32.5010   45.4480 H   0  0  0  0  0  0  0  0  0  0  0  0
   39.9880   33.3880   44.7040 H   0  0  0  0  0  0  0  0  0  0  0  0
   36.7070   29.3540   49.5450 O   0  0  0  0  0  0  0  0  0  0  0  0
   34.5540   28.0640   50.1260 O   0  0  0  0  0  0  0  0  0  0  0  0
   35.0820   29.1490   49.2440 P   0  0  1  0  0  0  0  0  0  0  0  0
   34.2300   30.5780   49.7340 O   0  0  0  0  0  0  0  0  0  0  0  0
   33.2810   30.3140   49.6470 H   0  0  0  0  0  0  0  0  0  0  0  0
   34.8540   28.8820   47.6030 O   0  0  0  0  0  0  0  0  0  0  0  0
   33.8680   28.1780   46.9810 C   0  0  0  0  0  0  0  0  0  0  0  0
   33.7580   26.8490   46.9850 N   0  0  0  0  0  0  0  0  0  0  0  0
   32.7250   26.3020   46.3210 C   0  0  0  0  0  3  0  0  0  0  0  0
   31.8060   27.0440   45.6580 N   0  0  0  0  0  0  0  0  0  0  0  0
   31.8730   28.3870   45.6250 C   0  0  0  0  0  0  0  0  0  0  0  0
   30.9500   29.1760   44.9580 C   0  0  0  0  0  3  0  0  0  0  0  0
   31.0550   30.5380   44.9480 C   0  0  0  0  0  0  0  0  0  0  0  0
   30.3520   31.1800   44.4370 H   0  0  0  0  0  0  0  0  0  0  0  0
   32.0910   31.1310   45.6110 C   0  0  0  0  0  0  0  0  0  0  0  0
   32.1940   32.2100   45.6180 H   0  0  0  0  0  0  0  0  0  0  0  0
   33.0040   30.3360   46.2730 C   0  0  0  0  0  3  0  0  0  0  0  0
   32.9330   28.9700   46.3050 C   0  0  0  0  0  0  0  0  0  0  0  0
  1  4  1  1  0  0  0
  2  5  1  0  0  0  0
  2  3  1  0  0  0  0
  2  1  1  0  0  0  0
  3  7  1  6  0  0  0
  3  1  1  0  0  0  0
  3 19  1  0  0  0  0
  6  2  1  0  0  0  0
  8  1  1  0  0  0  0
  8  9  1  0  0  0  0
  9 15  1  0  0  0  0
 10  9  2  0  0  0  0
 10 16  1  0  0  0  0
 11 10  1  0  0  0  0
 12 13  1  0  0  0  0
 12 11  2  0  0  0  0
 13  8  2  0  0  0  0
 14 12  1  0  0  0  0
 17 14  1  0  0  0  0
 18 14  1  0  0  0  0
 21 19  1  0  0  0  0
 21 22  1  0  0  0  0
 21 20  2  1  0  0  0
 23 22  1  0  0  0  0
 24 21  1  0  0  0  0
 25 26  1  0  0  0  0
 25 24  1  0  0  0  0
 27 26  2  0  0  0  0
 28 27  1  0  0  0  0
 29 28  2  0  0  0  0
 29 36  1  0  0  0  0
 30 29  1  0  0  0  0
 31 30  2  0  0  0  0
 31 33  1  0  0  0  0
 32 31  1  0  0  0  0
 33 34  1  0  0  0  0
 33 35  2  0  0  0  0
 35 36  1  0  0  0  0
 36 25  2  0  0  0  0
M  END
>  <minimizedAffinity>
-5.33119249

>  <minimizedRMSD>
1.84431064

$$$$
