
 OpenBabel03272507313D

 32 35  0  0  0  0  0  0  0  0999 V2000
   37.7800   25.7250   34.6750 C   0  0  0  0  0  0  0  0  0  0  0  0
   38.2560   26.6340   35.5510 C   0  0  0  0  0  0  0  0  0  0  0  0
   37.7360   27.8880   35.2320 C   0  0  0  0  0  0  0  0  0  0  0  0
   36.9190   27.6470   34.1070 C   0  0  0  0  0  0  0  0  0  0  0  0
   37.0240   26.3910   33.8850 O   0  0  0  0  0  0  0  0  0  0  0  0
   38.9180   26.6150   36.4030 H   0  0  0  0  0  0  0  0  0  0  0  0
   37.8680   28.8640   35.6820 H   0  0  0  0  0  0  0  0  0  0  0  0
   38.1210   24.3250   34.7150 C   0  0  0  0  0  0  0  0  0  0  0  0
   37.9510   23.6360   33.7010 O   0  0  0  0  0  0  0  0  0  0  0  0
   38.6520   23.8120   35.9750 C   0  0  0  0  0  0  0  0  0  0  0  0
   39.9570   23.2960   35.9110 C   0  0  0  0  0  0  0  0  0  0  0  0
   40.4910   22.8000   37.1040 C   0  0  0  0  0  0  0  0  0  0  0  0
   39.7450   22.8360   38.2390 N   0  0  0  0  0  0  0  0  0  0  0  0
   38.4880   23.3460   38.2390 C   0  0  0  0  0  0  0  0  0  0  0  0
   37.9540   23.8260   37.1210 N   0  0  0  0  0  0  0  0  0  0  0  0
   40.5510   23.2660   35.0110 H   0  0  0  0  0  0  0  0  0  0  0  0
   41.4970   22.3800   37.1470 H   0  0  0  0  0  0  0  0  0  0  0  0
   37.8750   23.3880   39.1210 H   0  0  0  0  0  0  0  0  0  0  0  0
   36.1500   28.6860   33.4120 C   0  0  0  0  0  0  0  0  0  0  0  0
   36.5580   29.1120   32.3040 O   0  0  0  0  0  0  0  0  0  0  0  0
   34.9410   29.4180   33.6960 C   0  0  0  0  0  0  0  0  0  0  0  0
   33.8480   29.0460   32.9880 N   0  0  0  0  0  0  0  0  0  0  0  0
   32.6270   29.6360   33.1330 C   0  0  0  0  0  3  0  0  0  0  0  0
   32.4750   30.6310   34.0120 N   0  0  0  0  0  0  0  0  0  0  0  0
   33.4930   31.0750   34.7660 C   0  0  0  0  0  0  0  0  0  0  0  0
   33.3450   32.0780   35.6970 C   0  0  0  0  0  3  0  0  0  0  0  0
   34.3880   32.4890   36.4800 C   0  0  0  0  0  0  0  0  0  0  0  0
   34.2720   33.2770   37.2100 H   0  0  0  0  0  0  0  0  0  0  0  0
   35.6050   31.8420   36.2870 C   0  0  0  0  0  0  0  0  0  0  0  0
   36.4180   32.1840   36.9190 H   0  0  0  0  0  0  0  0  0  0  0  0
   35.7210   30.8450   35.3480 C   0  0  0  0  0  3  0  0  0  0  0  0
   34.6850   30.4280   34.5580 C   0  0  0  0  0  0  0  0  0  0  0  0
  1  8  1  0  0  0  0
  1  2  2  0  0  0  0
  2  6  1  0  0  0  0
  3  2  1  0  0  0  0
  3  7  1  0  0  0  0
  4  3  2  0  0  0  0
  5  4  1  0  0  0  0
  5  1  1  0  0  0  0
  8 10  1  0  0  0  0
  9  8  2  0  0  0  0
 10 15  1  0  0  0  0
 11 10  2  0  0  0  0
 11 12  1  0  0  0  0
 12 17  1  0  0  0  0
 12 13  2  0  0  0  0
 14 13  1  0  0  0  0
 14 18  1  0  0  0  0
 15 14  2  0  0  0  0
 16 11  1  0  0  0  0
 19 21  1  0  0  0  0
 19  4  1  0  0  0  0
 20 19  2  0  0  0  0
 21 32  1  0  0  0  0
 22 23  1  0  0  0  0
 22 21  2  0  0  0  0
 23 24  2  0  0  0  0
 24 25  1  0  0  0  0
 25 26  1  0  0  0  0
 26 27  2  0  0  0  0
 27 28  1  0  0  0  0
 29 27  1  0  0  0  0
 29 30  1  0  0  0  0
 31 29  2  0  0  0  0
 32 25  2  0  0  0  0
 32 31  1  0  0  0  0
M  END
>  <minimizedAffinity>
-6.18133116

$$$$

 OpenBabel03272507313D

 32 35  0  0  0  0  0  0  0  0999 V2000
   38.2270   26.9800   33.8070 C   0  0  0  0  0  0  0  0  0  0  0  0
   38.4220   26.8710   32.4770 C   0  0  0  0  0  0  0  0  0  0  0  0
   37.4530   27.6220   31.8120 C   0  0  0  0  0  0  0  0  0  0  0  0
   36.6770   28.1790   32.8500 C   0  0  0  0  0  0  0  0  0  0  0  0
   37.2080   27.7470   33.9310 O   0  0  0  0  0  0  0  0  0  0  0  0
   39.1250   26.3590   31.8370 H   0  0  0  0  0  0  0  0  0  0  0  0
   37.2650   27.7950   30.7600 H   0  0  0  0  0  0  0  0  0  0  0  0
   39.0530   26.3250   34.7910 C   0  0  0  0  0  0  0  0  0  0  0  0
   40.1210   26.8530   35.1260 O   0  0  0  0  0  0  0  0  0  0  0  0
   38.5590   25.0620   35.3300 C   0  0  0  0  0  0  0  0  0  0  0  0
   38.1150   25.1100   36.6620 C   0  0  0  0  0  0  0  0  0  0  0  0
   37.6350   23.9140   37.2030 C   0  0  0  0  0  0  0  0  0  0  0  0
   37.6200   22.7900   36.4390 N   0  0  0  0  0  0  0  0  0  0  0  0
   38.0630   22.8040   35.1570 C   0  0  0  0  0  0  0  0  0  0  0  0
   38.5240   23.9270   34.6150 N   0  0  0  0  0  0  0  0  0  0  0  0
   38.1260   26.0010   37.2710 H   0  0  0  0  0  0  0  0  0  0  0  0
   37.2700   23.8580   38.2300 H   0  0  0  0  0  0  0  0  0  0  0  0
   38.0630   21.9320   34.5290 H   0  0  0  0  0  0  0  0  0  0  0  0
   35.5230   29.0610   32.6310 C   0  0  0  0  0  0  0  0  0  0  0  0
   35.3500   29.5740   31.4990 O   0  0  0  0  0  0  0  0  0  0  0  0
   34.4410   29.5420   33.4530 C   0  0  0  0  0  0  0  0  0  0  0  0
   33.2020   29.1260   33.0950 N   0  0  0  0  0  0  0  0  0  0  0  0
   32.0700   29.4890   33.7640 C   0  0  0  0  0  3  0  0  0  0  0  0
   32.1600   30.2920   34.8280 N   0  0  0  0  0  0  0  0  0  0  0  0
   33.3410   30.7590   35.2680 C   0  0  0  0  0  0  0  0  0  0  0  0
   33.4530   31.5610   36.3810 C   0  0  0  0  0  3  0  0  0  0  0  0
   34.6690   31.9950   36.8320 C   0  0  0  0  0  0  0  0  0  0  0  0
   34.7570   32.6260   37.7040 H   0  0  0  0  0  0  0  0  0  0  0  0
   35.7850   31.5830   36.1090 C   0  0  0  0  0  0  0  0  0  0  0  0
   36.7390   31.9390   36.4850 H   0  0  0  0  0  0  0  0  0  0  0  0
   35.6390   30.7830   35.0010 C   0  0  0  0  0  3  0  0  0  0  0  0
   34.4270   30.3460   34.5400 C   0  0  0  0  0  0  0  0  0  0  0  0
  1  5  1  0  0  0  0
  1  8  1  0  0  0  0
  2  1  2  0  0  0  0
  3  2  1  0  0  0  0
  3  4  2  0  0  0  0
  4  5  1  0  0  0  0
  6  2  1  0  0  0  0
  7  3  1  0  0  0  0
  8  9  2  0  0  0  0
  8 10  1  0  0  0  0
 10 11  1  0  0  0  0
 11 12  2  0  0  0  0
 11 16  1  0  0  0  0
 12 17  1  0  0  0  0
 13 12  1  0  0  0  0
 14 13  2  0  0  0  0
 15 14  1  0  0  0  0
 15 10  2  0  0  0  0
 18 14  1  0  0  0  0
 19  4  1  0  0  0  0
 19 21  1  0  0  0  0
 20 19  2  0  0  0  0
 21 32  1  0  0  0  0
 22 21  2  0  0  0  0
 22 23  1  0  0  0  0
 23 24  2  0  0  0  0
 24 25  1  0  0  0  0
 25 26  1  0  0  0  0
 26 27  2  0  0  0  0
 27 28  1  0  0  0  0
 29 30  1  0  0  0  0
 29 27  1  0  0  0  0
 31 29  2  0  0  0  0
 32 31  1  0  0  0  0
 32 25  2  0  0  0  0
M  END
>  <minimizedAffinity>
-6.14890718

$$$$

 OpenBabel03272507313D

 32 35  0  0  0  0  0  0  0  0999 V2000
   36.6000   25.5930   32.3310 C   0  0  0  0  0  0  0  0  0  0  0  0
   36.6020   26.9400   32.3900 C   0  0  0  0  0  0  0  0  0  0  0  0
   37.2400   27.3420   33.5630 C   0  0  0  0  0  0  0  0  0  0  0  0
   37.6110   26.1320   34.1860 C   0  0  0  0  0  0  0  0  0  0  0  0
   37.1970   25.2130   33.3980 O   0  0  0  0  0  0  0  0  0  0  0  0
   36.2400   27.7430   31.7660 H   0  0  0  0  0  0  0  0  0  0  0  0
   37.4460   28.3210   33.9780 H   0  0  0  0  0  0  0  0  0  0  0  0
   36.0160   24.8430   31.2460 C   0  0  0  0  0  0  0  0  0  0  0  0
   35.1280   25.3690   30.5620 O   0  0  0  0  0  0  0  0  0  0  0  0
   36.5250   23.4920   31.0300 C   0  0  0  0  0  0  0  0  0  0  0  0
   35.6030   22.4590   31.2630 C   0  0  0  0  0  0  0  0  0  0  0  0
   36.0630   21.1540   31.0610 C   0  0  0  0  0  0  0  0  0  0  0  0
   37.3450   20.9500   30.6610 N   0  0  0  0  0  0  0  0  0  0  0  0
   38.1920   21.9890   30.4520 C   0  0  0  0  0  0  0  0  0  0  0  0
   37.7820   23.2400   30.6350 N   0  0  0  0  0  0  0  0  0  0  0  0
   34.5840   22.6180   31.5810 H   0  0  0  0  0  0  0  0  0  0  0  0
   35.4150   20.2900   31.2190 H   0  0  0  0  0  0  0  0  0  0  0  0
   39.2100   21.8590   30.1360 H   0  0  0  0  0  0  0  0  0  0  0  0
   38.3230   26.0520   35.4680 C   0  0  0  0  0  0  0  0  0  0  0  0
   38.8350   27.0910   35.9510 O   0  0  0  0  0  0  0  0  0  0  0  0
   38.6220   24.9930   36.4000 C   0  0  0  0  0  0  0  0  0  0  0  0
   37.8920   24.9920   37.5410 N   0  0  0  0  0  0  0  0  0  0  0  0
   38.0500   24.0630   38.5270 C   0  0  0  0  0  3  0  0  0  0  0  0
   38.9620   23.0960   38.3850 N   0  0  0  0  0  0  0  0  0  0  0  0
   39.7360   23.0060   37.2910 C   0  0  0  0  0  0  0  0  0  0  0  0
   40.6570   21.9970   37.1150 C   0  0  0  0  0  3  0  0  0  0  0  0
   41.4090   21.9040   35.9770 C   0  0  0  0  0  0  0  0  0  0  0  0
   42.1330   21.1140   35.8400 H   0  0  0  0  0  0  0  0  0  0  0  0
   41.1940   22.8790   35.0060 C   0  0  0  0  0  0  0  0  0  0  0  0
   41.8020   22.7850   34.1120 H   0  0  0  0  0  0  0  0  0  0  0  0
   40.2680   23.8730   35.2130 C   0  0  0  0  0  3  0  0  0  0  0  0
   39.5130   23.9770   36.3490 C   0  0  0  0  0  0  0  0  0  0  0  0
  1  2  2  0  0  0  0
  1  5  1  0  0  0  0
  2  3  1  0  0  0  0
  3  7  1  0  0  0  0
  3  4  2  0  0  0  0
  4 19  1  0  0  0  0
  5  4  1  0  0  0  0
  6  2  1  0  0  0  0
  8  1  1  0  0  0  0
  9  8  2  0  0  0  0
 10  8  1  0  0  0  0
 10 11  1  0  0  0  0
 11 16  1  0  0  0  0
 12 17  1  0  0  0  0
 12 11  2  0  0  0  0
 13 12  1  0  0  0  0
 14 15  1  0  0  0  0
 14 13  2  0  0  0  0
 15 10  2  0  0  0  0
 18 14  1  0  0  0  0
 19 20  2  0  0  0  0
 19 21  1  0  0  0  0
 21 22  1  0  0  0  0
 22 23  2  0  0  0  0
 24 23  1  0  0  0  0
 25 24  2  0  0  0  0
 26 25  1  0  0  0  0
 27 26  2  0  0  0  0
 28 27  1  0  0  0  0
 29 31  2  0  0  0  0
 29 27  1  0  0  0  0
 30 29  1  0  0  0  0
 31 32  1  0  0  0  0
 32 21  2  0  0  0  0
 32 25  1  0  0  0  0
M  END
>  <minimizedAffinity>
-6.03496885

$$$$

 OpenBabel03272507313D

 32 35  0  0  0  0  0  0  0  0999 V2000
   36.2520   27.9160   32.8770 C   0  0  0  0  0  0  0  0  0  0  0  0
   36.5830   28.1660   34.1610 C   0  0  0  0  0  0  0  0  0  0  0  0
   37.2220   27.0460   34.6910 C   0  0  0  0  0  0  0  0  0  0  0  0
   37.2430   26.1230   33.6250 C   0  0  0  0  0  0  0  0  0  0  0  0
   36.6670   26.7250   32.6540 O   0  0  0  0  0  0  0  0  0  0  0  0
   36.4710   28.9960   34.8420 H   0  0  0  0  0  0  0  0  0  0  0  0
   37.6370   26.8430   35.6710 H   0  0  0  0  0  0  0  0  0  0  0  0
   35.5730   28.8640   32.0300 C   0  0  0  0  0  0  0  0  0  0  0  0
   34.4420   29.2540   32.3490 O   0  0  0  0  0  0  0  0  0  0  0  0
   36.2830   29.3050   30.8330 C   0  0  0  0  0  0  0  0  0  0  0  0
   36.3540   30.6960   30.6540 C   0  0  0  0  0  0  0  0  0  0  0  0
   37.0310   31.1450   29.5160 C   0  0  0  0  0  0  0  0  0  0  0  0
   37.5740   30.2420   28.6580 N   0  0  0  0  0  0  0  0  0  0  0  0
   37.4730   28.9090   28.8830 C   0  0  0  0  0  0  0  0  0  0  0  0
   36.8370   28.4520   29.9570 N   0  0  0  0  0  0  0  0  0  0  0  0
   35.9230   31.4150   31.3330 H   0  0  0  0  0  0  0  0  0  0  0  0
   37.1340   32.2090   29.2970 H   0  0  0  0  0  0  0  0  0  0  0  0
   37.8920   28.1710   28.2230 H   0  0  0  0  0  0  0  0  0  0  0  0
   37.8280   24.7790   33.7120 C   0  0  0  0  0  0  0  0  0  0  0  0
   37.3900   23.8700   32.9660 O   0  0  0  0  0  0  0  0  0  0  0  0
   38.8660   24.1720   34.5070 C   0  0  0  0  0  0  0  0  0  0  0  0
   40.0120   23.8720   33.8490 N   0  0  0  0  0  0  0  0  0  0  0  0
   41.0890   23.2930   34.4510 C   0  0  0  0  0  3  0  0  0  0  0  0
   41.0400   22.9990   35.7530 N   0  0  0  0  0  0  0  0  0  0  0  0
   39.9530   23.2570   36.4990 C   0  0  0  0  0  0  0  0  0  0  0  0
   39.8980   22.9890   37.8480 C   0  0  0  0  0  3  0  0  0  0  0  0
   38.7930   23.2930   38.5950 C   0  0  0  0  0  0  0  0  0  0  0  0
   38.7500   23.0810   39.6530 H   0  0  0  0  0  0  0  0  0  0  0  0
   37.7310   23.8890   37.9220 C   0  0  0  0  0  0  0  0  0  0  0  0
   36.8660   24.1220   38.5340 H   0  0  0  0  0  0  0  0  0  0  0  0
   37.8170   24.1430   36.5740 C   0  0  0  0  0  3  0  0  0  0  0  0
   38.9150   23.8390   35.8170 C   0  0  0  0  0  0  0  0  0  0  0  0
  1  2  2  0  0  0  0
  2  3  1  0  0  0  0
  2  6  1  0  0  0  0
  3  7  1  0  0  0  0
  4 19  1  0  0  0  0
  4  3  2  0  0  0  0
  5  1  1  0  0  0  0
  5  4  1  0  0  0  0
  8  9  2  0  0  0  0
  8  1  1  0  0  0  0
 10  8  1  0  0  0  0
 11 10  1  0  0  0  0
 11 16  1  0  0  0  0
 12 11  2  0  0  0  0
 13 14  2  0  0  0  0
 13 12  1  0  0  0  0
 14 15  1  0  0  0  0
 15 10  2  0  0  0  0
 17 12  1  0  0  0  0
 18 14  1  0  0  0  0
 19 21  1  0  0  0  0
 20 19  2  0  0  0  0
 21 32  1  0  0  0  0
 22 23  1  0  0  0  0
 22 21  2  0  0  0  0
 23 24  2  0  0  0  0
 24 25  1  0  0  0  0
 25 26  1  0  0  0  0
 26 27  2  0  0  0  0
 27 28  1  0  0  0  0
 29 30  1  0  0  0  0
 29 27  1  0  0  0  0
 31 29  2  0  0  0  0
 32 25  2  0  0  0  0
 32 31  1  0  0  0  0
M  END
>  <minimizedAffinity>
-5.9868021

$$$$

 OpenBabel03272507313D

 32 35  0  0  0  0  0  0  0  0999 V2000
   37.1660   26.8220   31.8350 C   0  0  0  0  0  0  0  0  0  0  0  0
   37.5050   26.9570   33.1330 C   0  0  0  0  0  0  0  0  0  0  0  0
   36.6760   27.9100   33.7230 C   0  0  0  0  0  0  0  0  0  0  0  0
   35.8270   28.3250   32.6760 C   0  0  0  0  0  0  0  0  0  0  0  0
   36.1970   27.6410   31.6590 O   0  0  0  0  0  0  0  0  0  0  0  0
   38.2370   26.5150   33.7920 H   0  0  0  0  0  0  0  0  0  0  0  0
   36.6230   28.3020   34.7320 H   0  0  0  0  0  0  0  0  0  0  0  0
   37.8260   25.9170   30.9280 C   0  0  0  0  0  0  0  0  0  0  0  0
   38.6740   26.3630   30.1440 O   0  0  0  0  0  0  0  0  0  0  0  0
   37.4390   24.5110   31.0020 C   0  0  0  0  0  0  0  0  0  0  0  0
   36.0600   24.2730   31.1160 C   0  0  0  0  0  0  0  0  0  0  0  0
   35.6610   22.9350   31.1860 C   0  0  0  0  0  0  0  0  0  0  0  0
   36.5990   21.9530   31.1430 N   0  0  0  0  0  0  0  0  0  0  0  0
   37.9190   22.2440   31.0330 C   0  0  0  0  0  0  0  0  0  0  0  0
   38.3280   23.5070   30.9630 N   0  0  0  0  0  0  0  0  0  0  0  0
   35.3130   25.0510   31.1510 H   0  0  0  0  0  0  0  0  0  0  0  0
   34.6090   22.6570   31.2770 H   0  0  0  0  0  0  0  0  0  0  0  0
   38.6830   21.4890   30.9960 H   0  0  0  0  0  0  0  0  0  0  0  0
   34.7690   29.3320   32.8240 C   0  0  0  0  0  0  0  0  0  0  0  0
   34.4610   30.0470   31.8410 O   0  0  0  0  0  0  0  0  0  0  0  0
   33.9160   29.7580   33.9060 C   0  0  0  0  0  0  0  0  0  0  0  0
   32.6630   29.2430   33.9050 N   0  0  0  0  0  0  0  0  0  0  0  0
   31.7310   29.5440   34.8530 C   0  0  0  0  0  3  0  0  0  0  0  0
   32.0430   30.3850   35.8440 N   0  0  0  0  0  0  0  0  0  0  0  0
   33.2580   30.9490   35.9390 C   0  0  0  0  0  0  0  0  0  0  0  0
   33.6050   31.7930   36.9710 C   0  0  0  0  0  3  0  0  0  0  0  0
   34.8610   32.3280   37.0670 C   0  0  0  0  0  0  0  0  0  0  0  0
   35.1330   32.9910   37.8750 H   0  0  0  0  0  0  0  0  0  0  0  0
   35.7670   31.9750   36.0710 C   0  0  0  0  0  0  0  0  0  0  0  0
   36.7560   32.4110   36.1680 H   0  0  0  0  0  0  0  0  0  0  0  0
   35.3880   31.1320   35.0540 C   0  0  0  0  0  3  0  0  0  0  0  0
   34.1350   30.5930   34.9470 C   0  0  0  0  0  0  0  0  0  0  0  0
  1  2  2  0  0  0  0
  2  3  1  0  0  0  0
  2  6  1  0  0  0  0
  3  7  1  0  0  0  0
  4 19  1  0  0  0  0
  4  3  2  0  0  0  0
  5  1  1  0  0  0  0
  5  4  1  0  0  0  0
  8 10  1  0  0  0  0
  8  1  1  0  0  0  0
  9  8  2  0  0  0  0
 10 11  1  0  0  0  0
 11 16  1  0  0  0  0
 11 12  2  0  0  0  0
 12 17  1  0  0  0  0
 13 12  1  0  0  0  0
 14 13  2  0  0  0  0
 15 10  2  0  0  0  0
 15 14  1  0  0  0  0
 18 14  1  0  0  0  0
 19 21  1  0  0  0  0
 20 19  2  0  0  0  0
 21 32  1  0  0  0  0
 22 21  2  0  0  0  0
 22 23  1  0  0  0  0
 23 24  2  0  0  0  0
 24 25  1  0  0  0  0
 25 26  1  0  0  0  0
 26 27  2  0  0  0  0
 27 28  1  0  0  0  0
 29 30  1  0  0  0  0
 29 27  1  0  0  0  0
 31 29  2  0  0  0  0
 32 31  1  0  0  0  0
 32 25  2  0  0  0  0
M  END
>  <minimizedAffinity>
-5.77698851

$$$$

 OpenBabel03272507313D

 32 35  0  0  0  0  0  0  0  0999 V2000
   35.5910   28.9220   33.7720 C   0  0  0  0  0  0  0  0  0  0  0  0
   36.2570   28.6430   32.6330 C   0  0  0  0  0  0  0  0  0  0  0  0
   37.3300   27.8020   32.9280 C   0  0  0  0  0  0  0  0  0  0  0  0
   37.2430   27.6090   34.3230 C   0  0  0  0  0  0  0  0  0  0  0  0
   36.2230   28.2900   34.6890 O   0  0  0  0  0  0  0  0  0  0  0  0
   36.1550   28.9080   31.5920 H   0  0  0  0  0  0  0  0  0  0  0  0
   38.0950   27.3560   32.3050 H   0  0  0  0  0  0  0  0  0  0  0  0
   34.4260   29.7690   33.8270 C   0  0  0  0  0  0  0  0  0  0  0  0
   33.6610   29.8030   32.8540 O   0  0  0  0  0  0  0  0  0  0  0  0
   34.2280   30.5390   35.0510 C   0  0  0  0  0  0  0  0  0  0  0  0
   35.3020   31.3640   35.4220 C   0  0  0  0  0  0  0  0  0  0  0  0
   35.1380   32.1150   36.5900 C   0  0  0  0  0  0  0  0  0  0  0  0
   33.9810   32.0160   37.2940 N   0  0  0  0  0  0  0  0  0  0  0  0
   32.9770   31.2010   36.8870 C   0  0  0  0  0  0  0  0  0  0  0  0
   33.1030   30.4750   35.7800 N   0  0  0  0  0  0  0  0  0  0  0  0
   36.2230   31.4440   34.8660 H   0  0  0  0  0  0  0  0  0  0  0  0
   35.9220   32.7820   36.9540 H   0  0  0  0  0  0  0  0  0  0  0  0
   32.0500   31.1020   37.4220 H   0  0  0  0  0  0  0  0  0  0  0  0
   38.1750   26.7800   35.0980 C   0  0  0  0  0  0  0  0  0  0  0  0
   39.3220   27.2210   35.3520 O   0  0  0  0  0  0  0  0  0  0  0  0
   38.1150   25.4680   35.6920 C   0  0  0  0  0  0  0  0  0  0  0  0
   38.0710   25.4380   37.0460 N   0  0  0  0  0  0  0  0  0  0  0  0
   38.0140   24.2810   37.7660 C   0  0  0  0  0  3  0  0  0  0  0  0
   37.9980   23.1060   37.1290 N   0  0  0  0  0  0  0  0  0  0  0  0
   38.0350   23.0250   35.7890 C   0  0  0  0  0  0  0  0  0  0  0  0
   37.9860   21.8240   35.1170 C   0  0  0  0  0  3  0  0  0  0  0  0
   37.9890   21.7660   33.7510 C   0  0  0  0  0  0  0  0  0  0  0  0
   37.9520   20.8240   33.2240 H   0  0  0  0  0  0  0  0  0  0  0  0
   38.0410   22.9830   33.0760 C   0  0  0  0  0  0  0  0  0  0  0  0
   38.0420   22.9120   31.9930 H   0  0  0  0  0  0  0  0  0  0  0  0
   38.0900   24.1640   33.7760 C   0  0  0  0  0  3  0  0  0  0  0  0
   38.0910   24.2330   35.1420 C   0  0  0  0  0  0  0  0  0  0  0  0
  1  8  1  0  0  0  0
  1  5  1  0  0  0  0
  2  3  1  0  0  0  0
  2  1  2  0  0  0  0
  3  4  2  0  0  0  0
  4  5  1  0  0  0  0
  4 19  1  0  0  0  0
  6  2  1  0  0  0  0
  7  3  1  0  0  0  0
  8 10  1  0  0  0  0
  9  8  2  0  0  0  0
 10 11  2  0  0  0  0
 10 15  1  0  0  0  0
 11 12  1  0  0  0  0
 12 17  1  0  0  0  0
 12 13  2  0  0  0  0
 14 13  1  0  0  0  0
 14 18  1  0  0  0  0
 15 14  2  0  0  0  0
 16 11  1  0  0  0  0
 19 20  2  0  0  0  0
 19 21  1  0  0  0  0
 21 22  1  0  0  0  0
 22 23  2  0  0  0  0
 24 23  1  0  0  0  0
 25 24  2  0  0  0  0
 26 25  1  0  0  0  0
 27 26  2  0  0  0  0
 28 27  1  0  0  0  0
 29 27  1  0  0  0  0
 29 31  2  0  0  0  0
 30 29  1  0  0  0  0
 31 32  1  0  0  0  0
 32 21  2  0  0  0  0
 32 25  1  0  0  0  0
M  END
>  <minimizedAffinity>
-5.76367998

$$$$

 OpenBabel03272507313D

 32 35  0  0  0  0  0  0  0  0999 V2000
   38.1650   23.9960   33.6500 C   0  0  0  0  0  0  0  0  0  0  0  0
   39.2290   24.7520   33.3090 C   0  0  0  0  0  0  0  0  0  0  0  0
   38.7940   25.8230   32.5290 C   0  0  0  0  0  0  0  0  0  0  0  0
   37.3980   25.6390   32.4390 C   0  0  0  0  0  0  0  0  0  0  0  0
   37.1590   24.5760   33.1100 O   0  0  0  0  0  0  0  0  0  0  0  0
   40.2920   24.7200   33.4930 H   0  0  0  0  0  0  0  0  0  0  0  0
   39.3240   26.6440   32.0630 H   0  0  0  0  0  0  0  0  0  0  0  0
   38.2600   22.8040   34.4560 C   0  0  0  0  0  0  0  0  0  0  0  0
   38.1350   21.6990   33.9120 O   0  0  0  0  0  0  0  0  0  0  0  0
   38.5010   22.9910   35.8830 C   0  0  0  0  0  0  0  0  0  0  0  0
   39.7350   22.5130   36.3520 C   0  0  0  0  0  0  0  0  0  0  0  0
   39.9920   22.6820   37.7160 C   0  0  0  0  0  0  0  0  0  0  0  0
   39.0630   23.2820   38.5050 N   0  0  0  0  0  0  0  0  0  0  0  0
   37.8860   23.7240   37.9950 C   0  0  0  0  0  0  0  0  0  0  0  0
   37.6140   23.5780   36.7020 N   0  0  0  0  0  0  0  0  0  0  0  0
   40.4750   22.0360   35.7290 H   0  0  0  0  0  0  0  0  0  0  0  0
   40.9260   22.3400   38.1670 H   0  0  0  0  0  0  0  0  0  0  0  0
   37.1330   24.2020   38.5930 H   0  0  0  0  0  0  0  0  0  0  0  0
   36.4960   26.5370   31.7070 C   0  0  0  0  0  0  0  0  0  0  0  0
   35.4790   26.0600   31.1460 O   0  0  0  0  0  0  0  0  0  0  0  0
   36.4730   27.9520   31.4310 C   0  0  0  0  0  0  0  0  0  0  0  0
   36.8060   28.3100   30.1680 N   0  0  0  0  0  0  0  0  0  0  0  0
   36.8370   29.6060   29.7430 C   0  0  0  0  0  3  0  0  0  0  0  0
   36.5260   30.5880   30.5940 N   0  0  0  0  0  0  0  0  0  0  0  0
   36.1790   30.3410   31.8670 C   0  0  0  0  0  0  0  0  0  0  0  0
   35.8250   31.3400   32.7470 C   0  0  0  0  0  3  0  0  0  0  0  0
   35.4410   31.0620   34.0300 C   0  0  0  0  0  0  0  0  0  0  0  0
   35.1650   31.8450   34.7200 H   0  0  0  0  0  0  0  0  0  0  0  0
   35.4240   29.7190   34.3980 C   0  0  0  0  0  0  0  0  0  0  0  0
   35.1160   29.5230   35.4200 H   0  0  0  0  0  0  0  0  0  0  0  0
   35.7840   28.7470   33.4970 C   0  0  0  0  0  3  0  0  0  0  0  0
   36.1730   29.0140   32.2130 C   0  0  0  0  0  0  0  0  0  0  0  0
  1  8  1  0  0  0  0
  2  6  1  0  0  0  0
  2  1  2  0  0  0  0
  3  2  1  0  0  0  0
  4  3  2  0  0  0  0
  4  5  1  0  0  0  0
  5  1  1  0  0  0  0
  7  3  1  0  0  0  0
  8 10  1  0  0  0  0
  9  8  2  0  0  0  0
 10 11  2  0  0  0  0
 10 15  1  0  0  0  0
 11 12  1  0  0  0  0
 12 17  1  0  0  0  0
 12 13  2  0  0  0  0
 14 13  1  0  0  0  0
 14 18  1  0  0  0  0
 15 14  2  0  0  0  0
 16 11  1  0  0  0  0
 19  4  1  0  0  0  0
 20 19  2  0  0  0  0
 21 19  1  0  0  0  0
 21 32  1  0  0  0  0
 22 21  2  0  0  0  0
 23 22  1  0  0  0  0
 23 24  2  0  0  0  0
 24 25  1  0  0  0  0
 25 32  2  0  0  0  0
 25 26  1  0  0  0  0
 26 27  2  0  0  0  0
 27 29  1  0  0  0  0
 27 28  1  0  0  0  0
 29 30  1  0  0  0  0
 31 29  2  0  0  0  0
 32 31  1  0  0  0  0
M  END
>  <minimizedAffinity>
-5.75800371

$$$$

 OpenBabel03272507313D

 32 35  0  0  0  0  0  0  0  0999 V2000
   37.7720   27.1040   34.4070 C   0  0  0  0  0  0  0  0  0  0  0  0
   37.3580   26.8580   33.1470 C   0  0  0  0  0  0  0  0  0  0  0  0
   36.4100   27.8150   32.7850 C   0  0  0  0  0  0  0  0  0  0  0  0
   36.2990   28.6390   33.9250 C   0  0  0  0  0  0  0  0  0  0  0  0
   37.1150   28.1400   34.7750 O   0  0  0  0  0  0  0  0  0  0  0  0
   37.5820   26.1240   32.3880 H   0  0  0  0  0  0  0  0  0  0  0  0
   35.8440   27.9670   31.8740 H   0  0  0  0  0  0  0  0  0  0  0  0
   38.7510   26.3010   35.0960 C   0  0  0  0  0  0  0  0  0  0  0  0
   39.8590   26.7920   35.3510 O   0  0  0  0  0  0  0  0  0  0  0  0
   38.3570   24.9410   35.4490 C   0  0  0  0  0  0  0  0  0  0  0  0
   37.9060   24.7690   36.7680 C   0  0  0  0  0  0  0  0  0  0  0  0
   37.5200   23.4760   37.1320 C   0  0  0  0  0  0  0  0  0  0  0  0
   37.5980   22.4710   36.2210 N   0  0  0  0  0  0  0  0  0  0  0  0
   38.0440   22.6960   34.9610 C   0  0  0  0  0  0  0  0  0  0  0  0
   38.4160   23.9160   34.5850 N   0  0  0  0  0  0  0  0  0  0  0  0
   37.8440   25.5650   37.4940 H   0  0  0  0  0  0  0  0  0  0  0  0
   37.1570   23.2500   38.1370 H   0  0  0  0  0  0  0  0  0  0  0  0
   38.1160   21.9220   34.2180 H   0  0  0  0  0  0  0  0  0  0  0  0
   35.4080   29.8020   34.0140 C   0  0  0  0  0  0  0  0  0  0  0  0
   35.1620   30.4670   32.9790 O   0  0  0  0  0  0  0  0  0  0  0  0
   34.6800   30.4460   35.0800 C   0  0  0  0  0  0  0  0  0  0  0  0
   35.3740   31.3630   35.7960 N   0  0  0  0  0  0  0  0  0  0  0  0
   34.8360   32.0600   36.8370 C   0  0  0  0  0  3  0  0  0  0  0  0
   33.5650   31.8480   37.1870 N   0  0  0  0  0  0  0  0  0  0  0  0
   32.7880   30.9630   36.5420 C   0  0  0  0  0  0  0  0  0  0  0  0
   31.4670   30.7560   36.8710 C   0  0  0  0  0  3  0  0  0  0  0  0
   30.6850   29.8750   36.1750 C   0  0  0  0  0  0  0  0  0  0  0  0
   29.6490   29.7110   36.4340 H   0  0  0  0  0  0  0  0  0  0  0  0
   31.2920   29.2010   35.1200 C   0  0  0  0  0  0  0  0  0  0  0  0
   30.6530   28.5080   34.5830 H   0  0  0  0  0  0  0  0  0  0  0  0
   32.6140   29.4290   34.8180 C   0  0  0  0  0  3  0  0  0  0  0  0
   33.4050   30.3050   35.5080 C   0  0  0  0  0  0  0  0  0  0  0  0
  1  5  1  0  0  0  0
  1  8  1  0  0  0  0
  2  1  2  0  0  0  0
  3  2  1  0  0  0  0
  3  4  2  0  0  0  0
  4 19  1  0  0  0  0
  4  5  1  0  0  0  0
  6  2  1  0  0  0  0
  7  3  1  0  0  0  0
  8  9  2  0  0  0  0
  8 10  1  0  0  0  0
 10 11  1  0  0  0  0
 11 12  2  0  0  0  0
 11 16  1  0  0  0  0
 12 17  1  0  0  0  0
 13 12  1  0  0  0  0
 14 13  2  0  0  0  0
 15 14  1  0  0  0  0
 15 10  2  0  0  0  0
 18 14  1  0  0  0  0
 19 21  1  0  0  0  0
 20 19  2  0  0  0  0
 21 32  2  0  0  0  0
 21 22  1  0  0  0  0
 22 23  2  0  0  0  0
 23 24  1  0  0  0  0
 25 26  1  0  0  0  0
 25 24  2  0  0  0  0
 27 28  1  0  0  0  0
 27 26  2  0  0  0  0
 29 27  1  0  0  0  0
 30 29  1  0  0  0  0
 31 29  2  0  0  0  0
 31 32  1  0  0  0  0
 32 25  1  0  0  0  0
M  END
>  <minimizedAffinity>
-5.75241232

$$$$

 OpenBabel03272507313D

 32 35  0  0  0  0  0  0  0  0999 V2000
   35.0800   30.1670   31.8780 C   0  0  0  0  0  0  0  0  0  0  0  0
   35.9510   30.2540   30.8510 C   0  0  0  0  0  0  0  0  0  0  0  0
   36.4600   28.9850   30.5780 C   0  0  0  0  0  0  0  0  0  0  0  0
   35.8230   28.1480   31.5190 C   0  0  0  0  0  0  0  0  0  0  0  0
   35.0680   28.9270   32.1980 O   0  0  0  0  0  0  0  0  0  0  0  0
   36.3270   31.0450   30.2200 H   0  0  0  0  0  0  0  0  0  0  0  0
   37.1720   28.6310   29.8430 H   0  0  0  0  0  0  0  0  0  0  0  0
   34.3710   31.2990   32.4190 C   0  0  0  0  0  0  0  0  0  0  0  0
   33.7920   32.0730   31.6450 O   0  0  0  0  0  0  0  0  0  0  0  0
   34.3870   31.4540   33.8710 C   0  0  0  0  0  0  0  0  0  0  0  0
   35.6490   31.3320   34.4740 C   0  0  0  0  0  0  0  0  0  0  0  0
   35.6930   31.4780   35.8640 C   0  0  0  0  0  0  0  0  0  0  0  0
   34.5460   31.7240   36.5490 N   0  0  0  0  0  0  0  0  0  0  0  0
   33.3540   31.8310   35.9120 C   0  0  0  0  0  0  0  0  0  0  0  0
   33.2810   31.6980   34.5910 N   0  0  0  0  0  0  0  0  0  0  0  0
   36.5610   31.1360   33.9320 H   0  0  0  0  0  0  0  0  0  0  0  0
   36.6310   31.3990   36.4160 H   0  0  0  0  0  0  0  0  0  0  0  0
   32.4310   32.0250   36.4260 H   0  0  0  0  0  0  0  0  0  0  0  0
   36.0460   26.7000   31.6150 C   0  0  0  0  0  0  0  0  0  0  0  0
   35.5180   25.9410   30.7670 O   0  0  0  0  0  0  0  0  0  0  0  0
   36.7750   25.8410   32.5150 C   0  0  0  0  0  0  0  0  0  0  0  0
   36.9410   24.5620   32.1010 N   0  0  0  0  0  0  0  0  0  0  0  0
   37.6040   23.6210   32.8320 C   0  0  0  0  0  3  0  0  0  0  0  0
   38.1250   23.9510   34.0170 N   0  0  0  0  0  0  0  0  0  0  0  0
   38.0190   25.1920   34.5190 C   0  0  0  0  0  0  0  0  0  0  0  0
   38.5780   25.5560   35.7240 C   0  0  0  0  0  3  0  0  0  0  0  0
   38.4880   26.8350   36.1980 C   0  0  0  0  0  0  0  0  0  0  0  0
   38.9250   27.1200   37.1440 H   0  0  0  0  0  0  0  0  0  0  0  0
   37.8050   27.7490   35.4010 C   0  0  0  0  0  0  0  0  0  0  0  0
   37.7470   28.7580   35.7970 H   0  0  0  0  0  0  0  0  0  0  0  0
   37.2580   27.3540   34.2030 C   0  0  0  0  0  3  0  0  0  0  0  0
   37.3390   26.0770   33.7210 C   0  0  0  0  0  0  0  0  0  0  0  0
  1  5  1  0  0  0  0
  1  8  1  0  0  0  0
  2  1  2  0  0  0  0
  3  2  1  0  0  0  0
  3  4  2  0  0  0  0
  4 19  1  0  0  0  0
  4  5  1  0  0  0  0
  6  2  1  0  0  0  0
  7  3  1  0  0  0  0
  8 10  1  0  0  0  0
  9  8  2  0  0  0  0
 10 11  2  0  0  0  0
 10 15  1  0  0  0  0
 11 12  1  0  0  0  0
 12 17  1  0  0  0  0
 12 13  2  0  0  0  0
 14 18  1  0  0  0  0
 14 13  1  0  0  0  0
 15 14  2  0  0  0  0
 16 11  1  0  0  0  0
 19 21  1  0  0  0  0
 20 19  2  0  0  0  0
 21 32  1  0  0  0  0
 22 21  2  0  0  0  0
 22 23  1  0  0  0  0
 23 24  2  0  0  0  0
 24 25  1  0  0  0  0
 25 26  1  0  0  0  0
 26 27  2  0  0  0  0
 27 28  1  0  0  0  0
 29 30  1  0  0  0  0
 29 27  1  0  0  0  0
 31 29  2  0  0  0  0
 32 31  1  0  0  0  0
 32 25  2  0  0  0  0
M  END
>  <minimizedAffinity>
-5.7353301

$$$$
