
 OpenBabel03272504573D

 36 39  0  0  1  0  0  0  0  0999 V2000
   36.2000   30.2090   49.6810 C   0  0  1  0  0  0  0  0  0  0  0  0
   34.8060   30.5750   49.7600 C   0  0  0  0  0  0  0  0  0  0  0  0
   35.2720   29.5990   48.7260 C   0  0  2  0  0  0  0  0  0  0  0  0
   36.6830   29.4590   50.3970 H   0  0  0  0  0  0  0  0  0  0  0  0
   34.4920   30.4240   50.7780 H   0  0  0  0  0  0  0  0  0  0  0  0
   34.5250   31.5810   49.3900 H   0  0  0  0  0  0  0  0  0  0  0  0
   34.9790   29.9370   47.7460 H   0  0  0  0  0  0  0  0  0  0  0  0
   37.2200   31.1580   49.1150 C   0  0  0  0  0  0  0  0  0  0  0  0
   37.2820   32.4260   49.7180 C   0  0  0  0  0  0  0  0  0  0  0  0
   38.2250   33.2760   49.1850 C   0  0  0  0  0  0  0  0  0  0  0  0
   39.0090   32.8740   48.1600 N   0  0  0  0  0  0  0  0  0  0  0  0
   38.9200   31.6410   47.6060 C   0  0  0  0  0  0  0  0  0  0  0  0
   37.9930   30.7530   48.1000 N   0  0  0  0  0  0  0  0  0  0  0  0
   39.7350   31.1900   46.5620 N   0  0  0  0  0  0  0  0  0  0  0  0
   36.6740   32.7540   50.5220 H   0  0  0  0  0  0  0  0  0  0  0  0
   38.3300   34.2700   49.5980 H   0  0  0  0  0  0  0  0  0  0  0  0
   40.7390   30.8790   46.7200 H   0  0  0  0  0  0  0  0  0  0  0  0
   39.3400   31.1600   45.6020 H   0  0  0  0  0  0  0  0  0  0  0  0
   34.9460   28.2630   48.9730 O   0  0  0  0  0  0  0  0  0  0  0  0
   33.7250   26.2650   47.8990 O   0  0  0  0  0  0  0  0  0  0  0  0
   33.7180   27.7580   47.9680 P   0  0  1  0  0  0  0  0  0  0  0  0
   32.1930   28.1650   48.6870 O   0  0  0  0  0  0  0  0  0  0  0  0
   31.5390   27.7140   48.0990 H   0  0  0  0  0  0  0  0  0  0  0  0
   33.8710   28.5220   46.4820 O   0  0  0  0  0  0  0  0  0  0  0  0
   33.0100   29.3820   45.8710 C   0  0  0  0  0  0  0  0  0  0  0  0
   31.7120   29.4970   46.1540 N   0  0  0  0  0  0  0  0  0  0  0  0
   30.9940   30.3970   45.4590 C   0  0  0  0  0  0  0  0  0  0  0  0
   31.5370   31.1790   44.4970 N   0  0  0  0  0  0  0  0  0  0  0  0
   32.8410   31.1020   44.1740 C   0  0  0  0  0  0  0  0  0  0  0  0
   33.4270   31.8870   43.1960 C   0  0  0  0  0  0  0  0  0  0  0  0
   34.7560   31.7770   42.8980 C   0  0  0  0  0  0  0  0  0  0  0  0
   35.2420   32.3740   42.1410 H   0  0  0  0  0  0  0  0  0  0  0  0
   35.5190   30.8740   43.5820 C   0  0  0  0  0  0  0  0  0  0  0  0
   36.5750   30.7690   43.3630 H   0  0  0  0  0  0  0  0  0  0  0  0
   34.9250   30.0970   44.5550 C   0  0  0  0  0  0  0  0  0  0  0  0
   33.5980   30.1770   44.8810 C   0  0  0  0  0  0  0  0  0  0  0  0
  1  2  1  0  0  0  0
  1  4  1  1  0  0  0
  2  5  1  0  0  0  0
  3  7  1  6  0  0  0
  3 19  1  0  0  0  0
  3  1  1  0  0  0  0
  3  2  1  0  0  0  0
  6  2  1  0  0  0  0
  8  1  1  0  0  0  0
  8  9  1  0  0  0  0
  9 15  1  0  0  0  0
 10 16  1  0  0  0  0
 10  9  2  0  0  0  0
 11 10  1  0  0  0  0
 12 13  1  0  0  0  0
 12 11  2  0  0  0  0
 13  8  2  0  0  0  0
 14 17  1  0  0  0  0
 14 12  1  0  0  0  0
 18 14  1  0  0  0  0
 21 20  2  6  0  0  0
 21 22  1  0  0  0  0
 21 19  1  0  0  0  0
 23 22  1  0  0  0  0
 24 21  1  0  0  0  0
 25 26  1  0  0  0  0
 25 24  1  0  0  0  0
 27 26  2  0  0  0  0
 28 27  1  0  0  0  0
 29 28  2  0  0  0  0
 29 36  1  0  0  0  0
 30 29  1  0  0  0  0
 31 30  2  0  0  0  0
 31 33  1  0  0  0  0
 32 31  1  0  0  0  0
 33 35  2  0  0  0  0
 34 33  1  0  0  0  0
 35 36  1  0  0  0  0
 36 25  2  0  0  0  0
M  END
>  <minimizedAffinity>
-5.74235773

>  <minimizedRMSD>
3.42757297

$$$$
