
 OpenBabel03272509473D

 28 30  0  0  0  0  0  0  0  0999 V2000
   33.8580   27.0840   47.9890 C   0  0  0  0  0  0  0  0  0  0  0  0
   33.1110   26.5910   48.6640 H   0  0  0  0  0  0  0  0  0  0  0  0
   34.7430   26.4150   48.0390 H   0  0  0  0  0  0  0  0  0  0  0  0
   33.2560   27.1320   46.6430 C   0  0  0  0  0  0  0  0  0  0  0  0
   33.4710   28.1850   45.8190 N   0  0  0  0  0  0  0  0  0  0  0  0
   32.9800   28.2770   44.5910 C   0  0  0  0  0  3  0  0  0  0  0  0
   32.2180   27.2880   44.0940 N   0  0  0  0  0  0  0  0  0  0  0  0
   31.9420   26.2030   44.8210 C   0  0  0  0  0  0  0  0  0  0  0  0
   31.1530   25.2140   44.2820 C   0  0  0  0  0  3  0  0  0  0  0  0
   30.9000   24.1240   45.0890 C   0  0  0  0  0  0  0  0  0  0  0  0
   30.2780   23.3470   44.6600 H   0  0  0  0  0  0  0  0  0  0  0  0
   31.3980   23.9990   46.3790 C   0  0  0  0  0  0  0  0  0  0  0  0
   31.1370   23.0950   46.9350 H   0  0  0  0  0  0  0  0  0  0  0  0
   32.1830   25.0330   46.8520 C   0  0  0  0  0  3  0  0  0  0  0  0
   32.4690   26.1450   46.0900 C   0  0  0  0  0  0  0  0  0  0  0  0
   34.1110   28.4360   48.5670 C   0  0  0  0  0  0  0  0  0  0  0  0
   33.1420   28.9780   48.6560 H   0  0  0  0  0  0  0  0  0  0  0  0
   34.7160   29.0330   47.8700 H   0  0  0  0  0  0  0  0  0  0  0  0
   34.7320   28.3210   49.8390 O   0  0  0  0  0  0  0  0  0  0  0  0
   37.3610   30.2380   51.4100 C   0  0  0  0  0  0  0  0  0  0  0  0
   38.0620   30.6650   50.2820 C   0  0  0  0  0  0  0  0  0  0  0  0
   37.5940   30.2690   49.0230 C   0  0  0  0  0  0  0  0  0  0  0  0
   36.4710   29.4870   49.0010 N   0  0  0  0  0  0  0  0  0  0  0  0
   35.8290   29.1000   50.1080 C   0  0  0  0  0  0  0  0  0  0  0  0
   36.2880   29.4860   51.3150 N   0  0  0  0  0  0  0  0  0  0  0  0
   37.7060   30.5330   52.4010 H   0  0  0  0  0  0  0  0  0  0  0  0
   38.9420   31.2820   50.3590 H   0  0  0  0  0  0  0  0  0  0  0  0
   38.0940   30.5670   48.1080 H   0  0  0  0  0  0  0  0  0  0  0  0
  1  3  1  0  0  0  0
  1 16  1  0  0  0  0
  1  2  1  0  0  0  0
  4  1  1  0  0  0  0
  5  4  2  0  0  0  0
  6  5  1  0  0  0  0
  7  6  2  0  0  0  0
  7  8  1  0  0  0  0
  8 15  1  0  0  0  0
  9  8  2  0  0  0  0
  9 10  1  0  0  0  0
 10 12  2  0  0  0  0
 11 10  1  0  0  0  0
 12 14  1  0  0  0  0
 12 13  1  0  0  0  0
 15  4  1  0  0  0  0
 15 14  2  0  0  0  0
 16 17  1  0  0  0  0
 16 19  1  0  0  0  0
 18 16  1  0  0  0  0
 19 24  1  0  0  0  0
 20 26  1  0  0  0  0
 21 27  1  0  0  0  0
 21 20  2  0  0  0  0
 22 21  1  0  0  0  0
 23 22  2  0  0  0  0
 23 24  1  0  0  0  0
 24 25  2  0  0  0  0
 25 20  1  0  0  0  0
 28 22  1  0  0  0  0
M  END
>  <minimizedAffinity>
-3.89670229

>  <minimizedRMSD>
0.462912887

$$$$
