
 OpenBabel03272502273D

 43 47  0  0  0  0  0  0  0  0999 V2000
   38.9620   25.4550   30.5320 N   0  0  0  0  0  0  0  0  0  0  0  0
   38.3720   24.2520   30.5060 C   0  0  0  0  0  0  0  0  0  0  0  0
   37.0080   24.1550   30.7490 C   0  0  0  0  0  0  0  0  0  0  0  0
   36.2910   25.3100   31.0110 C   0  0  0  0  0  0  0  0  0  0  0  0
   35.0600   25.4500   31.2540 O   0  0  0  0  0  0  0  0  0  0  0  0
   36.9320   26.5020   31.0280 N   0  0  0  0  0  0  0  0  0  0  0  0
   38.2690   26.5760   30.7880 C   0  0  0  0  0  0  0  0  0  0  0  0
   38.9110   27.6700   30.7920 O   0  0  0  0  0  0  0  0  0  0  0  0
   39.9870   25.5010   30.3480 H   0  0  0  0  0  0  0  0  0  0  0  0
   38.8450   23.3200   30.3130 H   0  0  0  0  0  0  0  0  0  0  0  0
   36.3140   27.7500   31.2830 C   0  0  0  0  0  0  0  0  0  0  0  0
   35.2910   27.8990   32.1500 N   0  0  0  0  0  0  0  0  0  0  0  0
   34.7020   29.0890   32.3940 C   0  0  0  0  0  3  0  0  0  0  0  0
   35.1360   30.2100   31.7520 N   0  0  0  0  0  0  0  0  0  0  0  0
   36.1570   30.1020   30.8780 C   0  0  0  0  0  0  0  0  0  0  0  0
   36.5970   31.2410   30.2260 C   0  0  0  0  0  3  0  0  0  0  0  0
   37.6380   31.1800   29.3230 C   0  0  0  0  0  0  0  0  0  0  0  0
   37.9820   32.0760   28.8130 H   0  0  0  0  0  0  0  0  0  0  0  0
   38.2540   29.9730   29.0600 C   0  0  0  0  0  0  0  0  0  0  0  0
   39.0600   29.9820   28.3470 H   0  0  0  0  0  0  0  0  0  0  0  0
   37.7990   28.8490   29.7220 C   0  0  0  0  0  3  0  0  0  0  0  0
   36.7580   28.8850   30.6290 C   0  0  0  0  0  0  0  0  0  0  0  0
   36.2140   23.0240   30.7690 O   0  0  0  0  0  0  0  0  0  0  0  0
   35.2960   20.5520   33.2360 C   0  0  0  0  0  0  0  0  0  0  0  0
   36.2140   20.8230   34.2620 C   0  0  0  0  0  0  0  0  0  0  0  0
   37.1140   21.8570   34.0510 C   0  0  0  0  0  0  0  0  0  0  0  0
   37.0400   22.5180   32.8850 N   0  0  0  0  0  0  0  0  0  0  0  0
   36.1530   22.2420   31.9120 C   0  0  0  0  0  0  0  0  0  0  0  0
   35.2670   21.2420   32.0950 N   0  0  0  0  0  0  0  0  0  0  0  0
   34.5830   19.7400   33.3930 H   0  0  0  0  0  0  0  0  0  0  0  0
   36.2380   20.2720   35.1740 H   0  0  0  0  0  0  0  0  0  0  0  0
   38.1040   22.2520   35.0280 C   0  0  0  0  0  0  0  0  0  0  0  0
   39.4620   22.1680   34.7410 C   0  0  0  0  0  0  0  0  0  0  0  0
   40.4400   22.5360   35.6240 C   0  0  0  0  0  0  0  0  0  0  0  0
   40.0790   23.0080   36.8420 N   0  0  0  0  0  0  0  0  0  0  0  0
   38.7640   23.0830   37.1020 C   0  0  0  0  0  0  0  0  0  0  0  0
   37.7800   22.7270   36.2490 N   0  0  0  0  0  0  0  0  0  0  0  0
   39.8000   21.7920   33.7670 H   0  0  0  0  0  0  0  0  0  0  0  0
   41.5010   22.4750   35.4100 H   0  0  0  0  0  0  0  0  0  0  0  0
   38.3350   23.5970   38.4310 C   0  0  0  0  0  0  0  0  0  0  0  0
   37.9160   24.9340   38.2490 F   0  0  0  0  0  0  0  0  0  0  0  0
   37.3460   22.8310   38.9710 F   0  0  0  0  0  0  0  0  0  0  0  0
   39.4000   23.6790   39.3130 F   0  0  0  0  0  0  0  0  0  0  0  0
  1  7  1  0  0  0  0
  2  1  1  0  0  0  0
  2  3  2  0  0  0  0
  3 23  1  0  0  0  0
  3  4  1  0  0  0  0
  4  6  1  0  0  0  0
  4  5  2  0  0  0  0
  6 11  1  0  0  0  0
  7  8  2  0  0  0  0
  7  6  1  0  0  0  0
  9  1  1  0  0  0  0
 10  2  1  0  0  0  0
 11 12  1  0  0  0  0
 12 13  2  0  0  0  0
 14 13  1  0  0  0  0
 15 14  2  0  0  0  0
 16 15  1  0  0  0  0
 17 16  2  0  0  0  0
 18 17  1  0  0  0  0
 19 17  1  0  0  0  0
 19 21  2  0  0  0  0
 20 19  1  0  0  0  0
 21 22  1  0  0  0  0
 22 15  1  0  0  0  0
 22 11  2  0  0  0  0
 23 28  1  0  0  0  0
 24 30  1  0  0  0  0
 24 25  1  0  0  0  0
 25 31  1  0  0  0  0
 26 25  2  0  0  0  0
 26 32  1  0  0  0  0
 27 26  1  0  0  0  0
 28 29  1  0  0  0  0
 28 27  2  0  0  0  0
 29 24  2  0  0  0  0
 32 37  1  0  0  0  0
 33 32  2  0  0  0  0
 33 34  1  0  0  0  0
 34 35  2  0  0  0  0
 35 36  1  0  0  0  0
 36 40  1  0  0  0  0
 37 36  2  0  0  0  0
 38 33  1  0  0  0  0
 39 34  1  0  0  0  0
 40 42  1  0  0  0  0
 40 43  1  0  0  0  0
 41 40  1  0  0  0  0
M  END
>  <minimizedAffinity>
-7.95877266

$$$$

 OpenBabel03272502273D

 43 47  0  0  0  0  0  0  0  0999 V2000
   33.1240   30.4460   33.9390 N   0  0  0  0  0  0  0  0  0  0  0  0
   34.1460   29.5800   33.9810 C   0  0  0  0  0  0  0  0  0  0  0  0
   35.2910   29.9110   34.6950 C   0  0  0  0  0  0  0  0  0  0  0  0
   35.3440   31.1310   35.3470 C   0  0  0  0  0  0  0  0  0  0  0  0
   36.2740   31.6250   36.0450 O   0  0  0  0  0  0  0  0  0  0  0  0
   34.2860   31.9710   35.2740 N   0  0  0  0  0  0  0  0  0  0  0  0
   33.1740   31.6290   34.5700 C   0  0  0  0  0  0  0  0  0  0  0  0
   32.1590   32.3840   34.4740 O   0  0  0  0  0  0  0  0  0  0  0  0
   32.2760   30.1740   33.3960 H   0  0  0  0  0  0  0  0  0  0  0  0
   34.1880   28.6270   33.5120 H   0  0  0  0  0  0  0  0  0  0  0  0
   34.2180   33.2420   35.8940 C   0  0  0  0  0  0  0  0  0  0  0  0
   35.2890   34.0510   36.0310 N   0  0  0  0  0  0  0  0  0  0  0  0
   35.2230   35.2630   36.6210 C   0  0  0  0  0  3  0  0  0  0  0  0
   34.0370   35.7210   37.1120 N   0  0  0  0  0  0  0  0  0  0  0  0
   32.9440   34.9420   36.9940 C   0  0  0  0  0  0  0  0  0  0  0  0
   31.7390   35.4070   37.4930 C   0  0  0  0  0  3  0  0  0  0  0  0
   30.5930   34.6450   37.3950 C   0  0  0  0  0  0  0  0  0  0  0  0
   29.6480   35.0130   37.7870 H   0  0  0  0  0  0  0  0  0  0  0  0
   30.6380   33.4030   36.7950 C   0  0  0  0  0  0  0  0  0  0  0  0
   29.7170   32.8510   36.7450 H   0  0  0  0  0  0  0  0  0  0  0  0
   31.8510   32.9580   36.3040 C   0  0  0  0  0  3  0  0  0  0  0  0
   33.0120   33.7030   36.3900 C   0  0  0  0  0  0  0  0  0  0  0  0
   36.4460   29.1700   34.8640 O   0  0  0  0  0  0  0  0  0  0  0  0
   36.6860   26.8520   32.1070 C   0  0  0  0  0  0  0  0  0  0  0  0
   37.1730   25.7020   32.7450 C   0  0  0  0  0  0  0  0  0  0  0  0
   37.3990   25.7830   34.1110 C   0  0  0  0  0  0  0  0  0  0  0  0
   37.1340   26.9510   34.7170 N   0  0  0  0  0  0  0  0  0  0  0  0
   36.6660   28.0440   34.0860 C   0  0  0  0  0  0  0  0  0  0  0  0
   36.4390   27.9890   32.7580 N   0  0  0  0  0  0  0  0  0  0  0  0
   36.5050   26.7980   31.0300 H   0  0  0  0  0  0  0  0  0  0  0  0
   37.3710   24.7930   32.2250 H   0  0  0  0  0  0  0  0  0  0  0  0
   37.8860   24.6720   34.8970 C   0  0  0  0  0  0  0  0  0  0  0  0
   38.3950   23.5330   34.2820 C   0  0  0  0  0  0  0  0  0  0  0  0
   38.8770   22.4570   34.9780 C   0  0  0  0  0  0  0  0  0  0  0  0
   38.8630   22.4930   36.3320 N   0  0  0  0  0  0  0  0  0  0  0  0
   38.3680   23.5990   36.9090 C   0  0  0  0  0  0  0  0  0  0  0  0
   37.8870   24.6740   36.2470 N   0  0  0  0  0  0  0  0  0  0  0  0
   38.4270   23.4620   33.1890 H   0  0  0  0  0  0  0  0  0  0  0  0
   39.2760   21.5650   34.5080 H   0  0  0  0  0  0  0  0  0  0  0  0
   38.3380   23.6680   38.3940 C   0  0  0  0  0  0  0  0  0  0  0  0
   38.0890   25.0140   38.7480 F   0  0  0  0  0  0  0  0  0  0  0  0
   37.3990   22.8310   38.9180 F   0  0  0  0  0  0  0  0  0  0  0  0
   39.5780   23.3840   38.9420 F   0  0  0  0  0  0  0  0  0  0  0  0
  1  2  1  0  0  0  0
  1  7  1  0  0  0  0
  2  3  2  0  0  0  0
  3 23  1  0  0  0  0
  3  4  1  0  0  0  0
  4  5  2  0  0  0  0
  6  4  1  0  0  0  0
  6 11  1  0  0  0  0
  7  6  1  0  0  0  0
  8  7  2  0  0  0  0
  9  1  1  0  0  0  0
 10  2  1  0  0  0  0
 11 12  2  0  0  0  0
 11 22  1  0  0  0  0
 12 13  1  0  0  0  0
 13 14  2  0  0  0  0
 15 14  1  0  0  0  0
 15 16  1  0  0  0  0
 17 16  2  0  0  0  0
 17 18  1  0  0  0  0
 19 17  1  0  0  0  0
 20 19  1  0  0  0  0
 21 22  1  0  0  0  0
 21 19  2  0  0  0  0
 22 15  2  0  0  0  0
 24 25  2  0  0  0  0
 24 29  1  0  0  0  0
 25 26  1  0  0  0  0
 26 27  2  0  0  0  0
 26 32  1  0  0  0  0
 28 27  1  0  0  0  0
 28 23  1  0  0  0  0
 29 28  2  0  0  0  0
 30 24  1  0  0  0  0
 31 25  1  0  0  0  0
 32 37  1  0  0  0  0
 33 32  2  0  0  0  0
 33 34  1  0  0  0  0
 34 35  2  0  0  0  0
 35 36  1  0  0  0  0
 36 40  1  0  0  0  0
 37 36  2  0  0  0  0
 38 33  1  0  0  0  0
 39 34  1  0  0  0  0
 40 41  1  0  0  0  0
 40 42  1  0  0  0  0
 40 43  1  0  0  0  0
M  END
>  <minimizedAffinity>
-7.45411777

$$$$

 OpenBabel03272502273D

 43 47  0  0  0  0  0  0  0  0999 V2000
   35.1740   29.7790   30.7940 N   0  0  0  0  0  0  0  0  0  0  0  0
   36.2240   28.9530   30.9020 C   0  0  0  0  0  0  0  0  0  0  0  0
   36.6690   28.5770   32.1630 C   0  0  0  0  0  0  0  0  0  0  0  0
   36.0130   29.0680   33.2790 C   0  0  0  0  0  0  0  0  0  0  0  0
   36.2460   28.8570   34.5020 O   0  0  0  0  0  0  0  0  0  0  0  0
   34.9570   29.9010   33.1180 N   0  0  0  0  0  0  0  0  0  0  0  0
   34.5360   30.2570   31.8740 C   0  0  0  0  0  0  0  0  0  0  0  0
   33.5540   31.0330   31.6750 O   0  0  0  0  0  0  0  0  0  0  0  0
   34.8600   30.0460   29.8370 H   0  0  0  0  0  0  0  0  0  0  0  0
   36.7820   28.5310   30.1020 H   0  0  0  0  0  0  0  0  0  0  0  0
   34.2050   30.4680   34.1750 C   0  0  0  0  0  0  0  0  0  0  0  0
   34.7530   30.8340   35.3520 N   0  0  0  0  0  0  0  0  0  0  0  0
   34.0360   31.3760   36.3590 C   0  0  0  0  0  3  0  0  0  0  0  0
   32.6960   31.5760   36.2130 N   0  0  0  0  0  0  0  0  0  0  0  0
   32.1120   31.2240   35.0500 C   0  0  0  0  0  0  0  0  0  0  0  0
   30.7510   31.4270   34.9030 C   0  0  0  0  0  3  0  0  0  0  0  0
   30.1090   31.0820   33.7310 C   0  0  0  0  0  0  0  0  0  0  0  0
   29.0390   31.2440   33.6170 H   0  0  0  0  0  0  0  0  0  0  0  0
   30.8230   30.5270   32.6890 C   0  0  0  0  0  0  0  0  0  0  0  0
   30.2740   30.2770   31.7990 H   0  0  0  0  0  0  0  0  0  0  0  0
   32.1810   30.3330   32.8580 C   0  0  0  0  0  3  0  0  0  0  0  0
   32.8460   30.6700   34.0210 C   0  0  0  0  0  0  0  0  0  0  0  0
   37.7220   27.7450   32.4940 O   0  0  0  0  0  0  0  0  0  0  0  0
   36.7610   24.3700   31.6410 C   0  0  0  0  0  0  0  0  0  0  0  0
   37.3110   23.6420   32.7060 C   0  0  0  0  0  0  0  0  0  0  0  0
   37.9940   24.3580   33.6780 C   0  0  0  0  0  0  0  0  0  0  0  0
   38.0770   25.6890   33.5270 N   0  0  0  0  0  0  0  0  0  0  0  0
   37.5430   26.3700   32.4960 C   0  0  0  0  0  0  0  0  0  0  0  0
   36.8740   25.6960   31.5390 N   0  0  0  0  0  0  0  0  0  0  0  0
   36.2210   23.8160   30.8700 H   0  0  0  0  0  0  0  0  0  0  0  0
   37.2210   22.5830   32.7880 H   0  0  0  0  0  0  0  0  0  0  0  0
   38.5970   23.7380   34.8360 C   0  0  0  0  0  0  0  0  0  0  0  0
   39.6210   22.8080   34.6930 C   0  0  0  0  0  0  0  0  0  0  0  0
   40.2330   22.1970   35.7550 C   0  0  0  0  0  0  0  0  0  0  0  0
   39.8300   22.5070   37.0100 N   0  0  0  0  0  0  0  0  0  0  0  0
   38.8410   23.4060   37.1290 C   0  0  0  0  0  0  0  0  0  0  0  0
   38.2210   24.0230   36.1000 N   0  0  0  0  0  0  0  0  0  0  0  0
   39.9800   22.5270   33.6960 H   0  0  0  0  0  0  0  0  0  0  0  0
   41.0320   21.4710   35.6550 H   0  0  0  0  0  0  0  0  0  0  0  0
   38.3750   23.7670   38.4950 C   0  0  0  0  0  0  0  0  0  0  0  0
   37.2860   22.9220   38.8060 F   0  0  0  0  0  0  0  0  0  0  0  0
   39.3740   23.6550   39.4140 F   0  0  0  0  0  0  0  0  0  0  0  0
   37.8470   25.0470   38.5310 F   0  0  0  0  0  0  0  0  0  0  0  0
  1  2  1  0  0  0  0
  1  7  1  0  0  0  0
  2  3  2  0  0  0  0
  3 23  1  0  0  0  0
  3  4  1  0  0  0  0
  4  5  2  0  0  0  0
  6  4  1  0  0  0  0
  6 11  1  0  0  0  0
  7  6  1  0  0  0  0
  8  7  2  0  0  0  0
  9  1  1  0  0  0  0
 10  2  1  0  0  0  0
 11 12  1  0  0  0  0
 12 13  2  0  0  0  0
 14 13  1  0  0  0  0
 15 14  2  0  0  0  0
 16 15  1  0  0  0  0
 17 16  2  0  0  0  0
 18 17  1  0  0  0  0
 19 21  2  0  0  0  0
 19 17  1  0  0  0  0
 20 19  1  0  0  0  0
 21 22  1  0  0  0  0
 22 11  2  0  0  0  0
 22 15  1  0  0  0  0
 23 28  1  0  0  0  0
 24 25  1  0  0  0  0
 25 31  1  0  0  0  0
 25 26  2  0  0  0  0
 26 32  1  0  0  0  0
 27 26  1  0  0  0  0
 28 27  2  0  0  0  0
 29 24  2  0  0  0  0
 29 28  1  0  0  0  0
 30 24  1  0  0  0  0
 32 37  1  0  0  0  0
 33 32  2  0  0  0  0
 33 34  1  0  0  0  0
 34 35  2  0  0  0  0
 35 36  1  0  0  0  0
 36 40  1  0  0  0  0
 37 36  2  0  0  0  0
 38 33  1  0  0  0  0
 39 34  1  0  0  0  0
 40 43  1  0  0  0  0
 40 41  1  0  0  0  0
 40 42  1  0  0  0  0
M  END
>  <minimizedAffinity>
-7.37053347

$$$$

 OpenBabel03272502273D

 43 47  0  0  0  0  0  0  0  0999 V2000
   39.7290   25.2880   31.1990 N   0  0  0  0  0  0  0  0  0  0  0  0
   39.2140   24.0520   31.1550 C   0  0  0  0  0  0  0  0  0  0  0  0
   37.8350   23.8870   31.1680 C   0  0  0  0  0  0  0  0  0  0  0  0
   37.0270   25.0090   31.2260 C   0  0  0  0  0  0  0  0  0  0  0  0
   35.7660   25.0870   31.2460 O   0  0  0  0  0  0  0  0  0  0  0  0
   37.5940   26.2370   31.2700 N   0  0  0  0  0  0  0  0  0  0  0  0
   38.9470   26.3780   31.2560 C   0  0  0  0  0  0  0  0  0  0  0  0
   39.5230   27.5070   31.2950 O   0  0  0  0  0  0  0  0  0  0  0  0
   40.7670   25.3860   31.1880 H   0  0  0  0  0  0  0  0  0  0  0  0
   39.7590   23.1410   31.1090 H   0  0  0  0  0  0  0  0  0  0  0  0
   36.8800   27.4580   31.3310 C   0  0  0  0  0  0  0  0  0  0  0  0
   35.7160   27.5940   31.9990 N   0  0  0  0  0  0  0  0  0  0  0  0
   35.0350   28.7590   32.0580 C   0  0  0  0  0  3  0  0  0  0  0  0
   35.5170   29.8640   31.4240 N   0  0  0  0  0  0  0  0  0  0  0  0
   36.6780   29.7680   30.7460 C   0  0  0  0  0  0  0  0  0  0  0  0
   37.1660   30.8920   30.1020 C   0  0  0  0  0  3  0  0  0  0  0  0
   38.3500   30.8410   29.3950 C   0  0  0  0  0  0  0  0  0  0  0  0
   38.7330   31.7250   28.8910 H   0  0  0  0  0  0  0  0  0  0  0  0
   39.0620   29.6610   29.3230 C   0  0  0  0  0  0  0  0  0  0  0  0
   39.9780   29.6770   28.7590 H   0  0  0  0  0  0  0  0  0  0  0  0
   38.5560   28.5520   29.9730 C   0  0  0  0  0  3  0  0  0  0  0  0
   37.3730   28.5770   30.6860 C   0  0  0  0  0  0  0  0  0  0  0  0
   37.1060   22.7120   31.1310 O   0  0  0  0  0  0  0  0  0  0  0  0
   35.4530   20.6740   33.6110 C   0  0  0  0  0  0  0  0  0  0  0  0
   36.2070   20.9590   34.7590 C   0  0  0  0  0  0  0  0  0  0  0  0
   37.2600   21.8500   34.6210 C   0  0  0  0  0  0  0  0  0  0  0  0
   37.4790   22.3710   33.4030 N   0  0  0  0  0  0  0  0  0  0  0  0
   36.7440   22.0840   32.3130 C   0  0  0  0  0  0  0  0  0  0  0  0
   35.7140   21.2220   32.4230 N   0  0  0  0  0  0  0  0  0  0  0  0
   34.6200   19.9740   33.7090 H   0  0  0  0  0  0  0  0  0  0  0  0
   35.9980   20.5220   35.7080 H   0  0  0  0  0  0  0  0  0  0  0  0
   38.1100   22.2440   35.7220 C   0  0  0  0  0  0  0  0  0  0  0  0
   37.6040   22.9910   36.7800 C   0  0  0  0  0  0  0  0  0  0  0  0
   38.3610   23.3830   37.8510 C   0  0  0  0  0  0  0  0  0  0  0  0
   39.6680   23.0320   37.8930 N   0  0  0  0  0  0  0  0  0  0  0  0
   40.1400   22.3110   36.8640 C   0  0  0  0  0  0  0  0  0  0  0  0
   39.4150   21.9110   35.7960 N   0  0  0  0  0  0  0  0  0  0  0  0
   36.5510   23.2970   36.7880 H   0  0  0  0  0  0  0  0  0  0  0  0
   37.9760   23.9650   38.6810 H   0  0  0  0  0  0  0  0  0  0  0  0
   41.5720   21.9090   36.8800 C   0  0  0  0  0  0  0  0  0  0  0  0
   41.7780   21.1290   38.0390 F   0  0  0  0  0  0  0  0  0  0  0  0
   41.9170   21.2280   35.7500 F   0  0  0  0  0  0  0  0  0  0  0  0
   42.4060   23.0040   37.0400 F   0  0  0  0  0  0  0  0  0  0  0  0
  1  7  1  0  0  0  0
  2  3  2  0  0  0  0
  2  1  1  0  0  0  0
  3  4  1  0  0  0  0
  4  5  2  0  0  0  0
  4  6  1  0  0  0  0
  6 11  1  0  0  0  0
  7  6  1  0  0  0  0
  7  8  2  0  0  0  0
  9  1  1  0  0  0  0
 10  2  1  0  0  0  0
 11 12  1  0  0  0  0
 12 13  2  0  0  0  0
 14 13  1  0  0  0  0
 15 14  2  0  0  0  0
 16 15  1  0  0  0  0
 17 16  2  0  0  0  0
 18 17  1  0  0  0  0
 19 17  1  0  0  0  0
 19 21  2  0  0  0  0
 20 19  1  0  0  0  0
 21 22  1  0  0  0  0
 22 15  1  0  0  0  0
 22 11  2  0  0  0  0
 23  3  1  0  0  0  0
 23 28  1  0  0  0  0
 24 30  1  0  0  0  0
 24 25  1  0  0  0  0
 25 31  1  0  0  0  0
 26 25  2  0  0  0  0
 26 32  1  0  0  0  0
 27 26  1  0  0  0  0
 28 29  1  0  0  0  0
 28 27  2  0  0  0  0
 29 24  2  0  0  0  0
 32 37  2  0  0  0  0
 32 33  1  0  0  0  0
 33 38  1  0  0  0  0
 33 34  2  0  0  0  0
 34 35  1  0  0  0  0
 34 39  1  0  0  0  0
 36 40  1  0  0  0  0
 36 35  2  0  0  0  0
 37 36  1  0  0  0  0
 40 43  1  0  0  0  0
 40 41  1  0  0  0  0
 42 40  1  0  0  0  0
M  END
>  <minimizedAffinity>
-7.31767511

$$$$

 OpenBabel03272502273D

 43 47  0  0  0  0  0  0  0  0999 V2000
   37.3940   28.1600   35.6220 N   0  0  0  0  0  0  0  0  0  0  0  0
   36.7730   28.5420   34.4970 C   0  0  0  0  0  0  0  0  0  0  0  0
   36.8570   27.7390   33.3670 C   0  0  0  0  0  0  0  0  0  0  0  0
   37.5820   26.5620   33.4330 C   0  0  0  0  0  0  0  0  0  0  0  0
   37.7840   25.6950   32.5370 O   0  0  0  0  0  0  0  0  0  0  0  0
   38.1920   26.2200   34.5920 N   0  0  0  0  0  0  0  0  0  0  0  0
   38.0980   27.0190   35.6890 C   0  0  0  0  0  0  0  0  0  0  0  0
   38.6510   26.7400   36.7950 O   0  0  0  0  0  0  0  0  0  0  0  0
   37.3160   28.7800   36.4570 H   0  0  0  0  0  0  0  0  0  0  0  0
   36.1980   29.4250   34.3600 H   0  0  0  0  0  0  0  0  0  0  0  0
   38.9590   25.0460   34.7880 C   0  0  0  0  0  0  0  0  0  0  0  0
   39.7300   24.5040   33.8220 N   0  0  0  0  0  0  0  0  0  0  0  0
   40.4620   23.3860   34.0090 C   0  0  0  0  0  3  0  0  0  0  0  0
   40.4450   22.7510   35.2150 N   0  0  0  0  0  0  0  0  0  0  0  0
   39.6870   23.2630   36.2050 C   0  0  0  0  0  0  0  0  0  0  0  0
   39.6700   22.6180   37.4300 C   0  0  0  0  0  3  0  0  0  0  0  0
   38.9100   23.1050   38.4730 C   0  0  0  0  0  0  0  0  0  0  0  0
   38.8990   22.5960   39.4350 H   0  0  0  0  0  0  0  0  0  0  0  0
   38.1540   24.2460   38.3030 C   0  0  0  0  0  0  0  0  0  0  0  0
   37.5790   24.5820   39.1490 H   0  0  0  0  0  0  0  0  0  0  0  0
   38.1860   24.8750   37.0730 C   0  0  0  0  0  3  0  0  0  0  0  0
   38.9390   24.4070   36.0140 C   0  0  0  0  0  0  0  0  0  0  0  0
   36.2980   27.9460   32.1190 O   0  0  0  0  0  0  0  0  0  0  0  0
   34.7450   30.9730   30.9110 C   0  0  0  0  0  0  0  0  0  0  0  0
   33.5760   31.0190   31.6850 C   0  0  0  0  0  0  0  0  0  0  0  0
   33.3780   29.9930   32.5960 C   0  0  0  0  0  0  0  0  0  0  0  0
   34.3160   29.0360   32.6690 N   0  0  0  0  0  0  0  0  0  0  0  0
   35.4320   29.0090   31.9160 C   0  0  0  0  0  0  0  0  0  0  0  0
   35.6460   29.9970   31.0240 N   0  0  0  0  0  0  0  0  0  0  0  0
   34.9110   31.7780   30.1900 H   0  0  0  0  0  0  0  0  0  0  0  0
   32.8560   31.8000   31.5950 H   0  0  0  0  0  0  0  0  0  0  0  0
   32.2260   29.9220   33.4660 C   0  0  0  0  0  0  0  0  0  0  0  0
   31.0220   30.5170   33.1040 C   0  0  0  0  0  0  0  0  0  0  0  0
   29.8990   30.4730   33.8850 C   0  0  0  0  0  0  0  0  0  0  0  0
   29.9510   29.8220   35.0710 N   0  0  0  0  0  0  0  0  0  0  0  0
   31.1200   29.2540   35.4050 C   0  0  0  0  0  0  0  0  0  0  0  0
   32.2420   29.2820   34.6530 N   0  0  0  0  0  0  0  0  0  0  0  0
   30.9340   31.0550   32.1520 H   0  0  0  0  0  0  0  0  0  0  0  0
   28.9560   30.9330   33.6120 H   0  0  0  0  0  0  0  0  0  0  0  0
   31.2100   28.5310   36.7020 C   0  0  0  0  0  0  0  0  0  0  0  0
   29.9010   28.4460   37.2280 F   0  0  0  0  0  0  0  0  0  0  0  0
   31.7700   27.2970   36.5530 F   0  0  0  0  0  0  0  0  0  0  0  0
   31.9210   29.2580   37.6420 F   0  0  0  0  0  0  0  0  0  0  0  0
  1  7  1  0  0  0  0
  1  9  1  0  0  0  0
  2  1  1  0  0  0  0
  3  4  1  0  0  0  0
  3  2  2  0  0  0  0
  4  6  1  0  0  0  0
  5  4  2  0  0  0  0
  6 11  1  0  0  0  0
  6  7  1  0  0  0  0
  7  8  2  0  0  0  0
 10  2  1  0  0  0  0
 11 22  1  0  0  0  0
 12 13  1  0  0  0  0
 12 11  2  0  0  0  0
 13 14  2  0  0  0  0
 14 15  1  0  0  0  0
 15 16  1  0  0  0  0
 16 17  2  0  0  0  0
 17 18  1  0  0  0  0
 19 17  1  0  0  0  0
 19 20  1  0  0  0  0
 21 19  2  0  0  0  0
 22 15  2  0  0  0  0
 22 21  1  0  0  0  0
 23  3  1  0  0  0  0
 24 29  2  0  0  0  0
 24 25  1  0  0  0  0
 25 26  2  0  0  0  0
 26 27  1  0  0  0  0
 26 32  1  0  0  0  0
 28 23  1  0  0  0  0
 28 27  2  0  0  0  0
 29 28  1  0  0  0  0
 30 24  1  0  0  0  0
 31 25  1  0  0  0  0
 32 37  1  0  0  0  0
 33 32  2  0  0  0  0
 33 34  1  0  0  0  0
 34 35  2  0  0  0  0
 35 36  1  0  0  0  0
 36 40  1  0  0  0  0
 37 36  2  0  0  0  0
 38 33  1  0  0  0  0
 39 34  1  0  0  0  0
 40 41  1  0  0  0  0
 40 43  1  0  0  0  0
 42 40  1  0  0  0  0
M  END
>  <minimizedAffinity>
-7.24744797

$$$$

 OpenBabel03272502273D

 43 47  0  0  0  0  0  0  0  0999 V2000
   36.0440   28.2760   33.4360 N   0  0  0  0  0  0  0  0  0  0  0  0
   36.6850   27.7080   34.4670 C   0  0  0  0  0  0  0  0  0  0  0  0
   37.9360   27.1400   34.2620 C   0  0  0  0  0  0  0  0  0  0  0  0
   38.4890   27.1770   32.9930 C   0  0  0  0  0  0  0  0  0  0  0  0
   39.5990   26.7300   32.5900 O   0  0  0  0  0  0  0  0  0  0  0  0
   37.8010   27.7620   31.9840 N   0  0  0  0  0  0  0  0  0  0  0  0
   36.5770   28.3120   32.2050 C   0  0  0  0  0  0  0  0  0  0  0  0
   35.8970   28.8700   31.2910 O   0  0  0  0  0  0  0  0  0  0  0  0
   35.1060   28.6940   33.6150 H   0  0  0  0  0  0  0  0  0  0  0  0
   36.3350   27.6370   35.4680 H   0  0  0  0  0  0  0  0  0  0  0  0
   38.2560   27.8640   30.6470 C   0  0  0  0  0  0  0  0  0  0  0  0
   38.9960   26.9080   30.0490 N   0  0  0  0  0  0  0  0  0  0  0  0
   39.4290   27.0040   28.7740 C   0  0  0  0  0  3  0  0  0  0  0  0
   39.1220   28.1040   28.0300 N   0  0  0  0  0  0  0  0  0  0  0  0
   38.3830   29.0820   28.5930 C   0  0  0  0  0  0  0  0  0  0  0  0
   38.0720   30.1980   27.8370 C   0  0  0  0  0  3  0  0  0  0  0  0
   37.3190   31.2240   28.3700 C   0  0  0  0  0  0  0  0  0  0  0  0
   37.0750   32.1000   27.7740 H   0  0  0  0  0  0  0  0  0  0  0  0
   36.8670   31.1450   29.6710 C   0  0  0  0  0  0  0  0  0  0  0  0
   36.2840   31.9720   30.0370 H   0  0  0  0  0  0  0  0  0  0  0  0
   37.1890   30.0210   30.4080 C   0  0  0  0  0  3  0  0  0  0  0  0
   37.9410   28.9820   29.8960 C   0  0  0  0  0  0  0  0  0  0  0  0
   38.7580   26.5110   35.1780 O   0  0  0  0  0  0  0  0  0  0  0  0
   37.8750   23.7520   37.3340 C   0  0  0  0  0  0  0  0  0  0  0  0
   37.7550   22.7010   36.4130 C   0  0  0  0  0  0  0  0  0  0  0  0
   37.9860   22.9980   35.0780 C   0  0  0  0  0  0  0  0  0  0  0  0
   38.3080   24.2640   34.7690 N   0  0  0  0  0  0  0  0  0  0  0  0
   38.4170   25.2590   35.6680 C   0  0  0  0  0  0  0  0  0  0  0  0
   38.1970   24.9950   36.9710 N   0  0  0  0  0  0  0  0  0  0  0  0
   37.6940   23.5290   38.3880 H   0  0  0  0  0  0  0  0  0  0  0  0
   37.4970   21.7080   36.7020 H   0  0  0  0  0  0  0  0  0  0  0  0
   37.9110   22.0090   34.0260 C   0  0  0  0  0  0  0  0  0  0  0  0
   39.0490   21.6300   33.3220 C   0  0  0  0  0  0  0  0  0  0  0  0
   39.0360   20.6940   32.3230 C   0  0  0  0  0  0  0  0  0  0  0  0
   37.8630   20.1020   31.9960 N   0  0  0  0  0  0  0  0  0  0  0  0
   36.7750   20.4800   32.6850 C   0  0  0  0  0  0  0  0  0  0  0  0
   36.7600   21.3990   33.6740 N   0  0  0  0  0  0  0  0  0  0  0  0
   40.0200   22.0830   33.5540 H   0  0  0  0  0  0  0  0  0  0  0  0
   39.9170   20.3910   31.7690 H   0  0  0  0  0  0  0  0  0  0  0  0
   35.4700   19.8480   32.3490 C   0  0  0  0  0  0  0  0  0  0  0  0
   35.5360   19.4410   30.9970 F   0  0  0  0  0  0  0  0  0  0  0  0
   35.1910   18.8010   33.1750 F   0  0  0  0  0  0  0  0  0  0  0  0
   34.4350   20.7670   32.3890 F   0  0  0  0  0  0  0  0  0  0  0  0
  1  9  1  0  0  0  0
  1  2  1  0  0  0  0
  2 10  1  0  0  0  0
  3  2  2  0  0  0  0
  3 23  1  0  0  0  0
  4  3  1  0  0  0  0
  5  4  2  0  0  0  0
  6  7  1  0  0  0  0
  6  4  1  0  0  0  0
  7  1  1  0  0  0  0
  8  7  2  0  0  0  0
 11  6  1  0  0  0  0
 12 11  1  0  0  0  0
 13 12  2  0  0  0  0
 14 15  2  0  0  0  0
 14 13  1  0  0  0  0
 15 22  1  0  0  0  0
 16 17  2  0  0  0  0
 16 15  1  0  0  0  0
 17 19  1  0  0  0  0
 18 17  1  0  0  0  0
 19 20  1  0  0  0  0
 19 21  2  0  0  0  0
 22 21  1  0  0  0  0
 22 11  2  0  0  0  0
 23 28  1  0  0  0  0
 24 30  1  0  0  0  0
 25 31  1  0  0  0  0
 25 24  2  0  0  0  0
 26 25  1  0  0  0  0
 27 26  2  0  0  0  0
 27 28  1  0  0  0  0
 28 29  2  0  0  0  0
 29 24  1  0  0  0  0
 32 26  1  0  0  0  0
 33 38  1  0  0  0  0
 33 32  2  0  0  0  0
 34 33  1  0  0  0  0
 35 34  2  0  0  0  0
 35 36  1  0  0  0  0
 36 37  2  0  0  0  0
 37 32  1  0  0  0  0
 39 34  1  0  0  0  0
 40 43  1  0  0  0  0
 40 36  1  0  0  0  0
 40 42  1  0  0  0  0
 41 40  1  0  0  0  0
M  END
>  <minimizedAffinity>
-7.20837545

$$$$

 OpenBabel03272502273D

 43 47  0  0  0  0  0  0  0  0999 V2000
   35.5510   27.8060   31.9620 N   0  0  0  0  0  0  0  0  0  0  0  0
   36.6110   27.0390   32.2490 C   0  0  0  0  0  0  0  0  0  0  0  0
   37.2840   27.2270   33.4500 C   0  0  0  0  0  0  0  0  0  0  0  0
   36.8390   28.2070   34.3200 C   0  0  0  0  0  0  0  0  0  0  0  0
   37.2950   28.5410   35.4500 O   0  0  0  0  0  0  0  0  0  0  0  0
   35.7640   28.9570   33.9850 N   0  0  0  0  0  0  0  0  0  0  0  0
   35.1180   28.7570   32.8040 C   0  0  0  0  0  0  0  0  0  0  0  0
   34.1070   29.4350   32.4480 O   0  0  0  0  0  0  0  0  0  0  0  0
   35.0630   27.6450   31.0550 H   0  0  0  0  0  0  0  0  0  0  0  0
   37.0170   26.2670   31.6410 H   0  0  0  0  0  0  0  0  0  0  0  0
   35.2130   29.9860   34.7860 C   0  0  0  0  0  0  0  0  0  0  0  0
   35.9640   30.7930   35.5640 N   0  0  0  0  0  0  0  0  0  0  0  0
   35.4390   31.7750   36.3270 C   0  0  0  0  0  3  0  0  0  0  0  0
   34.0930   31.9870   36.3360 N   0  0  0  0  0  0  0  0  0  0  0  0
   33.3090   31.2010   35.5710 C   0  0  0  0  0  0  0  0  0  0  0  0
   31.9410   31.4180   35.5800 C   0  0  0  0  0  3  0  0  0  0  0  0
   31.0990   30.6390   34.8140 C   0  0  0  0  0  0  0  0  0  0  0  0
   30.0250   30.8120   34.8220 H   0  0  0  0  0  0  0  0  0  0  0  0
   31.6150   29.6310   34.0270 C   0  0  0  0  0  0  0  0  0  0  0  0
   30.9140   29.0540   33.4500 H   0  0  0  0  0  0  0  0  0  0  0  0
   32.9830   29.4320   34.0320 C   0  0  0  0  0  3  0  0  0  0  0  0
   33.8460   30.1980   34.7910 C   0  0  0  0  0  0  0  0  0  0  0  0
   38.3890   26.5510   33.9340 O   0  0  0  0  0  0  0  0  0  0  0  0
   37.9730   24.1070   36.5590 C   0  0  0  0  0  0  0  0  0  0  0  0
   37.8960   22.9140   35.8250 C   0  0  0  0  0  0  0  0  0  0  0  0
   37.9920   23.0120   34.4450 C   0  0  0  0  0  0  0  0  0  0  0  0
   38.1520   24.2360   33.9170 N   0  0  0  0  0  0  0  0  0  0  0  0
   38.2220   25.3690   34.6400 C   0  0  0  0  0  0  0  0  0  0  0  0
   38.1320   25.2990   35.9830 N   0  0  0  0  0  0  0  0  0  0  0  0
   37.8990   24.0400   37.6470 H   0  0  0  0  0  0  0  0  0  0  0  0
   37.7690   21.9610   36.2850 H   0  0  0  0  0  0  0  0  0  0  0  0
   37.9430   21.8640   33.5680 C   0  0  0  0  0  0  0  0  0  0  0  0
   39.0930   21.3960   32.9410 C   0  0  0  0  0  0  0  0  0  0  0  0
   39.1050   20.3100   32.1080 C   0  0  0  0  0  0  0  0  0  0  0  0
   37.9450   19.6500   31.8760 N   0  0  0  0  0  0  0  0  0  0  0  0
   36.8450   20.1150   32.4890 C   0  0  0  0  0  0  0  0  0  0  0  0
   36.8060   21.1830   33.3140 N   0  0  0  0  0  0  0  0  0  0  0  0
   40.0550   21.8990   33.1010 H   0  0  0  0  0  0  0  0  0  0  0  0
   39.9960   19.9370   31.6150 H   0  0  0  0  0  0  0  0  0  0  0  0
   35.5550   19.4120   32.2540 C   0  0  0  0  0  0  0  0  0  0  0  0
   34.5370   20.3930   32.2480 F   0  0  0  0  0  0  0  0  0  0  0  0
   35.5730   18.7030   31.0900 F   0  0  0  0  0  0  0  0  0  0  0  0
   35.2310   18.5760   33.3090 F   0  0  0  0  0  0  0  0  0  0  0  0
  1  2  1  0  0  0  0
  1  7  1  0  0  0  0
  2  3  2  0  0  0  0
  3 23  1  0  0  0  0
  3  4  1  0  0  0  0
  4  5  2  0  0  0  0
  6  4  1  0  0  0  0
  6 11  1  0  0  0  0
  7  6  1  0  0  0  0
  8  7  2  0  0  0  0
  9  1  1  0  0  0  0
 10  2  1  0  0  0  0
 11 22  2  0  0  0  0
 11 12  1  0  0  0  0
 12 13  2  0  0  0  0
 13 14  1  0  0  0  0
 15 16  1  0  0  0  0
 15 14  2  0  0  0  0
 17 18  1  0  0  0  0
 17 16  2  0  0  0  0
 19 21  2  0  0  0  0
 19 17  1  0  0  0  0
 20 19  1  0  0  0  0
 21 22  1  0  0  0  0
 22 15  1  0  0  0  0
 23 28  1  0  0  0  0
 24 30  1  0  0  0  0
 25 31  1  0  0  0  0
 25 24  2  0  0  0  0
 26 25  1  0  0  0  0
 27 26  2  0  0  0  0
 27 28  1  0  0  0  0
 28 29  2  0  0  0  0
 29 24  1  0  0  0  0
 32 26  1  0  0  0  0
 33 38  1  0  0  0  0
 33 32  2  0  0  0  0
 34 33  1  0  0  0  0
 35 34  2  0  0  0  0
 35 36  1  0  0  0  0
 36 37  2  0  0  0  0
 37 32  1  0  0  0  0
 39 34  1  0  0  0  0
 40 36  1  0  0  0  0
 40 43  1  0  0  0  0
 41 40  1  0  0  0  0
 42 40  1  0  0  0  0
M  END
>  <minimizedAffinity>
-7.1599474

$$$$

 OpenBabel03272502273D

 43 47  0  0  0  0  0  0  0  0999 V2000
   37.0500   28.0160   35.1580 N   0  0  0  0  0  0  0  0  0  0  0  0
   36.4660   28.2620   33.9770 C   0  0  0  0  0  0  0  0  0  0  0  0
   36.6880   27.3960   32.9130 C   0  0  0  0  0  0  0  0  0  0  0  0
   37.5110   26.2990   33.1040 C   0  0  0  0  0  0  0  0  0  0  0  0
   37.8420   25.3960   32.2850 O   0  0  0  0  0  0  0  0  0  0  0  0
   38.0790   26.0940   34.3150 N   0  0  0  0  0  0  0  0  0  0  0  0
   37.8480   26.9530   35.3450 C   0  0  0  0  0  0  0  0  0  0  0  0
   38.3580   26.8020   36.4960 O   0  0  0  0  0  0  0  0  0  0  0  0
   36.8680   28.6800   35.9400 H   0  0  0  0  0  0  0  0  0  0  0  0
   35.8230   29.0760   33.7460 H   0  0  0  0  0  0  0  0  0  0  0  0
   38.9350   25.0130   34.6360 C   0  0  0  0  0  0  0  0  0  0  0  0
   39.8070   24.4820   33.7540 N   0  0  0  0  0  0  0  0  0  0  0  0
   40.6250   23.4520   34.0600 C   0  0  0  0  0  3  0  0  0  0  0  0
   40.5930   22.9010   35.3060 N   0  0  0  0  0  0  0  0  0  0  0  0
   39.7340   23.4050   36.2150 C   0  0  0  0  0  0  0  0  0  0  0  0
   39.7020   22.8450   37.4810 C   0  0  0  0  0  3  0  0  0  0  0  0
   38.8410   23.3280   38.4440 C   0  0  0  0  0  0  0  0  0  0  0  0
   38.8180   22.8860   39.4380 H   0  0  0  0  0  0  0  0  0  0  0  0
   37.9970   24.3800   38.1520 C   0  0  0  0  0  0  0  0  0  0  0  0
   37.3450   24.7160   38.9390 H   0  0  0  0  0  0  0  0  0  0  0  0
   38.0460   24.9240   36.8830 C   0  0  0  0  0  3  0  0  0  0  0  0
   38.8990   24.4580   35.9020 C   0  0  0  0  0  0  0  0  0  0  0  0
   36.1890   27.4650   31.6260 O   0  0  0  0  0  0  0  0  0  0  0  0
   36.3910   30.7290   30.0950 C   0  0  0  0  0  0  0  0  0  0  0  0
   37.3330   30.5060   29.0790 C   0  0  0  0  0  0  0  0  0  0  0  0
   37.8580   29.2280   28.9700 C   0  0  0  0  0  0  0  0  0  0  0  0
   37.4270   28.3020   29.8420 N   0  0  0  0  0  0  0  0  0  0  0  0
   36.5230   28.5350   30.8110 C   0  0  0  0  0  0  0  0  0  0  0  0
   35.9980   29.7710   30.9350 N   0  0  0  0  0  0  0  0  0  0  0  0
   35.9710   31.7330   30.1880 H   0  0  0  0  0  0  0  0  0  0  0  0
   37.6470   31.2720   28.4070 H   0  0  0  0  0  0  0  0  0  0  0  0
   38.8250   28.8550   27.9620 C   0  0  0  0  0  0  0  0  0  0  0  0
   39.4630   29.8240   27.1950 C   0  0  0  0  0  0  0  0  0  0  0  0
   40.3920   29.5280   26.2340 C   0  0  0  0  0  0  0  0  0  0  0  0
   40.7130   28.2310   26.0110 N   0  0  0  0  0  0  0  0  0  0  0  0
   40.0870   27.3090   26.7600 C   0  0  0  0  0  0  0  0  0  0  0  0
   39.1690   27.5740   27.7140 N   0  0  0  0  0  0  0  0  0  0  0  0
   39.2340   30.8860   27.3420 H   0  0  0  0  0  0  0  0  0  0  0  0
   40.8950   30.2750   25.6310 H   0  0  0  0  0  0  0  0  0  0  0  0
   40.4180   25.8760   26.5390 C   0  0  0  0  0  0  0  0  0  0  0  0
   41.7480   25.6780   26.9750 F   0  0  0  0  0  0  0  0  0  0  0  0
   39.5500   25.0530   27.1910 F   0  0  0  0  0  0  0  0  0  0  0  0
   40.4390   25.5610   25.1900 F   0  0  0  0  0  0  0  0  0  0  0  0
  1  7  1  0  0  0  0
  1  9  1  0  0  0  0
  2  1  1  0  0  0  0
  3  4  1  0  0  0  0
  3  2  2  0  0  0  0
  4  6  1  0  0  0  0
  5  4  2  0  0  0  0
  6 11  1  0  0  0  0
  6  7  1  0  0  0  0
  7  8  2  0  0  0  0
 10  2  1  0  0  0  0
 11 22  1  0  0  0  0
 12 13  1  0  0  0  0
 12 11  2  0  0  0  0
 13 14  2  0  0  0  0
 14 15  1  0  0  0  0
 15 16  1  0  0  0  0
 16 17  2  0  0  0  0
 17 18  1  0  0  0  0
 19 17  1  0  0  0  0
 19 20  1  0  0  0  0
 21 19  2  0  0  0  0
 22 15  2  0  0  0  0
 22 21  1  0  0  0  0
 23  3  1  0  0  0  0
 24 30  1  0  0  0  0
 24 29  1  0  0  0  0
 25 24  2  0  0  0  0
 26 25  1  0  0  0  0
 26 27  2  0  0  0  0
 27 28  1  0  0  0  0
 28 29  2  0  0  0  0
 28 23  1  0  0  0  0
 31 25  1  0  0  0  0
 32 26  1  0  0  0  0
 33 38  1  0  0  0  0
 33 32  2  0  0  0  0
 34 33  1  0  0  0  0
 35 34  2  0  0  0  0
 35 36  1  0  0  0  0
 36 37  2  0  0  0  0
 37 32  1  0  0  0  0
 39 34  1  0  0  0  0
 40 36  1  0  0  0  0
 40 41  1  0  0  0  0
 40 42  1  0  0  0  0
 43 40  1  0  0  0  0
M  END
>  <minimizedAffinity>
-7.08823395

$$$$

 OpenBabel03272502273D

 43 47  0  0  0  0  0  0  0  0999 V2000
   36.3880   27.4940   34.6990 N   0  0  0  0  0  0  0  0  0  0  0  0
   37.1970   26.6730   34.0150 C   0  0  0  0  0  0  0  0  0  0  0  0
   37.5960   27.0230   32.7320 C   0  0  0  0  0  0  0  0  0  0  0  0
   37.1450   28.2150   32.1910 C   0  0  0  0  0  0  0  0  0  0  0  0
   37.3830   28.7210   31.0590 O   0  0  0  0  0  0  0  0  0  0  0  0
   36.3280   29.0100   32.9210 N   0  0  0  0  0  0  0  0  0  0  0  0
   35.9490   28.6500   34.1770 C   0  0  0  0  0  0  0  0  0  0  0  0
   35.1860   29.3630   34.8970 O   0  0  0  0  0  0  0  0  0  0  0  0
   36.1020   27.2090   35.6600 H   0  0  0  0  0  0  0  0  0  0  0  0
   37.5880   25.7450   34.3530 H   0  0  0  0  0  0  0  0  0  0  0  0
   35.8020   30.2490   32.4840 C   0  0  0  0  0  0  0  0  0  0  0  0
   35.4560   30.4880   31.2010 N   0  0  0  0  0  0  0  0  0  0  0  0
   34.9530   31.6690   30.7840 C   0  0  0  0  0  3  0  0  0  0  0  0
   34.7740   32.6870   31.6720 N   0  0  0  0  0  0  0  0  0  0  0  0
   35.1070   32.4870   32.9630 C   0  0  0  0  0  0  0  0  0  0  0  0
   34.9240   33.5210   33.8640 C   0  0  0  0  0  3  0  0  0  0  0  0
   35.2510   33.3630   35.1950 C   0  0  0  0  0  0  0  0  0  0  0  0
   35.1060   34.1770   35.9020 H   0  0  0  0  0  0  0  0  0  0  0  0
   35.7670   32.1640   35.6420 C   0  0  0  0  0  0  0  0  0  0  0  0
   36.0040   32.0950   36.6890 H   0  0  0  0  0  0  0  0  0  0  0  0
   35.9400   31.1450   34.7260 C   0  0  0  0  0  3  0  0  0  0  0  0
   35.6210   31.2790   33.3890 C   0  0  0  0  0  0  0  0  0  0  0  0
   38.4170   26.3270   31.8640 O   0  0  0  0  0  0  0  0  0  0  0  0
   38.7700   22.7650   31.3900 C   0  0  0  0  0  0  0  0  0  0  0  0
   39.1320   22.3430   32.6780 C   0  0  0  0  0  0  0  0  0  0  0  0
   39.2390   23.3180   33.6580 C   0  0  0  0  0  0  0  0  0  0  0  0
   38.9870   24.5880   33.3020 N   0  0  0  0  0  0  0  0  0  0  0  0
   38.6420   24.9730   32.0600 C   0  0  0  0  0  0  0  0  0  0  0  0
   38.5320   24.0420   31.0910 N   0  0  0  0  0  0  0  0  0  0  0  0
   38.6840   22.0040   30.6110 H   0  0  0  0  0  0  0  0  0  0  0  0
   39.3230   21.3220   32.9180 H   0  0  0  0  0  0  0  0  0  0  0  0
   39.5900   23.0230   35.0290 C   0  0  0  0  0  0  0  0  0  0  0  0
   40.7030   22.2440   35.3280 C   0  0  0  0  0  0  0  0  0  0  0  0
   41.0850   21.9420   36.6070 C   0  0  0  0  0  0  0  0  0  0  0  0
   40.3510   22.4190   37.6400 N   0  0  0  0  0  0  0  0  0  0  0  0
   39.2800   23.1680   37.3340 C   0  0  0  0  0  0  0  0  0  0  0  0
   38.8810   23.4810   36.0820 N   0  0  0  0  0  0  0  0  0  0  0  0
   41.3270   21.8380   34.5230 H   0  0  0  0  0  0  0  0  0  0  0  0
   41.9510   21.3360   36.8500 H   0  0  0  0  0  0  0  0  0  0  0  0
   38.4520   23.7060   38.4470 C   0  0  0  0  0  0  0  0  0  0  0  0
   38.0860   25.0260   38.0980 F   0  0  0  0  0  0  0  0  0  0  0  0
   37.3580   22.9280   38.6820 F   0  0  0  0  0  0  0  0  0  0  0  0
   39.1910   23.8410   39.6110 F   0  0  0  0  0  0  0  0  0  0  0  0
  1  9  1  0  0  0  0
  2 10  1  0  0  0  0
  2  1  1  0  0  0  0
  3  2  2  0  0  0  0
  4  3  1  0  0  0  0
  4  6  1  0  0  0  0
  5  4  2  0  0  0  0
  6  7  1  0  0  0  0
  7  1  1  0  0  0  0
  7  8  2  0  0  0  0
 11  6  1  0  0  0  0
 11 22  1  0  0  0  0
 12 11  2  0  0  0  0
 13 12  1  0  0  0  0
 13 14  2  0  0  0  0
 14 15  1  0  0  0  0
 15 22  2  0  0  0  0
 15 16  1  0  0  0  0
 16 17  2  0  0  0  0
 17 19  1  0  0  0  0
 17 18  1  0  0  0  0
 19 20  1  0  0  0  0
 21 19  2  0  0  0  0
 22 21  1  0  0  0  0
 23 28  1  0  0  0  0
 23  3  1  0  0  0  0
 24 25  1  0  0  0  0
 25 31  1  0  0  0  0
 25 26  2  0  0  0  0
 26 32  1  0  0  0  0
 27 26  1  0  0  0  0
 28 27  2  0  0  0  0
 29 24  2  0  0  0  0
 29 28  1  0  0  0  0
 30 24  1  0  0  0  0
 32 33  2  0  0  0  0
 32 37  1  0  0  0  0
 33 34  1  0  0  0  0
 34 39  1  0  0  0  0
 34 35  2  0  0  0  0
 36 35  1  0  0  0  0
 36 40  1  0  0  0  0
 37 36  2  0  0  0  0
 38 33  1  0  0  0  0
 40 42  1  0  0  0  0
 40 43  1  0  0  0  0
 41 40  1  0  0  0  0
M  END
>  <minimizedAffinity>
-7.06713772

$$$$
