
 OpenBabel03272504173D

 29 31  0  0  0  0  0  0  0  0999 V2000
   35.2650   30.1550   45.5420 O   0  0  0  0  0  0  0  0  0  0  0  0
   34.0950   29.8950   46.4700 P   0  0  1  0  0  0  0  0  0  0  0  0
   33.8320   28.2440   46.6710 O   0  0  0  0  0  0  0  0  0  0  0  0
   33.0710   28.1450   47.2910 H   0  0  0  0  0  0  0  0  0  0  0  0
   34.3880   30.5520   48.0380 O   0  0  0  0  0  0  0  0  0  0  0  0
   35.5350   30.2700   48.7520 C   0  0  0  0  0  0  0  0  0  0  0  0
   35.7500   29.1910   49.6090 C   0  0  0  0  0  0  0  0  0  0  0  0
   36.9730   29.0820   50.2370 C   0  0  0  0  0  0  0  0  0  0  0  0
   37.9380   30.0240   50.0100 N   0  0  0  0  0  0  0  0  0  0  0  0
   37.6970   31.0600   49.1730 C   0  0  0  0  0  0  0  0  0  0  0  0
   36.4960   31.1800   48.5470 N   0  0  0  0  0  0  0  0  0  0  0  0
   37.0810   28.2250   50.8880 H   0  0  0  0  0  0  0  0  0  0  0  0
   38.4880   31.8010   49.0080 H   0  0  0  0  0  0  0  0  0  0  0  0
   34.6520   28.3130   49.7300 N   0  0  0  0  0  0  0  0  0  0  0  0
   33.8480   28.7660   50.2380 H   0  0  0  0  0  0  0  0  0  0  0  0
   35.0450   27.4740   49.2450 H   0  0  0  0  0  0  0  0  0  0  0  0
   32.7780   30.6800   45.7650 O   0  0  0  0  0  0  0  0  0  0  0  0
   32.6030   30.7480   44.3920 C   0  0  0  0  0  0  0  0  0  0  0  0
   32.7910   29.7750   43.4910 N   0  0  0  0  0  0  0  0  0  0  0  0
   32.5820   29.9820   42.1780 C   0  0  0  0  0  3  0  0  0  0  0  0
   32.1670   31.1940   41.7060 N   0  0  0  0  0  0  0  0  0  0  0  0
   31.9600   32.2180   42.5760 C   0  0  0  0  0  0  0  0  0  0  0  0
   31.5380   33.4570   42.1050 C   0  0  0  0  0  3  0  0  0  0  0  0
   31.3280   34.5000   42.9990 C   0  0  0  0  0  0  0  0  0  0  0  0
   31.0030   35.4170   42.5440 H   0  0  0  0  0  0  0  0  0  0  0  0
   31.5400   34.3000   44.3540 C   0  0  0  0  0  0  0  0  0  0  0  0
   31.3710   35.1180   45.0130 H   0  0  0  0  0  0  0  0  0  0  0  0
   31.9570   33.0490   44.7520 C   0  0  0  0  0  3  0  0  0  0  0  0
   32.1840   31.9760   43.9210 C   0  0  0  0  0  0  0  0  0  0  0  0
  2  1  2  6  0  0  0
  2  3  1  0  0  0  0
  2  5  1  0  0  0  0
  3  4  1  0  0  0  0
  5  6  1  0  0  0  0
  6  7  1  0  0  0  0
  7 14  1  0  0  0  0
  7  8  2  0  0  0  0
  8 12  1  0  0  0  0
  9  8  1  0  0  0  0
 10  9  2  0  0  0  0
 11  6  2  0  0  0  0
 11 10  1  0  0  0  0
 13 10  1  0  0  0  0
 14 15  1  0  0  0  0
 16 14  1  0  0  0  0
 17  2  1  0  0  0  0
 18 17  1  0  0  0  0
 19 18  2  0  0  0  0
 20 19  1  0  0  0  0
 21 20  2  0  0  0  0
 21 22  1  0  0  0  0
 22 29  1  0  0  0  0
 23 22  2  0  0  0  0
 23 24  1  0  0  0  0
 24 26  2  0  0  0  0
 25 24  1  0  0  0  0
 26 28  1  0  0  0  0
 26 27  1  0  0  0  0
 29 18  1  0  0  0  0
 29 28  2  0  0  0  0
M  END
>  <minimizedAffinity>
-4.3080411

>  <minimizedRMSD>
3.02985668

$$$$
