
 OpenBabel03272504413D

 48 51  0  0  0  0  0  0  0  0999 V2000
   34.6430   29.1820   48.8400 C   0  0  0  0  0  0  0  0  0  0  0  0
   35.5490   29.0610   49.4750 H   0  0  0  0  0  0  0  0  0  0  0  0
   34.0960   30.0320   49.3460 H   0  0  0  0  0  0  0  0  0  0  0  0
   37.4070   30.2740   48.6620 Cl  0  0  0  0  0  0  0  0  0  0  0  0
   36.2920   30.1790   47.2970 C   0  0  0  0  0  0  0  0  0  0  0  0
   36.6960   30.6240   46.0870 C   0  0  0  0  0  0  0  0  0  0  0  0
   35.8350   30.5580   45.0120 C   0  0  0  0  0  0  0  0  0  0  0  0
   34.5620   30.0300   45.2000 C   0  0  0  0  0  0  0  0  0  0  0  0
   34.2170   29.5860   46.4920 C   0  0  0  0  0  0  0  0  0  0  0  0
   35.0480   29.6470   47.5480 C   0  0  0  0  0  0  0  0  0  0  0  0
   36.1830   30.9250   44.0390 H   0  0  0  0  0  0  0  0  0  0  0  0
   33.9760   30.0240   44.3050 H   0  0  0  0  0  0  0  0  0  0  0  0
   33.2490   29.2390   46.4230 H   0  0  0  0  0  0  0  0  0  0  0  0
   39.6780   32.7790   46.3350 C   0  0  0  0  0  0  0  0  0  0  0  0
   40.5670   32.1050   45.4260 C   0  0  0  0  0  0  0  0  0  0  0  0
   40.1000   30.9530   44.7790 C   0  0  0  0  0  0  0  0  0  0  0  0
   38.8380   30.5220   45.0340 N   0  0  0  0  0  0  0  0  0  0  0  0
   38.0250   31.1790   45.8940 C   0  0  0  0  0  0  0  0  0  0  0  0
   38.4470   32.2860   46.5290 N   0  0  0  0  0  0  0  0  0  0  0  0
   40.0080   33.6570   46.8390 H   0  0  0  0  0  0  0  0  0  0  0  0
   41.5230   32.5590   45.3280 H   0  0  0  0  0  0  0  0  0  0  0  0
   40.9970   30.3290   43.9050 N   0  0  0  0  0  0  0  0  0  0  0  0
   41.5090   29.4260   44.0880 H   0  0  0  0  0  0  0  0  0  0  0  0
   41.1150   30.8620   43.0200 H   0  0  0  0  0  0  0  0  0  0  0  0
   33.8450   27.9580   48.9640 C   0  0  0  0  0  0  0  0  0  0  0  0
   34.2170   27.2560   49.7690 H   0  0  0  0  0  0  0  0  0  0  0  0
   33.9570   27.3680   48.0250 H   0  0  0  0  0  0  0  0  0  0  0  0
   32.5240   28.2440   49.1870 O   0  0  0  0  0  0  0  0  0  0  0  0
   32.3300   26.0420   47.7770 O   0  0  0  0  0  0  0  0  0  0  0  0
   31.5450   27.2000   48.3420 P   0  0  2  0  0  0  0  0  0  0  0  0
   30.8560   28.1090   47.0370 O   0  0  0  0  0  0  0  0  0  0  0  0
   30.0330   27.4180   46.1580 C   0  0  0  0  0  0  0  0  0  0  0  0
   28.7970   26.9530   46.4120 N   0  0  0  0  0  0  0  0  0  0  0  0
   28.1360   26.3070   45.4560 C   0  0  0  0  0  3  0  0  0  0  0  0
   28.6550   26.0950   44.2300 N   0  0  0  0  0  0  0  0  0  0  0  0
   29.8920   26.5380   43.9160 C   0  0  0  0  0  0  0  0  0  0  0  0
   30.3990   26.3070   42.6540 C   0  0  0  0  0  3  0  0  0  0  0  0
   31.6620   26.7730   42.3690 C   0  0  0  0  0  0  0  0  0  0  0  0
   32.1800   26.6590   41.4160 H   0  0  0  0  0  0  0  0  0  0  0  0
   32.4070   27.4520   43.3120 C   0  0  0  0  0  0  0  0  0  0  0  0
   33.3950   27.8320   43.1330 H   0  0  0  0  0  0  0  0  0  0  0  0
   31.8680   27.6650   44.5650 C   0  0  0  0  0  3  0  0  0  0  0  0
   30.6100   27.2200   44.9030 C   0  0  0  0  0  0  0  0  0  0  0  0
   30.2610   26.6330   49.2170 O   0  0  0  0  0  0  0  0  0  0  0  0
   29.6970   27.6340   49.9730 C   0  0  0  0  0  0  0  0  0  0  0  0
   29.0320   27.1440   51.0950 F   0  0  0  0  0  0  0  0  0  0  0  0
   30.6550   28.5080   50.4600 F   0  0  0  0  0  0  0  0  0  0  0  0
   28.7860   28.3390   49.2020 F   0  0  0  0  0  0  0  0  0  0  0  0
  1 25  1  0  0  0  0
  1  3  1  0  0  0  0
  1  2  1  0  0  0  0
  5 10  1  0  0  0  0
  5  4  1  0  0  0  0
  6  5  2  0  0  0  0
  7  8  2  0  0  0  0
  7  6  1  0  0  0  0
  8  9  1  0  0  0  0
  9 10  2  0  0  0  0
 10  1  1  0  0  0  0
 11  7  1  0  0  0  0
 12  8  1  0  0  0  0
 13  9  1  0  0  0  0
 14 19  1  0  0  0  0
 14 20  1  0  0  0  0
 15 14  2  0  0  0  0
 16 17  2  0  0  0  0
 16 15  1  0  0  0  0
 17 18  1  0  0  0  0
 18  6  1  0  0  0  0
 18 19  2  0  0  0  0
 21 15  1  0  0  0  0
 22 23  1  0  0  0  0
 22 16  1  0  0  0  0
 24 22  1  0  0  0  0
 25 28  1  0  0  0  0
 25 26  1  0  0  0  0
 27 25  1  0  0  0  0
 30 29  2  6  0  0  0
 30 28  1  0  0  0  0
 30 44  1  0  0  0  0
 31 30  1  0  0  0  0
 32 33  1  0  0  0  0
 32 31  1  0  0  0  0
 34 33  2  0  0  0  0
 35 34  1  0  0  0  0
 36 35  2  0  0  0  0
 36 43  1  0  0  0  0
 37 36  1  0  0  0  0
 38 37  2  0  0  0  0
 38 40  1  0  0  0  0
 39 38  1  0  0  0  0
 40 42  2  0  0  0  0
 41 40  1  0  0  0  0
 42 43  1  0  0  0  0
 43 32  2  0  0  0  0
 44 45  1  0  0  0  0
 45 47  1  0  0  0  0
 45 46  1  0  0  0  0
 48 45  1  0  0  0  0
M  END
>  <minimizedAffinity>
-5.72149658

>  <minimizedRMSD>
0.765348613

$$$$
