
 OpenBabel03272507173D

 29 32  0  0  1  0  0  0  0  0999 V2000
   36.5080   26.8550   32.2890 C   0  0  1  0  0  0  0  0  0  0  0  0
   35.6600   27.9730   31.9360 C   0  0  2  0  0  0  0  0  0  0  0  0
   36.8650   27.6960   31.0580 C   0  0  0  0  0  0  0  0  0  0  0  0
   36.2930   25.7710   32.0770 H   0  0  0  0  0  0  0  0  0  0  0  0
   34.6390   27.7580   31.5530 H   0  0  0  0  0  0  0  0  0  0  0  0
   36.5880   27.2150   30.1090 H   0  0  0  0  0  0  0  0  0  0  0  0
   37.7110   28.3940   31.1170 H   0  0  0  0  0  0  0  0  0  0  0  0
   37.5360   26.9670   33.3880 C   0  0  0  0  0  0  0  0  0  0  0  0
   37.0380   27.1080   34.6860 C   0  0  0  0  0  0  0  0  0  0  0  0
   38.0160   27.2370   35.6780 C   0  0  0  0  0  0  0  0  0  0  0  0
   39.3370   27.2190   35.3610 N   0  0  0  0  0  0  0  0  0  0  0  0
   39.7690   27.0790   34.0890 C   0  0  0  0  0  0  0  0  0  0  0  0
   38.8560   26.9500   33.0850 N   0  0  0  0  0  0  0  0  0  0  0  0
   35.9750   27.1160   34.8780 H   0  0  0  0  0  0  0  0  0  0  0  0
   37.6680   27.3490   36.6950 H   0  0  0  0  0  0  0  0  0  0  0  0
   40.8110   27.0620   33.8010 H   0  0  0  0  0  0  0  0  0  0  0  0
   35.7250   29.1470   32.7010 O   0  0  0  0  0  0  0  0  0  0  0  0
   34.5640   29.5340   33.3750 C   0  0  0  0  0  0  0  0  0  0  0  0
   33.3470   29.1360   32.9350 N   0  0  0  0  0  0  0  0  0  0  0  0
   32.2140   29.4960   33.5680 C   0  0  0  0  0  3  0  0  0  0  0  0
   32.2460   30.2680   34.6680 N   0  0  0  0  0  0  0  0  0  0  0  0
   33.4220   30.6840   35.1390 C   0  0  0  0  0  0  0  0  0  0  0  0
   33.4130   31.4790   36.2780 C   0  0  0  0  0  3  0  0  0  0  0  0
   34.6290   31.9110   36.7690 C   0  0  0  0  0  0  0  0  0  0  0  0
   34.7770   32.5320   37.6400 H   0  0  0  0  0  0  0  0  0  0  0  0
   35.7950   31.5550   36.1360 C   0  0  0  0  0  0  0  0  0  0  0  0
   36.7770   31.8720   36.4870 H   0  0  0  0  0  0  0  0  0  0  0  0
   35.8350   30.7650   35.0030 C   0  0  0  0  0  3  0  0  0  0  0  0
   34.6110   30.3320   34.5130 C   0  0  0  0  0  0  0  0  0  0  0  0
  1  4  1  6  0  0  0
  1  8  1  0  0  0  0
  2  5  1  6  0  0  0
  2  1  1  0  0  0  0
  2 17  1  0  0  0  0
  3  7  1  0  0  0  0
  3  2  1  0  0  0  0
  3  1  1  0  0  0  0
  6  3  1  0  0  0  0
  8  9  1  0  0  0  0
  9 14  1  0  0  0  0
  9 10  2  0  0  0  0
 10 15  1  0  0  0  0
 11 10  1  0  0  0  0
 12 11  2  0  0  0  0
 13  8  2  0  0  0  0
 13 12  1  0  0  0  0
 16 12  1  0  0  0  0
 17 18  1  0  0  0  0
 18 29  1  0  0  0  0
 19 18  2  0  0  0  0
 19 20  1  0  0  0  0
 20 21  2  0  0  0  0
 21 22  1  0  0  0  0
 22 23  1  0  0  0  0
 23 24  2  0  0  0  0
 24 25  1  0  0  0  0
 26 27  1  0  0  0  0
 26 24  1  0  0  0  0
 28 26  2  0  0  0  0
 29 28  1  0  0  0  0
 29 22  2  0  0  0  0
M  END
>  <minimizedAffinity>
-5.26548004

$$$$

 OpenBabel03272507173D

 29 32  0  0  1  0  0  0  0  0999 V2000
   39.4070   26.0080   35.1690 C   0  0  1  0  0  0  0  0  0  0  0  0
   38.7330   27.0030   34.3650 C   0  0  2  0  0  0  0  0  0  0  0  0
   38.7910   27.2290   35.8620 C   0  0  0  0  0  0  0  0  0  0  0  0
   40.5210   25.9040   35.2930 H   0  0  0  0  0  0  0  0  0  0  0  0
   39.3460   27.6370   33.6880 H   0  0  0  0  0  0  0  0  0  0  0  0
   39.5340   27.9900   36.1420 H   0  0  0  0  0  0  0  0  0  0  0  0
   37.8620   27.1040   36.4350 H   0  0  0  0  0  0  0  0  0  0  0  0
   38.7270   24.7170   35.5520 C   0  0  0  0  0  0  0  0  0  0  0  0
   38.7280   23.7090   34.5840 C   0  0  0  0  0  0  0  0  0  0  0  0
   38.0660   22.5350   34.9590 C   0  0  0  0  0  0  0  0  0  0  0  0
   37.4820   22.4250   36.1800 N   0  0  0  0  0  0  0  0  0  0  0  0
   37.5080   23.4290   37.0830 C   0  0  0  0  0  0  0  0  0  0  0  0
   38.1410   24.5940   36.7660 N   0  0  0  0  0  0  0  0  0  0  0  0
   39.2090   23.8540   33.6280 H   0  0  0  0  0  0  0  0  0  0  0  0
   38.0460   21.7330   34.2350 H   0  0  0  0  0  0  0  0  0  0  0  0
   37.0540   23.3760   38.0630 H   0  0  0  0  0  0  0  0  0  0  0  0
   37.4620   26.7140   33.8440 O   0  0  0  0  0  0  0  0  0  0  0  0
   37.0090   27.5090   32.7900 C   0  0  0  0  0  0  0  0  0  0  0  0
   37.3250   27.2040   31.5100 N   0  0  0  0  0  0  0  0  0  0  0  0
   36.8980   27.9560   30.4760 C   0  0  0  0  0  3  0  0  0  0  0  0
   36.1380   29.0470   30.6770 N   0  0  0  0  0  0  0  0  0  0  0  0
   35.8010   29.3880   31.9210 C   0  0  0  0  0  0  0  0  0  0  0  0
   35.0140   30.5200   32.0850 C   0  0  0  0  0  3  0  0  0  0  0  0
   34.6620   30.8760   33.3720 C   0  0  0  0  0  0  0  0  0  0  0  0
   34.0580   31.7270   33.6530 H   0  0  0  0  0  0  0  0  0  0  0  0
   35.0870   30.1210   34.4380 C   0  0  0  0  0  0  0  0  0  0  0  0
   34.8350   30.3630   35.4700 H   0  0  0  0  0  0  0  0  0  0  0  0
   35.8700   28.9890   34.3050 C   0  0  0  0  0  3  0  0  0  0  0  0
   36.2210   28.6350   33.0100 C   0  0  0  0  0  0  0  0  0  0  0  0
  1  4  1  6  0  0  0
  1  8  1  0  0  0  0
  1  3  1  0  0  0  0
  2  5  1  6  0  0  0
  2  1  1  0  0  0  0
  2  3  1  0  0  0  0
  3  6  1  0  0  0  0
  3  7  1  0  0  0  0
  8 13  1  0  0  0  0
  9 10  1  0  0  0  0
  9  8  2  0  0  0  0
 10 11  2  0  0  0  0
 11 12  1  0  0  0  0
 12 16  1  0  0  0  0
 13 12  2  0  0  0  0
 14  9  1  0  0  0  0
 15 10  1  0  0  0  0
 17  2  1  0  0  0  0
 18 29  1  0  0  0  0
 18 17  1  0  0  0  0
 19 18  2  0  0  0  0
 20 21  2  0  0  0  0
 20 19  1  0  0  0  0
 21 22  1  0  0  0  0
 22 23  2  0  0  0  0
 22 29  1  0  0  0  0
 23 24  1  0  0  0  0
 24 25  1  0  0  0  0
 24 26  2  0  0  0  0
 26 27  1  0  0  0  0
 28 26  1  0  0  0  0
 29 28  2  0  0  0  0
M  END
>  <minimizedAffinity>
-5.13546896

$$$$

 OpenBabel03272507173D

 29 32  0  0  1  0  0  0  0  0999 V2000
   37.2150   27.0710   34.3710 C   0  0  1  0  0  0  0  0  0  0  0  0
   37.4130   26.2120   35.5170 C   0  0  2  0  0  0  0  0  0  0  0  0
   38.4270   27.3120   35.2790 C   0  0  0  0  0  0  0  0  0  0  0  0
   36.4910   27.9310   34.3080 H   0  0  0  0  0  0  0  0  0  0  0  0
   36.7000   26.2950   36.3660 H   0  0  0  0  0  0  0  0  0  0  0  0
   38.2920   28.1610   35.9650 H   0  0  0  0  0  0  0  0  0  0  0  0
   39.4250   27.0200   34.9240 H   0  0  0  0  0  0  0  0  0  0  0  0
   37.6070   26.6290   32.9820 C   0  0  0  0  0  0  0  0  0  0  0  0
   38.3770   27.5300   32.2430 C   0  0  0  0  0  0  0  0  0  0  0  0
   38.7000   27.1030   30.9510 C   0  0  0  0  0  0  0  0  0  0  0  0
   38.2780   25.8960   30.4900 N   0  0  0  0  0  0  0  0  0  0  0  0
   37.5350   25.0590   31.2450 C   0  0  0  0  0  0  0  0  0  0  0  0
   37.1930   25.4290   32.5120 N   0  0  0  0  0  0  0  0  0  0  0  0
   38.6840   28.4780   32.6620 H   0  0  0  0  0  0  0  0  0  0  0  0
   39.2950   27.7750   30.3480 H   0  0  0  0  0  0  0  0  0  0  0  0
   37.1810   24.0930   30.9110 H   0  0  0  0  0  0  0  0  0  0  0  0
   37.8800   24.9030   35.3170 O   0  0  0  0  0  0  0  0  0  0  0  0
   38.4140   24.2410   36.4250 C   0  0  0  0  0  0  0  0  0  0  0  0
   37.8800   24.4170   37.6560 N   0  0  0  0  0  0  0  0  0  0  0  0
   38.3780   23.7880   38.7400 C   0  0  0  0  0  3  0  0  0  0  0  0
   39.4300   22.9570   38.6390 N   0  0  0  0  0  0  0  0  0  0  0  0
   39.9890   22.7530   37.4470 C   0  0  0  0  0  0  0  0  0  0  0  0
   41.0730   21.8860   37.3850 C   0  0  0  0  0  3  0  0  0  0  0  0
   41.6540   21.6720   36.1520 C   0  0  0  0  0  0  0  0  0  0  0  0
   42.4990   21.0290   35.9510 H   0  0  0  0  0  0  0  0  0  0  0  0
   41.1600   22.3040   35.0360 C   0  0  0  0  0  0  0  0  0  0  0  0
   41.5860   22.1650   34.0430 H   0  0  0  0  0  0  0  0  0  0  0  0
   40.0830   23.1700   35.0660 C   0  0  0  0  0  3  0  0  0  0  0  0
   39.5020   23.3820   36.3080 C   0  0  0  0  0  0  0  0  0  0  0  0
  1  4  1  1  0  0  0
  1  3  1  0  0  0  0
  1  2  1  0  0  0  0
  2  5  1  1  0  0  0
  3  2  1  0  0  0  0
  3  6  1  0  0  0  0
  7  3  1  0  0  0  0
  8  1  1  0  0  0  0
  9 14  1  0  0  0  0
  9  8  2  0  0  0  0
 10  9  1  0  0  0  0
 11 10  2  0  0  0  0
 11 12  1  0  0  0  0
 12 13  2  0  0  0  0
 13  8  1  0  0  0  0
 15 10  1  0  0  0  0
 16 12  1  0  0  0  0
 17  2  1  0  0  0  0
 17 18  1  0  0  0  0
 18 19  1  0  0  0  0
 19 20  2  0  0  0  0
 21 20  1  0  0  0  0
 22 21  2  0  0  0  0
 23 22  1  0  0  0  0
 24 23  2  0  0  0  0
 25 24  1  0  0  0  0
 26 28  2  0  0  0  0
 26 24  1  0  0  0  0
 27 26  1  0  0  0  0
 28 29  1  0  0  0  0
 29 18  2  0  0  0  0
 29 22  1  0  0  0  0
M  END
>  <minimizedAffinity>
-5.12315321

$$$$

 OpenBabel03272507173D

 29 32  0  0  1  0  0  0  0  0999 V2000
   36.7180   22.1420   31.4840 C   0  0  1  0  0  0  0  0  0  0  0  0
   36.9850   21.5420   32.7720 C   0  0  2  0  0  0  0  0  0  0  0  0
   35.5590   21.5080   32.2610 C   0  0  0  0  0  0  0  0  0  0  0  0
   36.9300   21.6750   30.4810 H   0  0  0  0  0  0  0  0  0  0  0  0
   37.5810   20.6040   32.8020 H   0  0  0  0  0  0  0  0  0  0  0  0
   35.2740   20.5160   31.8820 H   0  0  0  0  0  0  0  0  0  0  0  0
   34.8250   22.1630   32.7500 H   0  0  0  0  0  0  0  0  0  0  0  0
   36.5690   23.6360   31.3300 C   0  0  0  0  0  0  0  0  0  0  0  0
   37.7540   24.3740   31.2990 C   0  0  0  0  0  0  0  0  0  0  0  0
   37.5810   25.7570   31.1830 C   0  0  0  0  0  0  0  0  0  0  0  0
   36.3370   26.3000   31.1090 N   0  0  0  0  0  0  0  0  0  0  0  0
   35.2200   25.5420   31.1420 C   0  0  0  0  0  0  0  0  0  0  0  0
   35.3350   24.1880   31.2540 N   0  0  0  0  0  0  0  0  0  0  0  0
   38.7170   23.8880   31.3620 H   0  0  0  0  0  0  0  0  0  0  0  0
   38.4760   26.3620   31.1570 H   0  0  0  0  0  0  0  0  0  0  0  0
   34.2160   25.9390   31.0860 H   0  0  0  0  0  0  0  0  0  0  0  0
   37.2130   22.3740   33.8790 O   0  0  0  0  0  0  0  0  0  0  0  0
   38.4620   22.2850   34.4970 C   0  0  0  0  0  0  0  0  0  0  0  0
   39.5470   21.8690   33.8020 N   0  0  0  0  0  0  0  0  0  0  0  0
   40.7620   21.7750   34.3770 C   0  0  0  0  0  3  0  0  0  0  0  0
   40.9470   22.0940   35.6700 N   0  0  0  0  0  0  0  0  0  0  0  0
   39.9080   22.5090   36.3940 C   0  0  0  0  0  0  0  0  0  0  0  0
   40.1400   22.8290   37.7260 C   0  0  0  0  0  3  0  0  0  0  0  0
   39.0670   23.2600   38.4790 C   0  0  0  0  0  0  0  0  0  0  0  0
   39.0950   23.5420   39.5220 H   0  0  0  0  0  0  0  0  0  0  0  0
   37.8200   23.3610   37.9110 C   0  0  0  0  0  0  0  0  0  0  0  0
   36.9440   23.6960   38.4660 H   0  0  0  0  0  0  0  0  0  0  0  0
   37.5590   23.0510   36.5890 C   0  0  0  0  0  3  0  0  0  0  0  0
   38.6410   22.6190   35.8350 C   0  0  0  0  0  0  0  0  0  0  0  0
  1  4  1  6  0  0  0
  1  3  1  0  0  0  0
  1  2  1  0  0  0  0
  2  5  1  6  0  0  0
  2 17  1  0  0  0  0
  3  7  1  0  0  0  0
  3  2  1  0  0  0  0
  6  3  1  0  0  0  0
  8  1  1  0  0  0  0
  9  8  1  0  0  0  0
  9 14  1  0  0  0  0
 10  9  2  0  0  0  0
 11 12  2  0  0  0  0
 11 10  1  0  0  0  0
 12 13  1  0  0  0  0
 13  8  2  0  0  0  0
 15 10  1  0  0  0  0
 16 12  1  0  0  0  0
 17 18  1  0  0  0  0
 18 29  1  0  0  0  0
 19 20  1  0  0  0  0
 19 18  2  0  0  0  0
 20 21  2  0  0  0  0
 21 22  1  0  0  0  0
 22 23  1  0  0  0  0
 23 24  2  0  0  0  0
 24 25  1  0  0  0  0
 26 27  1  0  0  0  0
 26 24  1  0  0  0  0
 28 26  2  0  0  0  0
 29 22  2  0  0  0  0
 29 28  1  0  0  0  0
M  END
>  <minimizedAffinity>
-5.1164422

$$$$

 OpenBabel03272507173D

 29 32  0  0  1  0  0  0  0  0999 V2000
   39.3320   26.0050   35.3840 C   0  0  1  0  0  0  0  0  0  0  0  0
   38.7380   27.0450   34.5730 C   0  0  2  0  0  0  0  0  0  0  0  0
   38.5890   27.1530   36.0770 C   0  0  0  0  0  0  0  0  0  0  0  0
   40.4220   25.9160   35.6490 H   0  0  0  0  0  0  0  0  0  0  0  0
   39.4150   27.7440   34.0360 H   0  0  0  0  0  0  0  0  0  0  0  0
   39.2630   27.9060   36.5110 H   0  0  0  0  0  0  0  0  0  0  0  0
   37.5970   26.9630   36.5080 H   0  0  0  0  0  0  0  0  0  0  0  0
   38.6490   24.6720   35.5730 C   0  0  0  0  0  0  0  0  0  0  0  0
   38.1450   24.4140   36.8500 C   0  0  0  0  0  0  0  0  0  0  0  0
   37.5430   23.1600   37.0000 C   0  0  0  0  0  0  0  0  0  0  0  0
   37.4760   22.2900   35.9580 N   0  0  0  0  0  0  0  0  0  0  0  0
   37.9790   22.5880   34.7400 C   0  0  0  0  0  0  0  0  0  0  0  0
   38.5750   23.7980   34.5420 N   0  0  0  0  0  0  0  0  0  0  0  0
   38.2280   25.1440   37.6420 H   0  0  0  0  0  0  0  0  0  0  0  0
   37.1420   22.9230   37.9750 H   0  0  0  0  0  0  0  0  0  0  0  0
   37.9430   21.9210   33.8900 H   0  0  0  0  0  0  0  0  0  0  0  0
   37.5580   26.7690   33.8650 O   0  0  0  0  0  0  0  0  0  0  0  0
   36.8510   27.8600   33.3560 C   0  0  0  0  0  0  0  0  0  0  0  0
   35.9650   28.5300   34.1310 N   0  0  0  0  0  0  0  0  0  0  0  0
   35.2720   29.5860   33.6610 C   0  0  0  0  0  3  0  0  0  0  0  0
   35.4320   30.0180   32.3980 N   0  0  0  0  0  0  0  0  0  0  0  0
   36.2930   29.3900   31.5980 C   0  0  0  0  0  0  0  0  0  0  0  0
   36.4310   29.8680   30.3010 C   0  0  0  0  0  3  0  0  0  0  0  0
   37.3220   29.2200   29.4700 C   0  0  0  0  0  0  0  0  0  0  0  0
   37.5330   29.4760   28.4410 H   0  0  0  0  0  0  0  0  0  0  0  0
   38.0380   28.1410   29.9300 C   0  0  0  0  0  0  0  0  0  0  0  0
   38.7510   27.5990   29.3100 H   0  0  0  0  0  0  0  0  0  0  0  0
   37.9230   27.6440   31.2150 C   0  0  0  0  0  3  0  0  0  0  0  0
   37.0260   28.2990   32.0480 C   0  0  0  0  0  0  0  0  0  0  0  0
  1  8  1  0  0  0  0
  1  4  1  1  0  0  0
  1  3  1  0  0  0  0
  2  5  1  6  0  0  0
  2  1  1  0  0  0  0
  2  3  1  0  0  0  0
  3  7  1  0  0  0  0
  3  6  1  0  0  0  0
  8  9  1  0  0  0  0
  9 10  2  0  0  0  0
  9 14  1  0  0  0  0
 10 15  1  0  0  0  0
 11 10  1  0  0  0  0
 12 11  2  0  0  0  0
 13 12  1  0  0  0  0
 13  8  2  0  0  0  0
 16 12  1  0  0  0  0
 17  2  1  0  0  0  0
 18 17  1  0  0  0  0
 18 19  1  0  0  0  0
 20 19  2  0  0  0  0
 21 20  1  0  0  0  0
 22 29  1  0  0  0  0
 22 21  2  0  0  0  0
 23 22  1  0  0  0  0
 24 26  1  0  0  0  0
 24 23  2  0  0  0  0
 25 24  1  0  0  0  0
 26 28  2  0  0  0  0
 27 26  1  0  0  0  0
 28 29  1  0  0  0  0
 29 18  2  0  0  0  0
M  END
>  <minimizedAffinity>
-5.11565828

$$$$

 OpenBabel03272507173D

 29 32  0  0  1  0  0  0  0  0999 V2000
   38.2350   27.3130   34.4050 C   0  0  1  0  0  0  0  0  0  0  0  0
   37.4860   26.2810   35.0880 C   0  0  2  0  0  0  0  0  0  0  0  0
   38.4080   27.1500   35.9190 C   0  0  0  0  0  0  0  0  0  0  0  0
   37.8340   28.3130   34.0780 H   0  0  0  0  0  0  0  0  0  0  0  0
   36.3850   26.4030   35.1790 H   0  0  0  0  0  0  0  0  0  0  0  0
   37.8600   27.9040   36.5020 H   0  0  0  0  0  0  0  0  0  0  0  0
   39.3310   26.6950   36.3040 H   0  0  0  0  0  0  0  0  0  0  0  0
   39.4930   26.9910   33.6370 C   0  0  0  0  0  0  0  0  0  0  0  0
   39.3170   26.5390   32.3270 C   0  0  0  0  0  0  0  0  0  0  0  0
   40.5010   26.2220   31.6510 C   0  0  0  0  0  0  0  0  0  0  0  0
   41.7080   26.3600   32.2600 N   0  0  0  0  0  0  0  0  0  0  0  0
   41.8260   26.8030   33.5300 C   0  0  0  0  0  0  0  0  0  0  0  0
   40.7020   27.1250   34.2320 N   0  0  0  0  0  0  0  0  0  0  0  0
   38.3310   26.4480   31.8950 H   0  0  0  0  0  0  0  0  0  0  0  0
   40.4040   25.8680   30.6350 H   0  0  0  0  0  0  0  0  0  0  0  0
   42.7690   26.9230   34.0450 H   0  0  0  0  0  0  0  0  0  0  0  0
   37.8810   24.9420   34.9440 O   0  0  0  0  0  0  0  0  0  0  0  0
   38.2810   24.2680   36.1000 C   0  0  0  0  0  0  0  0  0  0  0  0
   37.4770   24.2300   37.1890 N   0  0  0  0  0  0  0  0  0  0  0  0
   37.8420   23.5860   38.3150 C   0  0  0  0  0  3  0  0  0  0  0  0
   39.0240   22.9520   38.4020 N   0  0  0  0  0  0  0  0  0  0  0  0
   39.8490   22.9620   37.3550 C   0  0  0  0  0  0  0  0  0  0  0  0
   41.0600   22.2950   37.4850 C   0  0  0  0  0  3  0  0  0  0  0  0
   41.9170   22.3030   36.4030 C   0  0  0  0  0  0  0  0  0  0  0  0
   42.8880   21.8300   36.3580 H   0  0  0  0  0  0  0  0  0  0  0  0
   41.5630   22.9540   35.2460 C   0  0  0  0  0  0  0  0  0  0  0  0
   42.2060   22.9870   34.3680 H   0  0  0  0  0  0  0  0  0  0  0  0
   40.3650   23.6250   35.0880 C   0  0  0  0  0  3  0  0  0  0  0  0
   39.5060   23.6150   36.1780 C   0  0  0  0  0  0  0  0  0  0  0  0
  1  4  1  6  0  0  0
  1  2  1  0  0  0  0
  1  3  1  0  0  0  0
  2  5  1  1  0  0  0
  2  3  1  0  0  0  0
  3  7  1  0  0  0  0
  3  6  1  0  0  0  0
  8 13  1  0  0  0  0
  8  1  1  0  0  0  0
  9  8  2  0  0  0  0
 10 11  2  0  0  0  0
 10  9  1  0  0  0  0
 11 12  1  0  0  0  0
 12 16  1  0  0  0  0
 12 13  2  0  0  0  0
 14  9  1  0  0  0  0
 15 10  1  0  0  0  0
 17  2  1  0  0  0  0
 17 18  1  0  0  0  0
 18 29  2  0  0  0  0
 18 19  1  0  0  0  0
 19 20  2  0  0  0  0
 20 21  1  0  0  0  0
 22 23  1  0  0  0  0
 22 21  2  0  0  0  0
 24 23  2  0  0  0  0
 25 24  1  0  0  0  0
 26 24  1  0  0  0  0
 27 26  1  0  0  0  0
 28 26  2  0  0  0  0
 28 29  1  0  0  0  0
 29 22  1  0  0  0  0
M  END
>  <minimizedAffinity>
-5.08888817

$$$$

 OpenBabel03272507173D

 29 32  0  0  1  0  0  0  0  0999 V2000
   34.0430   30.9010   32.8820 C   0  0  1  0  0  0  0  0  0  0  0  0
   34.3410   29.5920   32.3440 C   0  0  2  0  0  0  0  0  0  0  0  0
   32.9060   29.8830   32.7360 C   0  0  0  0  0  0  0  0  0  0  0  0
   33.9140   31.8460   32.2850 H   0  0  0  0  0  0  0  0  0  0  0  0
   34.6130   29.5140   31.2690 H   0  0  0  0  0  0  0  0  0  0  0  0
   32.2650   30.0720   31.8630 H   0  0  0  0  0  0  0  0  0  0  0  0
   32.5120   29.3920   33.6360 H   0  0  0  0  0  0  0  0  0  0  0  0
   34.3370   31.2420   34.3220 C   0  0  0  0  0  0  0  0  0  0  0  0
   35.6810   31.4400   34.6470 C   0  0  0  0  0  0  0  0  0  0  0  0
   35.9230   31.7270   35.9950 C   0  0  0  0  0  0  0  0  0  0  0  0
   34.8990   31.8010   36.8860 N   0  0  0  0  0  0  0  0  0  0  0  0
   33.6140   31.6020   36.5220 C   0  0  0  0  0  0  0  0  0  0  0  0
   33.3250   31.3190   35.2190 N   0  0  0  0  0  0  0  0  0  0  0  0
   36.4540   31.3680   33.8960 H   0  0  0  0  0  0  0  0  0  0  0  0
   36.9520   31.8850   36.2840 H   0  0  0  0  0  0  0  0  0  0  0  0
   32.7760   31.6520   37.2030 H   0  0  0  0  0  0  0  0  0  0  0  0
   35.0120   28.6580   33.1500 O   0  0  0  0  0  0  0  0  0  0  0  0
   36.2040   28.1280   32.6530 C   0  0  0  0  0  0  0  0  0  0  0  0
   36.3870   27.9730   31.3210 N   0  0  0  0  0  0  0  0  0  0  0  0
   37.5290   27.4640   30.8180 C   0  0  0  0  0  3  0  0  0  0  0  0
   38.5380   27.0880   31.6240 N   0  0  0  0  0  0  0  0  0  0  0  0
   38.4030   27.2230   32.9430 C   0  0  0  0  0  0  0  0  0  0  0  0
   39.4680   26.8240   33.7410 C   0  0  0  0  0  3  0  0  0  0  0  0
   39.3330   26.9630   35.1080 C   0  0  0  0  0  0  0  0  0  0  0  0
   40.0730   26.6960   35.8490 H   0  0  0  0  0  0  0  0  0  0  0  0
   38.1760   27.4790   35.6390 C   0  0  0  0  0  0  0  0  0  0  0  0
   38.0250   27.6070   36.7100 H   0  0  0  0  0  0  0  0  0  0  0  0
   37.1010   27.8850   34.8700 C   0  0  0  0  0  3  0  0  0  0  0  0
   37.2410   27.7440   33.4970 C   0  0  0  0  0  0  0  0  0  0  0  0
  1  4  1  6  0  0  0
  1  8  1  0  0  0  0
  2  5  1  6  0  0  0
  2  3  1  0  0  0  0
  2  1  1  0  0  0  0
  2 17  1  0  0  0  0
  3  1  1  0  0  0  0
  3  7  1  0  0  0  0
  6  3  1  0  0  0  0
  8  9  2  0  0  0  0
  8 13  1  0  0  0  0
  9 10  1  0  0  0  0
 10 15  1  0  0  0  0
 10 11  2  0  0  0  0
 12 11  1  0  0  0  0
 12 16  1  0  0  0  0
 13 12  2  0  0  0  0
 14  9  1  0  0  0  0
 18 17  1  0  0  0  0
 18 29  1  0  0  0  0
 19 18  2  0  0  0  0
 20 19  1  0  0  0  0
 20 21  2  0  0  0  0
 21 22  1  0  0  0  0
 22 29  2  0  0  0  0
 22 23  1  0  0  0  0
 23 24  2  0  0  0  0
 24 26  1  0  0  0  0
 24 25  1  0  0  0  0
 26 27  1  0  0  0  0
 28 26  2  0  0  0  0
 29 28  1  0  0  0  0
M  END
>  <minimizedAffinity>
-5.0710578

$$$$

 OpenBabel03272507173D

 29 32  0  0  1  0  0  0  0  0999 V2000
   38.3060   22.2180   31.9160 C   0  0  1  0  0  0  0  0  0  0  0  0
   39.3640   22.0220   32.8830 C   0  0  2  0  0  0  0  0  0  0  0  0
   38.0260   21.3650   33.1580 C   0  0  0  0  0  0  0  0  0  0  0  0
   38.2010   21.6770   30.9340 H   0  0  0  0  0  0  0  0  0  0  0  0
   40.2350   21.3970   32.5910 H   0  0  0  0  0  0  0  0  0  0  0  0
   38.0420   20.2840   32.9540 H   0  0  0  0  0  0  0  0  0  0  0  0
   37.4070   21.7830   33.9630 H   0  0  0  0  0  0  0  0  0  0  0  0
   37.4940   23.4890   31.8880 C   0  0  0  0  0  0  0  0  0  0  0  0
   36.1900   23.3770   31.4010 C   0  0  0  0  0  0  0  0  0  0  0  0
   35.4730   24.5780   31.3620 C   0  0  0  0  0  0  0  0  0  0  0  0
   36.0390   25.7410   31.7760 N   0  0  0  0  0  0  0  0  0  0  0  0
   37.3060   25.7980   32.2410 C   0  0  0  0  0  0  0  0  0  0  0  0
   38.0470   24.6550   32.2990 N   0  0  0  0  0  0  0  0  0  0  0  0
   35.7920   22.4240   31.0840 H   0  0  0  0  0  0  0  0  0  0  0  0
   34.4590   24.5300   30.9900 H   0  0  0  0  0  0  0  0  0  0  0  0
   37.7880   26.7050   32.5770 H   0  0  0  0  0  0  0  0  0  0  0  0
   39.7080   23.0780   33.7410 O   0  0  0  0  0  0  0  0  0  0  0  0
   40.0430   22.7470   35.0560 C   0  0  0  0  0  0  0  0  0  0  0  0
   41.1020   21.9440   35.3160 N   0  0  0  0  0  0  0  0  0  0  0  0
   41.4450   21.6120   36.5760 C   0  0  0  0  0  3  0  0  0  0  0  0
   40.7460   22.0660   37.6310 N   0  0  0  0  0  0  0  0  0  0  0  0
   39.6960   22.8600   37.4240 C   0  0  0  0  0  0  0  0  0  0  0  0
   39.0010   23.3100   38.5400 C   0  0  0  0  0  3  0  0  0  0  0  0
   37.9130   24.1330   38.3290 C   0  0  0  0  0  0  0  0  0  0  0  0
   37.2800   24.5570   39.0960 H   0  0  0  0  0  0  0  0  0  0  0  0
   37.5480   24.4830   37.0520 C   0  0  0  0  0  0  0  0  0  0  0  0
   36.6970   25.1290   36.8380 H   0  0  0  0  0  0  0  0  0  0  0  0
   38.2200   24.0520   35.9240 C   0  0  0  0  0  3  0  0  0  0  0  0
   39.3130   23.2250   36.1390 C   0  0  0  0  0  0  0  0  0  0  0  0
  1  4  1  6  0  0  0
  1  2  1  0  0  0  0
  1  3  1  0  0  0  0
  2  5  1  6  0  0  0
  2  3  1  0  0  0  0
  2 17  1  0  0  0  0
  3  7  1  0  0  0  0
  6  3  1  0  0  0  0
  8  1  1  0  0  0  0
  8 13  1  0  0  0  0
  9  8  2  0  0  0  0
 10  9  1  0  0  0  0
 10 11  2  0  0  0  0
 11 12  1  0  0  0  0
 12 13  2  0  0  0  0
 12 16  1  0  0  0  0
 14  9  1  0  0  0  0
 15 10  1  0  0  0  0
 17 18  1  0  0  0  0
 18 19  2  0  0  0  0
 18 29  1  0  0  0  0
 19 20  1  0  0  0  0
 20 21  2  0  0  0  0
 22 21  1  0  0  0  0
 22 23  1  0  0  0  0
 24 23  2  0  0  0  0
 24 25  1  0  0  0  0
 26 24  1  0  0  0  0
 27 26  1  0  0  0  0
 28 29  1  0  0  0  0
 28 26  2  0  0  0  0
 29 22  2  0  0  0  0
M  END
>  <minimizedAffinity>
-5.05432034

$$$$

 OpenBabel03272507173D

 29 32  0  0  1  0  0  0  0  0999 V2000
   38.7630   26.6210   35.6550 C   0  0  1  0  0  0  0  0  0  0  0  0
   38.7030   27.1570   34.3130 C   0  0  2  0  0  0  0  0  0  0  0  0
   37.4120   27.0940   35.1050 C   0  0  0  0  0  0  0  0  0  0  0  0
   39.1220   27.1710   36.5690 H   0  0  0  0  0  0  0  0  0  0  0  0
   39.1810   28.1420   34.1180 H   0  0  0  0  0  0  0  0  0  0  0  0
   37.1090   28.0780   35.4890 H   0  0  0  0  0  0  0  0  0  0  0  0
   36.6670   26.3440   34.8090 H   0  0  0  0  0  0  0  0  0  0  0  0
   38.8020   25.1340   35.9040 C   0  0  0  0  0  0  0  0  0  0  0  0
   39.9780   24.4770   35.5330 C   0  0  0  0  0  0  0  0  0  0  0  0
   39.9720   23.0950   35.7520 C   0  0  0  0  0  0  0  0  0  0  0  0
   38.8850   22.4790   36.2870 N   0  0  0  0  0  0  0  0  0  0  0  0
   37.7700   23.1600   36.6300 C   0  0  0  0  0  0  0  0  0  0  0  0
   37.7260   24.5090   36.4380 N   0  0  0  0  0  0  0  0  0  0  0  0
   40.8120   25.0190   35.1110 H   0  0  0  0  0  0  0  0  0  0  0  0
   40.8650   22.5520   35.4760 H   0  0  0  0  0  0  0  0  0  0  0  0
   36.8880   22.7020   37.0570 H   0  0  0  0  0  0  0  0  0  0  0  0
   38.7880   26.2780   33.2220 O   0  0  0  0  0  0  0  0  0  0  0  0
   37.6430   26.1230   32.4380 C   0  0  0  0  0  0  0  0  0  0  0  0
   37.0640   27.1920   31.8430 N   0  0  0  0  0  0  0  0  0  0  0  0
   35.9590   27.0660   31.0820 C   0  0  0  0  0  3  0  0  0  0  0  0
   35.3840   25.8670   30.8830 N   0  0  0  0  0  0  0  0  0  0  0  0
   35.9190   24.7850   31.4480 C   0  0  0  0  0  0  0  0  0  0  0  0
   35.2960   23.5650   31.2170 C   0  0  0  0  0  3  0  0  0  0  0  0
   35.8470   22.4420   31.8010 C   0  0  0  0  0  0  0  0  0  0  0  0
   35.4740   21.4320   31.7110 H   0  0  0  0  0  0  0  0  0  0  0  0
   36.9730   22.5510   32.5800 C   0  0  0  0  0  0  0  0  0  0  0  0
   37.4430   21.6930   33.0610 H   0  0  0  0  0  0  0  0  0  0  0  0
   37.6150   23.7500   32.8270 C   0  0  0  0  0  3  0  0  0  0  0  0
   37.0580   24.8760   32.2380 C   0  0  0  0  0  0  0  0  0  0  0  0
  1  8  1  0  0  0  0
  1  4  1  1  0  0  0
  2  5  1  6  0  0  0
  2  3  1  0  0  0  0
  2  1  1  0  0  0  0
  3  6  1  0  0  0  0
  3  1  1  0  0  0  0
  7  3  1  0  0  0  0
  8 13  1  0  0  0  0
  9 10  1  0  0  0  0
  9  8  2  0  0  0  0
 10 11  2  0  0  0  0
 11 12  1  0  0  0  0
 12 16  1  0  0  0  0
 13 12  2  0  0  0  0
 14  9  1  0  0  0  0
 15 10  1  0  0  0  0
 17  2  1  0  0  0  0
 18 17  1  0  0  0  0
 19 18  2  0  0  0  0
 20 19  1  0  0  0  0
 21 20  2  0  0  0  0
 21 22  1  0  0  0  0
 22 29  1  0  0  0  0
 23 22  2  0  0  0  0
 23 24  1  0  0  0  0
 24 26  2  0  0  0  0
 25 24  1  0  0  0  0
 26 28  1  0  0  0  0
 26 27  1  0  0  0  0
 29 18  1  0  0  0  0
 29 28  2  0  0  0  0
M  END
>  <minimizedAffinity>
-5.04182863

$$$$
