
 OpenBabel03272501583D

 34 37  0  0  0  0  0  0  0  0999 V2000
   32.9080   28.1980   47.8350 C   0  0  0  0  0  0  0  0  0  0  0  0
   32.1250   27.7770   48.8930 C   0  0  0  0  0  0  0  0  0  0  0  0
   30.8030   27.6680   48.4900 C   0  0  0  0  0  0  0  0  0  0  0  0
   30.8210   28.0340   47.1740 N   0  0  0  0  0  0  0  0  0  0  0  0
   32.0620   28.3470   46.7870 N   0  0  0  0  0  0  0  0  0  0  0  0
   32.4680   27.5560   49.8990 H   0  0  0  0  0  0  0  0  0  0  0  0
   29.9180   27.3730   49.0340 H   0  0  0  0  0  0  0  0  0  0  0  0
   29.7090   28.0980   46.2750 C   0  0  0  0  0  0  0  0  0  0  0  0
   28.9210   26.9850   46.3080 N   0  0  0  0  0  0  0  0  0  0  0  0
   27.8290   26.9300   45.4920 C   0  0  0  0  0  3  0  0  0  0  0  0
   27.4900   27.9400   44.6460 N   0  0  0  0  0  0  0  0  0  0  0  0
   28.2940   29.0310   44.6390 C   0  0  0  0  0  0  0  0  0  0  0  0
   27.9760   30.0780   43.7890 C   0  0  0  0  0  3  0  0  0  0  0  0
   28.8130   31.1870   43.7970 C   0  0  0  0  0  0  0  0  0  0  0  0
   28.5260   31.9860   43.1140 H   0  0  0  0  0  0  0  0  0  0  0  0
   29.9140   31.2690   44.6040 C   0  0  0  0  0  0  0  0  0  0  0  0
   30.5570   32.1430   44.5980 H   0  0  0  0  0  0  0  0  0  0  0  0
   30.2510   30.2250   45.4670 C   0  0  0  0  0  3  0  0  0  0  0  0
   29.4130   29.1510   45.4380 C   0  0  0  0  0  0  0  0  0  0  0  0
   34.3830   28.4320   47.8690 C   0  0  0  0  0  0  0  0  0  0  0  0
   34.8660   27.4200   47.8050 H   0  0  0  0  0  0  0  0  0  0  0  0
   34.6360   29.0920   47.0220 H   0  0  0  0  0  0  0  0  0  0  0  0
   34.6760   29.1230   49.1700 C   0  0  0  0  0  0  0  0  0  0  0  0
   33.8090   29.5130   49.7060 H   0  0  0  0  0  0  0  0  0  0  0  0
   35.1200   28.3460   49.8580 H   0  0  0  0  0  0  0  0  0  0  0  0
   37.1510   31.8110   49.7680 C   0  0  0  0  0  0  0  0  0  0  0  0
   37.7610   31.9390   48.5160 C   0  0  0  0  0  0  0  0  0  0  0  0
   37.3200   31.1070   47.4840 C   0  0  0  0  0  0  0  0  0  0  0  0
   36.3310   30.2150   47.7250 N   0  0  0  0  0  0  0  0  0  0  0  0
   35.7650   30.1240   48.9600 C   0  0  0  0  0  0  0  0  0  0  0  0
   36.1740   30.9110   49.9520 N   0  0  0  0  0  0  0  0  0  0  0  0
   37.4870   32.4580   50.5850 H   0  0  0  0  0  0  0  0  0  0  0  0
   38.5400   32.6700   48.4020 H   0  0  0  0  0  0  0  0  0  0  0  0
   37.7720   31.1870   46.5190 H   0  0  0  0  0  0  0  0  0  0  0  0
  1 20  1  0  0  0  0
  1  2  1  0  0  0  0
  2  6  1  0  0  0  0
  3  2  2  0  0  0  0
  3  7  1  0  0  0  0
  4  3  1  0  0  0  0
  5  4  1  0  0  0  0
  5  1  2  0  0  0  0
  8  9  1  0  0  0  0
  8  4  1  0  0  0  0
 10  9  2  0  0  0  0
 11 10  1  0  0  0  0
 12 11  2  0  0  0  0
 12 19  1  0  0  0  0
 13 14  2  0  0  0  0
 13 12  1  0  0  0  0
 14 16  1  0  0  0  0
 15 14  1  0  0  0  0
 16 18  2  0  0  0  0
 17 16  1  0  0  0  0
 19 18  1  0  0  0  0
 19  8  2  0  0  0  0
 20 23  1  0  0  0  0
 21 20  1  0  0  0  0
 22 20  1  0  0  0  0
 23 24  1  0  0  0  0
 23 25  1  0  0  0  0
 26 31  1  0  0  0  0
 26 32  1  0  0  0  0
 27 26  2  0  0  0  0
 28 29  2  0  0  0  0
 28 27  1  0  0  0  0
 29 30  1  0  0  0  0
 30 23  1  0  0  0  0
 30 31  2  0  0  0  0
 33 27  1  0  0  0  0
 34 28  1  0  0  0  0
M  END
>  <minimizedAffinity>
-4.64374113

>  <minimizedRMSD>
1.62925339

$$$$
