
 OpenBabel03272503313D

 37 40  0  0  1  0  0  0  0  0999 V2000
   37.3920   25.8260   33.3450 C   0  0  0  0  0  0  0  0  0  0  0  0
   36.8080   24.8880   32.4730 C   0  0  0  0  0  0  0  0  0  0  0  0
   35.9220   25.3800   31.5200 C   0  0  0  0  0  0  0  0  0  0  0  0
   35.6850   26.7340   31.5000 N   0  0  0  0  0  0  0  0  0  0  0  0
   36.2600   27.5860   32.3440 C   0  0  0  0  0  0  0  0  0  0  0  0
   37.1180   27.1310   33.2690 N   0  0  0  0  0  0  0  0  0  0  0  0
   37.0330   23.8320   32.5350 H   0  0  0  0  0  0  0  0  0  0  0  0
   35.4350   24.7230   30.8180 H   0  0  0  0  0  0  0  0  0  0  0  0
   38.3040   25.3140   34.3260 N   0  0  0  0  0  0  0  0  0  0  0  0
   38.3370   25.6190   35.7250 C   0  0  0  0  0  0  0  0  0  0  0  0
   38.9360   24.3570   36.3270 C   0  0  2  0  0  0  0  0  0  0  0  0
   39.0960   23.3830   35.1850 C   0  0  0  0  0  0  0  0  0  0  0  0
   39.3770   24.3770   34.0700 C   0  0  0  0  0  0  0  0  0  0  0  0
   37.3330   25.7980   36.1520 H   0  0  0  0  0  0  0  0  0  0  0  0
   38.9610   26.5110   35.9130 H   0  0  0  0  0  0  0  0  0  0  0  0
   39.9360   24.6120   36.7140 H   0  0  0  0  0  0  0  0  0  0  0  0
   38.2140   22.7760   34.9740 H   0  0  0  0  0  0  0  0  0  0  0  0
   40.0340   22.8170   35.3440 H   0  0  0  0  0  0  0  0  0  0  0  0
   39.2230   23.8380   33.1100 H   0  0  0  0  0  0  0  0  0  0  0  0
   40.3860   24.8050   34.1830 H   0  0  0  0  0  0  0  0  0  0  0  0
   38.1010   23.8010   37.4480 C   0  0  0  0  0  0  0  0  0  0  0  0
   37.8450   24.8600   38.3110 F   0  0  0  0  0  0  0  0  0  0  0  0
   38.8930   22.9190   38.1520 F   0  0  0  0  0  0  0  0  0  0  0  0
   36.9610   23.1870   37.0200 F   0  0  0  0  0  0  0  0  0  0  0  0
   35.9050   29.3320   32.2630 S   0  0  0  0  0  0  0  0  0  0  0  0
   34.5070   29.6710   33.3200 C   0  0  0  0  0  0  0  0  0  0  0  0
   33.3450   29.1360   32.8630 N   0  0  0  0  0  0  0  0  0  0  0  0
   32.1920   29.3010   33.5460 C   0  0  0  0  0  3  0  0  0  0  0  0
   32.1850   30.0010   34.6910 N   0  0  0  0  0  0  0  0  0  0  0  0
   33.3300   30.5530   35.1830 C   0  0  0  0  0  0  0  0  0  0  0  0
   33.3890   31.2880   36.3600 C   0  0  0  0  0  3  0  0  0  0  0  0
   34.6090   31.8080   36.7720 C   0  0  0  0  0  0  0  0  0  0  0  0
   34.5240   32.3570   37.6980 H   0  0  0  0  0  0  0  0  0  0  0  0
   35.7690   31.6240   36.0540 C   0  0  0  0  0  0  0  0  0  0  0  0
   36.6780   32.0510   36.4260 H   0  0  0  0  0  0  0  0  0  0  0  0
   35.7410   30.8910   34.8690 C   0  0  0  0  0  3  0  0  0  0  0  0
   34.5130   30.3910   34.4920 C   0  0  0  0  0  0  0  0  0  0  0  0
  1  9  1  0  0  0  0
  2  7  1  0  0  0  0
  2  1  2  0  0  0  0
  3  2  1  0  0  0  0
  4  3  2  0  0  0  0
  4  5  1  0  0  0  0
  5  6  2  0  0  0  0
  6  1  1  0  0  0  0
  8  3  1  0  0  0  0
  9 10  1  0  0  0  0
 10 15  1  0  0  0  0
 10 14  1  0  0  0  0
 10 11  1  0  0  0  0
 11 16  1  1  0  0  0
 11 21  1  0  0  0  0
 12 18  1  0  0  0  0
 12 11  1  0  0  0  0
 13 20  1  0  0  0  0
 13  9  1  0  0  0  0
 13 12  1  0  0  0  0
 17 12  1  0  0  0  0
 19 13  1  0  0  0  0
 21 23  1  0  0  0  0
 21 22  1  0  0  0  0
 24 21  1  0  0  0  0
 25  5  1  0  0  0  0
 25 26  1  0  0  0  0
 26 37  1  0  0  0  0
 27 26  2  0  0  0  0
 27 28  1  0  0  0  0
 28 29  2  0  0  0  0
 29 30  1  0  0  0  0
 30 31  1  0  0  0  0
 31 32  2  0  0  0  0
 32 33  1  0  0  0  0
 34 35  1  0  0  0  0
 34 32  1  0  0  0  0
 36 34  2  0  0  0  0
 37 36  1  0  0  0  0
 37 30  2  0  0  0  0
M  END
>  <minimizedAffinity>
-6.54950142

$$$$

 OpenBabel03272503313D

 37 40  0  0  1  0  0  0  0  0999 V2000
   37.0890   25.5980   33.0420 C   0  0  0  0  0  0  0  0  0  0  0  0
   37.7150   25.5840   34.3020 C   0  0  0  0  0  0  0  0  0  0  0  0
   37.7140   26.7750   35.0210 C   0  0  0  0  0  0  0  0  0  0  0  0
   37.1060   27.8700   34.4520 N   0  0  0  0  0  0  0  0  0  0  0  0
   36.5250   27.8380   33.2560 C   0  0  0  0  0  0  0  0  0  0  0  0
   36.5150   26.6990   32.5480 N   0  0  0  0  0  0  0  0  0  0  0  0
   38.1790   24.6910   34.7010 H   0  0  0  0  0  0  0  0  0  0  0  0
   38.1740   26.8420   35.9930 H   0  0  0  0  0  0  0  0  0  0  0  0
   37.0940   24.3680   32.3050 N   0  0  0  0  0  0  0  0  0  0  0  0
   37.6480   23.1120   32.7140 C   0  0  0  0  0  0  0  0  0  0  0  0
   36.7840   22.1080   31.9650 C   0  0  2  0  0  0  0  0  0  0  0  0
   35.7200   22.9140   31.2600 C   0  0  0  0  0  0  0  0  0  0  0  0
   36.5250   24.1740   30.9880 C   0  0  0  0  0  0  0  0  0  0  0  0
   37.5660   22.9380   33.8020 H   0  0  0  0  0  0  0  0  0  0  0  0
   38.7120   23.0460   32.4270 H   0  0  0  0  0  0  0  0  0  0  0  0
   37.4170   21.6220   31.2060 H   0  0  0  0  0  0  0  0  0  0  0  0
   34.8310   23.1220   31.8580 H   0  0  0  0  0  0  0  0  0  0  0  0
   35.5300   22.4460   30.2750 H   0  0  0  0  0  0  0  0  0  0  0  0
   35.7980   24.9770   30.7400 H   0  0  0  0  0  0  0  0  0  0  0  0
   37.2710   23.9910   30.1990 H   0  0  0  0  0  0  0  0  0  0  0  0
   36.2050   21.0560   32.8710 C   0  0  0  0  0  0  0  0  0  0  0  0
   36.6130   19.8300   32.3610 F   0  0  0  0  0  0  0  0  0  0  0  0
   34.8350   21.0940   32.7230 F   0  0  0  0  0  0  0  0  0  0  0  0
   36.5520   21.2200   34.1800 F   0  0  0  0  0  0  0  0  0  0  0  0
   35.7560   29.2970   32.5760 S   0  0  0  0  0  0  0  0  0  0  0  0
   34.3540   29.7220   33.5970 C   0  0  0  0  0  0  0  0  0  0  0  0
   33.1850   29.1950   33.1510 N   0  0  0  0  0  0  0  0  0  0  0  0
   32.0280   29.4210   33.8100 C   0  0  0  0  0  3  0  0  0  0  0  0
   32.0250   30.1760   34.9200 N   0  0  0  0  0  0  0  0  0  0  0  0
   33.1790   30.7230   35.4000 C   0  0  0  0  0  0  0  0  0  0  0  0
   33.2420   31.5120   36.5410 C   0  0  0  0  0  3  0  0  0  0  0  0
   34.4700   32.0210   36.9430 C   0  0  0  0  0  0  0  0  0  0  0  0
   34.3890   32.6160   37.8400 H   0  0  0  0  0  0  0  0  0  0  0  0
   35.6340   31.7730   36.2490 C   0  0  0  0  0  0  0  0  0  0  0  0
   36.5490   32.1950   36.6120 H   0  0  0  0  0  0  0  0  0  0  0  0
   35.6010   30.9850   35.1010 C   0  0  0  0  0  3  0  0  0  0  0  0
   34.3650   30.4970   34.7330 C   0  0  0  0  0  0  0  0  0  0  0  0
  1  2  1  0  0  0  0
  2  7  1  0  0  0  0
  2  3  2  0  0  0  0
  3  8  1  0  0  0  0
  4  3  1  0  0  0  0
  5  4  2  0  0  0  0
  6  1  2  0  0  0  0
  6  5  1  0  0  0  0
  9 10  1  0  0  0  0
  9  1  1  0  0  0  0
 10 14  1  0  0  0  0
 11 16  1  6  0  0  0
 11 10  1  0  0  0  0
 11 21  1  0  0  0  0
 12 17  1  0  0  0  0
 12 11  1  0  0  0  0
 13 12  1  0  0  0  0
 13  9  1  0  0  0  0
 15 10  1  0  0  0  0
 18 12  1  0  0  0  0
 19 13  1  0  0  0  0
 20 13  1  0  0  0  0
 21 24  1  0  0  0  0
 22 21  1  0  0  0  0
 23 21  1  0  0  0  0
 25  5  1  0  0  0  0
 25 26  1  0  0  0  0
 26 37  1  0  0  0  0
 27 26  2  0  0  0  0
 27 28  1  0  0  0  0
 28 29  2  0  0  0  0
 29 30  1  0  0  0  0
 30 31  1  0  0  0  0
 31 32  2  0  0  0  0
 32 33  1  0  0  0  0
 34 35  1  0  0  0  0
 34 32  1  0  0  0  0
 36 34  2  0  0  0  0
 37 36  1  0  0  0  0
 37 30  2  0  0  0  0
M  END
>  <minimizedAffinity>
-6.29272318

$$$$

 OpenBabel03272503313D

 37 40  0  0  1  0  0  0  0  0999 V2000
   38.1910   24.7100   35.3140 C   0  0  0  0  0  0  0  0  0  0  0  0
   38.2870   25.9840   35.9020 C   0  0  0  0  0  0  0  0  0  0  0  0
   37.9130   27.0710   35.1180 C   0  0  0  0  0  0  0  0  0  0  0  0
   37.4790   26.8220   33.8370 N   0  0  0  0  0  0  0  0  0  0  0  0
   37.4040   25.5980   33.3210 C   0  0  0  0  0  0  0  0  0  0  0  0
   37.7600   24.5380   34.0610 N   0  0  0  0  0  0  0  0  0  0  0  0
   38.6360   26.1210   36.9170 H   0  0  0  0  0  0  0  0  0  0  0  0
   37.9600   28.0770   35.5000 H   0  0  0  0  0  0  0  0  0  0  0  0
   38.5790   23.5930   36.1250 N   0  0  0  0  0  0  0  0  0  0  0  0
   39.3730   22.4670   35.7320 C   0  0  0  0  0  0  0  0  0  0  0  0
   40.0270   22.0490   37.0410 C   0  0  2  0  0  0  0  0  0  0  0  0
   39.6090   23.0750   38.0660 C   0  0  0  0  0  0  0  0  0  0  0  0
   38.2300   23.4020   37.5170 C   0  0  0  0  0  0  0  0  0  0  0  0
   40.1500   22.7250   34.9910 H   0  0  0  0  0  0  0  0  0  0  0  0
   38.7350   21.6720   35.3090 H   0  0  0  0  0  0  0  0  0  0  0  0
   39.6050   21.0720   37.3290 H   0  0  0  0  0  0  0  0  0  0  0  0
   40.2460   23.9590   38.1150 H   0  0  0  0  0  0  0  0  0  0  0  0
   39.4470   22.5530   39.0280 H   0  0  0  0  0  0  0  0  0  0  0  0
   37.9120   24.3580   37.9880 H   0  0  0  0  0  0  0  0  0  0  0  0
   37.5360   22.5660   37.6970 H   0  0  0  0  0  0  0  0  0  0  0  0
   41.5220   21.9250   36.9240 C   0  0  0  0  0  0  0  0  0  0  0  0
   42.0330   23.2120   37.0420 F   0  0  0  0  0  0  0  0  0  0  0  0
   41.8020   21.5210   35.6350 F   0  0  0  0  0  0  0  0  0  0  0  0
   42.0650   21.0610   37.8280 F   0  0  0  0  0  0  0  0  0  0  0  0
   36.8340   25.3470   31.6490 S   0  0  0  0  0  0  0  0  0  0  0  0
   37.4670   23.7810   31.0690 C   0  0  0  0  0  0  0  0  0  0  0  0
   38.6650   23.8850   30.4390 N   0  0  0  0  0  0  0  0  0  0  0  0
   39.2810   22.7920   29.9390 C   0  0  0  0  0  3  0  0  0  0  0  0
   38.7090   21.5850   30.0630 N   0  0  0  0  0  0  0  0  0  0  0  0
   37.5060   21.4380   30.6890 C   0  0  0  0  0  0  0  0  0  0  0  0
   36.8630   20.2180   30.8480 C   0  0  0  0  0  3  0  0  0  0  0  0
   35.6380   20.1800   31.5030 C   0  0  0  0  0  0  0  0  0  0  0  0
   35.2410   19.1780   31.5630 H   0  0  0  0  0  0  0  0  0  0  0  0
   35.0340   21.3130   32.0020 C   0  0  0  0  0  0  0  0  0  0  0  0
   34.0890   21.2160   32.4960 H   0  0  0  0  0  0  0  0  0  0  0  0
   35.6560   22.5510   31.8560 C   0  0  0  0  0  3  0  0  0  0  0  0
   36.8690   22.5490   31.2020 C   0  0  0  0  0  0  0  0  0  0  0  0
  1  2  1  0  0  0  0
  1  9  1  0  0  0  0
  2  7  1  0  0  0  0
  3  8  1  0  0  0  0
  3  2  2  0  0  0  0
  4  3  1  0  0  0  0
  5  4  2  0  0  0  0
  5  6  1  0  0  0  0
  6  1  2  0  0  0  0
  9 13  1  0  0  0  0
 10  9  1  0  0  0  0
 10 11  1  0  0  0  0
 11 16  1  1  0  0  0
 11 12  1  0  0  0  0
 12 17  1  0  0  0  0
 12 18  1  0  0  0  0
 13 20  1  0  0  0  0
 13 19  1  0  0  0  0
 13 12  1  0  0  0  0
 14 10  1  0  0  0  0
 15 10  1  0  0  0  0
 21 11  1  0  0  0  0
 21 22  1  0  0  0  0
 21 24  1  0  0  0  0
 23 21  1  0  0  0  0
 25  5  1  0  0  0  0
 26 37  1  0  0  0  0
 26 25  1  0  0  0  0
 27 26  2  0  0  0  0
 28 29  2  0  0  0  0
 28 27  1  0  0  0  0
 29 30  1  0  0  0  0
 30 31  2  0  0  0  0
 30 37  1  0  0  0  0
 31 32  1  0  0  0  0
 32 33  1  0  0  0  0
 32 34  2  0  0  0  0
 34 35  1  0  0  0  0
 36 34  1  0  0  0  0
 37 36  2  0  0  0  0
M  END
>  <minimizedAffinity>
-6.16181755

$$$$

 OpenBabel03272503313D

 37 40  0  0  1  0  0  0  0  0999 V2000
   36.9510   26.1150   33.1920 C   0  0  0  0  0  0  0  0  0  0  0  0
   37.6010   26.0000   34.4350 C   0  0  0  0  0  0  0  0  0  0  0  0
   37.5860   27.1210   35.2600 C   0  0  0  0  0  0  0  0  0  0  0  0
   36.9420   28.2470   34.8040 N   0  0  0  0  0  0  0  0  0  0  0  0
   36.3390   28.3110   33.6210 C   0  0  0  0  0  0  0  0  0  0  0  0
   36.3420   27.2420   32.8110 N   0  0  0  0  0  0  0  0  0  0  0  0
   38.0920   25.0870   34.7420 H   0  0  0  0  0  0  0  0  0  0  0  0
   38.0620   27.1090   36.2260 H   0  0  0  0  0  0  0  0  0  0  0  0
   36.9700   24.9580   32.3450 N   0  0  0  0  0  0  0  0  0  0  0  0
   37.6150   23.7040   32.6000 C   0  0  0  0  0  0  0  0  0  0  0  0
   36.7560   22.7230   31.8160 C   0  0  2  0  0  0  0  0  0  0  0  0
   35.6070   23.5260   31.2560 C   0  0  0  0  0  0  0  0  0  0  0  0
   36.3260   24.8500   31.0540 C   0  0  0  0  0  0  0  0  0  0  0  0
   37.6160   23.4290   33.6700 H   0  0  0  0  0  0  0  0  0  0  0  0
   38.6590   23.7260   32.2430 H   0  0  0  0  0  0  0  0  0  0  0  0
   37.3610   22.3450   30.9760 H   0  0  0  0  0  0  0  0  0  0  0  0
   34.7510   23.6280   31.9240 H   0  0  0  0  0  0  0  0  0  0  0  0
   35.3760   23.1380   30.2460 H   0  0  0  0  0  0  0  0  0  0  0  0
   35.5420   25.6280   30.9270 H   0  0  0  0  0  0  0  0  0  0  0  0
   37.0250   24.7810   30.2050 H   0  0  0  0  0  0  0  0  0  0  0  0
   36.2950   21.5630   32.6540 C   0  0  0  0  0  0  0  0  0  0  0  0
   34.9070   21.6220   32.6780 F   0  0  0  0  0  0  0  0  0  0  0  0
   36.7080   21.8010   33.9490 F   0  0  0  0  0  0  0  0  0  0  0  0
   36.7610   20.3590   32.2140 F   0  0  0  0  0  0  0  0  0  0  0  0
   35.5240   29.8070   33.0910 S   0  0  0  0  0  0  0  0  0  0  0  0
   35.1640   30.7930   34.5350 C   0  0  0  0  0  0  0  0  0  0  0  0
   36.0940   31.7520   34.7770 N   0  0  0  0  0  0  0  0  0  0  0  0
   35.9700   32.5850   35.8330 C   0  0  0  0  0  3  0  0  0  0  0  0
   34.9190   32.4700   36.6580 N   0  0  0  0  0  0  0  0  0  0  0  0
   33.9630   31.5200   36.4490 C   0  0  0  0  0  0  0  0  0  0  0  0
   32.8530   31.3500   37.2660 C   0  0  0  0  0  3  0  0  0  0  0  0
   31.9380   30.3490   36.9630 C   0  0  0  0  0  0  0  0  0  0  0  0
   31.1220   30.3180   37.6700 H   0  0  0  0  0  0  0  0  0  0  0  0
   32.0910   29.5140   35.8780 C   0  0  0  0  0  0  0  0  0  0  0  0
   31.3500   28.7630   35.7000 H   0  0  0  0  0  0  0  0  0  0  0  0
   33.1950   29.6610   35.0410 C   0  0  0  0  0  3  0  0  0  0  0  0
   34.0810   30.6650   35.3730 C   0  0  0  0  0  0  0  0  0  0  0  0
  1  2  1  0  0  0  0
  2  7  1  0  0  0  0
  2  3  2  0  0  0  0
  3  8  1  0  0  0  0
  4  3  1  0  0  0  0
  5  4  2  0  0  0  0
  6  1  2  0  0  0  0
  6  5  1  0  0  0  0
  9 10  1  0  0  0  0
  9  1  1  0  0  0  0
 10 14  1  0  0  0  0
 11 16  1  6  0  0  0
 11 10  1  0  0  0  0
 11 21  1  0  0  0  0
 12 11  1  0  0  0  0
 12 17  1  0  0  0  0
 13 12  1  0  0  0  0
 13  9  1  0  0  0  0
 15 10  1  0  0  0  0
 18 12  1  0  0  0  0
 19 13  1  0  0  0  0
 20 13  1  0  0  0  0
 21 22  1  0  0  0  0
 21 23  1  0  0  0  0
 24 21  1  0  0  0  0
 25  5  1  0  0  0  0
 25 26  1  0  0  0  0
 26 27  2  0  0  0  0
 26 37  1  0  0  0  0
 27 28  1  0  0  0  0
 28 29  2  0  0  0  0
 30 29  1  0  0  0  0
 30 31  1  0  0  0  0
 32 31  2  0  0  0  0
 32 33  1  0  0  0  0
 34 32  1  0  0  0  0
 35 34  1  0  0  0  0
 36 37  1  0  0  0  0
 36 34  2  0  0  0  0
 37 30  2  0  0  0  0
M  END
>  <minimizedAffinity>
-6.11462688

$$$$

 OpenBabel03272503313D

 37 40  0  0  1  0  0  0  0  0999 V2000
   37.8600   23.0140   35.2210 C   0  0  0  0  0  0  0  0  0  0  0  0
   37.5190   22.7360   36.5570 C   0  0  0  0  0  0  0  0  0  0  0  0
   37.7170   23.7560   37.4840 C   0  0  0  0  0  0  0  0  0  0  0  0
   38.2270   24.9490   37.0290 N   0  0  0  0  0  0  0  0  0  0  0  0
   38.5350   25.1690   35.7540 C   0  0  0  0  0  0  0  0  0  0  0  0
   38.3510   24.1990   34.8460 N   0  0  0  0  0  0  0  0  0  0  0  0
   37.1210   21.7770   36.8590 H   0  0  0  0  0  0  0  0  0  0  0  0
   37.4800   23.6180   38.5260 H   0  0  0  0  0  0  0  0  0  0  0  0
   37.6550   21.9600   34.2700 N   0  0  0  0  0  0  0  0  0  0  0  0
   36.4690   21.1790   34.0820 C   0  0  0  0  0  0  0  0  0  0  0  0
   36.5530   20.7970   32.6110 C   0  0  2  0  0  0  0  0  0  0  0  0
   37.7660   21.5090   32.0620 C   0  0  0  0  0  0  0  0  0  0  0  0
   38.6310   21.4910   33.3110 C   0  0  0  0  0  0  0  0  0  0  0  0
   35.5420   21.7490   34.2680 H   0  0  0  0  0  0  0  0  0  0  0  0
   36.4780   20.2960   34.7450 H   0  0  0  0  0  0  0  0  0  0  0  0
   36.7290   19.7100   32.5560 H   0  0  0  0  0  0  0  0  0  0  0  0
   37.5800   22.5250   31.7120 H   0  0  0  0  0  0  0  0  0  0  0  0
   38.2570   20.8380   31.3310 H   0  0  0  0  0  0  0  0  0  0  0  0
   39.4390   22.2390   33.1570 H   0  0  0  0  0  0  0  0  0  0  0  0
   39.0020   20.4720   33.5070 H   0  0  0  0  0  0  0  0  0  0  0  0
   35.2960   21.1310   31.8570 C   0  0  0  0  0  0  0  0  0  0  0  0
   35.6170   21.0600   30.5060 F   0  0  0  0  0  0  0  0  0  0  0  0
   35.0050   22.4550   32.1090 F   0  0  0  0  0  0  0  0  0  0  0  0
   34.2390   20.3350   32.1860 F   0  0  0  0  0  0  0  0  0  0  0  0
   39.1950   26.7410   35.2320 S   0  0  0  0  0  0  0  0  0  0  0  0
   38.5360   27.1200   33.6160 C   0  0  0  0  0  0  0  0  0  0  0  0
   39.3150   26.6720   32.5990 N   0  0  0  0  0  0  0  0  0  0  0  0
   38.9590   26.8760   31.3120 C   0  0  0  0  0  3  0  0  0  0  0  0
   37.8230   27.5310   31.0270 N   0  0  0  0  0  0  0  0  0  0  0  0
   37.0130   27.9970   32.0210 C   0  0  0  0  0  0  0  0  0  0  0  0
   35.8260   28.6810   31.7920 C   0  0  0  0  0  3  0  0  0  0  0  0
   35.0750   29.1130   32.8780 C   0  0  0  0  0  0  0  0  0  0  0  0
   34.1790   29.6310   32.5700 H   0  0  0  0  0  0  0  0  0  0  0  0
   35.4650   28.8900   34.1790 C   0  0  0  0  0  0  0  0  0  0  0  0
   34.8410   29.2490   34.9720 H   0  0  0  0  0  0  0  0  0  0  0  0
   36.6510   28.2060   34.4390 C   0  0  0  0  0  3  0  0  0  0  0  0
   37.3690   27.7920   33.3380 C   0  0  0  0  0  0  0  0  0  0  0  0
  1  2  1  0  0  0  0
  2  7  1  0  0  0  0
  2  3  2  0  0  0  0
  3  8  1  0  0  0  0
  4  3  1  0  0  0  0
  5  4  2  0  0  0  0
  6  1  2  0  0  0  0
  6  5  1  0  0  0  0
  9  1  1  0  0  0  0
 10 14  1  0  0  0  0
 10  9  1  0  0  0  0
 10 15  1  0  0  0  0
 11 16  1  6  0  0  0
 11 10  1  0  0  0  0
 12 11  1  0  0  0  0
 12 13  1  0  0  0  0
 13 20  1  0  0  0  0
 13  9  1  0  0  0  0
 17 12  1  0  0  0  0
 18 12  1  0  0  0  0
 19 13  1  0  0  0  0
 21 23  1  0  0  0  0
 21 24  1  0  0  0  0
 21 11  1  0  0  0  0
 22 21  1  0  0  0  0
 25  5  1  0  0  0  0
 26 25  1  0  0  0  0
 27 26  2  0  0  0  0
 28 27  1  0  0  0  0
 29 28  2  0  0  0  0
 29 30  1  0  0  0  0
 30 37  1  0  0  0  0
 31 30  2  0  0  0  0
 31 32  1  0  0  0  0
 32 34  2  0  0  0  0
 33 32  1  0  0  0  0
 34 36  1  0  0  0  0
 34 35  1  0  0  0  0
 37 26  1  0  0  0  0
 37 36  2  0  0  0  0
M  END
>  <minimizedAffinity>
-6.06437778

$$$$

 OpenBabel03272503313D

 37 40  0  0  1  0  0  0  0  0999 V2000
   36.5210   29.1120   31.7390 C   0  0  0  0  0  0  0  0  0  0  0  0
   36.4700   29.3980   30.3630 C   0  0  0  0  0  0  0  0  0  0  0  0
   37.2700   28.6230   29.5280 C   0  0  0  0  0  0  0  0  0  0  0  0
   38.0440   27.6440   30.1050 N   0  0  0  0  0  0  0  0  0  0  0  0
   38.0600   27.4070   31.4140 C   0  0  0  0  0  0  0  0  0  0  0  0
   37.2960   28.1430   32.2340 N   0  0  0  0  0  0  0  0  0  0  0  0
   35.8410   30.1820   29.9630 H   0  0  0  0  0  0  0  0  0  0  0  0
   37.2840   28.7830   28.4620 H   0  0  0  0  0  0  0  0  0  0  0  0
   35.6950   29.9130   32.5950 N   0  0  0  0  0  0  0  0  0  0  0  0
   35.3590   29.6590   33.9650 C   0  0  0  0  0  0  0  0  0  0  0  0
   35.1290   31.0590   34.5150 C   0  0  2  0  0  0  0  0  0  0  0  0
   35.4690   32.0110   33.3950 C   0  0  0  0  0  0  0  0  0  0  0  0
   35.0420   31.1490   32.2190 C   0  0  0  0  0  0  0  0  0  0  0  0
   36.1730   29.1650   34.5250 H   0  0  0  0  0  0  0  0  0  0  0  0
   34.4550   29.0280   34.0310 H   0  0  0  0  0  0  0  0  0  0  0  0
   34.0550   31.1560   34.7460 H   0  0  0  0  0  0  0  0  0  0  0  0
   36.5220   32.2880   33.3330 H   0  0  0  0  0  0  0  0  0  0  0  0
   34.7580   32.8580   33.4360 H   0  0  0  0  0  0  0  0  0  0  0  0
   35.5040   31.5890   31.3090 H   0  0  0  0  0  0  0  0  0  0  0  0
   33.9440   31.0810   32.1710 H   0  0  0  0  0  0  0  0  0  0  0  0
   35.9260   31.3250   35.7620 C   0  0  0  0  0  0  0  0  0  0  0  0
   36.7560   32.4020   35.4760 F   0  0  0  0  0  0  0  0  0  0  0  0
   36.7600   30.2440   35.9570 F   0  0  0  0  0  0  0  0  0  0  0  0
   35.1520   31.5400   36.8640 F   0  0  0  0  0  0  0  0  0  0  0  0
   39.0910   26.1220   32.0960 S   0  0  0  0  0  0  0  0  0  0  0  0
   38.7600   26.0050   33.8470 C   0  0  0  0  0  0  0  0  0  0  0  0
   38.8710   27.1930   34.4960 N   0  0  0  0  0  0  0  0  0  0  0  0
   38.6530   27.2780   35.8260 C   0  0  0  0  0  3  0  0  0  0  0  0
   38.3220   26.1800   36.5220 N   0  0  0  0  0  0  0  0  0  0  0  0
   38.2000   24.9690   35.9070 C   0  0  0  0  0  0  0  0  0  0  0  0
   37.8610   23.7970   36.5720 C   0  0  0  0  0  3  0  0  0  0  0  0
   37.7630   22.6150   35.8490 C   0  0  0  0  0  0  0  0  0  0  0  0
   37.4940   21.7770   36.4760 H   0  0  0  0  0  0  0  0  0  0  0  0
   37.9920   22.5590   34.4920 C   0  0  0  0  0  0  0  0  0  0  0  0
   37.9000   21.6160   33.9940 H   0  0  0  0  0  0  0  0  0  0  0  0
   38.3340   23.7190   33.7990 C   0  0  0  0  0  3  0  0  0  0  0  0
   38.4210   24.8720   34.5500 C   0  0  0  0  0  0  0  0  0  0  0  0
  1  6  1  0  0  0  0
  1  9  1  0  0  0  0
  2  1  2  0  0  0  0
  3  4  2  0  0  0  0
  3  2  1  0  0  0  0
  4  5  1  0  0  0  0
  5 25  1  0  0  0  0
  5  6  2  0  0  0  0
  7  2  1  0  0  0  0
  8  3  1  0  0  0  0
  9 10  1  0  0  0  0
 10 15  1  0  0  0  0
 10 11  1  0  0  0  0
 10 14  1  0  0  0  0
 11 16  1  1  0  0  0
 11 21  1  0  0  0  0
 12 18  1  0  0  0  0
 12 11  1  0  0  0  0
 13  9  1  0  0  0  0
 13 12  1  0  0  0  0
 17 12  1  0  0  0  0
 19 13  1  0  0  0  0
 20 13  1  0  0  0  0
 21 23  1  0  0  0  0
 21 24  1  0  0  0  0
 22 21  1  0  0  0  0
 25 26  1  0  0  0  0
 26 27  2  0  0  0  0
 26 37  1  0  0  0  0
 27 28  1  0  0  0  0
 28 29  2  0  0  0  0
 30 29  1  0  0  0  0
 30 31  1  0  0  0  0
 32 33  1  0  0  0  0
 32 31  2  0  0  0  0
 34 32  1  0  0  0  0
 35 34  1  0  0  0  0
 36 34  2  0  0  0  0
 36 37  1  0  0  0  0
 37 30  2  0  0  0  0
M  END
>  <minimizedAffinity>
-6.03630066

$$$$

 OpenBabel03272503313D

 37 40  0  0  1  0  0  0  0  0999 V2000
   36.2600   31.3650   31.6240 C   0  0  0  0  0  0  0  0  0  0  0  0
   36.5790   32.0330   30.4280 C   0  0  0  0  0  0  0  0  0  0  0  0
   36.9880   31.2450   29.3560 C   0  0  0  0  0  0  0  0  0  0  0  0
   37.0500   29.8840   29.5430 N   0  0  0  0  0  0  0  0  0  0  0  0
   36.7380   29.2940   30.6940 C   0  0  0  0  0  0  0  0  0  0  0  0
   36.3410   30.0360   31.7380 N   0  0  0  0  0  0  0  0  0  0  0  0
   36.5120   33.1090   30.3370 H   0  0  0  0  0  0  0  0  0  0  0  0
   37.2490   31.6850   28.4080 H   0  0  0  0  0  0  0  0  0  0  0  0
   35.8390   32.1800   32.7260 N   0  0  0  0  0  0  0  0  0  0  0  0
   34.7600   31.9260   33.6340 C   0  0  0  0  0  0  0  0  0  0  0  0
   35.2150   32.6370   34.9000 C   0  0  2  0  0  0  0  0  0  0  0  0
   36.6040   33.1560   34.6130 C   0  0  0  0  0  0  0  0  0  0  0  0
   36.4450   33.4320   33.1270 C   0  0  0  0  0  0  0  0  0  0  0  0
   34.6130   30.8510   33.8400 H   0  0  0  0  0  0  0  0  0  0  0  0
   33.8160   32.3390   33.2370 H   0  0  0  0  0  0  0  0  0  0  0  0
   34.5450   33.4970   35.0610 H   0  0  0  0  0  0  0  0  0  0  0  0
   37.4080   32.4460   34.8100 H   0  0  0  0  0  0  0  0  0  0  0  0
   36.7110   34.1420   35.1040 H   0  0  0  0  0  0  0  0  0  0  0  0
   37.4690   33.5380   32.7060 H   0  0  0  0  0  0  0  0  0  0  0  0
   35.8060   34.3140   32.9660 H   0  0  0  0  0  0  0  0  0  0  0  0
   35.1720   31.7440   36.1090 C   0  0  0  0  0  0  0  0  0  0  0  0
   35.2870   32.5750   37.2170 F   0  0  0  0  0  0  0  0  0  0  0  0
   36.3140   30.9710   36.0920 F   0  0  0  0  0  0  0  0  0  0  0  0
   34.0590   30.9560   36.1600 F   0  0  0  0  0  0  0  0  0  0  0  0
   36.8430   27.5220   30.8690 S   0  0  0  0  0  0  0  0  0  0  0  0
   38.3390   27.1330   31.7630 C   0  0  0  0  0  0  0  0  0  0  0  0
   39.3780   26.8030   30.9550 N   0  0  0  0  0  0  0  0  0  0  0  0
   40.5830   26.4810   31.4740 C   0  0  0  0  0  3  0  0  0  0  0  0
   40.7630   26.4830   32.8030 N   0  0  0  0  0  0  0  0  0  0  0  0
   39.7430   26.8090   33.6490 C   0  0  0  0  0  0  0  0  0  0  0  0
   39.8650   26.8290   35.0320 C   0  0  0  0  0  3  0  0  0  0  0  0
   38.7620   27.1750   35.8020 C   0  0  0  0  0  0  0  0  0  0  0  0
   38.9830   27.1540   36.8590 H   0  0  0  0  0  0  0  0  0  0  0  0
   37.5450   27.4990   35.2440 C   0  0  0  0  0  0  0  0  0  0  0  0
   36.7340   27.7570   35.8940 H   0  0  0  0  0  0  0  0  0  0  0  0
   37.3940   27.4860   33.8590 C   0  0  0  0  0  3  0  0  0  0  0  0
   38.5100   27.1390   33.1280 C   0  0  0  0  0  0  0  0  0  0  0  0
  1  6  1  0  0  0  0
  1  9  1  0  0  0  0
  2  1  2  0  0  0  0
  3  4  2  0  0  0  0
  3  2  1  0  0  0  0
  4  5  1  0  0  0  0
  5 25  1  0  0  0  0
  5  6  2  0  0  0  0
  7  2  1  0  0  0  0
  8  3  1  0  0  0  0
  9 13  1  0  0  0  0
  9 10  1  0  0  0  0
 10 14  1  0  0  0  0
 10 11  1  0  0  0  0
 11 16  1  1  0  0  0
 11 21  1  0  0  0  0
 12 17  1  0  0  0  0
 12 11  1  0  0  0  0
 12 18  1  0  0  0  0
 13 12  1  0  0  0  0
 15 10  1  0  0  0  0
 19 13  1  0  0  0  0
 20 13  1  0  0  0  0
 21 24  1  0  0  0  0
 21 22  1  0  0  0  0
 23 21  1  0  0  0  0
 25 26  1  0  0  0  0
 26 37  1  0  0  0  0
 27 28  1  0  0  0  0
 27 26  2  0  0  0  0
 28 29  2  0  0  0  0
 29 30  1  0  0  0  0
 30 31  1  0  0  0  0
 31 32  2  0  0  0  0
 32 33  1  0  0  0  0
 34 32  1  0  0  0  0
 34 35  1  0  0  0  0
 36 34  2  0  0  0  0
 37 30  2  0  0  0  0
 37 36  1  0  0  0  0
M  END
>  <minimizedAffinity>
-6.0156374

$$$$

 OpenBabel03272503313D

 37 40  0  0  1  0  0  0  0  0999 V2000
   36.1750   23.6950   31.8260 C   0  0  0  0  0  0  0  0  0  0  0  0
   35.3380   24.4900   31.0220 C   0  0  0  0  0  0  0  0  0  0  0  0
   35.4630   25.8700   31.1530 C   0  0  0  0  0  0  0  0  0  0  0  0
   36.3870   26.3510   32.0490 N   0  0  0  0  0  0  0  0  0  0  0  0
   37.1600   25.5610   32.7900 C   0  0  0  0  0  0  0  0  0  0  0  0
   37.0550   24.2290   32.6790 N   0  0  0  0  0  0  0  0  0  0  0  0
   34.6270   24.0560   30.3320 H   0  0  0  0  0  0  0  0  0  0  0  0
   34.8550   26.5430   30.5700 H   0  0  0  0  0  0  0  0  0  0  0  0
   36.0420   22.2740   31.6890 N   0  0  0  0  0  0  0  0  0  0  0  0
   36.7540   21.4180   30.7880 C   0  0  0  0  0  0  0  0  0  0  0  0
   36.7670   20.0900   31.5310 C   0  0  2  0  0  0  0  0  0  0  0  0
   36.1310   20.3550   32.8740 C   0  0  0  0  0  0  0  0  0  0  0  0
   35.1470   21.4340   32.4550 C   0  0  0  0  0  0  0  0  0  0  0  0
   37.7900   21.7530   30.6010 H   0  0  0  0  0  0  0  0  0  0  0  0
   36.2270   21.3510   29.8190 H   0  0  0  0  0  0  0  0  0  0  0  0
   36.1280   19.3870   30.9730 H   0  0  0  0  0  0  0  0  0  0  0  0
   36.8180   20.7100   33.6440 H   0  0  0  0  0  0  0  0  0  0  0  0
   35.5270   19.4700   33.1490 H   0  0  0  0  0  0  0  0  0  0  0  0
   34.8110   21.9450   33.3850 H   0  0  0  0  0  0  0  0  0  0  0  0
   34.3250   20.9980   31.8660 H   0  0  0  0  0  0  0  0  0  0  0  0
   38.1500   19.5110   31.6510 C   0  0  0  0  0  0  0  0  0  0  0  0
   37.9940   18.2160   32.1310 F   0  0  0  0  0  0  0  0  0  0  0  0
   38.8030   20.2090   32.6450 F   0  0  0  0  0  0  0  0  0  0  0  0
   38.8580   19.5560   30.4860 F   0  0  0  0  0  0  0  0  0  0  0  0
   38.3390   26.2530   33.9370 S   0  0  0  0  0  0  0  0  0  0  0  0
   39.2970   24.9170   34.6330 C   0  0  0  0  0  0  0  0  0  0  0  0
   40.2580   24.4500   33.7950 N   0  0  0  0  0  0  0  0  0  0  0  0
   41.0710   23.4390   34.1690 C   0  0  0  0  0  3  0  0  0  0  0  0
   40.9340   22.8830   35.3820 N   0  0  0  0  0  0  0  0  0  0  0  0
   39.9810   23.3230   36.2530 C   0  0  0  0  0  0  0  0  0  0  0  0
   39.7890   22.7890   37.5210 C   0  0  0  0  0  3  0  0  0  0  0  0
   38.7880   23.3120   38.3300 C   0  0  0  0  0  0  0  0  0  0  0  0
   38.7390   22.8150   39.2870 H   0  0  0  0  0  0  0  0  0  0  0  0
   37.9730   24.3440   37.9200 C   0  0  0  0  0  0  0  0  0  0  0  0
   37.2200   24.7020   38.5910 H   0  0  0  0  0  0  0  0  0  0  0  0
   38.1430   24.8990   36.6530 C   0  0  0  0  0  3  0  0  0  0  0  0
   39.1460   24.3550   35.8800 C   0  0  0  0  0  0  0  0  0  0  0  0
  1  6  1  0  0  0  0
  2  3  1  0  0  0  0
  2  1  2  0  0  0  0
  3  4  2  0  0  0  0
  4  5  1  0  0  0  0
  5 25  1  0  0  0  0
  6  5  2  0  0  0  0
  7  2  1  0  0  0  0
  8  3  1  0  0  0  0
  9  1  1  0  0  0  0
  9 13  1  0  0  0  0
 10 11  1  0  0  0  0
 10  9  1  0  0  0  0
 11 16  1  6  0  0  0
 11 21  1  0  0  0  0
 11 12  1  0  0  0  0
 12 18  1  0  0  0  0
 12 17  1  0  0  0  0
 13 12  1  0  0  0  0
 13 19  1  0  0  0  0
 14 10  1  0  0  0  0
 15 10  1  0  0  0  0
 20 13  1  0  0  0  0
 21 22  1  0  0  0  0
 21 23  1  0  0  0  0
 24 21  1  0  0  0  0
 25 26  1  0  0  0  0
 26 37  1  0  0  0  0
 27 28  1  0  0  0  0
 27 26  2  0  0  0  0
 28 29  2  0  0  0  0
 29 30  1  0  0  0  0
 30 31  1  0  0  0  0
 31 32  2  0  0  0  0
 32 33  1  0  0  0  0
 34 32  1  0  0  0  0
 34 35  1  0  0  0  0
 36 34  2  0  0  0  0
 37 30  2  0  0  0  0
 37 36  1  0  0  0  0
M  END
>  <minimizedAffinity>
-5.9908371

$$$$

 OpenBabel03272503313D

 37 40  0  0  1  0  0  0  0  0999 V2000
   37.8350   22.9410   35.2180 C   0  0  0  0  0  0  0  0  0  0  0  0
   37.5130   22.6060   36.5460 C   0  0  0  0  0  0  0  0  0  0  0  0
   37.7070   23.5910   37.5090 C   0  0  0  0  0  0  0  0  0  0  0  0
   38.1940   24.8090   37.0960 N   0  0  0  0  0  0  0  0  0  0  0  0
   38.4840   25.0830   35.8270 C   0  0  0  0  0  0  0  0  0  0  0  0
   38.3040   24.1460   34.8840 N   0  0  0  0  0  0  0  0  0  0  0  0
   37.1330   21.6290   36.8140 H   0  0  0  0  0  0  0  0  0  0  0  0
   37.4830   23.4080   38.5470 H   0  0  0  0  0  0  0  0  0  0  0  0
   37.6340   21.9220   34.2280 N   0  0  0  0  0  0  0  0  0  0  0  0
   36.4800   21.0900   34.0590 C   0  0  0  0  0  0  0  0  0  0  0  0
   36.5100   20.7800   32.5700 C   0  0  2  0  0  0  0  0  0  0  0  0
   37.6580   21.5770   31.9980 C   0  0  0  0  0  0  0  0  0  0  0  0
   38.5830   21.5460   33.2030 C   0  0  0  0  0  0  0  0  0  0  0  0
   35.5360   21.6040   34.3160 H   0  0  0  0  0  0  0  0  0  0  0  0
   36.5640   20.1800   34.6790 H   0  0  0  0  0  0  0  0  0  0  0  0
   36.7350   19.7080   32.4550 H   0  0  0  0  0  0  0  0  0  0  0  0
   37.4060   22.5980   31.7060 H   0  0  0  0  0  0  0  0  0  0  0  0
   38.1440   20.9660   31.2140 H   0  0  0  0  0  0  0  0  0  0  0  0
   39.3450   22.3410   33.0460 H   0  0  0  0  0  0  0  0  0  0  0  0
   39.0120   20.5400   33.3320 H   0  0  0  0  0  0  0  0  0  0  0  0
   35.2020   21.0840   31.8920 C   0  0  0  0  0  0  0  0  0  0  0  0
   35.4850   21.2330   30.5390 F   0  0  0  0  0  0  0  0  0  0  0  0
   34.7880   22.3240   32.3330 F   0  0  0  0  0  0  0  0  0  0  0  0
   34.2410   20.1450   32.1250 F   0  0  0  0  0  0  0  0  0  0  0  0
   39.1150   26.6840   35.3600 S   0  0  0  0  0  0  0  0  0  0  0  0
   38.0110   27.3930   34.1490 C   0  0  0  0  0  0  0  0  0  0  0  0
   36.8800   27.9140   34.6920 N   0  0  0  0  0  0  0  0  0  0  0  0
   35.9390   28.4890   33.9120 C   0  0  0  0  0  3  0  0  0  0  0  0
   36.1160   28.5490   32.5830 N   0  0  0  0  0  0  0  0  0  0  0  0
   37.2380   28.0380   32.0000 C   0  0  0  0  0  0  0  0  0  0  0  0
   37.4790   28.0690   30.6320 C   0  0  0  0  0  3  0  0  0  0  0  0
   38.6560   27.5180   30.1410 C   0  0  0  0  0  0  0  0  0  0  0  0
   38.7270   27.6040   29.0670 H   0  0  0  0  0  0  0  0  0  0  0  0
   39.5970   26.9380   30.9620 C   0  0  0  0  0  0  0  0  0  0  0  0
   40.4840   26.5320   30.5210 H   0  0  0  0  0  0  0  0  0  0  0  0
   39.3820   26.8920   32.3380 C   0  0  0  0  0  3  0  0  0  0  0  0
   38.2040   27.4490   32.7890 C   0  0  0  0  0  0  0  0  0  0  0  0
  1  2  1  0  0  0  0
  2  7  1  0  0  0  0
  2  3  2  0  0  0  0
  3  8  1  0  0  0  0
  4  3  1  0  0  0  0
  5  4  2  0  0  0  0
  6  1  2  0  0  0  0
  6  5  1  0  0  0  0
  9  1  1  0  0  0  0
 10  9  1  0  0  0  0
 10 14  1  0  0  0  0
 10 15  1  0  0  0  0
 11 16  1  6  0  0  0
 11 10  1  0  0  0  0
 12 11  1  0  0  0  0
 12 13  1  0  0  0  0
 13 20  1  0  0  0  0
 13  9  1  0  0  0  0
 17 12  1  0  0  0  0
 18 12  1  0  0  0  0
 19 13  1  0  0  0  0
 21 24  1  0  0  0  0
 21 23  1  0  0  0  0
 21 11  1  0  0  0  0
 22 21  1  0  0  0  0
 25  5  1  0  0  0  0
 26 27  1  0  0  0  0
 26 25  1  0  0  0  0
 28 27  2  0  0  0  0
 29 28  1  0  0  0  0
 30 29  2  0  0  0  0
 30 37  1  0  0  0  0
 31 30  1  0  0  0  0
 32 31  2  0  0  0  0
 32 34  1  0  0  0  0
 33 32  1  0  0  0  0
 34 36  2  0  0  0  0
 35 34  1  0  0  0  0
 36 37  1  0  0  0  0
 37 26  2  0  0  0  0
M  END
>  <minimizedAffinity>
-5.98171473

$$$$
