
 OpenBabel03272509473D

 28 30  0  0  0  0  0  0  0  0999 V2000
   32.8730   27.9410   48.7120 C   0  0  0  0  0  0  0  0  0  0  0  0
   31.8320   28.3230   48.8770 H   0  0  0  0  0  0  0  0  0  0  0  0
   32.8110   26.8690   48.9930 H   0  0  0  0  0  0  0  0  0  0  0  0
   33.1830   28.1390   47.2830 C   0  0  0  0  0  0  0  0  0  0  0  0
   33.0230   29.3470   46.6930 N   0  0  0  0  0  0  0  0  0  0  0  0
   33.3080   29.5950   45.4230 C   0  0  0  0  0  3  0  0  0  0  0  0
   33.7850   28.6170   44.6370 N   0  0  0  0  0  0  0  0  0  0  0  0
   33.9810   27.3850   45.1140 C   0  0  0  0  0  0  0  0  0  0  0  0
   34.4660   26.4060   44.2770 C   0  0  0  0  0  3  0  0  0  0  0  0
   34.6370   25.1550   44.8330 C   0  0  0  0  0  0  0  0  0  0  0  0
   35.0190   24.3890   44.1710 H   0  0  0  0  0  0  0  0  0  0  0  0
   34.3470   24.8640   46.1590 C   0  0  0  0  0  0  0  0  0  0  0  0
   34.5180   23.8410   46.5000 H   0  0  0  0  0  0  0  0  0  0  0  0
   33.8640   25.8980   46.9390 C   0  0  0  0  0  3  0  0  0  0  0  0
   33.6740   27.1690   46.4370 C   0  0  0  0  0  0  0  0  0  0  0  0
   33.7530   28.7350   49.6180 C   0  0  0  0  0  0  0  0  0  0  0  0
   33.3820   28.6320   50.6640 H   0  0  0  0  0  0  0  0  0  0  0  0
   33.6640   29.8060   49.3830 H   0  0  0  0  0  0  0  0  0  0  0  0
   35.0960   28.2840   49.5230 O   0  0  0  0  0  0  0  0  0  0  0  0
   37.4620   30.3040   51.3620 C   0  0  0  0  0  0  0  0  0  0  0  0
   38.1720   30.8750   50.3060 C   0  0  0  0  0  0  0  0  0  0  0  0
   37.8010   30.5350   48.9990 C   0  0  0  0  0  0  0  0  0  0  0  0
   36.7580   29.6590   48.8620 N   0  0  0  0  0  0  0  0  0  0  0  0
   36.1030   29.1350   49.9030 C   0  0  0  0  0  0  0  0  0  0  0  0
   36.4680   29.4690   51.1580 N   0  0  0  0  0  0  0  0  0  0  0  0
   37.7310   30.5530   52.3880 H   0  0  0  0  0  0  0  0  0  0  0  0
   38.9860   31.5600   50.4730 H   0  0  0  0  0  0  0  0  0  0  0  0
   38.3130   30.9430   48.1350 H   0  0  0  0  0  0  0  0  0  0  0  0
  1  2  1  0  0  0  0
  1  3  1  0  0  0  0
  1 16  1  0  0  0  0
  4  1  1  0  0  0  0
  5  4  1  0  0  0  0
  6  5  2  0  0  0  0
  7  8  2  0  0  0  0
  7  6  1  0  0  0  0
  8 15  1  0  0  0  0
  9 10  2  0  0  0  0
  9  8  1  0  0  0  0
 10 12  1  0  0  0  0
 11 10  1  0  0  0  0
 12 13  1  0  0  0  0
 12 14  2  0  0  0  0
 15 14  1  0  0  0  0
 15  4  2  0  0  0  0
 16 17  1  0  0  0  0
 18 16  1  0  0  0  0
 19 16  1  0  0  0  0
 19 24  1  0  0  0  0
 20 26  1  0  0  0  0
 21 27  1  0  0  0  0
 21 20  2  0  0  0  0
 22 21  1  0  0  0  0
 23 22  2  0  0  0  0
 23 24  1  0  0  0  0
 24 25  2  0  0  0  0
 25 20  1  0  0  0  0
 28 22  1  0  0  0  0
M  END
>  <minimizedAffinity>
-4.56404018

>  <minimizedRMSD>
1.48468232

$$$$
