
 OpenBabel03272510123D

 38 42  0  0  0  0  0  0  0  0999 V2000
   37.3540   29.8090   49.7170 O   0  0  0  0  0  0  0  0  0  0  0  0
   37.9450   30.7620   48.8910 C   0  0  0  0  0  0  0  0  0  0  0  0
   38.2580   31.9470   49.5330 C   0  0  0  0  0  0  0  0  0  0  0  0
   38.8350   32.7740   48.5620 C   0  0  0  0  0  0  0  0  0  0  0  0
   38.8490   32.0760   47.3970 N   0  0  0  0  0  0  0  0  0  0  0  0
   38.3240   30.8960   47.6070 N   0  0  0  0  0  0  0  0  0  0  0  0
   38.1710   32.3620   50.5310 H   0  0  0  0  0  0  0  0  0  0  0  0
   39.2290   33.7730   48.5870 H   0  0  0  0  0  0  0  0  0  0  0  0
   39.3350   32.4830   46.1230 C   0  0  0  0  0  0  0  0  0  0  0  0
   39.7850   33.7190   45.8330 N   0  0  0  0  0  0  0  0  0  0  0  0
   40.2330   34.0190   44.5800 C   0  0  0  0  0  0  0  0  0  0  0  0
   40.2230   33.0540   43.6160 N   0  0  0  0  0  0  0  0  0  0  0  0
   39.7810   31.8110   43.8720 C   0  0  0  0  0  0  0  0  0  0  0  0
   39.7880   30.8740   42.8760 C   0  0  0  0  0  0  0  0  0  0  0  0
   39.3350   29.5900   43.1260 C   0  0  0  0  0  0  0  0  0  0  0  0
   39.2900   28.7640   42.4280 H   0  0  0  0  0  0  0  0  0  0  0  0
   38.8700   29.2540   44.4030 C   0  0  0  0  0  0  0  0  0  0  0  0
   38.4980   28.2590   44.6700 H   0  0  0  0  0  0  0  0  0  0  0  0
   38.8690   30.2090   45.3940 C   0  0  0  0  0  0  0  0  0  0  0  0
   39.3210   31.4870   45.1400 C   0  0  0  0  0  0  0  0  0  0  0  0
   33.4840   28.4150   48.7930 C   0  0  0  0  0  0  0  0  0  0  0  0
   33.8130   28.7740   50.0530 C   0  0  0  0  0  0  0  0  0  0  0  0
   35.0590   29.2400   50.4310 C   0  0  0  0  0  0  0  0  0  0  0  0
   36.0530   29.3600   49.5050 C   0  0  0  0  0  0  0  0  0  0  0  0
   35.7160   28.9880   48.1990 C   0  0  0  0  0  0  0  0  0  0  0  0
   34.4870   28.5390   47.8730 N   0  0  0  0  0  0  0  0  0  0  0  0
   33.0850   28.7100   50.8450 H   0  0  0  0  0  0  0  0  0  0  0  0
   35.3160   29.5260   51.4400 H   0  0  0  0  0  0  0  0  0  0  0  0
   36.4580   29.0590   47.4170 H   0  0  0  0  0  0  0  0  0  0  0  0
   31.1210   27.7550   49.2750 C   0  0  0  0  0  0  0  0  0  0  0  0
   32.1950   27.9290   48.3870 C   0  0  0  0  0  0  0  0  0  0  0  0
   31.9550   27.6070   47.0700 C   0  0  0  0  0  0  0  0  0  0  0  0
   30.7320   27.1490   46.6890 N   0  0  0  0  0  0  0  0  0  0  0  0
   29.7270   27.0000   47.6000 C   0  0  0  0  0  0  0  0  0  0  0  0
   29.9210   27.3040   48.9040 N   0  0  0  0  0  0  0  0  0  0  0  0
   31.2600   27.9930   50.3160 H   0  0  0  0  0  0  0  0  0  0  0  0
   32.7740   27.7380   46.3710 H   0  0  0  0  0  0  0  0  0  0  0  0
   28.8480   26.6240   47.0820 H   0  0  0  0  0  0  0  0  0  0  0  0
  2  3  1  0  0  0  0
  2  1  1  0  0  0  0
  3  7  1  0  0  0  0
  4  8  1  0  0  0  0
  4  3  2  0  0  0  0
  5  6  1  0  0  0  0
  5  4  1  0  0  0  0
  6  2  2  0  0  0  0
  9  5  1  0  0  0  0
 10  9  1  0  0  0  0
 11 10  2  0  0  0  0
 12 13  2  0  0  0  0
 12 11  1  0  0  0  0
 13 20  1  0  0  0  0
 14 15  2  0  0  0  0
 14 13  1  0  0  0  0
 15 17  1  0  0  0  0
 16 15  1  0  0  0  0
 17 18  1  0  0  0  0
 17 19  2  0  0  0  0
 20 19  1  0  0  0  0
 20  9  2  0  0  0  0
 21 22  1  0  0  0  0
 22 23  2  0  0  0  0
 22 27  1  0  0  0  0
 23 28  1  0  0  0  0
 24  1  1  0  0  0  0
 24 23  1  0  0  0  0
 25 24  2  0  0  0  0
 26 25  1  0  0  0  0
 26 21  2  0  0  0  0
 29 25  1  0  0  0  0
 30 36  1  0  0  0  0
 31 21  1  0  0  0  0
 31 30  2  0  0  0  0
 32 31  1  0  0  0  0
 33 32  2  0  0  0  0
 33 34  1  0  0  0  0
 34 35  2  0  0  0  0
 35 30  1  0  0  0  0
 37 32  1  0  0  0  0
 38 34  1  0  0  0  0
M  END
>  <minimizedAffinity>
-6.54209328

>  <minimizedRMSD>
1.72007477

$$$$
