
 OpenBabel03272509473D

 28 30  0  0  0  0  0  0  0  0999 V2000
   32.5640   27.5150   48.4350 C   0  0  0  0  0  0  0  0  0  0  0  0
   32.3860   27.0340   49.4320 H   0  0  0  0  0  0  0  0  0  0  0  0
   32.9090   26.6770   47.7940 H   0  0  0  0  0  0  0  0  0  0  0  0
   31.2750   28.0780   47.9920 C   0  0  0  0  0  0  0  0  0  0  0  0
   31.1780   28.7790   46.8360 N   0  0  0  0  0  0  0  0  0  0  0  0
   30.0470   29.2870   46.3700 C   0  0  0  0  0  3  0  0  0  0  0  0
   28.9030   29.1230   47.0550 N   0  0  0  0  0  0  0  0  0  0  0  0
   28.8830   28.4500   48.2080 C   0  0  0  0  0  0  0  0  0  0  0  0
   27.6940   28.3070   48.8850 C   0  0  0  0  0  3  0  0  0  0  0  0
   27.7450   27.6070   50.0730 C   0  0  0  0  0  0  0  0  0  0  0  0
   26.8070   27.4980   50.6010 H   0  0  0  0  0  0  0  0  0  0  0  0
   28.9150   27.0640   50.5880 C   0  0  0  0  0  0  0  0  0  0  0  0
   28.8470   26.5280   51.5360 H   0  0  0  0  0  0  0  0  0  0  0  0
   30.0700   27.2470   49.8510 C   0  0  0  0  0  3  0  0  0  0  0  0
   30.0770   27.9380   48.6570 C   0  0  0  0  0  0  0  0  0  0  0  0
   33.6130   28.5530   48.6570 C   0  0  0  0  0  0  0  0  0  0  0  0
   33.1170   29.5340   48.8420 H   0  0  0  0  0  0  0  0  0  0  0  0
   34.2000   28.6930   47.7380 H   0  0  0  0  0  0  0  0  0  0  0  0
   34.4350   28.1980   49.7590 O   0  0  0  0  0  0  0  0  0  0  0  0
   37.0730   30.1050   51.3270 C   0  0  0  0  0  0  0  0  0  0  0  0
   37.7980   30.4950   50.2010 C   0  0  0  0  0  0  0  0  0  0  0  0
   37.3420   30.0790   48.9440 C   0  0  0  0  0  0  0  0  0  0  0  0
   36.2070   29.3150   48.9220 N   0  0  0  0  0  0  0  0  0  0  0  0
   35.5410   28.9640   50.0270 C   0  0  0  0  0  0  0  0  0  0  0  0
   35.9890   29.3690   51.2330 N   0  0  0  0  0  0  0  0  0  0  0  0
   37.4080   30.4160   52.3160 H   0  0  0  0  0  0  0  0  0  0  0  0
   38.6870   31.0990   50.2780 H   0  0  0  0  0  0  0  0  0  0  0  0
   37.8610   30.3470   48.0300 H   0  0  0  0  0  0  0  0  0  0  0  0
  1 16  1  0  0  0  0
  1  2  1  0  0  0  0
  3  1  1  0  0  0  0
  4  1  1  0  0  0  0
  4 15  1  0  0  0  0
  5  4  2  0  0  0  0
  6  5  1  0  0  0  0
  6  7  2  0  0  0  0
  7  8  1  0  0  0  0
  8 15  2  0  0  0  0
  8  9  1  0  0  0  0
  9 10  2  0  0  0  0
 10 12  1  0  0  0  0
 10 11  1  0  0  0  0
 12 13  1  0  0  0  0
 14 12  2  0  0  0  0
 15 14  1  0  0  0  0
 16 17  1  0  0  0  0
 16 19  1  0  0  0  0
 18 16  1  0  0  0  0
 19 24  1  0  0  0  0
 20 26  1  0  0  0  0
 21 27  1  0  0  0  0
 21 20  2  0  0  0  0
 22 21  1  0  0  0  0
 23 22  2  0  0  0  0
 23 24  1  0  0  0  0
 24 25  2  0  0  0  0
 25 20  1  0  0  0  0
 28 22  1  0  0  0  0
M  END
>  <minimizedAffinity>
-5.33139753

>  <minimizedRMSD>
3.85718298

$$$$
