
 OpenBabel03262522273D

 49 53  0  0  0  0  0  0  0  0999 V2000
   34.5800   30.1320   50.1420 C   0  0  0  0  0  0  0  0  0  0  0  0
   33.9650   29.4940   50.8140 H   0  0  0  0  0  0  0  0  0  0  0  0
   34.3340   31.2080   50.2570 H   0  0  0  0  0  0  0  0  0  0  0  0
   34.4010   27.4260   49.6790 F   0  0  0  0  0  0  0  0  0  0  0  0
   34.3180   28.2820   48.6220 C   0  0  0  0  0  0  0  0  0  0  0  0
   34.3940   29.6690   48.7270 C   0  0  0  0  0  0  0  0  0  0  0  0
   34.3050   30.4820   47.6320 C   0  0  0  0  0  0  0  0  0  0  0  0
   34.1300   29.9310   46.3460 C   0  0  0  0  0  0  0  0  0  0  0  0
   34.0520   28.5570   46.2240 C   0  0  0  0  0  0  0  0  0  0  0  0
   34.1460   27.7570   47.3560 C   0  0  0  0  0  0  0  0  0  0  0  0
   34.3790   31.5320   47.8580 H   0  0  0  0  0  0  0  0  0  0  0  0
   34.0670   30.6310   45.5240 H   0  0  0  0  0  0  0  0  0  0  0  0
   33.9180   28.1470   45.2320 H   0  0  0  0  0  0  0  0  0  0  0  0
   34.0570   26.3990   47.1270 O   0  0  0  0  0  0  0  0  0  0  0  0
   32.7950   25.8840   46.8580 C   0  0  0  0  0  0  0  0  0  0  0  0
   31.6670   26.6190   46.7720 N   0  0  0  0  0  0  0  0  0  0  0  0
   30.4670   26.0540   46.5070 C   0  0  0  0  0  3  0  0  0  0  0  0
   30.4020   24.7070   46.3220 N   0  0  0  0  0  0  0  0  0  0  0  0
   31.4780   23.9040   46.3890 C   0  0  0  0  0  0  0  0  0  0  0  0
   31.3600   22.5430   46.1940 C   0  0  0  0  0  3  0  0  0  0  0  0
   32.4780   21.7370   46.2690 C   0  0  0  0  0  0  0  0  0  0  0  0
   32.4900   20.6640   46.1310 H   0  0  0  0  0  0  0  0  0  0  0  0
   33.6970   22.3210   46.5400 C   0  0  0  0  0  0  0  0  0  0  0  0
   34.6210   21.7780   46.6170 H   0  0  0  0  0  0  0  0  0  0  0  0
   33.8160   23.6820   46.7360 C   0  0  0  0  0  3  0  0  0  0  0  0
   32.6980   24.5210   46.6660 C   0  0  0  0  0  0  0  0  0  0  0  0
   36.3090   29.8000   50.5850 S   0  0  0  0  0  0  0  0  0  0  0  0
   38.2680   32.7890   48.7260 C   0  0  0  0  0  0  0  0  0  0  0  0
   38.7610   32.1390   47.6010 C   0  0  0  0  0  0  0  0  0  0  0  0
   38.4680   30.8110   47.4650 C   0  0  0  0  0  0  0  0  0  0  0  0
   37.7220   30.2040   48.4230 N   0  0  0  0  0  0  0  0  0  0  0  0
   37.2730   30.8480   49.4720 C   0  0  0  0  0  0  0  0  0  0  0  0
   37.5300   32.1860   49.6710 N   0  0  0  0  0  0  0  0  0  0  0  0
   38.4640   33.8510   48.8960 H   0  0  0  0  0  0  0  0  0  0  0  0
   38.8420   30.2800   46.5940 H   0  0  0  0  0  0  0  0  0  0  0  0
   39.4970   32.8560   46.7110 O   0  0  0  0  0  0  0  0  0  0  0  0
   39.6380   32.4010   45.4090 C   0  0  0  0  0  0  0  0  0  0  0  0
   40.6620   31.6150   44.9060 C   0  0  0  0  0  0  0  0  0  0  0  0
   40.6400   31.2630   43.6040 C   0  0  0  0  0  0  0  0  0  0  0  0
   39.6050   31.6960   42.8190 C   0  0  0  0  0  0  0  0  0  0  0  0
   38.5890   32.4830   43.3430 C   0  0  0  0  0  0  0  0  0  0  0  0
   38.6290   32.8260   44.6530 N   0  0  0  0  0  0  0  0  0  0  0  0
   41.4210   31.3380   45.6250 H   0  0  0  0  0  0  0  0  0  0  0  0
   41.4150   30.6610   43.1970 H   0  0  0  0  0  0  0  0  0  0  0  0
   39.5840   31.4160   41.7740 H   0  0  0  0  0  0  0  0  0  0  0  0
   37.4500   32.9490   42.4430 C   0  0  0  0  0  0  0  0  0  0  0  0
   36.8820   32.0410   42.1950 H   0  0  0  0  0  0  0  0  0  0  0  0
   37.8470   33.3710   41.4990 H   0  0  0  0  0  0  0  0  0  0  0  0
   36.8440   33.6400   43.0260 H   0  0  0  0  0  0  0  0  0  0  0  0
  1  3  1  0  0  0  0
  1 27  1  0  0  0  0
  1  2  1  0  0  0  0
  5  6  1  0  0  0  0
  5  4  1  0  0  0  0
  6  1  1  0  0  0  0
  7 11  1  0  0  0  0
  7  6  2  0  0  0  0
  8  7  1  0  0  0  0
  9  8  2  0  0  0  0
  9 10  1  0  0  0  0
 10  5  2  0  0  0  0
 12  8  1  0  0  0  0
 13  9  1  0  0  0  0
 14 10  1  0  0  0  0
 15 14  1  0  0  0  0
 16 15  1  0  0  0  0
 17 16  2  0  0  0  0
 18 19  2  0  0  0  0
 18 17  1  0  0  0  0
 19 26  1  0  0  0  0
 20 21  2  0  0  0  0
 20 19  1  0  0  0  0
 21 23  1  0  0  0  0
 22 21  1  0  0  0  0
 23 24  1  0  0  0  0
 23 25  2  0  0  0  0
 26 25  1  0  0  0  0
 26 15  2  0  0  0  0
 28 34  1  0  0  0  0
 28 33  1  0  0  0  0
 29 28  2  0  0  0  0
 30 29  1  0  0  0  0
 30 31  2  0  0  0  0
 31 32  1  0  0  0  0
 32 33  2  0  0  0  0
 32 27  1  0  0  0  0
 35 30  1  0  0  0  0
 36 29  1  0  0  0  0
 37 36  1  0  0  0  0
 38 37  1  0  0  0  0
 38 43  1  0  0  0  0
 39 38  2  0  0  0  0
 40 41  2  0  0  0  0
 40 39  1  0  0  0  0
 41 42  1  0  0  0  0
 42 37  2  0  0  0  0
 44 39  1  0  0  0  0
 45 40  1  0  0  0  0
 46 49  1  0  0  0  0
 46 41  1  0  0  0  0
 47 46  1  0  0  0  0
 48 46  1  0  0  0  0
M  END
>  <minimizedAffinity>
-6.07023954

>  <minimizedRMSD>
1.8116101

$$$$
