
 OpenBabel03272507303D

 32 35  0  0  0  0  0  0  0  0999 V2000
   35.8660   29.2460   49.6340 C   0  0  0  0  0  0  0  0  0  0  0  0
   34.8290   29.4440   50.4740 C   0  0  0  0  0  0  0  0  0  0  0  0
   33.6630   28.9630   49.8800 C   0  0  0  0  0  0  0  0  0  0  0  0
   34.0920   28.4690   48.6300 C   0  0  0  0  0  0  0  0  0  0  0  0
   35.3540   28.6830   48.6040 O   0  0  0  0  0  0  0  0  0  0  0  0
   34.7010   29.8690   51.4580 H   0  0  0  0  0  0  0  0  0  0  0  0
   32.6350   28.9330   50.2180 H   0  0  0  0  0  0  0  0  0  0  0  0
   37.2220   29.6300   49.9360 C   0  0  0  0  0  0  0  0  0  0  0  0
   37.8080   29.0770   50.8770 O   0  0  0  0  0  0  0  0  0  0  0  0
   37.8180   30.6630   49.0950 C   0  0  0  0  0  0  0  0  0  0  0  0
   38.0840   31.8830   49.7380 C   0  0  0  0  0  0  0  0  0  0  0  0
   38.6570   32.8890   48.9560 C   0  0  0  0  0  0  0  0  0  0  0  0
   38.9220   32.6510   47.6450 N   0  0  0  0  0  0  0  0  0  0  0  0
   38.6420   31.4520   47.0770 C   0  0  0  0  0  0  0  0  0  0  0  0
   38.0980   30.4750   47.7960 N   0  0  0  0  0  0  0  0  0  0  0  0
   37.8740   32.0760   50.7790 H   0  0  0  0  0  0  0  0  0  0  0  0
   38.8970   33.8690   49.3730 H   0  0  0  0  0  0  0  0  0  0  0  0
   38.8400   31.2330   46.0430 H   0  0  0  0  0  0  0  0  0  0  0  0
   33.2010   27.8530   47.6390 C   0  0  0  0  0  0  0  0  0  0  0  0
   31.9590   27.9280   47.8020 O   0  0  0  0  0  0  0  0  0  0  0  0
   33.3960   27.1100   46.4190 C   0  0  0  0  0  0  0  0  0  0  0  0
   33.2230   27.8100   45.2720 N   0  0  0  0  0  0  0  0  0  0  0  0
   33.3660   27.2590   44.0320 C   0  0  0  0  0  3  0  0  0  0  0  0
   33.6950   25.9690   43.9170 N   0  0  0  0  0  0  0  0  0  0  0  0
   33.8920   25.1880   44.9900 C   0  0  0  0  0  0  0  0  0  0  0  0
   34.2610   23.8650   44.8870 C   0  0  0  0  0  3  0  0  0  0  0  0
   34.4910   23.0970   45.9950 C   0  0  0  0  0  0  0  0  0  0  0  0
   34.7800   22.0600   45.9150 H   0  0  0  0  0  0  0  0  0  0  0  0
   34.3340   23.7210   47.2300 C   0  0  0  0  0  0  0  0  0  0  0  0
   34.5240   23.0930   48.0940 H   0  0  0  0  0  0  0  0  0  0  0  0
   33.9640   25.0430   47.2980 C   0  0  0  0  0  3  0  0  0  0  0  0
   33.7290   25.8180   46.1980 C   0  0  0  0  0  0  0  0  0  0  0  0
  1  8  1  0  0  0  0
  1  2  2  0  0  0  0
  2  6  1  0  0  0  0
  3  7  1  0  0  0  0
  3  2  1  0  0  0  0
  4  3  2  0  0  0  0
  5  4  1  0  0  0  0
  5  1  1  0  0  0  0
  8  9  2  0  0  0  0
 10 11  1  0  0  0  0
 10  8  1  0  0  0  0
 11 16  1  0  0  0  0
 12 17  1  0  0  0  0
 12 11  2  0  0  0  0
 13 12  1  0  0  0  0
 14 13  2  0  0  0  0
 14 15  1  0  0  0  0
 15 10  2  0  0  0  0
 18 14  1  0  0  0  0
 19 20  2  0  0  0  0
 19  4  1  0  0  0  0
 21 19  1  0  0  0  0
 22 21  2  0  0  0  0
 23 22  1  0  0  0  0
 24 23  2  0  0  0  0
 24 25  1  0  0  0  0
 25 32  1  0  0  0  0
 26 25  2  0  0  0  0
 26 27  1  0  0  0  0
 27 29  2  0  0  0  0
 28 27  1  0  0  0  0
 29 31  1  0  0  0  0
 29 30  1  0  0  0  0
 32 21  1  0  0  0  0
 32 31  2  0  0  0  0
M  END
>  <minimizedAffinity>
-5.37332106

>  <minimizedRMSD>
1.49779248

$$$$
