
 OpenBabel03272504413D

 48 51  0  0  0  0  0  0  0  0999 V2000
   34.5610   29.1400   48.7860 C   0  0  0  0  0  0  0  0  0  0  0  0
   35.4630   28.9910   49.4230 H   0  0  0  0  0  0  0  0  0  0  0  0
   34.0370   30.0010   49.2970 H   0  0  0  0  0  0  0  0  0  0  0  0
   37.3200   30.2530   48.6450 Cl  0  0  0  0  0  0  0  0  0  0  0  0
   36.2260   30.1430   47.2630 C   0  0  0  0  0  0  0  0  0  0  0  0
   36.6440   30.5870   46.0580 C   0  0  0  0  0  0  0  0  0  0  0  0
   35.8000   30.5100   44.9700 C   0  0  0  0  0  0  0  0  0  0  0  0
   34.5280   29.9720   45.1420 C   0  0  0  0  0  0  0  0  0  0  0  0
   34.1680   29.5310   46.4310 C   0  0  0  0  0  0  0  0  0  0  0  0
   34.9820   29.6020   47.4980 C   0  0  0  0  0  0  0  0  0  0  0  0
   36.1590   30.8750   44.0010 H   0  0  0  0  0  0  0  0  0  0  0  0
   33.9560   29.9570   44.2390 H   0  0  0  0  0  0  0  0  0  0  0  0
   33.2030   29.1760   46.3490 H   0  0  0  0  0  0  0  0  0  0  0  0
   39.6090   32.7590   46.3490 C   0  0  0  0  0  0  0  0  0  0  0  0
   40.5120   32.0970   45.4470 C   0  0  0  0  0  0  0  0  0  0  0  0
   40.0590   30.9450   44.7890 C   0  0  0  0  0  0  0  0  0  0  0  0
   38.7980   30.5050   45.0280 N   0  0  0  0  0  0  0  0  0  0  0  0
   37.9710   31.1510   45.8820 C   0  0  0  0  0  0  0  0  0  0  0  0
   38.3790   32.2580   46.5280 N   0  0  0  0  0  0  0  0  0  0  0  0
   39.9270   33.6370   46.8620 H   0  0  0  0  0  0  0  0  0  0  0  0
   41.4660   32.5570   45.3610 H   0  0  0  0  0  0  0  0  0  0  0  0
   40.9700   30.3310   43.9210 N   0  0  0  0  0  0  0  0  0  0  0  0
   41.4860   29.4310   44.1050 H   0  0  0  0  0  0  0  0  0  0  0  0
   41.0950   30.8700   43.0400 H   0  0  0  0  0  0  0  0  0  0  0  0
   33.7310   27.9370   48.9000 C   0  0  0  0  0  0  0  0  0  0  0  0
   34.1480   27.1660   49.6150 H   0  0  0  0  0  0  0  0  0  0  0  0
   33.7310   27.4150   47.9160 H   0  0  0  0  0  0  0  0  0  0  0  0
   32.4480   28.2490   49.2680 O   0  0  0  0  0  0  0  0  0  0  0  0
   32.0390   26.6710   47.2150 O   0  0  0  0  0  0  0  0  0  0  0  0
   31.3500   27.4720   48.2920 P   0  0  2  0  0  0  0  0  0  0  0  0
   30.3830   28.7050   47.5520 O   0  0  0  0  0  0  0  0  0  0  0  0
   29.7370   28.3680   46.3690 C   0  0  0  0  0  0  0  0  0  0  0  0
   28.9260   27.3150   46.1680 N   0  0  0  0  0  0  0  0  0  0  0  0
   28.3810   27.1320   44.9690 C   0  0  0  0  0  3  0  0  0  0  0  0
   28.6100   27.9650   43.9340 N   0  0  0  0  0  0  0  0  0  0  0  0
   29.4150   29.0400   44.0750 C   0  0  0  0  0  0  0  0  0  0  0  0
   29.6300   29.8750   42.9980 C   0  0  0  0  0  3  0  0  0  0  0  0
   30.4570   30.9600   43.1780 C   0  0  0  0  0  0  0  0  0  0  0  0
   30.7120   31.6970   42.4140 H   0  0  0  0  0  0  0  0  0  0  0  0
   31.0570   31.2130   44.3950 C   0  0  0  0  0  0  0  0  0  0  0  0
   31.7070   32.0470   44.5790 H   0  0  0  0  0  0  0  0  0  0  0  0
   30.8180   30.3560   45.4500 C   0  0  0  0  0  3  0  0  0  0  0  0
   30.0000   29.2560   45.3260 C   0  0  0  0  0  0  0  0  0  0  0  0
   30.2900   26.5080   49.1170 O   0  0  0  0  0  0  0  0  0  0  0  0
   29.5050   27.2500   49.9670 C   0  0  0  0  0  0  0  0  0  0  0  0
   29.2060   26.5700   51.1470 F   0  0  0  0  0  0  0  0  0  0  0  0
   30.1390   28.4170   50.3620 F   0  0  0  0  0  0  0  0  0  0  0  0
   28.3120   27.5700   49.3370 F   0  0  0  0  0  0  0  0  0  0  0  0
  1 25  1  0  0  0  0
  1  3  1  0  0  0  0
  1  2  1  0  0  0  0
  5 10  1  0  0  0  0
  5  4  1  0  0  0  0
  6  5  2  0  0  0  0
  7  8  2  0  0  0  0
  7  6  1  0  0  0  0
  8  9  1  0  0  0  0
  9 10  2  0  0  0  0
 10  1  1  0  0  0  0
 11  7  1  0  0  0  0
 12  8  1  0  0  0  0
 13  9  1  0  0  0  0
 14 19  1  0  0  0  0
 14 20  1  0  0  0  0
 15 14  2  0  0  0  0
 16 17  2  0  0  0  0
 16 15  1  0  0  0  0
 17 18  1  0  0  0  0
 18  6  1  0  0  0  0
 18 19  2  0  0  0  0
 21 15  1  0  0  0  0
 22 23  1  0  0  0  0
 22 16  1  0  0  0  0
 24 22  1  0  0  0  0
 25 28  1  0  0  0  0
 25 26  1  0  0  0  0
 27 25  1  0  0  0  0
 30 29  2  6  0  0  0
 30 44  1  0  0  0  0
 30 28  1  0  0  0  0
 31 30  1  0  0  0  0
 32 31  1  0  0  0  0
 33 32  1  0  0  0  0
 34 33  2  0  0  0  0
 35 36  2  0  0  0  0
 35 34  1  0  0  0  0
 36 43  1  0  0  0  0
 37 38  2  0  0  0  0
 37 36  1  0  0  0  0
 38 40  1  0  0  0  0
 39 38  1  0  0  0  0
 40 41  1  0  0  0  0
 40 42  2  0  0  0  0
 43 42  1  0  0  0  0
 43 32  2  0  0  0  0
 44 45  1  0  0  0  0
 45 47  1  0  0  0  0
 45 46  1  0  0  0  0
 48 45  1  0  0  0  0
M  END
>  <minimizedAffinity>
-5.90280628

>  <minimizedRMSD>
0.824873447

$$$$
