
 OpenBabel03272508193D

 34 37  0  0  0  0  0  0  0  0999 V2000
   35.9990   30.6430   47.6020 C   0  0  0  0  0  0  0  0  0  0  0  0
   35.4160   30.7380   48.5390 H   0  0  0  0  0  0  0  0  0  0  0  0
   36.0700   31.7150   47.2110 H   0  0  0  0  0  0  0  0  0  0  0  0
   34.1750   29.0490   46.9320 C   0  0  0  0  0  0  0  0  0  0  0  0
   35.2160   29.9270   46.6100 C   0  0  0  0  0  0  0  0  0  0  0  0
   35.4950   30.0200   45.2540 C   0  0  0  0  0  0  0  0  0  0  0  0
   34.7990   29.3080   44.3410 N   0  0  0  0  0  0  0  0  0  0  0  0
   33.8010   28.4660   44.6840 C   0  0  0  0  0  0  0  0  0  0  0  0
   33.4900   28.3370   45.9830 N   0  0  0  0  0  0  0  0  0  0  0  0
   36.2620   30.6130   44.7970 H   0  0  0  0  0  0  0  0  0  0  0  0
   33.2630   27.9120   43.9580 H   0  0  0  0  0  0  0  0  0  0  0  0
   33.7610   28.9890   48.3850 C   0  0  0  0  0  0  0  0  0  0  0  0
   32.9270   27.9660   48.8930 C   0  0  0  0  0  0  0  0  0  0  0  0
   34.4170   27.7180   49.0310 C   0  0  0  0  0  0  0  0  0  0  0  0
   34.0610   29.8870   49.0170 H   0  0  0  0  0  0  0  0  0  0  0  0
   32.3330   28.1340   49.8160 H   0  0  0  0  0  0  0  0  0  0  0  0
   32.3620   27.3210   48.1780 H   0  0  0  0  0  0  0  0  0  0  0  0
   34.8170   26.9480   48.3830 H   0  0  0  0  0  0  0  0  0  0  0  0
   34.7840   27.8650   50.0590 H   0  0  0  0  0  0  0  0  0  0  0  0
   37.3650   30.1920   47.9100 C   0  0  0  0  0  0  0  0  0  0  0  0
   37.6160   30.2130   48.9910 H   0  0  0  0  0  0  0  0  0  0  0  0
   37.5310   29.1000   47.6440 H   0  0  0  0  0  0  0  0  0  0  0  0
   38.3650   30.9220   47.0950 C   0  0  0  0  0  0  0  0  0  0  0  0
   38.9210   30.7000   45.8990 N   0  0  0  0  0  0  0  0  0  0  0  0
   39.7990   31.4990   45.3020 C   0  0  0  0  0  0  0  0  0  0  0  0
   40.2410   32.6360   45.8300 N   0  0  0  0  0  0  0  0  0  0  0  0
   39.7430   32.9610   47.0470 C   0  0  0  0  0  0  0  0  0  0  0  0
   40.2210   34.1260   47.5820 C   0  0  0  0  0  0  0  0  0  0  0  0
   39.7950   34.5270   48.8080 C   0  0  0  0  0  0  0  0  0  0  0  0
   40.1700   35.4400   49.2250 H   0  0  0  0  0  0  0  0  0  0  0  0
   38.8880   33.7350   49.4690 C   0  0  0  0  0  0  0  0  0  0  0  0
   38.5750   34.0920   50.4450 H   0  0  0  0  0  0  0  0  0  0  0  0
   38.4390   32.5860   48.8990 C   0  0  0  0  0  0  0  0  0  0  0  0
   38.8290   32.1180   47.6560 C   0  0  0  0  0  0  0  0  0  0  0  0
  1 20  1  0  0  0  0
  1  2  1  0  0  0  0
  3  1  1  0  0  0  0
  4 12  1  0  0  0  0
  5  4  1  0  0  0  0
  5  1  1  0  0  0  0
  6  5  2  0  0  0  0
  7  8  2  0  0  0  0
  7  6  1  0  0  0  0
  8  9  1  0  0  0  0
  9  4  2  0  0  0  0
 10  6  1  0  0  0  0
 11  8  1  0  0  0  0
 12 13  1  0  0  0  0
 12 15  1  0  0  0  0
 12 14  1  0  0  0  0
 13 14  1  0  0  0  0
 13 16  1  0  0  0  0
 14 19  1  0  0  0  0
 17 13  1  0  0  0  0
 18 14  1  0  0  0  0
 20 21  1  0  0  0  0
 22 20  1  0  0  0  0
 23 34  1  0  0  0  0
 23 20  1  0  0  0  0
 24 23  2  0  0  0  0
 25 26  2  0  0  0  0
 25 24  1  0  0  0  0
 26 27  1  0  0  0  0
 27 28  2  0  0  0  0
 27 34  1  0  0  0  0
 28 29  1  0  0  0  0
 29 30  1  0  0  0  0
 29 31  2  0  0  0  0
 31 32  1  0  0  0  0
 33 31  1  0  0  0  0
 34 33  2  0  0  0  0
M  END
>  <minimizedAffinity>
-5.53342485

>  <minimizedRMSD>
4.54819107

$$$$
