
 OpenBabel03272504243D

 42 46  0  0  0  0  0  0  0  0999 V2000
   31.9300   28.6610   43.3970 C   0  0  0  0  0  0  0  0  0  0  0  0
   32.8470   29.7060   43.2610 C   0  0  0  0  0  0  0  0  0  0  0  0
   32.5010   31.0080   42.9890 C   0  0  0  0  0  0  0  0  0  0  0  0
   31.1700   31.3670   42.8330 C   0  0  0  0  0  0  0  0  0  0  0  0
   30.1950   30.4010   42.9520 C   0  0  0  0  0  0  0  0  0  0  0  0
   30.6310   29.1410   43.2210 C   0  0  0  0  0  0  0  0  0  0  0  0
   33.2960   31.7670   42.8990 H   0  0  0  0  0  0  0  0  0  0  0  0
   30.9730   32.4060   42.6190 H   0  0  0  0  0  0  0  0  0  0  0  0
   29.1720   30.6500   42.8380 H   0  0  0  0  0  0  0  0  0  0  0  0
   29.8270   28.3910   43.3120 H   0  0  0  0  0  0  0  0  0  0  0  0
   36.4970   29.5350   42.8830 C   0  0  0  0  0  0  0  0  0  0  0  0
   36.7850   28.7270   43.9050 C   0  0  0  0  0  0  0  0  0  0  0  0
   35.8480   28.2470   44.7190 C   0  0  0  0  0  0  0  0  0  0  0  0
   34.5690   28.5980   44.4820 N   0  0  0  0  0  0  0  0  0  0  0  0
   34.2490   29.3980   43.4630 C   0  0  0  0  0  0  0  0  0  0  0  0
   35.2120   29.8690   42.6620 N   0  0  0  0  0  0  0  0  0  0  0  0
   37.8280   28.4860   44.0250 H   0  0  0  0  0  0  0  0  0  0  0  0
   36.2570   27.6120   45.5000 H   0  0  0  0  0  0  0  0  0  0  0  0
   39.3380   31.6350   41.8500 C   0  0  0  0  0  0  0  0  0  0  0  0
   39.4040   31.3730   40.4660 C   0  0  0  0  0  0  0  0  0  0  0  0
   38.4660   30.4670   39.9190 C   0  0  0  0  0  0  0  0  0  0  0  0
   37.5430   29.8900   40.7490 N   0  0  0  0  0  0  0  0  0  0  0  0
   37.5140   30.1620   42.0470 C   0  0  0  0  0  0  0  0  0  0  0  0
   38.4190   31.0430   42.6060 N   0  0  0  0  0  0  0  0  0  0  0  0
   40.0520   32.3260   42.2750 H   0  0  0  0  0  0  0  0  0  0  0  0
   40.1110   31.8110   39.8080 H   0  0  0  0  0  0  0  0  0  0  0  0
   38.4330   30.2010   38.8770 H   0  0  0  0  0  0  0  0  0  0  0  0
   32.3300   27.0480   43.7350 S   0  0  0  0  0  0  0  0  0  0  0  0
   32.5440   27.1530   45.1930 O   0  0  0  0  0  0  0  0  0  0  0  0
   33.7300   26.7280   43.3490 O   0  0  0  0  0  0  0  0  0  0  0  0
   31.2990   25.7860   44.2440 C   0  0  0  0  0  0  0  0  0  0  0  0
   30.9950   24.6130   43.7110 N   0  0  0  0  0  0  0  0  0  0  0  0
   30.1150   23.6900   44.0870 C   0  0  0  0  0  3  0  0  0  0  0  0
   29.3850   23.9320   45.1760 N   0  0  0  0  0  0  0  0  0  0  0  0
   29.5980   25.0910   45.8090 C   0  0  0  0  0  0  0  0  0  0  0  0
   28.8060   25.2610   46.9310 C   0  0  0  0  0  3  0  0  0  0  0  0
   28.9110   26.4000   47.6960 C   0  0  0  0  0  0  0  0  0  0  0  0
   28.2940   26.5290   48.5670 H   0  0  0  0  0  0  0  0  0  0  0  0
   29.8210   27.3600   47.3170 C   0  0  0  0  0  0  0  0  0  0  0  0
   29.9030   28.2420   47.9100 H   0  0  0  0  0  0  0  0  0  0  0  0
   30.5730   27.1220   46.1910 C   0  0  0  0  0  3  0  0  0  0  0  0
   30.5180   26.0060   45.3800 C   0  0  0  0  0  0  0  0  0  0  0  0
  1 28  1  0  0  0  0
  2  1  1  0  0  0  0
  2 15  1  0  0  0  0
  3  2  2  0  0  0  0
  4  5  2  0  0  0  0
  4  3  1  0  0  0  0
  5  6  1  0  0  0  0
  6 10  1  0  0  0  0
  6  1  2  0  0  0  0
  7  3  1  0  0  0  0
  8  4  1  0  0  0  0
  9  5  1  0  0  0  0
 11 12  1  0  0  0  0
 12 17  1  0  0  0  0
 12 13  2  0  0  0  0
 13 18  1  0  0  0  0
 14 13  1  0  0  0  0
 15 14  2  0  0  0  0
 16 11  2  0  0  0  0
 16 15  1  0  0  0  0
 19 25  1  0  0  0  0
 19 24  1  0  0  0  0
 20 19  2  0  0  0  0
 21 20  1  0  0  0  0
 21 22  2  0  0  0  0
 22 23  1  0  0  0  0
 23 24  2  0  0  0  0
 23 11  1  0  0  0  0
 26 20  1  0  0  0  0
 27 21  1  0  0  0  0
 28 31  1  0  0  0  0
 28 29  2  0  0  0  0
 30 28  2  0  0  0  0
 31 42  1  0  0  0  0
 32 33  1  0  0  0  0
 32 31  2  0  0  0  0
 33 34  2  0  0  0  0
 34 35  1  0  0  0  0
 35 36  1  0  0  0  0
 36 37  2  0  0  0  0
 37 38  1  0  0  0  0
 39 37  1  0  0  0  0
 39 40  1  0  0  0  0
 41 39  2  0  0  0  0
 42 35  2  0  0  0  0
 42 41  1  0  0  0  0
M  END
>  <minimizedAffinity>
-1.08548319

>  <minimizedRMSD>
5.57746077

$$$$
