
 OpenBabel03272502253D

 33 36  0  0  0  0  0  0  0  0999 V2000
   37.2340   30.1200   50.4080 C   0  0  0  0  0  0  0  0  0  0  0  0
   37.8670   30.6580   49.2600 C   0  0  0  0  0  0  0  0  0  0  0  0
   37.1240   30.6620   48.0710 C   0  0  0  0  0  0  0  0  0  0  0  0
   35.8830   30.1640   48.1000 N   0  0  0  0  0  0  0  0  0  0  0  0
   35.2960   29.6580   49.1930 C   0  0  0  0  0  0  0  0  0  0  0  0
   35.9830   29.6380   50.3580 N   0  0  0  0  0  0  0  0  0  0  0  0
   37.8610   30.1460   51.2900 H   0  0  0  0  0  0  0  0  0  0  0  0
   38.8730   31.0530   49.2700 H   0  0  0  0  0  0  0  0  0  0  0  0
   37.6570   31.1820   46.8300 C   0  0  0  0  0  0  0  0  0  0  0  0
   37.0950   30.8560   45.6180 C   0  0  0  0  0  0  0  0  0  0  0  0
   37.5670   31.3230   44.4110 C   0  0  0  0  0  0  0  0  0  0  0  0
   38.6420   32.1510   44.4050 N   0  0  0  0  0  0  0  0  0  0  0  0
   39.1830   32.4640   45.5890 C   0  0  0  0  0  0  0  0  0  0  0  0
   38.7260   32.0090   46.7660 N   0  0  0  0  0  0  0  0  0  0  0  0
   36.2450   30.2130   45.5160 H   0  0  0  0  0  0  0  0  0  0  0  0
   37.1450   31.0810   43.4550 H   0  0  0  0  0  0  0  0  0  0  0  0
   40.3580   33.3670   45.6070 C   0  0  0  0  0  0  0  0  0  0  0  0
   40.3530   34.0300   46.8460 F   0  0  0  0  0  0  0  0  0  0  0  0
   41.5340   32.6830   45.4170 F   0  0  0  0  0  0  0  0  0  0  0  0
   40.2570   34.3620   44.6630 F   0  0  0  0  0  0  0  0  0  0  0  0
   34.0210   29.1840   49.0680 O   0  0  0  0  0  0  0  0  0  0  0  0
   33.7220   28.1710   48.1970 C   0  0  0  0  0  0  0  0  0  0  0  0
   33.8950   26.8590   48.1720 N   0  0  0  0  0  0  0  0  0  0  0  0
   33.5130   26.0330   47.1910 C   0  0  0  0  0  3  0  0  0  0  0  0
   32.8910   26.4960   46.0920 N   0  0  0  0  0  0  0  0  0  0  0  0
   32.6730   27.8060   46.0270 C   0  0  0  0  0  0  0  0  0  0  0  0
   32.0320   28.2430   44.8860 C   0  0  0  0  0  3  0  0  0  0  0  0
   31.7670   29.5840   44.7380 C   0  0  0  0  0  0  0  0  0  0  0  0
   31.2650   29.9250   43.8420 H   0  0  0  0  0  0  0  0  0  0  0  0
   32.1390   30.4710   45.7160 C   0  0  0  0  0  0  0  0  0  0  0  0
   31.9460   31.5490   45.6370 H   0  0  0  0  0  0  0  0  0  0  0  0
   32.7730   29.9720   46.8290 C   0  0  0  0  0  3  0  0  0  0  0  0
   33.0760   28.6380   47.0540 C   0  0  0  0  0  0  0  0  0  0  0  0
  1  7  1  0  0  0  0
  2  8  1  0  0  0  0
  2  1  2  0  0  0  0
  3  4  2  0  0  0  0
  3  2  1  0  0  0  0
  4  5  1  0  0  0  0
  5  6  2  0  0  0  0
  6  1  1  0  0  0  0
  9  3  1  0  0  0  0
 10  9  2  0  0  0  0
 11 10  1  0  0  0  0
 12 11  2  0  0  0  0
 12 13  1  0  0  0  0
 13 17  1  0  0  0  0
 13 14  2  0  0  0  0
 14  9  1  0  0  0  0
 15 10  1  0  0  0  0
 16 11  1  0  0  0  0
 17 18  1  0  0  0  0
 19 17  1  0  0  0  0
 20 17  1  0  0  0  0
 21  5  1  0  0  0  0
 22 21  1  0  0  0  0
 23 22  1  0  0  0  0
 24 23  2  0  0  0  0
 25 24  1  0  0  0  0
 26 25  2  0  0  0  0
 26 33  1  0  0  0  0
 27 26  1  0  0  0  0
 28 27  2  0  0  0  0
 28 30  1  0  0  0  0
 29 28  1  0  0  0  0
 30 32  2  0  0  0  0
 31 30  1  0  0  0  0
 32 33  1  0  0  0  0
 33 22  2  0  0  0  0
M  END
>  <minimizedAffinity>
-6.12635756

>  <minimizedRMSD>
1.40537822

$$$$
