
 OpenBabel03272505493D

 43 48  0  0  0  0  0  0  0  0999 V2000
   33.2930   31.1100   35.9010 C   0  0  0  0  0  0  0  0  0  0  0  0
   33.9760   32.0460   36.6000 C   0  0  0  0  0  0  0  0  0  0  0  0
   35.3590   32.1500   36.4550 C   0  0  0  0  0  0  0  0  0  0  0  0
   36.0010   31.2730   35.5830 C   0  0  0  0  0  0  0  0  0  0  0  0
   35.2750   30.3070   34.8650 C   0  0  0  0  0  0  0  0  0  0  0  0
   33.9410   30.2770   35.0670 N   0  0  0  0  0  0  0  0  0  0  0  0
   33.4980   32.7320   37.2780 H   0  0  0  0  0  0  0  0  0  0  0  0
   35.9070   32.8940   37.0090 H   0  0  0  0  0  0  0  0  0  0  0  0
   37.0710   31.3110   35.4330 H   0  0  0  0  0  0  0  0  0  0  0  0
   35.9090   29.3760   33.9470 C   0  0  0  0  0  0  0  0  0  0  0  0
   36.1590   29.4920   32.6020 N   0  0  0  0  0  0  0  0  0  0  0  0
   36.7740   28.3550   32.1900 C   0  0  0  0  0  0  0  0  0  0  0  0
   36.9090   27.5290   33.2730 N   0  0  0  0  0  0  0  0  0  0  0  0
   36.3830   28.1560   34.3330 N   0  0  0  0  0  0  0  0  0  0  0  0
   37.0940   28.1640   31.1530 H   0  0  0  0  0  0  0  0  0  0  0  0
   37.5010   26.2430   33.2670 C   0  0  0  0  0  0  0  0  0  0  0  0
   38.5980   26.1580   34.0470 N   0  0  0  0  0  0  0  0  0  0  0  0
   39.2830   24.9830   34.1470 C   0  0  0  0  0  3  0  0  0  0  0  0
   38.8640   23.8840   33.4620 N   0  0  0  0  0  0  0  0  0  0  0  0
   37.7690   23.9430   32.6740 C   0  0  0  0  0  0  0  0  0  0  0  0
   37.3030   22.8490   31.9540 C   0  0  0  0  0  3  0  0  0  0  0  0
   36.1830   22.9670   31.1680 C   0  0  0  0  0  0  0  0  0  0  0  0
   35.8480   22.0860   30.6190 H   0  0  0  0  0  0  0  0  0  0  0  0
   35.5230   24.1780   31.0980 C   0  0  0  0  0  0  0  0  0  0  0  0
   34.6360   24.2300   30.4620 H   0  0  0  0  0  0  0  0  0  0  0  0
   35.9510   25.3030   31.8010 C   0  0  0  0  0  3  0  0  0  0  0  0
   37.0690   25.1260   32.5640 C   0  0  0  0  0  0  0  0  0  0  0  0
   31.7930   30.9800   36.0430 C   0  0  0  0  0  0  0  0  0  0  0  0
   31.0360   32.1150   36.5960 C   0  0  0  0  0  0  0  0  0  0  0  0
   30.9350   31.8010   35.1260 C   0  0  0  0  0  0  0  0  0  0  0  0
   30.0990   31.8850   37.1780 H   0  0  0  0  0  0  0  0  0  0  0  0
   31.5470   33.0350   36.9050 H   0  0  0  0  0  0  0  0  0  0  0  0
   30.0040   31.3210   34.7560 H   0  0  0  0  0  0  0  0  0  0  0  0
   31.4270   32.5130   34.4500 H   0  0  0  0  0  0  0  0  0  0  0  0
   31.1440   27.7270   37.6860 C   0  0  0  0  0  0  0  0  0  0  0  0
   30.6250   26.9530   36.6430 C   0  0  0  0  0  0  0  0  0  0  0  0
   30.5000   27.5560   35.3770 C   0  0  0  0  0  0  0  0  0  0  0  0
   30.8850   28.8460   35.2240 N   0  0  0  0  0  0  0  0  0  0  0  0
   31.3850   29.5660   36.2620 C   0  0  0  0  0  0  0  0  0  0  0  0
   31.5110   29.0140   37.4730 N   0  0  0  0  0  0  0  0  0  0  0  0
   31.2510   27.2900   38.6710 H   0  0  0  0  0  0  0  0  0  0  0  0
   30.3310   25.9310   36.8100 H   0  0  0  0  0  0  0  0  0  0  0  0
   30.0990   26.9830   34.5400 H   0  0  0  0  0  0  0  0  0  0  0  0
  1 28  1  0  0  0  0
  1  2  1  0  0  0  0
  2  7  1  0  0  0  0
  3  2  2  0  0  0  0
  3  8  1  0  0  0  0
  4  3  1  0  0  0  0
  5  6  1  0  0  0  0
  5  4  2  0  0  0  0
  6  1  2  0  0  0  0
  9  4  1  0  0  0  0
 10 14  2  0  0  0  0
 10  5  1  0  0  0  0
 11 10  1  0  0  0  0
 12 11  2  0  0  0  0
 12 13  1  0  0  0  0
 13 14  1  0  0  0  0
 15 12  1  0  0  0  0
 16 13  1  0  0  0  0
 16 17  1  0  0  0  0
 17 18  2  0  0  0  0
 19 18  1  0  0  0  0
 20 19  2  0  0  0  0
 21 20  1  0  0  0  0
 22 21  2  0  0  0  0
 23 22  1  0  0  0  0
 24 22  1  0  0  0  0
 24 26  2  0  0  0  0
 25 24  1  0  0  0  0
 26 27  1  0  0  0  0
 27 20  1  0  0  0  0
 27 16  2  0  0  0  0
 28 39  1  0  0  0  0
 28 29  1  0  0  0  0
 29 32  1  0  0  0  0
 29 31  1  0  0  0  0
 30 28  1  0  0  0  0
 30 29  1  0  0  0  0
 33 30  1  0  0  0  0
 34 30  1  0  0  0  0
 35 41  1  0  0  0  0
 36 42  1  0  0  0  0
 36 35  2  0  0  0  0
 37 36  1  0  0  0  0
 38 37  2  0  0  0  0
 38 39  1  0  0  0  0
 39 40  2  0  0  0  0
 40 35  1  0  0  0  0
 43 37  1  0  0  0  0
M  END
>  <minimizedAffinity>
-6.91018248

$$$$

 OpenBabel03272505493D

 43 48  0  0  0  0  0  0  0  0999 V2000
   35.6740   29.7810   33.0830 C   0  0  0  0  0  0  0  0  0  0  0  0
   35.8910   30.3820   31.8900 C   0  0  0  0  0  0  0  0  0  0  0  0
   36.6880   29.7570   30.9310 C   0  0  0  0  0  0  0  0  0  0  0  0
   37.2430   28.5160   31.2390 C   0  0  0  0  0  0  0  0  0  0  0  0
   37.0060   27.9070   32.4840 C   0  0  0  0  0  0  0  0  0  0  0  0
   36.2230   28.5830   33.3510 N   0  0  0  0  0  0  0  0  0  0  0  0
   35.4710   31.3390   31.6340 H   0  0  0  0  0  0  0  0  0  0  0  0
   36.8630   30.2300   29.9800 H   0  0  0  0  0  0  0  0  0  0  0  0
   37.8680   27.9880   30.5340 H   0  0  0  0  0  0  0  0  0  0  0  0
   37.5680   26.6150   32.8420 C   0  0  0  0  0  0  0  0  0  0  0  0
   37.0260   25.3570   32.7410 N   0  0  0  0  0  0  0  0  0  0  0  0
   37.9400   24.4690   33.2040 C   0  0  0  0  0  0  0  0  0  0  0  0
   39.0510   25.1670   33.5930 N   0  0  0  0  0  0  0  0  0  0  0  0
   38.8160   26.4660   33.3700 N   0  0  0  0  0  0  0  0  0  0  0  0
   37.7810   23.3800   33.2450 H   0  0  0  0  0  0  0  0  0  0  0  0
   40.2340   24.6090   34.1350 C   0  0  0  0  0  0  0  0  0  0  0  0
   41.3240   24.8250   33.3700 N   0  0  0  0  0  0  0  0  0  0  0  0
   42.5430   24.3500   33.7560 C   0  0  0  0  0  3  0  0  0  0  0  0
   42.6700   23.6530   34.9180 N   0  0  0  0  0  0  0  0  0  0  0  0
   41.5950   23.4220   35.7020 C   0  0  0  0  0  0  0  0  0  0  0  0
   41.6750   22.7160   36.8960 C   0  0  0  0  0  3  0  0  0  0  0  0
   40.5480   22.5120   37.6530 C   0  0  0  0  0  0  0  0  0  0  0  0
   40.6510   21.9540   38.5850 H   0  0  0  0  0  0  0  0  0  0  0  0
   39.3350   23.0120   37.2220 C   0  0  0  0  0  0  0  0  0  0  0  0
   38.4630   22.8290   37.8530 H   0  0  0  0  0  0  0  0  0  0  0  0
   39.2040   23.7270   36.0320 C   0  0  0  0  0  3  0  0  0  0  0  0
   40.3580   23.8980   35.3220 C   0  0  0  0  0  0  0  0  0  0  0  0
   34.8120   30.4420   34.1360 C   0  0  0  0  0  0  0  0  0  0  0  0
   35.4720   31.1030   35.2740 C   0  0  0  0  0  0  0  0  0  0  0  0
   34.8230   31.9410   34.2020 C   0  0  0  0  0  0  0  0  0  0  0  0
   34.9250   31.1180   36.2590 H   0  0  0  0  0  0  0  0  0  0  0  0
   36.5650   31.1130   35.3620 H   0  0  0  0  0  0  0  0  0  0  0  0
   33.8570   32.4340   34.4370 H   0  0  0  0  0  0  0  0  0  0  0  0
   35.5110   32.4870   33.5420 H   0  0  0  0  0  0  0  0  0  0  0  0
   31.7690   28.9200   35.5950 C   0  0  0  0  0  0  0  0  0  0  0  0
   31.0450   28.5330   34.4620 C   0  0  0  0  0  0  0  0  0  0  0  0
   31.6090   28.7980   33.1990 C   0  0  0  0  0  0  0  0  0  0  0  0
   32.8160   29.4100   33.1350 N   0  0  0  0  0  0  0  0  0  0  0  0
   33.4900   29.7720   34.2590 C   0  0  0  0  0  0  0  0  0  0  0  0
   32.9730   29.5300   35.4680 N   0  0  0  0  0  0  0  0  0  0  0  0
   31.3600   28.7300   36.5780 H   0  0  0  0  0  0  0  0  0  0  0  0
   30.0880   28.0490   34.5600 H   0  0  0  0  0  0  0  0  0  0  0  0
   31.0730   28.5110   32.2950 H   0  0  0  0  0  0  0  0  0  0  0  0
  1  6  1  0  0  0  0
  1 28  1  0  0  0  0
  2  1  2  0  0  0  0
  3  4  2  0  0  0  0
  3  2  1  0  0  0  0
  4  5  1  0  0  0  0
  5 10  1  0  0  0  0
  5  6  2  0  0  0  0
  7  2  1  0  0  0  0
  8  3  1  0  0  0  0
  9  4  1  0  0  0  0
 10 14  2  0  0  0  0
 11 10  1  0  0  0  0
 11 12  2  0  0  0  0
 12 15  1  0  0  0  0
 12 13  1  0  0  0  0
 13 16  1  0  0  0  0
 14 13  1  0  0  0  0
 16 27  1  0  0  0  0
 17 18  1  0  0  0  0
 17 16  2  0  0  0  0
 18 19  2  0  0  0  0
 19 20  1  0  0  0  0
 20 21  1  0  0  0  0
 21 22  2  0  0  0  0
 22 23  1  0  0  0  0
 24 22  1  0  0  0  0
 24 25  1  0  0  0  0
 26 24  2  0  0  0  0
 27 20  2  0  0  0  0
 27 26  1  0  0  0  0
 28 30  1  0  0  0  0
 28 39  1  0  0  0  0
 28 29  1  0  0  0  0
 29 32  1  0  0  0  0
 29 31  1  0  0  0  0
 30 33  1  0  0  0  0
 30 29  1  0  0  0  0
 34 30  1  0  0  0  0
 35 41  1  0  0  0  0
 36 42  1  0  0  0  0
 36 35  2  0  0  0  0
 37 36  1  0  0  0  0
 38 37  2  0  0  0  0
 38 39  1  0  0  0  0
 39 40  2  0  0  0  0
 40 35  1  0  0  0  0
 43 37  1  0  0  0  0
M  END
>  <minimizedAffinity>
-6.74239302

$$$$

 OpenBabel03272505493D

 43 48  0  0  0  0  0  0  0  0999 V2000
   35.7290   30.3140   32.9150 C   0  0  0  0  0  0  0  0  0  0  0  0
   35.9930   31.2390   31.9620 C   0  0  0  0  0  0  0  0  0  0  0  0
   36.6930   30.8720   30.8130 C   0  0  0  0  0  0  0  0  0  0  0  0
   37.1040   29.5460   30.6820 C   0  0  0  0  0  0  0  0  0  0  0  0
   36.8200   28.6000   31.6820 C   0  0  0  0  0  0  0  0  0  0  0  0
   36.1380   29.0420   32.7600 N   0  0  0  0  0  0  0  0  0  0  0  0
   35.6850   32.2660   32.0450 H   0  0  0  0  0  0  0  0  0  0  0  0
   36.9060   31.6040   30.0520 H   0  0  0  0  0  0  0  0  0  0  0  0
   37.6490   29.2090   29.8120 H   0  0  0  0  0  0  0  0  0  0  0  0
   37.2320   27.2100   31.5810 C   0  0  0  0  0  0  0  0  0  0  0  0
   37.8850   26.5520   30.5680 N   0  0  0  0  0  0  0  0  0  0  0  0
   38.0450   25.2590   30.9430 C   0  0  0  0  0  0  0  0  0  0  0  0
   37.4950   25.1060   32.1870 N   0  0  0  0  0  0  0  0  0  0  0  0
   37.0050   26.2930   32.5650 N   0  0  0  0  0  0  0  0  0  0  0  0
   38.5380   24.4910   30.3260 H   0  0  0  0  0  0  0  0  0  0  0  0
   37.4540   23.9040   32.9350 C   0  0  0  0  0  0  0  0  0  0  0  0
   38.1320   23.9780   34.0990 N   0  0  0  0  0  0  0  0  0  0  0  0
   38.1880   22.9010   34.9330 C   0  0  0  0  0  3  0  0  0  0  0  0
   37.5590   21.7410   34.5990 N   0  0  0  0  0  0  0  0  0  0  0  0
   36.8740   21.6410   33.4400 C   0  0  0  0  0  0  0  0  0  0  0  0
   36.2160   20.4790   33.0550 C   0  0  0  0  0  3  0  0  0  0  0  0
   35.5350   20.4340   31.8630 C   0  0  0  0  0  0  0  0  0  0  0  0
   35.0300   19.5040   31.5960 H   0  0  0  0  0  0  0  0  0  0  0  0
   35.5060   21.5500   31.0510 C   0  0  0  0  0  0  0  0  0  0  0  0
   34.9530   21.4740   30.1120 H   0  0  0  0  0  0  0  0  0  0  0  0
   36.1500   22.7380   31.3930 C   0  0  0  0  0  3  0  0  0  0  0  0
   36.8110   22.7230   32.5880 C   0  0  0  0  0  0  0  0  0  0  0  0
   34.9710   30.6900   34.1680 C   0  0  0  0  0  0  0  0  0  0  0  0
   35.7350   31.0050   35.3860 C   0  0  0  0  0  0  0  0  0  0  0  0
   35.0540   32.1160   34.6280 C   0  0  0  0  0  0  0  0  0  0  0  0
   35.2570   30.7700   36.3790 H   0  0  0  0  0  0  0  0  0  0  0  0
   36.8310   30.9640   35.3890 H   0  0  0  0  0  0  0  0  0  0  0  0
   34.1280   32.5520   35.0590 H   0  0  0  0  0  0  0  0  0  0  0  0
   35.7190   32.8010   34.0850 H   0  0  0  0  0  0  0  0  0  0  0  0
   31.6770   29.3660   33.1210 C   0  0  0  0  0  0  0  0  0  0  0  0
   31.1590   28.8480   34.3130 C   0  0  0  0  0  0  0  0  0  0  0  0
   31.9490   28.9570   35.4740 C   0  0  0  0  0  0  0  0  0  0  0  0
   33.1630   29.5530   35.3880 N   0  0  0  0  0  0  0  0  0  0  0  0
   33.6310   30.0450   34.2110 C   0  0  0  0  0  0  0  0  0  0  0  0
   32.8990   29.9510   33.0960 N   0  0  0  0  0  0  0  0  0  0  0  0
   31.0930   29.2960   32.2120 H   0  0  0  0  0  0  0  0  0  0  0  0
   30.1890   28.3820   34.3350 H   0  0  0  0  0  0  0  0  0  0  0  0
   31.5780   28.5650   36.4210 H   0  0  0  0  0  0  0  0  0  0  0  0
  1 28  1  0  0  0  0
  2  7  1  0  0  0  0
  2  1  2  0  0  0  0
  3  2  1  0  0  0  0
  4  3  2  0  0  0  0
  4  5  1  0  0  0  0
  5  6  2  0  0  0  0
  6  1  1  0  0  0  0
  8  3  1  0  0  0  0
  9  4  1  0  0  0  0
 10  5  1  0  0  0  0
 10 14  2  0  0  0  0
 11 12  2  0  0  0  0
 11 10  1  0  0  0  0
 12 13  1  0  0  0  0
 13 14  1  0  0  0  0
 13 16  1  0  0  0  0
 15 12  1  0  0  0  0
 16 17  1  0  0  0  0
 17 18  2  0  0  0  0
 19 18  1  0  0  0  0
 20 19  2  0  0  0  0
 21 20  1  0  0  0  0
 22 21  2  0  0  0  0
 23 22  1  0  0  0  0
 24 26  2  0  0  0  0
 24 22  1  0  0  0  0
 25 24  1  0  0  0  0
 26 27  1  0  0  0  0
 27 16  2  0  0  0  0
 27 20  1  0  0  0  0
 28 39  1  0  0  0  0
 28 30  1  0  0  0  0
 28 29  1  0  0  0  0
 29 32  1  0  0  0  0
 29 31  1  0  0  0  0
 30 33  1  0  0  0  0
 30 29  1  0  0  0  0
 34 30  1  0  0  0  0
 35 36  1  0  0  0  0
 36 42  1  0  0  0  0
 36 37  2  0  0  0  0
 37 43  1  0  0  0  0
 38 37  1  0  0  0  0
 39 38  2  0  0  0  0
 40 35  2  0  0  0  0
 40 39  1  0  0  0  0
 41 35  1  0  0  0  0
M  END
>  <minimizedAffinity>
-6.73579931

$$$$

 OpenBabel03272505493D

 43 48  0  0  0  0  0  0  0  0999 V2000
   39.0760   25.9010   33.0370 C   0  0  0  0  0  0  0  0  0  0  0  0
   39.1710   25.3650   31.7970 C   0  0  0  0  0  0  0  0  0  0  0  0
   38.3900   25.8720   30.7590 C   0  0  0  0  0  0  0  0  0  0  0  0
   37.5240   26.9280   31.0370 C   0  0  0  0  0  0  0  0  0  0  0  0
   37.4380   27.4710   32.3310 C   0  0  0  0  0  0  0  0  0  0  0  0
   38.2300   26.9200   33.2740 N   0  0  0  0  0  0  0  0  0  0  0  0
   39.8340   24.5500   31.5640 H   0  0  0  0  0  0  0  0  0  0  0  0
   38.4630   25.4500   29.7710 H   0  0  0  0  0  0  0  0  0  0  0  0
   36.8970   27.3580   30.2690 H   0  0  0  0  0  0  0  0  0  0  0  0
   36.5470   28.5720   32.6580 C   0  0  0  0  0  0  0  0  0  0  0  0
   36.3040   29.7440   31.9840 N   0  0  0  0  0  0  0  0  0  0  0  0
   35.3890   30.4510   32.6910 C   0  0  0  0  0  0  0  0  0  0  0  0
   35.0580   29.7270   33.8040 N   0  0  0  0  0  0  0  0  0  0  0  0
   35.7650   28.5890   33.7750 N   0  0  0  0  0  0  0  0  0  0  0  0
   35.0010   31.4380   32.3910 H   0  0  0  0  0  0  0  0  0  0  0  0
   34.1340   30.1150   34.8040 C   0  0  0  0  0  0  0  0  0  0  0  0
   33.0760   29.2830   34.9030 N   0  0  0  0  0  0  0  0  0  0  0  0
   32.0960   29.5210   35.8210 C   0  0  0  0  0  3  0  0  0  0  0  0
   32.1760   30.6010   36.6450 N   0  0  0  0  0  0  0  0  0  0  0  0
   33.2240   31.4500   36.5660 C   0  0  0  0  0  0  0  0  0  0  0  0
   33.3500   32.5650   37.3850 C   0  0  0  0  0  3  0  0  0  0  0  0
   34.4380   33.3930   37.2590 C   0  0  0  0  0  0  0  0  0  0  0  0
   34.5010   34.2590   37.9210 H   0  0  0  0  0  0  0  0  0  0  0  0
   35.4050   33.1120   36.3150 C   0  0  0  0  0  0  0  0  0  0  0  0
   36.2560   33.7950   36.2480 H   0  0  0  0  0  0  0  0  0  0  0  0
   35.3240   32.0050   35.4710 C   0  0  0  0  0  3  0  0  0  0  0  0
   34.2210   31.2190   35.6410 C   0  0  0  0  0  0  0  0  0  0  0  0
   39.9140   25.3670   34.1770 C   0  0  0  0  0  0  0  0  0  0  0  0
   41.3450   25.1160   33.9430 C   0  0  0  0  0  0  0  0  0  0  0  0
   40.9260   26.2910   34.7870 C   0  0  0  0  0  0  0  0  0  0  0  0
   41.8330   24.2840   34.5270 H   0  0  0  0  0  0  0  0  0  0  0  0
   41.7960   25.3060   32.9610 H   0  0  0  0  0  0  0  0  0  0  0  0
   41.0620   26.2200   35.8870 H   0  0  0  0  0  0  0  0  0  0  0  0
   41.0690   27.2810   34.3330 H   0  0  0  0  0  0  0  0  0  0  0  0
   37.8610   24.3550   37.0860 C   0  0  0  0  0  0  0  0  0  0  0  0
   37.6030   23.0040   36.8270 C   0  0  0  0  0  0  0  0  0  0  0  0
   38.1390   22.4470   35.6500 C   0  0  0  0  0  0  0  0  0  0  0  0
   38.8730   23.2350   34.8270 N   0  0  0  0  0  0  0  0  0  0  0  0
   39.1020   24.5440   35.1130 C   0  0  0  0  0  0  0  0  0  0  0  0
   38.6020   25.0930   36.2250 N   0  0  0  0  0  0  0  0  0  0  0  0
   37.4620   24.8100   37.9840 H   0  0  0  0  0  0  0  0  0  0  0  0
   37.0140   22.4160   37.5100 H   0  0  0  0  0  0  0  0  0  0  0  0
   37.9580   21.3990   35.4150 H   0  0  0  0  0  0  0  0  0  0  0  0
  1  6  1  0  0  0  0
  1 28  1  0  0  0  0
  2  1  2  0  0  0  0
  3  4  2  0  0  0  0
  3  2  1  0  0  0  0
  4  5  1  0  0  0  0
  5 10  1  0  0  0  0
  5  6  2  0  0  0  0
  7  2  1  0  0  0  0
  8  3  1  0  0  0  0
  9  4  1  0  0  0  0
 10 14  2  0  0  0  0
 11 10  1  0  0  0  0
 11 12  2  0  0  0  0
 12 13  1  0  0  0  0
 13 16  1  0  0  0  0
 14 13  1  0  0  0  0
 15 12  1  0  0  0  0
 16 17  2  0  0  0  0
 16 27  1  0  0  0  0
 17 18  1  0  0  0  0
 18 19  2  0  0  0  0
 20 19  1  0  0  0  0
 20 21  1  0  0  0  0
 22 21  2  0  0  0  0
 22 23  1  0  0  0  0
 24 22  1  0  0  0  0
 25 24  1  0  0  0  0
 26 27  1  0  0  0  0
 26 24  2  0  0  0  0
 27 20  2  0  0  0  0
 28 30  1  0  0  0  0
 28 39  1  0  0  0  0
 29 28  1  0  0  0  0
 29 31  1  0  0  0  0
 29 30  1  0  0  0  0
 30 33  1  0  0  0  0
 32 29  1  0  0  0  0
 34 30  1  0  0  0  0
 35 41  1  0  0  0  0
 36 35  1  0  0  0  0
 36 42  1  0  0  0  0
 37 36  2  0  0  0  0
 38 39  2  0  0  0  0
 38 37  1  0  0  0  0
 39 40  1  0  0  0  0
 40 35  2  0  0  0  0
 43 37  1  0  0  0  0
M  END
>  <minimizedAffinity>
-6.70862293

$$$$

 OpenBabel03272505493D

 43 48  0  0  0  0  0  0  0  0999 V2000
   35.9880   29.7860   31.6360 C   0  0  0  0  0  0  0  0  0  0  0  0
   36.6260   30.1800   30.5090 C   0  0  0  0  0  0  0  0  0  0  0  0
   37.5920   29.3550   29.9320 C   0  0  0  0  0  0  0  0  0  0  0  0
   37.8720   28.1350   30.5460 C   0  0  0  0  0  0  0  0  0  0  0  0
   37.2000   27.7440   31.7170 C   0  0  0  0  0  0  0  0  0  0  0  0
   36.2810   28.6030   32.2050 N   0  0  0  0  0  0  0  0  0  0  0  0
   36.4230   31.1170   30.0210 H   0  0  0  0  0  0  0  0  0  0  0  0
   38.1010   29.6630   29.0350 H   0  0  0  0  0  0  0  0  0  0  0  0
   38.6110   27.4590   30.1420 H   0  0  0  0  0  0  0  0  0  0  0  0
   37.4660   26.4810   32.3850 C   0  0  0  0  0  0  0  0  0  0  0  0
   36.7370   25.3170   32.3990 N   0  0  0  0  0  0  0  0  0  0  0  0
   37.3990   24.4170   33.1670 C   0  0  0  0  0  0  0  0  0  0  0  0
   38.5380   25.0130   33.6340 N   0  0  0  0  0  0  0  0  0  0  0  0
   38.5710   26.2630   33.1550 N   0  0  0  0  0  0  0  0  0  0  0  0
   37.0480   23.3900   33.3610 H   0  0  0  0  0  0  0  0  0  0  0  0
   39.5070   24.4110   34.4730 C   0  0  0  0  0  0  0  0  0  0  0  0
   40.7240   24.3170   33.8990 N   0  0  0  0  0  0  0  0  0  0  0  0
   41.7660   23.7590   34.5800 C   0  0  0  0  0  3  0  0  0  0  0  0
   41.5860   23.2930   35.8460 N   0  0  0  0  0  0  0  0  0  0  0  0
   40.3780   23.3750   36.4430 C   0  0  0  0  0  0  0  0  0  0  0  0
   40.1460   22.9120   37.7330 C   0  0  0  0  0  3  0  0  0  0  0  0
   38.8950   23.0220   38.2900 C   0  0  0  0  0  0  0  0  0  0  0  0
   38.7520   22.6490   39.3050 H   0  0  0  0  0  0  0  0  0  0  0  0
   37.8710   23.5940   37.5620 C   0  0  0  0  0  0  0  0  0  0  0  0
   36.8920   23.6640   38.0410 H   0  0  0  0  0  0  0  0  0  0  0  0
   38.0550   24.0730   36.2650 C   0  0  0  0  0  3  0  0  0  0  0  0
   39.3170   23.9370   35.7640 C   0  0  0  0  0  0  0  0  0  0  0  0
   34.9380   30.6650   32.2770 C   0  0  0  0  0  0  0  0  0  0  0  0
   33.8200   31.1470   31.4490 C   0  0  0  0  0  0  0  0  0  0  0  0
   33.5720   30.0780   32.4830 C   0  0  0  0  0  0  0  0  0  0  0  0
   33.3690   32.1470   31.7080 H   0  0  0  0  0  0  0  0  0  0  0  0
   33.7510   30.8800   30.3880 H   0  0  0  0  0  0  0  0  0  0  0  0
   33.0440   30.3660   33.4160 H   0  0  0  0  0  0  0  0  0  0  0  0
   33.3730   29.0710   32.0910 H   0  0  0  0  0  0  0  0  0  0  0  0
   36.6280   33.3680   34.1590 C   0  0  0  0  0  0  0  0  0  0  0  0
   36.5400   32.9240   35.4830 C   0  0  0  0  0  0  0  0  0  0  0  0
   35.8990   31.6940   35.7210 C   0  0  0  0  0  0  0  0  0  0  0  0
   35.3980   30.9990   34.6700 N   0  0  0  0  0  0  0  0  0  0  0  0
   35.5040   31.4650   33.3970 C   0  0  0  0  0  0  0  0  0  0  0  0
   36.1080   32.6310   33.1480 N   0  0  0  0  0  0  0  0  0  0  0  0
   37.1150   34.3110   33.9450 H   0  0  0  0  0  0  0  0  0  0  0  0
   36.9520   33.5090   36.2870 H   0  0  0  0  0  0  0  0  0  0  0  0
   35.8110   31.3160   36.7400 H   0  0  0  0  0  0  0  0  0  0  0  0
  1  6  1  0  0  0  0
  1 28  1  0  0  0  0
  2  1  2  0  0  0  0
  3  2  1  0  0  0  0
  3  4  2  0  0  0  0
  4  5  1  0  0  0  0
  5  6  2  0  0  0  0
  5 10  1  0  0  0  0
  7  2  1  0  0  0  0
  8  3  1  0  0  0  0
  9  4  1  0  0  0  0
 10 11  1  0  0  0  0
 10 14  2  0  0  0  0
 11 12  2  0  0  0  0
 12 15  1  0  0  0  0
 12 13  1  0  0  0  0
 13 16  1  0  0  0  0
 14 13  1  0  0  0  0
 16 27  1  0  0  0  0
 17 16  2  0  0  0  0
 17 18  1  0  0  0  0
 18 19  2  0  0  0  0
 19 20  1  0  0  0  0
 20 21  1  0  0  0  0
 21 22  2  0  0  0  0
 22 23  1  0  0  0  0
 24 25  1  0  0  0  0
 24 22  1  0  0  0  0
 26 24  2  0  0  0  0
 27 26  1  0  0  0  0
 27 20  2  0  0  0  0
 28 30  1  0  0  0  0
 28 39  1  0  0  0  0
 29 31  1  0  0  0  0
 29 28  1  0  0  0  0
 29 30  1  0  0  0  0
 30 33  1  0  0  0  0
 32 29  1  0  0  0  0
 34 30  1  0  0  0  0
 35 36  1  0  0  0  0
 36 37  2  0  0  0  0
 36 42  1  0  0  0  0
 37 43  1  0  0  0  0
 38 37  1  0  0  0  0
 39 38  2  0  0  0  0
 40 39  1  0  0  0  0
 40 35  2  0  0  0  0
 41 35  1  0  0  0  0
M  END
>  <minimizedAffinity>
-6.5952177

$$$$

 OpenBabel03272505493D

 43 48  0  0  0  0  0  0  0  0999 V2000
   38.4350   24.2750   35.1710 C   0  0  0  0  0  0  0  0  0  0  0  0
   38.5500   24.9450   36.3410 C   0  0  0  0  0  0  0  0  0  0  0  0
   38.1780   26.2880   36.4120 C   0  0  0  0  0  0  0  0  0  0  0  0
   37.6940   26.9030   35.2590 C   0  0  0  0  0  0  0  0  0  0  0  0
   37.5810   26.1900   34.0530 C   0  0  0  0  0  0  0  0  0  0  0  0
   37.9640   24.8960   34.0740 N   0  0  0  0  0  0  0  0  0  0  0  0
   38.9220   24.4880   37.2410 H   0  0  0  0  0  0  0  0  0  0  0  0
   38.2680   26.8260   37.3410 H   0  0  0  0  0  0  0  0  0  0  0  0
   37.3920   27.9400   35.2590 H   0  0  0  0  0  0  0  0  0  0  0  0
   37.0810   26.7970   32.8300 C   0  0  0  0  0  0  0  0  0  0  0  0
   36.4970   26.2180   31.7300 N   0  0  0  0  0  0  0  0  0  0  0  0
   36.2000   27.2030   30.8460 C   0  0  0  0  0  0  0  0  0  0  0  0
   36.5960   28.3950   31.3900 N   0  0  0  0  0  0  0  0  0  0  0  0
   37.1280   28.1390   32.5920 N   0  0  0  0  0  0  0  0  0  0  0  0
   35.7230   27.0340   29.8680 H   0  0  0  0  0  0  0  0  0  0  0  0
   36.4630   29.6680   30.7850 C   0  0  0  0  0  0  0  0  0  0  0  0
   35.6670   30.5070   31.4790 N   0  0  0  0  0  0  0  0  0  0  0  0
   35.4390   31.7730   31.0260 C   0  0  0  0  0  3  0  0  0  0  0  0
   36.0130   32.2010   29.8690 N   0  0  0  0  0  0  0  0  0  0  0  0
   36.8130   31.3810   29.1550 C   0  0  0  0  0  0  0  0  0  0  0  0
   37.4210   31.7710   27.9680 C   0  0  0  0  0  3  0  0  0  0  0  0
   38.2260   30.8940   27.2830 C   0  0  0  0  0  0  0  0  0  0  0  0
   38.6860   31.2380   26.3560 H   0  0  0  0  0  0  0  0  0  0  0  0
   38.4270   29.6220   27.7810 C   0  0  0  0  0  0  0  0  0  0  0  0
   39.0750   28.9550   27.2080 H   0  0  0  0  0  0  0  0  0  0  0  0
   37.8400   29.1840   28.9670 C   0  0  0  0  0  3  0  0  0  0  0  0
   37.0510   30.0980   29.6030 C   0  0  0  0  0  0  0  0  0  0  0  0
   38.8320   22.8190   35.0710 C   0  0  0  0  0  0  0  0  0  0  0  0
   40.2210   22.4890   34.7120 C   0  0  0  0  0  0  0  0  0  0  0  0
   39.7490   22.2750   36.1280 C   0  0  0  0  0  0  0  0  0  0  0  0
   40.4020   21.5340   34.1420 H   0  0  0  0  0  0  0  0  0  0  0  0
   40.9530   23.2810   34.5150 H   0  0  0  0  0  0  0  0  0  0  0  0
   39.5570   21.2350   36.4630 H   0  0  0  0  0  0  0  0  0  0  0  0
   40.1520   22.9710   36.8760 H   0  0  0  0  0  0  0  0  0  0  0  0
   36.4850   20.8210   33.0220 C   0  0  0  0  0  0  0  0  0  0  0  0
   35.5460   20.3850   33.9640 C   0  0  0  0  0  0  0  0  0  0  0  0
   35.7270   20.7820   35.3030 C   0  0  0  0  0  0  0  0  0  0  0  0
   36.7900   21.5610   35.6190 N   0  0  0  0  0  0  0  0  0  0  0  0
   37.6810   21.9640   34.6740 C   0  0  0  0  0  0  0  0  0  0  0  0
   37.5290   21.5990   33.3970 N   0  0  0  0  0  0  0  0  0  0  0  0
   36.3720   20.5310   31.9850 H   0  0  0  0  0  0  0  0  0  0  0  0
   34.7160   19.7660   33.6680 H   0  0  0  0  0  0  0  0  0  0  0  0
   35.0170   20.4610   36.0640 H   0  0  0  0  0  0  0  0  0  0  0  0
  1  2  1  0  0  0  0
  2  3  2  0  0  0  0
  2  7  1  0  0  0  0
  3  8  1  0  0  0  0
  4  3  1  0  0  0  0
  5  6  1  0  0  0  0
  5  4  2  0  0  0  0
  6  1  2  0  0  0  0
  9  4  1  0  0  0  0
 10  5  1  0  0  0  0
 11 10  1  0  0  0  0
 12 13  1  0  0  0  0
 12 11  2  0  0  0  0
 13 14  1  0  0  0  0
 14 10  2  0  0  0  0
 15 12  1  0  0  0  0
 16 13  1  0  0  0  0
 16 17  1  0  0  0  0
 18 17  2  0  0  0  0
 19 18  1  0  0  0  0
 20 27  1  0  0  0  0
 20 19  2  0  0  0  0
 21 20  1  0  0  0  0
 22 24  1  0  0  0  0
 22 21  2  0  0  0  0
 23 22  1  0  0  0  0
 24 26  2  0  0  0  0
 25 24  1  0  0  0  0
 26 27  1  0  0  0  0
 27 16  2  0  0  0  0
 28  1  1  0  0  0  0
 28 30  1  0  0  0  0
 29 28  1  0  0  0  0
 29 30  1  0  0  0  0
 30 33  1  0  0  0  0
 30 34  1  0  0  0  0
 31 29  1  0  0  0  0
 32 29  1  0  0  0  0
 35 40  2  0  0  0  0
 35 36  1  0  0  0  0
 36 37  2  0  0  0  0
 37 38  1  0  0  0  0
 37 43  1  0  0  0  0
 39 28  1  0  0  0  0
 39 38  2  0  0  0  0
 40 39  1  0  0  0  0
 41 35  1  0  0  0  0
 42 36  1  0  0  0  0
M  END
>  <minimizedAffinity>
-6.5902195

$$$$

 OpenBabel03272505493D

 43 48  0  0  0  0  0  0  0  0999 V2000
   35.5380   29.3870   32.7520 C   0  0  0  0  0  0  0  0  0  0  0  0
   35.7270   30.0370   31.5790 C   0  0  0  0  0  0  0  0  0  0  0  0
   36.3560   29.3870   30.5180 C   0  0  0  0  0  0  0  0  0  0  0  0
   36.7760   28.0710   30.7020 C   0  0  0  0  0  0  0  0  0  0  0  0
   36.5700   27.4120   31.9270 C   0  0  0  0  0  0  0  0  0  0  0  0
   35.9540   28.1160   32.8990 N   0  0  0  0  0  0  0  0  0  0  0  0
   35.4110   31.0530   31.4180 H   0  0  0  0  0  0  0  0  0  0  0  0
   36.5090   29.9000   29.5830 H   0  0  0  0  0  0  0  0  0  0  0  0
   37.2680   27.5210   29.9130 H   0  0  0  0  0  0  0  0  0  0  0  0
   36.9930   26.0400   32.1570 C   0  0  0  0  0  0  0  0  0  0  0  0
   38.0770   25.5520   32.8450 N   0  0  0  0  0  0  0  0  0  0  0  0
   38.0420   24.1990   32.7770 C   0  0  0  0  0  0  0  0  0  0  0  0
   36.9400   23.8380   32.0490 N   0  0  0  0  0  0  0  0  0  0  0  0
   36.3110   24.9600   31.6780 N   0  0  0  0  0  0  0  0  0  0  0  0
   38.7890   23.5350   33.2400 H   0  0  0  0  0  0  0  0  0  0  0  0
   36.5420   22.5140   31.7470 C   0  0  0  0  0  0  0  0  0  0  0  0
   35.3400   22.1870   32.2660 N   0  0  0  0  0  0  0  0  0  0  0  0
   34.8170   20.9440   32.0630 C   0  0  0  0  0  3  0  0  0  0  0  0
   35.5020   20.0220   31.3340 N   0  0  0  0  0  0  0  0  0  0  0  0
   36.7070   20.3230   30.8030 C   0  0  0  0  0  0  0  0  0  0  0  0
   37.4450   19.4160   30.0530 C   0  0  0  0  0  3  0  0  0  0  0  0
   38.6650   19.7780   29.5370 C   0  0  0  0  0  0  0  0  0  0  0  0
   39.2130   19.0380   28.9520 H   0  0  0  0  0  0  0  0  0  0  0  0
   39.1550   21.0480   29.7690 C   0  0  0  0  0  0  0  0  0  0  0  0
   40.1280   21.2970   29.3410 H   0  0  0  0  0  0  0  0  0  0  0  0
   38.4520   21.9930   30.5150 C   0  0  0  0  0  3  0  0  0  0  0  0
   37.2460   21.5770   31.0020 C   0  0  0  0  0  0  0  0  0  0  0  0
   34.8570   30.0720   33.9150 C   0  0  0  0  0  0  0  0  0  0  0  0
   35.6910   30.6080   35.0040 C   0  0  0  0  0  0  0  0  0  0  0  0
   35.0260   31.5580   34.0410 C   0  0  0  0  0  0  0  0  0  0  0  0
   35.2500   30.6250   36.0410 H   0  0  0  0  0  0  0  0  0  0  0  0
   36.7830   30.5080   34.9770 H   0  0  0  0  0  0  0  0  0  0  0  0
   34.1430   32.1290   34.3960 H   0  0  0  0  0  0  0  0  0  0  0  0
   35.6960   32.0690   33.3350 H   0  0  0  0  0  0  0  0  0  0  0  0
   31.8090   28.8520   35.6240 C   0  0  0  0  0  0  0  0  0  0  0  0
   30.9690   28.5190   34.5560 C   0  0  0  0  0  0  0  0  0  0  0  0
   31.4570   28.7170   33.2500 C   0  0  0  0  0  0  0  0  0  0  0  0
   32.7060   29.2160   33.0850 N   0  0  0  0  0  0  0  0  0  0  0  0
   33.4930   29.5270   34.1490 C   0  0  0  0  0  0  0  0  0  0  0  0
   33.0500   29.3480   35.3970 N   0  0  0  0  0  0  0  0  0  0  0  0
   31.4610   28.7100   36.6390 H   0  0  0  0  0  0  0  0  0  0  0  0
   29.9820   28.1250   34.7330 H   0  0  0  0  0  0  0  0  0  0  0  0
   30.8300   28.4700   32.3930 H   0  0  0  0  0  0  0  0  0  0  0  0
  1  6  1  0  0  0  0
  1 28  1  0  0  0  0
  2  1  2  0  0  0  0
  3  4  2  0  0  0  0
  3  2  1  0  0  0  0
  4  5  1  0  0  0  0
  5 10  1  0  0  0  0
  5  6  2  0  0  0  0
  7  2  1  0  0  0  0
  8  3  1  0  0  0  0
  9  4  1  0  0  0  0
 10 11  1  0  0  0  0
 12 11  2  0  0  0  0
 12 15  1  0  0  0  0
 13 12  1  0  0  0  0
 14 13  1  0  0  0  0
 14 10  2  0  0  0  0
 16 13  1  0  0  0  0
 16 17  1  0  0  0  0
 18 17  2  0  0  0  0
 19 18  1  0  0  0  0
 20 27  1  0  0  0  0
 20 19  2  0  0  0  0
 21 20  1  0  0  0  0
 22 24  1  0  0  0  0
 22 21  2  0  0  0  0
 23 22  1  0  0  0  0
 24 26  2  0  0  0  0
 25 24  1  0  0  0  0
 26 27  1  0  0  0  0
 27 16  2  0  0  0  0
 28 30  1  0  0  0  0
 28 39  1  0  0  0  0
 28 29  1  0  0  0  0
 29 31  1  0  0  0  0
 30 33  1  0  0  0  0
 30 29  1  0  0  0  0
 32 29  1  0  0  0  0
 34 30  1  0  0  0  0
 35 41  1  0  0  0  0
 36 42  1  0  0  0  0
 36 35  2  0  0  0  0
 37 36  1  0  0  0  0
 38 37  2  0  0  0  0
 38 39  1  0  0  0  0
 39 40  2  0  0  0  0
 40 35  1  0  0  0  0
 43 37  1  0  0  0  0
M  END
>  <minimizedAffinity>
-6.50829887

$$$$

 OpenBabel03272505493D

 43 48  0  0  0  0  0  0  0  0999 V2000
   38.3690   23.1080   34.9340 C   0  0  0  0  0  0  0  0  0  0  0  0
   38.3660   21.8260   34.5000 C   0  0  0  0  0  0  0  0  0  0  0  0
   37.8010   21.5110   33.2650 C   0  0  0  0  0  0  0  0  0  0  0  0
   37.2500   22.5430   32.5070 C   0  0  0  0  0  0  0  0  0  0  0  0
   37.2620   23.8690   32.9740 C   0  0  0  0  0  0  0  0  0  0  0  0
   37.8290   24.0820   34.1800 N   0  0  0  0  0  0  0  0  0  0  0  0
   38.7870   21.0160   35.0710 H   0  0  0  0  0  0  0  0  0  0  0  0
   37.7970   20.4930   32.9150 H   0  0  0  0  0  0  0  0  0  0  0  0
   36.7990   22.3540   31.5430 H   0  0  0  0  0  0  0  0  0  0  0  0
   36.6970   24.9700   32.2130 C   0  0  0  0  0  0  0  0  0  0  0  0
   35.8420   24.9560   31.1380 N   0  0  0  0  0  0  0  0  0  0  0  0
   35.6020   26.2410   30.7760 C   0  0  0  0  0  0  0  0  0  0  0  0
   36.3020   27.0580   31.6220 N   0  0  0  0  0  0  0  0  0  0  0  0
   36.9620   26.2800   32.4890 N   0  0  0  0  0  0  0  0  0  0  0  0
   34.9490   26.5380   29.9400 H   0  0  0  0  0  0  0  0  0  0  0  0
   36.3210   28.4730   31.5820 C   0  0  0  0  0  0  0  0  0  0  0  0
   35.8250   29.0440   32.6990 N   0  0  0  0  0  0  0  0  0  0  0  0
   35.7740   30.4020   32.8150 C   0  0  0  0  0  3  0  0  0  0  0  0
   36.2250   31.1940   31.8040 N   0  0  0  0  0  0  0  0  0  0  0  0
   36.7260   30.6480   30.6750 C   0  0  0  0  0  0  0  0  0  0  0  0
   37.1970   31.4140   29.6160 C   0  0  0  0  0  3  0  0  0  0  0  0
   37.6970   30.8030   28.4920 C   0  0  0  0  0  0  0  0  0  0  0  0
   38.0580   31.4390   27.6820 H   0  0  0  0  0  0  0  0  0  0  0  0
   37.7270   29.4250   28.4200 C   0  0  0  0  0  0  0  0  0  0  0  0
   38.1330   28.9780   27.5090 H   0  0  0  0  0  0  0  0  0  0  0  0
   37.2670   28.6130   29.4550 C   0  0  0  0  0  3  0  0  0  0  0  0
   36.7820   29.2760   30.5470 C   0  0  0  0  0  0  0  0  0  0  0  0
   38.9770   23.4710   36.2710 C   0  0  0  0  0  0  0  0  0  0  0  0
   38.4830   24.6690   36.9690 C   0  0  0  0  0  0  0  0  0  0  0  0
   38.1220   23.3020   37.4920 C   0  0  0  0  0  0  0  0  0  0  0  0
   39.2080   25.2310   37.6220 H   0  0  0  0  0  0  0  0  0  0  0  0
   37.6930   25.2900   36.5280 H   0  0  0  0  0  0  0  0  0  0  0  0
   38.6320   22.9420   38.4090 H   0  0  0  0  0  0  0  0  0  0  0  0
   37.0740   23.0010   37.3570 H   0  0  0  0  0  0  0  0  0  0  0  0
   42.6380   23.2490   35.7680 C   0  0  0  0  0  0  0  0  0  0  0  0
   42.9930   22.1580   36.5690 C   0  0  0  0  0  0  0  0  0  0  0  0
   41.9690   21.5020   37.2780 C   0  0  0  0  0  0  0  0  0  0  0  0
   40.6960   21.9520   37.1580 N   0  0  0  0  0  0  0  0  0  0  0  0
   40.3900   23.0160   36.3700 C   0  0  0  0  0  0  0  0  0  0  0  0
   41.3470   23.6530   35.6870 N   0  0  0  0  0  0  0  0  0  0  0  0
   43.4040   23.7720   35.2110 H   0  0  0  0  0  0  0  0  0  0  0  0
   44.0180   21.8350   36.6350 H   0  0  0  0  0  0  0  0  0  0  0  0
   42.2080   20.6490   37.9120 H   0  0  0  0  0  0  0  0  0  0  0  0
  1 28  1  0  0  0  0
  2  1  1  0  0  0  0
  2  7  1  0  0  0  0
  3  2  2  0  0  0  0
  4  5  2  0  0  0  0
  4  3  1  0  0  0  0
  5  6  1  0  0  0  0
  6  1  2  0  0  0  0
  8  3  1  0  0  0  0
  9  4  1  0  0  0  0
 10 14  2  0  0  0  0
 10  5  1  0  0  0  0
 11 10  1  0  0  0  0
 12 11  2  0  0  0  0
 12 13  1  0  0  0  0
 13 14  1  0  0  0  0
 15 12  1  0  0  0  0
 16 13  1  0  0  0  0
 16 17  1  0  0  0  0
 17 18  2  0  0  0  0
 19 18  1  0  0  0  0
 20 19  2  0  0  0  0
 21 20  1  0  0  0  0
 22 21  2  0  0  0  0
 23 22  1  0  0  0  0
 24 22  1  0  0  0  0
 24 26  2  0  0  0  0
 25 24  1  0  0  0  0
 26 27  1  0  0  0  0
 27 20  1  0  0  0  0
 27 16  2  0  0  0  0
 28 39  1  0  0  0  0
 28 29  1  0  0  0  0
 28 30  1  0  0  0  0
 29 30  1  0  0  0  0
 29 31  1  0  0  0  0
 30 33  1  0  0  0  0
 32 29  1  0  0  0  0
 34 30  1  0  0  0  0
 35 36  1  0  0  0  0
 36 42  1  0  0  0  0
 36 37  2  0  0  0  0
 37 43  1  0  0  0  0
 38 37  1  0  0  0  0
 39 38  2  0  0  0  0
 40 35  2  0  0  0  0
 40 39  1  0  0  0  0
 41 35  1  0  0  0  0
M  END
>  <minimizedAffinity>
-6.49953175

$$$$

 OpenBabel03272505493D

 43 48  0  0  0  0  0  0  0  0999 V2000
   34.8380   29.5270   32.1870 C   0  0  0  0  0  0  0  0  0  0  0  0
   35.3560   30.3180   31.2190 C   0  0  0  0  0  0  0  0  0  0  0  0
   36.4130   29.8560   30.4350 C   0  0  0  0  0  0  0  0  0  0  0  0
   36.9080   28.5760   30.6790 C   0  0  0  0  0  0  0  0  0  0  0  0
   36.3560   27.7690   31.6900 C   0  0  0  0  0  0  0  0  0  0  0  0
   35.3370   28.2960   32.3990 N   0  0  0  0  0  0  0  0  0  0  0  0
   34.9880   31.3090   31.0160 H   0  0  0  0  0  0  0  0  0  0  0  0
   36.8290   30.4810   29.6630 H   0  0  0  0  0  0  0  0  0  0  0  0
   37.7250   28.1690   30.1020 H   0  0  0  0  0  0  0  0  0  0  0  0
   36.8450   26.4300   31.9730 C   0  0  0  0  0  0  0  0  0  0  0  0
   37.9260   26.0220   32.7160 N   0  0  0  0  0  0  0  0  0  0  0  0
   37.9690   24.6670   32.6850 C   0  0  0  0  0  0  0  0  0  0  0  0
   36.9190   24.2260   31.9260 N   0  0  0  0  0  0  0  0  0  0  0  0
   36.2440   25.3010   31.4990 N   0  0  0  0  0  0  0  0  0  0  0  0
   38.7330   24.0590   33.1950 H   0  0  0  0  0  0  0  0  0  0  0  0
   36.6070   22.8740   31.6460 C   0  0  0  0  0  0  0  0  0  0  0  0
   35.4060   22.4930   32.1270 N   0  0  0  0  0  0  0  0  0  0  0  0
   34.9610   21.2180   31.9390 C   0  0  0  0  0  3  0  0  0  0  0  0
   35.7250   20.3170   31.2630 N   0  0  0  0  0  0  0  0  0  0  0  0
   36.9310   20.6730   30.7710 C   0  0  0  0  0  0  0  0  0  0  0  0
   37.7470   19.7890   30.0740 C   0  0  0  0  0  3  0  0  0  0  0  0
   38.9650   20.2070   29.5960 C   0  0  0  0  0  0  0  0  0  0  0  0
   39.5760   19.4840   29.0530 H   0  0  0  0  0  0  0  0  0  0  0  0
   39.3740   21.5080   29.8110 C   0  0  0  0  0  0  0  0  0  0  0  0
   40.3480   21.8010   29.4140 H   0  0  0  0  0  0  0  0  0  0  0  0
   38.5910   22.4310   30.5030 C   0  0  0  0  0  3  0  0  0  0  0  0
   37.3910   21.9590   30.9550 C   0  0  0  0  0  0  0  0  0  0  0  0
   33.6910   30.0080   33.0480 C   0  0  0  0  0  0  0  0  0  0  0  0
   32.4340   30.4030   32.3920 C   0  0  0  0  0  0  0  0  0  0  0  0
   32.4920   29.1140   33.1720 C   0  0  0  0  0  0  0  0  0  0  0  0
   31.8160   31.2070   32.8830 H   0  0  0  0  0  0  0  0  0  0  0  0
   32.3290   30.3540   31.3010 H   0  0  0  0  0  0  0  0  0  0  0  0
   31.9990   29.0820   34.1660 H   0  0  0  0  0  0  0  0  0  0  0  0
   32.4650   28.1920   32.5740 H   0  0  0  0  0  0  0  0  0  0  0  0
   33.7470   31.8650   36.2490 C   0  0  0  0  0  0  0  0  0  0  0  0
   35.1030   31.8510   36.5910 C   0  0  0  0  0  0  0  0  0  0  0  0
   35.9940   31.2010   35.7160 C   0  0  0  0  0  0  0  0  0  0  0  0
   35.5050   30.6230   34.5910 N   0  0  0  0  0  0  0  0  0  0  0  0
   34.1790   30.6580   34.2940 C   0  0  0  0  0  0  0  0  0  0  0  0
   33.3150   31.2690   35.1110 N   0  0  0  0  0  0  0  0  0  0  0  0
   33.0390   32.3570   36.9040 H   0  0  0  0  0  0  0  0  0  0  0  0
   35.4480   32.3230   37.4950 H   0  0  0  0  0  0  0  0  0  0  0  0
   37.0580   31.1690   35.9490 H   0  0  0  0  0  0  0  0  0  0  0  0
  1  6  1  0  0  0  0
  1 28  1  0  0  0  0
  2  1  2  0  0  0  0
  3  4  2  0  0  0  0
  3  2  1  0  0  0  0
  4  5  1  0  0  0  0
  5 10  1  0  0  0  0
  5  6  2  0  0  0  0
  7  2  1  0  0  0  0
  8  3  1  0  0  0  0
  9  4  1  0  0  0  0
 10 11  1  0  0  0  0
 12 11  2  0  0  0  0
 12 15  1  0  0  0  0
 13 12  1  0  0  0  0
 14 13  1  0  0  0  0
 14 10  2  0  0  0  0
 16 13  1  0  0  0  0
 16 17  1  0  0  0  0
 18 17  2  0  0  0  0
 19 18  1  0  0  0  0
 20 27  1  0  0  0  0
 20 19  2  0  0  0  0
 21 20  1  0  0  0  0
 22 24  1  0  0  0  0
 22 21  2  0  0  0  0
 23 22  1  0  0  0  0
 24 26  2  0  0  0  0
 25 24  1  0  0  0  0
 26 27  1  0  0  0  0
 27 16  2  0  0  0  0
 28 30  1  0  0  0  0
 28 39  1  0  0  0  0
 29 31  1  0  0  0  0
 29 28  1  0  0  0  0
 29 30  1  0  0  0  0
 30 33  1  0  0  0  0
 32 29  1  0  0  0  0
 34 30  1  0  0  0  0
 35 36  1  0  0  0  0
 35 41  1  0  0  0  0
 36 42  1  0  0  0  0
 37 43  1  0  0  0  0
 37 36  2  0  0  0  0
 38 37  1  0  0  0  0
 39 38  2  0  0  0  0
 39 40  1  0  0  0  0
 40 35  2  0  0  0  0
M  END
>  <minimizedAffinity>
-6.46354866

$$$$
