
 OpenBabel03272509573D

 49 53  0  0  0  0  0  0  0  0999 V2000
   33.5900   27.5100   47.7140 C   0  0  0  0  0  0  0  0  0  0  0  0
   33.8450   27.3110   46.6400 H   0  0  0  0  0  0  0  0  0  0  0  0
   33.7330   26.5710   48.2520 H   0  0  0  0  0  0  0  0  0  0  0  0
   32.1440   27.8710   47.7420 C   0  0  0  0  0  0  0  0  0  0  0  0
   31.3880   27.4160   48.8040 C   0  0  0  0  0  0  0  0  0  0  0  0
   30.0530   27.7070   48.8960 C   0  0  0  0  0  0  0  0  0  0  0  0
   29.4670   28.4400   47.9480 N   0  0  0  0  0  0  0  0  0  0  0  0
   30.2200   28.8850   46.8970 C   0  0  0  0  0  0  0  0  0  0  0  0
   31.5180   28.6000   46.8140 N   0  0  0  0  0  0  0  0  0  0  0  0
   31.7990   26.8240   49.5990 H   0  0  0  0  0  0  0  0  0  0  0  0
   29.4080   27.3780   49.7100 H   0  0  0  0  0  0  0  0  0  0  0  0
   29.5050   29.7040   45.8870 C   0  0  0  0  0  0  0  0  0  0  0  0
   30.2010   30.1740   45.1600 H   0  0  0  0  0  0  0  0  0  0  0  0
   29.0130   30.5500   46.4000 H   0  0  0  0  0  0  0  0  0  0  0  0
   28.4530   28.9010   45.2200 C   0  0  0  0  0  0  0  0  0  0  0  0
   27.1960   28.9600   45.7570 N   0  0  0  0  0  0  0  0  0  0  0  0
   26.1570   28.2580   45.2920 C   0  0  0  0  0  3  0  0  0  0  0  0
   26.2720   27.4260   44.2450 N   0  0  0  0  0  0  0  0  0  0  0  0
   27.5070   27.3330   43.6740 C   0  0  0  0  0  0  0  0  0  0  0  0
   27.7090   26.5080   42.5830 C   0  0  0  0  0  3  0  0  0  0  0  0
   28.9460   26.4140   41.9880 C   0  0  0  0  0  0  0  0  0  0  0  0
   28.9940   25.7410   41.1420 H   0  0  0  0  0  0  0  0  0  0  0  0
   30.0100   27.1620   42.4960 C   0  0  0  0  0  0  0  0  0  0  0  0
   30.9580   27.0500   41.9860 H   0  0  0  0  0  0  0  0  0  0  0  0
   29.8230   27.9820   43.5780 C   0  0  0  0  0  3  0  0  0  0  0  0
   28.5760   28.0500   44.1430 C   0  0  0  0  0  0  0  0  0  0  0  0
   34.4780   28.6250   48.1720 C   0  0  0  0  0  0  0  0  0  0  0  0
   35.3450   28.8110   47.5070 H   0  0  0  0  0  0  0  0  0  0  0  0
   33.8770   29.5420   48.2100 H   0  0  0  0  0  0  0  0  0  0  0  0
   35.0050   28.3440   49.4700 O   0  0  0  0  0  0  0  0  0  0  0  0
   37.3430   30.1810   51.5360 C   0  0  0  0  0  0  0  0  0  0  0  0
   38.0730   30.8710   50.5340 C   0  0  0  0  0  0  0  0  0  0  0  0
   37.7080   30.6560   49.2160 C   0  0  0  0  0  0  0  0  0  0  0  0
   36.6710   29.7910   48.9950 N   0  0  0  0  0  0  0  0  0  0  0  0
   35.9920   29.1470   49.9490 C   0  0  0  0  0  0  0  0  0  0  0  0
   36.3450   29.3550   51.2450 N   0  0  0  0  0  0  0  0  0  0  0  0
   37.6530   30.3720   52.5590 H   0  0  0  0  0  0  0  0  0  0  0  0
   38.8760   31.5400   50.7200 H   0  0  0  0  0  0  0  0  0  0  0  0
   38.9420   33.2690   49.0220 F   0  0  0  0  0  0  0  0  0  0  0  0
   38.9100   32.4800   47.9570 C   0  0  0  0  0  0  0  0  0  0  0  0
   38.3310   31.2690   48.0720 C   0  0  0  0  0  0  0  0  0  0  0  0
   38.3550   30.5230   46.8810 C   0  0  0  0  0  0  0  0  0  0  0  0
   38.9130   30.9910   45.7240 C   0  0  0  0  0  0  0  0  0  0  0  0
   39.4900   32.2400   45.6690 C   0  0  0  0  0  0  0  0  0  0  0  0
   39.4800   32.9840   46.8110 C   0  0  0  0  0  0  0  0  0  0  0  0
   37.9160   29.5260   46.8580 H   0  0  0  0  0  0  0  0  0  0  0  0
   38.9010   30.3620   44.8270 H   0  0  0  0  0  0  0  0  0  0  0  0
   39.9250   32.5810   44.7320 H   0  0  0  0  0  0  0  0  0  0  0  0
   39.9310   33.9680   46.7770 H   0  0  0  0  0  0  0  0  0  0  0  0
  1  4  1  0  0  0  0
  1 27  1  0  0  0  0
  1  3  1  0  0  0  0
  2  1  1  0  0  0  0
  4  5  1  0  0  0  0
  5  6  2  0  0  0  0
  5 10  1  0  0  0  0
  6 11  1  0  0  0  0
  7  6  1  0  0  0  0
  8  7  2  0  0  0  0
  9  8  1  0  0  0  0
  9  4  2  0  0  0  0
 12 14  1  0  0  0  0
 12  8  1  0  0  0  0
 13 12  1  0  0  0  0
 15 16  1  0  0  0  0
 15 12  1  0  0  0  0
 17 16  2  0  0  0  0
 18 17  1  0  0  0  0
 19 26  1  0  0  0  0
 19 18  2  0  0  0  0
 20 19  1  0  0  0  0
 21 23  1  0  0  0  0
 21 20  2  0  0  0  0
 22 21  1  0  0  0  0
 23 25  2  0  0  0  0
 24 23  1  0  0  0  0
 25 26  1  0  0  0  0
 26 15  2  0  0  0  0
 27 29  1  0  0  0  0
 27 30  1  0  0  0  0
 28 27  1  0  0  0  0
 30 35  1  0  0  0  0
 31 37  1  0  0  0  0
 32 38  1  0  0  0  0
 32 31  2  0  0  0  0
 33 32  1  0  0  0  0
 34 33  2  0  0  0  0
 34 35  1  0  0  0  0
 35 36  2  0  0  0  0
 36 31  1  0  0  0  0
 40 41  1  0  0  0  0
 40 39  1  0  0  0  0
 41 33  1  0  0  0  0
 42 41  2  0  0  0  0
 43 42  1  0  0  0  0
 44 43  2  0  0  0  0
 44 45  1  0  0  0  0
 45 40  2  0  0  0  0
 46 42  1  0  0  0  0
 47 43  1  0  0  0  0
 48 44  1  0  0  0  0
 49 45  1  0  0  0  0
M  END
>  <minimizedAffinity>
-6.67852592

>  <minimizedRMSD>
0.7570225

$$$$
