
 OpenBabel03272509573D

 49 53  0  0  0  0  0  0  0  0999 V2000
   33.5960   27.5260   47.7270 C   0  0  0  0  0  0  0  0  0  0  0  0
   33.8800   27.3140   46.6620 H   0  0  0  0  0  0  0  0  0  0  0  0
   33.7260   26.5940   48.2800 H   0  0  0  0  0  0  0  0  0  0  0  0
   32.1500   27.8860   47.7110 C   0  0  0  0  0  0  0  0  0  0  0  0
   31.3570   27.4050   48.7340 C   0  0  0  0  0  0  0  0  0  0  0  0
   30.0190   27.6930   48.7850 C   0  0  0  0  0  0  0  0  0  0  0  0
   29.4670   28.4500   47.8360 N   0  0  0  0  0  0  0  0  0  0  0  0
   30.2570   28.9220   46.8240 C   0  0  0  0  0  0  0  0  0  0  0  0
   31.5580   28.6390   46.7810 N   0  0  0  0  0  0  0  0  0  0  0  0
   31.7390   26.7930   49.5270 H   0  0  0  0  0  0  0  0  0  0  0  0
   29.3450   27.3430   49.5660 H   0  0  0  0  0  0  0  0  0  0  0  0
   29.5790   29.7670   45.8100 C   0  0  0  0  0  0  0  0  0  0  0  0
   30.1590   30.6820   45.5710 H   0  0  0  0  0  0  0  0  0  0  0  0
   28.6270   30.1340   46.2340 H   0  0  0  0  0  0  0  0  0  0  0  0
   29.2610   28.9690   44.6010 C   0  0  0  0  0  0  0  0  0  0  0  0
   30.2740   28.7770   43.7020 N   0  0  0  0  0  0  0  0  0  0  0  0
   30.1260   28.1190   42.5480 C   0  0  0  0  0  3  0  0  0  0  0  0
   28.9490   27.5870   42.1770 N   0  0  0  0  0  0  0  0  0  0  0  0
   27.9080   27.7520   43.0430 C   0  0  0  0  0  0  0  0  0  0  0  0
   26.6650   27.2240   42.7430 C   0  0  0  0  0  3  0  0  0  0  0  0
   25.6090   27.3710   43.6120 C   0  0  0  0  0  0  0  0  0  0  0  0
   24.6820   26.9210   43.2810 H   0  0  0  0  0  0  0  0  0  0  0  0
   25.7960   28.0620   44.8110 C   0  0  0  0  0  0  0  0  0  0  0  0
   24.9310   28.1430   45.4560 H   0  0  0  0  0  0  0  0  0  0  0  0
   27.0230   28.5910   45.1180 C   0  0  0  0  0  3  0  0  0  0  0  0
   28.0520   28.4250   44.2260 C   0  0  0  0  0  0  0  0  0  0  0  0
   34.4720   28.6480   48.1930 C   0  0  0  0  0  0  0  0  0  0  0  0
   35.3320   28.8550   47.5260 H   0  0  0  0  0  0  0  0  0  0  0  0
   33.8580   29.5550   48.2480 H   0  0  0  0  0  0  0  0  0  0  0  0
   35.0110   28.3580   49.4850 O   0  0  0  0  0  0  0  0  0  0  0  0
   37.3600   30.1880   51.5440 C   0  0  0  0  0  0  0  0  0  0  0  0
   38.0880   30.8770   50.5400 C   0  0  0  0  0  0  0  0  0  0  0  0
   37.7180   30.6640   49.2230 C   0  0  0  0  0  0  0  0  0  0  0  0
   36.6780   29.8010   49.0050 N   0  0  0  0  0  0  0  0  0  0  0  0
   36.0020   29.1580   49.9610 C   0  0  0  0  0  0  0  0  0  0  0  0
   36.3600   29.3640   51.2560 N   0  0  0  0  0  0  0  0  0  0  0  0
   37.6740   30.3770   52.5660 H   0  0  0  0  0  0  0  0  0  0  0  0
   38.8930   31.5440   50.7240 H   0  0  0  0  0  0  0  0  0  0  0  0
   38.9470   33.2790   49.0240 F   0  0  0  0  0  0  0  0  0  0  0  0
   38.9140   32.4890   47.9600 C   0  0  0  0  0  0  0  0  0  0  0  0
   38.3380   31.2760   48.0770 C   0  0  0  0  0  0  0  0  0  0  0  0
   38.3620   30.5290   46.8870 C   0  0  0  0  0  0  0  0  0  0  0  0
   38.9180   30.9970   45.7290 C   0  0  0  0  0  0  0  0  0  0  0  0
   39.4920   32.2460   45.6710 C   0  0  0  0  0  0  0  0  0  0  0  0
   39.4820   32.9920   46.8130 C   0  0  0  0  0  0  0  0  0  0  0  0
   37.9240   29.5320   46.8660 H   0  0  0  0  0  0  0  0  0  0  0  0
   38.9050   30.3670   44.8330 H   0  0  0  0  0  0  0  0  0  0  0  0
   39.9250   32.5870   44.7330 H   0  0  0  0  0  0  0  0  0  0  0  0
   39.9320   33.9770   46.7770 H   0  0  0  0  0  0  0  0  0  0  0  0
  1 27  1  0  0  0  0
  1  3  1  0  0  0  0
  2  1  1  0  0  0  0
  4  1  1  0  0  0  0
  4  5  1  0  0  0  0
  5  6  2  0  0  0  0
  5 10  1  0  0  0  0
  6 11  1  0  0  0  0
  7  6  1  0  0  0  0
  8  7  2  0  0  0  0
  9  8  1  0  0  0  0
  9  4  2  0  0  0  0
 12 14  1  0  0  0  0
 12  8  1  0  0  0  0
 13 12  1  0  0  0  0
 15 12  1  0  0  0  0
 16 15  2  0  0  0  0
 17 16  1  0  0  0  0
 18 17  2  0  0  0  0
 18 19  1  0  0  0  0
 19 26  1  0  0  0  0
 20 19  2  0  0  0  0
 20 21  1  0  0  0  0
 21 23  2  0  0  0  0
 22 21  1  0  0  0  0
 23 25  1  0  0  0  0
 23 24  1  0  0  0  0
 26 15  1  0  0  0  0
 26 25  2  0  0  0  0
 27 29  1  0  0  0  0
 27 30  1  0  0  0  0
 28 27  1  0  0  0  0
 30 35  1  0  0  0  0
 31 37  1  0  0  0  0
 32 38  1  0  0  0  0
 32 31  2  0  0  0  0
 33 32  1  0  0  0  0
 34 33  2  0  0  0  0
 34 35  1  0  0  0  0
 35 36  2  0  0  0  0
 36 31  1  0  0  0  0
 40 41  1  0  0  0  0
 40 39  1  0  0  0  0
 41 33  1  0  0  0  0
 42 41  2  0  0  0  0
 43 42  1  0  0  0  0
 44 43  2  0  0  0  0
 44 45  1  0  0  0  0
 45 40  2  0  0  0  0
 46 42  1  0  0  0  0
 47 43  1  0  0  0  0
 48 44  1  0  0  0  0
 49 45  1  0  0  0  0
M  END
>  <minimizedAffinity>
-6.76022148

>  <minimizedRMSD>
0.749431968

$$$$
