
 OpenBabel03272504413D

 48 51  0  0  0  0  0  0  0  0999 V2000
   34.6470   29.4350   48.8800 C   0  0  0  0  0  0  0  0  0  0  0  0
   35.5160   29.5190   49.5710 H   0  0  0  0  0  0  0  0  0  0  0  0
   33.9580   30.2520   49.2490 H   0  0  0  0  0  0  0  0  0  0  0  0
   37.4140   30.5150   48.6640 Cl  0  0  0  0  0  0  0  0  0  0  0  0
   36.3210   30.3150   47.2920 C   0  0  0  0  0  0  0  0  0  0  0  0
   36.7440   30.6680   46.0590 C   0  0  0  0  0  0  0  0  0  0  0  0
   35.9000   30.5190   44.9780 C   0  0  0  0  0  0  0  0  0  0  0  0
   34.6240   30.0040   45.1850 C   0  0  0  0  0  0  0  0  0  0  0  0
   34.2590   29.6600   46.5020 C   0  0  0  0  0  0  0  0  0  0  0  0
   35.0730   29.8010   47.5630 C   0  0  0  0  0  0  0  0  0  0  0  0
   36.2640   30.8110   43.9850 H   0  0  0  0  0  0  0  0  0  0  0  0
   34.0530   29.9290   44.2850 H   0  0  0  0  0  0  0  0  0  0  0  0
   33.2920   29.3070   46.4440 H   0  0  0  0  0  0  0  0  0  0  0  0
   39.7450   32.8010   46.2460 C   0  0  0  0  0  0  0  0  0  0  0  0
   40.6210   32.1060   45.3410 C   0  0  0  0  0  0  0  0  0  0  0  0
   40.1380   30.9480   44.7170 C   0  0  0  0  0  0  0  0  0  0  0  0
   38.8760   30.5310   44.9890 N   0  0  0  0  0  0  0  0  0  0  0  0
   38.0760   31.2080   45.8460 C   0  0  0  0  0  0  0  0  0  0  0  0
   38.5120   32.3210   46.4590 N   0  0  0  0  0  0  0  0  0  0  0  0
   40.0870   33.6840   46.7340 H   0  0  0  0  0  0  0  0  0  0  0  0
   41.5800   32.5500   45.2270 H   0  0  0  0  0  0  0  0  0  0  0  0
   41.0220   30.3020   43.8450 N   0  0  0  0  0  0  0  0  0  0  0  0
   41.5290   29.3980   44.0370 H   0  0  0  0  0  0  0  0  0  0  0  0
   41.1380   30.8200   42.9500 H   0  0  0  0  0  0  0  0  0  0  0  0
   34.0150   28.1330   49.1130 C   0  0  0  0  0  0  0  0  0  0  0  0
   34.4650   27.5620   49.9790 H   0  0  0  0  0  0  0  0  0  0  0  0
   34.2150   27.4820   48.2320 H   0  0  0  0  0  0  0  0  0  0  0  0
   32.6650   28.2610   49.3070 O   0  0  0  0  0  0  0  0  0  0  0  0
   32.7390   26.3060   47.5610 O   0  0  0  0  0  0  0  0  0  0  0  0
   31.8240   27.2820   48.2600 P   0  0  2  0  0  0  0  0  0  0  0  0
   31.0960   28.3220   47.0800 O   0  0  0  0  0  0  0  0  0  0  0  0
   30.2790   27.7190   46.1330 C   0  0  0  0  0  0  0  0  0  0  0  0
   30.5120   26.5610   45.4910 N   0  0  0  0  0  0  0  0  0  0  0  0
   29.6250   26.1180   44.6060 C   0  0  0  0  0  3  0  0  0  0  0  0
   28.4900   26.7850   44.3200 N   0  0  0  0  0  0  0  0  0  0  0  0
   28.2000   27.9550   44.9320 C   0  0  0  0  0  0  0  0  0  0  0  0
   27.0300   28.6170   44.6200 C   0  0  0  0  0  3  0  0  0  0  0  0
   26.7690   29.8040   45.2630 C   0  0  0  0  0  0  0  0  0  0  0  0
   25.8860   30.4270   45.1110 H   0  0  0  0  0  0  0  0  0  0  0  0
   27.6450   30.3260   46.1940 C   0  0  0  0  0  0  0  0  0  0  0  0
   27.4800   31.2470   46.7170 H   0  0  0  0  0  0  0  0  0  0  0  0
   28.8050   29.6360   46.4810 C   0  0  0  0  0  3  0  0  0  0  0  0
   29.1160   28.4430   45.8680 C   0  0  0  0  0  0  0  0  0  0  0  0
   30.5720   26.4670   48.9690 O   0  0  0  0  0  0  0  0  0  0  0  0
   29.8310   27.3010   49.7720 C   0  0  0  0  0  0  0  0  0  0  0  0
   29.3640   26.6600   50.9190 F   0  0  0  0  0  0  0  0  0  0  0  0
   30.5800   28.3750   50.2240 F   0  0  0  0  0  0  0  0  0  0  0  0
   28.7360   27.7740   49.0650 F   0  0  0  0  0  0  0  0  0  0  0  0
  1 25  1  0  0  0  0
  1  3  1  0  0  0  0
  1  2  1  0  0  0  0
  5 10  1  0  0  0  0
  5  4  1  0  0  0  0
  6  5  2  0  0  0  0
  7  8  2  0  0  0  0
  7  6  1  0  0  0  0
  8  9  1  0  0  0  0
  9 10  2  0  0  0  0
 10  1  1  0  0  0  0
 11  7  1  0  0  0  0
 12  8  1  0  0  0  0
 13  9  1  0  0  0  0
 14 19  1  0  0  0  0
 14 20  1  0  0  0  0
 15 14  2  0  0  0  0
 16 17  2  0  0  0  0
 16 15  1  0  0  0  0
 17 18  1  0  0  0  0
 18  6  1  0  0  0  0
 18 19  2  0  0  0  0
 21 15  1  0  0  0  0
 22 23  1  0  0  0  0
 22 16  1  0  0  0  0
 24 22  1  0  0  0  0
 25 28  1  0  0  0  0
 25 26  1  0  0  0  0
 27 25  1  0  0  0  0
 30 29  2  6  0  0  0
 30 44  1  0  0  0  0
 30 28  1  0  0  0  0
 31 30  1  0  0  0  0
 32 31  1  0  0  0  0
 33 32  2  0  0  0  0
 34 33  1  0  0  0  0
 35 34  2  0  0  0  0
 35 36  1  0  0  0  0
 36 43  1  0  0  0  0
 37 36  2  0  0  0  0
 37 38  1  0  0  0  0
 38 40  2  0  0  0  0
 39 38  1  0  0  0  0
 40 42  1  0  0  0  0
 40 41  1  0  0  0  0
 43 32  1  0  0  0  0
 43 42  2  0  0  0  0
 44 45  1  0  0  0  0
 45 47  1  0  0  0  0
 45 46  1  0  0  0  0
 48 45  1  0  0  0  0
M  END
>  <minimizedAffinity>
-6.28286457

>  <minimizedRMSD>
0.703999698

$$$$
