
 OpenBabel03272509583D

 49 53  0  0  0  0  0  0  0  0999 V2000
   33.6130   27.5120   47.7460 C   0  0  0  0  0  0  0  0  0  0  0  0
   33.9340   27.2720   46.6990 H   0  0  0  0  0  0  0  0  0  0  0  0
   33.7190   26.5950   48.3280 H   0  0  0  0  0  0  0  0  0  0  0  0
   32.1690   27.8750   47.6690 C   0  0  0  0  0  0  0  0  0  0  0  0
   31.3550   27.4980   48.7180 C   0  0  0  0  0  0  0  0  0  0  0  0
   30.0180   27.7960   48.7160 C   0  0  0  0  0  0  0  0  0  0  0  0
   29.4880   28.4590   47.6880 N   0  0  0  0  0  0  0  0  0  0  0  0
   30.2990   28.8290   46.6510 C   0  0  0  0  0  0  0  0  0  0  0  0
   31.5980   28.5370   46.6590 N   0  0  0  0  0  0  0  0  0  0  0  0
   31.7190   26.9640   49.5740 H   0  0  0  0  0  0  0  0  0  0  0  0
   29.3270   27.5260   49.5150 H   0  0  0  0  0  0  0  0  0  0  0  0
   29.6440   29.5740   45.5470 C   0  0  0  0  0  0  0  0  0  0  0  0
   30.2670   30.4180   45.1840 H   0  0  0  0  0  0  0  0  0  0  0  0
   28.7220   30.0440   45.9350 H   0  0  0  0  0  0  0  0  0  0  0  0
   29.2590   28.6480   44.4550 C   0  0  0  0  0  0  0  0  0  0  0  0
   30.2550   28.2320   43.6150 N   0  0  0  0  0  0  0  0  0  0  0  0
   30.0520   27.4350   42.5610 C   0  0  0  0  0  3  0  0  0  0  0  0
   28.8310   26.9740   42.2420 N   0  0  0  0  0  0  0  0  0  0  0  0
   27.8040   27.3610   43.0510 C   0  0  0  0  0  0  0  0  0  0  0  0
   26.5180   26.9210   42.8010 C   0  0  0  0  0  3  0  0  0  0  0  0
   25.4730   27.2920   43.6160 C   0  0  0  0  0  0  0  0  0  0  0  0
   24.5090   26.8920   43.3300 H   0  0  0  0  0  0  0  0  0  0  0  0
   25.7190   28.1250   44.7110 C   0  0  0  0  0  0  0  0  0  0  0  0
   24.8600   28.3800   45.3180 H   0  0  0  0  0  0  0  0  0  0  0  0
   26.9890   28.5680   44.9690 C   0  0  0  0  0  3  0  0  0  0  0  0
   28.0040   28.1780   44.1320 C   0  0  0  0  0  0  0  0  0  0  0  0
   34.4740   28.6440   48.2150 C   0  0  0  0  0  0  0  0  0  0  0  0
   35.3360   28.8580   47.5510 H   0  0  0  0  0  0  0  0  0  0  0  0
   33.8510   29.5450   48.2640 H   0  0  0  0  0  0  0  0  0  0  0  0
   35.0100   28.3620   49.5090 O   0  0  0  0  0  0  0  0  0  0  0  0
   37.3700   30.1920   51.5570 C   0  0  0  0  0  0  0  0  0  0  0  0
   38.0940   30.8800   50.5490 C   0  0  0  0  0  0  0  0  0  0  0  0
   37.7190   30.6660   49.2330 C   0  0  0  0  0  0  0  0  0  0  0  0
   36.6770   29.8030   49.0210 N   0  0  0  0  0  0  0  0  0  0  0  0
   36.0040   29.1620   49.9800 C   0  0  0  0  0  0  0  0  0  0  0  0
   36.3680   29.3690   51.2740 N   0  0  0  0  0  0  0  0  0  0  0  0
   37.6880   30.3820   52.5770 H   0  0  0  0  0  0  0  0  0  0  0  0
   38.9010   31.5460   50.7280 H   0  0  0  0  0  0  0  0  0  0  0  0
   38.9500   33.2790   49.0260 F   0  0  0  0  0  0  0  0  0  0  0  0
   38.9110   32.4870   47.9630 C   0  0  0  0  0  0  0  0  0  0  0  0
   38.3340   31.2760   48.0840 C   0  0  0  0  0  0  0  0  0  0  0  0
   38.3520   30.5280   46.8950 C   0  0  0  0  0  0  0  0  0  0  0  0
   38.9030   30.9940   45.7330 C   0  0  0  0  0  0  0  0  0  0  0  0
   39.4790   32.2420   45.6720 C   0  0  0  0  0  0  0  0  0  0  0  0
   39.4750   32.9890   46.8130 C   0  0  0  0  0  0  0  0  0  0  0  0
   37.9130   29.5310   46.8770 H   0  0  0  0  0  0  0  0  0  0  0  0
   38.8860   30.3630   44.8380 H   0  0  0  0  0  0  0  0  0  0  0  0
   39.9070   32.5810   44.7320 H   0  0  0  0  0  0  0  0  0  0  0  0
   39.9250   33.9730   46.7740 H   0  0  0  0  0  0  0  0  0  0  0  0
  1 27  1  0  0  0  0
  1  3  1  0  0  0  0
  2  1  1  0  0  0  0
  4  1  1  0  0  0  0
  4  5  1  0  0  0  0
  5 10  1  0  0  0  0
  6  5  2  0  0  0  0
  6 11  1  0  0  0  0
  7  6  1  0  0  0  0
  8  9  1  0  0  0  0
  8  7  2  0  0  0  0
  9  4  2  0  0  0  0
 12 14  1  0  0  0  0
 12  8  1  0  0  0  0
 13 12  1  0  0  0  0
 15 12  1  0  0  0  0
 16 15  2  0  0  0  0
 17 16  1  0  0  0  0
 18 17  2  0  0  0  0
 18 19  1  0  0  0  0
 19 26  1  0  0  0  0
 20 19  2  0  0  0  0
 20 21  1  0  0  0  0
 21 23  2  0  0  0  0
 22 21  1  0  0  0  0
 23 25  1  0  0  0  0
 23 24  1  0  0  0  0
 26 15  1  0  0  0  0
 26 25  2  0  0  0  0
 27 29  1  0  0  0  0
 27 30  1  0  0  0  0
 28 27  1  0  0  0  0
 30 35  1  0  0  0  0
 31 37  1  0  0  0  0
 32 38  1  0  0  0  0
 32 31  2  0  0  0  0
 33 32  1  0  0  0  0
 34 33  2  0  0  0  0
 34 35  1  0  0  0  0
 35 36  2  0  0  0  0
 36 31  1  0  0  0  0
 40 41  1  0  0  0  0
 40 39  1  0  0  0  0
 41 33  1  0  0  0  0
 42 41  2  0  0  0  0
 43 42  1  0  0  0  0
 44 43  2  0  0  0  0
 44 45  1  0  0  0  0
 45 40  2  0  0  0  0
 46 42  1  0  0  0  0
 47 43  1  0  0  0  0
 48 44  1  0  0  0  0
 49 45  1  0  0  0  0
M  END
>  <minimizedAffinity>
-6.73649979

>  <minimizedRMSD>
0.627916157

$$$$
