
 OpenBabel03272509473D

 28 30  0  0  0  0  0  0  0  0999 V2000
   32.4460   27.4630   48.4350 C   0  0  0  0  0  0  0  0  0  0  0  0
   32.2740   26.9870   49.4360 H   0  0  0  0  0  0  0  0  0  0  0  0
   32.7700   26.6180   47.7920 H   0  0  0  0  0  0  0  0  0  0  0  0
   31.1590   28.0430   48.0080 C   0  0  0  0  0  0  0  0  0  0  0  0
   31.0540   28.7340   46.8480 N   0  0  0  0  0  0  0  0  0  0  0  0
   29.9240   29.2570   46.3960 C   0  0  0  0  0  3  0  0  0  0  0  0
   28.7880   29.1180   47.1010 N   0  0  0  0  0  0  0  0  0  0  0  0
   28.7760   28.4540   48.2590 C   0  0  0  0  0  0  0  0  0  0  0  0
   27.5970   28.3360   48.9580 C   0  0  0  0  0  3  0  0  0  0  0  0
   27.6560   27.6450   50.1500 C   0  0  0  0  0  0  0  0  0  0  0  0
   26.7250   27.5550   50.6940 H   0  0  0  0  0  0  0  0  0  0  0  0
   28.8250   27.0870   50.6500 C   0  0  0  0  0  0  0  0  0  0  0  0
   28.7640   26.5610   51.6050 H   0  0  0  0  0  0  0  0  0  0  0  0
   29.9710   27.2470   49.8930 C   0  0  0  0  0  3  0  0  0  0  0  0
   29.9700   27.9260   48.6940 C   0  0  0  0  0  0  0  0  0  0  0  0
   33.5110   28.4860   48.6410 C   0  0  0  0  0  0  0  0  0  0  0  0
   33.0320   29.4800   48.7980 H   0  0  0  0  0  0  0  0  0  0  0  0
   34.1080   28.5940   47.7240 H   0  0  0  0  0  0  0  0  0  0  0  0
   34.3180   28.1440   49.7580 O   0  0  0  0  0  0  0  0  0  0  0  0
   36.9900   30.0130   51.3140 C   0  0  0  0  0  0  0  0  0  0  0  0
   37.7010   30.4150   50.1830 C   0  0  0  0  0  0  0  0  0  0  0  0
   37.2240   30.0200   48.9270 C   0  0  0  0  0  0  0  0  0  0  0  0
   36.0840   29.2630   48.9110 N   0  0  0  0  0  0  0  0  0  0  0  0
   35.4330   28.8990   50.0210 C   0  0  0  0  0  0  0  0  0  0  0  0
   35.9010   29.2850   51.2250 N   0  0  0  0  0  0  0  0  0  0  0  0
   37.3410   30.3080   52.3030 H   0  0  0  0  0  0  0  0  0  0  0  0
   38.5940   31.0130   50.2560 H   0  0  0  0  0  0  0  0  0  0  0  0
   37.7310   30.2990   48.0100 H   0  0  0  0  0  0  0  0  0  0  0  0
  1 16  1  0  0  0  0
  1  2  1  0  0  0  0
  3  1  1  0  0  0  0
  4  1  1  0  0  0  0
  4 15  1  0  0  0  0
  5  4  2  0  0  0  0
  6  5  1  0  0  0  0
  6  7  2  0  0  0  0
  7  8  1  0  0  0  0
  8 15  2  0  0  0  0
  8  9  1  0  0  0  0
  9 10  2  0  0  0  0
 10 12  1  0  0  0  0
 10 11  1  0  0  0  0
 12 13  1  0  0  0  0
 14 12  2  0  0  0  0
 15 14  1  0  0  0  0
 16 17  1  0  0  0  0
 16 19  1  0  0  0  0
 18 16  1  0  0  0  0
 19 24  1  0  0  0  0
 20 26  1  0  0  0  0
 21 27  1  0  0  0  0
 21 20  2  0  0  0  0
 22 21  1  0  0  0  0
 23 22  2  0  0  0  0
 23 24  1  0  0  0  0
 24 25  2  0  0  0  0
 25 20  1  0  0  0  0
 28 22  1  0  0  0  0
M  END
>  <minimizedAffinity>
-5.33574057

>  <minimizedRMSD>
3.10862398

$$$$
