
 OpenBabel03262520463D

 37 40  0  0  1  0  0  0  0  0999 V2000
   38.5530   31.8240   46.8860 C   0  0  1  0  0  0  0  0  0  0  0  0
   39.6040   32.5240   46.0400 C   0  0  0  0  0  0  0  0  0  0  0  0
   39.5630   31.0420   46.1450 C   0  0  2  0  0  0  0  0  0  0  0  0
   37.5040   31.8250   46.5380 H   0  0  0  0  0  0  0  0  0  0  0  0
   39.2040   32.9410   45.0770 H   0  0  0  0  0  0  0  0  0  0  0  0
   40.4270   33.0770   46.5070 H   0  0  0  0  0  0  0  0  0  0  0  0
   40.4170   30.5930   46.6930 H   0  0  0  0  0  0  0  0  0  0  0  0
   38.6830   32.0440   48.3680 C   0  0  0  0  0  0  0  0  0  0  0  0
   38.3270   33.0560   48.6580 H   0  0  0  0  0  0  0  0  0  0  0  0
   39.7420   31.9740   48.6610 H   0  0  0  0  0  0  0  0  0  0  0  0
   37.3710   30.0900   51.2760 C   0  0  0  0  0  0  0  0  0  0  0  0
   38.0920   31.0460   50.5030 C   0  0  0  0  0  0  0  0  0  0  0  0
   37.9180   31.0360   49.1440 C   0  0  0  0  0  0  0  0  0  0  0  0
   37.0930   30.1460   48.5980 N   0  0  0  0  0  0  0  0  0  0  0  0
   36.4180   29.2470   49.3400 C   0  0  0  0  0  0  0  0  0  0  0  0
   36.5630   29.2270   50.6770 N   0  0  0  0  0  0  0  0  0  0  0  0
   37.5770   30.1780   52.3540 H   0  0  0  0  0  0  0  0  0  0  0  0
   38.7640   31.7660   50.9830 H   0  0  0  0  0  0  0  0  0  0  0  0
   35.7340   28.5060   48.9110 H   0  0  0  0  0  0  0  0  0  0  0  0
   39.0130   30.1920   45.0260 C   0  0  0  0  0  0  0  0  0  0  0  0
   39.1640   29.1300   45.2960 H   0  0  0  0  0  0  0  0  0  0  0  0
   37.9120   30.3210   44.8900 H   0  0  0  0  0  0  0  0  0  0  0  0
   39.7230   30.4000   43.7150 C   0  0  0  0  0  0  0  0  0  0  0  0
   40.7840   30.6900   43.9580 H   0  0  0  0  0  0  0  0  0  0  0  0
   39.2490   31.1850   43.1050 H   0  0  0  0  0  0  0  0  0  0  0  0
   39.7200   29.1030   42.9890 C   0  0  0  0  0  0  0  0  0  0  0  0
   39.1120   27.9650   43.4070 N   0  0  0  0  0  0  0  0  0  0  0  0
   39.1520   26.8340   42.6980 C   0  0  0  0  0  0  0  0  0  0  0  0
   39.8210   26.8410   41.5310 N   0  0  0  0  0  0  0  0  0  0  0  0
   40.4510   27.9470   41.0560 C   0  0  0  0  0  0  0  0  0  0  0  0
   41.0890   27.7860   39.8500 C   0  0  0  0  0  0  0  0  0  0  0  0
   41.7380   28.9020   39.3440 C   0  0  0  0  0  0  0  0  0  0  0  0
   42.2500   28.8180   38.4020 H   0  0  0  0  0  0  0  0  0  0  0  0
   41.7130   30.0960   40.0640 C   0  0  0  0  0  0  0  0  0  0  0  0
   42.2160   30.9730   39.6780 H   0  0  0  0  0  0  0  0  0  0  0  0
   41.0590   30.2210   41.2760 C   0  0  0  0  0  0  0  0  0  0  0  0
   40.4030   29.1160   41.7990 C   0  0  0  0  0  0  0  0  0  0  0  0
  1  4  1  6  0  0  0
  1  8  1  0  0  0  0
  2  3  1  0  0  0  0
  2  6  1  0  0  0  0
  2  1  1  0  0  0  0
  3  7  1  1  0  0  0
  3  1  1  0  0  0  0
  5  2  1  0  0  0  0
  8  9  1  0  0  0  0
  8 10  1  0  0  0  0
  8 13  1  0  0  0  0
 11 17  1  0  0  0  0
 12 18  1  0  0  0  0
 12 11  2  0  0  0  0
 13 12  1  0  0  0  0
 14 13  2  0  0  0  0
 14 15  1  0  0  0  0
 15 16  2  0  0  0  0
 16 11  1  0  0  0  0
 19 15  1  0  0  0  0
 20 21  1  0  0  0  0
 20  3  1  0  0  0  0
 22 20  1  0  0  0  0
 23 24  1  0  0  0  0
 23 20  1  0  0  0  0
 25 23  1  0  0  0  0
 26 27  1  0  0  0  0
 26 23  1  0  0  0  0
 28 27  2  0  0  0  0
 29 28  1  0  0  0  0
 30 29  2  0  0  0  0
 30 37  1  0  0  0  0
 31 30  1  0  0  0  0
 32 31  2  0  0  0  0
 32 34  1  0  0  0  0
 33 32  1  0  0  0  0
 34 36  2  0  0  0  0
 35 34  1  0  0  0  0
 36 37  1  0  0  0  0
 37 26  2  0  0  0  0
M  END
>  <minimizedAffinity>
-5.68930292

>  <minimizedRMSD>
0.915070951

$$$$
