
 OpenBabel03272504583D

 36 39  0  0  1  0  0  0  0  0999 V2000
   37.7340   25.8030   35.0970 C   0  0  1  0  0  0  0  0  0  0  0  0
   38.5190   26.9770   34.7960 C   0  0  0  0  0  0  0  0  0  0  0  0
   37.9670   26.1350   33.6890 C   0  0  2  0  0  0  0  0  0  0  0  0
   36.6350   25.8590   35.4090 H   0  0  0  0  0  0  0  0  0  0  0  0
   38.0860   27.8000   35.3360 H   0  0  0  0  0  0  0  0  0  0  0  0
   39.6140   26.9100   34.9600 H   0  0  0  0  0  0  0  0  0  0  0  0
   38.7630   25.8210   33.0350 H   0  0  0  0  0  0  0  0  0  0  0  0
   38.3840   24.5460   35.6080 C   0  0  0  0  0  0  0  0  0  0  0  0
   38.9880   23.7280   34.6390 C   0  0  0  0  0  0  0  0  0  0  0  0
   39.5780   22.5860   35.1310 C   0  0  0  0  0  0  0  0  0  0  0  0
   39.5520   22.3170   36.4560 N   0  0  0  0  0  0  0  0  0  0  0  0
   38.9600   23.1330   37.3600 C   0  0  0  0  0  0  0  0  0  0  0  0
   38.3540   24.2870   36.9210 N   0  0  0  0  0  0  0  0  0  0  0  0
   38.9400   22.8920   38.7380 N   0  0  0  0  0  0  0  0  0  0  0  0
   39.0170   23.9270   33.5980 H   0  0  0  0  0  0  0  0  0  0  0  0
   40.0640   21.9060   34.4440 H   0  0  0  0  0  0  0  0  0  0  0  0
   39.7840   23.0720   39.3580 H   0  0  0  0  0  0  0  0  0  0  0  0
   38.0660   22.5260   39.1650 H   0  0  0  0  0  0  0  0  0  0  0  0
   36.8730   26.6790   33.0120 O   0  0  0  0  0  0  0  0  0  0  0  0
   35.1570   26.1910   31.1530 O   0  0  0  0  0  0  0  0  0  0  0  0
   36.4900   25.7620   31.6750 P   0  0  1  0  0  0  0  0  0  0  0  0
   37.6080   26.1250   30.3990 O   0  0  0  0  0  0  0  0  0  0  0  0
   37.2250   25.6480   29.6230 H   0  0  0  0  0  0  0  0  0  0  0  0
   36.5880   24.1350   32.0740 O   0  0  0  0  0  0  0  0  0  0  0  0
   37.2040   23.1250   31.3990 C   0  0  0  0  0  0  0  0  0  0  0  0
   38.3310   23.2490   30.6980 N   0  0  0  0  0  0  0  0  0  0  0  0
   38.8150   22.1540   30.0860 C   0  0  0  0  0  3  0  0  0  0  0  0
   38.2050   20.9470   30.1580 N   0  0  0  0  0  0  0  0  0  0  0  0
   37.0660   20.7700   30.8530 C   0  0  0  0  0  0  0  0  0  0  0  0
   36.4170   19.5510   30.9460 C   0  0  0  0  0  3  0  0  0  0  0  0
   35.2610   19.4130   31.6620 C   0  0  0  0  0  0  0  0  0  0  0  0
   34.7330   18.4770   31.7530 H   0  0  0  0  0  0  0  0  0  0  0  0
   34.7390   20.5040   32.2970 C   0  0  0  0  0  0  0  0  0  0  0  0
   33.8230   20.4190   32.8710 H   0  0  0  0  0  0  0  0  0  0  0  0
   35.3930   21.7140   32.1980 C   0  0  0  0  0  3  0  0  0  0  0  0
   36.5520   21.8910   31.4910 C   0  0  0  0  0  0  0  0  0  0  0  0
  1  4  1  1  0  0  0
  1  8  1  0  0  0  0
  2  6  1  0  0  0  0
  2  1  1  0  0  0  0
  2  5  1  0  0  0  0
  3  7  1  6  0  0  0
  3  2  1  0  0  0  0
  3  1  1  0  0  0  0
  8 13  1  0  0  0  0
  9 10  1  0  0  0  0
  9  8  2  0  0  0  0
 10 11  2  0  0  0  0
 11 12  1  0  0  0  0
 12 14  1  0  0  0  0
 13 12  2  0  0  0  0
 14 18  1  0  0  0  0
 14 17  1  0  0  0  0
 15  9  1  0  0  0  0
 16 10  1  0  0  0  0
 19  3  1  0  0  0  0
 21 20  2  6  0  0  0
 21 24  1  0  0  0  0
 21 19  1  0  0  0  0
 22 21  1  0  0  0  0
 23 22  1  0  0  0  0
 25 36  1  0  0  0  0
 25 24  1  0  0  0  0
 26 25  2  0  0  0  0
 27 28  2  0  0  0  0
 27 26  1  0  0  0  0
 28 29  1  0  0  0  0
 29 30  2  0  0  0  0
 29 36  1  0  0  0  0
 30 31  1  0  0  0  0
 31 32  1  0  0  0  0
 31 33  2  0  0  0  0
 33 34  1  0  0  0  0
 35 33  1  0  0  0  0
 36 35  2  0  0  0  0
M  END
>  <minimizedAffinity>
-6.13280773

$$$$

 OpenBabel03272504583D

 36 39  0  0  1  0  0  0  0  0999 V2000
   36.4950   23.1510   31.2790 C   0  0  1  0  0  0  0  0  0  0  0  0
   35.5030   24.1630   31.0000 C   0  0  0  0  0  0  0  0  0  0  0  0
   36.4370   24.3210   32.1590 C   0  0  2  0  0  0  0  0  0  0  0  0
   37.4720   23.0660   30.6890 H   0  0  0  0  0  0  0  0  0  0  0  0
   35.6110   24.4420   29.9670 H   0  0  0  0  0  0  0  0  0  0  0  0
   34.4510   23.9220   31.2510 H   0  0  0  0  0  0  0  0  0  0  0  0
   35.8750   24.4670   33.0650 H   0  0  0  0  0  0  0  0  0  0  0  0
   36.1070   21.8310   31.8870 C   0  0  0  0  0  0  0  0  0  0  0  0
   35.9210   20.7700   30.9860 C   0  0  0  0  0  0  0  0  0  0  0  0
   35.5700   19.5720   31.5660 C   0  0  0  0  0  0  0  0  0  0  0  0
   35.4290   19.4750   32.9070 N   0  0  0  0  0  0  0  0  0  0  0  0
   35.6190   20.5230   33.7440 C   0  0  0  0  0  0  0  0  0  0  0  0
   35.9700   21.7430   33.2160 N   0  0  0  0  0  0  0  0  0  0  0  0
   35.5050   20.4450   35.1360 N   0  0  0  0  0  0  0  0  0  0  0  0
   36.0290   20.8310   29.9330 H   0  0  0  0  0  0  0  0  0  0  0  0
   35.4080   18.7080   30.9350 H   0  0  0  0  0  0  0  0  0  0  0  0
   36.2640   20.0180   35.7450 H   0  0  0  0  0  0  0  0  0  0  0  0
   34.6460   20.8200   35.5850 H   0  0  0  0  0  0  0  0  0  0  0  0
   37.4580   25.2570   31.9810 O   0  0  0  0  0  0  0  0  0  0  0  0
   39.2570   26.6380   33.2050 O   0  0  0  0  0  0  0  0  0  0  0  0
   38.1640   25.6450   33.4390 P   0  0  1  0  0  0  0  0  0  0  0  0
   37.0070   26.4790   34.4250 O   0  0  0  0  0  0  0  0  0  0  0  0
   37.5460   26.7840   35.1960 H   0  0  0  0  0  0  0  0  0  0  0  0
   38.6590   24.2380   34.2060 O   0  0  0  0  0  0  0  0  0  0  0  0
   38.6910   23.9560   35.5380 C   0  0  0  0  0  0  0  0  0  0  0  0
   37.8190   24.4120   36.4380 N   0  0  0  0  0  0  0  0  0  0  0  0
   37.9860   24.0410   37.7190 C   0  0  0  0  0  3  0  0  0  0  0  0
   38.9950   23.2330   38.1210 N   0  0  0  0  0  0  0  0  0  0  0  0
   39.9010   22.7460   37.2510 C   0  0  0  0  0  0  0  0  0  0  0  0
   40.9440   21.9180   37.6290 C   0  0  0  0  0  3  0  0  0  0  0  0
   41.8430   21.4460   36.7140 C   0  0  0  0  0  0  0  0  0  0  0  0
   42.6660   20.8000   36.9770 H   0  0  0  0  0  0  0  0  0  0  0  0
   41.7060   21.8010   35.4030 C   0  0  0  0  0  0  0  0  0  0  0  0
   42.4070   21.4380   34.6600 H   0  0  0  0  0  0  0  0  0  0  0  0
   40.6630   22.6260   35.0370 C   0  0  0  0  0  3  0  0  0  0  0  0
   39.7430   23.1190   35.9240 C   0  0  0  0  0  0  0  0  0  0  0  0
  1  4  1  6  0  0  0
  1  8  1  0  0  0  0
  1  3  1  0  0  0  0
  2  6  1  0  0  0  0
  2  1  1  0  0  0  0
  2  3  1  0  0  0  0
  3  7  1  1  0  0  0
  5  2  1  0  0  0  0
  8 13  1  0  0  0  0
  9 10  1  0  0  0  0
  9  8  2  0  0  0  0
 10 11  2  0  0  0  0
 11 12  1  0  0  0  0
 12 14  1  0  0  0  0
 13 12  2  0  0  0  0
 14 18  1  0  0  0  0
 14 17  1  0  0  0  0
 15  9  1  0  0  0  0
 16 10  1  0  0  0  0
 19  3  1  0  0  0  0
 19 21  1  0  0  0  0
 21 20  2  6  0  0  0
 21 24  1  0  0  0  0
 21 22  1  0  0  0  0
 22 23  1  0  0  0  0
 24 25  1  0  0  0  0
 25 36  2  0  0  0  0
 25 26  1  0  0  0  0
 26 27  2  0  0  0  0
 27 28  1  0  0  0  0
 29 30  1  0  0  0  0
 29 28  2  0  0  0  0
 31 32  1  0  0  0  0
 31 30  2  0  0  0  0
 33 31  1  0  0  0  0
 34 33  1  0  0  0  0
 35 33  2  0  0  0  0
 35 36  1  0  0  0  0
 36 29  1  0  0  0  0
M  END
>  <minimizedAffinity>
-6.06459475

$$$$

 OpenBabel03272504583D

 36 39  0  0  1  0  0  0  0  0999 V2000
   36.4260   23.4740   31.2900 C   0  0  1  0  0  0  0  0  0  0  0  0
   35.4020   24.4460   30.9880 C   0  0  0  0  0  0  0  0  0  0  0  0
   36.4390   24.7410   32.0260 C   0  0  2  0  0  0  0  0  0  0  0  0
   37.3440   23.3180   30.6250 H   0  0  0  0  0  0  0  0  0  0  0  0
   35.4090   24.5990   29.9230 H   0  0  0  0  0  0  0  0  0  0  0  0
   34.3800   24.2380   31.3650 H   0  0  0  0  0  0  0  0  0  0  0  0
   35.9630   24.9960   32.9570 H   0  0  0  0  0  0  0  0  0  0  0  0
   36.1110   22.2380   32.0870 C   0  0  0  0  0  0  0  0  0  0  0  0
   36.7880   22.1060   33.3110 C   0  0  0  0  0  0  0  0  0  0  0  0
   36.4810   20.9680   34.0230 C   0  0  0  0  0  0  0  0  0  0  0  0
   35.5880   20.0760   33.5390 N   0  0  0  0  0  0  0  0  0  0  0  0
   34.9550   20.2400   32.3530 C   0  0  0  0  0  0  0  0  0  0  0  0
   35.2260   21.3590   31.6010 N   0  0  0  0  0  0  0  0  0  0  0  0
   34.0090   19.3470   31.8390 N   0  0  0  0  0  0  0  0  0  0  0  0
   37.4890   22.7970   33.7040 H   0  0  0  0  0  0  0  0  0  0  0  0
   36.9630   20.7970   34.9760 H   0  0  0  0  0  0  0  0  0  0  0  0
   33.0070   19.3140   32.1950 H   0  0  0  0  0  0  0  0  0  0  0  0
   34.3000   18.6960   31.0840 H   0  0  0  0  0  0  0  0  0  0  0  0
   37.4290   25.6490   31.6410 O   0  0  0  0  0  0  0  0  0  0  0  0
   39.1120   27.3710   32.5590 O   0  0  0  0  0  0  0  0  0  0  0  0
   37.8710   26.6180   32.9210 P   0  0  1  0  0  0  0  0  0  0  0  0
   36.6610   27.8380   33.1540 O   0  0  0  0  0  0  0  0  0  0  0  0
   37.0690   28.4340   33.8290 H   0  0  0  0  0  0  0  0  0  0  0  0
   38.0100   25.6790   34.3040 O   0  0  0  0  0  0  0  0  0  0  0  0
   38.9380   24.7290   34.6020 C   0  0  0  0  0  0  0  0  0  0  0  0
   39.8370   24.2410   33.7460 N   0  0  0  0  0  0  0  0  0  0  0  0
   40.6890   23.3030   34.1950 C   0  0  0  0  0  3  0  0  0  0  0  0
   40.6660   22.8440   35.4690 N   0  0  0  0  0  0  0  0  0  0  0  0
   39.7800   23.3050   36.3710 C   0  0  0  0  0  0  0  0  0  0  0  0
   39.7300   22.8580   37.6800 C   0  0  0  0  0  3  0  0  0  0  0  0
   38.8130   23.3510   38.5660 C   0  0  0  0  0  0  0  0  0  0  0  0
   38.7490   23.0230   39.5920 H   0  0  0  0  0  0  0  0  0  0  0  0
   37.9300   24.3050   38.1460 C   0  0  0  0  0  0  0  0  0  0  0  0
   37.1940   24.7110   38.8310 H   0  0  0  0  0  0  0  0  0  0  0  0
   37.9880   24.7440   36.8400 C   0  0  0  0  0  3  0  0  0  0  0  0
   38.8920   24.2730   35.9240 C   0  0  0  0  0  0  0  0  0  0  0  0
  1  4  1  6  0  0  0
  1  3  1  0  0  0  0
  1  8  1  0  0  0  0
  2  1  1  0  0  0  0
  2  6  1  0  0  0  0
  2  3  1  0  0  0  0
  3  7  1  1  0  0  0
  5  2  1  0  0  0  0
  8  9  1  0  0  0  0
  9 15  1  0  0  0  0
  9 10  2  0  0  0  0
 10 16  1  0  0  0  0
 11 10  1  0  0  0  0
 12 11  2  0  0  0  0
 13  8  2  0  0  0  0
 13 12  1  0  0  0  0
 14 17  1  0  0  0  0
 14 12  1  0  0  0  0
 18 14  1  0  0  0  0
 19  3  1  0  0  0  0
 19 21  1  0  0  0  0
 21 20  2  6  0  0  0
 21 22  1  0  0  0  0
 21 24  1  0  0  0  0
 22 23  1  0  0  0  0
 24 25  1  0  0  0  0
 25 36  1  0  0  0  0
 26 27  1  0  0  0  0
 26 25  2  0  0  0  0
 27 28  2  0  0  0  0
 28 29  1  0  0  0  0
 29 30  1  0  0  0  0
 30 31  2  0  0  0  0
 31 32  1  0  0  0  0
 33 31  1  0  0  0  0
 33 34  1  0  0  0  0
 35 33  2  0  0  0  0
 36 29  2  0  0  0  0
 36 35  1  0  0  0  0
M  END
>  <minimizedAffinity>
-6.06189346

$$$$

 OpenBabel03272504583D

 36 39  0  0  1  0  0  0  0  0999 V2000
   35.9710   22.7470   30.9830 C   0  0  1  0  0  0  0  0  0  0  0  0
   35.4510   24.0000   31.4810 C   0  0  0  0  0  0  0  0  0  0  0  0
   36.9230   23.7320   31.5020 C   0  0  2  0  0  0  0  0  0  0  0  0
   36.0930   22.5300   29.8670 H   0  0  0  0  0  0  0  0  0  0  0  0
   34.8230   24.4140   30.7120 H   0  0  0  0  0  0  0  0  0  0  0  0
   34.9380   23.9800   32.4630 H   0  0  0  0  0  0  0  0  0  0  0  0
   37.3040   23.8550   32.5010 H   0  0  0  0  0  0  0  0  0  0  0  0
   35.8200   21.4770   31.7740 C   0  0  0  0  0  0  0  0  0  0  0  0
   35.8270   20.2850   31.0300 C   0  0  0  0  0  0  0  0  0  0  0  0
   35.6910   19.1360   31.7750 C   0  0  0  0  0  0  0  0  0  0  0  0
   35.5640   19.2010   33.1200 N   0  0  0  0  0  0  0  0  0  0  0  0
   35.5630   20.3710   33.8020 C   0  0  0  0  0  0  0  0  0  0  0  0
   35.6950   21.5500   33.1050 N   0  0  0  0  0  0  0  0  0  0  0  0
   35.4590   20.4680   35.1930 N   0  0  0  0  0  0  0  0  0  0  0  0
   35.9260   20.2180   29.9770 H   0  0  0  0  0  0  0  0  0  0  0  0
   35.6870   18.1780   31.2710 H   0  0  0  0  0  0  0  0  0  0  0  0
   36.2800   20.2690   35.8390 H   0  0  0  0  0  0  0  0  0  0  0  0
   34.5460   20.7440   35.6050 H   0  0  0  0  0  0  0  0  0  0  0  0
   37.6690   24.4120   30.5360 O   0  0  0  0  0  0  0  0  0  0  0  0
   39.9080   25.6770   30.3780 O   0  0  0  0  0  0  0  0  0  0  0  0
   38.7060   25.5020   31.2500 P   0  0  1  0  0  0  0  0  0  0  0  0
   37.9510   27.0620   31.2890 O   0  0  0  0  0  0  0  0  0  0  0  0
   38.6790   27.6570   31.5960 H   0  0  0  0  0  0  0  0  0  0  0  0
   39.0520   24.9950   32.8110 O   0  0  0  0  0  0  0  0  0  0  0  0
   38.8190   25.6370   33.9900 C   0  0  0  0  0  0  0  0  0  0  0  0
   38.8820   26.9570   34.1670 N   0  0  0  0  0  0  0  0  0  0  0  0
   38.6240   27.4390   35.3960 C   0  0  0  0  0  3  0  0  0  0  0  0
   38.3070   26.6410   36.4420 N   0  0  0  0  0  0  0  0  0  0  0  0
   38.2300   25.3030   36.3140 C   0  0  0  0  0  0  0  0  0  0  0  0
   37.9090   24.4590   37.3640 C   0  0  0  0  0  3  0  0  0  0  0  0
   37.8420   23.1050   37.1920 C   0  0  0  0  0  0  0  0  0  0  0  0
   37.5950   22.4210   37.9900 H   0  0  0  0  0  0  0  0  0  0  0  0
   38.0980   22.5780   35.9580 C   0  0  0  0  0  0  0  0  0  0  0  0
   38.0510   21.5070   35.7990 H   0  0  0  0  0  0  0  0  0  0  0  0
   38.4170   23.4270   34.9200 C   0  0  0  0  0  3  0  0  0  0  0  0
   38.4940   24.7880   35.0530 C   0  0  0  0  0  0  0  0  0  0  0  0
  1  4  1  6  0  0  0
  1  2  1  0  0  0  0
  1  3  1  0  0  0  0
  1  8  1  0  0  0  0
  2  3  1  0  0  0  0
  2  6  1  0  0  0  0
  3  7  1  1  0  0  0
  5  2  1  0  0  0  0
  8 13  1  0  0  0  0
  9  8  2  0  0  0  0
  9 10  1  0  0  0  0
 10 11  2  0  0  0  0
 11 12  1  0  0  0  0
 12 14  1  0  0  0  0
 13 12  2  0  0  0  0
 14 18  1  0  0  0  0
 14 17  1  0  0  0  0
 15  9  1  0  0  0  0
 16 10  1  0  0  0  0
 19 21  1  0  0  0  0
 19  3  1  0  0  0  0
 21 20  2  6  0  0  0
 21 22  1  0  0  0  0
 21 24  1  0  0  0  0
 22 23  1  0  0  0  0
 24 25  1  0  0  0  0
 25 26  2  0  0  0  0
 25 36  1  0  0  0  0
 26 27  1  0  0  0  0
 27 28  2  0  0  0  0
 29 28  1  0  0  0  0
 29 30  1  0  0  0  0
 31 30  2  0  0  0  0
 31 32  1  0  0  0  0
 33 31  1  0  0  0  0
 34 33  1  0  0  0  0
 35 36  1  0  0  0  0
 35 33  2  0  0  0  0
 36 29  2  0  0  0  0
M  END
>  <minimizedAffinity>
-5.89433765

$$$$

 OpenBabel03272504583D

 36 39  0  0  1  0  0  0  0  0999 V2000
   38.7570   23.1620   36.4990 C   0  0  1  0  0  0  0  0  0  0  0  0
   39.3510   22.9210   37.7930 C   0  0  0  0  0  0  0  0  0  0  0  0
   40.0760   22.5280   36.5450 C   0  0  2  0  0  0  0  0  0  0  0  0
   38.7570   24.1920   36.0020 H   0  0  0  0  0  0  0  0  0  0  0  0
   39.3330   23.8510   38.3330 H   0  0  0  0  0  0  0  0  0  0  0  0
   38.9310   22.0900   38.3960 H   0  0  0  0  0  0  0  0  0  0  0  0
   40.3320   21.4820   36.5840 H   0  0  0  0  0  0  0  0  0  0  0  0
   37.6200   22.3140   35.9970 C   0  0  0  0  0  0  0  0  0  0  0  0
   37.6440   22.0010   34.6280 C   0  0  0  0  0  0  0  0  0  0  0  0
   36.5960   21.2210   34.1930 C   0  0  0  0  0  0  0  0  0  0  0  0
   35.6410   20.8120   35.0580 N   0  0  0  0  0  0  0  0  0  0  0  0
   35.6540   21.1340   36.3740 C   0  0  0  0  0  0  0  0  0  0  0  0
   36.6790   21.9120   36.8600 N   0  0  0  0  0  0  0  0  0  0  0  0
   34.6940   20.7040   37.2950 N   0  0  0  0  0  0  0  0  0  0  0  0
   38.3870   22.3130   33.9390 H   0  0  0  0  0  0  0  0  0  0  0  0
   36.5460   20.9400   33.1500 H   0  0  0  0  0  0  0  0  0  0  0  0
   34.6900   19.7180   37.6940 H   0  0  0  0  0  0  0  0  0  0  0  0
   33.9610   21.3750   37.5980 H   0  0  0  0  0  0  0  0  0  0  0  0
   41.1500   23.3490   36.1930 O   0  0  0  0  0  0  0  0  0  0  0  0
   43.0210   22.9100   34.4780 O   0  0  0  0  0  0  0  0  0  0  0  0
   41.5490   23.1450   34.5890 P   0  0  1  0  0  0  0  0  0  0  0  0
   40.8180   21.6860   34.0040 O   0  0  0  0  0  0  0  0  0  0  0  0
   41.2150   21.5790   33.1050 H   0  0  0  0  0  0  0  0  0  0  0  0
   40.9890   24.4580   33.7080 O   0  0  0  0  0  0  0  0  0  0  0  0
   39.7390   24.6880   33.2180 C   0  0  0  0  0  0  0  0  0  0  0  0
   39.1980   24.0580   32.1750 N   0  0  0  0  0  0  0  0  0  0  0  0
   37.9490   24.3990   31.8120 C   0  0  0  0  0  3  0  0  0  0  0  0
   37.2330   25.3470   32.4620 N   0  0  0  0  0  0  0  0  0  0  0  0
   37.7340   26.0110   33.5200 C   0  0  0  0  0  0  0  0  0  0  0  0
   37.0290   26.9850   34.2060 C   0  0  0  0  0  3  0  0  0  0  0  0
   37.5740   27.6370   35.2760 C   0  0  0  0  0  0  0  0  0  0  0  0
   37.0500   28.4010   35.8300 H   0  0  0  0  0  0  0  0  0  0  0  0
   38.8410   27.3180   35.6740 C   0  0  0  0  0  0  0  0  0  0  0  0
   39.2940   27.8220   36.5200 H   0  0  0  0  0  0  0  0  0  0  0  0
   39.5350   26.3460   34.9840 C   0  0  0  0  0  3  0  0  0  0  0  0
   39.0230   25.6720   33.9080 C   0  0  0  0  0  0  0  0  0  0  0  0
  1  4  1  6  0  0  0
  1  3  1  0  0  0  0
  1  2  1  0  0  0  0
  2  5  1  0  0  0  0
  2  6  1  0  0  0  0
  3  7  1  6  0  0  0
  3  2  1  0  0  0  0
  8  1  1  0  0  0  0
  8 13  1  0  0  0  0
  9  8  2  0  0  0  0
 10  9  1  0  0  0  0
 10 11  2  0  0  0  0
 11 12  1  0  0  0  0
 12 13  2  0  0  0  0
 12 14  1  0  0  0  0
 14 18  1  0  0  0  0
 14 17  1  0  0  0  0
 15  9  1  0  0  0  0
 16 10  1  0  0  0  0
 19  3  1  0  0  0  0
 21 20  2  6  0  0  0
 21 19  1  0  0  0  0
 22 21  1  0  0  0  0
 23 22  1  0  0  0  0
 24 21  1  0  0  0  0
 25 24  1  0  0  0  0
 25 36  1  0  0  0  0
 26 25  2  0  0  0  0
 27 26  1  0  0  0  0
 27 28  2  0  0  0  0
 28 29  1  0  0  0  0
 29 36  2  0  0  0  0
 29 30  1  0  0  0  0
 30 31  2  0  0  0  0
 31 33  1  0  0  0  0
 31 32  1  0  0  0  0
 33 34  1  0  0  0  0
 35 33  2  0  0  0  0
 36 35  1  0  0  0  0
M  END
>  <minimizedAffinity>
-5.88191938

$$$$

 OpenBabel03272504583D

 36 39  0  0  1  0  0  0  0  0999 V2000
   38.4480   26.3290   34.6360 C   0  0  1  0  0  0  0  0  0  0  0  0
   38.1760   26.7870   35.9790 C   0  0  0  0  0  0  0  0  0  0  0  0
   38.0920   25.3300   35.6460 C   0  0  2  0  0  0  0  0  0  0  0  0
   39.5100   26.2130   34.2270 H   0  0  0  0  0  0  0  0  0  0  0  0
   39.0120   27.3900   36.2880 H   0  0  0  0  0  0  0  0  0  0  0  0
   37.2110   27.3050   36.1510 H   0  0  0  0  0  0  0  0  0  0  0  0
   37.1220   24.9480   35.9180 H   0  0  0  0  0  0  0  0  0  0  0  0
   37.4560   26.5480   33.5270 C   0  0  0  0  0  0  0  0  0  0  0  0
   36.8410   27.8110   33.4920 C   0  0  0  0  0  0  0  0  0  0  0  0
   35.9400   27.9880   32.4660 C   0  0  0  0  0  0  0  0  0  0  0  0
   35.7010   26.9920   31.5830 N   0  0  0  0  0  0  0  0  0  0  0  0
   36.3170   25.7870   31.6500 C   0  0  0  0  0  0  0  0  0  0  0  0
   37.2250   25.5570   32.6570 N   0  0  0  0  0  0  0  0  0  0  0  0
   36.1080   24.7490   30.7370 N   0  0  0  0  0  0  0  0  0  0  0  0
   37.0190   28.6000   34.1760 H   0  0  0  0  0  0  0  0  0  0  0  0
   35.4250   28.9350   32.3750 H   0  0  0  0  0  0  0  0  0  0  0  0
   36.5460   24.7480   29.7680 H   0  0  0  0  0  0  0  0  0  0  0  0
   35.5030   23.9530   31.0200 H   0  0  0  0  0  0  0  0  0  0  0  0
   39.1490   24.5470   36.1150 O   0  0  0  0  0  0  0  0  0  0  0  0
   39.8790   22.1090   36.5190 O   0  0  0  0  0  0  0  0  0  0  0  0
   38.6700   22.9640   36.3110 P   0  0  1  0  0  0  0  0  0  0  0  0
   37.7640   22.8230   37.7830 O   0  0  0  0  0  0  0  0  0  0  0  0
   37.6440   21.8470   37.8810 H   0  0  0  0  0  0  0  0  0  0  0  0
   37.7160   22.5100   35.0080 O   0  0  0  0  0  0  0  0  0  0  0  0
   38.0810   22.3030   33.7120 C   0  0  0  0  0  0  0  0  0  0  0  0
   39.1920   22.7750   33.1450 N   0  0  0  0  0  0  0  0  0  0  0  0
   39.4110   22.4830   31.8510 C   0  0  0  0  0  3  0  0  0  0  0  0
   38.5540   21.7370   31.1160 N   0  0  0  0  0  0  0  0  0  0  0  0
   37.4200   21.2370   31.6410 C   0  0  0  0  0  0  0  0  0  0  0  0
   36.5230   20.4700   30.9170 C   0  0  0  0  0  3  0  0  0  0  0  0
   35.3820   19.9820   31.4880 C   0  0  0  0  0  0  0  0  0  0  0  0
   34.6640   19.3820   30.9500 H   0  0  0  0  0  0  0  0  0  0  0  0
   35.1250   20.2580   32.8000 C   0  0  0  0  0  0  0  0  0  0  0  0
   34.2260   19.8820   33.2750 H   0  0  0  0  0  0  0  0  0  0  0  0
   36.0250   21.0230   33.5130 C   0  0  0  0  0  3  0  0  0  0  0  0
   37.1780   21.5290   32.9760 C   0  0  0  0  0  0  0  0  0  0  0  0
  1  4  1  6  0  0  0
  1  3  1  0  0  0  0
  1  2  1  0  0  0  0
  2  6  1  0  0  0  0
  2  5  1  0  0  0  0
  3  7  1  6  0  0  0
  3  2  1  0  0  0  0
  3 19  1  0  0  0  0
  8  1  1  0  0  0  0
  9  8  1  0  0  0  0
  9 15  1  0  0  0  0
 10  9  2  0  0  0  0
 11 12  2  0  0  0  0
 11 10  1  0  0  0  0
 12 13  1  0  0  0  0
 13  8  2  0  0  0  0
 14 18  1  0  0  0  0
 14 12  1  0  0  0  0
 16 10  1  0  0  0  0
 17 14  1  0  0  0  0
 19 21  1  0  0  0  0
 21 20  2  1  0  0  0
 21 22  1  0  0  0  0
 22 23  1  0  0  0  0
 24 21  1  0  0  0  0
 25 24  1  0  0  0  0
 26 25  1  0  0  0  0
 27 26  2  0  0  0  0
 28 29  2  0  0  0  0
 28 27  1  0  0  0  0
 29 36  1  0  0  0  0
 30 31  2  0  0  0  0
 30 29  1  0  0  0  0
 31 33  1  0  0  0  0
 32 31  1  0  0  0  0
 33 34  1  0  0  0  0
 33 35  2  0  0  0  0
 36 35  1  0  0  0  0
 36 25  2  0  0  0  0
M  END
>  <minimizedAffinity>
-5.76083136

$$$$

 OpenBabel03272504583D

 36 39  0  0  1  0  0  0  0  0999 V2000
   38.5310   25.8500   35.1940 C   0  0  1  0  0  0  0  0  0  0  0  0
   38.7110   27.1410   35.8160 C   0  0  0  0  0  0  0  0  0  0  0  0
   39.5230   26.7620   34.6180 C   0  0  2  0  0  0  0  0  0  0  0  0
   37.6560   25.6190   34.4950 H   0  0  0  0  0  0  0  0  0  0  0  0
   37.7400   27.5990   35.8920 H   0  0  0  0  0  0  0  0  0  0  0  0
   39.2510   27.1660   36.7840 H   0  0  0  0  0  0  0  0  0  0  0  0
   40.5720   26.8590   34.8400 H   0  0  0  0  0  0  0  0  0  0  0  0
   39.0610   24.5990   35.8380 C   0  0  0  0  0  0  0  0  0  0  0  0
   40.0540   23.9110   35.1200 C   0  0  0  0  0  0  0  0  0  0  0  0
   40.5260   22.7710   35.7300 C   0  0  0  0  0  0  0  0  0  0  0  0
   40.0400   22.3850   36.9310 N   0  0  0  0  0  0  0  0  0  0  0  0
   39.0820   23.0770   37.5930 C   0  0  0  0  0  0  0  0  0  0  0  0
   38.5750   24.2230   37.0270 N   0  0  0  0  0  0  0  0  0  0  0  0
   38.5790   22.7140   38.8470 N   0  0  0  0  0  0  0  0  0  0  0  0
   40.4460   24.2030   34.1790 H   0  0  0  0  0  0  0  0  0  0  0  0
   41.2920   22.1880   35.2370 H   0  0  0  0  0  0  0  0  0  0  0  0
   39.1150   22.8940   39.7480 H   0  0  0  0  0  0  0  0  0  0  0  0
   37.6480   22.2550   38.8940 H   0  0  0  0  0  0  0  0  0  0  0  0
   39.1480   27.3780   33.4210 O   0  0  0  0  0  0  0  0  0  0  0  0
   40.0750   27.6760   31.0360 O   0  0  0  0  0  0  0  0  0  0  0  0
   39.9120   26.6640   32.1250 P   0  0  1  0  0  0  0  0  0  0  0  0
   41.5290   26.2370   32.5840 O   0  0  0  0  0  0  0  0  0  0  0  0
   41.9380   25.9540   31.7300 H   0  0  0  0  0  0  0  0  0  0  0  0
   39.0640   25.2890   31.6720 O   0  0  0  0  0  0  0  0  0  0  0  0
   37.7230   25.1290   31.5040 C   0  0  0  0  0  0  0  0  0  0  0  0
   36.8770   26.0920   31.1380 N   0  0  0  0  0  0  0  0  0  0  0  0
   35.5760   25.7740   31.0140 C   0  0  0  0  0  3  0  0  0  0  0  0
   35.1040   24.5260   31.2450 N   0  0  0  0  0  0  0  0  0  0  0  0
   35.9170   23.5200   31.6160 C   0  0  0  0  0  0  0  0  0  0  0  0
   35.4670   22.2330   31.8600 C   0  0  0  0  0  3  0  0  0  0  0  0
   36.3260   21.2390   32.2350 C   0  0  0  0  0  0  0  0  0  0  0  0
   36.0050   20.2270   32.4330 H   0  0  0  0  0  0  0  0  0  0  0  0
   37.6540   21.5240   32.3720 C   0  0  0  0  0  0  0  0  0  0  0  0
   38.3540   20.7510   32.6680 H   0  0  0  0  0  0  0  0  0  0  0  0
   38.0920   22.8090   32.1260 C   0  0  0  0  0  3  0  0  0  0  0  0
   37.2630   23.8310   31.7490 C   0  0  0  0  0  0  0  0  0  0  0  0
  1  4  1  6  0  0  0
  1  2  1  0  0  0  0
  1  8  1  0  0  0  0
  2  5  1  0  0  0  0
  2  6  1  0  0  0  0
  3  7  1  1  0  0  0
  3  1  1  0  0  0  0
  3  2  1  0  0  0  0
  8 13  1  0  0  0  0
  9 10  1  0  0  0  0
  9  8  2  0  0  0  0
 10 11  2  0  0  0  0
 11 12  1  0  0  0  0
 12 14  1  0  0  0  0
 13 12  2  0  0  0  0
 14 18  1  0  0  0  0
 14 17  1  0  0  0  0
 15  9  1  0  0  0  0
 16 10  1  0  0  0  0
 19  3  1  0  0  0  0
 21 20  2  6  0  0  0
 21 22  1  0  0  0  0
 21 19  1  0  0  0  0
 23 22  1  0  0  0  0
 24 21  1  0  0  0  0
 25 24  1  0  0  0  0
 25 36  1  0  0  0  0
 26 25  2  0  0  0  0
 27 26  1  0  0  0  0
 27 28  2  0  0  0  0
 28 29  1  0  0  0  0
 29 36  2  0  0  0  0
 29 30  1  0  0  0  0
 30 31  2  0  0  0  0
 31 33  1  0  0  0  0
 31 32  1  0  0  0  0
 33 34  1  0  0  0  0
 35 33  2  0  0  0  0
 36 35  1  0  0  0  0
M  END
>  <minimizedAffinity>
-5.74085855

$$$$

 OpenBabel03272504583D

 36 39  0  0  1  0  0  0  0  0999 V2000
   36.0390   29.4700   33.1220 C   0  0  1  0  0  0  0  0  0  0  0  0
   36.1890   28.8890   34.4350 C   0  0  0  0  0  0  0  0  0  0  0  0
   36.2290   28.0200   33.2170 C   0  0  2  0  0  0  0  0  0  0  0  0
   36.8920   30.0130   32.5860 H   0  0  0  0  0  0  0  0  0  0  0  0
   36.9700   29.4310   34.9390 H   0  0  0  0  0  0  0  0  0  0  0  0
   35.2770   28.8100   35.0610 H   0  0  0  0  0  0  0  0  0  0  0  0
   35.4940   27.2380   33.3000 H   0  0  0  0  0  0  0  0  0  0  0  0
   34.6980   29.9410   32.6300 C   0  0  0  0  0  0  0  0  0  0  0  0
   34.7150   31.0480   31.7640 C   0  0  0  0  0  0  0  0  0  0  0  0
   33.4760   31.4590   31.3260 C   0  0  0  0  0  0  0  0  0  0  0  0
   32.3580   30.8130   31.7260 N   0  0  0  0  0  0  0  0  0  0  0  0
   32.3840   29.7470   32.5610 C   0  0  0  0  0  0  0  0  0  0  0  0
   33.5950   29.2960   33.0300 N   0  0  0  0  0  0  0  0  0  0  0  0
   31.2460   29.0450   32.9710 N   0  0  0  0  0  0  0  0  0  0  0  0
   35.5830   31.5630   31.4420 H   0  0  0  0  0  0  0  0  0  0  0  0
   33.4090   32.3060   30.6560 H   0  0  0  0  0  0  0  0  0  0  0  0
   30.7530   28.3440   32.3410 H   0  0  0  0  0  0  0  0  0  0  0  0
   30.8730   29.2170   33.9260 H   0  0  0  0  0  0  0  0  0  0  0  0
   37.4960   27.5560   32.8560 O   0  0  0  0  0  0  0  0  0  0  0  0
   36.2180   25.4480   32.1060 O   0  0  0  0  0  0  0  0  0  0  0  0
   37.5020   25.8950   32.7280 P   0  0  1  0  0  0  0  0  0  0  0  0
   38.7330   25.4160   31.6050 O   0  0  0  0  0  0  0  0  0  0  0  0
   38.5720   24.4480   31.4930 H   0  0  0  0  0  0  0  0  0  0  0  0
   37.8110   25.2260   34.2350 O   0  0  0  0  0  0  0  0  0  0  0  0
   38.7390   24.2910   34.5810 C   0  0  0  0  0  0  0  0  0  0  0  0
   39.5550   23.6700   33.7280 N   0  0  0  0  0  0  0  0  0  0  0  0
   40.4200   22.7700   34.2270 C   0  0  0  0  0  3  0  0  0  0  0  0
   40.4890   22.4770   35.5470 N   0  0  0  0  0  0  0  0  0  0  0  0
   39.6890   23.0770   36.4480 C   0  0  0  0  0  0  0  0  0  0  0  0
   39.7340   22.8000   37.8040 C   0  0  0  0  0  3  0  0  0  0  0  0
   38.9020   23.4310   38.6860 C   0  0  0  0  0  0  0  0  0  0  0  0
   38.9130   23.2370   39.7480 H   0  0  0  0  0  0  0  0  0  0  0  0
   38.0100   24.3520   38.2170 C   0  0  0  0  0  0  0  0  0  0  0  0
   37.3410   24.8650   38.8980 H   0  0  0  0  0  0  0  0  0  0  0  0
   37.9730   24.6200   36.8640 C   0  0  0  0  0  3  0  0  0  0  0  0
   38.7890   24.0090   35.9500 C   0  0  0  0  0  0  0  0  0  0  0  0
  1  4  1  6  0  0  0
  1  3  1  0  0  0  0
  1  2  1  0  0  0  0
  2  5  1  0  0  0  0
  2  6  1  0  0  0  0
  3  7  1  6  0  0  0
  3  2  1  0  0  0  0
  8 13  1  0  0  0  0
  8  1  1  0  0  0  0
  9  8  2  0  0  0  0
 10 11  2  0  0  0  0
 10  9  1  0  0  0  0
 11 12  1  0  0  0  0
 12 14  1  0  0  0  0
 12 13  2  0  0  0  0
 14 18  1  0  0  0  0
 15  9  1  0  0  0  0
 16 10  1  0  0  0  0
 17 14  1  0  0  0  0
 19  3  1  0  0  0  0
 21 20  2  6  0  0  0
 21 19  1  0  0  0  0
 21 24  1  0  0  0  0
 22 21  1  0  0  0  0
 23 22  1  0  0  0  0
 24 25  1  0  0  0  0
 25 36  1  0  0  0  0
 26 27  1  0  0  0  0
 26 25  2  0  0  0  0
 27 28  2  0  0  0  0
 28 29  1  0  0  0  0
 29 30  1  0  0  0  0
 30 31  2  0  0  0  0
 31 32  1  0  0  0  0
 33 31  1  0  0  0  0
 33 34  1  0  0  0  0
 35 33  2  0  0  0  0
 36 29  2  0  0  0  0
 36 35  1  0  0  0  0
M  END
>  <minimizedAffinity>
-5.61634493

$$$$

 OpenBabel03272504583D

 36 39  0  0  1  0  0  0  0  0999 V2000
   37.5440   25.2380   31.8200 C   0  0  1  0  0  0  0  0  0  0  0  0
   36.4670   26.1960   31.7350 C   0  0  0  0  0  0  0  0  0  0  0  0
   37.1700   25.9660   33.0350 C   0  0  2  0  0  0  0  0  0  0  0  0
   38.6030   25.4650   31.4530 H   0  0  0  0  0  0  0  0  0  0  0  0
   36.6930   26.8620   30.9210 H   0  0  0  0  0  0  0  0  0  0  0  0
   35.4360   25.7940   31.6600 H   0  0  0  0  0  0  0  0  0  0  0  0
   36.4560   25.7050   33.7970 H   0  0  0  0  0  0  0  0  0  0  0  0
   37.2680   23.7590   31.8120 C   0  0  0  0  0  0  0  0  0  0  0  0
   36.0030   23.3720   31.3380 C   0  0  0  0  0  0  0  0  0  0  0  0
   35.7760   22.0140   31.3370 C   0  0  0  0  0  0  0  0  0  0  0  0
   36.7310   21.1580   31.7670 N   0  0  0  0  0  0  0  0  0  0  0  0
   37.9400   21.5720   32.2150 C   0  0  0  0  0  0  0  0  0  0  0  0
   38.2190   22.9180   32.2390 N   0  0  0  0  0  0  0  0  0  0  0  0
   38.9550   20.7080   32.6420 N   0  0  0  0  0  0  0  0  0  0  0  0
   35.2460   24.0310   30.9970 H   0  0  0  0  0  0  0  0  0  0  0  0
   34.8240   21.6400   30.9860 H   0  0  0  0  0  0  0  0  0  0  0  0
   39.5640   20.1670   31.9590 H   0  0  0  0  0  0  0  0  0  0  0  0
   39.1150   20.5970   33.6620 H   0  0  0  0  0  0  0  0  0  0  0  0
   38.0530   26.9770   33.4250 O   0  0  0  0  0  0  0  0  0  0  0  0
   40.1300   26.8460   34.9440 O   0  0  0  0  0  0  0  0  0  0  0  0
   38.6440   26.6880   34.9550 P   0  0  1  0  0  0  0  0  0  0  0  0
   38.0710   27.9240   36.0270 O   0  0  0  0  0  0  0  0  0  0  0  0
   38.5730   27.7510   36.8600 H   0  0  0  0  0  0  0  0  0  0  0  0
   38.1100   25.1860   35.4790 O   0  0  0  0  0  0  0  0  0  0  0  0
   38.4770   24.4880   36.5890 C   0  0  0  0  0  0  0  0  0  0  0  0
   37.9190   24.6190   37.7940 N   0  0  0  0  0  0  0  0  0  0  0  0
   38.3950   23.8560   38.7930 C   0  0  0  0  0  3  0  0  0  0  0  0
   39.4060   22.9720   38.6200 N   0  0  0  0  0  0  0  0  0  0  0  0
   40.0010   22.8030   37.4250 C   0  0  0  0  0  0  0  0  0  0  0  0
   41.0360   21.9080   37.2140 C   0  0  0  0  0  3  0  0  0  0  0  0
   41.6140   21.7670   35.9840 C   0  0  0  0  0  0  0  0  0  0  0  0
   42.4230   21.0790   35.7880 H   0  0  0  0  0  0  0  0  0  0  0  0
   41.1580   22.5250   34.9440 C   0  0  0  0  0  0  0  0  0  0  0  0
   41.6020   22.4300   33.9590 H   0  0  0  0  0  0  0  0  0  0  0  0
   40.1260   23.4130   35.1640 C   0  0  0  0  0  3  0  0  0  0  0  0
   39.5230   23.5830   36.3820 C   0  0  0  0  0  0  0  0  0  0  0  0
  1  4  1  6  0  0  0
  1  3  1  0  0  0  0
  2  1  1  0  0  0  0
  2  3  1  0  0  0  0
  3 19  1  0  0  0  0
  3  7  1  1  0  0  0
  5  2  1  0  0  0  0
  6  2  1  0  0  0  0
  8  1  1  0  0  0  0
  8 13  1  0  0  0  0
  9  8  2  0  0  0  0
 10  9  1  0  0  0  0
 10 11  2  0  0  0  0
 11 12  1  0  0  0  0
 12 13  2  0  0  0  0
 12 14  1  0  0  0  0
 14 18  1  0  0  0  0
 15  9  1  0  0  0  0
 16 10  1  0  0  0  0
 17 14  1  0  0  0  0
 19 21  1  0  0  0  0
 21 20  2  6  0  0  0
 21 24  1  0  0  0  0
 21 22  1  0  0  0  0
 22 23  1  0  0  0  0
 24 25  1  0  0  0  0
 25 26  1  0  0  0  0
 26 27  2  0  0  0  0
 28 27  1  0  0  0  0
 29 28  2  0  0  0  0
 30 29  1  0  0  0  0
 31 30  2  0  0  0  0
 32 31  1  0  0  0  0
 33 35  2  0  0  0  0
 33 31  1  0  0  0  0
 34 33  1  0  0  0  0
 35 36  1  0  0  0  0
 36 25  2  0  0  0  0
 36 29  1  0  0  0  0
M  END
>  <minimizedAffinity>
-5.60638571

$$$$
