
 OpenBabel03272501573D

 34 37  0  0  0  0  0  0  0  0999 V2000
   32.5970   27.9520   48.6210 C   0  0  0  0  0  0  0  0  0  0  0  0
   32.2980   26.6930   48.1400 C   0  0  0  0  0  0  0  0  0  0  0  0
   30.9900   26.3620   48.4590 C   0  0  0  0  0  0  0  0  0  0  0  0
   30.5240   27.4510   49.1390 N   0  0  0  0  0  0  0  0  0  0  0  0
   31.4720   28.3900   49.2350 N   0  0  0  0  0  0  0  0  0  0  0  0
   32.9660   26.0380   47.5890 H   0  0  0  0  0  0  0  0  0  0  0  0
   30.4130   25.4720   48.2530 H   0  0  0  0  0  0  0  0  0  0  0  0
   29.2200   27.6330   49.6990 C   0  0  0  0  0  0  0  0  0  0  0  0
   28.9970   26.8740   50.8110 N   0  0  0  0  0  0  0  0  0  0  0  0
   27.7860   26.9620   51.4340 C   0  0  0  0  0  0  0  0  0  0  0  0
   26.7880   27.7760   50.9940 N   0  0  0  0  0  0  0  0  0  0  0  0
   27.0440   28.5150   49.8870 C   0  0  0  0  0  0  0  0  0  0  0  0
   26.0480   29.3550   49.4110 C   0  0  0  0  0  0  0  0  0  0  0  0
   26.3310   30.1050   48.2760 C   0  0  0  0  0  0  0  0  0  0  0  0
   25.5200   30.7500   47.9380 H   0  0  0  0  0  0  0  0  0  0  0  0
   27.5360   30.0360   47.6320 C   0  0  0  0  0  0  0  0  0  0  0  0
   27.7390   30.6280   46.7460 H   0  0  0  0  0  0  0  0  0  0  0  0
   28.5490   29.1970   48.0950 C   0  0  0  0  0  0  0  0  0  0  0  0
   28.2450   28.4730   49.2090 C   0  0  0  0  0  0  0  0  0  0  0  0
   33.9040   28.6630   48.4780 C   0  0  0  0  0  0  0  0  0  0  0  0
   34.2640   28.4560   47.4340 H   0  0  0  0  0  0  0  0  0  0  0  0
   33.7260   29.7340   48.6750 H   0  0  0  0  0  0  0  0  0  0  0  0
   34.8190   28.0890   49.5220 C   0  0  0  0  0  0  0  0  0  0  0  0
   34.3330   27.7140   50.4240 H   0  0  0  0  0  0  0  0  0  0  0  0
   35.3140   27.1860   49.0600 H   0  0  0  0  0  0  0  0  0  0  0  0
   37.2650   30.2560   51.2630 C   0  0  0  0  0  0  0  0  0  0  0  0
   37.9750   30.8200   50.1980 C   0  0  0  0  0  0  0  0  0  0  0  0
   37.6100   30.4550   48.9010 C   0  0  0  0  0  0  0  0  0  0  0  0
   36.5960   29.5780   48.7170 N   0  0  0  0  0  0  0  0  0  0  0  0
   35.9310   29.0520   49.7820 C   0  0  0  0  0  0  0  0  0  0  0  0
   36.2670   29.3920   51.0240 N   0  0  0  0  0  0  0  0  0  0  0  0
   37.5410   30.5340   52.2850 H   0  0  0  0  0  0  0  0  0  0  0  0
   38.7680   31.5090   50.4250 H   0  0  0  0  0  0  0  0  0  0  0  0
   38.1390   30.8730   48.0720 H   0  0  0  0  0  0  0  0  0  0  0  0
  1  5  2  0  0  0  0
  2  3  2  0  0  0  0
  2  1  1  0  0  0  0
  3  4  1  0  0  0  0
  4  5  1  0  0  0  0
  4  8  1  0  0  0  0
  6  2  1  0  0  0  0
  7  3  1  0  0  0  0
  8  9  1  0  0  0  0
  9 10  2  0  0  0  0
 11 10  1  0  0  0  0
 12 11  2  0  0  0  0
 13 12  1  0  0  0  0
 14 13  2  0  0  0  0
 15 14  1  0  0  0  0
 16 18  2  0  0  0  0
 16 14  1  0  0  0  0
 17 16  1  0  0  0  0
 18 19  1  0  0  0  0
 19  8  2  0  0  0  0
 19 12  1  0  0  0  0
 20  1  1  0  0  0  0
 20 22  1  0  0  0  0
 20 23  1  0  0  0  0
 21 20  1  0  0  0  0
 23 30  1  0  0  0  0
 23 24  1  0  0  0  0
 25 23  1  0  0  0  0
 26 32  1  0  0  0  0
 27 33  1  0  0  0  0
 27 26  2  0  0  0  0
 28 27  1  0  0  0  0
 29 28  2  0  0  0  0
 29 30  1  0  0  0  0
 30 31  2  0  0  0  0
 31 26  1  0  0  0  0
 34 28  1  0  0  0  0
M  END
>  <minimizedAffinity>
-7.00628281

>  <minimizedRMSD>
3.92311978

$$$$
