
 OpenBabel03272502263D

 33 36  0  0  0  0  0  0  0  0999 V2000
   36.0280   25.7790   31.2880 C   0  0  0  0  0  0  0  0  0  0  0  0
   36.8870   25.0500   32.1470 C   0  0  0  0  0  0  0  0  0  0  0  0
   37.3740   25.7230   33.2760 C   0  0  0  0  0  0  0  0  0  0  0  0
   36.9980   26.9930   33.4650 N   0  0  0  0  0  0  0  0  0  0  0  0
   36.1850   27.6720   32.6440 C   0  0  0  0  0  0  0  0  0  0  0  0
   35.6970   27.0540   31.5450 N   0  0  0  0  0  0  0  0  0  0  0  0
   35.6890   25.2030   30.4360 H   0  0  0  0  0  0  0  0  0  0  0  0
   37.1720   24.0230   31.9660 H   0  0  0  0  0  0  0  0  0  0  0  0
   38.2600   25.0900   34.2300 C   0  0  0  0  0  0  0  0  0  0  0  0
   39.5460   24.7450   33.8910 C   0  0  0  0  0  0  0  0  0  0  0  0
   40.4250   24.1390   34.7630 C   0  0  0  0  0  0  0  0  0  0  0  0
   40.0100   23.8650   36.0250 N   0  0  0  0  0  0  0  0  0  0  0  0
   38.7550   24.2050   36.3470 C   0  0  0  0  0  0  0  0  0  0  0  0
   37.8980   24.7940   35.4990 N   0  0  0  0  0  0  0  0  0  0  0  0
   39.9690   24.9200   32.9230 H   0  0  0  0  0  0  0  0  0  0  0  0
   41.4330   23.8610   34.5190 H   0  0  0  0  0  0  0  0  0  0  0  0
   38.2810   23.9160   37.7200 C   0  0  0  0  0  0  0  0  0  0  0  0
   37.9740   25.1480   38.3210 F   0  0  0  0  0  0  0  0  0  0  0  0
   37.1910   23.0790   37.7210 F   0  0  0  0  0  0  0  0  0  0  0  0
   39.2700   23.3670   38.5020 F   0  0  0  0  0  0  0  0  0  0  0  0
   35.8910   28.9660   32.9680 O   0  0  0  0  0  0  0  0  0  0  0  0
   34.6310   29.3310   33.3620 C   0  0  0  0  0  0  0  0  0  0  0  0
   33.3980   29.0570   32.9680 N   0  0  0  0  0  0  0  0  0  0  0  0
   32.2720   29.5370   33.5100 C   0  0  0  0  0  3  0  0  0  0  0  0
   32.3080   30.3850   34.5550 N   0  0  0  0  0  0  0  0  0  0  0  0
   33.5080   30.7200   35.0220 C   0  0  0  0  0  0  0  0  0  0  0  0
   33.5040   31.5880   36.0910 C   0  0  0  0  0  3  0  0  0  0  0  0
   34.7020   31.9870   36.6370 C   0  0  0  0  0  0  0  0  0  0  0  0
   34.6980   32.6690   37.4770 H   0  0  0  0  0  0  0  0  0  0  0  0
   35.8820   31.5210   36.1160 C   0  0  0  0  0  0  0  0  0  0  0  0
   36.8610   31.8150   36.5210 H   0  0  0  0  0  0  0  0  0  0  0  0
   35.8190   30.6570   35.0480 C   0  0  0  0  0  3  0  0  0  0  0  0
   34.6560   30.2090   34.4430 C   0  0  0  0  0  0  0  0  0  0  0  0
  1  6  2  0  0  0  0
  1  2  1  0  0  0  0
  2  3  2  0  0  0  0
  3  4  1  0  0  0  0
  3  9  1  0  0  0  0
  5 21  1  0  0  0  0
  5  4  2  0  0  0  0
  6  5  1  0  0  0  0
  7  1  1  0  0  0  0
  8  2  1  0  0  0  0
  9 14  1  0  0  0  0
 10  9  2  0  0  0  0
 10 11  1  0  0  0  0
 11 12  2  0  0  0  0
 12 13  1  0  0  0  0
 13 17  1  0  0  0  0
 14 13  2  0  0  0  0
 15 10  1  0  0  0  0
 16 11  1  0  0  0  0
 17 19  1  0  0  0  0
 17 18  1  0  0  0  0
 17 20  1  0  0  0  0
 21 22  1  0  0  0  0
 22 33  1  0  0  0  0
 23 22  2  0  0  0  0
 23 24  1  0  0  0  0
 24 25  2  0  0  0  0
 25 26  1  0  0  0  0
 26 27  1  0  0  0  0
 27 28  2  0  0  0  0
 28 29  1  0  0  0  0
 30 31  1  0  0  0  0
 30 28  1  0  0  0  0
 32 30  2  0  0  0  0
 33 26  2  0  0  0  0
 33 32  1  0  0  0  0
M  END
>  <minimizedAffinity>
-6.73095942

$$$$

 OpenBabel03272502263D

 33 36  0  0  0  0  0  0  0  0999 V2000
   37.4780   25.8800   32.6980 C   0  0  0  0  0  0  0  0  0  0  0  0
   37.9590   24.9760   33.6770 C   0  0  0  0  0  0  0  0  0  0  0  0
   37.9200   25.4060   35.0100 C   0  0  0  0  0  0  0  0  0  0  0  0
   37.4360   26.6260   35.2660 N   0  0  0  0  0  0  0  0  0  0  0  0
   36.9840   27.4730   34.3310 C   0  0  0  0  0  0  0  0  0  0  0  0
   37.0070   27.0910   33.0340 N   0  0  0  0  0  0  0  0  0  0  0  0
   37.5370   25.4880   31.6910 H   0  0  0  0  0  0  0  0  0  0  0  0
   38.3440   23.9950   33.4370 H   0  0  0  0  0  0  0  0  0  0  0  0
   38.3820   24.5760   36.1030 C   0  0  0  0  0  0  0  0  0  0  0  0
   37.6750   24.4810   37.2770 C   0  0  0  0  0  0  0  0  0  0  0  0
   38.0750   23.7080   38.3460 C   0  0  0  0  0  0  0  0  0  0  0  0
   39.2270   22.9980   38.2440 N   0  0  0  0  0  0  0  0  0  0  0  0
   39.9100   23.0960   37.0960 C   0  0  0  0  0  0  0  0  0  0  0  0
   39.5220   23.8490   36.0560 N   0  0  0  0  0  0  0  0  0  0  0  0
   36.7550   24.9990   37.4560 H   0  0  0  0  0  0  0  0  0  0  0  0
   37.5390   23.6190   39.2710 H   0  0  0  0  0  0  0  0  0  0  0  0
   41.1710   22.3290   36.9630 C   0  0  0  0  0  0  0  0  0  0  0  0
   41.0920   21.6090   35.7590 F   0  0  0  0  0  0  0  0  0  0  0  0
   42.2740   23.1480   36.9780 F   0  0  0  0  0  0  0  0  0  0  0  0
   41.3020   21.3780   37.9470 F   0  0  0  0  0  0  0  0  0  0  0  0
   36.5190   28.6890   34.7460 O   0  0  0  0  0  0  0  0  0  0  0  0
   35.4580   29.2930   34.1250 C   0  0  0  0  0  0  0  0  0  0  0  0
   34.6150   28.9680   33.1580 N   0  0  0  0  0  0  0  0  0  0  0  0
   33.6200   29.7310   32.6910 C   0  0  0  0  0  3  0  0  0  0  0  0
   33.3840   30.9560   33.1970 N   0  0  0  0  0  0  0  0  0  0  0  0
   34.1830   31.3700   34.1770 C   0  0  0  0  0  0  0  0  0  0  0  0
   33.9100   32.6280   34.6680 C   0  0  0  0  0  3  0  0  0  0  0  0
   34.6880   33.1350   35.6840 C   0  0  0  0  0  0  0  0  0  0  0  0
   34.4730   34.1230   36.0690 H   0  0  0  0  0  0  0  0  0  0  0  0
   35.7200   32.3900   36.1950 C   0  0  0  0  0  0  0  0  0  0  0  0
   36.3650   32.7570   37.0060 H   0  0  0  0  0  0  0  0  0  0  0  0
   35.9400   31.1420   35.6610 C   0  0  0  0  0  3  0  0  0  0  0  0
   35.2050   30.5620   34.6410 C   0  0  0  0  0  0  0  0  0  0  0  0
  1  6  2  0  0  0  0
  1  2  1  0  0  0  0
  2  3  2  0  0  0  0
  3  4  1  0  0  0  0
  3  9  1  0  0  0  0
  5 21  1  0  0  0  0
  5  4  2  0  0  0  0
  6  5  1  0  0  0  0
  7  1  1  0  0  0  0
  8  2  1  0  0  0  0
  9 10  1  0  0  0  0
 10 15  1  0  0  0  0
 10 11  2  0  0  0  0
 11 16  1  0  0  0  0
 12 11  1  0  0  0  0
 13 12  2  0  0  0  0
 14  9  2  0  0  0  0
 14 13  1  0  0  0  0
 17 19  1  0  0  0  0
 17 13  1  0  0  0  0
 17 20  1  0  0  0  0
 18 17  1  0  0  0  0
 22 33  1  0  0  0  0
 22 21  1  0  0  0  0
 23 22  2  0  0  0  0
 24 23  1  0  0  0  0
 24 25  2  0  0  0  0
 25 26  1  0  0  0  0
 26 33  2  0  0  0  0
 26 27  1  0  0  0  0
 27 28  2  0  0  0  0
 28 29  1  0  0  0  0
 28 30  1  0  0  0  0
 30 31  1  0  0  0  0
 32 30  2  0  0  0  0
 33 32  1  0  0  0  0
M  END
>  <minimizedAffinity>
-6.60234594

$$$$

 OpenBabel03272502263D

 33 36  0  0  0  0  0  0  0  0999 V2000
   37.6350   27.3180   33.6620 C   0  0  0  0  0  0  0  0  0  0  0  0
   38.1340   26.6660   34.8160 C   0  0  0  0  0  0  0  0  0  0  0  0
   38.0590   25.2670   34.8350 C   0  0  0  0  0  0  0  0  0  0  0  0
   37.5280   24.6480   33.7740 N   0  0  0  0  0  0  0  0  0  0  0  0
   37.0580   25.2770   32.6880 C   0  0  0  0  0  0  0  0  0  0  0  0
   37.1150   26.6270   32.6350 N   0  0  0  0  0  0  0  0  0  0  0  0
   37.7210   28.3970   33.7110 H   0  0  0  0  0  0  0  0  0  0  0  0
   38.5580   27.1960   35.6570 H   0  0  0  0  0  0  0  0  0  0  0  0
   38.5330   24.4830   35.9560 C   0  0  0  0  0  0  0  0  0  0  0  0
   37.8600   24.4670   37.1540 C   0  0  0  0  0  0  0  0  0  0  0  0
   38.2730   23.7400   38.2490 C   0  0  0  0  0  0  0  0  0  0  0  0
   39.4030   22.9950   38.1510 N   0  0  0  0  0  0  0  0  0  0  0  0
   40.0530   23.0160   36.9810 C   0  0  0  0  0  0  0  0  0  0  0  0
   39.6530   23.7240   35.9140 N   0  0  0  0  0  0  0  0  0  0  0  0
   36.9590   25.0180   37.3310 H   0  0  0  0  0  0  0  0  0  0  0  0
   37.7630   23.7140   39.1930 H   0  0  0  0  0  0  0  0  0  0  0  0
   41.2890   22.2100   36.8510 C   0  0  0  0  0  0  0  0  0  0  0  0
   41.3410   21.3490   37.9600 F   0  0  0  0  0  0  0  0  0  0  0  0
   41.3200   21.5030   35.6730 F   0  0  0  0  0  0  0  0  0  0  0  0
   42.4220   22.9850   36.9410 F   0  0  0  0  0  0  0  0  0  0  0  0
   36.5420   24.5090   31.6830 O   0  0  0  0  0  0  0  0  0  0  0  0
   37.2740   23.5010   31.1120 C   0  0  0  0  0  0  0  0  0  0  0  0
   38.4090   23.4190   30.4380 N   0  0  0  0  0  0  0  0  0  0  0  0
   38.9600   22.2980   29.9560 C   0  0  0  0  0  3  0  0  0  0  0  0
   38.3690   21.1000   30.1280 N   0  0  0  0  0  0  0  0  0  0  0  0
   37.2180   21.0850   30.7970 C   0  0  0  0  0  0  0  0  0  0  0  0
   36.6440   19.8420   30.9530 C   0  0  0  0  0  3  0  0  0  0  0  0
   35.4530   19.7330   31.6330 C   0  0  0  0  0  0  0  0  0  0  0  0
   35.0030   18.7570   31.7550 H   0  0  0  0  0  0  0  0  0  0  0  0
   34.8510   20.8540   32.1450 C   0  0  0  0  0  0  0  0  0  0  0  0
   33.8990   20.8120   32.6940 H   0  0  0  0  0  0  0  0  0  0  0  0
   35.4740   22.0650   31.9550 C   0  0  0  0  0  3  0  0  0  0  0  0
   36.6710   22.2570   31.2840 C   0  0  0  0  0  0  0  0  0  0  0  0
  1  7  1  0  0  0  0
  1  2  1  0  0  0  0
  2  3  2  0  0  0  0
  2  8  1  0  0  0  0
  3  9  1  0  0  0  0
  4  3  1  0  0  0  0
  5  4  2  0  0  0  0
  6  5  1  0  0  0  0
  6  1  2  0  0  0  0
  9 10  1  0  0  0  0
 10 15  1  0  0  0  0
 10 11  2  0  0  0  0
 11 16  1  0  0  0  0
 12 11  1  0  0  0  0
 13 12  2  0  0  0  0
 14  9  2  0  0  0  0
 14 13  1  0  0  0  0
 17 20  1  0  0  0  0
 17 13  1  0  0  0  0
 17 18  1  0  0  0  0
 19 17  1  0  0  0  0
 21  5  1  0  0  0  0
 22 33  1  0  0  0  0
 22 21  1  0  0  0  0
 23 22  2  0  0  0  0
 24 25  2  0  0  0  0
 24 23  1  0  0  0  0
 25 26  1  0  0  0  0
 26 27  2  0  0  0  0
 26 33  1  0  0  0  0
 27 28  1  0  0  0  0
 28 29  1  0  0  0  0
 28 30  2  0  0  0  0
 30 31  1  0  0  0  0
 32 30  1  0  0  0  0
 33 32  2  0  0  0  0
M  END
>  <minimizedAffinity>
-6.52720118

$$$$

 OpenBabel03272502263D

 33 36  0  0  0  0  0  0  0  0999 V2000
   36.5000   25.8510   31.7920 C   0  0  0  0  0  0  0  0  0  0  0  0
   36.0300   24.5680   31.4190 C   0  0  0  0  0  0  0  0  0  0  0  0
   36.6060   23.4680   32.0710 C   0  0  0  0  0  0  0  0  0  0  0  0
   37.5490   23.7020   32.9900 N   0  0  0  0  0  0  0  0  0  0  0  0
   37.9860   24.9220   33.3340 C   0  0  0  0  0  0  0  0  0  0  0  0
   37.4520   26.0060   32.7250 N   0  0  0  0  0  0  0  0  0  0  0  0
   36.0160   26.6550   31.2520 H   0  0  0  0  0  0  0  0  0  0  0  0
   35.2650   24.4120   30.6720 H   0  0  0  0  0  0  0  0  0  0  0  0
   36.2140   22.1060   31.7800 C   0  0  0  0  0  0  0  0  0  0  0  0
   35.1800   21.5000   32.4530 C   0  0  0  0  0  0  0  0  0  0  0  0
   34.7720   20.2050   32.2140 C   0  0  0  0  0  0  0  0  0  0  0  0
   35.4180   19.4810   31.2650 N   0  0  0  0  0  0  0  0  0  0  0  0
   36.4230   20.0790   30.6140 C   0  0  0  0  0  0  0  0  0  0  0  0
   36.8220   21.3380   30.8460 N   0  0  0  0  0  0  0  0  0  0  0  0
   34.6080   21.9860   33.2170 H   0  0  0  0  0  0  0  0  0  0  0  0
   33.9680   19.7130   32.7280 H   0  0  0  0  0  0  0  0  0  0  0  0
   37.1420   19.3070   29.5730 C   0  0  0  0  0  0  0  0  0  0  0  0
   38.1570   20.1360   29.0680 F   0  0  0  0  0  0  0  0  0  0  0  0
   37.6610   18.1360   30.0700 F   0  0  0  0  0  0  0  0  0  0  0  0
   36.3360   19.0220   28.4950 F   0  0  0  0  0  0  0  0  0  0  0  0
   38.9570   25.0040   34.2900 O   0  0  0  0  0  0  0  0  0  0  0  0
   38.7510   24.5210   35.5560 C   0  0  0  0  0  0  0  0  0  0  0  0
   37.8450   24.7040   36.5040 N   0  0  0  0  0  0  0  0  0  0  0  0
   37.8320   24.1140   37.7050 C   0  0  0  0  0  3  0  0  0  0  0  0
   38.7920   23.2400   38.0630 N   0  0  0  0  0  0  0  0  0  0  0  0
   39.7470   22.9920   37.1710 C   0  0  0  0  0  0  0  0  0  0  0  0
   40.7110   22.0930   37.5740 C   0  0  0  0  0  3  0  0  0  0  0  0
   41.7370   21.7780   36.7130 C   0  0  0  0  0  0  0  0  0  0  0  0
   42.4930   21.0720   37.0310 H   0  0  0  0  0  0  0  0  0  0  0  0
   41.7920   22.3570   35.4720 C   0  0  0  0  0  0  0  0  0  0  0  0
   42.5950   22.1340   34.7540 H   0  0  0  0  0  0  0  0  0  0  0  0
   40.8020   23.2470   35.1300 C   0  0  0  0  0  3  0  0  0  0  0  0
   39.7380   23.6160   35.9370 C   0  0  0  0  0  0  0  0  0  0  0  0
  1  6  1  0  0  0  0
  2  1  2  0  0  0  0
  2  3  1  0  0  0  0
  3  4  2  0  0  0  0
  4  5  1  0  0  0  0
  5 21  1  0  0  0  0
  6  5  2  0  0  0  0
  7  1  1  0  0  0  0
  8  2  1  0  0  0  0
  9  3  1  0  0  0  0
  9 10  1  0  0  0  0
 10 15  1  0  0  0  0
 11 10  2  0  0  0  0
 11 16  1  0  0  0  0
 12 11  1  0  0  0  0
 13 14  1  0  0  0  0
 13 12  2  0  0  0  0
 14  9  2  0  0  0  0
 17 19  1  0  0  0  0
 17 13  1  0  0  0  0
 18 17  1  0  0  0  0
 20 17  1  0  0  0  0
 21 22  1  0  0  0  0
 22 33  2  0  0  0  0
 22 23  1  0  0  0  0
 23 24  2  0  0  0  0
 24 25  1  0  0  0  0
 26 27  1  0  0  0  0
 26 25  2  0  0  0  0
 28 29  1  0  0  0  0
 28 27  2  0  0  0  0
 30 28  1  0  0  0  0
 31 30  1  0  0  0  0
 32 30  2  0  0  0  0
 32 33  1  0  0  0  0
 33 26  1  0  0  0  0
M  END
>  <minimizedAffinity>
-6.36997128

$$$$

 OpenBabel03272502263D

 33 36  0  0  0  0  0  0  0  0999 V2000
   37.0910   28.0070   31.8540 C   0  0  0  0  0  0  0  0  0  0  0  0
   36.1220   28.9980   32.1480 C   0  0  0  0  0  0  0  0  0  0  0  0
   35.6550   29.0540   33.4690 C   0  0  0  0  0  0  0  0  0  0  0  0
   36.1490   28.1780   34.3510 N   0  0  0  0  0  0  0  0  0  0  0  0
   37.0660   27.2450   34.0600 C   0  0  0  0  0  0  0  0  0  0  0  0
   37.5390   27.1620   32.7960 N   0  0  0  0  0  0  0  0  0  0  0  0
   37.4080   28.0160   30.8190 H   0  0  0  0  0  0  0  0  0  0  0  0
   35.7430   29.6910   31.4110 H   0  0  0  0  0  0  0  0  0  0  0  0
   34.6650   30.0190   33.8980 C   0  0  0  0  0  0  0  0  0  0  0  0
   33.6630   30.4370   33.0560 C   0  0  0  0  0  0  0  0  0  0  0  0
   32.7000   31.3550   33.4170 C   0  0  0  0  0  0  0  0  0  0  0  0
   32.7340   31.8800   34.6670 N   0  0  0  0  0  0  0  0  0  0  0  0
   33.7140   31.4670   35.4810 C   0  0  0  0  0  0  0  0  0  0  0  0
   34.6520   30.5750   35.1310 N   0  0  0  0  0  0  0  0  0  0  0  0
   33.5480   30.0810   32.0520 H   0  0  0  0  0  0  0  0  0  0  0  0
   31.9090   31.6950   32.7760 H   0  0  0  0  0  0  0  0  0  0  0  0
   33.7690   32.0280   36.8520 C   0  0  0  0  0  0  0  0  0  0  0  0
   32.8750   31.2840   37.6400 F   0  0  0  0  0  0  0  0  0  0  0  0
   35.0400   31.9860   37.3720 F   0  0  0  0  0  0  0  0  0  0  0  0
   33.3050   33.3210   36.8990 F   0  0  0  0  0  0  0  0  0  0  0  0
   37.4750   26.4190   35.0680 O   0  0  0  0  0  0  0  0  0  0  0  0
   38.4340   25.4630   34.8580 C   0  0  0  0  0  0  0  0  0  0  0  0
   39.2080   25.1030   33.8470 N   0  0  0  0  0  0  0  0  0  0  0  0
   40.1040   24.1090   33.8560 C   0  0  0  0  0  3  0  0  0  0  0  0
   40.2980   23.3550   34.9540 N   0  0  0  0  0  0  0  0  0  0  0  0
   39.5620   23.6440   36.0240 C   0  0  0  0  0  0  0  0  0  0  0  0
   39.7890   22.8510   37.1270 C   0  0  0  0  0  3  0  0  0  0  0  0
   39.0720   23.0810   38.2790 C   0  0  0  0  0  0  0  0  0  0  0  0
   39.2510   22.4580   39.1450 H   0  0  0  0  0  0  0  0  0  0  0  0
   38.1420   24.0890   38.3180 C   0  0  0  0  0  0  0  0  0  0  0  0
   37.5470   24.3050   39.2170 H   0  0  0  0  0  0  0  0  0  0  0  0
   37.9620   24.8440   37.1830 C   0  0  0  0  0  3  0  0  0  0  0  0
   38.6430   24.6770   35.9880 C   0  0  0  0  0  0  0  0  0  0  0  0
  1  2  2  0  0  0  0
  1  6  1  0  0  0  0
  2  3  1  0  0  0  0
  3  9  1  0  0  0  0
  3  4  2  0  0  0  0
  5  4  1  0  0  0  0
  5 21  1  0  0  0  0
  6  5  2  0  0  0  0
  7  1  1  0  0  0  0
  8  2  1  0  0  0  0
  9 14  1  0  0  0  0
 10 11  1  0  0  0  0
 10  9  2  0  0  0  0
 11 12  2  0  0  0  0
 12 13  1  0  0  0  0
 13 17  1  0  0  0  0
 14 13  2  0  0  0  0
 15 10  1  0  0  0  0
 16 11  1  0  0  0  0
 17 20  1  0  0  0  0
 17 19  1  0  0  0  0
 17 18  1  0  0  0  0
 22 21  1  0  0  0  0
 22 33  1  0  0  0  0
 23 24  1  0  0  0  0
 23 22  2  0  0  0  0
 24 25  2  0  0  0  0
 25 26  1  0  0  0  0
 26 27  1  0  0  0  0
 27 28  2  0  0  0  0
 28 30  1  0  0  0  0
 28 29  1  0  0  0  0
 30 31  1  0  0  0  0
 32 30  2  0  0  0  0
 33 26  2  0  0  0  0
 33 32  1  0  0  0  0
M  END
>  <minimizedAffinity>
-6.32699108

$$$$

 OpenBabel03272502263D

 33 36  0  0  0  0  0  0  0  0999 V2000
   36.8240   28.3540   30.2550 C   0  0  0  0  0  0  0  0  0  0  0  0
   37.2180   27.1360   30.8610 C   0  0  0  0  0  0  0  0  0  0  0  0
   37.0060   27.0180   32.2420 C   0  0  0  0  0  0  0  0  0  0  0  0
   36.4520   28.0500   32.8860 N   0  0  0  0  0  0  0  0  0  0  0  0
   36.0830   29.1980   32.3010 C   0  0  0  0  0  0  0  0  0  0  0  0
   36.2730   29.3470   30.9700 N   0  0  0  0  0  0  0  0  0  0  0  0
   37.0160   28.3810   29.1900 H   0  0  0  0  0  0  0  0  0  0  0  0
   37.6640   26.3190   30.3120 H   0  0  0  0  0  0  0  0  0  0  0  0
   37.3660   25.8250   32.9790 C   0  0  0  0  0  0  0  0  0  0  0  0
   37.4750   24.6050   32.3560 C   0  0  0  0  0  0  0  0  0  0  0  0
   37.8120   23.4420   33.0150 C   0  0  0  0  0  0  0  0  0  0  0  0
   38.0510   23.4930   34.3500 N   0  0  0  0  0  0  0  0  0  0  0  0
   37.9430   24.6850   34.9480 C   0  0  0  0  0  0  0  0  0  0  0  0
   37.6150   25.8180   34.3090 N   0  0  0  0  0  0  0  0  0  0  0  0
   37.3080   24.4600   31.3080 H   0  0  0  0  0  0  0  0  0  0  0  0
   37.9020   22.4800   32.5480 H   0  0  0  0  0  0  0  0  0  0  0  0
   38.2010   24.7640   36.4060 C   0  0  0  0  0  0  0  0  0  0  0  0
   37.1050   24.1690   37.0530 F   0  0  0  0  0  0  0  0  0  0  0  0
   39.3770   24.1440   36.7530 F   0  0  0  0  0  0  0  0  0  0  0  0
   38.2260   26.0630   36.8550 F   0  0  0  0  0  0  0  0  0  0  0  0
   35.5300   30.1660   33.0910 O   0  0  0  0  0  0  0  0  0  0  0  0
   34.3000   29.9930   33.6690 C   0  0  0  0  0  0  0  0  0  0  0  0
   33.1890   29.3440   33.3590 N   0  0  0  0  0  0  0  0  0  0  0  0
   32.0680   29.3080   34.0890 C   0  0  0  0  0  3  0  0  0  0  0  0
   31.9770   29.9640   35.2610 N   0  0  0  0  0  0  0  0  0  0  0  0
   33.0480   30.6470   35.6560 C   0  0  0  0  0  0  0  0  0  0  0  0
   32.9160   31.3050   36.8590 C   0  0  0  0  0  3  0  0  0  0  0  0
   33.9770   32.0350   37.3450 C   0  0  0  0  0  0  0  0  0  0  0  0
   33.8730   32.5510   38.2900 H   0  0  0  0  0  0  0  0  0  0  0  0
   35.1470   32.1020   36.6320 C   0  0  0  0  0  0  0  0  0  0  0  0
   36.0170   32.6750   36.9830 H   0  0  0  0  0  0  0  0  0  0  0  0
   35.2140   31.4240   35.4380 C   0  0  0  0  0  3  0  0  0  0  0  0
   34.1940   30.6680   34.8830 C   0  0  0  0  0  0  0  0  0  0  0  0
  1  2  2  0  0  0  0
  1  6  1  0  0  0  0
  2  3  1  0  0  0  0
  3  4  2  0  0  0  0
  3  9  1  0  0  0  0
  5  4  1  0  0  0  0
  5 21  1  0  0  0  0
  6  5  2  0  0  0  0
  7  1  1  0  0  0  0
  8  2  1  0  0  0  0
  9 14  1  0  0  0  0
 10  9  2  0  0  0  0
 10 11  1  0  0  0  0
 11 12  2  0  0  0  0
 12 13  1  0  0  0  0
 13 17  1  0  0  0  0
 14 13  2  0  0  0  0
 15 10  1  0  0  0  0
 16 11  1  0  0  0  0
 17 19  1  0  0  0  0
 17 20  1  0  0  0  0
 17 18  1  0  0  0  0
 21 22  1  0  0  0  0
 22 33  1  0  0  0  0
 23 22  2  0  0  0  0
 23 24  1  0  0  0  0
 24 25  2  0  0  0  0
 25 26  1  0  0  0  0
 26 27  1  0  0  0  0
 27 28  2  0  0  0  0
 28 29  1  0  0  0  0
 30 31  1  0  0  0  0
 30 28  1  0  0  0  0
 32 30  2  0  0  0  0
 33 32  1  0  0  0  0
 33 26  2  0  0  0  0
M  END
>  <minimizedAffinity>
-6.30371618

$$$$

 OpenBabel03272502263D

 33 36  0  0  0  0  0  0  0  0999 V2000
   36.5340   24.9530   31.7980 C   0  0  0  0  0  0  0  0  0  0  0  0
   35.9970   26.2640   31.7580 C   0  0  0  0  0  0  0  0  0  0  0  0
   36.5370   27.1970   32.6540 C   0  0  0  0  0  0  0  0  0  0  0  0
   37.5120   26.7920   33.4760 N   0  0  0  0  0  0  0  0  0  0  0  0
   38.0110   25.5490   33.5050 C   0  0  0  0  0  0  0  0  0  0  0  0
   37.5130   24.6220   32.6540 N   0  0  0  0  0  0  0  0  0  0  0  0
   36.0740   24.2830   31.0830 H   0  0  0  0  0  0  0  0  0  0  0  0
   35.2090   26.5600   31.0800 H   0  0  0  0  0  0  0  0  0  0  0  0
   36.0750   28.5680   32.7130 C   0  0  0  0  0  0  0  0  0  0  0  0
   35.7350   29.2570   31.5740 C   0  0  0  0  0  0  0  0  0  0  0  0
   35.2930   30.5620   31.5780 C   0  0  0  0  0  0  0  0  0  0  0  0
   35.1840   31.2110   32.7650 N   0  0  0  0  0  0  0  0  0  0  0  0
   35.5170   30.5320   33.8690 C   0  0  0  0  0  0  0  0  0  0  0  0
   35.9480   29.2620   33.8670 N   0  0  0  0  0  0  0  0  0  0  0  0
   35.7850   28.8340   30.5910 H   0  0  0  0  0  0  0  0  0  0  0  0
   35.0220   31.1190   30.7010 H   0  0  0  0  0  0  0  0  0  0  0  0
   35.4040   31.2210   35.1770 C   0  0  0  0  0  0  0  0  0  0  0  0
   36.4650   30.7660   35.9780 F   0  0  0  0  0  0  0  0  0  0  0  0
   35.4380   32.5880   35.0410 F   0  0  0  0  0  0  0  0  0  0  0  0
   34.2610   30.8630   35.8510 F   0  0  0  0  0  0  0  0  0  0  0  0
   39.0060   25.2840   34.4020 O   0  0  0  0  0  0  0  0  0  0  0  0
   38.7370   24.6770   35.6010 C   0  0  0  0  0  0  0  0  0  0  0  0
   37.7570   24.7240   36.4890 N   0  0  0  0  0  0  0  0  0  0  0  0
   37.6930   24.0260   37.6290 C   0  0  0  0  0  3  0  0  0  0  0  0
   38.6750   23.1760   37.9830 N   0  0  0  0  0  0  0  0  0  0  0  0
   39.7050   23.0620   37.1490 C   0  0  0  0  0  0  0  0  0  0  0  0
   40.6890   22.1830   37.5450 C   0  0  0  0  0  3  0  0  0  0  0  0
   41.7930   22.0030   36.7420 C   0  0  0  0  0  0  0  0  0  0  0  0
   42.5640   21.3120   37.0530 H   0  0  0  0  0  0  0  0  0  0  0  0
   41.9020   22.6960   35.5630 C   0  0  0  0  0  0  0  0  0  0  0  0
   42.7670   22.5820   34.8930 H   0  0  0  0  0  0  0  0  0  0  0  0
   40.8870   23.5590   35.2250 C   0  0  0  0  0  3  0  0  0  0  0  0
   39.7470   23.7950   35.9770 C   0  0  0  0  0  0  0  0  0  0  0  0
  1  6  1  0  0  0  0
  2  1  2  0  0  0  0
  2  3  1  0  0  0  0
  3  9  1  0  0  0  0
  3  4  2  0  0  0  0
  4  5  1  0  0  0  0
  5 21  1  0  0  0  0
  6  5  2  0  0  0  0
  7  1  1  0  0  0  0
  8  2  1  0  0  0  0
  9 14  1  0  0  0  0
 10 11  1  0  0  0  0
 10  9  2  0  0  0  0
 11 12  2  0  0  0  0
 12 13  1  0  0  0  0
 13 17  1  0  0  0  0
 14 13  2  0  0  0  0
 15 10  1  0  0  0  0
 16 11  1  0  0  0  0
 17 20  1  0  0  0  0
 17 18  1  0  0  0  0
 19 17  1  0  0  0  0
 21 22  1  0  0  0  0
 22 33  2  0  0  0  0
 22 23  1  0  0  0  0
 23 24  2  0  0  0  0
 24 25  1  0  0  0  0
 26 27  1  0  0  0  0
 26 25  2  0  0  0  0
 28 29  1  0  0  0  0
 28 27  2  0  0  0  0
 30 28  1  0  0  0  0
 31 30  1  0  0  0  0
 32 30  2  0  0  0  0
 32 33  1  0  0  0  0
 33 26  1  0  0  0  0
M  END
>  <minimizedAffinity>
-6.25466156

$$$$

 OpenBabel03272502263D

 33 36  0  0  0  0  0  0  0  0999 V2000
   37.0560   26.9750   30.7230 C   0  0  0  0  0  0  0  0  0  0  0  0
   37.4880   26.0910   31.7420 C   0  0  0  0  0  0  0  0  0  0  0  0
   37.2830   26.5030   33.0660 C   0  0  0  0  0  0  0  0  0  0  0  0
   36.6990   27.6880   33.2750 N   0  0  0  0  0  0  0  0  0  0  0  0
   36.2940   28.5150   32.3020 C   0  0  0  0  0  0  0  0  0  0  0  0
   36.4770   28.1500   31.0120 N   0  0  0  0  0  0  0  0  0  0  0  0
   37.2440   26.5980   29.7250 H   0  0  0  0  0  0  0  0  0  0  0  0
   37.9570   25.1380   31.5390 H   0  0  0  0  0  0  0  0  0  0  0  0
   37.6800   25.6920   34.1970 C   0  0  0  0  0  0  0  0  0  0  0  0
   37.8320   26.2370   35.4490 C   0  0  0  0  0  0  0  0  0  0  0  0
   38.2110   25.5080   36.5560 C   0  0  0  0  0  0  0  0  0  0  0  0
   38.4480   24.1790   36.4130 N   0  0  0  0  0  0  0  0  0  0  0  0
   38.2980   23.6560   35.1900 C   0  0  0  0  0  0  0  0  0  0  0  0
   37.9300   24.3650   34.1120 N   0  0  0  0  0  0  0  0  0  0  0  0
   37.6670   27.2730   35.6660 H   0  0  0  0  0  0  0  0  0  0  0  0
   38.3360   25.9130   37.5420 H   0  0  0  0  0  0  0  0  0  0  0  0
   38.5510   22.2070   35.0110 C   0  0  0  0  0  0  0  0  0  0  0  0
   39.1030   21.7310   36.2130 F   0  0  0  0  0  0  0  0  0  0  0  0
   37.4060   21.5220   34.6870 F   0  0  0  0  0  0  0  0  0  0  0  0
   39.5080   21.9660   34.0530 F   0  0  0  0  0  0  0  0  0  0  0  0
   35.7130   29.6950   32.6710 O   0  0  0  0  0  0  0  0  0  0  0  0
   34.5000   29.7220   33.3060 C   0  0  0  0  0  0  0  0  0  0  0  0
   33.2980   29.2200   33.0750 N   0  0  0  0  0  0  0  0  0  0  0  0
   32.2180   29.3730   33.8510 C   0  0  0  0  0  3  0  0  0  0  0  0
   32.2730   30.0880   34.9900 N   0  0  0  0  0  0  0  0  0  0  0  0
   33.4450   30.6330   35.3060 C   0  0  0  0  0  0  0  0  0  0  0  0
   33.4620   31.3580   36.4780 C   0  0  0  0  0  3  0  0  0  0  0  0
   34.6340   31.9550   36.8810 C   0  0  0  0  0  0  0  0  0  0  0  0
   34.6460   32.5240   37.8010 H   0  0  0  0  0  0  0  0  0  0  0  0
   35.7670   31.8260   36.1190 C   0  0  0  0  0  0  0  0  0  0  0  0
   36.7230   32.2880   36.4040 H   0  0  0  0  0  0  0  0  0  0  0  0
   35.6840   31.0910   34.9600 C   0  0  0  0  0  3  0  0  0  0  0  0
   34.5450   30.4600   34.4870 C   0  0  0  0  0  0  0  0  0  0  0  0
  1  6  2  0  0  0  0
  1  2  1  0  0  0  0
  2  3  2  0  0  0  0
  3  4  1  0  0  0  0
  3  9  1  0  0  0  0
  5 21  1  0  0  0  0
  5  4  2  0  0  0  0
  6  5  1  0  0  0  0
  7  1  1  0  0  0  0
  8  2  1  0  0  0  0
  9 10  1  0  0  0  0
 10 15  1  0  0  0  0
 10 11  2  0  0  0  0
 11 16  1  0  0  0  0
 12 11  1  0  0  0  0
 13 12  2  0  0  0  0
 14  9  2  0  0  0  0
 14 13  1  0  0  0  0
 17 13  1  0  0  0  0
 17 18  1  0  0  0  0
 19 17  1  0  0  0  0
 20 17  1  0  0  0  0
 21 22  1  0  0  0  0
 22 33  1  0  0  0  0
 23 22  2  0  0  0  0
 23 24  1  0  0  0  0
 24 25  2  0  0  0  0
 25 26  1  0  0  0  0
 26 27  1  0  0  0  0
 27 28  2  0  0  0  0
 28 29  1  0  0  0  0
 30 31  1  0  0  0  0
 30 28  1  0  0  0  0
 32 30  2  0  0  0  0
 33 32  1  0  0  0  0
 33 26  2  0  0  0  0
M  END
>  <minimizedAffinity>
-6.16360474

$$$$

 OpenBabel03272502263D

 33 36  0  0  0  0  0  0  0  0999 V2000
   37.0040   28.3710   31.7970 C   0  0  0  0  0  0  0  0  0  0  0  0
   37.8200   27.3760   32.3890 C   0  0  0  0  0  0  0  0  0  0  0  0
   37.5660   27.0650   33.7320 C   0  0  0  0  0  0  0  0  0  0  0  0
   36.5800   27.7200   34.3560 N   0  0  0  0  0  0  0  0  0  0  0  0
   35.8140   28.6590   33.7840 C   0  0  0  0  0  0  0  0  0  0  0  0
   36.0320   28.9850   32.4900 N   0  0  0  0  0  0  0  0  0  0  0  0
   37.2520   28.5640   30.7610 H   0  0  0  0  0  0  0  0  0  0  0  0
   38.6100   26.8650   31.8560 H   0  0  0  0  0  0  0  0  0  0  0  0
   38.3300   26.0690   34.4520 C   0  0  0  0  0  0  0  0  0  0  0  0
   39.5340   25.6080   33.9750 C   0  0  0  0  0  0  0  0  0  0  0  0
   40.2960   24.6590   34.6220 C   0  0  0  0  0  0  0  0  0  0  0  0
   39.8440   24.1460   35.7940 N   0  0  0  0  0  0  0  0  0  0  0  0
   38.6710   24.6010   36.2520 C   0  0  0  0  0  0  0  0  0  0  0  0
   37.9270   25.5230   35.6230 N   0  0  0  0  0  0  0  0  0  0  0  0
   39.9770   25.9500   33.0620 H   0  0  0  0  0  0  0  0  0  0  0  0
   41.2370   24.2860   34.2670 H   0  0  0  0  0  0  0  0  0  0  0  0
   38.1580   24.0550   37.5310 C   0  0  0  0  0  0  0  0  0  0  0  0
   39.0800   23.0880   37.9680 F   0  0  0  0  0  0  0  0  0  0  0  0
   37.9860   25.0370   38.4760 F   0  0  0  0  0  0  0  0  0  0  0  0
   36.9730   23.3770   37.3630 F   0  0  0  0  0  0  0  0  0  0  0  0
   34.8450   29.2420   34.5500 O   0  0  0  0  0  0  0  0  0  0  0  0
   35.0530   30.4520   35.1580 C   0  0  0  0  0  0  0  0  0  0  0  0
   36.0930   31.2460   35.3580 N   0  0  0  0  0  0  0  0  0  0  0  0
   36.0750   32.4210   35.9990 C   0  0  0  0  0  3  0  0  0  0  0  0
   34.9350   32.9150   36.5190 N   0  0  0  0  0  0  0  0  0  0  0  0
   33.8340   32.1830   36.3670 C   0  0  0  0  0  0  0  0  0  0  0  0
   32.6890   32.7200   36.9130 C   0  0  0  0  0  3  0  0  0  0  0  0
   31.5040   32.0300   36.8020 C   0  0  0  0  0  0  0  0  0  0  0  0
   30.6060   32.4530   37.2300 H   0  0  0  0  0  0  0  0  0  0  0  0
   31.4730   30.8210   36.1530 C   0  0  0  0  0  0  0  0  0  0  0  0
   30.5480   30.2370   36.0430 H   0  0  0  0  0  0  0  0  0  0  0  0
   32.6500   30.3390   35.6310 C   0  0  0  0  0  3  0  0  0  0  0  0
   33.8810   30.9720   35.7010 C   0  0  0  0  0  0  0  0  0  0  0  0
  1  2  2  0  0  0  0
  1  6  1  0  0  0  0
  2  3  1  0  0  0  0
  3  4  2  0  0  0  0
  3  9  1  0  0  0  0
  5  4  1  0  0  0  0
  5 21  1  0  0  0  0
  6  5  2  0  0  0  0
  7  1  1  0  0  0  0
  8  2  1  0  0  0  0
  9 14  1  0  0  0  0
 10  9  2  0  0  0  0
 10 11  1  0  0  0  0
 11 12  2  0  0  0  0
 12 13  1  0  0  0  0
 13 17  1  0  0  0  0
 14 13  2  0  0  0  0
 15 10  1  0  0  0  0
 16 11  1  0  0  0  0
 17 18  1  0  0  0  0
 17 19  1  0  0  0  0
 20 17  1  0  0  0  0
 21 22  1  0  0  0  0
 22 23  2  0  0  0  0
 22 33  1  0  0  0  0
 23 24  1  0  0  0  0
 24 25  2  0  0  0  0
 26 25  1  0  0  0  0
 26 27  1  0  0  0  0
 28 27  2  0  0  0  0
 28 29  1  0  0  0  0
 30 28  1  0  0  0  0
 31 30  1  0  0  0  0
 32 33  1  0  0  0  0
 32 30  2  0  0  0  0
 33 26  2  0  0  0  0
M  END
>  <minimizedAffinity>
-6.11159277

$$$$
