
 OpenBabel03272503303D

 37 40  0  0  1  0  0  0  0  0999 V2000
   34.9840   29.4090   48.0000 C   0  0  0  0  0  0  0  0  0  0  0  0
   34.8450   29.9170   46.6950 C   0  0  0  0  0  0  0  0  0  0  0  0
   33.6590   29.6250   46.0280 C   0  0  0  0  0  0  0  0  0  0  0  0
   32.7180   28.8690   46.6880 N   0  0  0  0  0  0  0  0  0  0  0  0
   32.8920   28.4090   47.9240 C   0  0  0  0  0  0  0  0  0  0  0  0
   34.0280   28.6800   48.5830 N   0  0  0  0  0  0  0  0  0  0  0  0
   35.6190   30.5070   46.2240 H   0  0  0  0  0  0  0  0  0  0  0  0
   33.4800   29.9790   45.0260 H   0  0  0  0  0  0  0  0  0  0  0  0
   36.2080   29.7120   48.6830 N   0  0  0  0  0  0  0  0  0  0  0  0
   37.3150   30.4750   48.1860 C   0  0  0  0  0  0  0  0  0  0  0  0
   37.9200   31.0500   49.4580 C   0  0  2  0  0  0  0  0  0  0  0  0
   37.0060   30.6290   50.5840 C   0  0  0  0  0  0  0  0  0  0  0  0
   36.5500   29.2920   50.0250 C   0  0  0  0  0  0  0  0  0  0  0  0
   37.0070   31.2950   47.5130 H   0  0  0  0  0  0  0  0  0  0  0  0
   38.0220   29.8230   47.6430 H   0  0  0  0  0  0  0  0  0  0  0  0
   38.9020   30.5740   49.6070 H   0  0  0  0  0  0  0  0  0  0  0  0
   36.1660   31.3000   50.7670 H   0  0  0  0  0  0  0  0  0  0  0  0
   37.6320   30.4010   51.4680 H   0  0  0  0  0  0  0  0  0  0  0  0
   35.6440   28.9940   50.5970 H   0  0  0  0  0  0  0  0  0  0  0  0
   37.3680   28.5560   50.0720 H   0  0  0  0  0  0  0  0  0  0  0  0
   38.0990   32.5420   49.3870 C   0  0  0  0  0  0  0  0  0  0  0  0
   36.9530   33.1030   49.9370 F   0  0  0  0  0  0  0  0  0  0  0  0
   38.0930   32.8940   48.0530 F   0  0  0  0  0  0  0  0  0  0  0  0
   39.2390   32.9790   49.9940 F   0  0  0  0  0  0  0  0  0  0  0  0
   31.6310   27.4320   48.7200 S   0  0  0  0  0  0  0  0  0  0  0  0
   30.1210   27.5870   47.7800 C   0  0  0  0  0  0  0  0  0  0  0  0
   29.3930   28.6850   48.1080 N   0  0  0  0  0  0  0  0  0  0  0  0
   28.2220   28.9510   47.4890 C   0  0  0  0  0  3  0  0  0  0  0  0
   27.7660   28.1230   46.5360 N   0  0  0  0  0  0  0  0  0  0  0  0
   28.4670   27.0100   46.1790 C   0  0  0  0  0  0  0  0  0  0  0  0
   28.0480   26.1160   45.2010 C   0  0  0  0  0  3  0  0  0  0  0  0
   28.8390   25.0110   44.9130 C   0  0  0  0  0  0  0  0  0  0  0  0
   28.4080   24.3950   44.1390 H   0  0  0  0  0  0  0  0  0  0  0  0
   30.0300   24.7670   45.5610 C   0  0  0  0  0  0  0  0  0  0  0  0
   30.5930   23.8980   45.2920 H   0  0  0  0  0  0  0  0  0  0  0  0
   30.4750   25.6470   46.5460 C   0  0  0  0  0  3  0  0  0  0  0  0
   29.6630   26.7310   46.8050 C   0  0  0  0  0  0  0  0  0  0  0  0
  1  6  1  0  0  0  0
  1  9  1  0  0  0  0
  2  1  2  0  0  0  0
  3  4  2  0  0  0  0
  3  2  1  0  0  0  0
  4  5  1  0  0  0  0
  5  6  2  0  0  0  0
  5 25  1  0  0  0  0
  7  2  1  0  0  0  0
  8  3  1  0  0  0  0
  9 13  1  0  0  0  0
 10  9  1  0  0  0  0
 10 11  1  0  0  0  0
 11 16  1  1  0  0  0
 11 12  1  0  0  0  0
 12 17  1  0  0  0  0
 12 18  1  0  0  0  0
 13 20  1  0  0  0  0
 13 12  1  0  0  0  0
 13 19  1  0  0  0  0
 14 10  1  0  0  0  0
 15 10  1  0  0  0  0
 21 11  1  0  0  0  0
 21 22  1  0  0  0  0
 21 24  1  0  0  0  0
 23 21  1  0  0  0  0
 26 27  1  0  0  0  0
 26 25  1  0  0  0  0
 28 27  2  0  0  0  0
 29 28  1  0  0  0  0
 30 29  2  0  0  0  0
 30 37  1  0  0  0  0
 31 30  1  0  0  0  0
 32 31  2  0  0  0  0
 32 34  1  0  0  0  0
 33 32  1  0  0  0  0
 34 36  2  0  0  0  0
 35 34  1  0  0  0  0
 36 37  1  0  0  0  0
 37 26  2  0  0  0  0
M  END
>  <minimizedAffinity>
-6.38124561

>  <minimizedRMSD>
0.884641707

$$$$
