
 OpenBabel03272502263D

 43 47  0  0  0  0  0  0  0  0999 V2000
   33.7550   26.5720   46.8230 N   0  0  0  0  0  0  0  0  0  0  0  0
   34.3240   26.7500   48.0230 C   0  0  0  0  0  0  0  0  0  0  0  0
   34.2340   27.9890   48.6440 C   0  0  0  0  0  0  0  0  0  0  0  0
   33.5560   29.0120   48.0020 C   0  0  0  0  0  0  0  0  0  0  0  0
   33.3560   30.1990   48.3820 O   0  0  0  0  0  0  0  0  0  0  0  0
   33.0000   28.7830   46.7900 N   0  0  0  0  0  0  0  0  0  0  0  0
   33.0980   27.5620   46.1990 C   0  0  0  0  0  0  0  0  0  0  0  0
   32.5920   27.3030   45.0650 O   0  0  0  0  0  0  0  0  0  0  0  0
   33.8360   25.6330   46.3780 H   0  0  0  0  0  0  0  0  0  0  0  0
   34.8590   26.0220   48.5830 H   0  0  0  0  0  0  0  0  0  0  0  0
   32.2830   29.7430   46.0350 C   0  0  0  0  0  0  0  0  0  0  0  0
   32.6000   31.0550   46.0250 N   0  0  0  0  0  0  0  0  0  0  0  0
   31.9170   31.9690   45.3040 C   0  0  0  0  0  3  0  0  0  0  0  0
   30.8560   31.5840   44.5410 N   0  0  0  0  0  0  0  0  0  0  0  0
   30.5090   30.2820   44.5240 C   0  0  0  0  0  0  0  0  0  0  0  0
   29.4310   29.8910   43.7490 C   0  0  0  0  0  3  0  0  0  0  0  0
   29.0390   28.5700   43.7000 C   0  0  0  0  0  0  0  0  0  0  0  0
   28.1920   28.2650   43.0890 H   0  0  0  0  0  0  0  0  0  0  0  0
   29.7230   27.6190   44.4290 C   0  0  0  0  0  0  0  0  0  0  0  0
   29.3750   26.6030   44.3550 H   0  0  0  0  0  0  0  0  0  0  0  0
   30.7960   28.0300   45.1960 C   0  0  0  0  0  3  0  0  0  0  0  0
   31.2070   29.3470   45.2610 C   0  0  0  0  0  0  0  0  0  0  0  0
   34.7440   28.3800   49.8680 O   0  0  0  0  0  0  0  0  0  0  0  0
   37.6610   30.1860   50.9940 C   0  0  0  0  0  0  0  0  0  0  0  0
   38.1230   30.7500   49.7960 C   0  0  0  0  0  0  0  0  0  0  0  0
   37.3990   30.4780   48.6460 C   0  0  0  0  0  0  0  0  0  0  0  0
   36.3140   29.6970   48.7640 N   0  0  0  0  0  0  0  0  0  0  0  0
   35.8860   29.1640   49.9230 C   0  0  0  0  0  0  0  0  0  0  0  0
   36.5740   29.4160   51.0550 N   0  0  0  0  0  0  0  0  0  0  0  0
   38.2240   30.3950   51.9070 H   0  0  0  0  0  0  0  0  0  0  0  0
   38.9920   31.3660   49.7470 H   0  0  0  0  0  0  0  0  0  0  0  0
   37.7540   31.0050   47.3470 C   0  0  0  0  0  0  0  0  0  0  0  0
   36.9980   30.6950   46.2220 C   0  0  0  0  0  0  0  0  0  0  0  0
   37.2830   31.1730   44.9710 C   0  0  0  0  0  0  0  0  0  0  0  0
   38.3530   31.9880   44.8100 N   0  0  0  0  0  0  0  0  0  0  0  0
   39.0720   32.2760   45.9060 C   0  0  0  0  0  0  0  0  0  0  0  0
   38.8120   31.8190   47.1500 N   0  0  0  0  0  0  0  0  0  0  0  0
   36.1220   30.0400   46.3060 H   0  0  0  0  0  0  0  0  0  0  0  0
   36.7000   30.9380   44.0880 H   0  0  0  0  0  0  0  0  0  0  0  0
   40.2540   33.1680   45.7620 C   0  0  0  0  0  0  0  0  0  0  0  0
   40.3480   33.9360   46.9440 F   0  0  0  0  0  0  0  0  0  0  0  0
   41.3950   32.4580   45.5340 F   0  0  0  0  0  0  0  0  0  0  0  0
   40.0700   34.0970   44.7520 F   0  0  0  0  0  0  0  0  0  0  0  0
  1  2  1  0  0  0  0
  2 10  1  0  0  0  0
  2  3  2  0  0  0  0
  3 23  1  0  0  0  0
  4  5  2  0  0  0  0
  4  3  1  0  0  0  0
  6  4  1  0  0  0  0
  7  6  1  0  0  0  0
  7  1  1  0  0  0  0
  8  7  2  0  0  0  0
  9  1  1  0  0  0  0
 11  6  1  0  0  0  0
 12 11  1  0  0  0  0
 13 12  2  0  0  0  0
 14 13  1  0  0  0  0
 15 14  2  0  0  0  0
 15 22  1  0  0  0  0
 16 15  1  0  0  0  0
 17 16  2  0  0  0  0
 17 19  1  0  0  0  0
 18 17  1  0  0  0  0
 19 21  2  0  0  0  0
 20 19  1  0  0  0  0
 21 22  1  0  0  0  0
 22 11  2  0  0  0  0
 23 28  1  0  0  0  0
 24 29  1  0  0  0  0
 24 30  1  0  0  0  0
 25 24  2  0  0  0  0
 26 27  2  0  0  0  0
 26 25  1  0  0  0  0
 27 28  1  0  0  0  0
 28 29  2  0  0  0  0
 31 25  1  0  0  0  0
 32 26  1  0  0  0  0
 33 38  1  0  0  0  0
 33 32  2  0  0  0  0
 34 33  1  0  0  0  0
 35 34  2  0  0  0  0
 35 36  1  0  0  0  0
 36 37  2  0  0  0  0
 37 32  1  0  0  0  0
 39 34  1  0  0  0  0
 40 36  1  0  0  0  0
 40 41  1  0  0  0  0
 42 40  1  0  0  0  0
 43 40  1  0  0  0  0
M  END
>  <minimizedAffinity>
-6.74489307

>  <minimizedRMSD>
1.31739199

$$$$
