
 OpenBabel03272507303D

 32 35  0  0  0  0  0  0  0  0999 V2000
   35.9230   29.3210   49.6980 C   0  0  0  0  0  0  0  0  0  0  0  0
   34.9870   29.4680   50.6580 C   0  0  0  0  0  0  0  0  0  0  0  0
   33.7490   29.0740   50.1500 C   0  0  0  0  0  0  0  0  0  0  0  0
   34.0290   28.6860   48.8230 C   0  0  0  0  0  0  0  0  0  0  0  0
   35.2880   28.8690   48.6820 O   0  0  0  0  0  0  0  0  0  0  0  0
   34.9760   29.8050   51.6840 H   0  0  0  0  0  0  0  0  0  0  0  0
   32.7610   29.0410   50.5920 H   0  0  0  0  0  0  0  0  0  0  0  0
   37.3160   29.6400   49.8880 C   0  0  0  0  0  0  0  0  0  0  0  0
   37.9560   29.0430   50.7640 O   0  0  0  0  0  0  0  0  0  0  0  0
   37.8830   30.6640   49.0150 C   0  0  0  0  0  0  0  0  0  0  0  0
   38.1790   31.8870   49.6380 C   0  0  0  0  0  0  0  0  0  0  0  0
   38.7250   32.8850   48.8250 C   0  0  0  0  0  0  0  0  0  0  0  0
   38.9380   32.6340   47.5070 N   0  0  0  0  0  0  0  0  0  0  0  0
   38.6310   31.4320   46.9600 C   0  0  0  0  0  0  0  0  0  0  0  0
   38.1120   30.4630   47.7080 N   0  0  0  0  0  0  0  0  0  0  0  0
   38.0100   32.0890   50.6850 H   0  0  0  0  0  0  0  0  0  0  0  0
   38.9850   33.8670   49.2250 H   0  0  0  0  0  0  0  0  0  0  0  0
   38.7890   31.2040   45.9220 H   0  0  0  0  0  0  0  0  0  0  0  0
   33.0190   28.1870   47.8820 C   0  0  0  0  0  0  0  0  0  0  0  0
   31.9830   27.6390   48.3290 O   0  0  0  0  0  0  0  0  0  0  0  0
   32.8960   28.1530   46.4460 C   0  0  0  0  0  0  0  0  0  0  0  0
   33.1070   26.9480   45.8680 N   0  0  0  0  0  0  0  0  0  0  0  0
   33.0310   26.7410   44.5210 C   0  0  0  0  0  3  0  0  0  0  0  0
   32.7360   27.7630   43.7110 N   0  0  0  0  0  0  0  0  0  0  0  0
   32.5060   28.9980   44.1840 C   0  0  0  0  0  0  0  0  0  0  0  0
   32.1690   30.0540   43.3660 C   0  0  0  0  0  3  0  0  0  0  0  0
   31.9040   31.2970   43.8720 C   0  0  0  0  0  0  0  0  0  0  0  0
   31.6410   32.1250   43.2320 H   0  0  0  0  0  0  0  0  0  0  0  0
   31.9920   31.4380   45.2550 C   0  0  0  0  0  0  0  0  0  0  0  0
   31.7750   32.4320   45.6330 H   0  0  0  0  0  0  0  0  0  0  0  0
   32.3310   30.3640   46.0430 C   0  0  0  0  0  3  0  0  0  0  0  0
   32.6010   29.1190   45.5470 C   0  0  0  0  0  0  0  0  0  0  0  0
  1  8  1  0  0  0  0
  1  2  2  0  0  0  0
  2  6  1  0  0  0  0
  3  7  1  0  0  0  0
  3  2  1  0  0  0  0
  4  3  2  0  0  0  0
  5  4  1  0  0  0  0
  5  1  1  0  0  0  0
  8  9  2  0  0  0  0
 10 11  1  0  0  0  0
 10  8  1  0  0  0  0
 11 16  1  0  0  0  0
 12 17  1  0  0  0  0
 12 11  2  0  0  0  0
 13 12  1  0  0  0  0
 14 13  2  0  0  0  0
 14 15  1  0  0  0  0
 15 10  2  0  0  0  0
 18 14  1  0  0  0  0
 19 20  2  0  0  0  0
 19  4  1  0  0  0  0
 21 19  1  0  0  0  0
 22 21  1  0  0  0  0
 23 22  2  0  0  0  0
 24 25  2  0  0  0  0
 24 23  1  0  0  0  0
 25 32  1  0  0  0  0
 26 27  2  0  0  0  0
 26 25  1  0  0  0  0
 27 29  1  0  0  0  0
 28 27  1  0  0  0  0
 29 30  1  0  0  0  0
 29 31  2  0  0  0  0
 32 31  1  0  0  0  0
 32 21  2  0  0  0  0
M  END
>  <minimizedAffinity>
-5.35126066

>  <minimizedRMSD>
2.91640735

$$$$
