
 OpenBabel03272509583D

 49 53  0  0  0  0  0  0  0  0999 V2000
   33.6500   27.4420   47.7950 C   0  0  0  0  0  0  0  0  0  0  0  0
   33.9180   27.2000   46.7330 H   0  0  0  0  0  0  0  0  0  0  0  0
   33.7800   26.5240   48.3710 H   0  0  0  0  0  0  0  0  0  0  0  0
   32.2060   27.8130   47.7880 C   0  0  0  0  0  0  0  0  0  0  0  0
   31.4320   27.3990   48.8540 C   0  0  0  0  0  0  0  0  0  0  0  0
   30.0970   27.7010   48.9150 C   0  0  0  0  0  0  0  0  0  0  0  0
   29.5300   28.4040   47.9350 N   0  0  0  0  0  0  0  0  0  0  0  0
   30.3020   28.8100   46.8810 C   0  0  0  0  0  0  0  0  0  0  0  0
   31.5990   28.5140   46.8280 N   0  0  0  0  0  0  0  0  0  0  0  0
   31.8260   26.8310   49.6740 H   0  0  0  0  0  0  0  0  0  0  0  0
   29.4370   27.4020   49.7300 H   0  0  0  0  0  0  0  0  0  0  0  0
   29.6080   29.5990   45.8330 C   0  0  0  0  0  0  0  0  0  0  0  0
   30.3070   29.9660   45.0530 H   0  0  0  0  0  0  0  0  0  0  0  0
   29.1900   30.5120   46.2950 H   0  0  0  0  0  0  0  0  0  0  0  0
   28.4830   28.8220   45.2600 C   0  0  0  0  0  0  0  0  0  0  0  0
   27.2270   29.1340   45.7050 N   0  0  0  0  0  0  0  0  0  0  0  0
   26.1210   28.4900   45.3130 C   0  0  0  0  0  3  0  0  0  0  0  0
   26.1630   27.4720   44.4380 N   0  0  0  0  0  0  0  0  0  0  0  0
   27.3940   27.1250   43.9660 C   0  0  0  0  0  0  0  0  0  0  0  0
   27.5230   26.0950   43.0530 C   0  0  0  0  0  3  0  0  0  0  0  0
   28.7580   25.7420   42.5570 C   0  0  0  0  0  0  0  0  0  0  0  0
   28.7470   24.9240   41.8490 H   0  0  0  0  0  0  0  0  0  0  0  0
   29.8920   26.4350   42.9850 C   0  0  0  0  0  0  0  0  0  0  0  0
   30.8350   26.1140   42.5590 H   0  0  0  0  0  0  0  0  0  0  0  0
   29.7770   27.4560   43.8910 C   0  0  0  0  0  3  0  0  0  0  0  0
   28.5310   27.7780   44.3620 C   0  0  0  0  0  0  0  0  0  0  0  0
   34.5390   28.5690   48.2210 C   0  0  0  0  0  0  0  0  0  0  0  0
   35.4330   28.7040   47.5790 H   0  0  0  0  0  0  0  0  0  0  0  0
   33.9520   29.4950   48.1860 H   0  0  0  0  0  0  0  0  0  0  0  0
   35.0150   28.3550   49.5510 O   0  0  0  0  0  0  0  0  0  0  0  0
   37.3840   30.1960   51.5780 C   0  0  0  0  0  0  0  0  0  0  0  0
   38.1000   30.8820   50.5640 C   0  0  0  0  0  0  0  0  0  0  0  0
   37.7160   30.6650   49.2510 C   0  0  0  0  0  0  0  0  0  0  0  0
   36.6750   29.7990   49.0480 N   0  0  0  0  0  0  0  0  0  0  0  0
   36.0100   29.1590   50.0140 C   0  0  0  0  0  0  0  0  0  0  0  0
   36.3820   29.3690   51.3040 N   0  0  0  0  0  0  0  0  0  0  0  0
   37.7090   30.3890   52.5960 H   0  0  0  0  0  0  0  0  0  0  0  0
   38.9060   31.5510   50.7360 H   0  0  0  0  0  0  0  0  0  0  0  0
   38.9670   33.2670   49.0380 F   0  0  0  0  0  0  0  0  0  0  0  0
   38.9080   32.4800   47.9730 C   0  0  0  0  0  0  0  0  0  0  0  0
   38.3220   31.2730   48.0970 C   0  0  0  0  0  0  0  0  0  0  0  0
   38.3190   30.5290   46.9050 C   0  0  0  0  0  0  0  0  0  0  0  0
   38.8590   30.9940   45.7380 C   0  0  0  0  0  0  0  0  0  0  0  0
   39.4440   32.2380   45.6740 C   0  0  0  0  0  0  0  0  0  0  0  0
   39.4620   32.9810   46.8170 C   0  0  0  0  0  0  0  0  0  0  0  0
   37.8700   29.5360   46.8890 H   0  0  0  0  0  0  0  0  0  0  0  0
   38.8250   30.3670   44.8410 H   0  0  0  0  0  0  0  0  0  0  0  0
   39.8640   32.5770   44.7300 H   0  0  0  0  0  0  0  0  0  0  0  0
   39.9200   33.9610   46.7760 H   0  0  0  0  0  0  0  0  0  0  0  0
  1 27  1  0  0  0  0
  1  3  1  0  0  0  0
  2  1  1  0  0  0  0
  4  1  1  0  0  0  0
  4  5  1  0  0  0  0
  5  6  2  0  0  0  0
  5 10  1  0  0  0  0
  6 11  1  0  0  0  0
  7  6  1  0  0  0  0
  8  7  2  0  0  0  0
  9  8  1  0  0  0  0
  9  4  2  0  0  0  0
 12 14  1  0  0  0  0
 12  8  1  0  0  0  0
 13 12  1  0  0  0  0
 15 16  1  0  0  0  0
 15 12  1  0  0  0  0
 17 16  2  0  0  0  0
 18 17  1  0  0  0  0
 19 26  1  0  0  0  0
 19 18  2  0  0  0  0
 20 19  1  0  0  0  0
 21 23  1  0  0  0  0
 21 20  2  0  0  0  0
 22 21  1  0  0  0  0
 23 25  2  0  0  0  0
 24 23  1  0  0  0  0
 25 26  1  0  0  0  0
 26 15  2  0  0  0  0
 27 30  1  0  0  0  0
 28 27  1  0  0  0  0
 29 27  1  0  0  0  0
 30 35  1  0  0  0  0
 31 37  1  0  0  0  0
 32 38  1  0  0  0  0
 32 31  2  0  0  0  0
 33 32  1  0  0  0  0
 34 33  2  0  0  0  0
 34 35  1  0  0  0  0
 35 36  2  0  0  0  0
 36 31  1  0  0  0  0
 40 41  1  0  0  0  0
 40 39  1  0  0  0  0
 41 33  1  0  0  0  0
 42 41  2  0  0  0  0
 43 42  1  0  0  0  0
 44 43  2  0  0  0  0
 44 45  1  0  0  0  0
 45 40  2  0  0  0  0
 46 42  1  0  0  0  0
 47 43  1  0  0  0  0
 48 44  1  0  0  0  0
 49 45  1  0  0  0  0
M  END
>  <minimizedAffinity>
-6.65745449

>  <minimizedRMSD>
0.788140833

$$$$
