
 OpenBabel03272502243D

 32 37  0  0  1  0  0  0  0  0999 V2000
   36.8580   29.4110   31.1630 C   0  0  0  0  0  0  0  0  0  0  0  0
   37.3960   28.2110   31.6080 C   0  0  0  0  0  0  0  0  0  0  0  0
   36.8010   27.5490   32.6510 C   0  0  0  0  0  0  0  0  0  0  0  0
   35.6890   28.1150   33.2080 N   0  0  0  0  0  0  0  0  0  0  0  0
   35.1920   29.3110   32.7310 C   0  0  0  0  0  0  0  0  0  0  0  0
   35.7770   29.9210   31.7360 N   0  0  0  0  0  0  0  0  0  0  0  0
   37.3280   29.9080   30.3460 H   0  0  0  0  0  0  0  0  0  0  0  0
   38.2450   27.6970   31.2340 H   0  0  0  0  0  0  0  0  0  0  0  0
   34.0610   29.4480   33.5320 C   0  0  2  0  0  3  0  0  0  0  0  0
   32.9650   29.5850   34.3140 N   0  0  2  0  0  4  0  0  0  0  0  0
   31.8430   29.2420   34.4320 C   0  0  0  0  0  2  0  0  0  0  0  0
   32.1930   30.0990   35.4420 N   0  0  0  0  0  0  0  0  0  0  0  0
   33.4150   30.6610   35.5760 C   0  0  0  0  0  0  0  0  0  0  0  0
   33.7440   31.5510   36.6830 C   0  0  0  0  0  3  0  0  0  0  0  0
   35.0180   32.0860   36.8050 C   0  0  0  0  0  0  0  0  0  0  0  0
   35.1390   32.7370   37.6510 H   0  0  0  0  0  0  0  0  0  0  0  0
   36.0230   31.8170   35.9130 C   0  0  0  0  0  0  0  0  0  0  0  0
   36.9930   32.2200   36.0120 H   0  0  0  0  0  0  0  0  0  0  0  0
   35.6950   30.9820   34.8710 C   0  0  0  0  0  2  0  0  0  0  0  0
   34.4350   30.3560   34.6080 C   0  0  2  0  0  0  0  0  0  0  0  0
   37.2530   26.2600   33.2190 C   0  0  0  0  0  0  0  0  0  0  0  0
   37.4710   25.1730   32.4350 C   0  0  0  0  0  0  0  0  0  0  0  0
   37.9080   23.9520   32.9430 C   0  0  0  0  0  0  0  0  0  0  0  0
   38.1180   23.8670   34.2850 N   0  0  0  0  0  0  0  0  0  0  0  0
   37.8980   24.9400   35.0260 C   0  0  0  0  0  0  0  0  0  0  0  0
   37.4730   26.1380   34.5540 N   0  0  0  0  0  0  0  0  0  0  0  0
   37.2820   25.2910   31.3770 H   0  0  0  0  0  0  0  0  0  0  0  0
   38.0960   23.0880   32.3470 H   0  0  0  0  0  0  0  0  0  0  0  0
   38.1320   24.8730   36.4980 C   0  0  0  0  0  0  0  0  0  0  0  0
   39.2700   24.1030   36.7240 F   0  0  0  0  0  0  0  0  0  0  0  0
   38.2600   26.1380   37.0410 F   0  0  0  0  0  0  0  0  0  0  0  0
   37.0990   24.2600   37.1460 F   0  0  0  0  0  0  0  0  0  0  0  0
  1  2  2  0  0  0  0
  1  6  1  0  0  0  0
  2  3  1  0  0  0  0
  3  4  2  0  0  0  0
  3 21  1  0  0  0  0
  5  4  1  0  0  0  0
  6  5  2  0  0  0  0
  7  1  1  0  0  0  0
  8  2  1  0  0  0  0
  9  5  1  6  0  0  0
  9 10  1  0  0  0  0
  9 20  1  0  0  0  0
 10 11  1  1  0  0  0
 10 20  1  0  0  0  0
 10 12  1  0  0  0  0
 11 12  1  0  0  0  0
 12 13  1  0  0  0  0
 13 14  2  0  0  0  0
 14 15  1  0  0  0  0
 15 16  1  0  0  0  0
 17 18  1  0  0  0  0
 17 15  2  0  0  0  0
 19 17  1  0  0  0  0
 20 19  1  1  0  0  0
 20 13  1  0  0  0  0
 21 26  1  0  0  0  0
 22 23  1  0  0  0  0
 22 21  2  0  0  0  0
 23 24  2  0  0  0  0
 24 25  1  0  0  0  0
 25 29  1  0  0  0  0
 26 25  2  0  0  0  0
 27 22  1  0  0  0  0
 28 23  1  0  0  0  0
 29 30  1  0  0  0  0
 29 31  1  0  0  0  0
 29 32  1  0  0  0  0
M  END
>  <minimizedAffinity>
-6.55355406

$$$$

 OpenBabel03272502243D

 32 37  0  0  1  0  0  0  0  0999 V2000
   36.5710   28.1260   33.8800 C   0  0  0  0  0  0  0  0  0  0  0  0
   36.9040   27.0500   34.6920 C   0  0  0  0  0  0  0  0  0  0  0  0
   37.7100   26.0560   34.1990 C   0  0  0  0  0  0  0  0  0  0  0  0
   38.1520   26.1780   32.9120 N   0  0  0  0  0  0  0  0  0  0  0  0
   37.7930   27.2680   32.1430 C   0  0  0  0  0  0  0  0  0  0  0  0
   37.0240   28.2010   32.6360 N   0  0  0  0  0  0  0  0  0  0  0  0
   35.9500   28.8930   34.2810 H   0  0  0  0  0  0  0  0  0  0  0  0
   36.6160   26.8760   35.6980 H   0  0  0  0  0  0  0  0  0  0  0  0
   38.5080   26.9980   30.9790 C   0  0  2  0  0  3  0  0  0  0  0  0
   39.2020   26.7400   29.8460 N   0  0  2  0  0  4  0  0  0  0  0  0
   39.9130   25.9500   29.3360 C   0  0  0  0  0  2  0  0  0  0  0  0
   39.6920   27.0110   28.4970 N   0  0  0  0  0  0  0  0  0  0  0  0
   38.9180   28.0760   28.8040 C   0  0  0  0  0  0  0  0  0  0  0  0
   38.6970   29.1710   27.8660 C   0  0  0  0  0  3  0  0  0  0  0  0
   37.8720   30.2340   28.2030 C   0  0  0  0  0  0  0  0  0  0  0  0
   37.7950   30.9860   27.4400 H   0  0  0  0  0  0  0  0  0  0  0  0
   37.2280   30.3180   29.4090 C   0  0  0  0  0  0  0  0  0  0  0  0
   36.5940   31.1240   29.6600 H   0  0  0  0  0  0  0  0  0  0  0  0
   37.4510   29.2820   30.2840 C   0  0  0  0  0  2  0  0  0  0  0  0
   38.2700   28.1240   30.0870 C   0  0  2  0  0  0  0  0  0  0  0  0
   38.1570   24.8620   34.9500 C   0  0  0  0  0  0  0  0  0  0  0  0
   38.6970   23.7850   34.3210 C   0  0  0  0  0  0  0  0  0  0  0  0
   39.1360   22.6550   35.0050 C   0  0  0  0  0  0  0  0  0  0  0  0
   39.0080   22.6490   36.3610 N   0  0  0  0  0  0  0  0  0  0  0  0
   38.4790   23.7090   36.9470 C   0  0  0  0  0  0  0  0  0  0  0  0
   38.0450   24.8210   36.3020 N   0  0  0  0  0  0  0  0  0  0  0  0
   38.7700   23.8370   33.2440 H   0  0  0  0  0  0  0  0  0  0  0  0
   39.5730   21.8020   34.5370 H   0  0  0  0  0  0  0  0  0  0  0  0
   38.3380   23.7300   38.4330 C   0  0  0  0  0  0  0  0  0  0  0  0
   37.3290   22.8380   38.7870 F   0  0  0  0  0  0  0  0  0  0  0  0
   39.5320   23.4160   39.0530 F   0  0  0  0  0  0  0  0  0  0  0  0
   37.9610   24.9600   38.8870 F   0  0  0  0  0  0  0  0  0  0  0  0
  1  7  1  0  0  0  0
  1  2  1  0  0  0  0
  2  8  1  0  0  0  0
  3  2  2  0  0  0  0
  3 21  1  0  0  0  0
  4  3  1  0  0  0  0
  5  6  1  0  0  0  0
  5  4  2  0  0  0  0
  6  1  2  0  0  0  0
  9  5  1  1  0  0  0
 10 11  1  6  0  0  0
 10 20  1  0  0  0  0
 10  9  1  0  0  0  0
 12 13  1  0  0  0  0
 12 11  1  0  0  0  0
 12 10  1  0  0  0  0
 13 20  1  0  0  0  0
 14 15  1  0  0  0  0
 14 13  2  0  0  0  0
 15 17  2  0  0  0  0
 16 15  1  0  0  0  0
 17 18  1  0  0  0  0
 17 19  1  0  0  0  0
 20 19  1  6  0  0  0
 20  9  1  0  0  0  0
 21 26  1  0  0  0  0
 22 21  2  0  0  0  0
 22 23  1  0  0  0  0
 23 24  2  0  0  0  0
 24 25  1  0  0  0  0
 25 29  1  0  0  0  0
 26 25  2  0  0  0  0
 27 22  1  0  0  0  0
 28 23  1  0  0  0  0
 29 30  1  0  0  0  0
 29 32  1  0  0  0  0
 29 31  1  0  0  0  0
M  END
>  <minimizedAffinity>
-6.38849258

$$$$

 OpenBabel03272502243D

 32 37  0  0  1  0  0  0  0  0999 V2000
   35.9430   24.4450   31.1140 C   0  0  0  0  0  0  0  0  0  0  0  0
   36.8580   23.9730   32.0440 C   0  0  0  0  0  0  0  0  0  0  0  0
   37.4070   24.8410   32.9540 C   0  0  0  0  0  0  0  0  0  0  0  0
   37.0170   26.1490   32.8960 N   0  0  0  0  0  0  0  0  0  0  0  0
   36.1020   26.5710   31.9510 C   0  0  0  0  0  0  0  0  0  0  0  0
   35.5950   25.7240   31.0970 N   0  0  0  0  0  0  0  0  0  0  0  0
   35.5210   23.7560   30.4200 H   0  0  0  0  0  0  0  0  0  0  0  0
   37.2120   22.9800   32.1680 H   0  0  0  0  0  0  0  0  0  0  0  0
   35.9720   27.9100   32.3120 C   0  0  2  0  0  3  0  0  0  0  0  0
   35.8460   29.2120   32.6580 N   0  0  2  0  0  4  0  0  0  0  0  0
   35.4760   29.9270   33.5200 C   0  0  0  0  0  2  0  0  0  0  0  0
   35.9580   30.6550   32.4650 N   0  0  0  0  0  0  0  0  0  0  0  0
   36.4530   30.1150   31.3280 C   0  0  0  0  0  0  0  0  0  0  0  0
   36.9740   30.9360   30.2420 C   0  0  0  0  0  3  0  0  0  0  0  0
   37.5010   30.3470   29.1020 C   0  0  0  0  0  0  0  0  0  0  0  0
   37.8430   31.0500   28.3650 H   0  0  0  0  0  0  0  0  0  0  0  0
   37.5630   28.9890   28.9310 C   0  0  0  0  0  0  0  0  0  0  0  0
   37.9720   28.5430   28.0660 H   0  0  0  0  0  0  0  0  0  0  0  0
   37.0610   28.2290   29.9610 C   0  0  0  0  0  2  0  0  0  0  0  0
   36.4870   28.6840   31.1920 C   0  0  2  0  0  0  0  0  0  0  0  0
   38.3800   24.4780   34.0080 C   0  0  0  0  0  0  0  0  0  0  0  0
   39.7040   24.3360   33.7370 C   0  0  0  0  0  0  0  0  0  0  0  0
   40.6410   24.0070   34.7120 C   0  0  0  0  0  0  0  0  0  0  0  0
   40.1910   23.8230   35.9830 N   0  0  0  0  0  0  0  0  0  0  0  0
   38.8980   23.9670   36.2200 C   0  0  0  0  0  0  0  0  0  0  0  0
   37.9670   24.2870   35.2870 N   0  0  0  0  0  0  0  0  0  0  0  0
   40.0090   24.4850   32.7100 H   0  0  0  0  0  0  0  0  0  0  0  0
   41.6860   23.9000   34.5270 H   0  0  0  0  0  0  0  0  0  0  0  0
   38.3820   23.7810   37.6080 C   0  0  0  0  0  0  0  0  0  0  0  0
   37.1900   23.0640   37.5360 F   0  0  0  0  0  0  0  0  0  0  0  0
   39.3110   23.1400   38.4050 F   0  0  0  0  0  0  0  0  0  0  0  0
   38.0950   24.9740   38.2040 F   0  0  0  0  0  0  0  0  0  0  0  0
  1  2  1  0  0  0  0
  2  8  1  0  0  0  0
  2  3  2  0  0  0  0
  3 21  1  0  0  0  0
  4  3  1  0  0  0  0
  5  4  2  0  0  0  0
  6  1  2  0  0  0  0
  6  5  1  0  0  0  0
  7  1  1  0  0  0  0
  9  5  1  6  0  0  0
  9 10  1  0  0  0  0
 10 11  1  1  0  0  0
 12 10  1  0  0  0  0
 12 11  1  0  0  0  0
 13 12  1  0  0  0  0
 14 13  2  0  0  0  0
 15 14  1  0  0  0  0
 16 15  1  0  0  0  0
 17 15  2  0  0  0  0
 17 19  1  0  0  0  0
 18 17  1  0  0  0  0
 20 19  1  1  0  0  0
 20 13  1  0  0  0  0
 20  9  1  0  0  0  0
 20 10  1  0  0  0  0
 21 26  1  0  0  0  0
 22 21  2  0  0  0  0
 22 23  1  0  0  0  0
 23 24  2  0  0  0  0
 24 25  1  0  0  0  0
 25 29  1  0  0  0  0
 26 25  2  0  0  0  0
 27 22  1  0  0  0  0
 28 23  1  0  0  0  0
 29 32  1  0  0  0  0
 29 31  1  0  0  0  0
 30 29  1  0  0  0  0
M  END
>  <minimizedAffinity>
-6.29430294

$$$$

 OpenBabel03272502243D

 32 37  0  0  1  0  0  0  0  0999 V2000
   36.1780   30.0200   30.7710 C   0  0  0  0  0  0  0  0  0  0  0  0
   36.7460   28.7820   31.0330 C   0  0  0  0  0  0  0  0  0  0  0  0
   36.2620   28.0220   32.0680 C   0  0  0  0  0  0  0  0  0  0  0  0
   35.2280   28.5330   32.7990 N   0  0  0  0  0  0  0  0  0  0  0  0
   34.6960   29.7720   32.4990 C   0  0  0  0  0  0  0  0  0  0  0  0
   35.1750   30.4750   31.5090 N   0  0  0  0  0  0  0  0  0  0  0  0
   36.5610   30.5940   29.9580 H   0  0  0  0  0  0  0  0  0  0  0  0
   37.5410   28.3040   30.5180 H   0  0  0  0  0  0  0  0  0  0  0  0
   33.6650   29.8330   33.4330 C   0  0  2  0  0  3  0  0  0  0  0  0
   32.6650   29.8950   34.3430 N   0  0  2  0  0  4  0  0  0  0  0  0
   31.5550   29.5540   34.5490 C   0  0  0  0  0  2  0  0  0  0  0  0
   32.0350   30.2910   35.6000 N   0  0  0  0  0  0  0  0  0  0  0  0
   33.2770   30.8210   35.6550 C   0  0  0  0  0  0  0  0  0  0  0  0
   33.7470   31.5790   36.8080 C   0  0  0  0  0  3  0  0  0  0  0  0
   35.0390   32.0840   36.8430 C   0  0  0  0  0  0  0  0  0  0  0  0
   35.2680   32.6360   37.7360 H   0  0  0  0  0  0  0  0  0  0  0  0
   35.9320   31.9030   35.8200 C   0  0  0  0  0  0  0  0  0  0  0  0
   36.9170   32.2810   35.8530 H   0  0  0  0  0  0  0  0  0  0  0  0
   35.4720   31.1920   34.7380 C   0  0  0  0  0  2  0  0  0  0  0  0
   34.1760   30.6130   34.5520 C   0  0  2  0  0  0  0  0  0  0  0  0
   36.7580   26.6820   32.4540 C   0  0  0  0  0  0  0  0  0  0  0  0
   37.6630   26.5180   33.4540 C   0  0  0  0  0  0  0  0  0  0  0  0
   38.1370   25.2690   33.8440 C   0  0  0  0  0  0  0  0  0  0  0  0
   37.6600   24.1790   33.1820 N   0  0  0  0  0  0  0  0  0  0  0  0
   36.7800   24.3660   32.2130 C   0  0  0  0  0  0  0  0  0  0  0  0
   36.3050   25.5730   31.8160 N   0  0  0  0  0  0  0  0  0  0  0  0
   38.0160   27.4160   33.9430 H   0  0  0  0  0  0  0  0  0  0  0  0
   38.8380   25.1120   34.6320 H   0  0  0  0  0  0  0  0  0  0  0  0
   36.2350   23.1860   31.4790 C   0  0  0  0  0  0  0  0  0  0  0  0
   35.1890   23.6220   30.6700 F   0  0  0  0  0  0  0  0  0  0  0  0
   37.2200   22.5590   30.7400 F   0  0  0  0  0  0  0  0  0  0  0  0
   35.7190   22.2550   32.3330 F   0  0  0  0  0  0  0  0  0  0  0  0
  1  2  2  0  0  0  0
  1  6  1  0  0  0  0
  2  3  1  0  0  0  0
  3 21  1  0  0  0  0
  3  4  2  0  0  0  0
  5  4  1  0  0  0  0
  6  5  2  0  0  0  0
  7  1  1  0  0  0  0
  8  2  1  0  0  0  0
  9  5  1  6  0  0  0
  9 10  1  0  0  0  0
  9 20  1  0  0  0  0
 10 11  1  1  0  0  0
 10 20  1  0  0  0  0
 10 12  1  0  0  0  0
 11 12  1  0  0  0  0
 12 13  1  0  0  0  0
 13 14  2  0  0  0  0
 14 15  1  0  0  0  0
 15 16  1  0  0  0  0
 17 18  1  0  0  0  0
 17 15  2  0  0  0  0
 19 17  1  0  0  0  0
 20 19  1  1  0  0  0
 20 13  1  0  0  0  0
 21 22  1  0  0  0  0
 22 23  2  0  0  0  0
 22 27  1  0  0  0  0
 23 28  1  0  0  0  0
 24 23  1  0  0  0  0
 25 24  2  0  0  0  0
 26 25  1  0  0  0  0
 26 21  2  0  0  0  0
 29 25  1  0  0  0  0
 29 32  1  0  0  0  0
 30 29  1  0  0  0  0
 31 29  1  0  0  0  0
M  END
>  <minimizedAffinity>
-6.27975559

$$$$

 OpenBabel03272502243D

 32 37  0  0  1  0  0  0  0  0999 V2000
   37.0110   26.4630   33.3800 C   0  0  0  0  0  0  0  0  0  0  0  0
   37.4320   26.0090   34.6230 C   0  0  0  0  0  0  0  0  0  0  0  0
   38.0640   24.7950   34.7200 C   0  0  0  0  0  0  0  0  0  0  0  0
   38.2490   24.0840   33.5690 N   0  0  0  0  0  0  0  0  0  0  0  0
   37.8120   24.5780   32.3560 C   0  0  0  0  0  0  0  0  0  0  0  0
   37.2140   25.7370   32.2900 N   0  0  0  0  0  0  0  0  0  0  0  0
   36.5290   27.4120   33.3220 H   0  0  0  0  0  0  0  0  0  0  0  0
   37.3380   26.4930   35.5620 H   0  0  0  0  0  0  0  0  0  0  0  0
   38.2660   23.5770   31.5010 C   0  0  2  0  0  3  0  0  0  0  0  0
   38.7020   22.6010   30.6700 N   0  0  2  0  0  4  0  0  0  0  0  0
   39.5900   22.3010   29.9540 C   0  0  0  0  0  2  0  0  0  0  0  0
   38.6300   21.3230   29.9680 N   0  0  0  0  0  0  0  0  0  0  0  0
   37.4910   21.3830   30.6940 C   0  0  0  0  0  0  0  0  0  0  0  0
   36.5100   20.3040   30.6900 C   0  0  0  0  0  3  0  0  0  0  0  0
   35.3660   20.3870   31.4710 C   0  0  0  0  0  0  0  0  0  0  0  0
   34.7110   19.5400   31.3780 H   0  0  0  0  0  0  0  0  0  0  0  0
   35.0960   21.4610   32.2770 C   0  0  0  0  0  0  0  0  0  0  0  0
   34.2290   21.5180   32.8770 H   0  0  0  0  0  0  0  0  0  0  0  0
   36.0270   22.4720   32.2650 C   0  0  0  0  0  2  0  0  0  0  0  0
   37.2470   22.5370   31.5170 C   0  0  2  0  0  0  0  0  0  0  0  0
   38.5770   24.1930   35.9700 C   0  0  0  0  0  0  0  0  0  0  0  0
   37.9360   24.3590   37.1560 C   0  0  0  0  0  0  0  0  0  0  0  0
   38.3910   23.7930   38.3440 C   0  0  0  0  0  0  0  0  0  0  0  0
   39.5290   23.0480   38.2920 N   0  0  0  0  0  0  0  0  0  0  0  0
   40.1330   22.9030   37.1250 C   0  0  0  0  0  0  0  0  0  0  0  0
   39.7090   23.4440   35.9560 N   0  0  0  0  0  0  0  0  0  0  0  0
   37.0410   24.9650   37.1450 H   0  0  0  0  0  0  0  0  0  0  0  0
   37.9010   23.8990   39.2860 H   0  0  0  0  0  0  0  0  0  0  0  0
   41.3770   22.0810   37.0410 C   0  0  0  0  0  0  0  0  0  0  0  0
   42.4690   22.9460   37.0310 F   0  0  0  0  0  0  0  0  0  0  0  0
   41.4530   21.1810   38.0870 F   0  0  0  0  0  0  0  0  0  0  0  0
   41.4280   21.3600   35.8850 F   0  0  0  0  0  0  0  0  0  0  0  0
  1  2  1  0  0  0  0
  2  3  2  0  0  0  0
  2  8  1  0  0  0  0
  3 21  1  0  0  0  0
  4  3  1  0  0  0  0
  5  4  2  0  0  0  0
  6  5  1  0  0  0  0
  6  1  2  0  0  0  0
  7  1  1  0  0  0  0
  9 20  1  0  0  0  0
  9  5  1  6  0  0  0
 10 11  1  1  0  0  0
 10  9  1  0  0  0  0
 10 20  1  0  0  0  0
 11 12  1  0  0  0  0
 12 10  1  0  0  0  0
 12 13  1  0  0  0  0
 13 20  1  0  0  0  0
 14 13  2  0  0  0  0
 14 15  1  0  0  0  0
 15 17  2  0  0  0  0
 16 15  1  0  0  0  0
 17 18  1  0  0  0  0
 19 17  1  0  0  0  0
 20 19  1  1  0  0  0
 21 22  1  0  0  0  0
 22 23  2  0  0  0  0
 23 28  1  0  0  0  0
 24 23  1  0  0  0  0
 25 24  2  0  0  0  0
 26 21  2  0  0  0  0
 26 25  1  0  0  0  0
 27 22  1  0  0  0  0
 29 25  1  0  0  0  0
 29 31  1  0  0  0  0
 30 29  1  0  0  0  0
 32 29  1  0  0  0  0
M  END
>  <minimizedAffinity>
-6.24360085

$$$$

 OpenBabel03272502243D

 32 37  0  0  1  0  0  0  0  0999 V2000
   36.7560   22.1810   31.7960 C   0  0  0  0  0  0  0  0  0  0  0  0
   37.4870   21.9060   32.9430 C   0  0  0  0  0  0  0  0  0  0  0  0
   37.9420   22.9430   33.7190 C   0  0  0  0  0  0  0  0  0  0  0  0
   37.6470   24.2130   33.3140 N   0  0  0  0  0  0  0  0  0  0  0  0
   36.9160   24.4360   32.1640 C   0  0  0  0  0  0  0  0  0  0  0  0
   36.4940   23.4320   31.4440 N   0  0  0  0  0  0  0  0  0  0  0  0
   36.4030   21.3640   31.2100 H   0  0  0  0  0  0  0  0  0  0  0  0
   37.7560   20.9590   33.3360 H   0  0  0  0  0  0  0  0  0  0  0  0
   36.8140   25.8240   32.1980 C   0  0  2  0  0  3  0  0  0  0  0  0
   36.7180   27.1740   32.2270 N   0  0  2  0  0  4  0  0  0  0  0  0
   36.1430   28.0670   32.7390 C   0  0  0  0  0  2  0  0  0  0  0  0
   37.0540   28.5390   31.8310 N   0  0  0  0  0  0  0  0  0  0  0  0
   37.8630   27.7540   31.0840 C   0  0  0  0  0  0  0  0  0  0  0  0
   38.8310   28.3080   30.1460 C   0  0  0  0  0  3  0  0  0  0  0  0
   39.6660   27.4730   29.4180 C   0  0  0  0  0  0  0  0  0  0  0  0
   40.3290   27.9910   28.7500 H   0  0  0  0  0  0  0  0  0  0  0  0
   39.6330   26.1080   29.5340 C   0  0  0  0  0  0  0  0  0  0  0  0
   40.2750   25.4750   28.9850 H   0  0  0  0  0  0  0  0  0  0  0  0
   38.7110   25.6010   30.4180 C   0  0  0  0  0  2  0  0  0  0  0  0
   37.7840   26.3260   31.2340 C   0  0  2  0  0  0  0  0  0  0  0  0
   38.7180   22.8010   34.9700 C   0  0  0  0  0  0  0  0  0  0  0  0
   39.9430   22.2130   34.9870 C   0  0  0  0  0  0  0  0  0  0  0  0
   40.6980   22.0780   36.1480 C   0  0  0  0  0  0  0  0  0  0  0  0
   40.1680   22.5620   37.3050 N   0  0  0  0  0  0  0  0  0  0  0  0
   38.9750   23.1290   37.2610 C   0  0  0  0  0  0  0  0  0  0  0  0
   38.2210   23.2720   36.1430 N   0  0  0  0  0  0  0  0  0  0  0  0
   40.3150   21.8390   34.0430 H   0  0  0  0  0  0  0  0  0  0  0  0
   41.6660   21.6310   36.1860 H   0  0  0  0  0  0  0  0  0  0  0  0
   38.3770   23.6760   38.5150 C   0  0  0  0  0  0  0  0  0  0  0  0
   37.9320   24.9700   38.2560 F   0  0  0  0  0  0  0  0  0  0  0  0
   37.3530   22.8700   38.9740 F   0  0  0  0  0  0  0  0  0  0  0  0
   39.2990   23.7640   39.5170 F   0  0  0  0  0  0  0  0  0  0  0  0
  1  2  1  0  0  0  0
  2  8  1  0  0  0  0
  2  3  2  0  0  0  0
  3 21  1  0  0  0  0
  4  3  1  0  0  0  0
  5  4  2  0  0  0  0
  6  1  2  0  0  0  0
  6  5  1  0  0  0  0
  7  1  1  0  0  0  0
  9  5  1  6  0  0  0
  9 10  1  0  0  0  0
 10 11  1  1  0  0  0
 12 10  1  0  0  0  0
 12 11  1  0  0  0  0
 13 20  1  0  0  0  0
 13 12  1  0  0  0  0
 14 13  2  0  0  0  0
 15 17  2  0  0  0  0
 15 14  1  0  0  0  0
 16 15  1  0  0  0  0
 17 19  1  0  0  0  0
 18 17  1  0  0  0  0
 20 19  1  1  0  0  0
 20  9  1  0  0  0  0
 20 10  1  0  0  0  0
 21 22  2  0  0  0  0
 21 26  1  0  0  0  0
 22 23  1  0  0  0  0
 23 28  1  0  0  0  0
 23 24  2  0  0  0  0
 25 24  1  0  0  0  0
 25 29  1  0  0  0  0
 26 25  2  0  0  0  0
 27 22  1  0  0  0  0
 29 31  1  0  0  0  0
 29 32  1  0  0  0  0
 30 29  1  0  0  0  0
M  END
>  <minimizedAffinity>
-6.23528957

$$$$

 OpenBabel03272502243D

 32 37  0  0  1  0  0  0  0  0999 V2000
   35.1570   26.1030   31.0180 C   0  0  0  0  0  0  0  0  0  0  0  0
   35.3670   24.7520   30.7820 C   0  0  0  0  0  0  0  0  0  0  0  0
   36.3240   24.0810   31.5020 C   0  0  0  0  0  0  0  0  0  0  0  0
   37.0320   24.7900   32.4290 N   0  0  0  0  0  0  0  0  0  0  0  0
   36.7870   26.1340   32.6270 C   0  0  0  0  0  0  0  0  0  0  0  0
   35.8710   26.7490   31.9300 N   0  0  0  0  0  0  0  0  0  0  0  0
   34.4050   26.6070   30.4560 H   0  0  0  0  0  0  0  0  0  0  0  0
   34.8630   24.1220   30.0930 H   0  0  0  0  0  0  0  0  0  0  0  0
   37.6680   26.3970   33.6730 C   0  0  2  0  0  3  0  0  0  0  0  0
   38.5280   26.6540   34.6870 N   0  0  2  0  0  4  0  0  0  0  0  0
   38.6140   26.6910   35.8620 C   0  0  0  0  0  2  0  0  0  0  0  0
   39.8070   27.0320   35.2800 N   0  0  0  0  0  0  0  0  0  0  0  0
   40.0180   27.0800   33.9460 C   0  0  0  0  0  0  0  0  0  0  0  0
   41.3150   27.4280   33.3770 C   0  0  0  0  0  3  0  0  0  0  0  0
   41.5030   27.4380   32.0020 C   0  0  0  0  0  0  0  0  0  0  0  0
   42.4940   27.7220   31.6990 H   0  0  0  0  0  0  0  0  0  0  0  0
   40.5060   27.1280   31.1160 C   0  0  0  0  0  0  0  0  0  0  0  0
   40.6540   27.1290   30.0710 H   0  0  0  0  0  0  0  0  0  0  0  0
   39.2880   26.8080   31.6670 C   0  0  0  0  0  2  0  0  0  0  0  0
   38.9370   26.7560   33.0550 C   0  0  2  0  0  0  0  0  0  0  0  0
   36.6460   22.6430   31.3680 C   0  0  0  0  0  0  0  0  0  0  0  0
   37.7950   22.2220   30.7790 C   0  0  0  0  0  0  0  0  0  0  0  0
   38.1280   20.8760   30.6510 C   0  0  0  0  0  0  0  0  0  0  0  0
   37.2490   19.9600   31.1440 N   0  0  0  0  0  0  0  0  0  0  0  0
   36.1380   20.3960   31.7120 C   0  0  0  0  0  0  0  0  0  0  0  0
   35.7930   21.7010   31.8480 N   0  0  0  0  0  0  0  0  0  0  0  0
   38.4550   22.9880   30.3970 H   0  0  0  0  0  0  0  0  0  0  0  0
   39.0280   20.5200   30.2030 H   0  0  0  0  0  0  0  0  0  0  0  0
   35.1640   19.4110   32.2690 C   0  0  0  0  0  0  0  0  0  0  0  0
   35.4610   18.1590   31.7380 F   0  0  0  0  0  0  0  0  0  0  0  0
   35.2020   19.3980   33.6500 F   0  0  0  0  0  0  0  0  0  0  0  0
   33.8830   19.7070   31.9050 F   0  0  0  0  0  0  0  0  0  0  0  0
  1  6  1  0  0  0  0
  2  1  2  0  0  0  0
  2  3  1  0  0  0  0
  3  4  2  0  0  0  0
  4  5  1  0  0  0  0
  6  5  2  0  0  0  0
  7  1  1  0  0  0  0
  8  2  1  0  0  0  0
  9  5  1  6  0  0  0
  9 10  1  0  0  0  0
 10 12  1  0  0  0  0
 10 11  1  1  0  0  0
 12 11  1  0  0  0  0
 13 12  1  0  0  0  0
 14 13  2  0  0  0  0
 15 14  1  0  0  0  0
 16 15  1  0  0  0  0
 17 19  1  0  0  0  0
 17 15  2  0  0  0  0
 18 17  1  0  0  0  0
 20 19  1  1  0  0  0
 20  9  1  0  0  0  0
 20 13  1  0  0  0  0
 20 10  1  0  0  0  0
 21  3  1  0  0  0  0
 21 26  1  0  0  0  0
 22 21  2  0  0  0  0
 23 22  1  0  0  0  0
 23 24  2  0  0  0  0
 24 25  1  0  0  0  0
 25 26  2  0  0  0  0
 25 29  1  0  0  0  0
 27 22  1  0  0  0  0
 28 23  1  0  0  0  0
 29 31  1  0  0  0  0
 30 29  1  0  0  0  0
 32 29  1  0  0  0  0
M  END
>  <minimizedAffinity>
-6.21126747

$$$$

 OpenBabel03272502243D

 32 37  0  0  1  0  0  0  0  0999 V2000
   35.7190   29.5960   31.6100 C   0  0  0  0  0  0  0  0  0  0  0  0
   36.5920   28.6970   32.2070 C   0  0  0  0  0  0  0  0  0  0  0  0
   36.3500   28.2660   33.4870 C   0  0  0  0  0  0  0  0  0  0  0  0
   35.2410   28.7530   34.1190 N   0  0  0  0  0  0  0  0  0  0  0  0
   34.4020   29.6470   33.4830 C   0  0  0  0  0  0  0  0  0  0  0  0
   34.6550   30.0400   32.2650 N   0  0  0  0  0  0  0  0  0  0  0  0
   35.9180   29.9130   30.6130 H   0  0  0  0  0  0  0  0  0  0  0  0
   37.4670   28.2630   31.7930 H   0  0  0  0  0  0  0  0  0  0  0  0
   33.4170   29.7990   34.4560 C   0  0  2  0  0  3  0  0  0  0  0  0
   32.4620   29.9500   35.4030 N   0  0  2  0  0  4  0  0  0  0  0  0
   31.4150   29.5400   35.7600 C   0  0  0  0  0  2  0  0  0  0  0  0
   31.8480   30.5430   36.5880 N   0  0  0  0  0  0  0  0  0  0  0  0
   33.0140   31.2090   36.4340 C   0  0  0  0  0  0  0  0  0  0  0  0
   33.4390   32.2540   37.3580 C   0  0  0  0  0  3  0  0  0  0  0  0
   34.6570   32.8960   37.1860 C   0  0  0  0  0  0  0  0  0  0  0  0
   34.8570   33.6570   37.9180 H   0  0  0  0  0  0  0  0  0  0  0  0
   35.5160   32.5930   36.1620 C   0  0  0  0  0  0  0  0  0  0  0  0
   36.4450   33.0780   36.0380 H   0  0  0  0  0  0  0  0  0  0  0  0
   35.0980   31.6100   35.2970 C   0  0  0  0  0  2  0  0  0  0  0  0
   33.8780   30.8620   35.3380 C   0  0  2  0  0  0  0  0  0  0  0  0
   37.1820   27.3030   34.2400 C   0  0  0  0  0  0  0  0  0  0  0  0
   37.8400   27.6640   35.3730 C   0  0  0  0  0  0  0  0  0  0  0  0
   38.6200   26.7750   36.1070 C   0  0  0  0  0  0  0  0  0  0  0  0
   38.7150   25.4960   35.6520 N   0  0  0  0  0  0  0  0  0  0  0  0
   38.0660   25.1710   34.5470 C   0  0  0  0  0  0  0  0  0  0  0  0
   37.3000   26.0190   33.8160 N   0  0  0  0  0  0  0  0  0  0  0  0
   37.7370   28.6930   35.6880 H   0  0  0  0  0  0  0  0  0  0  0  0
   39.1370   27.0300   37.0050 H   0  0  0  0  0  0  0  0  0  0  0  0
   38.1470   23.7720   34.0340 C   0  0  0  0  0  0  0  0  0  0  0  0
   39.4430   23.5510   33.5750 F   0  0  0  0  0  0  0  0  0  0  0  0
   37.7940   22.8600   35.0110 F   0  0  0  0  0  0  0  0  0  0  0  0
   37.3080   23.5720   32.9770 F   0  0  0  0  0  0  0  0  0  0  0  0
  1  2  2  0  0  0  0
  1  6  1  0  0  0  0
  2  3  1  0  0  0  0
  3  4  2  0  0  0  0
  3 21  1  0  0  0  0
  5  4  1  0  0  0  0
  6  5  2  0  0  0  0
  7  1  1  0  0  0  0
  8  2  1  0  0  0  0
  9  5  1  6  0  0  0
  9 20  1  0  0  0  0
  9 10  1  0  0  0  0
 10 11  1  1  0  0  0
 10 12  1  0  0  0  0
 11 12  1  0  0  0  0
 13 12  1  0  0  0  0
 13 14  2  0  0  0  0
 15 14  1  0  0  0  0
 15 16  1  0  0  0  0
 17 15  2  0  0  0  0
 18 17  1  0  0  0  0
 19 17  1  0  0  0  0
 20 19  1  1  0  0  0
 20 10  1  0  0  0  0
 20 13  1  0  0  0  0
 21 22  1  0  0  0  0
 22 27  1  0  0  0  0
 22 23  2  0  0  0  0
 23 28  1  0  0  0  0
 24 23  1  0  0  0  0
 25 24  2  0  0  0  0
 26 21  2  0  0  0  0
 26 25  1  0  0  0  0
 29 25  1  0  0  0  0
 29 31  1  0  0  0  0
 30 29  1  0  0  0  0
 32 29  1  0  0  0  0
M  END
>  <minimizedAffinity>
-6.15372801

$$$$

 OpenBabel03272502243D

 32 37  0  0  1  0  0  0  0  0999 V2000
   35.1990   25.9310   31.0710 C   0  0  0  0  0  0  0  0  0  0  0  0
   35.3240   24.5500   31.1340 C   0  0  0  0  0  0  0  0  0  0  0  0
   36.5720   23.9820   31.0870 C   0  0  0  0  0  0  0  0  0  0  0  0
   37.6460   24.8190   30.9800 N   0  0  0  0  0  0  0  0  0  0  0  0
   37.4700   26.1880   30.9200 C   0  0  0  0  0  0  0  0  0  0  0  0
   36.2710   26.7030   30.9670 N   0  0  0  0  0  0  0  0  0  0  0  0
   34.2230   26.3550   31.1170 H   0  0  0  0  0  0  0  0  0  0  0  0
   34.5540   23.8270   31.2260 H   0  0  0  0  0  0  0  0  0  0  0  0
   38.7970   26.6090   30.8840 C   0  0  2  0  0  3  0  0  0  0  0  0
   40.0870   27.0170   30.8550 N   0  0  2  0  0  4  0  0  0  0  0  0
   40.9590   27.3320   30.1260 C   0  0  0  0  0  2  0  0  0  0  0  0
   41.3770   27.3860   31.4300 N   0  0  0  0  0  0  0  0  0  0  0  0
   40.6000   27.0810   32.4930 C   0  0  0  0  0  0  0  0  0  0  0  0
   41.0880   27.1760   33.8640 C   0  0  0  0  0  3  0  0  0  0  0  0
   40.2530   26.8820   34.9330 C   0  0  0  0  0  0  0  0  0  0  0  0
   40.7240   26.9750   35.8940 H   0  0  0  0  0  0  0  0  0  0  0  0
   38.9490   26.4960   34.7690 C   0  0  0  0  0  0  0  0  0  0  0  0
   38.3130   26.2810   35.5840 H   0  0  0  0  0  0  0  0  0  0  0  0
   38.5060   26.4050   33.4710 C   0  0  0  0  0  2  0  0  0  0  0  0
   39.2400   26.6690   32.2700 C   0  0  2  0  0  0  0  0  0  0  0  0
   36.8590   22.5320   31.1580 C   0  0  0  0  0  0  0  0  0  0  0  0
   38.0280   22.0130   30.7000 C   0  0  0  0  0  0  0  0  0  0  0  0
   38.3260   20.6550   30.7660 C   0  0  0  0  0  0  0  0  0  0  0  0
   37.3930   19.8300   31.3150 N   0  0  0  0  0  0  0  0  0  0  0  0
   36.2640   20.3600   31.7520 C   0  0  0  0  0  0  0  0  0  0  0  0
   35.9510   21.6790   31.6990 N   0  0  0  0  0  0  0  0  0  0  0  0
   38.7320   22.7090   30.2670 H   0  0  0  0  0  0  0  0  0  0  0  0
   39.2400   20.2240   30.4230 H   0  0  0  0  0  0  0  0  0  0  0  0
   35.2300   19.4770   32.3680 C   0  0  0  0  0  0  0  0  0  0  0  0
   35.3260   19.5950   33.7520 F   0  0  0  0  0  0  0  0  0  0  0  0
   33.9640   19.8020   31.9180 F   0  0  0  0  0  0  0  0  0  0  0  0
   35.4400   18.1640   32.0630 F   0  0  0  0  0  0  0  0  0  0  0  0
  1  7  1  0  0  0  0
  1  2  1  0  0  0  0
  2  8  1  0  0  0  0
  3  2  2  0  0  0  0
  3 21  1  0  0  0  0
  4  3  1  0  0  0  0
  5  6  1  0  0  0  0
  5  4  2  0  0  0  0
  6  1  2  0  0  0  0
  9  5  1  6  0  0  0
  9 20  1  0  0  0  0
 10 11  1  1  0  0  0
 10  9  1  0  0  0  0
 10 12  1  0  0  0  0
 10 20  1  0  0  0  0
 11 12  1  0  0  0  0
 12 13  1  0  0  0  0
 13 14  2  0  0  0  0
 14 15  1  0  0  0  0
 15 16  1  0  0  0  0
 17 15  2  0  0  0  0
 17 18  1  0  0  0  0
 19 17  1  0  0  0  0
 20 13  1  0  0  0  0
 20 19  1  1  0  0  0
 21 26  1  0  0  0  0
 22 23  1  0  0  0  0
 22 21  2  0  0  0  0
 23 24  2  0  0  0  0
 24 25  1  0  0  0  0
 25 29  1  0  0  0  0
 26 25  2  0  0  0  0
 27 22  1  0  0  0  0
 28 23  1  0  0  0  0
 29 30  1  0  0  0  0
 31 29  1  0  0  0  0
 32 29  1  0  0  0  0
M  END
>  <minimizedAffinity>
-6.13165188

$$$$
