
 OpenBabel03272504573D

 36 39  0  0  1  0  0  0  0  0999 V2000
   36.9700   31.5260   48.8310 C   0  0  1  0  0  0  0  0  0  0  0  0
   36.0380   31.0270   47.8480 C   0  0  0  0  0  0  0  0  0  0  0  0
   37.0640   30.1160   48.4450 C   0  0  2  0  0  0  0  0  0  0  0  0
   36.6840   31.6860   49.9270 H   0  0  0  0  0  0  0  0  0  0  0  0
   35.0490   31.2880   48.1820 H   0  0  0  0  0  0  0  0  0  0  0  0
   36.2060   31.3270   46.7930 H   0  0  0  0  0  0  0  0  0  0  0  0
   37.6460   29.6580   47.6640 H   0  0  0  0  0  0  0  0  0  0  0  0
   38.1190   32.4100   48.4320 C   0  0  0  0  0  0  0  0  0  0  0  0
   38.5070   33.3780   49.3740 C   0  0  0  0  0  0  0  0  0  0  0  0
   39.5620   34.1730   48.9870 C   0  0  0  0  0  0  0  0  0  0  0  0
   40.1490   33.9950   47.7830 N   0  0  0  0  0  0  0  0  0  0  0  0
   39.7470   33.0490   46.9010 C   0  0  0  0  0  0  0  0  0  0  0  0
   38.6950   32.2280   47.2370 N   0  0  0  0  0  0  0  0  0  0  0  0
   40.3510   32.8260   45.6600 N   0  0  0  0  0  0  0  0  0  0  0  0
   38.0570   33.5280   50.3220 H   0  0  0  0  0  0  0  0  0  0  0  0
   39.9170   34.9420   49.6610 H   0  0  0  0  0  0  0  0  0  0  0  0
   41.2740   32.3070   45.5620 H   0  0  0  0  0  0  0  0  0  0  0  0
   39.8780   33.1830   44.8060 H   0  0  0  0  0  0  0  0  0  0  0  0
   36.5780   29.2030   49.3840 O   0  0  0  0  0  0  0  0  0  0  0  0
   34.6840   27.4880   49.7170 O   0  0  0  0  0  0  0  0  0  0  0  0
   35.0030   28.7830   49.0410 P   0  0  1  0  0  0  0  0  0  0  0  0
   33.9370   29.9420   49.7670 O   0  0  0  0  0  0  0  0  0  0  0  0
   33.0430   29.5420   49.6300 H   0  0  0  0  0  0  0  0  0  0  0  0
   34.7840   28.7700   47.3780 O   0  0  0  0  0  0  0  0  0  0  0  0
   33.6270   28.8700   46.6670 C   0  0  0  0  0  0  0  0  0  0  0  0
   32.4030   28.7080   47.1710 N   0  0  0  0  0  0  0  0  0  0  0  0
   31.3580   28.8390   46.3370 C   0  0  0  0  0  3  0  0  0  0  0  0
   31.5020   29.1260   45.0210 N   0  0  0  0  0  0  0  0  0  0  0  0
   32.7160   29.2990   44.4660 C   0  0  0  0  0  0  0  0  0  0  0  0
   32.9000   29.5930   43.1250 C   0  0  0  0  0  3  0  0  0  0  0  0
   34.1500   29.7610   42.5980 C   0  0  0  0  0  0  0  0  0  0  0  0
   34.3260   29.9910   41.5590 H   0  0  0  0  0  0  0  0  0  0  0  0
   35.2380   29.6350   43.4150 C   0  0  0  0  0  0  0  0  0  0  0  0
   36.2380   29.7650   43.0200 H   0  0  0  0  0  0  0  0  0  0  0  0
   35.0430   29.3420   44.7490 C   0  0  0  0  0  3  0  0  0  0  0  0
   33.8070   29.1670   45.3120 C   0  0  0  0  0  0  0  0  0  0  0  0
  1  4  1  1  0  0  0
  2  5  1  0  0  0  0
  2  3  1  0  0  0  0
  2  1  1  0  0  0  0
  3  7  1  6  0  0  0
  3  1  1  0  0  0  0
  3 19  1  0  0  0  0
  6  2  1  0  0  0  0
  8  1  1  0  0  0  0
  8  9  1  0  0  0  0
  9 15  1  0  0  0  0
 10  9  2  0  0  0  0
 10 16  1  0  0  0  0
 11 10  1  0  0  0  0
 12 13  1  0  0  0  0
 12 11  2  0  0  0  0
 13  8  2  0  0  0  0
 14 12  1  0  0  0  0
 17 14  1  0  0  0  0
 18 14  1  0  0  0  0
 21 19  1  0  0  0  0
 21 20  2  1  0  0  0
 21 22  1  0  0  0  0
 23 22  1  0  0  0  0
 24 21  1  0  0  0  0
 25 26  1  0  0  0  0
 25 24  1  0  0  0  0
 27 26  2  0  0  0  0
 28 27  1  0  0  0  0
 29 28  2  0  0  0  0
 29 36  1  0  0  0  0
 30 29  1  0  0  0  0
 31 30  2  0  0  0  0
 31 33  1  0  0  0  0
 32 31  1  0  0  0  0
 33 35  2  0  0  0  0
 34 33  1  0  0  0  0
 35 36  1  0  0  0  0
 36 25  2  0  0  0  0
M  END
>  <minimizedAffinity>
-4.53449631

>  <minimizedRMSD>
2.01504874

$$$$
