
 OpenBabel03272507303D

 32 35  0  0  0  0  0  0  0  0999 V2000
   35.7770   29.4180   49.5830 C   0  0  0  0  0  0  0  0  0  0  0  0
   34.9310   30.0760   50.4020 C   0  0  0  0  0  0  0  0  0  0  0  0
   33.6450   29.5640   50.2330 C   0  0  0  0  0  0  0  0  0  0  0  0
   33.8000   28.5580   49.2560 C   0  0  0  0  0  0  0  0  0  0  0  0
   35.0460   28.5670   48.9650 O   0  0  0  0  0  0  0  0  0  0  0  0
   35.0160   30.8730   51.1250 H   0  0  0  0  0  0  0  0  0  0  0  0
   32.6980   29.8150   50.6940 H   0  0  0  0  0  0  0  0  0  0  0  0
   37.1890   29.6980   49.5030 C   0  0  0  0  0  0  0  0  0  0  0  0
   37.9560   29.1560   50.3100 O   0  0  0  0  0  0  0  0  0  0  0  0
   37.6190   30.6210   48.4570 C   0  0  0  0  0  0  0  0  0  0  0  0
   38.4310   31.6820   48.8880 C   0  0  0  0  0  0  0  0  0  0  0  0
   38.8590   32.5790   47.9050 C   0  0  0  0  0  0  0  0  0  0  0  0
   38.4820   32.3900   46.6140 N   0  0  0  0  0  0  0  0  0  0  0  0
   37.6950   31.3450   46.2560 C   0  0  0  0  0  0  0  0  0  0  0  0
   37.2730   30.4750   47.1680 N   0  0  0  0  0  0  0  0  0  0  0  0
   38.7320   31.8350   49.9130 H   0  0  0  0  0  0  0  0  0  0  0  0
   39.4920   33.4340   48.1500 H   0  0  0  0  0  0  0  0  0  0  0  0
   37.3800   31.1700   45.2440 H   0  0  0  0  0  0  0  0  0  0  0  0
   32.7000   27.7280   48.7490 C   0  0  0  0  0  0  0  0  0  0  0  0
   31.5430   27.8980   49.2050 O   0  0  0  0  0  0  0  0  0  0  0  0
   32.5910   26.6650   47.7810 C   0  0  0  0  0  0  0  0  0  0  0  0
   33.7490   26.0370   47.4650 N   0  0  0  0  0  0  0  0  0  0  0  0
   33.8230   25.0130   46.5680 C   0  0  0  0  0  3  0  0  0  0  0  0
   32.7130   24.5890   45.9560 N   0  0  0  0  0  0  0  0  0  0  0  0
   31.5140   25.1400   46.2000 C   0  0  0  0  0  0  0  0  0  0  0  0
   30.3560   24.6940   45.6020 C   0  0  0  0  0  3  0  0  0  0  0  0
   29.1390   25.2480   45.8910 C   0  0  0  0  0  0  0  0  0  0  0  0
   28.2320   24.8990   45.4230 H   0  0  0  0  0  0  0  0  0  0  0  0
   29.1330   26.2850   46.8210 C   0  0  0  0  0  0  0  0  0  0  0  0
   28.1560   26.7080   47.0360 H   0  0  0  0  0  0  0  0  0  0  0  0
   30.3060   26.7070   47.3990 C   0  0  0  0  0  3  0  0  0  0  0  0
   31.5270   26.1630   47.1140 C   0  0  0  0  0  0  0  0  0  0  0  0
  1  2  2  0  0  0  0
  2  6  1  0  0  0  0
  3  2  1  0  0  0  0
  3  7  1  0  0  0  0
  4  3  2  0  0  0  0
  5  4  1  0  0  0  0
  5  1  1  0  0  0  0
  8  1  1  0  0  0  0
  8  9  2  0  0  0  0
 10 11  1  0  0  0  0
 10  8  1  0  0  0  0
 11 16  1  0  0  0  0
 12 17  1  0  0  0  0
 12 11  2  0  0  0  0
 13 12  1  0  0  0  0
 14 13  2  0  0  0  0
 14 15  1  0  0  0  0
 15 10  2  0  0  0  0
 18 14  1  0  0  0  0
 19 20  2  0  0  0  0
 19  4  1  0  0  0  0
 21 19  1  0  0  0  0
 22 21  1  0  0  0  0
 23 22  2  0  0  0  0
 24 25  2  0  0  0  0
 24 23  1  0  0  0  0
 25 32  1  0  0  0  0
 26 27  2  0  0  0  0
 26 25  1  0  0  0  0
 27 29  1  0  0  0  0
 28 27  1  0  0  0  0
 29 30  1  0  0  0  0
 29 31  2  0  0  0  0
 32 31  1  0  0  0  0
 32 21  2  0  0  0  0
M  END
>  <minimizedAffinity>
-5.32123327

>  <minimizedRMSD>
2.1589992

$$$$
