
 OpenBabel03272504243D

 42 46  0  0  0  0  0  0  0  0999 V2000
   34.6290   30.1460   46.7820 C   0  0  0  0  0  0  0  0  0  0  0  0
   35.9420   30.3080   46.3350 C   0  0  0  0  0  0  0  0  0  0  0  0
   37.0140   30.5610   47.1590 C   0  0  0  0  0  0  0  0  0  0  0  0
   36.8390   30.6710   48.5310 C   0  0  0  0  0  0  0  0  0  0  0  0
   35.5760   30.5220   49.0610 C   0  0  0  0  0  0  0  0  0  0  0  0
   34.5790   30.2750   48.1710 C   0  0  0  0  0  0  0  0  0  0  0  0
   38.0160   30.6760   46.7140 H   0  0  0  0  0  0  0  0  0  0  0  0
   37.7230   30.8710   49.1140 H   0  0  0  0  0  0  0  0  0  0  0  0
   35.4170   30.5990   50.1050 H   0  0  0  0  0  0  0  0  0  0  0  0
   33.5800   30.1600   48.6260 H   0  0  0  0  0  0  0  0  0  0  0  0
   36.5510   31.0050   42.7800 C   0  0  0  0  0  0  0  0  0  0  0  0
   36.5990   29.7560   42.3170 C   0  0  0  0  0  0  0  0  0  0  0  0
   36.4560   28.6960   43.1110 C   0  0  0  0  0  0  0  0  0  0  0  0
   36.2520   28.9180   44.4240 N   0  0  0  0  0  0  0  0  0  0  0  0
   36.1910   30.1570   44.9150 C   0  0  0  0  0  0  0  0  0  0  0  0
   36.3420   31.2030   44.0950 N   0  0  0  0  0  0  0  0  0  0  0  0
   36.7580   29.6610   41.2560 H   0  0  0  0  0  0  0  0  0  0  0  0
   36.5290   27.7560   42.5710 H   0  0  0  0  0  0  0  0  0  0  0  0
   38.3460   33.7640   41.1310 C   0  0  0  0  0  0  0  0  0  0  0  0
   37.3070   34.4050   40.4250 C   0  0  0  0  0  0  0  0  0  0  0  0
   36.0050   33.8630   40.5290 C   0  0  0  0  0  0  0  0  0  0  0  0
   35.8110   32.7510   41.3030 N   0  0  0  0  0  0  0  0  0  0  0  0
   36.8160   32.1760   41.9520 C   0  0  0  0  0  0  0  0  0  0  0  0
   38.0970   32.6860   41.8670 N   0  0  0  0  0  0  0  0  0  0  0  0
   39.3440   34.1730   41.0560 H   0  0  0  0  0  0  0  0  0  0  0  0
   37.4380   35.2670   39.8210 H   0  0  0  0  0  0  0  0  0  0  0  0
   35.1460   34.2770   40.0300 H   0  0  0  0  0  0  0  0  0  0  0  0
   33.2910   29.8310   45.7880 S   0  0  0  0  0  0  0  0  0  0  0  0
   33.4310   28.3660   45.6530 O   0  0  0  0  0  0  0  0  0  0  0  0
   33.5540   30.1880   44.3690 O   0  0  0  0  0  0  0  0  0  0  0  0
   31.7130   29.3720   46.2510 C   0  0  0  0  0  0  0  0  0  0  0  0
   31.2550   28.3600   46.9710 N   0  0  0  0  0  0  0  0  0  0  0  0
   30.0090   27.9760   47.2370 C   0  0  0  0  0  3  0  0  0  0  0  0
   29.0130   28.6940   46.7180 N   0  0  0  0  0  0  0  0  0  0  0  0
   29.3470   29.7490   45.9650 C   0  0  0  0  0  0  0  0  0  0  0  0
   28.2560   30.4420   45.4700 C   0  0  0  0  0  3  0  0  0  0  0  0
   28.4330   31.5570   44.6830 C   0  0  0  0  0  0  0  0  0  0  0  0
   27.5840   32.0920   44.3000 H   0  0  0  0  0  0  0  0  0  0  0  0
   29.7180   31.9620   44.4040 C   0  0  0  0  0  0  0  0  0  0  0  0
   29.8560   32.8260   43.7950 H   0  0  0  0  0  0  0  0  0  0  0  0
   30.7530   31.2240   44.9310 C   0  0  0  0  0  3  0  0  0  0  0  0
   30.6460   30.0990   45.7230 C   0  0  0  0  0  0  0  0  0  0  0  0
  1  6  1  0  0  0  0
  2  1  2  0  0  0  0
  2  3  1  0  0  0  0
  3  4  2  0  0  0  0
  4  5  1  0  0  0  0
  4  8  1  0  0  0  0
  5  9  1  0  0  0  0
  6 10  1  0  0  0  0
  6  5  2  0  0  0  0
  7  3  1  0  0  0  0
 11 16  1  0  0  0  0
 12 11  2  0  0  0  0
 12 13  1  0  0  0  0
 13 14  2  0  0  0  0
 14 15  1  0  0  0  0
 15  2  1  0  0  0  0
 16 15  2  0  0  0  0
 17 12  1  0  0  0  0
 18 13  1  0  0  0  0
 19 24  1  0  0  0  0
 20 21  1  0  0  0  0
 20 19  2  0  0  0  0
 21 22  2  0  0  0  0
 22 23  1  0  0  0  0
 23 11  1  0  0  0  0
 24 23  2  0  0  0  0
 25 19  1  0  0  0  0
 26 20  1  0  0  0  0
 27 21  1  0  0  0  0
 28 31  1  0  0  0  0
 28  1  1  0  0  0  0
 29 28  2  0  0  0  0
 30 28  2  0  0  0  0
 31 32  1  0  0  0  0
 32 33  2  0  0  0  0
 34 33  1  0  0  0  0
 35 34  2  0  0  0  0
 36 35  1  0  0  0  0
 37 36  2  0  0  0  0
 38 37  1  0  0  0  0
 39 37  1  0  0  0  0
 39 41  2  0  0  0  0
 40 39  1  0  0  0  0
 41 42  1  0  0  0  0
 42 35  1  0  0  0  0
 42 31  2  0  0  0  0
M  END
>  <minimizedAffinity>
-4.65095758

>  <minimizedRMSD>
6.65325308

$$$$
