
 OpenBabel03272503123D

 49 54  0  0  0  0  0  0  0  0999 V2000
   39.1000   32.1280   42.5440 C   0  0  0  0  0  0  0  0  0  0  0  0
   39.6830   31.4670   43.6030 C   0  0  0  0  0  0  0  0  0  0  0  0
   40.6110   30.4860   43.4390 C   0  0  0  0  0  0  0  0  0  0  0  0
   41.0090   30.1120   42.1660 C   0  0  0  0  0  0  0  0  0  0  0  0
   41.8740   29.2100   41.7010 N   0  0  0  0  0  0  0  0  0  0  0  0
   41.8590   29.2780   40.3640 C   0  0  0  0  0  0  0  0  0  0  0  0
   40.9840   30.2240   39.9920 N   0  0  0  0  0  0  0  0  0  0  0  0
   40.4280   30.7730   41.0980 C   0  0  0  0  0  0  0  0  0  0  0  0
   39.4760   31.7790   41.2360 C   0  0  0  0  0  0  0  0  0  0  0  0
   38.3610   32.9100   42.6670 H   0  0  0  0  0  0  0  0  0  0  0  0
   41.0260   30.0090   44.3210 H   0  0  0  0  0  0  0  0  0  0  0  0
   42.4510   28.5710   42.3130 H   0  0  0  0  0  0  0  0  0  0  0  0
   42.4660   28.6570   39.7130 H   0  0  0  0  0  0  0  0  0  0  0  0
   39.2360   31.8910   44.9140 C   0  0  0  0  0  0  0  0  0  0  0  0
   38.1550   32.5480   45.0430 O   0  0  0  0  0  0  0  0  0  0  0  0
   39.9430   31.6180   46.1300 N   0  0  0  0  0  0  0  0  0  0  0  0
   40.8180   31.0940   46.0540 H   0  0  0  0  0  0  0  0  0  0  0  0
   38.1080   30.1410   47.4800 F   0  0  0  0  0  0  0  0  0  0  0  0
   38.3690   31.3810   47.9680 C   0  0  0  0  0  0  0  0  0  0  0  0
   37.7240   31.8290   49.0820 C   0  0  0  0  0  0  0  0  0  0  0  0
   38.0410   33.0920   49.5150 C   0  0  0  0  0  0  0  0  0  0  0  0
   38.9510   33.8870   48.8860 C   0  0  0  0  0  0  0  0  0  0  0  0
   39.5970   33.4110   47.7520 C   0  0  0  0  0  0  0  0  0  0  0  0
   39.2950   32.1370   47.2930 C   0  0  0  0  0  0  0  0  0  0  0  0
   37.5320   33.4620   50.4040 H   0  0  0  0  0  0  0  0  0  0  0  0
   39.1900   34.8840   49.2410 H   0  0  0  0  0  0  0  0  0  0  0  0
   40.3330   33.9740   47.1920 H   0  0  0  0  0  0  0  0  0  0  0  0
   36.0920   29.3710   51.4470 C   0  0  0  0  0  0  0  0  0  0  0  0
   37.0640   30.2210   50.8620 C   0  0  0  0  0  0  0  0  0  0  0  0
   36.7560   30.9410   49.7210 C   0  0  0  0  0  0  0  0  0  0  0  0
   35.4980   30.7910   49.2040 N   0  0  0  0  0  0  0  0  0  0  0  0
   34.5870   29.9840   49.7670 C   0  0  0  0  0  0  0  0  0  0  0  0
   34.8830   29.2890   50.8690 N   0  0  0  0  0  0  0  0  0  0  0  0
   36.4220   28.8460   52.3400 H   0  0  0  0  0  0  0  0  0  0  0  0
   38.0680   30.3680   51.2380 H   0  0  0  0  0  0  0  0  0  0  0  0
   33.5940   29.8340   49.4030 H   0  0  0  0  0  0  0  0  0  0  0  0
   38.9020   32.4330   40.1700 O   0  0  0  0  0  0  0  0  0  0  0  0
   37.7040   32.1350   39.5780 C   0  0  0  0  0  0  0  0  0  0  0  0
   36.9640   31.0130   39.7110 N   0  0  0  0  0  0  0  0  0  0  0  0
   35.7950   30.8450   39.0660 C   0  0  0  0  0  3  0  0  0  0  0  0
   35.3280   31.8260   38.2520 N   0  0  0  0  0  0  0  0  0  0  0  0
   36.0160   32.9620   38.0790 C   0  0  0  0  0  0  0  0  0  0  0  0
   35.4810   33.9190   37.2350 C   0  0  0  0  0  3  0  0  0  0  0  0
   36.1850   35.0750   37.0620 C   0  0  0  0  0  0  0  0  0  0  0  0
   35.8400   35.8720   36.4220 H   0  0  0  0  0  0  0  0  0  0  0  0
   37.3720   35.2940   37.6890 C   0  0  0  0  0  0  0  0  0  0  0  0
   37.9800   36.1990   37.5890 H   0  0  0  0  0  0  0  0  0  0  0  0
   37.8790   34.3220   38.5240 C   0  0  0  0  0  3  0  0  0  0  0  0
   37.2060   33.1250   38.7390 C   0  0  0  0  0  0  0  0  0  0  0  0
  1 10  1  0  0  0  0
  1  2  1  0  0  0  0
  2 14  1  0  0  0  0
  3  2  2  0  0  0  0
  3 11  1  0  0  0  0
  4  3  1  0  0  0  0
  5  4  1  0  0  0  0
  5 12  1  0  0  0  0
  6  5  1  0  0  0  0
  7  6  2  0  0  0  0
  7  8  1  0  0  0  0
  8  9  1  0  0  0  0
  8  4  2  0  0  0  0
  9  1  2  0  0  0  0
 13  6  1  0  0  0  0
 14 15  2  0  0  0  0
 14 16  1  0  0  0  0
 16 24  1  0  0  0  0
 17 16  1  0  0  0  0
 18 19  1  0  0  0  0
 19 20  1  0  0  0  0
 20 21  2  0  0  0  0
 20 30  1  0  0  0  0
 21 25  1  0  0  0  0
 22 26  1  0  0  0  0
 22 21  1  0  0  0  0
 23 22  2  0  0  0  0
 24 23  1  0  0  0  0
 24 19  2  0  0  0  0
 27 23  1  0  0  0  0
 28 34  1  0  0  0  0
 29 35  1  0  0  0  0
 29 28  2  0  0  0  0
 30 29  1  0  0  0  0
 31 30  2  0  0  0  0
 31 32  1  0  0  0  0
 32 33  2  0  0  0  0
 33 28  1  0  0  0  0
 36 32  1  0  0  0  0
 37  9  1  0  0  0  0
 38 39  1  0  0  0  0
 38 37  1  0  0  0  0
 40 39  2  0  0  0  0
 41 40  1  0  0  0  0
 42 41  2  0  0  0  0
 42 49  1  0  0  0  0
 43 42  1  0  0  0  0
 44 43  2  0  0  0  0
 44 46  1  0  0  0  0
 45 44  1  0  0  0  0
 46 48  2  0  0  0  0
 47 46  1  0  0  0  0
 48 49  1  0  0  0  0
 49 38  2  0  0  0  0
M  END
>  <minimizedAffinity>
-7.32178068

>  <minimizedRMSD>
1.95148027

$$$$
