
 OpenBabel03272507303D

 32 35  0  0  0  0  0  0  0  0999 V2000
   35.9390   29.2700   49.6000 C   0  0  0  0  0  0  0  0  0  0  0  0
   34.9590   29.3050   50.5260 C   0  0  0  0  0  0  0  0  0  0  0  0
   33.7630   28.8940   49.9390 C   0  0  0  0  0  0  0  0  0  0  0  0
   34.1140   28.6150   48.6010 C   0  0  0  0  0  0  0  0  0  0  0  0
   35.3680   28.8640   48.5280 O   0  0  0  0  0  0  0  0  0  0  0  0
   34.8910   29.5660   51.5710 H   0  0  0  0  0  0  0  0  0  0  0  0
   32.7610   28.7830   50.3330 H   0  0  0  0  0  0  0  0  0  0  0  0
   37.3060   29.6370   49.8710 C   0  0  0  0  0  0  0  0  0  0  0  0
   37.9140   29.0590   50.7820 O   0  0  0  0  0  0  0  0  0  0  0  0
   37.8860   30.6840   49.0350 C   0  0  0  0  0  0  0  0  0  0  0  0
   38.1530   31.8960   49.6900 C   0  0  0  0  0  0  0  0  0  0  0  0
   38.7110   32.9160   48.9130 C   0  0  0  0  0  0  0  0  0  0  0  0
   38.9630   32.6940   47.5960 N   0  0  0  0  0  0  0  0  0  0  0  0
   38.6830   31.5010   47.0170 C   0  0  0  0  0  0  0  0  0  0  0  0
   38.1530   30.5120   47.7310 N   0  0  0  0  0  0  0  0  0  0  0  0
   37.9540   32.0760   50.7360 H   0  0  0  0  0  0  0  0  0  0  0  0
   38.9510   33.8920   49.3390 H   0  0  0  0  0  0  0  0  0  0  0  0
   38.8700   31.2960   45.9790 H   0  0  0  0  0  0  0  0  0  0  0  0
   33.1670   28.1400   47.5850 C   0  0  0  0  0  0  0  0  0  0  0  0
   33.1900   26.9320   47.2430 O   0  0  0  0  0  0  0  0  0  0  0  0
   32.1260   28.7540   46.7980 C   0  0  0  0  0  0  0  0  0  0  0  0
   30.8580   28.4850   47.1900 N   0  0  0  0  0  0  0  0  0  0  0  0
   29.7590   28.9840   46.5550 C   0  0  0  0  0  0  0  0  0  0  0  0
   29.9130   29.7810   45.4940 N   0  0  0  0  0  0  0  0  0  0  0  0
   31.1270   30.1120   45.0260 C   0  0  0  0  0  0  0  0  0  0  0  0
   31.3040   30.9580   43.9530 C   0  0  0  0  0  0  0  0  0  0  0  0
   32.5510   31.3100   43.5160 C   0  0  0  0  0  0  0  0  0  0  0  0
   32.6890   31.9720   42.6740 H   0  0  0  0  0  0  0  0  0  0  0  0
   33.6300   30.7730   44.2110 C   0  0  0  0  0  0  0  0  0  0  0  0
   34.6090   31.0670   43.8470 H   0  0  0  0  0  0  0  0  0  0  0  0
   33.4200   29.9310   45.2770 C   0  0  0  0  0  0  0  0  0  0  0  0
   32.1780   29.5690   45.7210 C   0  0  0  0  0  0  0  0  0  0  0  0
  1  8  1  0  0  0  0
  1  2  2  0  0  0  0
  2  6  1  0  0  0  0
  3  7  1  0  0  0  0
  3  2  1  0  0  0  0
  4  3  2  0  0  0  0
  5  4  1  0  0  0  0
  5  1  1  0  0  0  0
  8  9  2  0  0  0  0
 10 11  1  0  0  0  0
 10  8  1  0  0  0  0
 11 16  1  0  0  0  0
 12 17  1  0  0  0  0
 12 11  2  0  0  0  0
 13 12  1  0  0  0  0
 14 13  2  0  0  0  0
 14 15  1  0  0  0  0
 15 10  2  0  0  0  0
 18 14  1  0  0  0  0
 19  4  1  0  0  0  0
 20 19  2  0  0  0  0
 21 22  1  0  0  0  0
 21 19  1  0  0  0  0
 23 22  2  0  0  0  0
 24 23  1  0  0  0  0
 25 24  2  0  0  0  0
 25 32  1  0  0  0  0
 26 25  1  0  0  0  0
 27 26  2  0  0  0  0
 27 29  1  0  0  0  0
 28 27  1  0  0  0  0
 29 31  2  0  0  0  0
 30 29  1  0  0  0  0
 31 32  1  0  0  0  0
 32 21  2  0  0  0  0
M  END
>  <minimizedAffinity>
-5.57029676

>  <minimizedRMSD>
4.67374897

$$$$
