
 OpenBabel03272501583D

 34 37  0  0  0  0  0  0  0  0999 V2000
   32.9810   28.3560   47.8640 C   0  0  0  0  0  0  0  0  0  0  0  0
   32.2260   27.6380   48.7700 C   0  0  0  0  0  0  0  0  0  0  0  0
   30.9130   27.5540   48.3340 C   0  0  0  0  0  0  0  0  0  0  0  0
   30.9080   28.2390   47.1510 N   0  0  0  0  0  0  0  0  0  0  0  0
   32.1280   28.7120   46.8730 N   0  0  0  0  0  0  0  0  0  0  0  0
   32.5820   27.1920   49.6940 H   0  0  0  0  0  0  0  0  0  0  0  0
   30.0480   27.0800   48.7730 H   0  0  0  0  0  0  0  0  0  0  0  0
   29.7940   28.4590   46.2800 C   0  0  0  0  0  0  0  0  0  0  0  0
   29.4700   29.7770   46.1390 N   0  0  0  0  0  0  0  0  0  0  0  0
   28.4220   30.1120   45.3310 C   0  0  0  0  0  3  0  0  0  0  0  0
   27.6850   29.1870   44.6580 N   0  0  0  0  0  0  0  0  0  0  0  0
   28.0340   27.8870   44.8220 C   0  0  0  0  0  0  0  0  0  0  0  0
   27.3040   26.9190   44.1510 C   0  0  0  0  0  3  0  0  0  0  0  0
   27.6790   25.5930   44.3320 C   0  0  0  0  0  0  0  0  0  0  0  0
   27.0780   24.8680   43.7860 H   0  0  0  0  0  0  0  0  0  0  0  0
   28.7240   25.2300   45.1350 C   0  0  0  0  0  0  0  0  0  0  0  0
   29.0030   24.1900   45.2660 H   0  0  0  0  0  0  0  0  0  0  0  0
   29.4710   26.1900   45.8190 C   0  0  0  0  0  3  0  0  0  0  0  0
   29.0820   27.4810   45.6230 C   0  0  0  0  0  0  0  0  0  0  0  0
   34.4390   28.6620   47.9770 C   0  0  0  0  0  0  0  0  0  0  0  0
   34.9580   28.0160   47.2200 H   0  0  0  0  0  0  0  0  0  0  0  0
   34.5700   29.7420   47.7930 H   0  0  0  0  0  0  0  0  0  0  0  0
   34.8380   28.3240   49.3860 C   0  0  0  0  0  0  0  0  0  0  0  0
   34.0260   28.2950   50.1140 H   0  0  0  0  0  0  0  0  0  0  0  0
   35.2500   27.2740   49.3640 H   0  0  0  0  0  0  0  0  0  0  0  0
   37.2890   30.1900   51.4400 C   0  0  0  0  0  0  0  0  0  0  0  0
   38.1110   30.7710   50.4690 C   0  0  0  0  0  0  0  0  0  0  0  0
   37.8190   30.5190   49.1270 C   0  0  0  0  0  0  0  0  0  0  0  0
   36.7640   29.7310   48.8120 N   0  0  0  0  0  0  0  0  0  0  0  0
   35.9900   29.1860   49.7890 C   0  0  0  0  0  0  0  0  0  0  0  0
   36.2560   29.4180   51.0730 N   0  0  0  0  0  0  0  0  0  0  0  0
   37.5080   30.3800   52.4960 H   0  0  0  0  0  0  0  0  0  0  0  0
   38.9290   31.3850   50.7970 H   0  0  0  0  0  0  0  0  0  0  0  0
   38.4340   30.9530   48.3680 H   0  0  0  0  0  0  0  0  0  0  0  0
  1 20  1  0  0  0  0
  1  2  1  0  0  0  0
  2  6  1  0  0  0  0
  3  2  2  0  0  0  0
  3  7  1  0  0  0  0
  4  3  1  0  0  0  0
  5  4  1  0  0  0  0
  5  1  2  0  0  0  0
  8  4  1  0  0  0  0
  9  8  1  0  0  0  0
 10  9  2  0  0  0  0
 11 12  2  0  0  0  0
 11 10  1  0  0  0  0
 12 19  1  0  0  0  0
 13 14  2  0  0  0  0
 13 12  1  0  0  0  0
 14 16  1  0  0  0  0
 15 14  1  0  0  0  0
 16 17  1  0  0  0  0
 16 18  2  0  0  0  0
 19 18  1  0  0  0  0
 19  8  2  0  0  0  0
 20 23  1  0  0  0  0
 21 20  1  0  0  0  0
 22 20  1  0  0  0  0
 23 30  1  0  0  0  0
 23 24  1  0  0  0  0
 25 23  1  0  0  0  0
 26 32  1  0  0  0  0
 27 33  1  0  0  0  0
 27 26  2  0  0  0  0
 28 27  1  0  0  0  0
 29 28  2  0  0  0  0
 29 30  1  0  0  0  0
 30 31  2  0  0  0  0
 31 26  1  0  0  0  0
 34 28  1  0  0  0  0
M  END
>  <minimizedAffinity>
-5.54591751

>  <minimizedRMSD>
0.904742658

$$$$
