
 OpenBabel03262522273D

 49 53  0  0  0  0  0  0  0  0999 V2000
   35.0020   30.5800   49.6520 C   0  0  0  0  0  0  0  0  0  0  0  0
   34.4130   30.2300   50.5270 H   0  0  0  0  0  0  0  0  0  0  0  0
   34.9900   31.6860   49.5640 H   0  0  0  0  0  0  0  0  0  0  0  0
   33.0870   28.6270   49.9440 F   0  0  0  0  0  0  0  0  0  0  0  0
   33.5120   28.9510   48.6900 C   0  0  0  0  0  0  0  0  0  0  0  0
   34.4740   29.9210   48.4130 C   0  0  0  0  0  0  0  0  0  0  0  0
   34.8630   30.2070   47.1350 C   0  0  0  0  0  0  0  0  0  0  0  0
   34.2940   29.5180   46.0430 C   0  0  0  0  0  0  0  0  0  0  0  0
   33.3380   28.5540   46.3000 C   0  0  0  0  0  0  0  0  0  0  0  0
   32.9630   28.2850   47.6110 C   0  0  0  0  0  0  0  0  0  0  0  0
   35.6130   30.9760   47.0660 H   0  0  0  0  0  0  0  0  0  0  0  0
   34.6470   29.7940   45.0590 H   0  0  0  0  0  0  0  0  0  0  0  0
   32.9090   28.0330   45.4540 H   0  0  0  0  0  0  0  0  0  0  0  0
   32.0030   27.3060   47.7600 O   0  0  0  0  0  0  0  0  0  0  0  0
   30.8150   27.6730   48.3800 C   0  0  0  0  0  0  0  0  0  0  0  0
   30.4780   27.3520   49.6470 N   0  0  0  0  0  0  0  0  0  0  0  0
   29.3030   27.7410   50.1920 C   0  0  0  0  0  3  0  0  0  0  0  0
   28.4410   28.4750   49.4360 N   0  0  0  0  0  0  0  0  0  0  0  0
   28.6990   28.8360   48.1670 C   0  0  0  0  0  0  0  0  0  0  0  0
   27.7910   29.5820   47.4430 C   0  0  0  0  0  3  0  0  0  0  0  0
   28.0770   29.9410   46.1410 C   0  0  0  0  0  0  0  0  0  0  0  0
   27.4350   30.5220   45.4930 H   0  0  0  0  0  0  0  0  0  0  0  0
   29.2790   29.5400   45.5940 C   0  0  0  0  0  0  0  0  0  0  0  0
   29.5900   29.7700   44.5920 H   0  0  0  0  0  0  0  0  0  0  0  0
   30.1870   28.7950   46.3180 C   0  0  0  0  0  3  0  0  0  0  0  0
   29.9210   28.4180   47.6390 C   0  0  0  0  0  0  0  0  0  0  0  0
   36.6890   29.9570   49.9060 S   0  0  0  0  0  0  0  0  0  0  0  0
   38.9310   32.7280   48.0280 C   0  0  0  0  0  0  0  0  0  0  0  0
   39.2090   32.0900   46.8260 C   0  0  0  0  0  0  0  0  0  0  0  0
   38.6940   30.8370   46.6460 C   0  0  0  0  0  0  0  0  0  0  0  0
   37.9480   30.2870   47.6390 N   0  0  0  0  0  0  0  0  0  0  0  0
   37.7050   30.9180   48.7620 C   0  0  0  0  0  0  0  0  0  0  0  0
   38.1920   32.1830   49.0080 N   0  0  0  0  0  0  0  0  0  0  0  0
   39.3100   33.7310   48.2370 H   0  0  0  0  0  0  0  0  0  0  0  0
   38.8970   30.3170   45.7150 H   0  0  0  0  0  0  0  0  0  0  0  0
   39.9680   32.7450   45.9080 O   0  0  0  0  0  0  0  0  0  0  0  0
   40.0290   32.2770   44.6040 C   0  0  0  0  0  0  0  0  0  0  0  0
   40.6520   31.1230   44.1590 C   0  0  0  0  0  0  0  0  0  0  0  0
   40.6130   30.8190   42.8460 C   0  0  0  0  0  0  0  0  0  0  0  0
   39.9550   31.6640   41.9920 C   0  0  0  0  0  0  0  0  0  0  0  0
   39.3370   32.8160   42.4580 C   0  0  0  0  0  0  0  0  0  0  0  0
   39.3890   33.1030   43.7810 N   0  0  0  0  0  0  0  0  0  0  0  0
   41.1370   30.5390   44.9300 H   0  0  0  0  0  0  0  0  0  0  0  0
   41.0840   29.9390   42.4830 H   0  0  0  0  0  0  0  0  0  0  0  0
   39.9210   31.4250   40.9370 H   0  0  0  0  0  0  0  0  0  0  0  0
   38.6140   33.7360   41.4810 C   0  0  0  0  0  0  0  0  0  0  0  0
   37.7350   33.1700   41.1410 H   0  0  0  0  0  0  0  0  0  0  0  0
   39.2490   33.9440   40.5980 H   0  0  0  0  0  0  0  0  0  0  0  0
   38.3140   34.6220   42.0390 H   0  0  0  0  0  0  0  0  0  0  0  0
  1 27  1  0  0  0  0
  1  2  1  0  0  0  0
  3  1  1  0  0  0  0
  5  4  1  0  0  0  0
  6  5  1  0  0  0  0
  6  1  1  0  0  0  0
  7  6  2  0  0  0  0
  8  9  2  0  0  0  0
  8  7  1  0  0  0  0
  9 10  1  0  0  0  0
 10 14  1  0  0  0  0
 10  5  2  0  0  0  0
 11  7  1  0  0  0  0
 12  8  1  0  0  0  0
 13  9  1  0  0  0  0
 14 15  1  0  0  0  0
 15 16  1  0  0  0  0
 16 17  2  0  0  0  0
 18 17  1  0  0  0  0
 19 18  2  0  0  0  0
 20 19  1  0  0  0  0
 21 20  2  0  0  0  0
 22 21  1  0  0  0  0
 23 21  1  0  0  0  0
 23 25  2  0  0  0  0
 24 23  1  0  0  0  0
 25 26  1  0  0  0  0
 26 19  1  0  0  0  0
 26 15  2  0  0  0  0
 28 34  1  0  0  0  0
 28 33  1  0  0  0  0
 29 28  2  0  0  0  0
 30 29  1  0  0  0  0
 30 31  2  0  0  0  0
 31 32  1  0  0  0  0
 32 33  2  0  0  0  0
 32 27  1  0  0  0  0
 35 30  1  0  0  0  0
 36 29  1  0  0  0  0
 37 36  1  0  0  0  0
 38 37  1  0  0  0  0
 38 43  1  0  0  0  0
 39 38  2  0  0  0  0
 40 41  2  0  0  0  0
 40 39  1  0  0  0  0
 41 42  1  0  0  0  0
 42 37  2  0  0  0  0
 44 39  1  0  0  0  0
 45 40  1  0  0  0  0
 46 49  1  0  0  0  0
 46 41  1  0  0  0  0
 47 46  1  0  0  0  0
 48 46  1  0  0  0  0
M  END
>  <minimizedAffinity>
-6.94442987

>  <minimizedRMSD>
1.93282747

$$$$
