
 OpenBabel03272503573D

 37 41  0  0  0  0  0  0  0  0999 V2000
   36.4080   23.7140   31.9240 C   0  0  0  0  0  0  0  0  0  0  0  0
   36.2470   25.0550   31.5460 C   0  0  0  0  0  0  0  0  0  0  0  0
   37.1080   25.9820   32.1490 C   0  0  0  0  0  0  0  0  0  0  0  0
   37.9860   25.5080   33.0150 N   0  0  0  0  0  0  0  0  0  0  0  0
   38.1660   24.2650   33.3920 C   0  0  0  0  0  0  0  0  0  0  0  0
   37.3380   23.4150   32.8040 N   0  0  0  0  0  0  0  0  0  0  0  0
   35.4970   25.2890   30.8380 H   0  0  0  0  0  0  0  0  0  0  0  0
   39.0970   23.6250   34.3080 C   0  0  0  0  0  0  0  0  0  0  0  0
   40.2370   23.0050   33.8880 N   0  0  0  0  0  0  0  0  0  0  0  0
   41.0970   22.4430   34.7300 C   0  0  0  0  0  0  0  0  0  0  0  0
   40.9390   22.4260   36.0590 N   0  0  0  0  0  0  0  0  0  0  0  0
   39.8290   23.0210   36.5560 C   0  0  0  0  0  0  0  0  0  0  0  0
   39.6520   23.0090   37.9210 C   0  0  0  0  0  0  0  0  0  0  0  0
   38.5400   23.5960   38.4750 C   0  0  0  0  0  0  0  0  0  0  0  0
   37.6450   24.1770   37.6050 C   0  0  0  0  0  0  0  0  0  0  0  0
   37.8670   24.1640   36.2410 C   0  0  0  0  0  0  0  0  0  0  0  0
   38.9590   23.5910   35.6660 C   0  0  0  0  0  0  0  0  0  0  0  0
   42.0170   21.9430   34.3690 H   0  0  0  0  0  0  0  0  0  0  0  0
   40.3670   22.5460   38.5950 H   0  0  0  0  0  0  0  0  0  0  0  0
   38.3830   23.5980   39.5440 H   0  0  0  0  0  0  0  0  0  0  0  0
   36.7760   24.6310   38.0840 H   0  0  0  0  0  0  0  0  0  0  0  0
   37.0690   24.6380   35.7030 H   0  0  0  0  0  0  0  0  0  0  0  0
   36.9050   27.3230   31.6670 C   0  0  0  0  0  0  0  0  0  0  0  0
   37.1750   27.6660   30.3920 N   0  0  0  0  0  0  0  0  0  0  0  0
   37.0240   28.8860   29.8780 C   0  0  0  0  0  3  0  0  0  0  0  0
   36.5770   29.9180   30.5940 N   0  0  0  0  0  0  0  0  0  0  0  0
   36.2740   29.6920   31.8870 C   0  0  0  0  0  0  0  0  0  0  0  0
   35.8220   30.7240   32.6790 C   0  0  0  0  0  3  0  0  0  0  0  0
   35.5240   30.5350   33.9920 C   0  0  0  0  0  0  0  0  0  0  0  0
   35.1700   31.3430   34.6130 H   0  0  0  0  0  0  0  0  0  0  0  0
   35.6900   29.2500   34.5220 C   0  0  0  0  0  0  0  0  0  0  0  0
   35.4510   29.1100   35.5650 H   0  0  0  0  0  0  0  0  0  0  0  0
   36.1430   28.2590   33.6850 C   0  0  0  0  0  3  0  0  0  0  0  0
   36.4520   28.4110   32.3600 C   0  0  0  0  0  0  0  0  0  0  0  0
   35.5840   22.6830   31.3650 N   0  0  0  0  0  0  0  0  0  0  0  0
   34.8110   22.4650   32.0420 H   0  0  0  0  0  0  0  0  0  0  0  0
   35.7590   22.2520   30.4380 H   0  0  0  0  0  0  0  0  0  0  0  0
  1  6  1  0  0  0  0
  2  1  2  0  0  0  0
  2  3  1  0  0  0  0
  3  4  2  0  0  0  0
  4  5  1  0  0  0  0
  5  8  1  0  0  0  0
  6  5  2  0  0  0  0
  7  2  1  0  0  0  0
  8 17  1  0  0  0  0
  9  8  2  0  0  0  0
  9 10  1  0  0  0  0
 10 11  2  0  0  0  0
 11 12  1  0  0  0  0
 12 13  1  0  0  0  0
 13 14  2  0  0  0  0
 13 19  1  0  0  0  0
 14 20  1  0  0  0  0
 15 21  1  0  0  0  0
 15 14  1  0  0  0  0
 16 15  2  0  0  0  0
 17 16  1  0  0  0  0
 17 12  2  0  0  0  0
 18 10  1  0  0  0  0
 22 16  1  0  0  0  0
 23  3  1  0  0  0  0
 23 34  1  0  0  0  0
 24 23  2  0  0  0  0
 25 24  1  0  0  0  0
 25 26  2  0  0  0  0
 26 27  1  0  0  0  0
 27 34  2  0  0  0  0
 27 28  1  0  0  0  0
 28 29  2  0  0  0  0
 29 31  1  0  0  0  0
 29 30  1  0  0  0  0
 31 32  1  0  0  0  0
 33 31  2  0  0  0  0
 34 33  1  0  0  0  0
 35  1  1  0  0  0  0
 35 36  1  0  0  0  0
 37 35  1  0  0  0  0
M  END
>  <minimizedAffinity>
-6.94060755

$$$$

 OpenBabel03272503573D

 37 41  0  0  0  0  0  0  0  0999 V2000
   36.4920   23.6630   31.9110 C   0  0  0  0  0  0  0  0  0  0  0  0
   37.4410   23.1740   32.8200 C   0  0  0  0  0  0  0  0  0  0  0  0
   38.3300   24.1130   33.3620 C   0  0  0  0  0  0  0  0  0  0  0  0
   38.1900   25.3660   32.9670 N   0  0  0  0  0  0  0  0  0  0  0  0
   37.3170   25.8600   32.1220 C   0  0  0  0  0  0  0  0  0  0  0  0
   36.4930   24.9480   31.6290 N   0  0  0  0  0  0  0  0  0  0  0  0
   37.4360   22.1400   33.0430 H   0  0  0  0  0  0  0  0  0  0  0  0
   37.0540   27.2020   31.6280 C   0  0  0  0  0  0  0  0  0  0  0  0
   37.2490   27.5610   30.3270 N   0  0  0  0  0  0  0  0  0  0  0  0
   36.9840   28.7820   29.8740 C   0  0  0  0  0  0  0  0  0  0  0  0
   36.5050   29.7730   30.6350 N   0  0  0  0  0  0  0  0  0  0  0  0
   36.2850   29.4960   31.9420 C   0  0  0  0  0  0  0  0  0  0  0  0
   35.7950   30.5070   32.7380 C   0  0  0  0  0  0  0  0  0  0  0  0
   35.5580   30.2800   34.0720 C   0  0  0  0  0  0  0  0  0  0  0  0
   35.8340   29.0160   34.5450 C   0  0  0  0  0  0  0  0  0  0  0  0
   36.3250   28.0330   33.7070 C   0  0  0  0  0  0  0  0  0  0  0  0
   36.5670   28.2320   32.3820 C   0  0  0  0  0  0  0  0  0  0  0  0
   37.1490   29.0540   28.8140 H   0  0  0  0  0  0  0  0  0  0  0  0
   35.5820   31.5000   32.3500 H   0  0  0  0  0  0  0  0  0  0  0  0
   35.1740   31.0590   34.7130 H   0  0  0  0  0  0  0  0  0  0  0  0
   35.6340   28.8760   35.6090 H   0  0  0  0  0  0  0  0  0  0  0  0
   36.5070   27.1160   34.2310 H   0  0  0  0  0  0  0  0  0  0  0  0
   39.2340   23.5340   34.3200 C   0  0  0  0  0  0  0  0  0  0  0  0
   40.3640   22.9060   33.9380 N   0  0  0  0  0  0  0  0  0  0  0  0
   41.2420   22.3370   34.7640 C   0  0  0  0  0  3  0  0  0  0  0  0
   41.0850   22.3330   36.0870 N   0  0  0  0  0  0  0  0  0  0  0  0
   39.9870   22.9340   36.5850 C   0  0  0  0  0  0  0  0  0  0  0  0
   39.7650   22.9470   37.9440 C   0  0  0  0  0  3  0  0  0  0  0  0
   38.6590   23.5290   38.4790 C   0  0  0  0  0  0  0  0  0  0  0  0
   38.4850   23.5400   39.5440 H   0  0  0  0  0  0  0  0  0  0  0  0
   37.7420   24.1200   37.6020 C   0  0  0  0  0  0  0  0  0  0  0  0
   36.8670   24.5790   38.0350 H   0  0  0  0  0  0  0  0  0  0  0  0
   38.0150   24.0770   36.2560 C   0  0  0  0  0  3  0  0  0  0  0  0
   39.1170   23.5020   35.6820 C   0  0  0  0  0  0  0  0  0  0  0  0
   35.5340   22.7900   31.3000 N   0  0  0  0  0  0  0  0  0  0  0  0
   35.8740   22.5330   30.3400 H   0  0  0  0  0  0  0  0  0  0  0  0
   34.6600   22.4850   31.7680 H   0  0  0  0  0  0  0  0  0  0  0  0
  1  2  1  0  0  0  0
  2  7  1  0  0  0  0
  2  3  2  0  0  0  0
  3 23  1  0  0  0  0
  4  3  1  0  0  0  0
  5  4  2  0  0  0  0
  6  1  2  0  0  0  0
  6  5  1  0  0  0  0
  8  5  1  0  0  0  0
  8 17  1  0  0  0  0
  9  8  2  0  0  0  0
 10  9  1  0  0  0  0
 10 11  2  0  0  0  0
 11 12  1  0  0  0  0
 12 17  2  0  0  0  0
 12 13  1  0  0  0  0
 13 14  2  0  0  0  0
 14 15  1  0  0  0  0
 14 20  1  0  0  0  0
 15 21  1  0  0  0  0
 16 22  1  0  0  0  0
 16 15  2  0  0  0  0
 17 16  1  0  0  0  0
 18 10  1  0  0  0  0
 19 13  1  0  0  0  0
 23 34  1  0  0  0  0
 24 23  2  0  0  0  0
 24 25  1  0  0  0  0
 25 26  2  0  0  0  0
 26 27  1  0  0  0  0
 27 28  1  0  0  0  0
 28 29  2  0  0  0  0
 29 30  1  0  0  0  0
 31 32  1  0  0  0  0
 31 29  1  0  0  0  0
 33 31  2  0  0  0  0
 34 33  1  0  0  0  0
 34 27  2  0  0  0  0
 35 37  1  0  0  0  0
 35  1  1  0  0  0  0
 36 35  1  0  0  0  0
M  END
>  <minimizedAffinity>
-6.89899635

$$$$

 OpenBabel03272503573D

 37 41  0  0  0  0  0  0  0  0999 V2000
   36.4220   24.4170   31.9960 C   0  0  0  0  0  0  0  0  0  0  0  0
   37.4040   23.8230   32.8020 C   0  0  0  0  0  0  0  0  0  0  0  0
   38.1590   24.6880   33.6070 C   0  0  0  0  0  0  0  0  0  0  0  0
   37.8750   25.9760   33.5300 N   0  0  0  0  0  0  0  0  0  0  0  0
   36.9660   26.5670   32.7910 C   0  0  0  0  0  0  0  0  0  0  0  0
   36.2720   25.7230   32.0430 N   0  0  0  0  0  0  0  0  0  0  0  0
   37.5200   22.7730   32.7590 H   0  0  0  0  0  0  0  0  0  0  0  0
   36.5520   27.9520   32.6350 C   0  0  0  0  0  0  0  0  0  0  0  0
   35.8780   28.6340   33.6050 N   0  0  0  0  0  0  0  0  0  0  0  0
   35.5240   29.9070   33.4680 C   0  0  0  0  0  0  0  0  0  0  0  0
   35.7860   30.6440   32.3820 N   0  0  0  0  0  0  0  0  0  0  0  0
   36.4530   30.0370   31.3720 C   0  0  0  0  0  0  0  0  0  0  0  0
   36.7280   30.7810   30.2470 C   0  0  0  0  0  0  0  0  0  0  0  0
   37.3990   30.2120   29.1920 C   0  0  0  0  0  0  0  0  0  0  0  0
   37.7660   28.8920   29.3290 C   0  0  0  0  0  0  0  0  0  0  0  0
   37.4670   28.1850   30.4790 C   0  0  0  0  0  0  0  0  0  0  0  0
   36.8050   28.7250   31.5390 C   0  0  0  0  0  0  0  0  0  0  0  0
   34.9750   30.4440   34.2670 H   0  0  0  0  0  0  0  0  0  0  0  0
   36.4320   31.8230   30.1530 H   0  0  0  0  0  0  0  0  0  0  0  0
   37.6250   30.7790   28.3010 H   0  0  0  0  0  0  0  0  0  0  0  0
   38.2950   28.4760   28.4700 H   0  0  0  0  0  0  0  0  0  0  0  0
   37.8020   27.1680   30.4200 H   0  0  0  0  0  0  0  0  0  0  0  0
   39.1060   23.9900   34.4350 C   0  0  0  0  0  0  0  0  0  0  0  0
   40.2140   23.4220   33.9200 N   0  0  0  0  0  0  0  0  0  0  0  0
   41.1290   22.7530   34.6200 C   0  0  0  0  0  3  0  0  0  0  0  0
   41.0360   22.5730   35.9380 N   0  0  0  0  0  0  0  0  0  0  0  0
   39.9650   23.0990   36.5630 C   0  0  0  0  0  0  0  0  0  0  0  0
   39.8080   22.9320   37.9200 C   0  0  0  0  0  3  0  0  0  0  0  0
   38.7310   23.4340   38.5800 C   0  0  0  0  0  0  0  0  0  0  0  0
   38.6080   23.3040   39.6440 H   0  0  0  0  0  0  0  0  0  0  0  0
   37.7740   24.1330   37.8330 C   0  0  0  0  0  0  0  0  0  0  0  0
   36.9230   24.5280   38.3640 H   0  0  0  0  0  0  0  0  0  0  0  0
   37.9830   24.2690   36.4820 C   0  0  0  0  0  3  0  0  0  0  0  0
   39.0540   23.7790   35.7850 C   0  0  0  0  0  0  0  0  0  0  0  0
   35.5910   23.6250   31.1370 N   0  0  0  0  0  0  0  0  0  0  0  0
   35.9820   23.6610   30.1620 H   0  0  0  0  0  0  0  0  0  0  0  0
   34.7510   23.1150   31.4670 H   0  0  0  0  0  0  0  0  0  0  0  0
  1  6  2  0  0  0  0
  1  2  1  0  0  0  0
  2  3  2  0  0  0  0
  3 23  1  0  0  0  0
  4  3  1  0  0  0  0
  5  4  2  0  0  0  0
  6  5  1  0  0  0  0
  7  2  1  0  0  0  0
  8  5  1  0  0  0  0
  8  9  1  0  0  0  0
 10  9  2  0  0  0  0
 10 18  1  0  0  0  0
 11 10  1  0  0  0  0
 12 17  1  0  0  0  0
 12 11  2  0  0  0  0
 13 12  1  0  0  0  0
 14 15  1  0  0  0  0
 14 13  2  0  0  0  0
 15 16  2  0  0  0  0
 16 17  1  0  0  0  0
 17  8  2  0  0  0  0
 19 13  1  0  0  0  0
 20 14  1  0  0  0  0
 21 15  1  0  0  0  0
 22 16  1  0  0  0  0
 23 34  1  0  0  0  0
 24 23  2  0  0  0  0
 24 25  1  0  0  0  0
 25 26  2  0  0  0  0
 26 27  1  0  0  0  0
 27 28  1  0  0  0  0
 28 29  2  0  0  0  0
 29 30  1  0  0  0  0
 31 32  1  0  0  0  0
 31 29  1  0  0  0  0
 33 31  2  0  0  0  0
 34 33  1  0  0  0  0
 34 27  2  0  0  0  0
 35 37  1  0  0  0  0
 35  1  1  0  0  0  0
 36 35  1  0  0  0  0
M  END
>  <minimizedAffinity>
-6.84756851

$$$$

 OpenBabel03272503573D

 37 41  0  0  0  0  0  0  0  0999 V2000
   36.0450   29.4060   31.5220 C   0  0  0  0  0  0  0  0  0  0  0  0
   35.5620   30.2010   32.5710 C   0  0  0  0  0  0  0  0  0  0  0  0
   35.6370   29.6500   33.8590 C   0  0  0  0  0  0  0  0  0  0  0  0
   36.1530   28.4380   33.9610 N   0  0  0  0  0  0  0  0  0  0  0  0
   36.6150   27.6670   33.0060 C   0  0  0  0  0  0  0  0  0  0  0  0
   36.5290   28.2160   31.8040 N   0  0  0  0  0  0  0  0  0  0  0  0
   35.1730   31.1570   32.3390 H   0  0  0  0  0  0  0  0  0  0  0  0
   37.2150   26.3430   32.9940 C   0  0  0  0  0  0  0  0  0  0  0  0
   36.6260   25.2700   32.3910 N   0  0  0  0  0  0  0  0  0  0  0  0
   37.1910   24.0680   32.3610 C   0  0  0  0  0  0  0  0  0  0  0  0
   38.3780   23.7850   32.9110 N   0  0  0  0  0  0  0  0  0  0  0  0
   39.0270   24.7990   33.5300 C   0  0  0  0  0  0  0  0  0  0  0  0
   40.2480   24.5230   34.1030 C   0  0  0  0  0  0  0  0  0  0  0  0
   40.9460   25.5150   34.7480 C   0  0  0  0  0  0  0  0  0  0  0  0
   40.3630   26.7630   34.7830 C   0  0  0  0  0  0  0  0  0  0  0  0
   39.1340   26.9910   34.1940 C   0  0  0  0  0  0  0  0  0  0  0  0
   38.4230   26.0270   33.5480 C   0  0  0  0  0  0  0  0  0  0  0  0
   36.6960   23.2090   31.8670 H   0  0  0  0  0  0  0  0  0  0  0  0
   40.6960   23.5340   34.0670 H   0  0  0  0  0  0  0  0  0  0  0  0
   41.9050   25.3190   35.2030 H   0  0  0  0  0  0  0  0  0  0  0  0
   40.9470   27.5220   35.3050 H   0  0  0  0  0  0  0  0  0  0  0  0
   38.8110   28.0050   34.3260 H   0  0  0  0  0  0  0  0  0  0  0  0
   35.1660   30.5520   34.8770 C   0  0  0  0  0  0  0  0  0  0  0  0
   35.9430   31.5400   35.3620 N   0  0  0  0  0  0  0  0  0  0  0  0
   35.5820   32.4040   36.3100 C   0  0  0  0  0  3  0  0  0  0  0  0
   34.3810   32.3760   36.8880 N   0  0  0  0  0  0  0  0  0  0  0  0
   33.5170   31.4260   36.4810 C   0  0  0  0  0  0  0  0  0  0  0  0
   32.2680   31.3400   37.0530 C   0  0  0  0  0  3  0  0  0  0  0  0
   31.3780   30.3830   36.6780 C   0  0  0  0  0  0  0  0  0  0  0  0
   30.3990   30.3150   37.1270 H   0  0  0  0  0  0  0  0  0  0  0  0
   31.7700   29.4780   35.6850 C   0  0  0  0  0  0  0  0  0  0  0  0
   31.0580   28.7220   35.3940 H   0  0  0  0  0  0  0  0  0  0  0  0
   33.0280   29.6120   35.1480 C   0  0  0  0  0  3  0  0  0  0  0  0
   33.9490   30.5620   35.4990 C   0  0  0  0  0  0  0  0  0  0  0  0
   36.0190   29.8740   30.1670 N   0  0  0  0  0  0  0  0  0  0  0  0
   35.1790   29.4660   29.6850 H   0  0  0  0  0  0  0  0  0  0  0  0
   36.7340   30.5110   29.7700 H   0  0  0  0  0  0  0  0  0  0  0  0
  1  6  2  0  0  0  0
  1  2  1  0  0  0  0
  2  3  2  0  0  0  0
  3  4  1  0  0  0  0
  3 23  1  0  0  0  0
  5  4  2  0  0  0  0
  6  5  1  0  0  0  0
  7  2  1  0  0  0  0
  8  5  1  0  0  0  0
  8 17  1  0  0  0  0
  9  8  2  0  0  0  0
 10  9  1  0  0  0  0
 10 11  2  0  0  0  0
 11 12  1  0  0  0  0
 12 17  2  0  0  0  0
 12 13  1  0  0  0  0
 13 14  2  0  0  0  0
 14 15  1  0  0  0  0
 14 20  1  0  0  0  0
 15 21  1  0  0  0  0
 16 22  1  0  0  0  0
 16 15  2  0  0  0  0
 17 16  1  0  0  0  0
 18 10  1  0  0  0  0
 19 13  1  0  0  0  0
 23 24  2  0  0  0  0
 23 34  1  0  0  0  0
 24 25  1  0  0  0  0
 25 26  2  0  0  0  0
 27 26  1  0  0  0  0
 27 28  1  0  0  0  0
 29 28  2  0  0  0  0
 29 30  1  0  0  0  0
 31 29  1  0  0  0  0
 32 31  1  0  0  0  0
 33 34  1  0  0  0  0
 33 31  2  0  0  0  0
 34 27  2  0  0  0  0
 35  1  1  0  0  0  0
 36 35  1  0  0  0  0
 37 35  1  0  0  0  0
M  END
>  <minimizedAffinity>
-6.81617832

$$$$

 OpenBabel03272503573D

 37 41  0  0  0  0  0  0  0  0999 V2000
   36.2660   29.8770   30.6190 C   0  0  0  0  0  0  0  0  0  0  0  0
   37.0750   28.7320   30.6350 C   0  0  0  0  0  0  0  0  0  0  0  0
   36.8790   27.8420   31.7000 C   0  0  0  0  0  0  0  0  0  0  0  0
   35.9540   28.1650   32.5860 N   0  0  0  0  0  0  0  0  0  0  0  0
   35.1790   29.2230   32.6050 C   0  0  0  0  0  0  0  0  0  0  0  0
   35.3890   30.0430   31.5860 N   0  0  0  0  0  0  0  0  0  0  0  0
   37.7780   28.6050   29.8550 H   0  0  0  0  0  0  0  0  0  0  0  0
   34.1260   29.6740   33.5010 C   0  0  0  0  0  0  0  0  0  0  0  0
   32.8150   29.3410   33.3260 N   0  0  0  0  0  0  0  0  0  0  0  0
   31.8610   29.7340   34.1620 C   0  0  0  0  0  0  0  0  0  0  0  0
   32.0800   30.4870   35.2470 N   0  0  0  0  0  0  0  0  0  0  0  0
   33.3580   30.8610   35.4890 C   0  0  0  0  0  0  0  0  0  0  0  0
   33.5990   31.6390   36.5990 C   0  0  0  0  0  0  0  0  0  0  0  0
   34.8770   32.0490   36.8880 C   0  0  0  0  0  0  0  0  0  0  0  0
   35.8700   31.6450   36.0230 C   0  0  0  0  0  0  0  0  0  0  0  0
   35.5790   30.8650   34.9210 C   0  0  0  0  0  0  0  0  0  0  0  0
   34.3220   30.4440   34.6120 C   0  0  0  0  0  0  0  0  0  0  0  0
   30.8010   29.4540   34.0030 H   0  0  0  0  0  0  0  0  0  0  0  0
   32.8050   31.9500   37.2730 H   0  0  0  0  0  0  0  0  0  0  0  0
   35.0870   32.6590   37.7540 H   0  0  0  0  0  0  0  0  0  0  0  0
   36.8700   31.9920   36.2860 H   0  0  0  0  0  0  0  0  0  0  0  0
   36.4550   30.6540   34.3390 H   0  0  0  0  0  0  0  0  0  0  0  0
   37.7150   26.6740   31.6090 C   0  0  0  0  0  0  0  0  0  0  0  0
   39.0590   26.7620   31.6380 N   0  0  0  0  0  0  0  0  0  0  0  0
   39.8970   25.7290   31.5480 C   0  0  0  0  0  3  0  0  0  0  0  0
   39.4750   24.4710   31.4170 N   0  0  0  0  0  0  0  0  0  0  0  0
   38.1450   24.2620   31.3760 C   0  0  0  0  0  0  0  0  0  0  0  0
   37.6530   22.9850   31.2260 C   0  0  0  0  0  3  0  0  0  0  0  0
   36.3170   22.7400   31.1640 C   0  0  0  0  0  0  0  0  0  0  0  0
   35.9300   21.7400   31.0460 H   0  0  0  0  0  0  0  0  0  0  0  0
   35.4470   23.8340   31.2550 C   0  0  0  0  0  0  0  0  0  0  0  0
   34.3890   23.6300   31.2040 H   0  0  0  0  0  0  0  0  0  0  0  0
   35.9940   25.0850   31.4040 C   0  0  0  0  0  3  0  0  0  0  0  0
   37.3320   25.3690   31.4730 C   0  0  0  0  0  0  0  0  0  0  0  0
   36.3810   30.8510   29.5740 N   0  0  0  0  0  0  0  0  0  0  0  0
   36.9760   31.6460   29.9170 H   0  0  0  0  0  0  0  0  0  0  0  0
   35.9340   30.7460   28.6440 H   0  0  0  0  0  0  0  0  0  0  0  0
  1  2  2  0  0  0  0
  1  6  1  0  0  0  0
  2  3  1  0  0  0  0
  3  4  2  0  0  0  0
  4  5  1  0  0  0  0
  5  8  1  0  0  0  0
  6  5  2  0  0  0  0
  7  2  1  0  0  0  0
  8 17  1  0  0  0  0
  9  8  2  0  0  0  0
  9 10  1  0  0  0  0
 10 11  2  0  0  0  0
 11 12  1  0  0  0  0
 12 13  1  0  0  0  0
 13 14  2  0  0  0  0
 13 19  1  0  0  0  0
 14 20  1  0  0  0  0
 15 21  1  0  0  0  0
 15 14  1  0  0  0  0
 16 15  2  0  0  0  0
 17 16  1  0  0  0  0
 17 12  2  0  0  0  0
 18 10  1  0  0  0  0
 22 16  1  0  0  0  0
 23 24  1  0  0  0  0
 23  3  1  0  0  0  0
 25 24  2  0  0  0  0
 26 25  1  0  0  0  0
 27 26  2  0  0  0  0
 27 34  1  0  0  0  0
 28 27  1  0  0  0  0
 29 28  2  0  0  0  0
 29 31  1  0  0  0  0
 30 29  1  0  0  0  0
 31 33  2  0  0  0  0
 32 31  1  0  0  0  0
 33 34  1  0  0  0  0
 34 23  2  0  0  0  0
 35 36  1  0  0  0  0
 35  1  1  0  0  0  0
 37 35  1  0  0  0  0
M  END
>  <minimizedAffinity>
-6.79028797

$$$$

 OpenBabel03272503573D

 37 41  0  0  0  0  0  0  0  0999 V2000
   35.9470   29.6970   31.7010 C   0  0  0  0  0  0  0  0  0  0  0  0
   36.5370   28.4270   31.7590 C   0  0  0  0  0  0  0  0  0  0  0  0
   36.6490   27.8460   33.0300 C   0  0  0  0  0  0  0  0  0  0  0  0
   36.1900   28.5480   34.0510 N   0  0  0  0  0  0  0  0  0  0  0  0
   35.6330   29.7360   34.0360 C   0  0  0  0  0  0  0  0  0  0  0  0
   35.5420   30.2560   32.8210 N   0  0  0  0  0  0  0  0  0  0  0  0
   36.8600   27.9830   30.8550 H   0  0  0  0  0  0  0  0  0  0  0  0
   35.0790   30.5910   35.0730 C   0  0  0  0  0  0  0  0  0  0  0  0
   35.7910   31.5960   35.6590 N   0  0  0  0  0  0  0  0  0  0  0  0
   35.2730   32.3920   36.5880 C   0  0  0  0  0  0  0  0  0  0  0  0
   34.0170   32.2930   37.0420 N   0  0  0  0  0  0  0  0  0  0  0  0
   33.2450   31.3170   36.5090 C   0  0  0  0  0  0  0  0  0  0  0  0
   31.9520   31.2010   36.9670 C   0  0  0  0  0  0  0  0  0  0  0  0
   31.1270   30.2250   36.4630 C   0  0  0  0  0  0  0  0  0  0  0  0
   31.6620   29.3970   35.5010 C   0  0  0  0  0  0  0  0  0  0  0  0
   32.9660   29.5520   35.0730 C   0  0  0  0  0  0  0  0  0  0  0  0
   33.8040   30.5110   35.5550 C   0  0  0  0  0  0  0  0  0  0  0  0
   35.8680   33.2020   37.0530 H   0  0  0  0  0  0  0  0  0  0  0  0
   31.5440   31.8620   37.7270 H   0  0  0  0  0  0  0  0  0  0  0  0
   30.1100   30.1180   36.8080 H   0  0  0  0  0  0  0  0  0  0  0  0
   30.9770   28.6340   35.1270 H   0  0  0  0  0  0  0  0  0  0  0  0
   33.2350   28.8180   34.3380 H   0  0  0  0  0  0  0  0  0  0  0  0
   37.2190   26.5250   32.9890 C   0  0  0  0  0  0  0  0  0  0  0  0
   36.5930   25.5020   32.3760 N   0  0  0  0  0  0  0  0  0  0  0  0
   37.0520   24.2530   32.3060 C   0  0  0  0  0  3  0  0  0  0  0  0
   38.2110   23.8820   32.8510 N   0  0  0  0  0  0  0  0  0  0  0  0
   38.9260   24.8250   33.4930 C   0  0  0  0  0  0  0  0  0  0  0  0
   40.1230   24.4960   34.0890 C   0  0  0  0  0  3  0  0  0  0  0  0
   40.8620   25.4190   34.7600 C   0  0  0  0  0  0  0  0  0  0  0  0
   41.8000   25.1620   35.2270 H   0  0  0  0  0  0  0  0  0  0  0  0
   40.3670   26.7270   34.8300 C   0  0  0  0  0  0  0  0  0  0  0  0
   40.9590   27.4530   35.3640 H   0  0  0  0  0  0  0  0  0  0  0  0
   39.1680   26.9980   34.2160 C   0  0  0  0  0  3  0  0  0  0  0  0
   38.3980   26.0960   33.5320 C   0  0  0  0  0  0  0  0  0  0  0  0
   35.7800   30.3800   30.4520 N   0  0  0  0  0  0  0  0  0  0  0  0
   36.5620   31.0720   30.3380 H   0  0  0  0  0  0  0  0  0  0  0  0
   34.9990   30.1890   29.7970 H   0  0  0  0  0  0  0  0  0  0  0  0
  1  2  2  0  0  0  0
  1  6  1  0  0  0  0
  2  3  1  0  0  0  0
  3  4  2  0  0  0  0
  5  4  1  0  0  0  0
  5  8  1  0  0  0  0
  6  5  2  0  0  0  0
  7  2  1  0  0  0  0
  8 17  2  0  0  0  0
  8  9  1  0  0  0  0
  9 10  2  0  0  0  0
 10 11  1  0  0  0  0
 10 18  1  0  0  0  0
 12 13  1  0  0  0  0
 12 11  2  0  0  0  0
 13 19  1  0  0  0  0
 14 20  1  0  0  0  0
 14 13  2  0  0  0  0
 15 14  1  0  0  0  0
 16 15  2  0  0  0  0
 16 17  1  0  0  0  0
 17 12  1  0  0  0  0
 21 15  1  0  0  0  0
 22 16  1  0  0  0  0
 23  3  1  0  0  0  0
 23 34  1  0  0  0  0
 24 23  2  0  0  0  0
 25 24  1  0  0  0  0
 25 26  2  0  0  0  0
 26 27  1  0  0  0  0
 27 34  2  0  0  0  0
 27 28  1  0  0  0  0
 28 29  2  0  0  0  0
 29 31  1  0  0  0  0
 29 30  1  0  0  0  0
 31 32  1  0  0  0  0
 33 31  2  0  0  0  0
 34 33  1  0  0  0  0
 35  1  1  0  0  0  0
 36 35  1  0  0  0  0
 37 35  1  0  0  0  0
M  END
>  <minimizedAffinity>
-6.76594305

$$$$

 OpenBabel03272503573D

 37 41  0  0  0  0  0  0  0  0999 V2000
   36.1230   29.3470   31.5010 C   0  0  0  0  0  0  0  0  0  0  0  0
   35.5980   30.1270   32.5410 C   0  0  0  0  0  0  0  0  0  0  0  0
   35.7050   29.5970   33.8350 C   0  0  0  0  0  0  0  0  0  0  0  0
   36.2890   28.4170   33.9520 N   0  0  0  0  0  0  0  0  0  0  0  0
   36.7910   27.6610   33.0050 C   0  0  0  0  0  0  0  0  0  0  0  0
   36.6740   28.1900   31.7960 N   0  0  0  0  0  0  0  0  0  0  0  0
   35.1560   31.0560   32.2970 H   0  0  0  0  0  0  0  0  0  0  0  0
   37.4650   26.3730   33.0080 C   0  0  0  0  0  0  0  0  0  0  0  0
   38.6620   26.1680   33.6290 N   0  0  0  0  0  0  0  0  0  0  0  0
   39.2620   24.9830   33.6520 C   0  0  0  0  0  0  0  0  0  0  0  0
   38.7640   23.8810   33.0770 N   0  0  0  0  0  0  0  0  0  0  0  0
   37.5760   24.0030   32.4390 C   0  0  0  0  0  0  0  0  0  0  0  0
   37.0530   22.8800   31.8400 C   0  0  0  0  0  0  0  0  0  0  0  0
   35.8520   22.9500   31.1750 C   0  0  0  0  0  0  0  0  0  0  0  0
   35.2290   24.1770   31.1480 C   0  0  0  0  0  0  0  0  0  0  0  0
   35.7940   25.2770   31.7630 C   0  0  0  0  0  0  0  0  0  0  0  0
   36.9810   25.2350   32.4290 C   0  0  0  0  0  0  0  0  0  0  0  0
   40.2350   24.8370   34.1610 H   0  0  0  0  0  0  0  0  0  0  0  0
   37.5570   21.9170   31.8690 H   0  0  0  0  0  0  0  0  0  0  0  0
   35.4240   22.0800   30.7000 H   0  0  0  0  0  0  0  0  0  0  0  0
   34.2790   24.1920   30.6100 H   0  0  0  0  0  0  0  0  0  0  0  0
   35.1960   26.1580   31.6340 H   0  0  0  0  0  0  0  0  0  0  0  0
   35.1860   30.4840   34.8430 C   0  0  0  0  0  0  0  0  0  0  0  0
   35.9180   31.5020   35.3350 N   0  0  0  0  0  0  0  0  0  0  0  0
   35.5100   32.3560   36.2740 C   0  0  0  0  0  3  0  0  0  0  0  0
   34.3030   32.2840   36.8350 N   0  0  0  0  0  0  0  0  0  0  0  0
   33.4820   31.3000   36.4200 C   0  0  0  0  0  0  0  0  0  0  0  0
   32.2290   31.1680   36.9750 C   0  0  0  0  0  3  0  0  0  0  0  0
   31.3810   30.1770   36.5920 C   0  0  0  0  0  0  0  0  0  0  0  0
   30.4000   30.0730   37.0260 H   0  0  0  0  0  0  0  0  0  0  0  0
   31.8220   29.2840   35.6070 C   0  0  0  0  0  0  0  0  0  0  0  0
   31.1440   28.5000   35.3090 H   0  0  0  0  0  0  0  0  0  0  0  0
   33.0810   29.4640   35.0880 C   0  0  0  0  0  3  0  0  0  0  0  0
   33.9610   30.4500   35.4480 C   0  0  0  0  0  0  0  0  0  0  0  0
   36.0690   29.7960   30.1400 N   0  0  0  0  0  0  0  0  0  0  0  0
   35.2530   29.3360   29.6650 H   0  0  0  0  0  0  0  0  0  0  0  0
   36.7470   30.4670   29.7330 H   0  0  0  0  0  0  0  0  0  0  0  0
  1  6  2  0  0  0  0
  1  2  1  0  0  0  0
  2  3  2  0  0  0  0
  3  4  1  0  0  0  0
  3 23  1  0  0  0  0
  5  8  1  0  0  0  0
  5  4  2  0  0  0  0
  6  5  1  0  0  0  0
  7  2  1  0  0  0  0
  8  9  1  0  0  0  0
  9 10  2  0  0  0  0
 10 18  1  0  0  0  0
 11 10  1  0  0  0  0
 12 11  2  0  0  0  0
 13 19  1  0  0  0  0
 13 12  1  0  0  0  0
 14 13  2  0  0  0  0
 15 14  1  0  0  0  0
 15 16  2  0  0  0  0
 16 17  1  0  0  0  0
 17 12  1  0  0  0  0
 17  8  2  0  0  0  0
 20 14  1  0  0  0  0
 21 15  1  0  0  0  0
 22 16  1  0  0  0  0
 23 24  2  0  0  0  0
 23 34  1  0  0  0  0
 24 25  1  0  0  0  0
 25 26  2  0  0  0  0
 27 26  1  0  0  0  0
 27 28  1  0  0  0  0
 29 28  2  0  0  0  0
 29 30  1  0  0  0  0
 31 29  1  0  0  0  0
 32 31  1  0  0  0  0
 33 34  1  0  0  0  0
 33 31  2  0  0  0  0
 34 27  2  0  0  0  0
 35  1  1  0  0  0  0
 36 35  1  0  0  0  0
 37 35  1  0  0  0  0
M  END
>  <minimizedAffinity>
-6.72303867

$$$$

 OpenBabel03272503573D

 37 41  0  0  0  0  0  0  0  0999 V2000
   36.3820   29.6780   30.6180 C   0  0  0  0  0  0  0  0  0  0  0  0
   35.3740   30.0090   31.5340 C   0  0  0  0  0  0  0  0  0  0  0  0
   35.1900   29.1260   32.6080 C   0  0  0  0  0  0  0  0  0  0  0  0
   35.9820   28.0700   32.6550 N   0  0  0  0  0  0  0  0  0  0  0  0
   36.9350   27.7290   31.8200 C   0  0  0  0  0  0  0  0  0  0  0  0
   37.0820   28.5830   30.8180 N   0  0  0  0  0  0  0  0  0  0  0  0
   34.8150   30.8910   31.3670 H   0  0  0  0  0  0  0  0  0  0  0  0
   37.8730   26.6190   31.7750 C   0  0  0  0  0  0  0  0  0  0  0  0
   37.9180   25.7320   30.7400 N   0  0  0  0  0  0  0  0  0  0  0  0
   38.7930   24.7340   30.6910 C   0  0  0  0  0  0  0  0  0  0  0  0
   39.7100   24.4970   31.6370 N   0  0  0  0  0  0  0  0  0  0  0  0
   39.7300   25.3340   32.7000 C   0  0  0  0  0  0  0  0  0  0  0  0
   40.6650   25.1010   33.6830 C   0  0  0  0  0  0  0  0  0  0  0  0
   40.7250   25.9190   34.7850 C   0  0  0  0  0  0  0  0  0  0  0  0
   39.8170   26.9540   34.8400 C   0  0  0  0  0  0  0  0  0  0  0  0
   38.8960   27.1470   33.8290 C   0  0  0  0  0  0  0  0  0  0  0  0
   38.8160   26.3530   32.7260 C   0  0  0  0  0  0  0  0  0  0  0  0
   38.8130   24.0230   29.8420 H   0  0  0  0  0  0  0  0  0  0  0  0
   41.3750   24.2810   33.6250 H   0  0  0  0  0  0  0  0  0  0  0  0
   41.4510   25.7540   35.5660 H   0  0  0  0  0  0  0  0  0  0  0  0
   39.8960   27.5790   35.7310 H   0  0  0  0  0  0  0  0  0  0  0  0
   38.2500   27.9790   34.0310 H   0  0  0  0  0  0  0  0  0  0  0  0
   34.1700   29.5680   33.5220 C   0  0  0  0  0  0  0  0  0  0  0  0
   32.8750   29.2390   33.3510 N   0  0  0  0  0  0  0  0  0  0  0  0
   31.8760   29.6180   34.1470 C   0  0  0  0  0  3  0  0  0  0  0  0
   32.0650   30.3830   35.2230 N   0  0  0  0  0  0  0  0  0  0  0  0
   33.3250   30.7750   35.4930 C   0  0  0  0  0  0  0  0  0  0  0  0
   33.5770   31.5790   36.5820 C   0  0  0  0  0  3  0  0  0  0  0  0
   34.8340   32.0070   36.8750 C   0  0  0  0  0  0  0  0  0  0  0  0
   35.0330   32.6370   37.7280 H   0  0  0  0  0  0  0  0  0  0  0  0
   35.8750   31.6050   36.0290 C   0  0  0  0  0  0  0  0  0  0  0  0
   36.8690   31.9490   36.2680 H   0  0  0  0  0  0  0  0  0  0  0  0
   35.5650   30.8020   34.9580 C   0  0  0  0  0  3  0  0  0  0  0  0
   34.3130   30.3520   34.6330 C   0  0  0  0  0  0  0  0  0  0  0  0
   36.6570   30.5140   29.4860 N   0  0  0  0  0  0  0  0  0  0  0  0
   36.1790   30.1070   28.6430 H   0  0  0  0  0  0  0  0  0  0  0  0
   37.2380   31.3720   29.5370 H   0  0  0  0  0  0  0  0  0  0  0  0
  1  6  2  0  0  0  0
  1  2  1  0  0  0  0
  2  3  2  0  0  0  0
  3  4  1  0  0  0  0
  3 23  1  0  0  0  0
  5  4  2  0  0  0  0
  6  5  1  0  0  0  0
  7  2  1  0  0  0  0
  8  5  1  0  0  0  0
  8 17  1  0  0  0  0
  9  8  2  0  0  0  0
 10  9  1  0  0  0  0
 10 11  2  0  0  0  0
 11 12  1  0  0  0  0
 12 17  2  0  0  0  0
 12 13  1  0  0  0  0
 13 14  2  0  0  0  0
 14 15  1  0  0  0  0
 14 20  1  0  0  0  0
 15 21  1  0  0  0  0
 16 22  1  0  0  0  0
 16 15  2  0  0  0  0
 17 16  1  0  0  0  0
 18 10  1  0  0  0  0
 19 13  1  0  0  0  0
 23 34  1  0  0  0  0
 24 23  2  0  0  0  0
 24 25  1  0  0  0  0
 25 26  2  0  0  0  0
 26 27  1  0  0  0  0
 27 28  1  0  0  0  0
 28 29  2  0  0  0  0
 29 30  1  0  0  0  0
 31 32  1  0  0  0  0
 31 29  1  0  0  0  0
 33 31  2  0  0  0  0
 34 33  1  0  0  0  0
 34 27  2  0  0  0  0
 35 37  1  0  0  0  0
 35  1  1  0  0  0  0
 36 35  1  0  0  0  0
M  END
>  <minimizedAffinity>
-6.71320677

$$$$

 OpenBabel03272503573D

 37 41  0  0  0  0  0  0  0  0999 V2000
   36.3340   29.5270   30.6720 C   0  0  0  0  0  0  0  0  0  0  0  0
   35.3380   29.9270   31.5740 C   0  0  0  0  0  0  0  0  0  0  0  0
   35.1320   29.0970   32.6850 C   0  0  0  0  0  0  0  0  0  0  0  0
   35.8930   28.0210   32.7770 N   0  0  0  0  0  0  0  0  0  0  0  0
   36.8320   27.6150   31.9560 C   0  0  0  0  0  0  0  0  0  0  0  0
   37.0010   28.4200   30.9180 N   0  0  0  0  0  0  0  0  0  0  0  0
   34.8060   30.8170   31.3700 H   0  0  0  0  0  0  0  0  0  0  0  0
   37.7370   26.4770   31.9580 C   0  0  0  0  0  0  0  0  0  0  0  0
   39.0700   26.5950   32.2190 N   0  0  0  0  0  0  0  0  0  0  0  0
   39.8880   25.5480   32.2450 C   0  0  0  0  0  0  0  0  0  0  0  0
   39.4980   24.2880   32.0200 N   0  0  0  0  0  0  0  0  0  0  0  0
   38.1860   24.0880   31.7520 C   0  0  0  0  0  0  0  0  0  0  0  0
   37.7700   22.7970   31.5150 C   0  0  0  0  0  0  0  0  0  0  0  0
   36.4500   22.5400   31.2340 C   0  0  0  0  0  0  0  0  0  0  0  0
   35.5990   23.6230   31.2050 C   0  0  0  0  0  0  0  0  0  0  0  0
   36.0640   24.9010   31.4480 C   0  0  0  0  0  0  0  0  0  0  0  0
   37.3660   25.1830   31.7300 C   0  0  0  0  0  0  0  0  0  0  0  0
   40.9690   25.6640   32.4580 H   0  0  0  0  0  0  0  0  0  0  0  0
   38.4530   21.9530   31.5420 H   0  0  0  0  0  0  0  0  0  0  0  0
   36.1030   21.5350   31.0470 H   0  0  0  0  0  0  0  0  0  0  0  0
   34.5600   23.3770   30.9770 H   0  0  0  0  0  0  0  0  0  0  0  0
   35.2830   25.6310   31.3680 H   0  0  0  0  0  0  0  0  0  0  0  0
   34.1290   29.6080   33.5820 C   0  0  0  0  0  0  0  0  0  0  0  0
   32.8200   29.3370   33.4090 N   0  0  0  0  0  0  0  0  0  0  0  0
   31.8350   29.7820   34.1890 C   0  0  0  0  0  3  0  0  0  0  0  0
   32.0540   30.5630   35.2470 N   0  0  0  0  0  0  0  0  0  0  0  0
   33.3290   30.9010   35.5170 C   0  0  0  0  0  0  0  0  0  0  0  0
   33.6130   31.7180   36.5880 C   0  0  0  0  0  3  0  0  0  0  0  0
   34.8870   32.0940   36.8800 C   0  0  0  0  0  0  0  0  0  0  0  0
   35.1090   32.7340   37.7190 H   0  0  0  0  0  0  0  0  0  0  0  0
   35.9130   31.6230   36.0510 C   0  0  0  0  0  0  0  0  0  0  0  0
   36.9200   31.9260   36.2900 H   0  0  0  0  0  0  0  0  0  0  0  0
   35.5710   30.8100   34.9980 C   0  0  0  0  0  3  0  0  0  0  0  0
   34.3020   30.4110   34.6750 C   0  0  0  0  0  0  0  0  0  0  0  0
   36.6300   30.3040   29.5040 N   0  0  0  0  0  0  0  0  0  0  0  0
   36.1380   29.8760   28.6800 H   0  0  0  0  0  0  0  0  0  0  0  0
   37.2360   31.1450   29.5160 H   0  0  0  0  0  0  0  0  0  0  0  0
  1  6  2  0  0  0  0
  1  2  1  0  0  0  0
  2  3  2  0  0  0  0
  3  4  1  0  0  0  0
  3 23  1  0  0  0  0
  5  8  1  0  0  0  0
  5  4  2  0  0  0  0
  6  5  1  0  0  0  0
  7  2  1  0  0  0  0
  8  9  1  0  0  0  0
  9 10  2  0  0  0  0
 10 18  1  0  0  0  0
 11 10  1  0  0  0  0
 12 11  2  0  0  0  0
 13 19  1  0  0  0  0
 13 12  1  0  0  0  0
 14 13  2  0  0  0  0
 15 14  1  0  0  0  0
 15 16  2  0  0  0  0
 16 17  1  0  0  0  0
 17 12  1  0  0  0  0
 17  8  2  0  0  0  0
 20 14  1  0  0  0  0
 21 15  1  0  0  0  0
 22 16  1  0  0  0  0
 23 34  1  0  0  0  0
 24 23  2  0  0  0  0
 24 25  1  0  0  0  0
 25 26  2  0  0  0  0
 26 27  1  0  0  0  0
 27 28  1  0  0  0  0
 28 29  2  0  0  0  0
 29 30  1  0  0  0  0
 31 32  1  0  0  0  0
 31 29  1  0  0  0  0
 33 31  2  0  0  0  0
 34 33  1  0  0  0  0
 34 27  2  0  0  0  0
 35 37  1  0  0  0  0
 35  1  1  0  0  0  0
 36 35  1  0  0  0  0
M  END
>  <minimizedAffinity>
-6.70422316

$$$$
