
 OpenBabel03272502063D

 42 46  0  0  0  0  0  0  0  0999 V2000
   34.4450   30.6060   47.2670 F   0  0  0  0  0  0  0  0  0  0  0  0
   34.8770   30.0680   46.0830 C   0  0  0  0  0  0  0  0  0  0  0  0
   34.0120   29.4330   45.1950 C   0  0  0  0  0  0  0  0  0  0  0  0
   34.5120   28.9330   44.0210 C   0  0  0  0  0  0  0  0  0  0  0  0
   35.8740   29.0570   43.7170 C   0  0  0  0  0  0  0  0  0  0  0  0
   36.6830   29.6960   44.6360 C   0  0  0  0  0  0  0  0  0  0  0  0
   36.2340   30.2010   45.7970 C   0  0  0  0  0  0  0  0  0  0  0  0
   33.8080   28.4490   43.3650 H   0  0  0  0  0  0  0  0  0  0  0  0
   36.2350   28.6500   42.7780 H   0  0  0  0  0  0  0  0  0  0  0  0
   37.7190   29.7540   44.3330 H   0  0  0  0  0  0  0  0  0  0  0  0
   38.0650   32.4880   44.6800 Br  0  0  0  0  0  0  0  0  0  0  0  0
   38.0070   31.8900   46.4880 C   0  0  0  0  0  0  0  0  0  0  0  0
   37.1400   30.8490   46.7230 C   0  0  0  0  0  0  0  0  0  0  0  0
   37.0750   30.3290   48.0270 C   0  0  0  0  0  0  0  0  0  0  0  0
   37.8390   30.8390   49.0180 C   0  0  0  0  0  0  0  0  0  0  0  0
   38.6890   31.8840   48.7290 C   0  0  0  0  0  0  0  0  0  0  0  0
   38.7860   32.4340   47.4380 C   0  0  0  0  0  0  0  0  0  0  0  0
   36.4220   29.5100   48.2990 H   0  0  0  0  0  0  0  0  0  0  0  0
   37.8400   30.4910   50.0400 H   0  0  0  0  0  0  0  0  0  0  0  0
   39.3230   32.3290   49.4920 H   0  0  0  0  0  0  0  0  0  0  0  0
   39.5950   33.4630   47.0700 O   0  0  0  0  0  0  0  0  0  0  0  0
   40.1000   33.9890   47.7790 H   0  0  0  0  0  0  0  0  0  0  0  0
   32.2190   28.1890   46.2120 C   0  0  0  0  0  0  0  0  0  0  0  0
   32.6430   29.3680   45.6250 C   0  0  0  0  0  0  0  0  0  0  0  0
   31.7250   30.3920   45.5260 C   0  0  0  0  0  0  0  0  0  0  0  0
   30.4620   30.2270   45.9940 N   0  0  0  0  0  0  0  0  0  0  0  0
   30.0850   29.0970   46.5510 C   0  0  0  0  0  0  0  0  0  0  0  0
   30.9360   28.1000   46.6580 N   0  0  0  0  0  0  0  0  0  0  0  0
   32.9270   27.3490   46.3060 H   0  0  0  0  0  0  0  0  0  0  0  0
   32.0090   31.3250   45.0760 H   0  0  0  0  0  0  0  0  0  0  0  0
   28.7870   28.6960   47.1250 C   0  0  0  0  0  0  0  0  0  0  0  0
   27.5930   28.7850   46.5060 N   0  0  0  0  0  0  0  0  0  0  0  0
   26.4220   28.4300   47.0040 C   0  0  0  0  0  3  0  0  0  0  0  0
   26.3260   27.9220   48.2420 N   0  0  0  0  0  0  0  0  0  0  0  0
   27.4550   27.7820   48.9690 C   0  0  0  0  0  0  0  0  0  0  0  0
   27.3240   27.2630   50.2240 C   0  0  0  0  0  3  0  0  0  0  0  0
   28.4400   27.0950   51.0140 C   0  0  0  0  0  0  0  0  0  0  0  0
   28.2790   26.6810   51.9970 H   0  0  0  0  0  0  0  0  0  0  0  0
   29.6600   27.4700   50.4810 C   0  0  0  0  0  0  0  0  0  0  0  0
   30.5050   27.3190   51.1390 H   0  0  0  0  0  0  0  0  0  0  0  0
   29.7270   27.9880   49.2070 C   0  0  0  0  0  3  0  0  0  0  0  0
   28.6390   28.1710   48.3880 C   0  0  0  0  0  0  0  0  0  0  0  0
  2  1  1  0  0  0  0
  3 24  1  0  0  0  0
  3  2  2  0  0  0  0
  4  3  1  0  0  0  0
  5  4  2  0  0  0  0
  5  6  1  0  0  0  0
  6  7  2  0  0  0  0
  7  2  1  0  0  0  0
  7 13  1  0  0  0  0
  8  4  1  0  0  0  0
  9  5  1  0  0  0  0
 10  6  1  0  0  0  0
 11 12  1  0  0  0  0
 12 13  2  0  0  0  0
 12 17  1  0  0  0  0
 13 14  1  0  0  0  0
 14 18  1  0  0  0  0
 14 15  2  0  0  0  0
 15 19  1  0  0  0  0
 16 15  1  0  0  0  0
 16 20  1  0  0  0  0
 17 16  2  0  0  0  0
 21 17  1  0  0  0  0
 21 22  1  0  0  0  0
 23 29  1  0  0  0  0
 23 28  1  0  0  0  0
 24 23  2  0  0  0  0
 25 24  1  0  0  0  0
 25 26  2  0  0  0  0
 26 27  1  0  0  0  0
 27 28  2  0  0  0  0
 27 31  1  0  0  0  0
 30 25  1  0  0  0  0
 31 42  1  0  0  0  0
 32 33  1  0  0  0  0
 32 31  2  0  0  0  0
 33 34  2  0  0  0  0
 34 35  1  0  0  0  0
 35 36  1  0  0  0  0
 36 37  2  0  0  0  0
 37 38  1  0  0  0  0
 39 37  1  0  0  0  0
 39 40  1  0  0  0  0
 41 39  2  0  0  0  0
 42 35  2  0  0  0  0
 42 41  1  0  0  0  0
M  END
>  <minimizedAffinity>
-7.57219839

>  <minimizedRMSD>
0.815340042

$$$$
