
 OpenBabel03272506073D

 33 36  0  0  0  0  0  0  0  0999 V2000
   34.4640   28.6210   48.6610 C   0  0  0  0  0  0  0  0  0  0  0  0
   34.3830   29.1600   47.3250 C   0  0  0  0  0  0  0  0  0  0  0  0
   32.6480   28.9080   47.0080 S   0  0  0  0  0  0  0  0  0  0  0  0
   32.2870   28.1350   48.6760 C   0  0  0  0  0  0  0  0  0  0  0  0
   33.3630   28.1620   49.1800 N   0  0  0  0  0  0  0  0  0  0  0  0
   35.1730   29.5760   46.7420 H   0  0  0  0  0  0  0  0  0  0  0  0
   30.8640   27.7560   48.8320 C   0  0  0  0  0  0  0  0  0  0  0  0
   30.0810   28.0380   49.8890 N   0  0  0  0  0  0  0  0  0  0  0  0
   28.7970   27.6650   49.9690 C   0  0  0  0  0  3  0  0  0  0  0  0
   28.2120   26.9780   48.9790 N   0  0  0  0  0  0  0  0  0  0  0  0
   28.9130   26.6500   47.8810 C   0  0  0  0  0  0  0  0  0  0  0  0
   28.2890   25.9420   46.8760 C   0  0  0  0  0  3  0  0  0  0  0  0
   29.0190   25.6090   45.7480 C   0  0  0  0  0  0  0  0  0  0  0  0
   28.5140   25.0540   44.9690 H   0  0  0  0  0  0  0  0  0  0  0  0
   30.3580   26.0150   45.7000 C   0  0  0  0  0  0  0  0  0  0  0  0
   30.8190   25.6930   44.7680 H   0  0  0  0  0  0  0  0  0  0  0  0
   30.9430   26.7210   46.7280 C   0  0  0  0  0  3  0  0  0  0  0  0
   30.2310   27.0500   47.8360 C   0  0  0  0  0  0  0  0  0  0  0  0
   35.8010   28.6330   49.3390 C   0  0  0  0  0  0  0  0  0  0  0  0
   36.6220   28.6100   48.5630 H   0  0  0  0  0  0  0  0  0  0  0  0
   35.9520   27.6920   49.9070 H   0  0  0  0  0  0  0  0  0  0  0  0
   35.9950   29.8080   50.2180 C   0  0  0  0  0  0  0  0  0  0  0  0
   35.0480   30.2820   50.5700 H   0  0  0  0  0  0  0  0  0  0  0  0
   36.5490   29.5100   51.1550 H   0  0  0  0  0  0  0  0  0  0  0  0
   37.7740   32.9470   49.3850 C   0  0  0  0  0  0  0  0  0  0  0  0
   38.5490   32.5850   48.2860 C   0  0  0  0  0  0  0  0  0  0  0  0
   38.4500   31.2610   47.8440 C   0  0  0  0  0  0  0  0  0  0  0  0
   37.6240   30.3960   48.4820 N   0  0  0  0  0  0  0  0  0  0  0  0
   36.8910   30.8170   49.5540 C   0  0  0  0  0  0  0  0  0  0  0  0
   36.9660   32.0710   49.9960 N   0  0  0  0  0  0  0  0  0  0  0  0
   37.8150   33.9600   49.7640 H   0  0  0  0  0  0  0  0  0  0  0  0
   39.2020   33.2900   47.7890 H   0  0  0  0  0  0  0  0  0  0  0  0
   39.0220   30.9380   47.0090 H   0  0  0  0  0  0  0  0  0  0  0  0
  1  5  1  0  0  0  0
  1 19  1  0  0  0  0
  2  1  2  0  0  0  0
  3  2  1  0  0  0  0
  3  4  1  0  0  0  0
  4  7  1  0  0  0  0
  4  5  2  0  0  0  0
  6  2  1  0  0  0  0
  7  8  1  0  0  0  0
  8  9  2  0  0  0  0
 10  9  1  0  0  0  0
 11 10  2  0  0  0  0
 12 11  1  0  0  0  0
 13 12  2  0  0  0  0
 14 13  1  0  0  0  0
 15 13  1  0  0  0  0
 15 17  2  0  0  0  0
 16 15  1  0  0  0  0
 17 18  1  0  0  0  0
 18 11  1  0  0  0  0
 18  7  2  0  0  0  0
 19 21  1  0  0  0  0
 19 22  1  0  0  0  0
 20 19  1  0  0  0  0
 22 23  1  0  0  0  0
 22 24  1  0  0  0  0
 25 31  1  0  0  0  0
 25 30  1  0  0  0  0
 26 25  2  0  0  0  0
 27 26  1  0  0  0  0
 27 28  2  0  0  0  0
 28 29  1  0  0  0  0
 29 30  2  0  0  0  0
 29 22  1  0  0  0  0
 32 26  1  0  0  0  0
 33 27  1  0  0  0  0
M  END
>  <minimizedAffinity>
-5.61472845

>  <minimizedRMSD>
0.926928759

$$$$
