
 OpenBabel03272509093D

 43 47  0  0  0  0  0  0  0  0999 V2000
   33.5380   26.9040   47.0290 C   0  0  0  0  0  0  0  0  0  0  0  0
   33.6650   25.6080   47.4620 C   0  0  0  0  0  0  0  0  0  0  0  0
   34.0540   24.6120   46.5960 C   0  0  0  0  0  0  0  0  0  0  0  0
   34.3290   24.8870   45.2600 C   0  0  0  0  0  0  0  0  0  0  0  0
   34.2020   26.1760   44.8300 C   0  0  0  0  0  0  0  0  0  0  0  0
   33.8130   27.1870   45.6850 C   0  0  0  0  0  0  0  0  0  0  0  0
   33.4360   25.4730   48.5150 H   0  0  0  0  0  0  0  0  0  0  0  0
   34.1130   23.6470   47.0650 H   0  0  0  0  0  0  0  0  0  0  0  0
   34.6220   24.0080   44.7080 H   0  0  0  0  0  0  0  0  0  0  0  0
   34.4380   26.2960   43.7790 H   0  0  0  0  0  0  0  0  0  0  0  0
   33.7850   28.4920   45.0180 C   0  0  0  0  0  0  0  0  0  0  0  0
   34.9060   29.2110   44.9090 N   0  0  0  0  0  0  0  0  0  0  0  0
   35.0040   30.4070   44.3380 C   0  0  0  0  0  3  0  0  0  0  0  0
   33.8650   30.9260   43.8320 N   0  0  0  0  0  0  0  0  0  0  0  0
   32.6910   30.2790   43.8960 C   0  0  0  0  0  0  0  0  0  0  0  0
   31.5570   30.8960   43.3550 C   0  0  0  0  0  3  0  0  0  0  0  0
   30.4130   30.1400   43.4910 C   0  0  0  0  0  0  0  0  0  0  0  0
   29.5170   30.6150   43.0720 H   0  0  0  0  0  0  0  0  0  0  0  0
   30.2630   28.9120   44.0670 C   0  0  0  0  0  0  0  0  0  0  0  0
   29.2990   28.4200   44.1070 H   0  0  0  0  0  0  0  0  0  0  0  0
   31.4300   28.3470   44.5890 C   0  0  0  0  0  3  0  0  0  0  0  0
   32.6150   29.0260   44.4990 C   0  0  0  0  0  0  0  0  0  0  0  0
   33.1150   28.0720   47.8700 C   0  0  0  0  0  0  0  0  0  0  0  0
   32.4760   27.6570   48.6750 H   0  0  0  0  0  0  0  0  0  0  0  0
   32.4850   28.7380   47.2630 H   0  0  0  0  0  0  0  0  0  0  0  0
   35.0100   28.3750   49.4800 C   0  0  0  0  0  3  0  0  0  0  0  0
   34.2410   28.7800   48.5070 C   0  0  0  0  0  3  0  0  0  0  0  0
   37.4030   30.1700   51.5740 C   0  0  0  0  0  0  0  0  0  0  0  0
   38.1010   30.9280   50.6220 C   0  0  0  0  0  0  0  0  0  0  0  0
   37.7290   30.8090   49.2700 C   0  0  0  0  0  0  0  0  0  0  0  0
   36.6960   29.9500   48.9580 N   0  0  0  0  0  0  0  0  0  0  0  0
   36.0730   29.2510   49.9380 C   0  0  0  0  0  0  0  0  0  0  0  0
   36.4150   29.3590   51.2100 N   0  0  0  0  0  0  0  0  0  0  0  0
   37.7480   30.3160   52.6080 H   0  0  0  0  0  0  0  0  0  0  0  0
   38.9240   31.6190   50.8350 H   0  0  0  0  0  0  0  0  0  0  0  0
   38.3730   31.5520   48.1950 C   0  0  0  0  0  0  0  0  0  0  0  0
   38.5740   31.0160   46.9330 C   0  0  0  0  0  0  0  0  0  0  0  0
   39.2110   32.0090   46.1660 C   0  0  0  0  0  0  0  0  0  0  0  0
   39.3690   33.0850   46.9760 N   0  0  0  0  0  0  0  0  0  0  0  0
   38.8710   32.8060   48.1740 N   0  0  0  0  0  0  0  0  0  0  0  0
   38.3370   30.0640   46.5070 H   0  0  0  0  0  0  0  0  0  0  0  0
   39.5380   31.9940   45.1390 H   0  0  0  0  0  0  0  0  0  0  0  0
   39.7940   34.0400   46.8170 H   0  0  0  0  0  0  0  0  0  0  0  0
  1  2  1  0  0  0  0
  1 23  1  0  0  0  0
  2  7  1  0  0  0  0
  3  8  1  0  0  0  0
  3  2  2  0  0  0  0
  4  3  1  0  0  0  0
  5  4  2  0  0  0  0
  5  6  1  0  0  0  0
  6  1  2  0  0  0  0
  9  4  1  0  0  0  0
 10  5  1  0  0  0  0
 11  6  1  0  0  0  0
 12 11  1  0  0  0  0
 13 12  2  0  0  0  0
 14 15  2  0  0  0  0
 14 13  1  0  0  0  0
 15 22  1  0  0  0  0
 16 17  2  0  0  0  0
 16 15  1  0  0  0  0
 17 19  1  0  0  0  0
 18 17  1  0  0  0  0
 19 20  1  0  0  0  0
 19 21  2  0  0  0  0
 22 21  1  0  0  0  0
 22 11  2  0  0  0  0
 23 27  1  0  0  0  0
 23 24  1  0  0  0  0
 25 23  1  0  0  0  0
 26 32  1  0  0  0  0
 27 26  2  0  0  0  0
 28 34  1  0  0  0  0
 29 35  1  0  0  0  0
 29 28  2  0  0  0  0
 30 29  1  0  0  0  0
 31 30  2  0  0  0  0
 31 32  1  0  0  0  0
 32 33  2  0  0  0  0
 33 28  1  0  0  0  0
 36 30  1  0  0  0  0
 37 36  1  0  0  0  0
 38 37  2  0  0  0  0
 38 39  1  0  0  0  0
 39 40  1  0  0  0  0
 40 36  2  0  0  0  0
 41 37  1  0  0  0  0
 42 38  1  0  0  0  0
 43 39  1  0  0  0  0
M  END
>  <minimizedAffinity>
-6.56689882

>  <minimizedRMSD>
0.25248453

$$$$
