
 OpenBabel03272501333D

 30 33  0  0  1  0  0  0  0  0999 V2000
   39.7500   25.2600   33.9380 C   0  0  2  0  0  0  0  0  0  0  0  0
   40.1270   26.4040   34.9610 C   0  0  0  0  0  0  0  0  0  0  0  0
   39.5840   26.6440   33.5620 C   0  0  2  0  0  0  0  0  0  0  0  0
   40.7240   24.6850   33.7870 H   0  0  0  0  0  0  0  0  0  0  0  0
   39.4800   26.5390   35.8230 H   0  0  0  0  0  0  0  0  0  0  0  0
   41.1940   26.5630   35.1570 H   0  0  0  0  0  0  0  0  0  0  0  0
   40.3770   27.0850   32.8850 H   0  0  0  0  0  0  0  0  0  0  0  0
   38.2740   27.3270   33.5780 C   0  0  0  0  0  0  0  0  0  0  0  0
   37.3480   27.6330   34.4830 N   0  0  0  0  0  0  0  0  0  0  0  0
   36.2110   28.2530   34.2110 C   0  0  0  0  0  3  0  0  0  0  0  0
   35.8940   28.6290   32.9800 N   0  0  0  0  0  0  0  0  0  0  0  0
   36.7480   28.3770   31.9770 C   0  0  0  0  0  0  0  0  0  0  0  0
   36.3390   28.8060   30.7360 C   0  0  0  0  0  3  0  0  0  0  0  0
   37.1930   28.5670   29.6830 C   0  0  0  0  0  0  0  0  0  0  0  0
   36.9050   28.8890   28.6930 H   0  0  0  0  0  0  0  0  0  0  0  0
   38.3980   27.9280   29.8690 C   0  0  0  0  0  0  0  0  0  0  0  0
   39.0770   27.7350   29.0510 H   0  0  0  0  0  0  0  0  0  0  0  0
   38.7220   27.5360   31.1460 C   0  0  0  0  0  3  0  0  0  0  0  0
   37.9330   27.7270   32.2870 C   0  0  0  0  0  0  0  0  0  0  0  0
   38.6890   24.3970   34.5120 C   0  0  0  0  0  0  0  0  0  0  0  0
   37.7470   24.0800   33.7420 O   0  0  0  0  0  0  0  0  0  0  0  0
   37.9540   24.0980   38.1590 C   0  0  0  0  0  0  0  0  0  0  0  0
   37.8590   24.4580   36.8230 C   0  0  0  0  0  0  0  0  0  0  0  0
   38.7880   23.9850   35.8900 C   0  0  0  0  0  0  0  0  0  0  0  0
   39.7480   23.1830   36.3530 N   0  0  0  0  0  0  0  0  0  0  0  0
   39.8240   22.8410   37.6660 C   0  0  0  0  0  0  0  0  0  0  0  0
   38.9470   23.2820   38.5720 N   0  0  0  0  0  0  0  0  0  0  0  0
   37.2350   24.4640   38.8820 H   0  0  0  0  0  0  0  0  0  0  0  0
   37.0680   25.1110   36.4770 H   0  0  0  0  0  0  0  0  0  0  0  0
   40.6140   22.1880   38.0140 H   0  0  0  0  0  0  0  0  0  0  0  0
  1  4  1  6  0  0  0
  1 20  1  0  0  0  0
  1  2  1  0  0  0  0
  2  6  1  0  0  0  0
  2  5  1  0  0  0  0
  3  7  1  6  0  0  0
  3  8  1  0  0  0  0
  3  1  1  0  0  0  0
  3  2  1  0  0  0  0
  8  9  1  0  0  0  0
 10  9  2  0  0  0  0
 11 10  1  0  0  0  0
 12 19  1  0  0  0  0
 12 11  2  0  0  0  0
 13 12  1  0  0  0  0
 14 16  1  0  0  0  0
 14 13  2  0  0  0  0
 15 14  1  0  0  0  0
 16 18  2  0  0  0  0
 17 16  1  0  0  0  0
 18 19  1  0  0  0  0
 19  8  2  0  0  0  0
 20 24  1  0  0  0  0
 21 20  2  0  0  0  0
 22 27  1  0  0  0  0
 22 28  1  0  0  0  0
 23 22  2  0  0  0  0
 24 25  2  0  0  0  0
 24 23  1  0  0  0  0
 25 26  1  0  0  0  0
 26 30  1  0  0  0  0
 26 27  2  0  0  0  0
 29 23  1  0  0  0  0
M  END
>  <minimizedAffinity>
-5.40359974

$$$$

 OpenBabel03272501333D

 30 33  0  0  1  0  0  0  0  0999 V2000
   37.1780   25.8760   33.2340 C   0  0  2  0  0  0  0  0  0  0  0  0
   38.3280   26.9600   33.2320 C   0  0  0  0  0  0  0  0  0  0  0  0
   38.0560   25.9950   34.3740 C   0  0  2  0  0  0  0  0  0  0  0  0
   36.2180   26.4830   33.1190 H   0  0  0  0  0  0  0  0  0  0  0  0
   39.1740   26.7910   32.5710 H   0  0  0  0  0  0  0  0  0  0  0  0
   38.0230   28.0080   33.3310 H   0  0  0  0  0  0  0  0  0  0  0  0
   37.6440   26.5360   35.2780 H   0  0  0  0  0  0  0  0  0  0  0  0
   39.1870   25.0750   34.6130 C   0  0  0  0  0  0  0  0  0  0  0  0
   40.2670   24.6690   33.9500 N   0  0  0  0  0  0  0  0  0  0  0  0
   41.1370   23.7830   34.4070 C   0  0  0  0  0  3  0  0  0  0  0  0
   40.9990   23.2120   35.5950 N   0  0  0  0  0  0  0  0  0  0  0  0
   39.9480   23.5390   36.3620 C   0  0  0  0  0  0  0  0  0  0  0  0
   39.8870   22.9010   37.5780 C   0  0  0  0  0  3  0  0  0  0  0  0
   38.8230   23.2160   38.3930 C   0  0  0  0  0  0  0  0  0  0  0  0
   38.7410   22.7330   39.3560 H   0  0  0  0  0  0  0  0  0  0  0  0
   37.8670   24.1260   38.0030 C   0  0  0  0  0  0  0  0  0  0  0  0
   37.0270   24.3820   38.6330 H   0  0  0  0  0  0  0  0  0  0  0  0
   38.0110   24.7140   36.7680 C   0  0  0  0  0  3  0  0  0  0  0  0
   39.0500   24.4700   35.8610 C   0  0  0  0  0  0  0  0  0  0  0  0
   37.3670   24.9340   32.1040 C   0  0  0  0  0  0  0  0  0  0  0  0
   37.9170   25.3980   31.0730 O   0  0  0  0  0  0  0  0  0  0  0  0
   35.4320   21.7920   31.5440 C   0  0  0  0  0  0  0  0  0  0  0  0
   35.9020   23.0900   31.4060 C   0  0  0  0  0  0  0  0  0  0  0  0
   36.9140   23.5720   32.2430 C   0  0  0  0  0  0  0  0  0  0  0  0
   37.3900   22.7260   33.1580 N   0  0  0  0  0  0  0  0  0  0  0  0
   36.9170   21.4580   33.2760 C   0  0  0  0  0  0  0  0  0  0  0  0
   35.9510   20.9790   32.4870 N   0  0  0  0  0  0  0  0  0  0  0  0
   34.6480   21.4180   30.8960 H   0  0  0  0  0  0  0  0  0  0  0  0
   35.4960   23.7540   30.6540 H   0  0  0  0  0  0  0  0  0  0  0  0
   37.3220   20.7930   34.0280 H   0  0  0  0  0  0  0  0  0  0  0  0
  1  4  1  1  0  0  0
  1  3  1  0  0  0  0
  2  1  1  0  0  0  0
  2  6  1  0  0  0  0
  2  3  1  0  0  0  0
  3  8  1  0  0  0  0
  3  7  1  1  0  0  0
  5  2  1  0  0  0  0
  8 19  1  0  0  0  0
  9 10  1  0  0  0  0
  9  8  2  0  0  0  0
 10 11  2  0  0  0  0
 11 12  1  0  0  0  0
 12 13  1  0  0  0  0
 13 14  2  0  0  0  0
 14 15  1  0  0  0  0
 16 14  1  0  0  0  0
 16 17  1  0  0  0  0
 18 16  2  0  0  0  0
 19 12  2  0  0  0  0
 19 18  1  0  0  0  0
 20 24  1  0  0  0  0
 20  1  1  0  0  0  0
 21 20  2  0  0  0  0
 22 27  1  0  0  0  0
 23 22  2  0  0  0  0
 23 24  1  0  0  0  0
 24 25  2  0  0  0  0
 25 26  1  0  0  0  0
 26 30  1  0  0  0  0
 27 26  2  0  0  0  0
 28 22  1  0  0  0  0
 29 23  1  0  0  0  0
M  END
>  <minimizedAffinity>
-5.28870821

$$$$

 OpenBabel03272501333D

 30 33  0  0  1  0  0  0  0  0999 V2000
   40.0890   25.8130   33.8310 C   0  0  2  0  0  0  0  0  0  0  0  0
   40.5270   27.1930   33.1980 C   0  0  0  0  0  0  0  0  0  0  0  0
   39.6270   26.1790   32.5130 C   0  0  2  0  0  0  0  0  0  0  0  0
   41.0720   25.2630   34.0170 H   0  0  0  0  0  0  0  0  0  0  0  0
   40.0990   28.0970   33.6230 H   0  0  0  0  0  0  0  0  0  0  0  0
   41.5720   27.2840   32.8810 H   0  0  0  0  0  0  0  0  0  0  0  0
   40.1510   25.6910   31.6370 H   0  0  0  0  0  0  0  0  0  0  0  0
   38.2730   26.7130   32.2590 C   0  0  0  0  0  0  0  0  0  0  0  0
   37.6600   27.8910   32.3410 N   0  0  0  0  0  0  0  0  0  0  0  0
   36.3820   28.0920   32.0650 C   0  0  0  0  0  3  0  0  0  0  0  0
   35.5860   27.1070   31.6730 N   0  0  0  0  0  0  0  0  0  0  0  0
   36.0860   25.8690   31.5500 C   0  0  0  0  0  0  0  0  0  0  0  0
   35.1890   24.9120   31.1360 C   0  0  0  0  0  3  0  0  0  0  0  0
   35.6690   23.6300   30.9950 C   0  0  0  0  0  0  0  0  0  0  0  0
   34.9940   22.8510   30.6720 H   0  0  0  0  0  0  0  0  0  0  0  0
   36.9850   23.3240   31.2600 C   0  0  0  0  0  0  0  0  0  0  0  0
   37.3740   22.3220   31.1540 H   0  0  0  0  0  0  0  0  0  0  0  0
   37.8080   24.3470   31.6700 C   0  0  0  0  0  3  0  0  0  0  0  0
   37.4280   25.6830   31.8450 C   0  0  0  0  0  0  0  0  0  0  0  0
   39.3460   26.0460   35.0920 C   0  0  0  0  0  0  0  0  0  0  0  0
   39.3350   27.2260   35.5270 O   0  0  0  0  0  0  0  0  0  0  0  0
   37.9190   22.6430   35.6580 C   0  0  0  0  0  0  0  0  0  0  0  0
   38.5640   23.7170   35.0620 C   0  0  0  0  0  0  0  0  0  0  0  0
   38.6990   24.9320   35.7420 C   0  0  0  0  0  0  0  0  0  0  0  0
   38.1830   24.9940   36.9700 N   0  0  0  0  0  0  0  0  0  0  0  0
   37.5550   23.9300   37.5370 C   0  0  0  0  0  0  0  0  0  0  0  0
   37.4150   22.7620   36.9040 N   0  0  0  0  0  0  0  0  0  0  0  0
   37.8140   21.7020   35.1320 H   0  0  0  0  0  0  0  0  0  0  0  0
   38.9740   23.6370   34.0630 H   0  0  0  0  0  0  0  0  0  0  0  0
   37.1450   24.0090   38.5350 H   0  0  0  0  0  0  0  0  0  0  0  0
  1  4  1  1  0  0  0
  1 20  1  0  0  0  0
  2  5  1  0  0  0  0
  2  1  1  0  0  0  0
  3  7  1  6  0  0  0
  3  2  1  0  0  0  0
  3  1  1  0  0  0  0
  6  2  1  0  0  0  0
  8  9  1  0  0  0  0
  8  3  1  0  0  0  0
 10  9  2  0  0  0  0
 11 10  1  0  0  0  0
 12 11  2  0  0  0  0
 12 19  1  0  0  0  0
 13 12  1  0  0  0  0
 14 13  2  0  0  0  0
 14 16  1  0  0  0  0
 15 14  1  0  0  0  0
 16 18  2  0  0  0  0
 17 16  1  0  0  0  0
 18 19  1  0  0  0  0
 19  8  2  0  0  0  0
 20 21  2  0  0  0  0
 20 24  1  0  0  0  0
 22 27  1  0  0  0  0
 23 22  2  0  0  0  0
 23 24  1  0  0  0  0
 24 25  2  0  0  0  0
 25 26  1  0  0  0  0
 26 30  1  0  0  0  0
 27 26  2  0  0  0  0
 28 22  1  0  0  0  0
 29 23  1  0  0  0  0
M  END
>  <minimizedAffinity>
-5.20172644

$$$$

 OpenBabel03272501333D

 30 33  0  0  1  0  0  0  0  0999 V2000
   38.8090   22.6700   32.3180 C   0  0  2  0  0  0  0  0  0  0  0  0
   39.2220   21.3830   33.1360 C   0  0  0  0  0  0  0  0  0  0  0  0
   39.4680   22.8100   33.5950 C   0  0  2  0  0  0  0  0  0  0  0  0
   39.3740   22.5710   31.3310 H   0  0  0  0  0  0  0  0  0  0  0  0
   38.4240   20.7980   33.5880 H   0  0  0  0  0  0  0  0  0  0  0  0
   40.0580   20.7930   32.7450 H   0  0  0  0  0  0  0  0  0  0  0  0
   40.5710   23.0630   33.5720 H   0  0  0  0  0  0  0  0  0  0  0  0
   38.7410   23.1320   34.8400 C   0  0  0  0  0  0  0  0  0  0  0  0
   38.0270   22.4720   35.7480 N   0  0  0  0  0  0  0  0  0  0  0  0
   37.4440   23.0320   36.7950 C   0  0  0  0  0  3  0  0  0  0  0  0
   37.5270   24.3340   37.0310 N   0  0  0  0  0  0  0  0  0  0  0  0
   38.2220   25.1110   36.1860 C   0  0  0  0  0  0  0  0  0  0  0  0
   38.2570   26.4460   36.5100 C   0  0  0  0  0  3  0  0  0  0  0  0
   38.9650   27.2730   35.6670 C   0  0  0  0  0  0  0  0  0  0  0  0
   39.0140   28.3280   35.8890 H   0  0  0  0  0  0  0  0  0  0  0  0
   39.6040   26.7800   34.5520 C   0  0  0  0  0  0  0  0  0  0  0  0
   40.1630   27.4180   33.8820 H   0  0  0  0  0  0  0  0  0  0  0  0
   39.5130   25.4300   34.3080 C   0  0  0  0  0  3  0  0  0  0  0  0
   38.8240   24.5000   35.0960 C   0  0  0  0  0  0  0  0  0  0  0  0
   37.3410   22.6870   32.1070 C   0  0  0  0  0  0  0  0  0  0  0  0
   36.7290   21.6130   32.3350 O   0  0  0  0  0  0  0  0  0  0  0  0
   36.8810   26.2570   31.1190 C   0  0  0  0  0  0  0  0  0  0  0  0
   37.4740   25.0700   31.5230 C   0  0  0  0  0  0  0  0  0  0  0  0
   36.7120   23.9040   31.6560 C   0  0  0  0  0  0  0  0  0  0  0  0
   35.4120   24.0010   31.3740 N   0  0  0  0  0  0  0  0  0  0  0  0
   34.8500   25.1740   30.9780 C   0  0  0  0  0  0  0  0  0  0  0  0
   35.5600   26.2980   30.8460 N   0  0  0  0  0  0  0  0  0  0  0  0
   37.4700   27.1610   31.0160 H   0  0  0  0  0  0  0  0  0  0  0  0
   38.5320   25.0220   31.7450 H   0  0  0  0  0  0  0  0  0  0  0  0
   33.7920   25.2230   30.7560 H   0  0  0  0  0  0  0  0  0  0  0  0
  1  4  1  6  0  0  0
  1  2  1  0  0  0  0
  1  3  1  0  0  0  0
  2  5  1  0  0  0  0
  2  3  1  0  0  0  0
  3  7  1  6  0  0  0
  3  8  1  0  0  0  0
  6  2  1  0  0  0  0
  8 19  2  0  0  0  0
  8  9  1  0  0  0  0
  9 10  2  0  0  0  0
 10 11  1  0  0  0  0
 12 13  1  0  0  0  0
 12 11  2  0  0  0  0
 14 15  1  0  0  0  0
 14 13  2  0  0  0  0
 16 14  1  0  0  0  0
 17 16  1  0  0  0  0
 18 16  2  0  0  0  0
 18 19  1  0  0  0  0
 19 12  1  0  0  0  0
 20  1  1  0  0  0  0
 20 21  2  0  0  0  0
 22 23  1  0  0  0  0
 23 24  2  0  0  0  0
 23 29  1  0  0  0  0
 24 20  1  0  0  0  0
 25 24  1  0  0  0  0
 26 25  2  0  0  0  0
 27 26  1  0  0  0  0
 27 22  2  0  0  0  0
 28 22  1  0  0  0  0
 30 26  1  0  0  0  0
M  END
>  <minimizedAffinity>
-5.1930685

$$$$

 OpenBabel03272501333D

 30 33  0  0  1  0  0  0  0  0999 V2000
   36.9620   26.5710   33.6820 C   0  0  2  0  0  0  0  0  0  0  0  0
   38.2360   27.4580   33.9740 C   0  0  0  0  0  0  0  0  0  0  0  0
   37.8000   26.2730   34.8190 C   0  0  2  0  0  0  0  0  0  0  0  0
   36.0900   27.3060   33.7240 H   0  0  0  0  0  0  0  0  0  0  0  0
   39.0820   27.3590   33.2990 H   0  0  0  0  0  0  0  0  0  0  0  0
   38.0600   28.4740   34.3430 H   0  0  0  0  0  0  0  0  0  0  0  0
   37.4200   26.6090   35.8310 H   0  0  0  0  0  0  0  0  0  0  0  0
   38.7980   25.1840   34.8160 C   0  0  0  0  0  0  0  0  0  0  0  0
   39.6560   24.6530   33.9480 N   0  0  0  0  0  0  0  0  0  0  0  0
   40.4470   23.6260   34.2100 C   0  0  0  0  0  3  0  0  0  0  0  0
   40.4480   23.0240   35.3910 N   0  0  0  0  0  0  0  0  0  0  0  0
   39.6260   23.4670   36.3540 C   0  0  0  0  0  0  0  0  0  0  0  0
   39.6970   22.7860   37.5460 C   0  0  0  0  0  3  0  0  0  0  0  0
   38.8690   23.2170   38.5580 C   0  0  0  0  0  0  0  0  0  0  0  0
   38.8960   22.7050   39.5090 H   0  0  0  0  0  0  0  0  0  0  0  0
   38.0100   24.2780   38.3790 C   0  0  0  0  0  0  0  0  0  0  0  0
   37.3560   24.6250   39.1650 H   0  0  0  0  0  0  0  0  0  0  0  0
   38.0090   24.8970   37.1510 C   0  0  0  0  0  3  0  0  0  0  0  0
   38.8060   24.5460   36.0550 C   0  0  0  0  0  0  0  0  0  0  0  0
   37.0800   25.9390   32.3450 C   0  0  0  0  0  0  0  0  0  0  0  0
   36.7760   24.7210   32.2710 O   0  0  0  0  0  0  0  0  0  0  0  0
   37.1290   28.5210   29.6500 C   0  0  0  0  0  0  0  0  0  0  0  0
   36.7240   27.7640   30.7400 C   0  0  0  0  0  0  0  0  0  0  0  0
   37.5340   26.7340   31.2310 C   0  0  0  0  0  0  0  0  0  0  0  0
   38.6930   26.5310   30.6030 N   0  0  0  0  0  0  0  0  0  0  0  0
   39.0720   27.2840   29.5380 C   0  0  0  0  0  0  0  0  0  0  0  0
   38.3130   28.2710   29.0530 N   0  0  0  0  0  0  0  0  0  0  0  0
   36.5030   29.3180   29.2690 H   0  0  0  0  0  0  0  0  0  0  0  0
   35.7770   27.9530   31.2290 H   0  0  0  0  0  0  0  0  0  0  0  0
   40.0190   27.0970   29.0480 H   0  0  0  0  0  0  0  0  0  0  0  0
  1  4  1  1  0  0  0
  1  2  1  0  0  0  0
  1  3  1  0  0  0  0
  2  6  1  0  0  0  0
  2  3  1  0  0  0  0
  3  7  1  1  0  0  0
  5  2  1  0  0  0  0
  8  3  1  0  0  0  0
  8 19  1  0  0  0  0
  9 10  1  0  0  0  0
  9  8  2  0  0  0  0
 10 11  2  0  0  0  0
 11 12  1  0  0  0  0
 12 13  1  0  0  0  0
 13 14  2  0  0  0  0
 14 15  1  0  0  0  0
 16 14  1  0  0  0  0
 16 17  1  0  0  0  0
 18 16  2  0  0  0  0
 19 12  2  0  0  0  0
 19 18  1  0  0  0  0
 20  1  1  0  0  0  0
 21 20  2  0  0  0  0
 22 23  1  0  0  0  0
 23 29  1  0  0  0  0
 23 24  2  0  0  0  0
 24 20  1  0  0  0  0
 25 24  1  0  0  0  0
 26 25  2  0  0  0  0
 27 26  1  0  0  0  0
 27 22  2  0  0  0  0
 28 22  1  0  0  0  0
 30 26  1  0  0  0  0
M  END
>  <minimizedAffinity>
-5.14694691

$$$$

 OpenBabel03272501333D

 30 33  0  0  1  0  0  0  0  0999 V2000
   38.6670   22.6870   32.2430 C   0  0  2  0  0  0  0  0  0  0  0  0
   39.2920   21.4790   33.0470 C   0  0  0  0  0  0  0  0  0  0  0  0
   39.4100   22.9370   33.4550 C   0  0  2  0  0  0  0  0  0  0  0  0
   39.1550   22.6230   31.2130 H   0  0  0  0  0  0  0  0  0  0  0  0
   38.6070   20.8220   33.5770 H   0  0  0  0  0  0  0  0  0  0  0  0
   40.1550   20.9760   32.5970 H   0  0  0  0  0  0  0  0  0  0  0  0
   40.4700   23.3130   33.3320 H   0  0  0  0  0  0  0  0  0  0  0  0
   38.7570   23.2120   34.7520 C   0  0  0  0  0  0  0  0  0  0  0  0
   38.1400   22.5090   35.6980 N   0  0  0  0  0  0  0  0  0  0  0  0
   37.6070   23.0310   36.7910 C   0  0  0  0  0  3  0  0  0  0  0  0
   37.6450   24.3330   37.0380 N   0  0  0  0  0  0  0  0  0  0  0  0
   38.2420   25.1500   36.1570 C   0  0  0  0  0  0  0  0  0  0  0  0
   38.2370   26.4820   36.4960 C   0  0  0  0  0  3  0  0  0  0  0  0
   38.8440   27.3500   35.6170 C   0  0  0  0  0  0  0  0  0  0  0  0
   38.8590   28.4040   35.8490 H   0  0  0  0  0  0  0  0  0  0  0  0
   39.4260   26.9000   34.4530 C   0  0  0  0  0  0  0  0  0  0  0  0
   39.9060   27.5700   33.7550 H   0  0  0  0  0  0  0  0  0  0  0  0
   39.3810   25.5490   34.1980 C   0  0  0  0  0  3  0  0  0  0  0  0
   38.7940   24.5790   35.0200 C   0  0  0  0  0  0  0  0  0  0  0  0
   37.1940   22.5330   32.1590 C   0  0  0  0  0  0  0  0  0  0  0  0
   36.5140   23.5860   32.2490 O   0  0  0  0  0  0  0  0  0  0  0  0
   35.4240   19.3360   32.9200 C   0  0  0  0  0  0  0  0  0  0  0  0
   35.9440   20.6150   33.0510 C   0  0  0  0  0  0  0  0  0  0  0  0
   36.6350   21.2140   31.9920 C   0  0  0  0  0  0  0  0  0  0  0  0
   36.7590   20.4970   30.8740 N   0  0  0  0  0  0  0  0  0  0  0  0
   36.2410   19.2450   30.7660 C   0  0  0  0  0  0  0  0  0  0  0  0
   35.5790   18.6560   31.7650 N   0  0  0  0  0  0  0  0  0  0  0  0
   34.8880   18.8710   33.7400 H   0  0  0  0  0  0  0  0  0  0  0  0
   35.8270   21.1730   33.9710 H   0  0  0  0  0  0  0  0  0  0  0  0
   36.3570   18.6860   29.8460 H   0  0  0  0  0  0  0  0  0  0  0  0
  1  4  1  6  0  0  0
  1  2  1  0  0  0  0
  1  3  1  0  0  0  0
  2  3  1  0  0  0  0
  2  5  1  0  0  0  0
  3  7  1  6  0  0  0
  3  8  1  0  0  0  0
  6  2  1  0  0  0  0
  8 19  2  0  0  0  0
  8  9  1  0  0  0  0
  9 10  2  0  0  0  0
 10 11  1  0  0  0  0
 12 13  1  0  0  0  0
 12 11  2  0  0  0  0
 14 15  1  0  0  0  0
 14 13  2  0  0  0  0
 16 14  1  0  0  0  0
 17 16  1  0  0  0  0
 18 16  2  0  0  0  0
 18 19  1  0  0  0  0
 19 12  1  0  0  0  0
 20  1  1  0  0  0  0
 20 21  2  0  0  0  0
 22 23  1  0  0  0  0
 22 28  1  0  0  0  0
 23 29  1  0  0  0  0
 24 20  1  0  0  0  0
 24 23  2  0  0  0  0
 25 24  1  0  0  0  0
 26 25  2  0  0  0  0
 26 27  1  0  0  0  0
 27 22  2  0  0  0  0
 30 26  1  0  0  0  0
M  END
>  <minimizedAffinity>
-5.12163687

$$$$

 OpenBabel03272501333D

 30 33  0  0  1  0  0  0  0  0999 V2000
   36.9200   26.4990   33.6220 C   0  0  2  0  0  0  0  0  0  0  0  0
   38.1470   27.4440   33.9360 C   0  0  0  0  0  0  0  0  0  0  0  0
   37.7540   26.2380   34.7720 C   0  0  2  0  0  0  0  0  0  0  0  0
   36.0150   27.1930   33.6520 H   0  0  0  0  0  0  0  0  0  0  0  0
   39.0070   27.3860   33.2730 H   0  0  0  0  0  0  0  0  0  0  0  0
   37.9180   28.4500   34.3030 H   0  0  0  0  0  0  0  0  0  0  0  0
   37.3430   26.5540   35.7790 H   0  0  0  0  0  0  0  0  0  0  0  0
   38.8010   25.1970   34.7830 C   0  0  0  0  0  0  0  0  0  0  0  0
   39.7010   24.7130   33.9300 N   0  0  0  0  0  0  0  0  0  0  0  0
   40.5330   23.7220   34.2020 C   0  0  0  0  0  3  0  0  0  0  0  0
   40.5380   23.1120   35.3790 N   0  0  0  0  0  0  0  0  0  0  0  0
   39.6760   23.5100   36.3270 C   0  0  0  0  0  0  0  0  0  0  0  0
   39.7550   22.8240   37.5160 C   0  0  0  0  0  3  0  0  0  0  0  0
   38.8870   23.2080   38.5130 C   0  0  0  0  0  0  0  0  0  0  0  0
   38.9190   22.6920   39.4610 H   0  0  0  0  0  0  0  0  0  0  0  0
   37.9840   24.2300   38.3230 C   0  0  0  0  0  0  0  0  0  0  0  0
   37.2980   24.5410   39.0970 H   0  0  0  0  0  0  0  0  0  0  0  0
   37.9790   24.8570   37.1000 C   0  0  0  0  0  3  0  0  0  0  0  0
   38.8140   24.5510   36.0180 C   0  0  0  0  0  0  0  0  0  0  0  0
   37.0880   25.8760   32.2870 C   0  0  0  0  0  0  0  0  0  0  0  0
   36.8860   24.6370   32.2160 O   0  0  0  0  0  0  0  0  0  0  0  0
   39.1140   27.3040   29.4960 C   0  0  0  0  0  0  0  0  0  0  0  0
   38.7120   26.5000   30.5520 C   0  0  0  0  0  0  0  0  0  0  0  0
   37.4730   26.7030   31.1700 C   0  0  0  0  0  0  0  0  0  0  0  0
   36.7190   27.6940   30.6910 N   0  0  0  0  0  0  0  0  0  0  0  0
   37.1300   28.4700   29.6540 C   0  0  0  0  0  0  0  0  0  0  0  0
   38.3090   28.2920   29.0520 N   0  0  0  0  0  0  0  0  0  0  0  0
   40.0730   27.1480   29.0170 H   0  0  0  0  0  0  0  0  0  0  0  0
   39.3460   25.7040   30.9200 H   0  0  0  0  0  0  0  0  0  0  0  0
   36.4970   29.2670   29.2860 H   0  0  0  0  0  0  0  0  0  0  0  0
  1  4  1  1  0  0  0
  1  2  1  0  0  0  0
  1  3  1  0  0  0  0
  2  6  1  0  0  0  0
  2  3  1  0  0  0  0
  3  8  1  0  0  0  0
  3  7  1  1  0  0  0
  5  2  1  0  0  0  0
  8 19  1  0  0  0  0
  9 10  1  0  0  0  0
  9  8  2  0  0  0  0
 10 11  2  0  0  0  0
 11 12  1  0  0  0  0
 12 13  1  0  0  0  0
 13 14  2  0  0  0  0
 14 15  1  0  0  0  0
 16 14  1  0  0  0  0
 16 17  1  0  0  0  0
 18 16  2  0  0  0  0
 19 12  2  0  0  0  0
 19 18  1  0  0  0  0
 20  1  1  0  0  0  0
 21 20  2  0  0  0  0
 22 23  1  0  0  0  0
 23 29  1  0  0  0  0
 23 24  2  0  0  0  0
 24 20  1  0  0  0  0
 25 24  1  0  0  0  0
 26 25  2  0  0  0  0
 27 22  2  0  0  0  0
 27 26  1  0  0  0  0
 28 22  1  0  0  0  0
 30 26  1  0  0  0  0
M  END
>  <minimizedAffinity>
-5.10499811

$$$$

 OpenBabel03272501333D

 30 33  0  0  1  0  0  0  0  0999 V2000
   37.4620   24.1400   30.7510 C   0  0  2  0  0  0  0  0  0  0  0  0
   38.6420   23.8720   31.7680 C   0  0  0  0  0  0  0  0  0  0  0  0
   38.1900   25.2510   31.3180 C   0  0  2  0  0  0  0  0  0  0  0  0
   37.7860   23.6040   29.7960 H   0  0  0  0  0  0  0  0  0  0  0  0
   38.3780   23.5120   32.7590 H   0  0  0  0  0  0  0  0  0  0  0  0
   39.5660   23.4500   31.3570 H   0  0  0  0  0  0  0  0  0  0  0  0
   38.9660   25.7410   30.6550 H   0  0  0  0  0  0  0  0  0  0  0  0
   37.6680   26.0630   32.4360 C   0  0  0  0  0  0  0  0  0  0  0  0
   37.5170   25.9250   33.7510 N   0  0  0  0  0  0  0  0  0  0  0  0
   36.9770   26.8370   34.5430 C   0  0  0  0  0  3  0  0  0  0  0  0
   36.5280   27.9940   34.0770 N   0  0  0  0  0  0  0  0  0  0  0  0
   36.6230   28.2530   32.7640 C   0  0  0  0  0  0  0  0  0  0  0  0
   36.1360   29.4770   32.3710 C   0  0  0  0  0  3  0  0  0  0  0  0
   36.2210   29.7790   31.0300 C   0  0  0  0  0  0  0  0  0  0  0  0
   35.8470   30.7310   30.6840 H   0  0  0  0  0  0  0  0  0  0  0  0
   36.7670   28.8930   30.1300 C   0  0  0  0  0  0  0  0  0  0  0  0
   36.8400   29.1170   29.0760 H   0  0  0  0  0  0  0  0  0  0  0  0
   37.2280   27.6920   30.6160 C   0  0  0  0  0  3  0  0  0  0  0  0
   37.1940   27.2820   31.9550 C   0  0  0  0  0  0  0  0  0  0  0  0
   36.1960   23.5850   31.2870 C   0  0  0  0  0  0  0  0  0  0  0  0
   35.3280   24.4190   31.6500 O   0  0  0  0  0  0  0  0  0  0  0  0
   34.9080   20.2400   32.3270 C   0  0  0  0  0  0  0  0  0  0  0  0
   35.0590   21.6140   32.2120 C   0  0  0  0  0  0  0  0  0  0  0  0
   36.0350   22.1540   31.3680 C   0  0  0  0  0  0  0  0  0  0  0  0
   36.7920   21.2880   30.6930 N   0  0  0  0  0  0  0  0  0  0  0  0
   36.6270   19.9450   30.8190 C   0  0  0  0  0  0  0  0  0  0  0  0
   35.7020   19.4090   31.6200 N   0  0  0  0  0  0  0  0  0  0  0  0
   34.1530   19.8210   32.9810 H   0  0  0  0  0  0  0  0  0  0  0  0
   34.4290   22.2930   32.7730 H   0  0  0  0  0  0  0  0  0  0  0  0
   37.2560   19.2650   30.2590 H   0  0  0  0  0  0  0  0  0  0  0  0
  1  4  1  6  0  0  0
  1 20  1  0  0  0  0
  1  3  1  0  0  0  0
  1  2  1  0  0  0  0
  2  5  1  0  0  0  0
  3  7  1  6  0  0  0
  3  2  1  0  0  0  0
  3  8  1  0  0  0  0
  6  2  1  0  0  0  0
  8  9  1  0  0  0  0
  9 10  2  0  0  0  0
 11 10  1  0  0  0  0
 12 11  2  0  0  0  0
 13 12  1  0  0  0  0
 14 13  2  0  0  0  0
 15 14  1  0  0  0  0
 16 18  2  0  0  0  0
 16 14  1  0  0  0  0
 17 16  1  0  0  0  0
 18 19  1  0  0  0  0
 19  8  2  0  0  0  0
 19 12  1  0  0  0  0
 20 24  1  0  0  0  0
 20 21  2  0  0  0  0
 22 28  1  0  0  0  0
 23 22  1  0  0  0  0
 23 29  1  0  0  0  0
 24 23  2  0  0  0  0
 25 26  2  0  0  0  0
 25 24  1  0  0  0  0
 26 27  1  0  0  0  0
 27 22  2  0  0  0  0
 30 26  1  0  0  0  0
M  END
>  <minimizedAffinity>
-5.0720377

$$$$

 OpenBabel03272501333D

 30 33  0  0  1  0  0  0  0  0999 V2000
   39.1110   27.0990   35.5340 C   0  0  2  0  0  0  0  0  0  0  0  0
   38.1970   25.8590   35.8840 C   0  0  0  0  0  0  0  0  0  0  0  0
   37.6830   27.1790   35.3350 C   0  0  2  0  0  0  0  0  0  0  0  0
   39.6200   27.3620   36.5210 H   0  0  0  0  0  0  0  0  0  0  0  0
   38.2600   24.9900   35.2330 H   0  0  0  0  0  0  0  0  0  0  0  0
   38.0570   25.6280   36.9460 H   0  0  0  0  0  0  0  0  0  0  0  0
   37.0930   27.7460   36.1170 H   0  0  0  0  0  0  0  0  0  0  0  0
   37.0500   27.0270   34.0090 C   0  0  0  0  0  0  0  0  0  0  0  0
   36.9990   26.1010   33.0550 N   0  0  0  0  0  0  0  0  0  0  0  0
   36.3500   26.2380   31.9110 C   0  0  0  0  0  3  0  0  0  0  0  0
   35.6790   27.3420   31.6130 N   0  0  0  0  0  0  0  0  0  0  0  0
   35.6530   28.3520   32.4950 C   0  0  0  0  0  0  0  0  0  0  0  0
   34.9310   29.4550   32.1040 C   0  0  0  0  0  3  0  0  0  0  0  0
   34.8800   30.5100   32.9870 C   0  0  0  0  0  0  0  0  0  0  0  0
   34.3230   31.3940   32.7140 H   0  0  0  0  0  0  0  0  0  0  0  0
   35.5250   30.4590   34.2020 C   0  0  0  0  0  0  0  0  0  0  0  0
   35.4920   31.2790   34.9040 H   0  0  0  0  0  0  0  0  0  0  0  0
   36.2230   29.3140   34.5070 C   0  0  0  0  0  3  0  0  0  0  0  0
   36.3410   28.1840   33.6880 C   0  0  0  0  0  0  0  0  0  0  0  0
   40.0980   26.7230   34.4930 C   0  0  0  0  0  0  0  0  0  0  0  0
   40.0070   27.3210   33.3910 O   0  0  0  0  0  0  0  0  0  0  0  0
   43.4040   25.0530   34.9560 C   0  0  0  0  0  0  0  0  0  0  0  0
   42.4430   26.0200   34.7010 C   0  0  0  0  0  0  0  0  0  0  0  0
   41.0820   25.7110   34.7920 C   0  0  0  0  0  0  0  0  0  0  0  0
   40.7720   24.4590   35.1320 N   0  0  0  0  0  0  0  0  0  0  0  0
   41.7290   23.5260   35.3780 C   0  0  0  0  0  0  0  0  0  0  0  0
   43.0340   23.8010   35.2960 N   0  0  0  0  0  0  0  0  0  0  0  0
   44.4590   25.2910   34.8850 H   0  0  0  0  0  0  0  0  0  0  0  0
   42.7260   27.0290   34.4270 H   0  0  0  0  0  0  0  0  0  0  0  0
   41.4480   22.5180   35.6520 H   0  0  0  0  0  0  0  0  0  0  0  0
  1  2  1  0  0  0  0
  1  4  1  1  0  0  0
  2  6  1  0  0  0  0
  3  1  1  0  0  0  0
  3  2  1  0  0  0  0
  3  7  1  1  0  0  0
  5  2  1  0  0  0  0
  8  3  1  0  0  0  0
  9  8  2  0  0  0  0
 10  9  1  0  0  0  0
 11 10  2  0  0  0  0
 11 12  1  0  0  0  0
 12 19  1  0  0  0  0
 13 12  2  0  0  0  0
 13 14  1  0  0  0  0
 14 16  2  0  0  0  0
 15 14  1  0  0  0  0
 16 18  1  0  0  0  0
 16 17  1  0  0  0  0
 19  8  1  0  0  0  0
 19 18  2  0  0  0  0
 20 24  1  0  0  0  0
 20  1  1  0  0  0  0
 21 20  2  0  0  0  0
 22 27  1  0  0  0  0
 23 24  1  0  0  0  0
 23 22  2  0  0  0  0
 24 25  2  0  0  0  0
 25 26  1  0  0  0  0
 26 30  1  0  0  0  0
 27 26  2  0  0  0  0
 28 22  1  0  0  0  0
 29 23  1  0  0  0  0
M  END
>  <minimizedAffinity>
-5.06840467

$$$$
