
 OpenBabel03272506063D

 33 36  0  0  0  0  0  0  0  0999 V2000
   33.8050   28.7430   48.0480 C   0  0  0  0  0  0  0  0  0  0  0  0
   33.8580   29.7120   46.9810 C   0  0  0  0  0  0  0  0  0  0  0  0
   32.2490   29.4540   46.2630 S   0  0  0  0  0  0  0  0  0  0  0  0
   31.7440   28.1120   47.4700 C   0  0  0  0  0  0  0  0  0  0  0  0
   32.7130   28.0440   48.1560 N   0  0  0  0  0  0  0  0  0  0  0  0
   34.6620   30.3690   46.7380 H   0  0  0  0  0  0  0  0  0  0  0  0
   30.3830   27.5920   47.2070 C   0  0  0  0  0  0  0  0  0  0  0  0
   29.8640   27.3120   45.9980 N   0  0  0  0  0  0  0  0  0  0  0  0
   28.6200   26.8420   45.8260 C   0  0  0  0  0  3  0  0  0  0  0  0
   27.8130   26.6220   46.8720 N   0  0  0  0  0  0  0  0  0  0  0  0
   28.2430   26.8720   48.1210 C   0  0  0  0  0  0  0  0  0  0  0  0
   27.3930   26.6380   49.1790 C   0  0  0  0  0  3  0  0  0  0  0  0
   27.8450   26.9000   50.4620 C   0  0  0  0  0  0  0  0  0  0  0  0
   27.1660   26.7100   51.2820 H   0  0  0  0  0  0  0  0  0  0  0  0
   29.1490   27.3890   50.6020 C   0  0  0  0  0  0  0  0  0  0  0  0
   29.3820   27.5530   51.6530 H   0  0  0  0  0  0  0  0  0  0  0  0
   29.9670   27.6100   49.5150 C   0  0  0  0  0  3  0  0  0  0  0  0
   29.5270   27.3550   48.2560 C   0  0  0  0  0  0  0  0  0  0  0  0
   35.0030   28.6190   48.9400 C   0  0  0  0  0  0  0  0  0  0  0  0
   35.9320   28.4760   48.3130 H   0  0  0  0  0  0  0  0  0  0  0  0
   34.9440   27.6840   49.5350 H   0  0  0  0  0  0  0  0  0  0  0  0
   35.1900   29.7890   49.8270 C   0  0  0  0  0  0  0  0  0  0  0  0
   34.2780   30.4220   49.9530 H   0  0  0  0  0  0  0  0  0  0  0  0
   35.4680   29.4530   50.8680 H   0  0  0  0  0  0  0  0  0  0  0  0
   37.6850   32.5040   49.4930 C   0  0  0  0  0  0  0  0  0  0  0  0
   38.5150   32.0420   48.4740 C   0  0  0  0  0  0  0  0  0  0  0  0
   38.2050   30.7980   47.9140 C   0  0  0  0  0  0  0  0  0  0  0  0
   37.1350   30.1010   48.3670 N   0  0  0  0  0  0  0  0  0  0  0  0
   36.3620   30.6120   49.3690 C   0  0  0  0  0  0  0  0  0  0  0  0
   36.6340   31.7940   49.9210 N   0  0  0  0  0  0  0  0  0  0  0  0
   37.8830   33.4610   49.9580 H   0  0  0  0  0  0  0  0  0  0  0  0
   39.3650   32.6120   48.1250 H   0  0  0  0  0  0  0  0  0  0  0  0
   38.8090   30.4040   47.1330 H   0  0  0  0  0  0  0  0  0  0  0  0
  1  5  1  0  0  0  0
  1 19  1  0  0  0  0
  2  1  2  0  0  0  0
  3  2  1  0  0  0  0
  3  4  1  0  0  0  0
  4  5  2  0  0  0  0
  6  2  1  0  0  0  0
  7  4  1  0  0  0  0
  7 18  1  0  0  0  0
  8  7  2  0  0  0  0
  9  8  1  0  0  0  0
  9 10  2  0  0  0  0
 10 11  1  0  0  0  0
 11 18  2  0  0  0  0
 11 12  1  0  0  0  0
 12 13  2  0  0  0  0
 13 15  1  0  0  0  0
 13 14  1  0  0  0  0
 15 16  1  0  0  0  0
 17 15  2  0  0  0  0
 18 17  1  0  0  0  0
 19 21  1  0  0  0  0
 19 22  1  0  0  0  0
 20 19  1  0  0  0  0
 22 23  1  0  0  0  0
 22 24  1  0  0  0  0
 25 30  1  0  0  0  0
 25 31  1  0  0  0  0
 26 25  2  0  0  0  0
 27 28  2  0  0  0  0
 27 26  1  0  0  0  0
 28 29  1  0  0  0  0
 29 22  1  0  0  0  0
 29 30  2  0  0  0  0
 32 26  1  0  0  0  0
 33 27  1  0  0  0  0
M  END
>  <minimizedAffinity>
-5.98853683

>  <minimizedRMSD>
1.75159132

$$$$
