
 OpenBabel03272506063D

 33 36  0  0  0  0  0  0  0  0999 V2000
   32.6950   27.7870   48.4120 C   0  0  0  0  0  0  0  0  0  0  0  0
   32.4450   26.7190   47.4750 C   0  0  0  0  0  0  0  0  0  0  0  0
   30.7550   26.3450   47.8950 S   0  0  0  0  0  0  0  0  0  0  0  0
   30.6280   27.6460   49.2380 C   0  0  0  0  0  0  0  0  0  0  0  0
   31.7160   28.1230   49.2000 N   0  0  0  0  0  0  0  0  0  0  0  0
   33.1200   26.3110   46.7580 H   0  0  0  0  0  0  0  0  0  0  0  0
   29.2950   27.6710   49.8830 C   0  0  0  0  0  0  0  0  0  0  0  0
   28.9420   27.0000   50.9940 N   0  0  0  0  0  0  0  0  0  0  0  0
   27.7150   27.0640   51.5290 C   0  0  0  0  0  3  0  0  0  0  0  0
   26.7560   27.8170   50.9740 N   0  0  0  0  0  0  0  0  0  0  0  0
   27.0140   28.5250   49.8610 C   0  0  0  0  0  0  0  0  0  0  0  0
   26.0110   29.2910   49.3090 C   0  0  0  0  0  3  0  0  0  0  0  0
   26.2860   30.0170   48.1620 C   0  0  0  0  0  0  0  0  0  0  0  0
   25.4880   30.6120   47.7410 H   0  0  0  0  0  0  0  0  0  0  0  0
   27.5780   29.9240   47.6310 C   0  0  0  0  0  0  0  0  0  0  0  0
   27.6660   30.5370   46.7360 H   0  0  0  0  0  0  0  0  0  0  0  0
   28.5530   29.1440   48.2160 C   0  0  0  0  0  3  0  0  0  0  0  0
   28.2870   28.4310   49.3400 C   0  0  0  0  0  0  0  0  0  0  0  0
   34.0550   28.4190   48.4040 C   0  0  0  0  0  0  0  0  0  0  0  0
   33.9660   29.5090   48.1180 H   0  0  0  0  0  0  0  0  0  0  0  0
   34.6740   27.9860   47.5910 H   0  0  0  0  0  0  0  0  0  0  0  0
   34.7530   28.3130   49.7040 C   0  0  0  0  0  0  0  0  0  0  0  0
   34.0760   28.3200   50.5920 H   0  0  0  0  0  0  0  0  0  0  0  0
   35.3210   27.3400   49.7670 H   0  0  0  0  0  0  0  0  0  0  0  0
   37.4850   30.4530   50.9950 C   0  0  0  0  0  0  0  0  0  0  0  0
   37.7130   31.3370   49.9430 C   0  0  0  0  0  0  0  0  0  0  0  0
   36.9210   31.1850   48.7990 C   0  0  0  0  0  0  0  0  0  0  0  0
   35.9820   30.2090   48.7520 N   0  0  0  0  0  0  0  0  0  0  0  0
   35.8100   29.3760   49.8200 C   0  0  0  0  0  0  0  0  0  0  0  0
   36.5500   29.4980   50.9210 N   0  0  0  0  0  0  0  0  0  0  0  0
   38.0710   30.5300   51.9010 H   0  0  0  0  0  0  0  0  0  0  0  0
   38.4670   32.1110   49.9980 H   0  0  0  0  0  0  0  0  0  0  0  0
   37.0580   31.8370   47.9700 H   0  0  0  0  0  0  0  0  0  0  0  0
  1  5  1  0  0  0  0
  2  3  1  0  0  0  0
  2  1  2  0  0  0  0
  3  4  1  0  0  0  0
  4  7  1  0  0  0  0
  5  4  2  0  0  0  0
  6  2  1  0  0  0  0
  7  8  1  0  0  0  0
  8  9  2  0  0  0  0
 10  9  1  0  0  0  0
 11 10  2  0  0  0  0
 12 11  1  0  0  0  0
 13 12  2  0  0  0  0
 14 13  1  0  0  0  0
 15 13  1  0  0  0  0
 15 17  2  0  0  0  0
 16 15  1  0  0  0  0
 17 18  1  0  0  0  0
 18 11  1  0  0  0  0
 18  7  2  0  0  0  0
 19  1  1  0  0  0  0
 19 22  1  0  0  0  0
 20 19  1  0  0  0  0
 21 19  1  0  0  0  0
 22 24  1  0  0  0  0
 22 29  1  0  0  0  0
 22 23  1  0  0  0  0
 25 31  1  0  0  0  0
 26 32  1  0  0  0  0
 26 25  2  0  0  0  0
 27 26  1  0  0  0  0
 28 27  2  0  0  0  0
 28 29  1  0  0  0  0
 29 30  2  0  0  0  0
 30 25  1  0  0  0  0
 33 27  1  0  0  0  0
M  END
>  <minimizedAffinity>
-6.75681639

>  <minimizedRMSD>
2.93569255

$$$$
