
 OpenBabel03272503343D

 44 48  0  0  1  0  0  0  0  0999 V2000
   35.1860   29.5410   47.2290 C   0  0  0  0  0  0  0  0  0  0  0  0
   35.3850   30.2170   46.0150 C   0  0  0  0  0  0  0  0  0  0  0  0
   34.4550   29.9770   44.9970 C   0  0  0  0  0  0  0  0  0  0  0  0
   33.4230   29.1010   45.2660 N   0  0  0  0  0  0  0  0  0  0  0  0
   33.2800   28.4840   46.4370 C   0  0  0  0  0  0  0  0  0  0  0  0
   34.1600   28.6970   47.4330 N   0  0  0  0  0  0  0  0  0  0  0  0
   36.1790   30.8910   45.8070 H   0  0  0  0  0  0  0  0  0  0  0  0
   34.5240   30.4470   44.0360 H   0  0  0  0  0  0  0  0  0  0  0  0
   36.1410   29.7850   48.2780 N   0  0  0  0  0  0  0  0  0  0  0  0
   37.4230   30.4090   48.1430 C   0  0  0  0  0  0  0  0  0  0  0  0
   37.6260   31.0320   49.5260 C   0  0  2  0  0  0  0  0  0  0  0  0
   36.3310   30.7970   50.2960 C   0  0  0  0  0  0  0  0  0  0  0  0
   35.9860   29.4440   49.6800 C   0  0  0  0  0  0  0  0  0  0  0  0
   37.4690   31.1640   47.3500 H   0  0  0  0  0  0  0  0  0  0  0  0
   38.2010   29.6280   48.0040 H   0  0  0  0  0  0  0  0  0  0  0  0
   38.4310   30.5170   50.0940 H   0  0  0  0  0  0  0  0  0  0  0  0
   35.5430   31.5120   50.0420 H   0  0  0  0  0  0  0  0  0  0  0  0
   36.5310   30.7240   51.3670 H   0  0  0  0  0  0  0  0  0  0  0  0
   36.7590   28.7320   50.0190 H   0  0  0  0  0  0  0  0  0  0  0  0
   34.9710   29.1760   49.9620 H   0  0  0  0  0  0  0  0  0  0  0  0
   37.9740   32.4900   49.4360 C   0  0  0  0  0  0  0  0  0  0  0  0
   36.9100   33.1810   49.9840 F   0  0  0  0  0  0  0  0  0  0  0  0
   38.0160   32.8330   48.1060 F   0  0  0  0  0  0  0  0  0  0  0  0
   39.1550   32.8020   50.0630 F   0  0  0  0  0  0  0  0  0  0  0  0
   31.9250   27.3670   46.7090 S   0  0  0  0  0  0  0  0  0  0  0  0
   30.8200   27.7330   47.9280 C   0  0  0  0  0  0  0  0  0  0  0  0
   30.6700   27.7800   49.2790 C   0  0  0  0  0  0  0  0  0  0  0  0
   29.5390   28.1560   49.9490 C   0  0  0  0  0  0  0  0  0  0  0  0
   28.4290   28.5240   49.0370 C   0  0  0  0  0  0  0  0  0  0  0  0
   29.1300   28.2970   47.3790 S   0  0  0  0  0  0  0  0  0  0  0  0
   31.6080   27.4690   49.7160 H   0  0  0  0  0  0  0  0  0  0  0  0
   29.5540   28.1810   51.0030 H   0  0  0  0  0  0  0  0  0  0  0  0
   27.1520   29.0210   49.2520 C   0  0  0  0  0  0  0  0  0  0  0  0
   26.3530   28.2560   50.0640 N   0  0  0  0  0  0  0  0  0  0  0  0
   25.0600   28.5190   50.2960 C   0  0  0  0  0  3  0  0  0  0  0  0
   24.4260   29.5690   49.7450 N   0  0  0  0  0  0  0  0  0  0  0  0
   25.1090   30.3900   48.9330 C   0  0  0  0  0  0  0  0  0  0  0  0
   24.5730   31.5140   48.3380 C   0  0  0  0  0  3  0  0  0  0  0  0
   25.3290   32.3640   47.5250 C   0  0  0  0  0  0  0  0  0  0  0  0
   24.8390   33.2320   47.0890 H   0  0  0  0  0  0  0  0  0  0  0  0
   26.6740   32.0200   47.3410 C   0  0  0  0  0  0  0  0  0  0  0  0
   27.2190   32.7050   46.7090 H   0  0  0  0  0  0  0  0  0  0  0  0
   27.1700   30.8970   47.9470 C   0  0  0  0  0  3  0  0  0  0  0  0
   26.4290   30.0660   48.7380 C   0  0  0  0  0  0  0  0  0  0  0  0
  1  6  1  0  0  0  0
  1  9  1  0  0  0  0
  2  1  2  0  0  0  0
  3  4  2  0  0  0  0
  3  2  1  0  0  0  0
  4  5  1  0  0  0  0
  5 25  1  0  0  0  0
  5  6  2  0  0  0  0
  7  2  1  0  0  0  0
  8  3  1  0  0  0  0
  9 13  1  0  0  0  0
 10  9  1  0  0  0  0
 10 11  1  0  0  0  0
 11 16  1  1  0  0  0
 11 12  1  0  0  0  0
 12 18  1  0  0  0  0
 13 20  1  0  0  0  0
 13 19  1  0  0  0  0
 13 12  1  0  0  0  0
 14 10  1  0  0  0  0
 15 10  1  0  0  0  0
 17 12  1  0  0  0  0
 21 11  1  0  0  0  0
 21 22  1  0  0  0  0
 21 24  1  0  0  0  0
 23 21  1  0  0  0  0
 25 26  1  0  0  0  0
 26 27  2  0  0  0  0
 27 31  1  0  0  0  0
 27 28  1  0  0  0  0
 28 32  1  0  0  0  0
 29 33  1  0  0  0  0
 29 28  2  0  0  0  0
 30 26  1  0  0  0  0
 30 29  1  0  0  0  0
 33 34  1  0  0  0  0
 34 35  2  0  0  0  0
 36 35  1  0  0  0  0
 37 36  2  0  0  0  0
 38 37  1  0  0  0  0
 39 38  2  0  0  0  0
 40 39  1  0  0  0  0
 41 39  1  0  0  0  0
 41 43  2  0  0  0  0
 42 41  1  0  0  0  0
 43 44  1  0  0  0  0
 44 37  1  0  0  0  0
 44 33  2  0  0  0  0
M  END
>  <minimizedAffinity>
-6.88712358

>  <minimizedRMSD>
1.3210597

$$$$
