
 OpenBabel03262520283D

 23 25  0  0  1  0  0  0  0  0999 V2000
   34.2480   30.2240   47.7760 C   0  0  1  0  0  0  0  0  0  0  0  0
   33.4740   30.4660   46.8650 N   0  0  0  0  0  0  0  0  0  0  0  0
   32.7140   30.7770   45.9620 C   0  0  0  0  0  0  0  0  0  0  0  0
   32.3270   29.5230   45.7180 N   0  0  0  0  0  0  0  0  0  0  0  0
   32.8720   28.5290   46.4860 C   0  0  0  0  0  0  0  0  0  0  0  0
   32.3630   27.2520   46.1080 C   0  0  0  0  0  0  0  0  0  0  0  0
   32.8520   26.1950   46.8190 C   0  0  0  0  0  0  0  0  0  0  0  0
   32.4550   25.2510   46.5140 H   0  0  0  0  0  0  0  0  0  0  0  0
   33.7680   26.2740   47.8390 C   0  0  0  0  0  0  0  0  0  0  0  0
   34.1590   25.4690   48.4060 H   0  0  0  0  0  0  0  0  0  0  0  0
   34.1460   27.5790   48.0660 C   0  0  0  0  0  0  0  0  0  0  0  0
   33.8220   28.8550   47.5070 C   0  0  0  0  0  0  0  0  0  0  0  0
   36.5370   29.4590   50.6230 C   0  0  0  0  0  0  0  0  0  0  0  0
   37.6920   29.9070   49.9900 C   0  0  0  0  0  0  0  0  0  0  0  0
   37.5070   30.3870   48.7080 C   0  0  0  0  0  0  0  0  0  0  0  0
   36.2460   30.3800   48.1960 N   0  0  0  0  0  0  0  0  0  0  0  0
   35.1570   29.9380   48.8430 C   0  0  0  0  0  0  0  0  0  0  0  0
   35.3690   29.5000   50.0310 N   0  0  0  0  0  0  0  0  0  0  0  0
   38.6800   30.8500   48.0180 N   0  0  0  0  0  0  0  0  0  0  0  0
   36.4740   29.0460   51.6210 H   0  0  0  0  0  0  0  0  0  0  0  0
   38.6120   29.8380   50.5420 H   0  0  0  0  0  0  0  0  0  0  0  0
   39.2490   30.2330   47.3630 H   0  0  0  0  0  0  0  0  0  0  0  0
   39.2560   31.7130   47.9250 H   0  0  0  0  0  0  0  0  0  0  0  0
  1 17  1  6  0  0  0
  2  1  1  0  0  0  0
  3  2  1  0  0  0  0
  4  3  1  0  0  0  0
  4  5  1  0  0  0  0
  5 12  1  0  0  0  0
  6  5  2  0  0  0  0
  6  7  1  0  0  0  0
  7  9  2  0  0  0  0
  8  7  1  0  0  0  0
  9 11  1  0  0  0  0
  9 10  1  0  0  0  0
 12  1  1  0  0  0  0
 12 11  2  0  0  0  0
 13 20  1  0  0  0  0
 14 21  1  0  0  0  0
 14 13  2  0  0  0  0
 15 14  1  0  0  0  0
 16 15  2  0  0  0  0
 16 17  1  0  0  0  0
 17 18  2  0  0  0  0
 18 13  1  0  0  0  0
 19 15  1  0  0  0  0
 22 19  1  0  0  0  0
 23 19  1  0  0  0  0
M  END
>  <minimizedAffinity>
-4.99403048

>  <minimizedRMSD>
3.10455632

$$$$
