
 OpenBabel03272509083D

 43 47  0  0  0  0  0  0  0  0999 V2000
   33.5960   26.9130   46.9380 C   0  0  0  0  0  0  0  0  0  0  0  0
   33.7320   25.6140   47.3580 C   0  0  0  0  0  0  0  0  0  0  0  0
   34.1290   24.6300   46.4830 C   0  0  0  0  0  0  0  0  0  0  0  0
   34.4040   24.9190   45.1500 C   0  0  0  0  0  0  0  0  0  0  0  0
   34.2680   26.2110   44.7330 C   0  0  0  0  0  0  0  0  0  0  0  0
   33.8710   27.2110   45.5970 C   0  0  0  0  0  0  0  0  0  0  0  0
   33.5020   25.4680   48.4100 H   0  0  0  0  0  0  0  0  0  0  0  0
   34.1950   23.6600   46.9430 H   0  0  0  0  0  0  0  0  0  0  0  0
   34.7040   24.0470   44.5900 H   0  0  0  0  0  0  0  0  0  0  0  0
   34.5040   26.3430   43.6830 H   0  0  0  0  0  0  0  0  0  0  0  0
   33.8340   28.5220   44.9420 C   0  0  0  0  0  0  0  0  0  0  0  0
   34.9500   29.2510   44.8420 N   0  0  0  0  0  0  0  0  0  0  0  0
   35.0400   30.4530   44.2830 C   0  0  0  0  0  3  0  0  0  0  0  0
   33.8990   30.9670   43.7800 N   0  0  0  0  0  0  0  0  0  0  0  0
   32.7290   30.3110   43.8350 C   0  0  0  0  0  0  0  0  0  0  0  0
   31.5910   30.9250   43.2990 C   0  0  0  0  0  3  0  0  0  0  0  0
   30.4530   30.1600   43.4250 C   0  0  0  0  0  0  0  0  0  0  0  0
   29.5540   30.6320   43.0090 H   0  0  0  0  0  0  0  0  0  0  0  0
   30.3110   28.9240   43.9900 C   0  0  0  0  0  0  0  0  0  0  0  0
   29.3500   28.4260   44.0230 H   0  0  0  0  0  0  0  0  0  0  0  0
   31.4810   28.3640   44.5070 C   0  0  0  0  0  3  0  0  0  0  0  0
   32.6620   29.0520   44.4270 C   0  0  0  0  0  0  0  0  0  0  0  0
   33.1630   28.0700   47.7890 C   0  0  0  0  0  0  0  0  0  0  0  0
   32.5210   27.6440   48.5850 H   0  0  0  0  0  0  0  0  0  0  0  0
   32.5350   28.7410   47.1850 H   0  0  0  0  0  0  0  0  0  0  0  0
   34.9910   28.3980   49.4710 C   0  0  0  0  0  3  0  0  0  0  0  0
   34.2830   28.7740   48.4420 C   0  0  0  0  0  3  0  0  0  0  0  0
   37.4030   30.1580   51.5730 C   0  0  0  0  0  0  0  0  0  0  0  0
   38.1040   30.9180   50.6250 C   0  0  0  0  0  0  0  0  0  0  0  0
   37.7280   30.8130   49.2730 C   0  0  0  0  0  0  0  0  0  0  0  0
   36.6880   29.9630   48.9570 N   0  0  0  0  0  0  0  0  0  0  0  0
   36.0610   29.2620   49.9330 C   0  0  0  0  0  0  0  0  0  0  0  0
   36.4070   29.3570   51.2050 N   0  0  0  0  0  0  0  0  0  0  0  0
   37.7510   30.2930   52.6070 H   0  0  0  0  0  0  0  0  0  0  0  0
   38.9330   31.6020   50.8410 H   0  0  0  0  0  0  0  0  0  0  0  0
   38.3750   31.5590   48.2020 C   0  0  0  0  0  0  0  0  0  0  0  0
   38.5780   31.0270   46.9390 C   0  0  0  0  0  0  0  0  0  0  0  0
   39.2190   32.0220   46.1770 C   0  0  0  0  0  0  0  0  0  0  0  0
   39.3750   33.0950   46.9910 N   0  0  0  0  0  0  0  0  0  0  0  0
   38.8740   32.8120   48.1870 N   0  0  0  0  0  0  0  0  0  0  0  0
   38.3420   30.0760   46.5090 H   0  0  0  0  0  0  0  0  0  0  0  0
   39.5480   32.0100   45.1500 H   0  0  0  0  0  0  0  0  0  0  0  0
   39.8020   34.0500   46.8360 H   0  0  0  0  0  0  0  0  0  0  0  0
  1  2  1  0  0  0  0
  1 23  1  0  0  0  0
  2  7  1  0  0  0  0
  3  8  1  0  0  0  0
  3  2  2  0  0  0  0
  4  3  1  0  0  0  0
  5  4  2  0  0  0  0
  5  6  1  0  0  0  0
  6  1  2  0  0  0  0
  9  4  1  0  0  0  0
 10  5  1  0  0  0  0
 11  6  1  0  0  0  0
 12 11  1  0  0  0  0
 13 12  2  0  0  0  0
 14 15  2  0  0  0  0
 14 13  1  0  0  0  0
 15 22  1  0  0  0  0
 16 17  2  0  0  0  0
 16 15  1  0  0  0  0
 17 19  1  0  0  0  0
 18 17  1  0  0  0  0
 19 20  1  0  0  0  0
 19 21  2  0  0  0  0
 22 21  1  0  0  0  0
 22 11  2  0  0  0  0
 23 27  1  0  0  0  0
 23 24  1  0  0  0  0
 25 23  1  0  0  0  0
 26 32  1  0  0  0  0
 27 26  2  0  0  0  0
 28 34  1  0  0  0  0
 29 35  1  0  0  0  0
 29 28  2  0  0  0  0
 30 29  1  0  0  0  0
 31 30  2  0  0  0  0
 31 32  1  0  0  0  0
 32 33  2  0  0  0  0
 33 28  1  0  0  0  0
 36 30  1  0  0  0  0
 37 36  1  0  0  0  0
 38 37  2  0  0  0  0
 38 39  1  0  0  0  0
 39 40  1  0  0  0  0
 40 36  2  0  0  0  0
 41 37  1  0  0  0  0
 42 38  1  0  0  0  0
 43 39  1  0  0  0  0
M  END
>  <minimizedAffinity>
-6.56696081

>  <minimizedRMSD>
0.827359617

$$$$
