
 OpenBabel03272503333D

 44 48  0  0  1  0  0  0  0  0999 V2000
   34.8750   29.4120   47.8810 C   0  0  0  0  0  0  0  0  0  0  0  0
   34.5960   30.2840   46.8170 C   0  0  0  0  0  0  0  0  0  0  0  0
   33.4230   30.0450   46.0930 C   0  0  0  0  0  0  0  0  0  0  0  0
   32.6370   28.9780   46.4810 N   0  0  0  0  0  0  0  0  0  0  0  0
   32.9480   28.1790   47.5000 C   0  0  0  0  0  0  0  0  0  0  0  0
   34.0710   28.3870   48.2130 N   0  0  0  0  0  0  0  0  0  0  0  0
   35.2000   31.1050   46.5180 H   0  0  0  0  0  0  0  0  0  0  0  0
   33.1260   30.6570   45.2640 H   0  0  0  0  0  0  0  0  0  0  0  0
   36.0810   29.6540   48.6280 N   0  0  0  0  0  0  0  0  0  0  0  0
   37.2370   30.3720   48.1800 C   0  0  0  0  0  0  0  0  0  0  0  0
   37.8050   30.9190   49.4910 C   0  0  2  0  0  0  0  0  0  0  0  0
   36.8030   30.5500   50.5800 C   0  0  0  0  0  0  0  0  0  0  0  0
   36.3580   29.2180   49.9840 C   0  0  0  0  0  0  0  0  0  0  0  0
   37.0150   31.1760   47.4690 H   0  0  0  0  0  0  0  0  0  0  0  0
   37.9770   29.6560   47.7620 H   0  0  0  0  0  0  0  0  0  0  0  0
   38.7640   30.4260   49.7610 H   0  0  0  0  0  0  0  0  0  0  0  0
   35.9430   31.2240   50.6200 H   0  0  0  0  0  0  0  0  0  0  0  0
   37.3100   30.4240   51.5380 H   0  0  0  0  0  0  0  0  0  0  0  0
   37.2290   28.5400   50.0290 H   0  0  0  0  0  0  0  0  0  0  0  0
   35.4830   28.8640   50.5230 H   0  0  0  0  0  0  0  0  0  0  0  0
   38.0430   32.4010   49.4210 C   0  0  0  0  0  0  0  0  0  0  0  0
   36.9270   33.0030   49.9700 F   0  0  0  0  0  0  0  0  0  0  0  0
   38.0660   32.7620   48.0950 F   0  0  0  0  0  0  0  0  0  0  0  0
   39.1930   32.7930   50.0590 F   0  0  0  0  0  0  0  0  0  0  0  0
   31.8870   26.8230   47.9400 S   0  0  0  0  0  0  0  0  0  0  0  0
   30.5060   27.1510   48.8480 C   0  0  0  0  0  0  0  0  0  0  0  0
   29.9170   26.9130   50.0510 C   0  0  0  0  0  0  0  0  0  0  0  0
   28.6990   27.3850   50.4560 C   0  0  0  0  0  0  0  0  0  0  0  0
   28.0360   28.2180   49.4240 C   0  0  0  0  0  0  0  0  0  0  0  0
   29.2120   28.2230   48.0420 S   0  0  0  0  0  0  0  0  0  0  0  0
   30.5900   26.2880   50.6190 H   0  0  0  0  0  0  0  0  0  0  0  0
   28.3600   27.1570   51.4270 H   0  0  0  0  0  0  0  0  0  0  0  0
   26.8560   28.9470   49.4080 C   0  0  0  0  0  0  0  0  0  0  0  0
   25.8290   28.4190   50.1490 N   0  0  0  0  0  0  0  0  0  0  0  0
   24.5880   28.9240   50.1660 C   0  0  0  0  0  3  0  0  0  0  0  0
   24.2390   30.0060   49.4500 N   0  0  0  0  0  0  0  0  0  0  0  0
   25.1630   30.6100   48.6880 C   0  0  0  0  0  0  0  0  0  0  0  0
   24.9290   31.7440   47.9370 C   0  0  0  0  0  3  0  0  0  0  0  0
   25.9300   32.3630   47.1840 C   0  0  0  0  0  0  0  0  0  0  0  0
   25.6710   33.2560   46.6150 H   0  0  0  0  0  0  0  0  0  0  0  0
   27.2000   31.7750   47.2280 C   0  0  0  0  0  0  0  0  0  0  0  0
   27.9410   32.2880   46.6330 H   0  0  0  0  0  0  0  0  0  0  0  0
   27.3950   30.6510   47.9830 C   0  0  0  0  0  3  0  0  0  0  0  0
   26.4140   30.0440   48.7160 C   0  0  0  0  0  0  0  0  0  0  0  0
  1  6  1  0  0  0  0
  1  9  1  0  0  0  0
  2  1  2  0  0  0  0
  3  4  2  0  0  0  0
  3  2  1  0  0  0  0
  4  5  1  0  0  0  0
  5 25  1  0  0  0  0
  5  6  2  0  0  0  0
  7  2  1  0  0  0  0
  8  3  1  0  0  0  0
  9 13  1  0  0  0  0
 10  9  1  0  0  0  0
 10 11  1  0  0  0  0
 11 16  1  1  0  0  0
 11 12  1  0  0  0  0
 12 17  1  0  0  0  0
 12 18  1  0  0  0  0
 13 19  1  0  0  0  0
 13 20  1  0  0  0  0
 13 12  1  0  0  0  0
 14 10  1  0  0  0  0
 15 10  1  0  0  0  0
 21 11  1  0  0  0  0
 21 22  1  0  0  0  0
 21 24  1  0  0  0  0
 23 21  1  0  0  0  0
 25 26  1  0  0  0  0
 26 27  2  0  0  0  0
 27 28  1  0  0  0  0
 27 31  1  0  0  0  0
 28 32  1  0  0  0  0
 29 28  2  0  0  0  0
 30 26  1  0  0  0  0
 30 29  1  0  0  0  0
 33 29  1  0  0  0  0
 33 34  1  0  0  0  0
 34 35  2  0  0  0  0
 36 35  1  0  0  0  0
 37 44  1  0  0  0  0
 37 36  2  0  0  0  0
 38 37  1  0  0  0  0
 39 41  1  0  0  0  0
 39 38  2  0  0  0  0
 40 39  1  0  0  0  0
 41 43  2  0  0  0  0
 42 41  1  0  0  0  0
 43 44  1  0  0  0  0
 44 33  2  0  0  0  0
M  END
>  <minimizedAffinity>
-6.83030605

>  <minimizedRMSD>
1.09949124

$$$$
