
 OpenBabel03272503343D

 44 48  0  0  1  0  0  0  0  0999 V2000
   35.6540   29.7390   47.7470 C   0  0  0  0  0  0  0  0  0  0  0  0
   35.7970   30.2740   46.4570 C   0  0  0  0  0  0  0  0  0  0  0  0
   34.9170   29.8040   45.4760 C   0  0  0  0  0  0  0  0  0  0  0  0
   33.9840   28.8580   45.8520 N   0  0  0  0  0  0  0  0  0  0  0  0
   33.8910   28.3830   47.0920 C   0  0  0  0  0  0  0  0  0  0  0  0
   34.7240   28.8170   48.0550 N   0  0  0  0  0  0  0  0  0  0  0  0
   36.5150   31.0010   46.1680 H   0  0  0  0  0  0  0  0  0  0  0  0
   34.9500   30.1530   44.4630 H   0  0  0  0  0  0  0  0  0  0  0  0
   36.5570   30.2190   48.7600 N   0  0  0  0  0  0  0  0  0  0  0  0
   37.9120   30.6420   48.5690 C   0  0  0  0  0  0  0  0  0  0  0  0
   38.0950   31.6580   49.6990 C   0  0  2  0  0  0  0  0  0  0  0  0
   36.7320   31.8100   50.3640 C   0  0  0  0  0  0  0  0  0  0  0  0
   36.2660   30.3690   50.1740 C   0  0  0  0  0  0  0  0  0  0  0  0
   38.1050   31.0900   47.5880 H   0  0  0  0  0  0  0  0  0  0  0  0
   38.5960   29.7880   48.7660 H   0  0  0  0  0  0  0  0  0  0  0  0
   38.7900   31.2820   50.4800 H   0  0  0  0  0  0  0  0  0  0  0  0
   36.0560   32.4740   49.8160 H   0  0  0  0  0  0  0  0  0  0  0  0
   36.8470   32.0700   51.4180 H   0  0  0  0  0  0  0  0  0  0  0  0
   36.9200   29.7360   50.7980 H   0  0  0  0  0  0  0  0  0  0  0  0
   35.2090   30.3030   50.4180 H   0  0  0  0  0  0  0  0  0  0  0  0
   38.6250   32.9680   49.1900 C   0  0  0  0  0  0  0  0  0  0  0  0
   37.5300   33.7930   49.0180 F   0  0  0  0  0  0  0  0  0  0  0  0
   39.1500   32.7540   47.9390 F   0  0  0  0  0  0  0  0  0  0  0  0
   39.5560   33.5330   50.0250 F   0  0  0  0  0  0  0  0  0  0  0  0
   32.6630   27.1640   47.5000 S   0  0  0  0  0  0  0  0  0  0  0  0
   31.0470   27.5190   47.1820 C   0  0  0  0  0  0  0  0  0  0  0  0
   29.7930   26.9940   47.2190 C   0  0  0  0  0  0  0  0  0  0  0  0
   28.6420   27.6360   46.8530 C   0  0  0  0  0  0  0  0  0  0  0  0
   28.8840   29.0230   46.3860 C   0  0  0  0  0  0  0  0  0  0  0  0
   30.6810   29.2270   46.5290 S   0  0  0  0  0  0  0  0  0  0  0  0
   29.8800   25.9840   47.5910 H   0  0  0  0  0  0  0  0  0  0  0  0
   27.7220   27.1340   46.9560 H   0  0  0  0  0  0  0  0  0  0  0  0
   28.0410   30.0510   45.9910 C   0  0  0  0  0  0  0  0  0  0  0  0
   28.1760   30.4550   44.6860 N   0  0  0  0  0  0  0  0  0  0  0  0
   27.5250   31.5010   44.1610 C   0  0  0  0  0  3  0  0  0  0  0  0
   26.6720   32.2550   44.8760 N   0  0  0  0  0  0  0  0  0  0  0  0
   26.4580   31.9530   46.1650 C   0  0  0  0  0  0  0  0  0  0  0  0
   25.5830   32.6330   46.9860 C   0  0  0  0  0  3  0  0  0  0  0  0
   25.3620   32.2630   48.3160 C   0  0  0  0  0  0  0  0  0  0  0  0
   24.6560   32.8480   48.9050 H   0  0  0  0  0  0  0  0  0  0  0  0
   26.0770   31.1540   48.7830 C   0  0  0  0  0  0  0  0  0  0  0  0
   25.8740   30.9040   49.8140 H   0  0  0  0  0  0  0  0  0  0  0  0
   26.9380   30.5040   47.9400 C   0  0  0  0  0  3  0  0  0  0  0  0
   27.1550   30.8690   46.6420 C   0  0  0  0  0  0  0  0  0  0  0  0
  1  6  1  0  0  0  0
  1  9  1  0  0  0  0
  2  1  2  0  0  0  0
  3  4  2  0  0  0  0
  3  2  1  0  0  0  0
  4  5  1  0  0  0  0
  5 25  1  0  0  0  0
  5  6  2  0  0  0  0
  7  2  1  0  0  0  0
  8  3  1  0  0  0  0
  9 13  1  0  0  0  0
 10  9  1  0  0  0  0
 10 15  1  0  0  0  0
 10 11  1  0  0  0  0
 11 12  1  0  0  0  0
 11 16  1  1  0  0  0
 12 18  1  0  0  0  0
 13 12  1  0  0  0  0
 13 20  1  0  0  0  0
 13 19  1  0  0  0  0
 14 10  1  0  0  0  0
 17 12  1  0  0  0  0
 21 11  1  0  0  0  0
 21 24  1  0  0  0  0
 22 21  1  0  0  0  0
 23 21  1  0  0  0  0
 26 27  2  0  0  0  0
 26 25  1  0  0  0  0
 27 31  1  0  0  0  0
 28 32  1  0  0  0  0
 28 27  1  0  0  0  0
 29 30  1  0  0  0  0
 29 28  2  0  0  0  0
 30 26  1  0  0  0  0
 33 29  1  0  0  0  0
 33 44  1  0  0  0  0
 34 33  2  0  0  0  0
 35 34  1  0  0  0  0
 35 36  2  0  0  0  0
 36 37  1  0  0  0  0
 37 44  2  0  0  0  0
 37 38  1  0  0  0  0
 38 39  2  0  0  0  0
 39 41  1  0  0  0  0
 39 40  1  0  0  0  0
 41 42  1  0  0  0  0
 43 41  2  0  0  0  0
 44 43  1  0  0  0  0
M  END
>  <minimizedAffinity>
-7.0471735

>  <minimizedRMSD>
1.84088814

$$$$
