
 OpenBabel03272500123D

 24 26  0  0  0  0  0  0  0  0999 V2000
   35.5770   29.2790   50.5450 C   0  0  0  0  0  0  0  0  0  0  0  0
   36.1720   30.2480   49.7260 C   0  0  0  0  0  0  0  0  0  0  0  0
   35.5990   30.4730   48.4790 C   0  0  0  0  0  0  0  0  0  0  0  0
   34.5100   29.7500   48.1290 N   0  0  0  0  0  0  0  0  0  0  0  0
   33.9570   28.8360   48.9080 C   0  0  0  0  0  0  0  0  0  0  0  0
   34.4890   28.6070   50.1020 N   0  0  0  0  0  0  0  0  0  0  0  0
   36.0370   29.1180   51.5090 H   0  0  0  0  0  0  0  0  0  0  0  0
   36.0090   31.1930   47.8260 H   0  0  0  0  0  0  0  0  0  0  0  0
   32.7840   27.9590   48.7050 C   0  0  0  0  0  0  0  0  0  0  0  0
   31.5830   28.1550   49.2520 N   0  0  0  0  0  0  0  0  0  0  0  0
   30.5400   27.3500   49.0520 C   0  0  0  0  0  3  0  0  0  0  0  0
   30.5890   26.2540   48.2790 N   0  0  0  0  0  0  0  0  0  0  0  0
   31.7670   25.9890   47.6910 C   0  0  0  0  0  0  0  0  0  0  0  0
   31.8030   24.8710   46.9050 C   0  0  0  0  0  3  0  0  0  0  0  0
   32.9670   24.5230   46.2660 C   0  0  0  0  0  0  0  0  0  0  0  0
   32.9850   23.6430   45.6510 H   0  0  0  0  0  0  0  0  0  0  0  0
   34.0800   25.3510   46.4560 C   0  0  0  0  0  0  0  0  0  0  0  0
   34.9620   25.0300   45.9320 H   0  0  0  0  0  0  0  0  0  0  0  0
   33.9700   26.4510   47.2550 C   0  0  0  0  0  3  0  0  0  0  0  0
   32.8280   26.8400   47.9160 C   0  0  0  0  0  0  0  0  0  0  0  0
   37.3710   30.9860   50.2350 C   0  0  0  0  0  0  0  0  0  0  0  0
   38.4500   30.8320   49.3750 F   0  0  0  0  0  0  0  0  0  0  0  0
   37.0410   32.3360   50.2650 F   0  0  0  0  0  0  0  0  0  0  0  0
   37.7300   30.5790   51.4980 F   0  0  0  0  0  0  0  0  0  0  0  0
  1  7  1  0  0  0  0
  2 21  1  0  0  0  0
  2  1  2  0  0  0  0
  3  2  1  0  0  0  0
  4  3  2  0  0  0  0
  4  5  1  0  0  0  0
  5  6  2  0  0  0  0
  6  1  1  0  0  0  0
  8  3  1  0  0  0  0
  9  5  1  0  0  0  0
  9 10  1  0  0  0  0
 11 10  2  0  0  0  0
 12 11  1  0  0  0  0
 13 20  1  0  0  0  0
 13 12  2  0  0  0  0
 14 13  1  0  0  0  0
 15 17  1  0  0  0  0
 15 14  2  0  0  0  0
 16 15  1  0  0  0  0
 17 19  2  0  0  0  0
 18 17  1  0  0  0  0
 19 20  1  0  0  0  0
 20  9  2  0  0  0  0
 21 23  1  0  0  0  0
 21 24  1  0  0  0  0
 22 21  1  0  0  0  0
M  END
>  <minimizedAffinity>
-5.5745182

>  <minimizedRMSD>
1.8124249

$$$$
