
 OpenBabel03272507133D

 43 48  0  0  0  0  0  0  0  0999 V2000
   37.3960   30.0920   49.3170 C   0  0  0  0  0  0  0  0  0  0  0  0
   38.1760   29.9360   50.2950 O   0  0  0  0  0  0  0  0  0  0  0  0
   37.7570   30.8450   48.1330 C   0  0  0  0  0  0  0  0  0  0  0  0
   38.6320   31.8940   48.2670 C   0  0  0  0  0  0  0  0  0  0  0  0
   38.9930   32.6110   47.1420 C   0  0  0  0  0  0  0  0  0  0  0  0
   38.4590   32.2380   45.9650 N   0  0  0  0  0  0  0  0  0  0  0  0
   37.6090   31.2250   45.8160 C   0  0  0  0  0  0  0  0  0  0  0  0
   37.2880   30.5590   46.9330 N   0  0  0  0  0  0  0  0  0  0  0  0
   39.0700   32.2090   49.1990 H   0  0  0  0  0  0  0  0  0  0  0  0
   39.6550   33.4380   47.1070 H   0  0  0  0  0  0  0  0  0  0  0  0
   36.9160   30.6580   44.6400 C   0  0  0  0  0  0  0  0  0  0  0  0
   35.6430   30.9130   44.3240 N   0  0  0  0  0  0  0  0  0  0  0  0
   35.0580   30.3800   43.2550 C   0  0  0  0  0  3  0  0  0  0  0  0
   35.6710   29.5510   42.4040 N   0  0  0  0  0  0  0  0  0  0  0  0
   36.9600   29.2370   42.6460 C   0  0  0  0  0  0  0  0  0  0  0  0
   37.5930   28.3850   41.7740 C   0  0  0  0  0  3  0  0  0  0  0  0
   38.9080   28.0430   41.9890 C   0  0  0  0  0  0  0  0  0  0  0  0
   39.3500   27.3790   41.2800 H   0  0  0  0  0  0  0  0  0  0  0  0
   39.5410   28.5830   43.0920 C   0  0  0  0  0  0  0  0  0  0  0  0
   40.5700   28.2840   43.2170 H   0  0  0  0  0  0  0  0  0  0  0  0
   38.8500   29.4310   43.9290 C   0  0  0  0  0  3  0  0  0  0  0  0
   37.5400   29.8030   43.7600 C   0  0  0  0  0  0  0  0  0  0  0  0
   36.0720   29.4970   49.3590 C   0  0  0  0  0  0  0  0  0  0  0  0
   35.2100   29.7330   50.3810 C   0  0  0  0  0  0  0  0  0  0  0  0
   34.0440   29.0090   50.1020 C   0  0  0  0  0  0  0  0  0  0  0  0
   34.2830   28.3640   48.8930 C   0  0  0  0  0  0  0  0  0  0  0  0
   35.4950   28.6910   48.5060 O   0  0  0  0  0  0  0  0  0  0  0  0
   35.3590   30.3600   51.2710 H   0  0  0  0  0  0  0  0  0  0  0  0
   33.1790   29.0100   50.7520 H   0  0  0  0  0  0  0  0  0  0  0  0
   33.6500   26.3710   47.5110 C   0  0  0  0  0  0  0  0  0  0  0  0
   33.3130   27.4920   48.2280 C   0  0  0  0  0  0  0  0  0  0  0  0
   31.9890   27.8830   48.3680 C   0  0  0  0  0  0  0  0  0  0  0  0
   30.9990   27.1190   47.7670 C   0  0  0  0  0  0  0  0  0  0  0  0
   29.6750   27.2450   47.7280 N   0  0  0  0  0  0  0  0  0  0  0  0
   29.2040   26.2320   47.0070 N   0  0  0  0  0  0  0  0  0  0  0  0
   30.2190   25.4580   46.5850 C   0  0  0  0  0  0  0  0  0  0  0  0
   31.3980   25.9930   47.0520 C   0  0  0  0  0  0  0  0  0  0  0  0
   32.7270   25.5930   46.9080 C   0  0  0  0  0  0  0  0  0  0  0  0
   34.6990   26.1230   47.4420 H   0  0  0  0  0  0  0  0  0  0  0  0
   31.6330   28.7610   48.9210 H   0  0  0  0  0  0  0  0  0  0  0  0
   29.1010   28.0020   48.1800 H   0  0  0  0  0  0  0  0  0  0  0  0
   30.0880   24.5770   45.9840 H   0  0  0  0  0  0  0  0  0  0  0  0
   32.9500   24.7010   46.3320 H   0  0  0  0  0  0  0  0  0  0  0  0
  1 23  1  0  0  0  0
  1  2  2  0  0  0  0
  3  4  1  0  0  0  0
  3  1  1  0  0  0  0
  4  9  1  0  0  0  0
  5  4  2  0  0  0  0
  6  5  1  0  0  0  0
  7  6  2  0  0  0  0
  7  8  1  0  0  0  0
  8  3  2  0  0  0  0
 10  5  1  0  0  0  0
 11  7  1  0  0  0  0
 12 11  1  0  0  0  0
 13 12  2  0  0  0  0
 14 15  2  0  0  0  0
 14 13  1  0  0  0  0
 15 22  1  0  0  0  0
 16 17  2  0  0  0  0
 16 15  1  0  0  0  0
 17 19  1  0  0  0  0
 18 17  1  0  0  0  0
 19 20  1  0  0  0  0
 19 21  2  0  0  0  0
 22 21  1  0  0  0  0
 22 11  2  0  0  0  0
 23 24  2  0  0  0  0
 24 28  1  0  0  0  0
 25 24  1  0  0  0  0
 25 29  1  0  0  0  0
 26 25  2  0  0  0  0
 27 26  1  0  0  0  0
 27 23  1  0  0  0  0
 30 31  1  0  0  0  0
 31 32  2  0  0  0  0
 31 26  1  0  0  0  0
 32 40  1  0  0  0  0
 33 32  1  0  0  0  0
 34 33  1  0  0  0  0
 34 41  1  0  0  0  0
 35 34  1  0  0  0  0
 36 35  2  0  0  0  0
 36 37  1  0  0  0  0
 37 33  2  0  0  0  0
 38 37  1  0  0  0  0
 38 30  2  0  0  0  0
 39 30  1  0  0  0  0
 42 36  1  0  0  0  0
 43 38  1  0  0  0  0
M  END
>  <minimizedAffinity>
-6.66599274

>  <minimizedRMSD>
1.72549832

$$$$
