
 OpenBabel03272510073D

 33 36  0  0  0  0  0  0  0  0999 V2000
   35.8370   28.9260   49.3700 C   0  0  0  0  0  0  0  0  0  0  0  0
   35.8450   30.0920   48.6000 C   0  0  0  0  0  0  0  0  0  0  0  0
   34.7720   30.3190   47.7010 C   0  0  0  0  0  0  0  0  0  0  0  0
   33.7760   29.3850   47.6270 N   0  0  0  0  0  0  0  0  0  0  0  0
   33.8260   28.2720   48.4010 C   0  0  0  0  0  0  0  0  0  0  0  0
   34.8330   28.0360   49.2630 N   0  0  0  0  0  0  0  0  0  0  0  0
   32.7420   27.3240   48.2690 N   0  0  0  0  0  0  0  0  0  0  0  0
   31.3580   27.6330   48.5450 C   0  0  0  0  0  0  0  0  0  0  0  0
   30.5980   26.4600   48.0270 C   0  0  0  0  0  0  0  0  0  0  0  0
   31.5870   25.6150   47.2390 C   0  0  0  0  0  0  0  0  0  0  0  0
   32.9010   25.9340   47.8430 C   0  0  0  0  0  0  0  0  0  0  0  0
   36.6480   28.7910   50.0490 H   0  0  0  0  0  0  0  0  0  0  0  0
   34.6910   31.1850   47.0680 H   0  0  0  0  0  0  0  0  0  0  0  0
   31.1550   27.7600   49.6290 H   0  0  0  0  0  0  0  0  0  0  0  0
   31.0390   28.5780   48.0580 H   0  0  0  0  0  0  0  0  0  0  0  0
   29.7830   26.7990   47.3650 H   0  0  0  0  0  0  0  0  0  0  0  0
   30.1440   25.8780   48.8580 H   0  0  0  0  0  0  0  0  0  0  0  0
   31.5180   25.8580   46.1540 H   0  0  0  0  0  0  0  0  0  0  0  0
   31.3380   24.5420   47.4310 H   0  0  0  0  0  0  0  0  0  0  0  0
   33.1920   25.2700   48.6650 H   0  0  0  0  0  0  0  0  0  0  0  0
   33.6900   25.8570   47.0410 H   0  0  0  0  0  0  0  0  0  0  0  0
   36.8340   31.1320   48.5610 C   0  0  0  0  0  0  0  0  0  0  0  0
   36.7880   32.0300   49.5720 N   0  0  0  0  0  0  0  0  0  0  0  0
   37.6780   33.0320   49.6010 C   0  0  0  0  0  3  0  0  0  0  0  0
   38.6580   33.2380   48.6740 N   0  0  0  0  0  0  0  0  0  0  0  0
   38.7310   32.3630   47.6530 C   0  0  0  0  0  0  0  0  0  0  0  0
   39.6800   32.4690   46.6350 C   0  0  0  0  0  3  0  0  0  0  0  0
   39.7200   31.5500   45.5840 C   0  0  0  0  0  0  0  0  0  0  0  0
   40.4650   31.6560   44.8090 H   0  0  0  0  0  0  0  0  0  0  0  0
   38.7890   30.5060   45.5550 C   0  0  0  0  0  0  0  0  0  0  0  0
   38.8230   29.7900   44.7310 H   0  0  0  0  0  0  0  0  0  0  0  0
   37.8680   30.4350   46.5790 C   0  0  0  0  0  3  0  0  0  0  0  0
   37.8200   31.3350   47.6210 C   0  0  0  0  0  0  0  0  0  0  0  0
  1 12  1  0  0  0  0
  2  1  2  0  0  0  0
  3  2  1  0  0  0  0
  4  3  2  0  0  0  0
  4  5  1  0  0  0  0
  5  6  2  0  0  0  0
  6  1  1  0  0  0  0
  7  5  1  0  0  0  0
  7  8  1  0  0  0  0
  8 14  1  0  0  0  0
  9  8  1  0  0  0  0
  9 17  1  0  0  0  0
 10 19  1  0  0  0  0
 10 11  1  0  0  0  0
 10  9  1  0  0  0  0
 11  7  1  0  0  0  0
 11 20  1  0  0  0  0
 13  3  1  0  0  0  0
 15  8  1  0  0  0  0
 16  9  1  0  0  0  0
 18 10  1  0  0  0  0
 21 11  1  0  0  0  0
 22  2  1  0  0  0  0
 22 23  1  0  0  0  0
 23 24  2  0  0  0  0
 25 24  1  0  0  0  0
 26 25  2  0  0  0  0
 27 26  1  0  0  0  0
 28 27  2  0  0  0  0
 29 28  1  0  0  0  0
 30 28  1  0  0  0  0
 30 32  2  0  0  0  0
 31 30  1  0  0  0  0
 32 33  1  0  0  0  0
 33 26  1  0  0  0  0
 33 22  2  0  0  0  0
M  END
>  <minimizedAffinity>
-6.49392223

>  <minimizedRMSD>
4.3849659

$$$$
