
 OpenBabel03272503573D

 37 41  0  0  0  0  0  0  0  0999 V2000
   37.2680   30.0310   50.8060 C   0  0  0  0  0  0  0  0  0  0  0  0
   38.1080   30.9340   50.1400 C   0  0  0  0  0  0  0  0  0  0  0  0
   37.7400   31.2840   48.8330 C   0  0  0  0  0  0  0  0  0  0  0  0
   36.6400   30.7300   48.3530 N   0  0  0  0  0  0  0  0  0  0  0  0
   35.8310   29.8840   48.9440 C   0  0  0  0  0  0  0  0  0  0  0  0
   36.2060   29.5760   50.1770 N   0  0  0  0  0  0  0  0  0  0  0  0
   38.9600   31.2970   50.6510 H   0  0  0  0  0  0  0  0  0  0  0  0
   34.5990   29.2290   48.5350 C   0  0  0  0  0  0  0  0  0  0  0  0
   33.7740   28.5920   49.4160 N   0  0  0  0  0  0  0  0  0  0  0  0
   32.6370   28.0170   49.0410 C   0  0  0  0  0  0  0  0  0  0  0  0
   32.1860   28.0020   47.7810 N   0  0  0  0  0  0  0  0  0  0  0  0
   32.9490   28.6140   46.8460 C   0  0  0  0  0  0  0  0  0  0  0  0
   32.5010   28.6040   45.5450 C   0  0  0  0  0  0  0  0  0  0  0  0
   33.2400   29.2080   44.5570 C   0  0  0  0  0  0  0  0  0  0  0  0
   34.4210   29.8030   44.9400 C   0  0  0  0  0  0  0  0  0  0  0  0
   34.8300   29.7870   46.2600 C   0  0  0  0  0  0  0  0  0  0  0  0
   34.1170   29.1980   47.2580 C   0  0  0  0  0  0  0  0  0  0  0  0
   31.9810   27.5040   49.7710 H   0  0  0  0  0  0  0  0  0  0  0  0
   31.5660   28.1300   45.2560 H   0  0  0  0  0  0  0  0  0  0  0  0
   32.9050   29.2110   43.5300 H   0  0  0  0  0  0  0  0  0  0  0  0
   34.9790   30.2700   44.1270 H   0  0  0  0  0  0  0  0  0  0  0  0
   35.7770   30.2730   46.3900 H   0  0  0  0  0  0  0  0  0  0  0  0
   38.6300   32.2500   48.2450 C   0  0  0  0  0  0  0  0  0  0  0  0
   38.9210   33.4120   48.8630 N   0  0  0  0  0  0  0  0  0  0  0  0
   39.7250   34.3590   48.3780 C   0  0  0  0  0  3  0  0  0  0  0  0
   40.3380   34.2450   47.1980 N   0  0  0  0  0  0  0  0  0  0  0  0
   40.1190   33.1220   46.4900 C   0  0  0  0  0  0  0  0  0  0  0  0
   40.7130   32.9570   45.2590 C   0  0  0  0  0  3  0  0  0  0  0  0
   40.5000   31.8430   44.5090 C   0  0  0  0  0  0  0  0  0  0  0  0
   40.9660   31.7130   43.5440 H   0  0  0  0  0  0  0  0  0  0  0  0
   39.6510   30.8570   45.0280 C   0  0  0  0  0  0  0  0  0  0  0  0
   39.4880   29.9770   44.4260 H   0  0  0  0  0  0  0  0  0  0  0  0
   39.0860   31.0740   46.2610 C   0  0  0  0  0  3  0  0  0  0  0  0
   39.2790   32.1820   47.0430 C   0  0  0  0  0  0  0  0  0  0  0  0
   37.5480   29.6100   52.1470 N   0  0  0  0  0  0  0  0  0  0  0  0
   38.0240   28.6740   52.1140 H   0  0  0  0  0  0  0  0  0  0  0  0
   37.3050   30.1710   52.9850 H   0  0  0  0  0  0  0  0  0  0  0  0
  1 35  1  0  0  0  0
  2  7  1  0  0  0  0
  2  1  2  0  0  0  0
  3  2  1  0  0  0  0
  4  3  2  0  0  0  0
  4  5  1  0  0  0  0
  5  6  2  0  0  0  0
  6  1  1  0  0  0  0
  8  5  1  0  0  0  0
  8  9  1  0  0  0  0
 10  9  2  0  0  0  0
 10 18  1  0  0  0  0
 11 10  1  0  0  0  0
 12 17  1  0  0  0  0
 12 11  2  0  0  0  0
 13 12  1  0  0  0  0
 14 15  1  0  0  0  0
 14 13  2  0  0  0  0
 15 16  2  0  0  0  0
 16 22  1  0  0  0  0
 16 17  1  0  0  0  0
 17  8  2  0  0  0  0
 19 13  1  0  0  0  0
 20 14  1  0  0  0  0
 21 15  1  0  0  0  0
 23  3  1  0  0  0  0
 23 24  1  0  0  0  0
 25 24  2  0  0  0  0
 26 25  1  0  0  0  0
 27 34  1  0  0  0  0
 27 26  2  0  0  0  0
 28 27  1  0  0  0  0
 29 31  1  0  0  0  0
 29 28  2  0  0  0  0
 30 29  1  0  0  0  0
 31 33  2  0  0  0  0
 32 31  1  0  0  0  0
 33 34  1  0  0  0  0
 34 23  2  0  0  0  0
 35 37  1  0  0  0  0
 36 35  1  0  0  0  0
M  END
>  <minimizedAffinity>
-7.71590948

>  <minimizedRMSD>
0.953993559

$$$$
