
 OpenBabel03272502073D

 42 46  0  0  0  0  0  0  0  0999 V2000
   34.3670   30.8090   46.6360 F   0  0  0  0  0  0  0  0  0  0  0  0
   34.8450   30.1540   45.5320 C   0  0  0  0  0  0  0  0  0  0  0  0
   34.0030   29.5340   44.6110 C   0  0  0  0  0  0  0  0  0  0  0  0
   34.5510   28.9120   43.5200 C   0  0  0  0  0  0  0  0  0  0  0  0
   35.9380   28.8990   43.3310 C   0  0  0  0  0  0  0  0  0  0  0  0
   36.7240   29.5290   44.2760 C   0  0  0  0  0  0  0  0  0  0  0  0
   36.2280   30.1510   45.3590 C   0  0  0  0  0  0  0  0  0  0  0  0
   33.8620   28.4450   42.8360 H   0  0  0  0  0  0  0  0  0  0  0  0
   36.3370   28.3980   42.4540 H   0  0  0  0  0  0  0  0  0  0  0  0
   37.7820   29.4780   44.0630 H   0  0  0  0  0  0  0  0  0  0  0  0
   38.0540   32.4870   44.3400 Br  0  0  0  0  0  0  0  0  0  0  0  0
   37.9680   31.8390   46.1300 C   0  0  0  0  0  0  0  0  0  0  0  0
   37.1090   30.7830   46.3190 C   0  0  0  0  0  0  0  0  0  0  0  0
   37.0250   30.2270   47.6080 C   0  0  0  0  0  0  0  0  0  0  0  0
   37.7650   30.7180   48.6270 C   0  0  0  0  0  0  0  0  0  0  0  0
   38.6080   31.7790   48.3820 C   0  0  0  0  0  0  0  0  0  0  0  0
   38.7240   32.3650   47.1090 C   0  0  0  0  0  0  0  0  0  0  0  0
   36.3760   29.3940   47.8440 H   0  0  0  0  0  0  0  0  0  0  0  0
   37.7510   30.3410   49.6380 H   0  0  0  0  0  0  0  0  0  0  0  0
   39.2230   32.2090   49.1680 H   0  0  0  0  0  0  0  0  0  0  0  0
   39.5280   33.4120   46.7840 O   0  0  0  0  0  0  0  0  0  0  0  0
   40.0140   33.9240   47.5170 H   0  0  0  0  0  0  0  0  0  0  0  0
   32.2320   29.3960   46.2370 C   0  0  0  0  0  0  0  0  0  0  0  0
   32.6020   29.6160   44.9220 C   0  0  0  0  0  0  0  0  0  0  0  0
   31.6010   29.9220   44.0250 C   0  0  0  0  0  0  0  0  0  0  0  0
   30.3120   30.0010   44.4380 N   0  0  0  0  0  0  0  0  0  0  0  0
   29.9850   29.7900   45.6950 C   0  0  0  0  0  0  0  0  0  0  0  0
   30.9170   29.4930   46.5760 N   0  0  0  0  0  0  0  0  0  0  0  0
   33.0070   29.1470   46.9800 H   0  0  0  0  0  0  0  0  0  0  0  0
   31.8420   30.1000   42.9930 H   0  0  0  0  0  0  0  0  0  0  0  0
   28.6720   29.8230   46.3650 C   0  0  0  0  0  0  0  0  0  0  0  0
   27.8300   30.8760   46.3890 N   0  0  0  0  0  0  0  0  0  0  0  0
   26.6510   30.9240   46.9850 C   0  0  0  0  0  3  0  0  0  0  0  0
   26.1720   29.8620   47.6510 N   0  0  0  0  0  0  0  0  0  0  0  0
   26.9250   28.7410   47.7010 C   0  0  0  0  0  0  0  0  0  0  0  0
   26.4100   27.6780   48.3860 C   0  0  0  0  0  3  0  0  0  0  0  0
   27.1300   26.5070   48.4720 C   0  0  0  0  0  0  0  0  0  0  0  0
   26.6770   25.7010   49.0250 H   0  0  0  0  0  0  0  0  0  0  0  0
   28.3630   26.4700   47.8450 C   0  0  0  0  0  0  0  0  0  0  0  0
   28.8890   25.5300   47.9410 H   0  0  0  0  0  0  0  0  0  0  0  0
   28.8280   27.5750   47.1680 C   0  0  0  0  0  3  0  0  0  0  0  0
   28.1410   28.7600   47.0600 C   0  0  0  0  0  0  0  0  0  0  0  0
  2  1  1  0  0  0  0
  3 24  1  0  0  0  0
  3  2  2  0  0  0  0
  4  3  1  0  0  0  0
  5  4  2  0  0  0  0
  5  6  1  0  0  0  0
  6  7  2  0  0  0  0
  7  2  1  0  0  0  0
  7 13  1  0  0  0  0
  8  4  1  0  0  0  0
  9  5  1  0  0  0  0
 10  6  1  0  0  0  0
 11 12  1  0  0  0  0
 12 13  2  0  0  0  0
 12 17  1  0  0  0  0
 13 14  1  0  0  0  0
 14 18  1  0  0  0  0
 14 15  2  0  0  0  0
 15 19  1  0  0  0  0
 16 15  1  0  0  0  0
 16 20  1  0  0  0  0
 17 16  2  0  0  0  0
 21 17  1  0  0  0  0
 21 22  1  0  0  0  0
 23 28  1  0  0  0  0
 23 29  1  0  0  0  0
 24 23  2  0  0  0  0
 25 26  2  0  0  0  0
 25 24  1  0  0  0  0
 26 27  1  0  0  0  0
 27 31  1  0  0  0  0
 27 28  2  0  0  0  0
 30 25  1  0  0  0  0
 31 32  2  0  0  0  0
 31 42  1  0  0  0  0
 32 33  1  0  0  0  0
 33 34  2  0  0  0  0
 34 35  1  0  0  0  0
 35 36  1  0  0  0  0
 36 37  2  0  0  0  0
 37 38  1  0  0  0  0
 39 40  1  0  0  0  0
 39 37  1  0  0  0  0
 41 39  2  0  0  0  0
 42 41  1  0  0  0  0
 42 35  2  0  0  0  0
M  END
>  <minimizedAffinity>
-6.36761856

>  <minimizedRMSD>
1.50693226

$$$$
