
 OpenBabel03272506563D

 23 25  0  0  0  0  0  0  0  0999 V2000
   31.9910   28.3420   45.6050 C   0  0  0  0  0  0  0  0  0  0  0  0
   31.5370   28.2030   44.3430 N   0  0  0  0  0  0  0  0  0  0  0  0
   32.1780   28.6330   43.2560 C   0  0  0  0  0  3  0  0  0  0  0  0
   33.3640   29.2590   43.3280 N   0  0  0  0  0  0  0  0  0  0  0  0
   33.8960   29.4450   44.5440 C   0  0  0  0  0  0  0  0  0  0  0  0
   35.1120   30.0900   44.5910 C   0  0  0  0  0  3  0  0  0  0  0  0
   35.7170   30.3160   45.7980 C   0  0  0  0  0  0  0  0  0  0  0  0
   36.6650   30.8220   45.8020 H   0  0  0  0  0  0  0  0  0  0  0  0
   35.0540   29.8690   46.9470 C   0  0  0  0  0  0  0  0  0  0  0  0
   35.5740   30.0710   47.8830 H   0  0  0  0  0  0  0  0  0  0  0  0
   33.8420   29.2320   46.8270 C   0  0  0  0  0  3  0  0  0  0  0  0
   33.2080   28.9900   45.6490 C   0  0  0  0  0  0  0  0  0  0  0  0
   29.3560   28.3480   48.0370 C   0  0  0  0  0  0  0  0  0  0  0  0
   29.6240   27.3420   48.9590 C   0  0  0  0  0  0  0  0  0  0  0  0
   30.7930   26.6080   48.7310 C   0  0  0  0  0  0  0  0  0  0  0  0
   31.5660   26.9050   47.6700 N   0  0  0  0  0  0  0  0  0  0  0  0
   31.2850   27.8690   46.8100 C   0  0  0  0  0  0  0  0  0  0  0  0
   30.1720   28.5930   46.9950 N   0  0  0  0  0  0  0  0  0  0  0  0
   28.4460   28.8940   48.2430 H   0  0  0  0  0  0  0  0  0  0  0  0
   31.0920   25.8150   49.3770 H   0  0  0  0  0  0  0  0  0  0  0  0
   28.7770   27.0760   50.0540 N   0  0  0  0  0  0  0  0  0  0  0  0
   28.3140   27.8030   50.6270 H   0  0  0  0  0  0  0  0  0  0  0  0
   28.5080   26.1310   50.4230 H   0  0  0  0  0  0  0  0  0  0  0  0
  1 12  1  0  0  0  0
  1 17  1  0  0  0  0
  2  1  2  0  0  0  0
  3  4  2  0  0  0  0
  3  2  1  0  0  0  0
  4  5  1  0  0  0  0
  5  6  2  0  0  0  0
  5 12  1  0  0  0  0
  6  7  1  0  0  0  0
  7  8  1  0  0  0  0
  7  9  2  0  0  0  0
  9 10  1  0  0  0  0
 11  9  1  0  0  0  0
 12 11  2  0  0  0  0
 13 19  1  0  0  0  0
 13 14  1  0  0  0  0
 14 21  1  0  0  0  0
 15 14  2  0  0  0  0
 15 20  1  0  0  0  0
 16 15  1  0  0  0  0
 17 18  1  0  0  0  0
 17 16  2  0  0  0  0
 18 13  2  0  0  0  0
 21 23  1  0  0  0  0
 21 22  1  0  0  0  0
M  END
>  <minimizedAffinity>
-3.0497725

>  <minimizedRMSD>
6.70346165

$$$$
