
 OpenBabel03272501283D

 42 46  0  0  1  0  0  0  0  0999 V2000
   35.4920   28.9690   32.6030 C   0  0  0  0  0  0  0  0  0  0  0  0
   35.9710   29.8630   31.6420 C   0  0  0  0  0  0  0  0  0  0  0  0
   34.8950   30.6910   31.2860 C   0  0  0  0  0  0  0  0  0  0  0  0
   33.8460   30.2780   32.0180 N   0  0  0  0  0  0  0  0  0  0  0  0
   34.2140   29.2580   32.7930 N   0  0  0  0  0  0  0  0  0  0  0  0
   36.9750   29.9400   31.2230 H   0  0  0  0  0  0  0  0  0  0  0  0
   34.9080   31.5030   30.5610 H   0  0  0  0  0  0  0  0  0  0  0  0
   31.5380   29.8140   32.5040 N   0  0  0  0  0  0  0  0  0  0  0  0
   30.3710   30.5960   32.8400 C   0  0  0  0  0  0  0  0  0  0  0  0
   30.8090   32.0380   32.9570 C   0  0  0  0  0  0  0  0  0  0  0  0
   32.3330   31.8890   33.0190 C   0  0  0  0  0  0  0  0  0  0  0  0
   32.5150   30.7830   32.0360 C   0  0  1  0  0  0  0  0  0  0  0  0
   31.9270   29.3850   33.3760 H   0  0  0  0  0  0  0  0  0  0  0  0
   29.9820   30.2590   33.8400 H   0  0  0  0  0  0  0  0  0  0  0  0
   29.5440   30.4720   32.0960 H   0  0  0  0  0  0  0  0  0  0  0  0
   30.4080   32.5490   33.8320 H   0  0  0  0  0  0  0  0  0  0  0  0
   30.5850   32.5320   31.9890 H   0  0  0  0  0  0  0  0  0  0  0  0
   32.8500   32.8120   32.6750 H   0  0  0  0  0  0  0  0  0  0  0  0
   32.6570   31.5620   34.0230 H   0  0  0  0  0  0  0  0  0  0  0  0
   32.1800   31.2570   30.7000 N   0  0  0  0  0  0  0  0  0  0  0  0
   32.3070   32.2870   30.6270 H   0  0  0  0  0  0  0  0  0  0  0  0
   31.2310   30.9500   30.3980 H   0  0  0  0  0  0  0  0  0  0  0  0
   36.7510   26.8160   32.5290 C   0  0  0  0  0  0  0  0  0  0  0  0
   36.3420   27.9650   33.1980 C   0  0  0  0  0  0  0  0  0  0  0  0
   36.7970   28.1110   34.5010 C   0  0  0  0  0  0  0  0  0  0  0  0
   37.5830   27.1540   35.0200 N   0  0  0  0  0  0  0  0  0  0  0  0
   37.9630   26.0620   34.3660 C   0  0  0  0  0  0  0  0  0  0  0  0
   37.5310   25.8990   33.0910 N   0  0  0  0  0  0  0  0  0  0  0  0
   36.3640   26.7590   31.5130 H   0  0  0  0  0  0  0  0  0  0  0  0
   36.5560   28.9520   35.1310 H   0  0  0  0  0  0  0  0  0  0  0  0
   38.7990   24.9310   34.7580 C   0  0  0  0  0  0  0  0  0  0  0  0
   39.6580   24.2770   33.9470 N   0  0  0  0  0  0  0  0  0  0  0  0
   40.4210   23.2440   34.3030 C   0  0  0  0  0  3  0  0  0  0  0  0
   40.4050   22.7410   35.5450 N   0  0  0  0  0  0  0  0  0  0  0  0
   39.5820   23.3240   36.4280 C   0  0  0  0  0  0  0  0  0  0  0  0
   39.5740   22.7990   37.7000 C   0  0  0  0  0  3  0  0  0  0  0  0
   38.7550   23.3420   38.6660 C   0  0  0  0  0  0  0  0  0  0  0  0
   38.7870   22.8930   39.6460 H   0  0  0  0  0  0  0  0  0  0  0  0
   37.9610   24.4110   38.3090 C   0  0  0  0  0  0  0  0  0  0  0  0
   37.3340   24.8090   39.0930 H   0  0  0  0  0  0  0  0  0  0  0  0
   38.0130   24.8900   37.0210 C   0  0  0  0  0  3  0  0  0  0  0  0
   38.8110   24.3880   36.0210 C   0  0  0  0  0  0  0  0  0  0  0  0
  1  5  2  0  0  0  0
  1 24  1  0  0  0  0
  2  1  1  0  0  0  0
  3  2  2  0  0  0  0
  3  4  1  0  0  0  0
  4 12  1  0  0  0  0
  4  5  1  0  0  0  0
  6  2  1  0  0  0  0
  7  3  1  0  0  0  0
  8  9  1  0  0  0  0
  8 13  1  0  0  0  0
  9 10  1  0  0  0  0
  9 14  1  0  0  0  0
 10 11  1  0  0  0  0
 10 16  1  0  0  0  0
 11 19  1  0  0  0  0
 12 20  1  6  0  0  0
 12  8  1  0  0  0  0
 12 11  1  0  0  0  0
 15  9  1  0  0  0  0
 17 10  1  0  0  0  0
 18 11  1  0  0  0  0
 21 20  1  0  0  0  0
 22 20  1  0  0  0  0
 23 28  2  0  0  0  0
 23 24  1  0  0  0  0
 24 25  2  0  0  0  0
 25 26  1  0  0  0  0
 25 30  1  0  0  0  0
 27 31  1  0  0  0  0
 27 26  2  0  0  0  0
 28 27  1  0  0  0  0
 29 23  1  0  0  0  0
 31 42  1  0  0  0  0
 32 33  1  0  0  0  0
 32 31  2  0  0  0  0
 33 34  2  0  0  0  0
 34 35  1  0  0  0  0
 35 36  1  0  0  0  0
 36 37  2  0  0  0  0
 37 38  1  0  0  0  0
 39 37  1  0  0  0  0
 39 40  1  0  0  0  0
 41 39  2  0  0  0  0
 42 35  2  0  0  0  0
 42 41  1  0  0  0  0
M  END
>  <minimizedAffinity>
-6.6661396

$$$$

 OpenBabel03272501283D

 42 46  0  0  1  0  0  0  0  0999 V2000
   37.2460   28.0580   31.9890 C   0  0  0  0  0  0  0  0  0  0  0  0
   36.1390   28.9090   32.0500 C   0  0  0  0  0  0  0  0  0  0  0  0
   36.1750   29.7050   30.8950 C   0  0  0  0  0  0  0  0  0  0  0  0
   37.2630   29.3190   30.2070 N   0  0  0  0  0  0  0  0  0  0  0  0
   37.8880   28.3440   30.8670 N   0  0  0  0  0  0  0  0  0  0  0  0
   35.3720   28.9750   32.8230 H   0  0  0  0  0  0  0  0  0  0  0  0
   35.4640   30.4800   30.6140 H   0  0  0  0  0  0  0  0  0  0  0  0
   36.9810   30.9210   28.4370 N   0  0  0  0  0  0  0  0  0  0  0  0
   37.8340   31.5270   27.4410 C   0  0  0  0  0  0  0  0  0  0  0  0
   39.2390   31.0290   27.6830 C   0  0  0  0  0  0  0  0  0  0  0  0
   39.1100   30.4190   29.0830 C   0  0  0  0  0  0  0  0  0  0  0  0
   37.7550   29.8100   28.9640 C   0  0  1  0  0  0  0  0  0  0  0  0
   36.8380   31.5950   29.2250 H   0  0  0  0  0  0  0  0  0  0  0  0
   37.8220   32.6430   27.5830 H   0  0  0  0  0  0  0  0  0  0  0  0
   37.4900   31.3150   26.3970 H   0  0  0  0  0  0  0  0  0  0  0  0
   39.9960   31.8120   27.6410 H   0  0  0  0  0  0  0  0  0  0  0  0
   39.4140   30.1800   26.9900 H   0  0  0  0  0  0  0  0  0  0  0  0
   39.8810   29.6380   29.2630 H   0  0  0  0  0  0  0  0  0  0  0  0
   39.1050   31.2070   29.8570 H   0  0  0  0  0  0  0  0  0  0  0  0
   37.7970   28.7070   28.0140 N   0  0  0  0  0  0  0  0  0  0  0  0
   38.7550   28.3040   27.9520 H   0  0  0  0  0  0  0  0  0  0  0  0
   37.4170   28.9730   27.0810 H   0  0  0  0  0  0  0  0  0  0  0  0
   37.8040   27.4440   34.3420 C   0  0  0  0  0  0  0  0  0  0  0  0
   37.5200   27.0920   33.0260 C   0  0  0  0  0  0  0  0  0  0  0  0
   37.5140   25.7330   32.7420 C   0  0  0  0  0  0  0  0  0  0  0  0
   37.7780   24.8670   33.7330 N   0  0  0  0  0  0  0  0  0  0  0  0
   38.0470   25.2210   34.9840 C   0  0  0  0  0  0  0  0  0  0  0  0
   38.0580   26.5430   35.2850 N   0  0  0  0  0  0  0  0  0  0  0  0
   37.7940   28.5200   34.5030 H   0  0  0  0  0  0  0  0  0  0  0  0
   37.3100   25.3250   31.7650 H   0  0  0  0  0  0  0  0  0  0  0  0
   38.3540   24.4350   36.1760 C   0  0  0  0  0  0  0  0  0  0  0  0
   37.5890   24.3700   37.2860 N   0  0  0  0  0  0  0  0  0  0  0  0
   37.8670   23.6550   38.3750 C   0  0  0  0  0  3  0  0  0  0  0  0
   38.9750   22.9060   38.4720 N   0  0  0  0  0  0  0  0  0  0  0  0
   39.8030   22.9040   37.4170 C   0  0  0  0  0  0  0  0  0  0  0  0
   40.9370   22.1320   37.5280 C   0  0  0  0  0  3  0  0  0  0  0  0
   41.8390   22.0770   36.4880 C   0  0  0  0  0  0  0  0  0  0  0  0
   42.7100   21.4580   36.6250 H   0  0  0  0  0  0  0  0  0  0  0  0
   41.5600   22.8130   35.3550 C   0  0  0  0  0  0  0  0  0  0  0  0
   42.2900   22.7440   34.5620 H   0  0  0  0  0  0  0  0  0  0  0  0
   40.4100   23.5660   35.3060 C   0  0  0  0  0  3  0  0  0  0  0  0
   39.4780   23.6560   36.3130 C   0  0  0  0  0  0  0  0  0  0  0  0
  1  2  1  0  0  0  0
  1 24  1  0  0  0  0
  2  6  1  0  0  0  0
  3  2  2  0  0  0  0
  4  5  1  0  0  0  0
  4  3  1  0  0  0  0
  5  1  2  0  0  0  0
  7  3  1  0  0  0  0
  8 12  1  0  0  0  0
  8 13  1  0  0  0  0
  9 14  1  0  0  0  0
  9 10  1  0  0  0  0
  9  8  1  0  0  0  0
 10 11  1  0  0  0  0
 11 18  1  0  0  0  0
 11 19  1  0  0  0  0
 12 20  1  6  0  0  0
 12 11  1  0  0  0  0
 12  4  1  0  0  0  0
 15  9  1  0  0  0  0
 16 10  1  0  0  0  0
 17 10  1  0  0  0  0
 21 20  1  0  0  0  0
 22 20  1  0  0  0  0
 23 29  1  0  0  0  0
 23 28  1  0  0  0  0
 24 23  2  0  0  0  0
 25 24  1  0  0  0  0
 25 26  2  0  0  0  0
 26 27  1  0  0  0  0
 27 28  2  0  0  0  0
 27 31  1  0  0  0  0
 30 25  1  0  0  0  0
 31 42  2  0  0  0  0
 31 32  1  0  0  0  0
 32 33  2  0  0  0  0
 33 34  1  0  0  0  0
 35 36  1  0  0  0  0
 35 34  2  0  0  0  0
 37 38  1  0  0  0  0
 37 36  2  0  0  0  0
 39 37  1  0  0  0  0
 40 39  1  0  0  0  0
 41 39  2  0  0  0  0
 41 42  1  0  0  0  0
 42 35  1  0  0  0  0
M  END
>  <minimizedAffinity>
-6.45863008

$$$$

 OpenBabel03272501283D

 42 46  0  0  1  0  0  0  0  0999 V2000
   38.6270   24.8070   35.9270 C   0  0  0  0  0  0  0  0  0  0  0  0
   38.0870   24.3160   37.1180 C   0  0  0  0  0  0  0  0  0  0  0  0
   38.9420   23.2960   37.5610 C   0  0  0  0  0  0  0  0  0  0  0  0
   39.9290   23.2120   36.6530 N   0  0  0  0  0  0  0  0  0  0  0  0
   39.7290   24.1130   35.6910 N   0  0  0  0  0  0  0  0  0  0  0  0
   37.1810   24.6340   37.6390 H   0  0  0  0  0  0  0  0  0  0  0  0
   38.8280   22.6920   38.4600 H   0  0  0  0  0  0  0  0  0  0  0  0
   41.1820   21.5990   35.3850 N   0  0  0  0  0  0  0  0  0  0  0  0
   42.5410   21.1100   35.3850 C   0  0  0  0  0  0  0  0  0  0  0  0
   43.3090   21.9020   36.4180 C   0  0  0  0  0  0  0  0  0  0  0  0
   42.3500   23.0670   36.6830 C   0  0  0  0  0  0  0  0  0  0  0  0
   41.0520   22.3380   36.6310 C   0  0  1  0  0  0  0  0  0  0  0  0
   41.0650   22.2900   34.6070 H   0  0  0  0  0  0  0  0  0  0  0  0
   42.9980   21.3030   34.3750 H   0  0  0  0  0  0  0  0  0  0  0  0
   42.5990   20.0090   35.5780 H   0  0  0  0  0  0  0  0  0  0  0  0
   44.2860   22.2410   36.0740 H   0  0  0  0  0  0  0  0  0  0  0  0
   43.3300   21.3000   37.3490 H   0  0  0  0  0  0  0  0  0  0  0  0
   42.5130   23.5120   37.6900 H   0  0  0  0  0  0  0  0  0  0  0  0
   42.4000   23.8120   35.8700 H   0  0  0  0  0  0  0  0  0  0  0  0
   40.9550   21.4290   37.7660 N   0  0  0  0  0  0  0  0  0  0  0  0
   41.5410   21.7620   38.5600 H   0  0  0  0  0  0  0  0  0  0  0  0
   41.1630   20.4430   37.5030 H   0  0  0  0  0  0  0  0  0  0  0  0
   37.4430   25.7130   33.9260 C   0  0  0  0  0  0  0  0  0  0  0  0
   37.9970   25.8780   35.1910 C   0  0  0  0  0  0  0  0  0  0  0  0
   37.9200   27.1540   35.7330 C   0  0  0  0  0  0  0  0  0  0  0  0
   37.3300   28.1230   35.0160 N   0  0  0  0  0  0  0  0  0  0  0  0
   36.8060   27.9480   33.8090 C   0  0  0  0  0  0  0  0  0  0  0  0
   36.8690   26.7090   33.2590 N   0  0  0  0  0  0  0  0  0  0  0  0
   37.5320   24.6940   33.5550 H   0  0  0  0  0  0  0  0  0  0  0  0
   38.3090   27.4180   36.7030 H   0  0  0  0  0  0  0  0  0  0  0  0
   36.1360   28.8660   32.8920 C   0  0  0  0  0  0  0  0  0  0  0  0
   36.5560   29.1690   31.6460 N   0  0  0  0  0  0  0  0  0  0  0  0
   35.9470   30.0080   30.8080 C   0  0  0  0  0  3  0  0  0  0  0  0
   34.8180   30.6510   31.1390 N   0  0  0  0  0  0  0  0  0  0  0  0
   34.3200   30.4160   32.3620 C   0  0  0  0  0  0  0  0  0  0  0  0
   33.1610   31.0820   32.6910 C   0  0  0  0  0  3  0  0  0  0  0  0
   32.5850   30.8950   33.9280 C   0  0  0  0  0  0  0  0  0  0  0  0
   31.6790   31.4400   34.1350 H   0  0  0  0  0  0  0  0  0  0  0  0
   33.2070   30.0290   34.8030 C   0  0  0  0  0  0  0  0  0  0  0  0
   32.7260   29.9080   35.7620 H   0  0  0  0  0  0  0  0  0  0  0  0
   34.3630   29.3940   34.4150 C   0  0  0  0  0  3  0  0  0  0  0  0
   34.9790   29.5430   33.1950 C   0  0  0  0  0  0  0  0  0  0  0  0
  1  2  1  0  0  0  0
  2  3  2  0  0  0  0
  2  6  1  0  0  0  0
  3  7  1  0  0  0  0
  4  3  1  0  0  0  0
  5  1  2  0  0  0  0
  5  4  1  0  0  0  0
  8  9  1  0  0  0  0
  8 12  1  0  0  0  0
  9 15  1  0  0  0  0
  9 10  1  0  0  0  0
 10 11  1  0  0  0  0
 10 17  1  0  0  0  0
 11 18  1  0  0  0  0
 12  4  1  0  0  0  0
 12 11  1  0  0  0  0
 12 20  1  1  0  0  0
 13  8  1  0  0  0  0
 14  9  1  0  0  0  0
 16 10  1  0  0  0  0
 19 11  1  0  0  0  0
 20 21  1  0  0  0  0
 22 20  1  0  0  0  0
 23 24  1  0  0  0  0
 24 25  2  0  0  0  0
 24  1  1  0  0  0  0
 25 30  1  0  0  0  0
 26 25  1  0  0  0  0
 27 26  2  0  0  0  0
 28 27  1  0  0  0  0
 28 23  2  0  0  0  0
 29 23  1  0  0  0  0
 31 42  1  0  0  0  0
 31 27  1  0  0  0  0
 32 31  2  0  0  0  0
 33 34  2  0  0  0  0
 33 32  1  0  0  0  0
 34 35  1  0  0  0  0
 35 36  2  0  0  0  0
 35 42  1  0  0  0  0
 36 37  1  0  0  0  0
 37 38  1  0  0  0  0
 37 39  2  0  0  0  0
 39 40  1  0  0  0  0
 41 39  1  0  0  0  0
 42 41  2  0  0  0  0
M  END
>  <minimizedAffinity>
-6.45753145

$$$$

 OpenBabel03272501283D

 42 46  0  0  1  0  0  0  0  0999 V2000
   37.0240   28.1190   32.0430 C   0  0  0  0  0  0  0  0  0  0  0  0
   37.2890   27.8580   30.6970 C   0  0  0  0  0  0  0  0  0  0  0  0
   36.8720   28.9870   29.9750 C   0  0  0  0  0  0  0  0  0  0  0  0
   36.3880   29.8540   30.8810 N   0  0  0  0  0  0  0  0  0  0  0  0
   36.4840   29.3250   32.1010 N   0  0  0  0  0  0  0  0  0  0  0  0
   37.7340   26.9670   30.2490 H   0  0  0  0  0  0  0  0  0  0  0  0
   36.9290   29.1310   28.8970 H   0  0  0  0  0  0  0  0  0  0  0  0
   34.3890   31.1860   30.7830 N   0  0  0  0  0  0  0  0  0  0  0  0
   34.0650   32.5830   30.9540 C   0  0  0  0  0  0  0  0  0  0  0  0
   35.3350   33.2980   31.3530 C   0  0  0  0  0  0  0  0  0  0  0  0
   36.2420   32.1210   31.7280 C   0  0  0  0  0  0  0  0  0  0  0  0
   35.8390   31.1500   30.6730 C   0  0  1  0  0  0  0  0  0  0  0  0
   34.1360   30.6650   31.6550 H   0  0  0  0  0  0  0  0  0  0  0  0
   33.3200   32.6840   31.7910 H   0  0  0  0  0  0  0  0  0  0  0  0
   33.6060   33.0310   30.0360 H   0  0  0  0  0  0  0  0  0  0  0  0
   35.2030   33.9980   32.1780 H   0  0  0  0  0  0  0  0  0  0  0  0
   35.7680   33.7430   30.4340 H   0  0  0  0  0  0  0  0  0  0  0  0
   37.3180   32.3860   31.6310 H   0  0  0  0  0  0  0  0  0  0  0  0
   35.9840   31.7270   32.7270 H   0  0  0  0  0  0  0  0  0  0  0  0
   36.2740   31.6350   29.3700 N   0  0  0  0  0  0  0  0  0  0  0  0
   37.0950   32.2680   29.4630 H   0  0  0  0  0  0  0  0  0  0  0  0
   35.4960   32.0690   28.8290 H   0  0  0  0  0  0  0  0  0  0  0  0
   37.5040   27.5080   34.4140 C   0  0  0  0  0  0  0  0  0  0  0  0
   37.3340   27.1610   33.0780 C   0  0  0  0  0  0  0  0  0  0  0  0
   37.4810   25.8150   32.7700 C   0  0  0  0  0  0  0  0  0  0  0  0
   37.7730   24.9560   33.7600 N   0  0  0  0  0  0  0  0  0  0  0  0
   37.9330   25.3050   35.0310 C   0  0  0  0  0  0  0  0  0  0  0  0
   37.7930   26.6150   35.3560 N   0  0  0  0  0  0  0  0  0  0  0  0
   37.3760   28.5730   34.5930 H   0  0  0  0  0  0  0  0  0  0  0  0
   37.3760   25.4120   31.7760 H   0  0  0  0  0  0  0  0  0  0  0  0
   38.2480   24.5270   36.2260 C   0  0  0  0  0  0  0  0  0  0  0  0
   37.4870   24.4620   37.3380 N   0  0  0  0  0  0  0  0  0  0  0  0
   37.7730   23.7530   38.4290 C   0  0  0  0  0  3  0  0  0  0  0  0
   38.8860   23.0100   38.5250 N   0  0  0  0  0  0  0  0  0  0  0  0
   39.7100   23.0090   37.4680 C   0  0  0  0  0  0  0  0  0  0  0  0
   40.8480   22.2440   37.5780 C   0  0  0  0  0  3  0  0  0  0  0  0
   41.7470   22.1890   36.5350 C   0  0  0  0  0  0  0  0  0  0  0  0
   42.6220   21.5750   36.6720 H   0  0  0  0  0  0  0  0  0  0  0  0
   41.4610   22.9190   35.4000 C   0  0  0  0  0  0  0  0  0  0  0  0
   42.1880   22.8510   34.6050 H   0  0  0  0  0  0  0  0  0  0  0  0
   40.3060   23.6650   35.3510 C   0  0  0  0  0  3  0  0  0  0  0  0
   39.3770   23.7540   36.3610 C   0  0  0  0  0  0  0  0  0  0  0  0
  1  5  2  0  0  0  0
  1 24  1  0  0  0  0
  2  1  1  0  0  0  0
  3  2  2  0  0  0  0
  3  4  1  0  0  0  0
  4  5  1  0  0  0  0
  6  2  1  0  0  0  0
  7  3  1  0  0  0  0
  8  9  1  0  0  0  0
  8 13  1  0  0  0  0
  9 10  1  0  0  0  0
  9 14  1  0  0  0  0
 10 11  1  0  0  0  0
 10 16  1  0  0  0  0
 11 19  1  0  0  0  0
 12 20  1  6  0  0  0
 12  8  1  0  0  0  0
 12  4  1  0  0  0  0
 12 11  1  0  0  0  0
 15  9  1  0  0  0  0
 17 10  1  0  0  0  0
 18 11  1  0  0  0  0
 20 21  1  0  0  0  0
 22 20  1  0  0  0  0
 23 29  1  0  0  0  0
 23 28  1  0  0  0  0
 24 23  2  0  0  0  0
 25 24  1  0  0  0  0
 25 26  2  0  0  0  0
 26 27  1  0  0  0  0
 27 28  2  0  0  0  0
 27 31  1  0  0  0  0
 30 25  1  0  0  0  0
 31 42  2  0  0  0  0
 31 32  1  0  0  0  0
 32 33  2  0  0  0  0
 33 34  1  0  0  0  0
 35 36  1  0  0  0  0
 35 34  2  0  0  0  0
 37 38  1  0  0  0  0
 37 36  2  0  0  0  0
 39 37  1  0  0  0  0
 40 39  1  0  0  0  0
 41 39  2  0  0  0  0
 41 42  1  0  0  0  0
 42 35  1  0  0  0  0
M  END
>  <minimizedAffinity>
-6.44800138

$$$$

 OpenBabel03272501283D

 42 46  0  0  1  0  0  0  0  0999 V2000
   36.1790   28.4300   32.5990 C   0  0  0  0  0  0  0  0  0  0  0  0
   36.2890   29.4520   31.6520 C   0  0  0  0  0  0  0  0  0  0  0  0
   35.8550   30.6320   32.2740 C   0  0  0  0  0  0  0  0  0  0  0  0
   35.5100   30.2900   33.5280 N   0  0  0  0  0  0  0  0  0  0  0  0
   35.7070   28.9830   33.7050 N   0  0  0  0  0  0  0  0  0  0  0  0
   36.6400   29.3900   30.6200 H   0  0  0  0  0  0  0  0  0  0  0  0
   35.8070   31.6250   31.8300 H   0  0  0  0  0  0  0  0  0  0  0  0
   33.8170   30.5740   35.2100 N   0  0  0  0  0  0  0  0  0  0  0  0
   33.7050   31.2940   36.4570 C   0  0  0  0  0  0  0  0  0  0  0  0
   35.0410   31.9480   36.7250 C   0  0  0  0  0  0  0  0  0  0  0  0
   35.9440   31.2170   35.7260 C   0  0  0  0  0  0  0  0  0  0  0  0
   35.0070   31.1140   34.5730 C   0  0  1  0  0  0  0  0  0  0  0  0
   34.0110   29.5650   35.4120 H   0  0  0  0  0  0  0  0  0  0  0  0
   33.4940   30.5610   37.2830 H   0  0  0  0  0  0  0  0  0  0  0  0
   32.8710   32.0410   36.4450 H   0  0  0  0  0  0  0  0  0  0  0  0
   35.3850   31.8360   37.7530 H   0  0  0  0  0  0  0  0  0  0  0  0
   34.9730   32.9970   36.3720 H   0  0  0  0  0  0  0  0  0  0  0  0
   36.8360   31.8250   35.4590 H   0  0  0  0  0  0  0  0  0  0  0  0
   36.2040   30.2090   36.0950 H   0  0  0  0  0  0  0  0  0  0  0  0
   34.7490   32.4430   34.0320 N   0  0  0  0  0  0  0  0  0  0  0  0
   35.5390   33.0890   34.2390 H   0  0  0  0  0  0  0  0  0  0  0  0
   33.8310   32.8250   34.3430 H   0  0  0  0  0  0  0  0  0  0  0  0
   36.3480   26.4840   31.0470 C   0  0  0  0  0  0  0  0  0  0  0  0
   36.5470   27.0680   32.2940 C   0  0  0  0  0  0  0  0  0  0  0  0
   37.1300   26.2630   33.2630 C   0  0  0  0  0  0  0  0  0  0  0  0
   37.4540   25.0010   32.9420 N   0  0  0  0  0  0  0  0  0  0  0  0
   37.2560   24.4590   31.7460 C   0  0  0  0  0  0  0  0  0  0  0  0
   36.6890   25.2270   30.7830 N   0  0  0  0  0  0  0  0  0  0  0  0
   35.8900   27.1620   30.3310 H   0  0  0  0  0  0  0  0  0  0  0  0
   37.3390   26.5900   34.2690 H   0  0  0  0  0  0  0  0  0  0  0  0
   37.5380   23.1260   31.2190 C   0  0  0  0  0  0  0  0  0  0  0  0
   38.6130   22.7930   30.4740 N   0  0  0  0  0  0  0  0  0  0  0  0
   38.8710   21.5780   29.9910 C   0  0  0  0  0  3  0  0  0  0  0  0
   38.0570   20.5360   30.2100 N   0  0  0  0  0  0  0  0  0  0  0  0
   36.9570   20.7660   30.9420 C   0  0  0  0  0  0  0  0  0  0  0  0
   36.1280   19.6900   31.1600 C   0  0  0  0  0  3  0  0  0  0  0  0
   34.9770   19.8430   31.9030 C   0  0  0  0  0  0  0  0  0  0  0  0
   34.3640   18.9690   32.0440 H   0  0  0  0  0  0  0  0  0  0  0  0
   34.7000   21.0960   32.4070 C   0  0  0  0  0  0  0  0  0  0  0  0
   33.7910   21.1770   32.9840 H   0  0  0  0  0  0  0  0  0  0  0  0
   35.5680   22.1330   32.1540 C   0  0  0  0  0  3  0  0  0  0  0  0
   36.7280   22.0340   31.4210 C   0  0  0  0  0  0  0  0  0  0  0  0
  1  5  2  0  0  0  0
  2  3  2  0  0  0  0
  2  1  1  0  0  0  0
  3  4  1  0  0  0  0
  4  5  1  0  0  0  0
  4 12  1  0  0  0  0
  6  2  1  0  0  0  0
  7  3  1  0  0  0  0
  8 13  1  0  0  0  0
  8  9  1  0  0  0  0
  9 10  1  0  0  0  0
  9 14  1  0  0  0  0
 10 16  1  0  0  0  0
 11 19  1  0  0  0  0
 11 10  1  0  0  0  0
 12 20  1  6  0  0  0
 12  8  1  0  0  0  0
 12 11  1  0  0  0  0
 15  9  1  0  0  0  0
 17 10  1  0  0  0  0
 18 11  1  0  0  0  0
 20 21  1  0  0  0  0
 20 22  1  0  0  0  0
 23 24  1  0  0  0  0
 24  1  1  0  0  0  0
 24 25  2  0  0  0  0
 25 30  1  0  0  0  0
 26 25  1  0  0  0  0
 27 26  2  0  0  0  0
 28 23  2  0  0  0  0
 28 27  1  0  0  0  0
 29 23  1  0  0  0  0
 31 42  1  0  0  0  0
 31 27  1  0  0  0  0
 32 31  2  0  0  0  0
 33 34  2  0  0  0  0
 33 32  1  0  0  0  0
 34 35  1  0  0  0  0
 35 36  2  0  0  0  0
 35 42  1  0  0  0  0
 36 37  1  0  0  0  0
 37 38  1  0  0  0  0
 37 39  2  0  0  0  0
 39 40  1  0  0  0  0
 41 39  1  0  0  0  0
 42 41  2  0  0  0  0
M  END
>  <minimizedAffinity>
-6.35600615

$$$$

 OpenBabel03272501283D

 42 46  0  0  1  0  0  0  0  0999 V2000
   38.5690   24.5810   35.5680 C   0  0  0  0  0  0  0  0  0  0  0  0
   38.0000   24.1760   36.7780 C   0  0  0  0  0  0  0  0  0  0  0  0
   38.8730   23.2330   37.3420 C   0  0  0  0  0  0  0  0  0  0  0  0
   39.8980   23.1090   36.4810 N   0  0  0  0  0  0  0  0  0  0  0  0
   39.7030   23.9130   35.4350 N   0  0  0  0  0  0  0  0  0  0  0  0
   37.0640   24.5020   37.2350 H   0  0  0  0  0  0  0  0  0  0  0  0
   38.7450   22.7070   38.2860 H   0  0  0  0  0  0  0  0  0  0  0  0
   41.2900   21.4850   35.3840 N   0  0  0  0  0  0  0  0  0  0  0  0
   42.6640   21.0520   35.4970 C   0  0  0  0  0  0  0  0  0  0  0  0
   43.3320   21.9270   36.5320 C   0  0  0  0  0  0  0  0  0  0  0  0
   42.3150   23.0640   36.6720 C   0  0  0  0  0  0  0  0  0  0  0  0
   41.0510   22.2810   36.5770 C   0  0  1  0  0  0  0  0  0  0  0  0
   41.1990   22.1290   34.5640 H   0  0  0  0  0  0  0  0  0  0  0  0
   43.1780   21.2110   34.5090 H   0  0  0  0  0  0  0  0  0  0  0  0
   42.7500   19.9650   35.7530 H   0  0  0  0  0  0  0  0  0  0  0  0
   44.3170   22.2870   36.2320 H   0  0  0  0  0  0  0  0  0  0  0  0
   43.3150   21.3750   37.4940 H   0  0  0  0  0  0  0  0  0  0  0  0
   42.3960   23.5670   37.6610 H   0  0  0  0  0  0  0  0  0  0  0  0
   42.3900   23.7680   35.8240 H   0  0  0  0  0  0  0  0  0  0  0  0
   40.9140   21.4300   37.7520 N   0  0  0  0  0  0  0  0  0  0  0  0
   41.4350   21.8260   38.5620 H   0  0  0  0  0  0  0  0  0  0  0  0
   41.1760   20.4400   37.5570 H   0  0  0  0  0  0  0  0  0  0  0  0
   37.7330   26.8830   35.0920 C   0  0  0  0  0  0  0  0  0  0  0  0
   37.9300   25.5570   34.7180 C   0  0  0  0  0  0  0  0  0  0  0  0
   37.4710   25.2010   33.4570 C   0  0  0  0  0  0  0  0  0  0  0  0
   36.8790   26.1370   32.6980 N   0  0  0  0  0  0  0  0  0  0  0  0
   36.6990   27.3980   33.0720 C   0  0  0  0  0  0  0  0  0  0  0  0
   37.1400   27.7700   34.2990 N   0  0  0  0  0  0  0  0  0  0  0  0
   38.1130   27.1020   36.0870 H   0  0  0  0  0  0  0  0  0  0  0  0
   37.5600   24.2090   33.0450 H   0  0  0  0  0  0  0  0  0  0  0  0
   36.0870   28.5390   32.3950 C   0  0  0  0  0  0  0  0  0  0  0  0
   34.9110   29.1080   32.7350 N   0  0  0  0  0  0  0  0  0  0  0  0
   34.3500   30.1480   32.1180 C   0  0  0  0  0  3  0  0  0  0  0  0
   34.9250   30.7470   31.0650 N   0  0  0  0  0  0  0  0  0  0  0  0
   36.1000   30.2520   30.6500 C   0  0  0  0  0  0  0  0  0  0  0  0
   36.6800   30.8750   29.5690 C   0  0  0  0  0  3  0  0  0  0  0  0
   37.8880   30.4270   29.0800 C   0  0  0  0  0  0  0  0  0  0  0  0
   38.2980   30.9490   28.2320 H   0  0  0  0  0  0  0  0  0  0  0  0
   38.4780   29.3510   29.7110 C   0  0  0  0  0  0  0  0  0  0  0  0
   39.4230   29.0300   29.3000 H   0  0  0  0  0  0  0  0  0  0  0  0
   37.8480   28.7720   30.7870 C   0  0  0  0  0  3  0  0  0  0  0  0
   36.6440   29.1780   31.3140 C   0  0  0  0  0  0  0  0  0  0  0  0
  1  2  1  0  0  0  0
  2  6  1  0  0  0  0
  2  3  2  0  0  0  0
  3  7  1  0  0  0  0
  4 12  1  0  0  0  0
  4  3  1  0  0  0  0
  5  1  2  0  0  0  0
  5  4  1  0  0  0  0
  8  9  1  0  0  0  0
  8 12  1  0  0  0  0
  9 15  1  0  0  0  0
  9 10  1  0  0  0  0
 10 11  1  0  0  0  0
 10 17  1  0  0  0  0
 11 18  1  0  0  0  0
 12 11  1  0  0  0  0
 12 20  1  1  0  0  0
 13  8  1  0  0  0  0
 14  9  1  0  0  0  0
 16 10  1  0  0  0  0
 19 11  1  0  0  0  0
 20 21  1  0  0  0  0
 22 20  1  0  0  0  0
 23 29  1  0  0  0  0
 24 23  1  0  0  0  0
 24  1  1  0  0  0  0
 25 24  2  0  0  0  0
 26 27  2  0  0  0  0
 26 25  1  0  0  0  0
 27 28  1  0  0  0  0
 28 23  2  0  0  0  0
 30 25  1  0  0  0  0
 31 32  1  0  0  0  0
 31 27  1  0  0  0  0
 33 32  2  0  0  0  0
 34 33  1  0  0  0  0
 35 34  2  0  0  0  0
 35 42  1  0  0  0  0
 36 35  1  0  0  0  0
 37 36  2  0  0  0  0
 37 39  1  0  0  0  0
 38 37  1  0  0  0  0
 39 41  2  0  0  0  0
 40 39  1  0  0  0  0
 41 42  1  0  0  0  0
 42 31  2  0  0  0  0
M  END
>  <minimizedAffinity>
-6.2575736

$$$$

 OpenBabel03272501283D

 42 46  0  0  1  0  0  0  0  0999 V2000
   36.3120   28.2520   32.7790 C   0  0  0  0  0  0  0  0  0  0  0  0
   36.7860   28.5890   31.5090 C   0  0  0  0  0  0  0  0  0  0  0  0
   35.9540   29.6090   31.0230 C   0  0  0  0  0  0  0  0  0  0  0  0
   35.0420   29.8390   31.9830 N   0  0  0  0  0  0  0  0  0  0  0  0
   35.2660   29.0280   33.0170 N   0  0  0  0  0  0  0  0  0  0  0  0
   37.6330   28.1700   30.9630 H   0  0  0  0  0  0  0  0  0  0  0  0
   36.0310   30.1120   30.0600 H   0  0  0  0  0  0  0  0  0  0  0  0
   33.6570   31.3040   30.6740 N   0  0  0  0  0  0  0  0  0  0  0  0
   32.3400   31.8820   30.8110 C   0  0  0  0  0  0  0  0  0  0  0  0
   31.7300   31.3290   32.0770 C   0  0  0  0  0  0  0  0  0  0  0  0
   32.6710   30.1580   32.3820 C   0  0  0  0  0  0  0  0  0  0  0  0
   33.9700   30.7750   31.9920 C   0  0  1  0  0  0  0  0  0  0  0  0
   33.6080   30.4880   30.0210 H   0  0  0  0  0  0  0  0  0  0  0  0
   31.7080   31.5570   29.9390 H   0  0  0  0  0  0  0  0  0  0  0  0
   32.3620   33.0010   30.8140 H   0  0  0  0  0  0  0  0  0  0  0  0
   30.6950   31.0080   31.9620 H   0  0  0  0  0  0  0  0  0  0  0  0
   31.8950   32.0770   32.8790 H   0  0  0  0  0  0  0  0  0  0  0  0
   32.6660   29.8990   33.4640 H   0  0  0  0  0  0  0  0  0  0  0  0
   32.4500   29.2940   31.7310 H   0  0  0  0  0  0  0  0  0  0  0  0
   34.2990   31.8500   32.9190 N   0  0  0  0  0  0  0  0  0  0  0  0
   33.8460   31.6960   33.8440 H   0  0  0  0  0  0  0  0  0  0  0  0
   34.0900   32.7910   32.5250 H   0  0  0  0  0  0  0  0  0  0  0  0
   37.3600   27.4310   34.8890 C   0  0  0  0  0  0  0  0  0  0  0  0
   36.9420   27.2280   33.5780 C   0  0  0  0  0  0  0  0  0  0  0  0
   37.1660   25.9620   33.0520 C   0  0  0  0  0  0  0  0  0  0  0  0
   37.7580   25.0390   33.8250 N   0  0  0  0  0  0  0  0  0  0  0  0
   38.1510   25.2510   35.0760 C   0  0  0  0  0  0  0  0  0  0  0  0
   37.9430   26.4790   35.6110 N   0  0  0  0  0  0  0  0  0  0  0  0
   37.1580   28.4390   35.2450 H   0  0  0  0  0  0  0  0  0  0  0  0
   36.8910   25.6720   32.0510 H   0  0  0  0  0  0  0  0  0  0  0  0
   38.8020   24.3840   36.0550 C   0  0  0  0  0  0  0  0  0  0  0  0
   38.2570   23.9780   37.2210 N   0  0  0  0  0  0  0  0  0  0  0  0
   38.8500   23.1880   38.1160 C   0  0  0  0  0  3  0  0  0  0  0  0
   40.0870   22.7060   37.9330 N   0  0  0  0  0  0  0  0  0  0  0  0
   40.7150   23.0550   36.8000 C   0  0  0  0  0  0  0  0  0  0  0  0
   41.9840   22.5550   36.6230 C   0  0  0  0  0  3  0  0  0  0  0  0
   42.6970   22.8660   35.4850 C   0  0  0  0  0  0  0  0  0  0  0  0
   43.6860   22.4480   35.3960 H   0  0  0  0  0  0  0  0  0  0  0  0
   42.0930   23.6830   34.5520 C   0  0  0  0  0  0  0  0  0  0  0  0
   42.6820   23.9030   33.6750 H   0  0  0  0  0  0  0  0  0  0  0  0
   40.8220   24.1510   34.7870 C   0  0  0  0  0  3  0  0  0  0  0  0
   40.0680   23.8710   35.9030 C   0  0  0  0  0  0  0  0  0  0  0  0
  1  5  2  0  0  0  0
  1 24  1  0  0  0  0
  2  1  1  0  0  0  0
  3  2  2  0  0  0  0
  3  4  1  0  0  0  0
  4 12  1  0  0  0  0
  4  5  1  0  0  0  0
  6  2  1  0  0  0  0
  7  3  1  0  0  0  0
  8  9  1  0  0  0  0
  8 12  1  0  0  0  0
  9 15  1  0  0  0  0
  9 10  1  0  0  0  0
 10 11  1  0  0  0  0
 10 17  1  0  0  0  0
 11 18  1  0  0  0  0
 12 11  1  0  0  0  0
 12 20  1  1  0  0  0
 13  8  1  0  0  0  0
 14  9  1  0  0  0  0
 16 10  1  0  0  0  0
 19 11  1  0  0  0  0
 20 21  1  0  0  0  0
 22 20  1  0  0  0  0
 23 29  1  0  0  0  0
 23 28  1  0  0  0  0
 24 23  2  0  0  0  0
 25 24  1  0  0  0  0
 25 26  2  0  0  0  0
 26 27  1  0  0  0  0
 27 28  2  0  0  0  0
 27 31  1  0  0  0  0
 30 25  1  0  0  0  0
 31 32  1  0  0  0  0
 32 33  2  0  0  0  0
 34 33  1  0  0  0  0
 35 34  2  0  0  0  0
 36 35  1  0  0  0  0
 37 36  2  0  0  0  0
 38 37  1  0  0  0  0
 39 41  2  0  0  0  0
 39 37  1  0  0  0  0
 40 39  1  0  0  0  0
 41 42  1  0  0  0  0
 42 31  2  0  0  0  0
 42 35  1  0  0  0  0
M  END
>  <minimizedAffinity>
-6.19089413

$$$$

 OpenBabel03272501283D

 42 46  0  0  1  0  0  0  0  0999 V2000
   37.6010   25.6760   33.9380 C   0  0  0  0  0  0  0  0  0  0  0  0
   38.3100   24.8980   33.0190 C   0  0  0  0  0  0  0  0  0  0  0  0
   38.9040   23.8540   33.7440 C   0  0  0  0  0  0  0  0  0  0  0  0
   38.5450   24.0350   35.0260 N   0  0  0  0  0  0  0  0  0  0  0  0
   37.7730   25.1180   35.1260 N   0  0  0  0  0  0  0  0  0  0  0  0
   38.4090   25.0370   31.9410 H   0  0  0  0  0  0  0  0  0  0  0  0
   39.5310   23.0580   33.3470 H   0  0  0  0  0  0  0  0  0  0  0  0
   40.3100   23.0340   36.3140 N   0  0  0  0  0  0  0  0  0  0  0  0
   40.4800   22.6070   37.6840 C   0  0  0  0  0  0  0  0  0  0  0  0
   39.2210   22.9740   38.4340 C   0  0  0  0  0  0  0  0  0  0  0  0
   38.5500   23.9380   37.4490 C   0  0  0  0  0  0  0  0  0  0  0  0
   38.8810   23.2540   36.1680 C   0  0  1  0  0  0  0  0  0  0  0  0
   40.7770   23.9620   36.1830 H   0  0  0  0  0  0  0  0  0  0  0  0
   41.3420   23.1710   38.1360 H   0  0  0  0  0  0  0  0  0  0  0  0
   40.7100   21.5150   37.7650 H   0  0  0  0  0  0  0  0  0  0  0  0
   39.4070   23.4360   39.4040 H   0  0  0  0  0  0  0  0  0  0  0  0
   38.5800   22.0690   38.4680 H   0  0  0  0  0  0  0  0  0  0  0  0
   37.4490   23.9800   37.6030 H   0  0  0  0  0  0  0  0  0  0  0  0
   39.0280   24.9330   37.4840 H   0  0  0  0  0  0  0  0  0  0  0  0
   38.1650   21.9880   36.0900 N   0  0  0  0  0  0  0  0  0  0  0  0
   37.2990   22.0130   36.6690 H   0  0  0  0  0  0  0  0  0  0  0  0
   38.7730   21.1740   36.3200 H   0  0  0  0  0  0  0  0  0  0  0  0
   36.3280   27.0060   32.2540 C   0  0  0  0  0  0  0  0  0  0  0  0
   36.8580   26.8450   33.5300 C   0  0  0  0  0  0  0  0  0  0  0  0
   36.6400   27.8860   34.4220 C   0  0  0  0  0  0  0  0  0  0  0  0
   35.9480   28.9580   34.0040 N   0  0  0  0  0  0  0  0  0  0  0  0
   35.4490   29.0960   32.7810 C   0  0  0  0  0  0  0  0  0  0  0  0
   35.6490   28.0900   31.8930 N   0  0  0  0  0  0  0  0  0  0  0  0
   36.5300   26.1590   31.6020 H   0  0  0  0  0  0  0  0  0  0  0  0
   36.9960   27.8900   35.4400 H   0  0  0  0  0  0  0  0  0  0  0  0
   34.6840   30.1700   32.1540 C   0  0  0  0  0  0  0  0  0  0  0  0
   35.1950   31.1260   31.3500 N   0  0  0  0  0  0  0  0  0  0  0  0
   34.4990   32.1080   30.7780 C   0  0  0  0  0  3  0  0  0  0  0  0
   33.1760   32.2400   30.9550 N   0  0  0  0  0  0  0  0  0  0  0  0
   32.5730   31.3350   31.7400 C   0  0  0  0  0  0  0  0  0  0  0  0
   31.2160   31.4810   31.9140 C   0  0  0  0  0  3  0  0  0  0  0  0
   30.5220   30.5920   32.7060 C   0  0  0  0  0  0  0  0  0  0  0  0
   29.4610   30.7510   32.8090 H   0  0  0  0  0  0  0  0  0  0  0  0
   31.2330   29.5720   33.3030 C   0  0  0  0  0  0  0  0  0  0  0  0
   30.6550   28.8970   33.9150 H   0  0  0  0  0  0  0  0  0  0  0  0
   32.5880   29.4800   33.0910 C   0  0  0  0  0  3  0  0  0  0  0  0
   33.3290   30.3380   32.3110 C   0  0  0  0  0  0  0  0  0  0  0  0
  1  5  2  0  0  0  0
  2  3  2  0  0  0  0
  2  1  1  0  0  0  0
  3  4  1  0  0  0  0
  4  5  1  0  0  0  0
  4 12  1  0  0  0  0
  6  2  1  0  0  0  0
  7  3  1  0  0  0  0
  8  9  1  0  0  0  0
  9 15  1  0  0  0  0
  9 14  1  0  0  0  0
  9 10  1  0  0  0  0
 10 17  1  0  0  0  0
 10 16  1  0  0  0  0
 11 19  1  0  0  0  0
 11 18  1  0  0  0  0
 11 10  1  0  0  0  0
 12 20  1  6  0  0  0
 12  8  1  0  0  0  0
 12 11  1  0  0  0  0
 13  8  1  0  0  0  0
 20 22  1  0  0  0  0
 20 21  1  0  0  0  0
 23 24  1  0  0  0  0
 24  1  1  0  0  0  0
 24 25  2  0  0  0  0
 25 30  1  0  0  0  0
 26 25  1  0  0  0  0
 27 26  2  0  0  0  0
 28 23  2  0  0  0  0
 28 27  1  0  0  0  0
 29 23  1  0  0  0  0
 31 42  1  0  0  0  0
 31 27  1  0  0  0  0
 32 31  2  0  0  0  0
 33 34  2  0  0  0  0
 33 32  1  0  0  0  0
 34 35  1  0  0  0  0
 35 36  2  0  0  0  0
 35 42  1  0  0  0  0
 36 37  1  0  0  0  0
 37 38  1  0  0  0  0
 37 39  2  0  0  0  0
 39 40  1  0  0  0  0
 41 39  1  0  0  0  0
 42 41  2  0  0  0  0
M  END
>  <minimizedAffinity>
-5.96877098

$$$$

 OpenBabel03272501283D

 42 46  0  0  1  0  0  0  0  0999 V2000
   36.4480   28.1020   33.7980 C   0  0  0  0  0  0  0  0  0  0  0  0
   35.9100   28.2330   32.5150 C   0  0  0  0  0  0  0  0  0  0  0  0
   34.7540   29.0180   32.6380 C   0  0  0  0  0  0  0  0  0  0  0  0
   34.6420   29.3190   33.9440 N   0  0  0  0  0  0  0  0  0  0  0  0
   35.6520   28.7690   34.6170 N   0  0  0  0  0  0  0  0  0  0  0  0
   36.2830   27.8240   31.5740 H   0  0  0  0  0  0  0  0  0  0  0  0
   34.0820   29.3220   31.8370 H   0  0  0  0  0  0  0  0  0  0  0  0
   32.7540   29.2970   35.4310 N   0  0  0  0  0  0  0  0  0  0  0  0
   32.1100   30.2520   36.3030 C   0  0  0  0  0  0  0  0  0  0  0  0
   32.9200   31.5260   36.2590 C   0  0  0  0  0  0  0  0  0  0  0  0
   34.2140   31.0410   35.5960 C   0  0  0  0  0  0  0  0  0  0  0  0
   33.6430   30.0920   34.6000 C   0  0  1  0  0  0  0  0  0  0  0  0
   33.3580   28.6620   36.0040 H   0  0  0  0  0  0  0  0  0  0  0  0
   32.1270   29.8540   37.3550 H   0  0  0  0  0  0  0  0  0  0  0  0
   31.0390   30.4290   36.0260 H   0  0  0  0  0  0  0  0  0  0  0  0
   33.0970   31.9680   37.2390 H   0  0  0  0  0  0  0  0  0  0  0  0
   32.4330   32.2040   35.5280 H   0  0  0  0  0  0  0  0  0  0  0  0
   34.7510   31.8720   35.0880 H   0  0  0  0  0  0  0  0  0  0  0  0
   34.8470   30.4980   36.3200 H   0  0  0  0  0  0  0  0  0  0  0  0
   32.8930   30.8310   33.5940 N   0  0  0  0  0  0  0  0  0  0  0  0
   33.2430   31.8080   33.5110 H   0  0  0  0  0  0  0  0  0  0  0  0
   31.8650   30.7900   33.7580 H   0  0  0  0  0  0  0  0  0  0  0  0
   38.4220   27.4870   35.1950 C   0  0  0  0  0  0  0  0  0  0  0  0
   37.6560   27.3500   34.0410 C   0  0  0  0  0  0  0  0  0  0  0  0
   38.1180   26.4360   33.1040 C   0  0  0  0  0  0  0  0  0  0  0  0
   39.2470   25.7590   33.3660 N   0  0  0  0  0  0  0  0  0  0  0  0
   39.9660   25.9030   34.4730 C   0  0  0  0  0  0  0  0  0  0  0  0
   39.5340   26.7900   35.4040 N   0  0  0  0  0  0  0  0  0  0  0  0
   38.0100   28.2150   35.8910 H   0  0  0  0  0  0  0  0  0  0  0  0
   37.6220   26.2330   32.1690 H   0  0  0  0  0  0  0  0  0  0  0  0
   41.2000   25.2670   34.9260 C   0  0  0  0  0  0  0  0  0  0  0  0
   42.4450   25.7500   34.7300 N   0  0  0  0  0  0  0  0  0  0  0  0
   43.5720   25.1700   35.1410 C   0  0  0  0  0  3  0  0  0  0  0  0
   43.5730   24.0110   35.8140 N   0  0  0  0  0  0  0  0  0  0  0  0
   42.3810   23.4490   36.0590 C   0  0  0  0  0  0  0  0  0  0  0  0
   42.3940   22.2590   36.7500 C   0  0  0  0  0  3  0  0  0  0  0  0
   41.2100   21.6160   37.0420 C   0  0  0  0  0  0  0  0  0  0  0  0
   41.2760   20.6880   37.5850 H   0  0  0  0  0  0  0  0  0  0  0  0
   40.0370   22.2070   36.6210 C   0  0  0  0  0  0  0  0  0  0  0  0
   39.1310   21.6750   36.8690 H   0  0  0  0  0  0  0  0  0  0  0  0
   40.0900   23.3980   35.9340 C   0  0  0  0  0  3  0  0  0  0  0  0
   41.2410   24.0790   35.6180 C   0  0  0  0  0  0  0  0  0  0  0  0
  1 24  1  0  0  0  0
  1  5  2  0  0  0  0
  2  3  2  0  0  0  0
  2  1  1  0  0  0  0
  3  4  1  0  0  0  0
  4 12  1  0  0  0  0
  4  5  1  0  0  0  0
  6  2  1  0  0  0  0
  7  3  1  0  0  0  0
  8 13  1  0  0  0  0
  8  9  1  0  0  0  0
  9 14  1  0  0  0  0
 10  9  1  0  0  0  0
 10 16  1  0  0  0  0
 11 10  1  0  0  0  0
 11 19  1  0  0  0  0
 12 20  1  6  0  0  0
 12  8  1  0  0  0  0
 12 11  1  0  0  0  0
 15  9  1  0  0  0  0
 17 10  1  0  0  0  0
 18 11  1  0  0  0  0
 20 22  1  0  0  0  0
 21 20  1  0  0  0  0
 23 28  1  0  0  0  0
 23 29  1  0  0  0  0
 24 23  2  0  0  0  0
 25 26  2  0  0  0  0
 25 24  1  0  0  0  0
 26 27  1  0  0  0  0
 27 31  1  0  0  0  0
 27 28  2  0  0  0  0
 30 25  1  0  0  0  0
 31 42  1  0  0  0  0
 32 31  2  0  0  0  0
 32 33  1  0  0  0  0
 33 34  2  0  0  0  0
 34 35  1  0  0  0  0
 35 36  1  0  0  0  0
 36 37  2  0  0  0  0
 37 38  1  0  0  0  0
 39 40  1  0  0  0  0
 39 37  1  0  0  0  0
 41 39  2  0  0  0  0
 42 41  1  0  0  0  0
 42 35  2  0  0  0  0
M  END
>  <minimizedAffinity>
-5.95296431

$$$$
