
 OpenBabel03272501493D

 23 25  0  0  0  0  0  0  0  0999 V2000
   38.3290   32.2940   48.8640 C   0  0  0  0  0  0  0  0  0  0  0  0
   38.6950   33.4610   49.4380 N   0  0  0  0  0  0  0  0  0  0  0  0
   39.5270   34.3520   48.8950 C   0  0  0  0  0  0  0  0  0  0  0  0
   40.0850   34.1470   47.6890 N   0  0  0  0  0  0  0  0  0  0  0  0
   39.7870   33.0050   47.0180 C   0  0  0  0  0  0  0  0  0  0  0  0
   40.3500   32.7800   45.7810 C   0  0  0  0  0  0  0  0  0  0  0  0
   40.0630   31.6250   45.0810 C   0  0  0  0  0  0  0  0  0  0  0  0
   40.5680   31.5700   44.1260 H   0  0  0  0  0  0  0  0  0  0  0  0
   39.1860   30.7220   45.6910 C   0  0  0  0  0  0  0  0  0  0  0  0
   39.0090   29.8370   45.0760 H   0  0  0  0  0  0  0  0  0  0  0  0
   38.6630   31.0000   46.9140 C   0  0  0  0  0  0  0  0  0  0  0  0
   38.9220   32.1230   47.6310 C   0  0  0  0  0  0  0  0  0  0  0  0
   37.2480   29.7310   51.2850 C   0  0  0  0  0  0  0  0  0  0  0  0
   38.0090   30.6540   50.5710 C   0  0  0  0  0  0  0  0  0  0  0  0
   37.4340   31.3880   49.5030 C   0  0  0  0  0  0  0  0  0  0  0  0
   36.1410   31.0710   49.3120 N   0  0  0  0  0  0  0  0  0  0  0  0
   35.4060   30.2050   49.9750 C   0  0  0  0  0  0  0  0  0  0  0  0
   35.9600   29.5140   50.9870 N   0  0  0  0  0  0  0  0  0  0  0  0
   34.0700   30.1000   49.5300 N   0  0  0  0  0  0  0  0  0  0  0  0
   37.6930   29.1790   52.0940 H   0  0  0  0  0  0  0  0  0  0  0  0
   39.0180   30.7730   50.8620 H   0  0  0  0  0  0  0  0  0  0  0  0
   34.0210   29.4750   48.7070 H   0  0  0  0  0  0  0  0  0  0  0  0
   33.2680   30.5930   49.9860 H   0  0  0  0  0  0  0  0  0  0  0  0
  1  2  1  0  0  0  0
  1 15  1  0  0  0  0
  3  2  2  0  0  0  0
  4  3  1  0  0  0  0
  5 12  1  0  0  0  0
  5  4  2  0  0  0  0
  6  5  1  0  0  0  0
  7  9  1  0  0  0  0
  7  6  2  0  0  0  0
  8  7  1  0  0  0  0
  9 11  2  0  0  0  0
 10  9  1  0  0  0  0
 11 12  1  0  0  0  0
 12  1  2  0  0  0  0
 13 20  1  0  0  0  0
 14 21  1  0  0  0  0
 14 13  2  0  0  0  0
 15 14  1  0  0  0  0
 16 15  2  0  0  0  0
 16 17  1  0  0  0  0
 17 18  2  0  0  0  0
 18 13  1  0  0  0  0
 19 17  1  0  0  0  0
 19 23  1  0  0  0  0
 22 19  1  0  0  0  0
M  END
>  <minimizedAffinity>
-6.51369619

>  <minimizedRMSD>
1.84393692

$$$$
