
 OpenBabel03272510073D

 33 36  0  0  0  0  0  0  0  0999 V2000
   33.5330   27.4930   48.1600 C   0  0  0  0  0  0  0  0  0  0  0  0
   32.8490   28.3570   47.3000 C   0  0  0  0  0  0  0  0  0  0  0  0
   33.3340   29.6800   47.1400 C   0  0  0  0  0  0  0  0  0  0  0  0
   34.4510   30.0530   47.8360 N   0  0  0  0  0  0  0  0  0  0  0  0
   35.0700   29.1670   48.6560 C   0  0  0  0  0  0  0  0  0  0  0  0
   34.6290   27.9060   48.8230 N   0  0  0  0  0  0  0  0  0  0  0  0
   36.2430   29.6280   49.3650 N   0  0  0  0  0  0  0  0  0  0  0  0
   37.4480   30.0960   48.7180 C   0  0  0  0  0  0  0  0  0  0  0  0
   38.2560   30.7000   49.8150 C   0  0  0  0  0  0  0  0  0  0  0  0
   37.3500   30.7680   51.0360 C   0  0  0  0  0  0  0  0  0  0  0  0
   36.3680   29.6810   50.8210 C   0  0  0  0  0  0  0  0  0  0  0  0
   33.1550   26.5010   48.2470 H   0  0  0  0  0  0  0  0  0  0  0  0
   32.8770   30.4150   46.5020 H   0  0  0  0  0  0  0  0  0  0  0  0
   38.0220   29.2780   48.2380 H   0  0  0  0  0  0  0  0  0  0  0  0
   37.2290   30.8320   47.9160 H   0  0  0  0  0  0  0  0  0  0  0  0
   38.5810   31.7160   49.5320 H   0  0  0  0  0  0  0  0  0  0  0  0
   39.1650   30.0960   50.0220 H   0  0  0  0  0  0  0  0  0  0  0  0
   36.8930   31.7810   51.1160 H   0  0  0  0  0  0  0  0  0  0  0  0
   37.9780   30.5340   51.9310 H   0  0  0  0  0  0  0  0  0  0  0  0
   36.6590   28.7180   51.2560 H   0  0  0  0  0  0  0  0  0  0  0  0
   35.3880   29.9890   51.2870 H   0  0  0  0  0  0  0  0  0  0  0  0
   31.6590   28.1040   46.5380 C   0  0  0  0  0  0  0  0  0  0  0  0
   30.4980   28.5180   47.0990 N   0  0  0  0  0  0  0  0  0  0  0  0
   29.3460   28.3130   46.4470 C   0  0  0  0  0  3  0  0  0  0  0  0
   29.2290   27.7060   45.2300 N   0  0  0  0  0  0  0  0  0  0  0  0
   30.3640   27.2830   44.6440 C   0  0  0  0  0  0  0  0  0  0  0  0
   30.3790   26.6390   43.4060 C   0  0  0  0  0  3  0  0  0  0  0  0
   31.5750   26.2000   42.8330 C   0  0  0  0  0  0  0  0  0  0  0  0
   31.5580   25.7050   41.8740 H   0  0  0  0  0  0  0  0  0  0  0  0
   32.7780   26.4130   43.5150 C   0  0  0  0  0  0  0  0  0  0  0  0
   33.7100   26.0690   43.0630 H   0  0  0  0  0  0  0  0  0  0  0  0
   32.7210   27.0530   44.7350 C   0  0  0  0  0  3  0  0  0  0  0  0
   31.5480   27.4900   45.3090 C   0  0  0  0  0  0  0  0  0  0  0  0
  1 12  1  0  0  0  0
  1  6  1  0  0  0  0
  2  1  2  0  0  0  0
  3  2  1  0  0  0  0
  3  4  2  0  0  0  0
  4  5  1  0  0  0  0
  5  6  2  0  0  0  0
  5  7  1  0  0  0  0
  7 11  1  0  0  0  0
  8  7  1  0  0  0  0
  8  9  1  0  0  0  0
  9 17  1  0  0  0  0
  9 10  1  0  0  0  0
 10 18  1  0  0  0  0
 10 19  1  0  0  0  0
 11 10  1  0  0  0  0
 11 20  1  0  0  0  0
 11 21  1  0  0  0  0
 13  3  1  0  0  0  0
 14  8  1  0  0  0  0
 15  8  1  0  0  0  0
 16  9  1  0  0  0  0
 22 23  1  0  0  0  0
 22  2  1  0  0  0  0
 24 23  2  0  0  0  0
 25 24  1  0  0  0  0
 26 25  2  0  0  0  0
 26 33  1  0  0  0  0
 27 26  1  0  0  0  0
 28 27  2  0  0  0  0
 28 30  1  0  0  0  0
 29 28  1  0  0  0  0
 30 32  2  0  0  0  0
 31 30  1  0  0  0  0
 32 33  1  0  0  0  0
 33 22  2  0  0  0  0
M  END
>  <minimizedAffinity>
-4.48239183

>  <minimizedRMSD>
10.0048294

$$$$
