
 OpenBabel03272510073D

 33 36  0  0  0  0  0  0  0  0999 V2000
   36.2550   30.0280   48.2020 C   0  0  0  0  0  0  0  0  0  0  0  0
   36.6190   30.5350   46.9510 C   0  0  0  0  0  0  0  0  0  0  0  0
   35.8060   30.2290   45.8310 C   0  0  0  0  0  0  0  0  0  0  0  0
   34.7000   29.4490   46.0230 N   0  0  0  0  0  0  0  0  0  0  0  0
   34.3990   28.9860   47.2620 C   0  0  0  0  0  0  0  0  0  0  0  0
   35.1550   29.2640   48.3410 N   0  0  0  0  0  0  0  0  0  0  0  0
   33.2180   28.1620   47.3930 N   0  0  0  0  0  0  0  0  0  0  0  0
   31.8810   28.6090   47.0750 C   0  0  0  0  0  0  0  0  0  0  0  0
   31.0500   27.3710   47.1090 C   0  0  0  0  0  0  0  0  0  0  0  0
   32.0170   26.2020   47.2130 C   0  0  0  0  0  0  0  0  0  0  0  0
   33.2170   26.7770   47.8640 C   0  0  0  0  0  0  0  0  0  0  0  0
   36.8750   30.2890   49.0280 H   0  0  0  0  0  0  0  0  0  0  0  0
   36.0060   30.5730   44.8310 H   0  0  0  0  0  0  0  0  0  0  0  0
   31.4880   29.3420   47.8080 H   0  0  0  0  0  0  0  0  0  0  0  0
   31.8350   29.1070   46.0830 H   0  0  0  0  0  0  0  0  0  0  0  0
   30.4570   27.2870   46.1830 H   0  0  0  0  0  0  0  0  0  0  0  0
   30.3440   27.3870   47.9670 H   0  0  0  0  0  0  0  0  0  0  0  0
   32.2130   25.7760   46.2030 H   0  0  0  0  0  0  0  0  0  0  0  0
   31.5520   25.4430   47.8910 H   0  0  0  0  0  0  0  0  0  0  0  0
   33.2160   26.7020   48.9580 H   0  0  0  0  0  0  0  0  0  0  0  0
   34.1260   26.2320   47.4800 H   0  0  0  0  0  0  0  0  0  0  0  0
   37.7610   31.3370   46.6100 C   0  0  0  0  0  0  0  0  0  0  0  0
   38.2910   31.1160   45.3840 N   0  0  0  0  0  0  0  0  0  0  0  0
   39.3610   31.8240   44.9950 C   0  0  0  0  0  3  0  0  0  0  0  0
   39.9850   32.7780   45.7470 N   0  0  0  0  0  0  0  0  0  0  0  0
   39.4830   33.0220   46.9710 C   0  0  0  0  0  0  0  0  0  0  0  0
   40.0370   33.9640   47.8390 C   0  0  0  0  0  3  0  0  0  0  0  0
   39.4970   34.1820   49.1090 C   0  0  0  0  0  0  0  0  0  0  0  0
   39.9450   34.9170   49.7620 H   0  0  0  0  0  0  0  0  0  0  0  0
   38.3810   33.4400   49.5140 C   0  0  0  0  0  0  0  0  0  0  0  0
   37.9630   33.6140   50.5080 H   0  0  0  0  0  0  0  0  0  0  0  0
   37.8640   32.5210   48.6280 C   0  0  0  0  0  3  0  0  0  0  0  0
   38.3860   32.2980   47.3720 C   0  0  0  0  0  0  0  0  0  0  0  0
  1  6  1  0  0  0  0
  1 12  1  0  0  0  0
  2  1  2  0  0  0  0
  3  4  2  0  0  0  0
  3  2  1  0  0  0  0
  4  5  1  0  0  0  0
  5  7  1  0  0  0  0
  5  6  2  0  0  0  0
  7 11  1  0  0  0  0
  8  9  1  0  0  0  0
  8  7  1  0  0  0  0
  8 14  1  0  0  0  0
  9 10  1  0  0  0  0
  9 17  1  0  0  0  0
 10 11  1  0  0  0  0
 10 19  1  0  0  0  0
 11 20  1  0  0  0  0
 13  3  1  0  0  0  0
 15  8  1  0  0  0  0
 16  9  1  0  0  0  0
 18 10  1  0  0  0  0
 21 11  1  0  0  0  0
 22  2  1  0  0  0  0
 22 33  1  0  0  0  0
 23 22  2  0  0  0  0
 24 23  1  0  0  0  0
 24 25  2  0  0  0  0
 25 26  1  0  0  0  0
 26 33  2  0  0  0  0
 26 27  1  0  0  0  0
 27 28  2  0  0  0  0
 28 30  1  0  0  0  0
 28 29  1  0  0  0  0
 30 31  1  0  0  0  0
 32 30  2  0  0  0  0
 33 32  1  0  0  0  0
M  END
>  <minimizedAffinity>
-5.69617748

>  <minimizedRMSD>
3.83903408

$$$$
