
 OpenBabel03272510083D

 47 52  0  0  0  0  0  0  0  0999 V2000
   35.8060   30.3680   47.1920 C   0  0  0  0  0  0  0  0  0  0  0  0
   36.0560   30.8700   48.4300 N   0  0  0  0  0  0  0  0  0  0  0  0
   37.2090   31.5040   48.6730 C   0  0  0  0  0  0  0  0  0  0  0  0
   38.1980   31.6920   47.7360 N   0  0  0  0  0  0  0  0  0  0  0  0
   37.9810   31.2070   46.5080 C   0  0  0  0  0  0  0  0  0  0  0  0
   38.9230   31.2910   45.4840 C   0  0  0  0  0  0  0  0  0  0  0  0
   38.6870   30.7350   44.2340 C   0  0  0  0  0  0  0  0  0  0  0  0
   37.4720   30.0730   43.9950 C   0  0  0  0  0  0  0  0  0  0  0  0
   36.5570   30.0150   45.0440 C   0  0  0  0  0  0  0  0  0  0  0  0
   36.7980   30.5610   46.2640 C   0  0  0  0  0  0  0  0  0  0  0  0
   37.4090   31.9010   49.6650 H   0  0  0  0  0  0  0  0  0  0  0  0
   39.8430   31.8220   45.7440 H   0  0  0  0  0  0  0  0  0  0  0  0
   39.5070   30.8880   43.5690 H   0  0  0  0  0  0  0  0  0  0  0  0
   37.5180   29.7280   42.9760 H   0  0  0  0  0  0  0  0  0  0  0  0
   34.2090   28.3650   47.2990 C   0  0  0  0  0  0  0  0  0  0  0  0
   34.5480   29.7200   47.0430 C   0  0  0  0  0  0  0  0  0  0  0  0
   33.5380   30.5820   46.5580 C   0  0  0  0  0  0  0  0  0  0  0  0
   32.2880   30.0940   46.3470 N   0  0  0  0  0  0  0  0  0  0  0  0
   32.0250   28.7730   46.6100 C   0  0  0  0  0  0  0  0  0  0  0  0
   32.9670   27.9200   47.0810 N   0  0  0  0  0  0  0  0  0  0  0  0
   30.6920   28.2940   46.3330 N   0  0  0  0  0  0  0  0  0  0  0  0
   29.5140   28.7990   46.9740 C   0  0  0  0  0  0  0  0  0  0  0  0
   28.3760   28.2240   46.1900 C   0  0  0  0  0  0  0  0  0  0  0  0
   28.9680   27.5880   44.9560 C   0  0  0  0  0  0  0  0  0  0  0  0
   30.3530   27.2370   45.3750 C   0  0  0  0  0  0  0  0  0  0  0  0
   35.0330   27.7910   47.6660 H   0  0  0  0  0  0  0  0  0  0  0  0
   33.6740   31.6070   46.3400 H   0  0  0  0  0  0  0  0  0  0  0  0
   29.4750   28.4930   48.0470 H   0  0  0  0  0  0  0  0  0  0  0  0
   29.5030   29.8990   46.8440 H   0  0  0  0  0  0  0  0  0  0  0  0
   27.6640   29.0060   45.8570 H   0  0  0  0  0  0  0  0  0  0  0  0
   27.8120   27.4800   46.8080 H   0  0  0  0  0  0  0  0  0  0  0  0
   28.9460   28.2660   44.0750 H   0  0  0  0  0  0  0  0  0  0  0  0
   28.3890   26.6690   44.7430 H   0  0  0  0  0  0  0  0  0  0  0  0
   31.0670   27.1440   44.5550 H   0  0  0  0  0  0  0  0  0  0  0  0
   30.3390   26.2600   45.9000 H   0  0  0  0  0  0  0  0  0  0  0  0
   35.4210   29.4180   44.3450 C   0  0  0  0  0  0  0  0  0  0  0  0
   34.8590   28.1990   44.2140 N   0  0  0  0  0  0  0  0  0  0  0  0
   33.8430   27.9760   43.3920 C   0  0  0  0  0  3  0  0  0  0  0  0
   33.3120   28.9370   42.6420 N   0  0  0  0  0  0  0  0  0  0  0  0
   33.7920   30.2020   42.6850 C   0  0  0  0  0  0  0  0  0  0  0  0
   33.1900   31.1010   41.8480 C   0  0  0  0  0  3  0  0  0  0  0  0
   33.6740   32.3770   41.8460 C   0  0  0  0  0  0  0  0  0  0  0  0
   33.2600   33.1240   41.2150 H   0  0  0  0  0  0  0  0  0  0  0  0
   34.7200   32.7180   42.6580 C   0  0  0  0  0  0  0  0  0  0  0  0
   35.1640   33.7210   42.7030 H   0  0  0  0  0  0  0  0  0  0  0  0
   35.2770   31.7650   43.4740 C   0  0  0  0  0  3  0  0  0  0  0  0
   34.8620   30.4310   43.5560 C   0  0  0  0  0  0  0  0  0  0  0  0
  1  2  1  0  0  0  0
  2  3  2  0  0  0  0
  3 11  1  0  0  0  0
  4  3  1  0  0  0  0
  5  4  2  0  0  0  0
  6 12  1  0  0  0  0
  6  5  1  0  0  0  0
  7  6  2  0  0  0  0
  8  7  1  0  0  0  0
  8  9  2  0  0  0  0
  9 10  1  0  0  0  0
 10  5  1  0  0  0  0
 10  1  2  0  0  0  0
 13  7  1  0  0  0  0
 14  8  1  0  0  0  0
 15 26  1  0  0  0  0
 16  1  1  0  0  0  0
 16 15  2  0  0  0  0
 17 16  1  0  0  0  0
 18 17  2  0  0  0  0
 18 19  1  0  0  0  0
 19 20  2  0  0  0  0
 20 15  1  0  0  0  0
 21 19  1  0  0  0  0
 21 22  1  0  0  0  0
 22 28  1  0  0  0  0
 23 31  1  0  0  0  0
 23 22  1  0  0  0  0
 24 25  1  0  0  0  0
 24 23  1  0  0  0  0
 25 35  1  0  0  0  0
 25 21  1  0  0  0  0
 27 17  1  0  0  0  0
 29 22  1  0  0  0  0
 30 23  1  0  0  0  0
 32 24  1  0  0  0  0
 33 24  1  0  0  0  0
 34 25  1  0  0  0  0
 36  9  1  0  0  0  0
 37 36  1  0  0  0  0
 38 37  2  0  0  0  0
 39 40  2  0  0  0  0
 39 38  1  0  0  0  0
 40 47  1  0  0  0  0
 41 40  1  0  0  0  0
 42 41  2  0  0  0  0
 42 44  1  0  0  0  0
 43 42  1  0  0  0  0
 44 45  1  0  0  0  0
 44 46  2  0  0  0  0
 46 47  1  0  0  0  0
 47 36  2  0  0  0  0
M  END
>  <minimizedAffinity>
-4.91865873

>  <minimizedRMSD>
2.85790801

$$$$
