
 OpenBabel03272506063D

 33 36  0  0  0  0  0  0  0  0999 V2000
   33.9150   28.5430   48.3920 C   0  0  0  0  0  0  0  0  0  0  0  0
   34.1080   29.2690   47.1600 C   0  0  0  0  0  0  0  0  0  0  0  0
   32.4840   29.0890   46.4510 S   0  0  0  0  0  0  0  0  0  0  0  0
   31.7930   28.0880   47.8780 C   0  0  0  0  0  0  0  0  0  0  0  0
   32.7380   28.0290   48.5960 N   0  0  0  0  0  0  0  0  0  0  0  0
   34.9950   29.7550   46.8220 H   0  0  0  0  0  0  0  0  0  0  0  0
   30.3760   27.7100   47.6740 C   0  0  0  0  0  0  0  0  0  0  0  0
   29.3030   28.4000   48.1010 N   0  0  0  0  0  0  0  0  0  0  0  0
   28.0430   28.0030   47.8830 C   0  0  0  0  0  3  0  0  0  0  0  0
   27.7780   26.8710   47.2150 N   0  0  0  0  0  0  0  0  0  0  0  0
   28.7850   26.1140   46.7490 C   0  0  0  0  0  0  0  0  0  0  0  0
   28.4860   24.9550   46.0660 C   0  0  0  0  0  3  0  0  0  0  0  0
   29.5310   24.1790   45.5880 C   0  0  0  0  0  0  0  0  0  0  0  0
   29.2800   23.2740   45.0540 H   0  0  0  0  0  0  0  0  0  0  0  0
   30.8350   24.6260   45.8350 C   0  0  0  0  0  0  0  0  0  0  0  0
   31.5600   23.9340   45.4130 H   0  0  0  0  0  0  0  0  0  0  0  0
   31.0880   25.7930   46.5240 C   0  0  0  0  0  3  0  0  0  0  0  0
   30.0670   26.5560   46.9920 C   0  0  0  0  0  0  0  0  0  0  0  0
   35.0790   28.4410   49.3310 C   0  0  0  0  0  0  0  0  0  0  0  0
   36.0290   28.2710   48.7430 H   0  0  0  0  0  0  0  0  0  0  0  0
   34.9910   27.5260   49.9540 H   0  0  0  0  0  0  0  0  0  0  0  0
   35.2430   29.6380   50.1850 C   0  0  0  0  0  0  0  0  0  0  0  0
   34.3060   30.2230   50.3440 H   0  0  0  0  0  0  0  0  0  0  0  0
   35.5900   29.3400   51.2170 H   0  0  0  0  0  0  0  0  0  0  0  0
   37.4880   32.5220   49.5900 C   0  0  0  0  0  0  0  0  0  0  0  0
   38.3760   32.0350   48.6340 C   0  0  0  0  0  0  0  0  0  0  0  0
   38.1910   30.7160   48.2060 C   0  0  0  0  0  0  0  0  0  0  0  0
   37.1800   29.9740   48.7190 N   0  0  0  0  0  0  0  0  0  0  0  0
   36.3450   30.5130   49.6540 C   0  0  0  0  0  0  0  0  0  0  0  0
   36.4980   31.7660   50.0810 N   0  0  0  0  0  0  0  0  0  0  0  0
   37.5890   33.5360   49.9540 H   0  0  0  0  0  0  0  0  0  0  0  0
   39.1780   32.6420   48.2350 H   0  0  0  0  0  0  0  0  0  0  0  0
   38.8440   30.3000   47.4770 H   0  0  0  0  0  0  0  0  0  0  0  0
  1  5  1  0  0  0  0
  1 19  1  0  0  0  0
  2  1  2  0  0  0  0
  3  2  1  0  0  0  0
  3  4  1  0  0  0  0
  4  5  2  0  0  0  0
  6  2  1  0  0  0  0
  7  4  1  0  0  0  0
  7  8  1  0  0  0  0
  9  8  2  0  0  0  0
 10  9  1  0  0  0  0
 11 18  1  0  0  0  0
 11 10  2  0  0  0  0
 12 11  1  0  0  0  0
 13 15  1  0  0  0  0
 13 12  2  0  0  0  0
 14 13  1  0  0  0  0
 15 17  2  0  0  0  0
 16 15  1  0  0  0  0
 17 18  1  0  0  0  0
 18  7  2  0  0  0  0
 19 21  1  0  0  0  0
 19 22  1  0  0  0  0
 20 19  1  0  0  0  0
 22 23  1  0  0  0  0
 22 24  1  0  0  0  0
 25 31  1  0  0  0  0
 25 30  1  0  0  0  0
 26 25  2  0  0  0  0
 27 26  1  0  0  0  0
 27 28  2  0  0  0  0
 28 29  1  0  0  0  0
 29 30  2  0  0  0  0
 29 22  1  0  0  0  0
 32 26  1  0  0  0  0
 33 27  1  0  0  0  0
M  END
>  <minimizedAffinity>
-5.29818249

>  <minimizedRMSD>
1.45684862

$$$$
