
 OpenBabel03272506073D

 33 36  0  0  0  0  0  0  0  0999 V2000
   34.4640   28.6210   48.6610 C   0  0  0  0  0  0  0  0  0  0  0  0
   34.3830   29.1610   47.3250 C   0  0  0  0  0  0  0  0  0  0  0  0
   32.6480   28.9090   47.0080 S   0  0  0  0  0  0  0  0  0  0  0  0
   32.2870   28.1350   48.6760 C   0  0  0  0  0  0  0  0  0  0  0  0
   33.3630   28.1620   49.1800 N   0  0  0  0  0  0  0  0  0  0  0  0
   35.1720   29.5770   46.7430 H   0  0  0  0  0  0  0  0  0  0  0  0
   30.8640   27.7560   48.8320 C   0  0  0  0  0  0  0  0  0  0  0  0
   30.0810   28.0380   49.8890 N   0  0  0  0  0  0  0  0  0  0  0  0
   28.7960   27.6650   49.9690 C   0  0  0  0  0  3  0  0  0  0  0  0
   28.2120   26.9780   48.9780 N   0  0  0  0  0  0  0  0  0  0  0  0
   28.9130   26.6500   47.8800 C   0  0  0  0  0  0  0  0  0  0  0  0
   28.2890   25.9420   46.8760 C   0  0  0  0  0  3  0  0  0  0  0  0
   29.0200   25.6080   45.7490 C   0  0  0  0  0  0  0  0  0  0  0  0
   28.5160   25.0530   44.9700 H   0  0  0  0  0  0  0  0  0  0  0  0
   30.3590   26.0130   45.7000 C   0  0  0  0  0  0  0  0  0  0  0  0
   30.8200   25.6910   44.7680 H   0  0  0  0  0  0  0  0  0  0  0  0
   30.9440   26.7210   46.7290 C   0  0  0  0  0  3  0  0  0  0  0  0
   30.2310   27.0500   47.8350 C   0  0  0  0  0  0  0  0  0  0  0  0
   35.8010   28.6330   49.3390 C   0  0  0  0  0  0  0  0  0  0  0  0
   36.6210   28.6100   48.5630 H   0  0  0  0  0  0  0  0  0  0  0  0
   35.9520   27.6920   49.9070 H   0  0  0  0  0  0  0  0  0  0  0  0
   35.9950   29.8080   50.2180 C   0  0  0  0  0  0  0  0  0  0  0  0
   35.0480   30.2820   50.5710 H   0  0  0  0  0  0  0  0  0  0  0  0
   36.5490   29.5100   51.1550 H   0  0  0  0  0  0  0  0  0  0  0  0
   37.7740   32.9470   49.3850 C   0  0  0  0  0  0  0  0  0  0  0  0
   38.5490   32.5850   48.2860 C   0  0  0  0  0  0  0  0  0  0  0  0
   38.4500   31.2610   47.8440 C   0  0  0  0  0  0  0  0  0  0  0  0
   37.6240   30.3960   48.4820 N   0  0  0  0  0  0  0  0  0  0  0  0
   36.8910   30.8170   49.5540 C   0  0  0  0  0  0  0  0  0  0  0  0
   36.9670   32.0710   49.9960 N   0  0  0  0  0  0  0  0  0  0  0  0
   37.8150   33.9590   49.7640 H   0  0  0  0  0  0  0  0  0  0  0  0
   39.2030   33.2890   47.7890 H   0  0  0  0  0  0  0  0  0  0  0  0
   39.0220   30.9380   47.0090 H   0  0  0  0  0  0  0  0  0  0  0  0
  1  5  1  0  0  0  0
  1 19  1  0  0  0  0
  2  1  2  0  0  0  0
  3  2  1  0  0  0  0
  3  4  1  0  0  0  0
  4  7  1  0  0  0  0
  4  5  2  0  0  0  0
  6  2  1  0  0  0  0
  7  8  1  0  0  0  0
  8  9  2  0  0  0  0
 10  9  1  0  0  0  0
 11 10  2  0  0  0  0
 12 11  1  0  0  0  0
 13 12  2  0  0  0  0
 14 13  1  0  0  0  0
 15 13  1  0  0  0  0
 15 17  2  0  0  0  0
 16 15  1  0  0  0  0
 17 18  1  0  0  0  0
 18 11  1  0  0  0  0
 18  7  2  0  0  0  0
 19 21  1  0  0  0  0
 19 22  1  0  0  0  0
 20 19  1  0  0  0  0
 22 23  1  0  0  0  0
 22 24  1  0  0  0  0
 25 31  1  0  0  0  0
 25 30  1  0  0  0  0
 26 25  2  0  0  0  0
 27 26  1  0  0  0  0
 27 28  2  0  0  0  0
 28 29  1  0  0  0  0
 29 30  2  0  0  0  0
 29 22  1  0  0  0  0
 32 26  1  0  0  0  0
 33 27  1  0  0  0  0
M  END
>  <minimizedAffinity>
-5.61401844

>  <minimizedRMSD>
0.898599386

$$$$
