
 OpenBabel03272510073D

 33 36  0  0  0  0  0  0  0  0999 V2000
   36.2540   30.0270   48.2020 C   0  0  0  0  0  0  0  0  0  0  0  0
   36.6190   30.5340   46.9520 C   0  0  0  0  0  0  0  0  0  0  0  0
   35.8060   30.2280   45.8320 C   0  0  0  0  0  0  0  0  0  0  0  0
   34.6990   29.4480   46.0230 N   0  0  0  0  0  0  0  0  0  0  0  0
   34.3980   28.9850   47.2630 C   0  0  0  0  0  0  0  0  0  0  0  0
   35.1540   29.2630   48.3420 N   0  0  0  0  0  0  0  0  0  0  0  0
   33.2160   28.1620   47.3940 N   0  0  0  0  0  0  0  0  0  0  0  0
   31.8800   28.6080   47.0750 C   0  0  0  0  0  0  0  0  0  0  0  0
   31.0490   27.3710   47.1100 C   0  0  0  0  0  0  0  0  0  0  0  0
   32.0160   26.2010   47.2140 C   0  0  0  0  0  0  0  0  0  0  0  0
   33.2150   26.7770   47.8640 C   0  0  0  0  0  0  0  0  0  0  0  0
   36.8740   30.2880   49.0280 H   0  0  0  0  0  0  0  0  0  0  0  0
   36.0050   30.5720   44.8320 H   0  0  0  0  0  0  0  0  0  0  0  0
   31.4870   29.3420   47.8080 H   0  0  0  0  0  0  0  0  0  0  0  0
   31.8340   29.1070   46.0840 H   0  0  0  0  0  0  0  0  0  0  0  0
   30.4560   27.2870   46.1830 H   0  0  0  0  0  0  0  0  0  0  0  0
   30.3430   27.3870   47.9670 H   0  0  0  0  0  0  0  0  0  0  0  0
   32.2110   25.7760   46.2030 H   0  0  0  0  0  0  0  0  0  0  0  0
   31.5510   25.4430   47.8910 H   0  0  0  0  0  0  0  0  0  0  0  0
   33.2150   26.7020   48.9580 H   0  0  0  0  0  0  0  0  0  0  0  0
   34.1250   26.2320   47.4810 H   0  0  0  0  0  0  0  0  0  0  0  0
   37.7600   31.3360   46.6110 C   0  0  0  0  0  0  0  0  0  0  0  0
   38.2900   31.1160   45.3850 N   0  0  0  0  0  0  0  0  0  0  0  0
   39.3590   31.8250   44.9960 C   0  0  0  0  0  3  0  0  0  0  0  0
   39.9830   32.7790   45.7460 N   0  0  0  0  0  0  0  0  0  0  0  0
   39.4820   33.0200   46.9710 C   0  0  0  0  0  0  0  0  0  0  0  0
   40.0350   33.9630   47.8400 C   0  0  0  0  0  3  0  0  0  0  0  0
   39.4960   34.1810   49.1100 C   0  0  0  0  0  0  0  0  0  0  0  0
   39.9430   34.9160   49.7620 H   0  0  0  0  0  0  0  0  0  0  0  0
   38.3810   33.4390   49.5150 C   0  0  0  0  0  0  0  0  0  0  0  0
   37.9640   33.6110   50.5080 H   0  0  0  0  0  0  0  0  0  0  0  0
   37.8630   32.5180   48.6290 C   0  0  0  0  0  3  0  0  0  0  0  0
   38.3860   32.2960   47.3730 C   0  0  0  0  0  0  0  0  0  0  0  0
  1  6  1  0  0  0  0
  1 12  1  0  0  0  0
  2  1  2  0  0  0  0
  3  4  2  0  0  0  0
  3  2  1  0  0  0  0
  4  5  1  0  0  0  0
  5  7  1  0  0  0  0
  5  6  2  0  0  0  0
  7 11  1  0  0  0  0
  8  9  1  0  0  0  0
  8  7  1  0  0  0  0
  8 14  1  0  0  0  0
  9 10  1  0  0  0  0
  9 17  1  0  0  0  0
 10 11  1  0  0  0  0
 10 19  1  0  0  0  0
 11 20  1  0  0  0  0
 13  3  1  0  0  0  0
 15  8  1  0  0  0  0
 16  9  1  0  0  0  0
 18 10  1  0  0  0  0
 21 11  1  0  0  0  0
 22  2  1  0  0  0  0
 22 33  1  0  0  0  0
 23 22  2  0  0  0  0
 24 23  1  0  0  0  0
 24 25  2  0  0  0  0
 25 26  1  0  0  0  0
 26 33  2  0  0  0  0
 26 27  1  0  0  0  0
 27 28  2  0  0  0  0
 28 30  1  0  0  0  0
 28 29  1  0  0  0  0
 30 31  1  0  0  0  0
 32 30  2  0  0  0  0
 33 32  1  0  0  0  0
M  END
>  <minimizedAffinity>
-5.69692802

>  <minimizedRMSD>
3.78984237

$$$$
