
 OpenBabel03262523103D

 23 25  0  0  0  0  0  0  0  0999 V2000
   34.8510   29.4270   48.5420 C   0  0  0  0  0  0  0  0  0  0  0  0
   34.0290   28.7680   49.3820 N   0  0  0  0  0  0  0  0  0  0  0  0
   32.9560   28.1010   48.9540 C   0  0  0  0  0  0  0  0  0  0  0  0
   32.5890   28.0160   47.6670 N   0  0  0  0  0  0  0  0  0  0  0  0
   33.3630   28.6500   46.7720 C   0  0  0  0  0  0  0  0  0  0  0  0
   32.9920   28.5680   45.4470 C   0  0  0  0  0  0  0  0  0  0  0  0
   33.7460   29.1960   44.4790 C   0  0  0  0  0  0  0  0  0  0  0  0
   33.4010   29.0920   43.4660 H   0  0  0  0  0  0  0  0  0  0  0  0
   34.8590   29.8910   44.9110 C   0  0  0  0  0  0  0  0  0  0  0  0
   35.4200   30.3710   44.1010 H   0  0  0  0  0  0  0  0  0  0  0  0
   35.1970   29.9500   46.2430 C   0  0  0  0  0  0  0  0  0  0  0  0
   34.4640   29.3330   47.2260 C   0  0  0  0  0  0  0  0  0  0  0  0
   37.5660   30.2190   50.7740 C   0  0  0  0  0  0  0  0  0  0  0  0
   38.2810   31.2910   50.2140 C   0  0  0  0  0  0  0  0  0  0  0  0
   37.7950   31.7570   49.0060 C   0  0  0  0  0  0  0  0  0  0  0  0
   36.7160   31.1820   48.4650 N   0  0  0  0  0  0  0  0  0  0  0  0
   36.0370   30.1680   48.9920 C   0  0  0  0  0  0  0  0  0  0  0  0
   36.5120   29.7320   50.1460 N   0  0  0  0  0  0  0  0  0  0  0  0
   39.1230   31.6860   50.7100 H   0  0  0  0  0  0  0  0  0  0  0  0
   38.2570   32.5600   48.4980 H   0  0  0  0  0  0  0  0  0  0  0  0
   37.9550   29.6240   52.0390 N   0  0  0  0  0  0  0  0  0  0  0  0
   38.7220   28.9610   52.2300 H   0  0  0  0  0  0  0  0  0  0  0  0
   37.4100   29.8740   52.8940 H   0  0  0  0  0  0  0  0  0  0  0  0
  1 17  1  0  0  0  0
  1  2  1  0  0  0  0
  3  2  2  0  0  0  0
  4  3  1  0  0  0  0
  5 12  1  0  0  0  0
  5  4  2  0  0  0  0
  6  5  1  0  0  0  0
  7  9  1  0  0  0  0
  7  6  2  0  0  0  0
  8  7  1  0  0  0  0
  9 11  2  0  0  0  0
 10  9  1  0  0  0  0
 11 12  1  0  0  0  0
 12  1  2  0  0  0  0
 13 21  1  0  0  0  0
 14 19  1  0  0  0  0
 14 13  1  0  0  0  0
 15 14  2  0  0  0  0
 16 17  2  0  0  0  0
 16 15  1  0  0  0  0
 17 18  1  0  0  0  0
 18 13  2  0  0  0  0
 20 15  1  0  0  0  0
 21 22  1  0  0  0  0
 21 23  1  0  0  0  0
M  END
>  <minimizedAffinity>
-5.14825106

>  <minimizedRMSD>
1.2961055

$$$$
