
 OpenBabel03272501493D

 23 25  0  0  0  0  0  0  0  0999 V2000
   37.8560   30.9650   48.0190 C   0  0  0  0  0  0  0  0  0  0  0  0
   37.9920   30.3370   46.8300 N   0  0  0  0  0  0  0  0  0  0  0  0
   38.7420   30.7780   45.8160 C   0  0  0  0  0  3  0  0  0  0  0  0
   39.4420   31.9220   45.9060 N   0  0  0  0  0  0  0  0  0  0  0  0
   39.3770   32.6370   47.0590 C   0  0  0  0  0  0  0  0  0  0  0  0
   40.0880   33.8110   47.1680 C   0  0  0  0  0  3  0  0  0  0  0  0
   40.0390   34.5560   48.3290 C   0  0  0  0  0  0  0  0  0  0  0  0
   40.6410   35.4540   48.2850 H   0  0  0  0  0  0  0  0  0  0  0  0
   39.2420   34.0530   49.3630 C   0  0  0  0  0  0  0  0  0  0  0  0
   39.2540   34.6970   50.2460 H   0  0  0  0  0  0  0  0  0  0  0  0
   38.5630   32.8880   49.1960 C   0  0  0  0  0  3  0  0  0  0  0  0
   38.5880   32.1310   48.0700 C   0  0  0  0  0  0  0  0  0  0  0  0
   37.0840   29.3620   51.2510 C   0  0  0  0  0  0  0  0  0  0  0  0
   37.7580   29.9130   50.1620 C   0  0  0  0  0  0  0  0  0  0  0  0
   37.0370   30.4350   49.0590 C   0  0  0  0  0  0  0  0  0  0  0  0
   35.7070   30.3200   49.2250 N   0  0  0  0  0  0  0  0  0  0  0  0
   35.0540   29.8040   50.2430 C   0  0  0  0  0  0  0  0  0  0  0  0
   35.7460   29.3120   51.2860 N   0  0  0  0  0  0  0  0  0  0  0  0
   33.6470   29.8310   50.1170 N   0  0  0  0  0  0  0  0  0  0  0  0
   37.6400   28.9700   52.0840 H   0  0  0  0  0  0  0  0  0  0  0  0
   38.8140   29.9190   50.2030 H   0  0  0  0  0  0  0  0  0  0  0  0
   33.3300   29.0330   49.5410 H   0  0  0  0  0  0  0  0  0  0  0  0
   33.0410   30.5630   50.5540 H   0  0  0  0  0  0  0  0  0  0  0  0
  1 12  1  0  0  0  0
  1 15  1  0  0  0  0
  2  1  2  0  0  0  0
  3  4  2  0  0  0  0
  3  2  1  0  0  0  0
  4  5  1  0  0  0  0
  5  6  2  0  0  0  0
  5 12  1  0  0  0  0
  6  7  1  0  0  0  0
  7  9  2  0  0  0  0
  8  7  1  0  0  0  0
  9 10  1  0  0  0  0
 11  9  1  0  0  0  0
 12 11  2  0  0  0  0
 13 18  1  0  0  0  0
 13 20  1  0  0  0  0
 14 21  1  0  0  0  0
 14 13  2  0  0  0  0
 15 16  2  0  0  0  0
 15 14  1  0  0  0  0
 16 17  1  0  0  0  0
 17 18  2  0  0  0  0
 19 17  1  0  0  0  0
 19 23  1  0  0  0  0
 22 19  1  0  0  0  0
M  END
>  <minimizedAffinity>
-6.36527061

>  <minimizedRMSD>
1.07873774

$$$$
