
 OpenBabel03262522403D

 44 49  0  0  0  0  0  0  0  0999 V2000
   37.2840   31.2310   48.5940 C   0  0  0  0  0  0  0  0  0  0  0  0
   37.7990   32.2430   49.3800 C   0  0  0  0  0  0  0  0  0  0  0  0
   38.7270   33.1550   48.9370 C   0  0  0  0  0  0  0  0  0  0  0  0
   39.1850   33.0810   47.6480 C   0  0  0  0  0  0  0  0  0  0  0  0
   38.6620   32.0730   46.8890 C   0  0  0  0  0  0  0  0  0  0  0  0
   37.7590   31.1920   47.3310 N   0  0  0  0  0  0  0  0  0  0  0  0
   37.4700   32.3480   50.4110 H   0  0  0  0  0  0  0  0  0  0  0  0
   39.0930   33.9270   49.6070 H   0  0  0  0  0  0  0  0  0  0  0  0
   39.9160   33.7770   47.2510 H   0  0  0  0  0  0  0  0  0  0  0  0
   38.9850   32.8890   44.5340 C   0  0  0  0  0  0  0  0  0  0  0  0
   39.0960   31.9250   45.5100 C   0  0  0  0  0  0  0  0  0  0  0  0
   39.6860   30.7450   45.0500 C   0  0  0  0  0  0  0  0  0  0  0  0
   40.1270   30.5190   43.7620 C   0  0  0  0  0  0  0  0  0  0  0  0
   40.7020   29.4780   43.1520 N   0  0  0  0  0  0  0  0  0  0  0  0
   40.9190   29.8190   41.8630 C   0  0  0  0  0  0  0  0  0  0  0  0
   40.4730   31.1150   41.6360 C   0  0  0  0  0  0  0  0  0  0  0  0
   39.9790   31.5310   42.8490 C   0  0  0  0  0  0  0  0  0  0  0  0
   39.4040   32.7270   43.2320 C   0  0  0  0  0  0  0  0  0  0  0  0
   38.5370   33.8370   44.8100 H   0  0  0  0  0  0  0  0  0  0  0  0
   39.8250   29.9170   45.7330 H   0  0  0  0  0  0  0  0  0  0  0  0
   40.9510   28.5560   43.5680 H   0  0  0  0  0  0  0  0  0  0  0  0
   41.3650   29.2570   41.0430 H   0  0  0  0  0  0  0  0  0  0  0  0
   40.4750   31.7280   40.7450 H   0  0  0  0  0  0  0  0  0  0  0  0
   39.2760   33.5410   42.5320 H   0  0  0  0  0  0  0  0  0  0  0  0
   35.1070   29.0220   50.7220 C   0  0  0  0  0  0  0  0  0  0  0  0
   36.1120   29.9480   50.4160 C   0  0  0  0  0  0  0  0  0  0  0  0
   36.3010   30.2800   49.0800 C   0  0  0  0  0  0  0  0  0  0  0  0
   35.5030   29.6850   48.2060 N   0  0  0  0  0  0  0  0  0  0  0  0
   34.5300   28.7940   48.4680 C   0  0  0  0  0  0  0  0  0  0  0  0
   34.3510   28.4770   49.7490 N   0  0  0  0  0  0  0  0  0  0  0  0
   34.9690   28.7710   51.7680 H   0  0  0  0  0  0  0  0  0  0  0  0
   36.7510   30.4200   51.1450 H   0  0  0  0  0  0  0  0  0  0  0  0
   33.6320   28.1170   47.5600 C   0  0  0  0  0  0  0  0  0  0  0  0
   34.0040   27.7770   46.3160 N   0  0  0  0  0  0  0  0  0  0  0  0
   33.2280   27.1510   45.4240 C   0  0  0  0  0  0  0  0  0  0  0  0
   31.9620   26.7940   45.7000 N   0  0  0  0  0  0  0  0  0  0  0  0
   31.4960   27.0910   46.9230 C   0  0  0  0  0  0  0  0  0  0  0  0
   30.2060   26.7470   47.2540 C   0  0  0  0  0  0  0  0  0  0  0  0
   29.6750   27.0280   48.4960 C   0  0  0  0  0  0  0  0  0  0  0  0
   28.6670   26.7550   48.7440 H   0  0  0  0  0  0  0  0  0  0  0  0
   30.5090   27.6780   49.3950 C   0  0  0  0  0  0  0  0  0  0  0  0
   30.0640   27.8880   50.3670 H   0  0  0  0  0  0  0  0  0  0  0  0
   31.7830   28.0050   49.0310 C   0  0  0  0  0  0  0  0  0  0  0  0
   32.3340   27.7360   47.8010 C   0  0  0  0  0  0  0  0  0  0  0  0
  1 27  1  0  0  0  0
  1  2  1  0  0  0  0
  2  7  1  0  0  0  0
  3  2  2  0  0  0  0
  3  8  1  0  0  0  0
  4  3  1  0  0  0  0
  5  6  1  0  0  0  0
  5  4  2  0  0  0  0
  6  1  2  0  0  0  0
  9  4  1  0  0  0  0
 10 19  1  0  0  0  0
 10 11  1  0  0  0  0
 11  5  1  0  0  0  0
 12 11  2  0  0  0  0
 12 20  1  0  0  0  0
 13 12  1  0  0  0  0
 14 21  1  0  0  0  0
 14 13  1  0  0  0  0
 15 14  1  0  0  0  0
 16 15  2  0  0  0  0
 16 17  1  0  0  0  0
 17 18  1  0  0  0  0
 17 13  2  0  0  0  0
 18 10  2  0  0  0  0
 22 15  1  0  0  0  0
 23 16  1  0  0  0  0
 24 18  1  0  0  0  0
 25 31  1  0  0  0  0
 26 25  1  0  0  0  0
 26 32  1  0  0  0  0
 27 26  2  0  0  0  0
 28 29  2  0  0  0  0
 28 27  1  0  0  0  0
 29 30  1  0  0  0  0
 30 25  2  0  0  0  0
 33 44  1  0  0  0  0
 33 29  1  0  0  0  0
 34 33  2  0  0  0  0
 35 36  2  0  0  0  0
 35 34  1  0  0  0  0
 36 37  1  0  0  0  0
 37 38  2  0  0  0  0
 37 44  1  0  0  0  0
 38 39  1  0  0  0  0
 39 40  1  0  0  0  0
 39 41  2  0  0  0  0
 41 42  1  0  0  0  0
 43 41  1  0  0  0  0
 44 43  2  0  0  0  0
M  END
>  <minimizedAffinity>
-8.05149555

>  <minimizedRMSD>
2.63866329

$$$$
