
 OpenBabel03272509083D

 43 47  0  0  0  0  0  0  0  0999 V2000
   33.4970   27.0560   46.8620 C   0  0  0  0  0  0  0  0  0  0  0  0
   33.8900   25.8210   47.3110 C   0  0  0  0  0  0  0  0  0  0  0  0
   34.2260   24.8240   46.4250 C   0  0  0  0  0  0  0  0  0  0  0  0
   34.1760   25.0360   45.0500 C   0  0  0  0  0  0  0  0  0  0  0  0
   33.7840   26.2640   44.6040 C   0  0  0  0  0  0  0  0  0  0  0  0
   33.4450   27.2760   45.4790 C   0  0  0  0  0  0  0  0  0  0  0  0
   33.9060   25.7330   48.3940 H   0  0  0  0  0  0  0  0  0  0  0  0
   34.5150   23.9090   46.9110 H   0  0  0  0  0  0  0  0  0  0  0  0
   34.4670   24.1640   44.4860 H   0  0  0  0  0  0  0  0  0  0  0  0
   33.7770   26.3380   43.5220 H   0  0  0  0  0  0  0  0  0  0  0  0
   33.0970   28.5160   44.7790 C   0  0  0  0  0  0  0  0  0  0  0  0
   31.8160   28.7930   44.5090 N   0  0  0  0  0  0  0  0  0  0  0  0
   31.3790   29.8740   43.8740 C   0  0  0  0  0  3  0  0  0  0  0  0
   32.3170   30.7560   43.4720 N   0  0  0  0  0  0  0  0  0  0  0  0
   33.6270   30.5630   43.6970 C   0  0  0  0  0  0  0  0  0  0  0  0
   34.5330   31.5260   43.2370 C   0  0  0  0  0  3  0  0  0  0  0  0
   35.8450   31.2120   43.5180 C   0  0  0  0  0  0  0  0  0  0  0  0
   36.5660   31.9570   43.1600 H   0  0  0  0  0  0  0  0  0  0  0  0
   36.3430   30.1170   44.1650 C   0  0  0  0  0  0  0  0  0  0  0  0
   37.4060   29.9890   44.3240 H   0  0  0  0  0  0  0  0  0  0  0  0
   35.3900   29.1930   44.6010 C   0  0  0  0  0  3  0  0  0  0  0  0
   34.0600   29.4210   44.3670 C   0  0  0  0  0  0  0  0  0  0  0  0
   33.0990   28.2180   47.7230 C   0  0  0  0  0  0  0  0  0  0  0  0
   32.4420   27.8040   48.5140 H   0  0  0  0  0  0  0  0  0  0  0  0
   32.4940   28.9140   47.1250 H   0  0  0  0  0  0  0  0  0  0  0  0
   34.8720   28.5190   49.4680 C   0  0  0  0  0  3  0  0  0  0  0  0
   34.2390   28.8790   48.3860 C   0  0  0  0  0  3  0  0  0  0  0  0
   37.3840   30.1440   51.5610 C   0  0  0  0  0  0  0  0  0  0  0  0
   38.1010   30.8920   50.6160 C   0  0  0  0  0  0  0  0  0  0  0  0
   37.7010   30.8250   49.2680 C   0  0  0  0  0  0  0  0  0  0  0  0
   36.6230   30.0230   48.9540 N   0  0  0  0  0  0  0  0  0  0  0  0
   35.9830   29.3320   49.9280 C   0  0  0  0  0  0  0  0  0  0  0  0
   36.3510   29.3910   51.1960 N   0  0  0  0  0  0  0  0  0  0  0  0
   37.7520   30.2480   52.5920 H   0  0  0  0  0  0  0  0  0  0  0  0
   38.9600   31.5380   50.8300 H   0  0  0  0  0  0  0  0  0  0  0  0
   38.3620   31.5620   48.2000 C   0  0  0  0  0  0  0  0  0  0  0  0
   38.5760   31.0230   46.9420 C   0  0  0  0  0  0  0  0  0  0  0  0
   39.2280   32.0110   46.1800 C   0  0  0  0  0  0  0  0  0  0  0  0
   39.3800   33.0880   46.9900 N   0  0  0  0  0  0  0  0  0  0  0  0
   38.8660   32.8140   48.1830 N   0  0  0  0  0  0  0  0  0  0  0  0
   38.3410   30.0700   46.5140 H   0  0  0  0  0  0  0  0  0  0  0  0
   39.5680   31.9920   45.1580 H   0  0  0  0  0  0  0  0  0  0  0  0
   39.8120   34.0400   46.8350 H   0  0  0  0  0  0  0  0  0  0  0  0
  1  2  1  0  0  0  0
  1 23  1  0  0  0  0
  2  7  1  0  0  0  0
  3  8  1  0  0  0  0
  3  2  2  0  0  0  0
  4  3  1  0  0  0  0
  5  4  2  0  0  0  0
  5  6  1  0  0  0  0
  6  1  2  0  0  0  0
  9  4  1  0  0  0  0
 10  5  1  0  0  0  0
 11  6  1  0  0  0  0
 12 11  1  0  0  0  0
 13 12  2  0  0  0  0
 14 15  2  0  0  0  0
 14 13  1  0  0  0  0
 15 22  1  0  0  0  0
 16 17  2  0  0  0  0
 16 15  1  0  0  0  0
 17 19  1  0  0  0  0
 18 17  1  0  0  0  0
 19 20  1  0  0  0  0
 19 21  2  0  0  0  0
 22 21  1  0  0  0  0
 22 11  2  0  0  0  0
 23 27  1  0  0  0  0
 23 24  1  0  0  0  0
 25 23  1  0  0  0  0
 26 32  1  0  0  0  0
 27 26  2  0  0  0  0
 28 34  1  0  0  0  0
 29 35  1  0  0  0  0
 29 28  2  0  0  0  0
 30 29  1  0  0  0  0
 31 30  2  0  0  0  0
 31 32  1  0  0  0  0
 32 33  2  0  0  0  0
 33 28  1  0  0  0  0
 36 30  1  0  0  0  0
 37 36  1  0  0  0  0
 38 37  2  0  0  0  0
 38 39  1  0  0  0  0
 39 40  1  0  0  0  0
 40 36  2  0  0  0  0
 41 37  1  0  0  0  0
 42 38  1  0  0  0  0
 43 39  1  0  0  0  0
M  END
>  <minimizedAffinity>
-6.53732252

>  <minimizedRMSD>
1.17382264

$$$$
