
 OpenBabel03272507133D

 43 48  0  0  0  0  0  0  0  0999 V2000
   37.0190   29.4660   50.1380 C   0  0  0  0  0  0  0  0  0  0  0  0
   37.6830   28.8680   51.0280 O   0  0  0  0  0  0  0  0  0  0  0  0
   37.5680   30.5400   49.3350 C   0  0  0  0  0  0  0  0  0  0  0  0
   38.2920   31.5220   49.9630 C   0  0  0  0  0  0  0  0  0  0  0  0
   38.8310   32.5440   49.2040 C   0  0  0  0  0  0  0  0  0  0  0  0
   38.6100   32.5190   47.8770 N   0  0  0  0  0  0  0  0  0  0  0  0
   37.9110   31.5770   47.2510 C   0  0  0  0  0  0  0  0  0  0  0  0
   37.4090   30.6060   48.0270 N   0  0  0  0  0  0  0  0  0  0  0  0
   38.4790   31.5610   51.0230 H   0  0  0  0  0  0  0  0  0  0  0  0
   39.4060   33.3590   49.5620 H   0  0  0  0  0  0  0  0  0  0  0  0
   37.5540   31.3630   45.8330 C   0  0  0  0  0  0  0  0  0  0  0  0
   36.5800   30.5430   45.4200 N   0  0  0  0  0  0  0  0  0  0  0  0
   36.2920   30.3810   44.1320 C   0  0  0  0  0  3  0  0  0  0  0  0
   36.9320   31.0060   43.1370 N   0  0  0  0  0  0  0  0  0  0  0  0
   37.9290   31.8520   43.4640 C   0  0  0  0  0  0  0  0  0  0  0  0
   38.5890   32.4970   42.4440 C   0  0  0  0  0  3  0  0  0  0  0  0
   39.6120   33.3680   42.7390 C   0  0  0  0  0  0  0  0  0  0  0  0
   40.0890   33.8400   41.9090 H   0  0  0  0  0  0  0  0  0  0  0  0
   39.9340   33.5570   44.0690 C   0  0  0  0  0  0  0  0  0  0  0  0
   40.7420   34.2500   44.2470 H   0  0  0  0  0  0  0  0  0  0  0  0
   39.2340   32.8810   45.0430 C   0  0  0  0  0  3  0  0  0  0  0  0
   38.2070   32.0010   44.8050 C   0  0  0  0  0  0  0  0  0  0  0  0
   35.6430   29.0750   49.8920 C   0  0  0  0  0  0  0  0  0  0  0  0
   34.6120   29.5760   50.6190 C   0  0  0  0  0  0  0  0  0  0  0  0
   33.4420   28.9910   50.1200 C   0  0  0  0  0  0  0  0  0  0  0  0
   33.8530   28.1490   49.0920 C   0  0  0  0  0  0  0  0  0  0  0  0
   35.1610   28.2420   49.0060 O   0  0  0  0  0  0  0  0  0  0  0  0
   34.6460   30.2990   51.4460 H   0  0  0  0  0  0  0  0  0  0  0  0
   32.4580   29.2080   50.5150 H   0  0  0  0  0  0  0  0  0  0  0  0
   33.3420   26.3300   47.4450 C   0  0  0  0  0  0  0  0  0  0  0  0
   32.9380   27.3350   48.2900 C   0  0  0  0  0  0  0  0  0  0  0  0
   31.5970   27.6530   48.4360 C   0  0  0  0  0  0  0  0  0  0  0  0
   30.6560   26.9370   47.7110 C   0  0  0  0  0  0  0  0  0  0  0  0
   29.3290   27.0160   47.6450 N   0  0  0  0  0  0  0  0  0  0  0  0
   28.9200   26.0880   46.7850 N   0  0  0  0  0  0  0  0  0  0  0  0
   29.9780   25.4140   46.3000 C   0  0  0  0  0  0  0  0  0  0  0  0
   31.1200   25.9290   46.8690 C   0  0  0  0  0  0  0  0  0  0  0  0
   32.4690   25.6030   46.7170 C   0  0  0  0  0  0  0  0  0  0  0  0
   34.4020   26.1330   47.3780 H   0  0  0  0  0  0  0  0  0  0  0  0
   31.1890   28.4380   49.0860 H   0  0  0  0  0  0  0  0  0  0  0  0
   28.7120   27.6860   48.1730 H   0  0  0  0  0  0  0  0  0  0  0  0
   29.9000   24.6140   45.5860 H   0  0  0  0  0  0  0  0  0  0  0  0
   32.7440   24.8020   46.0390 H   0  0  0  0  0  0  0  0  0  0  0  0
  1  2  2  0  0  0  0
  3  4  1  0  0  0  0
  3  1  1  0  0  0  0
  4  9  1  0  0  0  0
  5 10  1  0  0  0  0
  5  4  2  0  0  0  0
  6  5  1  0  0  0  0
  7  6  2  0  0  0  0
  7  8  1  0  0  0  0
  8  3  2  0  0  0  0
 11  7  1  0  0  0  0
 12 11  1  0  0  0  0
 13 12  2  0  0  0  0
 14 15  2  0  0  0  0
 14 13  1  0  0  0  0
 15 22  1  0  0  0  0
 16 17  2  0  0  0  0
 16 15  1  0  0  0  0
 17 19  1  0  0  0  0
 18 17  1  0  0  0  0
 19 20  1  0  0  0  0
 19 21  2  0  0  0  0
 22 21  1  0  0  0  0
 22 11  2  0  0  0  0
 23  1  1  0  0  0  0
 23 24  2  0  0  0  0
 24 28  1  0  0  0  0
 25 29  1  0  0  0  0
 25 24  1  0  0  0  0
 26 25  2  0  0  0  0
 27 26  1  0  0  0  0
 27 23  1  0  0  0  0
 30 31  1  0  0  0  0
 31 32  2  0  0  0  0
 31 26  1  0  0  0  0
 32 40  1  0  0  0  0
 33 32  1  0  0  0  0
 34 33  1  0  0  0  0
 34 41  1  0  0  0  0
 35 34  1  0  0  0  0
 36 35  2  0  0  0  0
 36 37  1  0  0  0  0
 37 33  2  0  0  0  0
 38 37  1  0  0  0  0
 38 30  2  0  0  0  0
 39 30  1  0  0  0  0
 42 36  1  0  0  0  0
 43 38  1  0  0  0  0
M  END
>  <minimizedAffinity>
-7.27070236

>  <minimizedRMSD>
0.822891772

$$$$
