
 OpenBabel03272507153D

 43 48  0  0  0  0  0  0  0  0999 V2000
   36.4310   26.4780   32.0940 C   0  0  0  0  0  0  0  0  0  0  0  0
   36.1500   25.5120   31.3330 O   0  0  0  0  0  0  0  0  0  0  0  0
   36.0650   27.8470   31.7960 C   0  0  0  0  0  0  0  0  0  0  0  0
   36.6690   28.4690   30.7320 C   0  0  0  0  0  0  0  0  0  0  0  0
   36.3180   29.7720   30.4320 C   0  0  0  0  0  0  0  0  0  0  0  0
   35.3940   30.3650   31.2110 N   0  0  0  0  0  0  0  0  0  0  0  0
   34.7990   29.7790   32.2460 C   0  0  0  0  0  0  0  0  0  0  0  0
   35.1710   28.5160   32.4990 N   0  0  0  0  0  0  0  0  0  0  0  0
   37.4100   28.0130   30.0980 H   0  0  0  0  0  0  0  0  0  0  0  0
   36.7050   30.3640   29.6430 H   0  0  0  0  0  0  0  0  0  0  0  0
   33.7810   30.2380   33.2140 C   0  0  0  0  0  0  0  0  0  0  0  0
   32.4620   30.1350   33.0200 N   0  0  0  0  0  0  0  0  0  0  0  0
   31.5790   30.5610   33.9200 C   0  0  0  0  0  3  0  0  0  0  0  0
   31.9130   31.1250   35.0850 N   0  0  0  0  0  0  0  0  0  0  0  0
   33.2240   31.2690   35.3630 C   0  0  0  0  0  0  0  0  0  0  0  0
   33.5720   31.8470   36.5610 C   0  0  0  0  0  3  0  0  0  0  0  0
   34.9000   32.0090   36.8800 C   0  0  0  0  0  0  0  0  0  0  0  0
   35.1120   32.4640   37.8220 H   0  0  0  0  0  0  0  0  0  0  0  0
   35.8390   31.5750   35.9640 C   0  0  0  0  0  0  0  0  0  0  0  0
   36.8650   31.7240   36.2610 H   0  0  0  0  0  0  0  0  0  0  0  0
   35.4260   31.0030   34.7820 C   0  0  0  0  0  3  0  0  0  0  0  0
   34.1150   30.8190   34.4150 C   0  0  0  0  0  0  0  0  0  0  0  0
   37.1530   26.2250   33.3280 C   0  0  0  0  0  0  0  0  0  0  0  0
   37.3620   27.1980   34.2510 C   0  0  0  0  0  0  0  0  0  0  0  0
   38.0820   26.6130   35.3000 C   0  0  0  0  0  0  0  0  0  0  0  0
   38.2650   25.2840   34.9330 C   0  0  0  0  0  0  0  0  0  0  0  0
   37.6960   25.1170   33.7610 O   0  0  0  0  0  0  0  0  0  0  0  0
   37.0470   28.2510   34.2190 H   0  0  0  0  0  0  0  0  0  0  0  0
   38.3900   27.1610   36.1810 H   0  0  0  0  0  0  0  0  0  0  0  0
   38.6040   23.9520   37.0300 C   0  0  0  0  0  0  0  0  0  0  0  0
   38.9760   24.3030   35.7550 C   0  0  0  0  0  0  0  0  0  0  0  0
   40.0870   23.7340   35.1510 C   0  0  0  0  0  0  0  0  0  0  0  0
   40.8260   22.7950   35.8560 C   0  0  0  0  0  0  0  0  0  0  0  0
   41.9160   22.0980   35.5430 N   0  0  0  0  0  0  0  0  0  0  0  0
   42.2120   21.3370   36.5930 N   0  0  0  0  0  0  0  0  0  0  0  0
   41.3170   21.5420   37.5750 C   0  0  0  0  0  0  0  0  0  0  0  0
   40.4040   22.4770   37.1450 C   0  0  0  0  0  0  0  0  0  0  0  0
   39.2870   23.0450   37.7590 C   0  0  0  0  0  0  0  0  0  0  0  0
   37.7280   24.4330   37.4410 H   0  0  0  0  0  0  0  0  0  0  0  0
   40.4540   23.9560   34.1400 H   0  0  0  0  0  0  0  0  0  0  0  0
   42.4490   22.1370   34.6370 H   0  0  0  0  0  0  0  0  0  0  0  0
   41.3480   21.0400   38.5250 H   0  0  0  0  0  0  0  0  0  0  0  0
   39.0280   22.7400   38.7680 H   0  0  0  0  0  0  0  0  0  0  0  0
  1 23  1  0  0  0  0
  2  1  2  0  0  0  0
  3  1  1  0  0  0  0
  3  8  1  0  0  0  0
  4  3  2  0  0  0  0
  5  4  1  0  0  0  0
  5  6  2  0  0  0  0
  6  7  1  0  0  0  0
  7  8  2  0  0  0  0
  7 11  1  0  0  0  0
  9  4  1  0  0  0  0
 10  5  1  0  0  0  0
 11 22  1  0  0  0  0
 12 11  2  0  0  0  0
 12 13  1  0  0  0  0
 13 14  2  0  0  0  0
 14 15  1  0  0  0  0
 15 16  1  0  0  0  0
 16 17  2  0  0  0  0
 17 18  1  0  0  0  0
 19 20  1  0  0  0  0
 19 17  1  0  0  0  0
 21 19  2  0  0  0  0
 22 21  1  0  0  0  0
 22 15  2  0  0  0  0
 23 27  1  0  0  0  0
 23 24  2  0  0  0  0
 24 25  1  0  0  0  0
 25 29  1  0  0  0  0
 26 25  2  0  0  0  0
 26 31  1  0  0  0  0
 27 26  1  0  0  0  0
 28 24  1  0  0  0  0
 30 39  1  0  0  0  0
 30 38  1  0  0  0  0
 31 30  2  0  0  0  0
 32 31  1  0  0  0  0
 32 33  2  0  0  0  0
 33 37  1  0  0  0  0
 34 33  1  0  0  0  0
 34 35  1  0  0  0  0
 35 36  2  0  0  0  0
 36 42  1  0  0  0  0
 37 36  1  0  0  0  0
 37 38  2  0  0  0  0
 38 43  1  0  0  0  0
 40 32  1  0  0  0  0
 41 34  1  0  0  0  0
M  END
>  <minimizedAffinity>
-7.62674189

$$$$

 OpenBabel03272507153D

 43 48  0  0  0  0  0  0  0  0999 V2000
   38.3150   26.8430   32.3110 C   0  0  0  0  0  0  0  0  0  0  0  0
   39.4190   27.1950   31.8140 O   0  0  0  0  0  0  0  0  0  0  0  0
   38.0210   25.4750   32.6850 C   0  0  0  0  0  0  0  0  0  0  0  0
   37.4720   24.6420   31.7410 C   0  0  0  0  0  0  0  0  0  0  0  0
   37.1980   23.3310   32.0840 C   0  0  0  0  0  0  0  0  0  0  0  0
   37.4880   22.9410   33.3390 N   0  0  0  0  0  0  0  0  0  0  0  0
   38.0190   23.7320   34.2670 C   0  0  0  0  0  0  0  0  0  0  0  0
   38.2670   24.9940   33.8890 N   0  0  0  0  0  0  0  0  0  0  0  0
   37.2320   24.9350   30.7330 H   0  0  0  0  0  0  0  0  0  0  0  0
   36.7780   22.5900   31.4560 H   0  0  0  0  0  0  0  0  0  0  0  0
   38.4070   23.5130   35.6760 C   0  0  0  0  0  0  0  0  0  0  0  0
   37.6810   23.9160   36.7240 N   0  0  0  0  0  0  0  0  0  0  0  0
   38.0670   23.6970   37.9780 C   0  0  0  0  0  3  0  0  0  0  0  0
   39.1970   23.0660   38.3130 N   0  0  0  0  0  0  0  0  0  0  0  0
   39.9910   22.6240   37.3160 C   0  0  0  0  0  0  0  0  0  0  0  0
   41.1540   21.9730   37.6560 C   0  0  0  0  0  3  0  0  0  0  0  0
   41.9890   21.5080   36.6660 C   0  0  0  0  0  0  0  0  0  0  0  0
   42.8770   21.0110   36.9870 H   0  0  0  0  0  0  0  0  0  0  0  0
   41.6130   21.7210   35.3540 C   0  0  0  0  0  0  0  0  0  0  0  0
   42.2990   21.3380   34.6170 H   0  0  0  0  0  0  0  0  0  0  0  0
   40.4350   22.3800   35.0810 C   0  0  0  0  0  3  0  0  0  0  0  0
   39.5680   22.8640   36.0290 C   0  0  0  0  0  0  0  0  0  0  0  0
   37.2800   27.8380   32.5250 C   0  0  0  0  0  0  0  0  0  0  0  0
   36.7390   28.5450   31.5010 C   0  0  0  0  0  0  0  0  0  0  0  0
   35.7850   29.4040   32.0620 C   0  0  0  0  0  0  0  0  0  0  0  0
   35.8110   29.1520   33.4290 C   0  0  0  0  0  0  0  0  0  0  0  0
   36.7130   28.2200   33.6400 O   0  0  0  0  0  0  0  0  0  0  0  0
   36.9750   28.4870   30.4290 H   0  0  0  0  0  0  0  0  0  0  0  0
   35.1920   30.0920   31.4730 H   0  0  0  0  0  0  0  0  0  0  0  0
   33.6280   29.5600   34.5910 C   0  0  0  0  0  0  0  0  0  0  0  0
   34.9590   29.8400   34.4010 C   0  0  0  0  0  0  0  0  0  0  0  0
   35.5970   30.8260   35.1390 C   0  0  0  0  0  0  0  0  0  0  0  0
   34.8680   31.5350   36.0820 C   0  0  0  0  0  0  0  0  0  0  0  0
   35.2020   32.5150   36.9170 N   0  0  0  0  0  0  0  0  0  0  0  0
   34.1100   32.8360   37.6060 N   0  0  0  0  0  0  0  0  0  0  0  0
   33.0790   32.0650   37.2160 C   0  0  0  0  0  0  0  0  0  0  0  0
   33.5220   31.2110   36.2330 C   0  0  0  0  0  0  0  0  0  0  0  0
   32.8730   30.2190   35.4950 C   0  0  0  0  0  0  0  0  0  0  0  0
   33.1930   28.7800   33.9840 H   0  0  0  0  0  0  0  0  0  0  0  0
   36.6530   31.1130   35.0510 H   0  0  0  0  0  0  0  0  0  0  0  0
   36.1500   32.9590   37.0180 H   0  0  0  0  0  0  0  0  0  0  0  0
   32.0900   32.1390   37.6300 H   0  0  0  0  0  0  0  0  0  0  0  0
   31.8200   30.0310   35.6770 H   0  0  0  0  0  0  0  0  0  0  0  0
  1 23  1  0  0  0  0
  1  3  1  0  0  0  0
  2  1  2  0  0  0  0
  3  8  1  0  0  0  0
  4  5  1  0  0  0  0
  4  3  2  0  0  0  0
  5  6  2  0  0  0  0
  6  7  1  0  0  0  0
  7 11  1  0  0  0  0
  8  7  2  0  0  0  0
  9  4  1  0  0  0  0
 10  5  1  0  0  0  0
 11 22  2  0  0  0  0
 11 12  1  0  0  0  0
 12 13  2  0  0  0  0
 13 14  1  0  0  0  0
 15 16  1  0  0  0  0
 15 14  2  0  0  0  0
 17 18  1  0  0  0  0
 17 16  2  0  0  0  0
 19 17  1  0  0  0  0
 20 19  1  0  0  0  0
 21 19  2  0  0  0  0
 21 22  1  0  0  0  0
 22 15  1  0  0  0  0
 23 27  1  0  0  0  0
 24 25  1  0  0  0  0
 24 23  2  0  0  0  0
 25 26  2  0  0  0  0
 26 27  1  0  0  0  0
 26 31  1  0  0  0  0
 28 24  1  0  0  0  0
 29 25  1  0  0  0  0
 30 38  1  0  0  0  0
 31 30  2  0  0  0  0
 31 32  1  0  0  0  0
 32 33  2  0  0  0  0
 33 37  1  0  0  0  0
 33 34  1  0  0  0  0
 34 41  1  0  0  0  0
 34 35  1  0  0  0  0
 36 35  2  0  0  0  0
 36 42  1  0  0  0  0
 37 36  1  0  0  0  0
 38 43  1  0  0  0  0
 38 37  2  0  0  0  0
 39 30  1  0  0  0  0
 40 32  1  0  0  0  0
M  END
>  <minimizedAffinity>
-7.58929014

$$$$

 OpenBabel03272507153D

 43 48  0  0  0  0  0  0  0  0999 V2000
   38.3080   26.8450   31.9760 C   0  0  0  0  0  0  0  0  0  0  0  0
   39.4220   27.1740   31.4840 O   0  0  0  0  0  0  0  0  0  0  0  0
   37.9640   25.4750   32.2970 C   0  0  0  0  0  0  0  0  0  0  0  0
   36.8920   24.9030   31.6580 C   0  0  0  0  0  0  0  0  0  0  0  0
   36.5610   23.5920   31.9490 C   0  0  0  0  0  0  0  0  0  0  0  0
   37.3190   22.9440   32.8530 N   0  0  0  0  0  0  0  0  0  0  0  0
   38.3600   23.4810   33.4820 C   0  0  0  0  0  0  0  0  0  0  0  0
   38.6420   24.7530   33.1690 N   0  0  0  0  0  0  0  0  0  0  0  0
   36.2740   25.4040   30.9330 H   0  0  0  0  0  0  0  0  0  0  0  0
   35.7640   23.0360   31.5300 H   0  0  0  0  0  0  0  0  0  0  0  0
   39.3060   22.9590   34.4900 C   0  0  0  0  0  0  0  0  0  0  0  0
   40.4170   22.2760   34.1940 N   0  0  0  0  0  0  0  0  0  0  0  0
   41.2420   21.8240   35.1340 C   0  0  0  0  0  3  0  0  0  0  0  0
   41.0500   22.0010   36.4450 N   0  0  0  0  0  0  0  0  0  0  0  0
   39.9520   22.6810   36.8350 C   0  0  0  0  0  0  0  0  0  0  0  0
   39.7510   22.8670   38.1820 C   0  0  0  0  0  3  0  0  0  0  0  0
   38.6430   23.5560   38.6170 C   0  0  0  0  0  0  0  0  0  0  0  0
   38.5380   23.6710   39.6730 H   0  0  0  0  0  0  0  0  0  0  0  0
   37.7690   24.0380   37.6630 C   0  0  0  0  0  0  0  0  0  0  0  0
   36.9170   24.5700   38.0540 H   0  0  0  0  0  0  0  0  0  0  0  0
   38.0270   23.8180   36.3280 C   0  0  0  0  0  3  0  0  0  0  0  0
   39.1160   23.1370   35.8410 C   0  0  0  0  0  0  0  0  0  0  0  0
   37.3150   27.8700   32.2400 C   0  0  0  0  0  0  0  0  0  0  0  0
   36.8490   28.6890   31.2620 C   0  0  0  0  0  0  0  0  0  0  0  0
   35.9160   29.5440   31.8620 C   0  0  0  0  0  0  0  0  0  0  0  0
   35.8770   29.1750   33.2020 C   0  0  0  0  0  0  0  0  0  0  0  0
   36.7230   28.1840   33.3630 O   0  0  0  0  0  0  0  0  0  0  0  0
   37.1250   28.7100   30.1980 H   0  0  0  0  0  0  0  0  0  0  0  0
   35.3810   30.3090   31.3150 H   0  0  0  0  0  0  0  0  0  0  0  0
   33.6840   29.5480   34.3590 C   0  0  0  0  0  0  0  0  0  0  0  0
   35.0210   29.8210   34.2000 C   0  0  0  0  0  0  0  0  0  0  0  0
   35.6610   30.7580   34.9970 C   0  0  0  0  0  0  0  0  0  0  0  0
   34.9280   31.4240   35.9680 C   0  0  0  0  0  0  0  0  0  0  0  0
   35.2630   32.3540   36.8590 N   0  0  0  0  0  0  0  0  0  0  0  0
   34.1670   32.6510   37.5510 N   0  0  0  0  0  0  0  0  0  0  0  0
   33.1330   31.9150   37.1090 C   0  0  0  0  0  0  0  0  0  0  0  0
   33.5770   31.1090   36.0860 C   0  0  0  0  0  0  0  0  0  0  0  0
   32.9260   30.1660   35.2880 C   0  0  0  0  0  0  0  0  0  0  0  0
   33.2480   28.8070   33.7060 H   0  0  0  0  0  0  0  0  0  0  0  0
   36.7210   31.0360   34.9360 H   0  0  0  0  0  0  0  0  0  0  0  0
   36.2160   32.7800   36.9950 H   0  0  0  0  0  0  0  0  0  0  0  0
   32.1390   31.9780   37.5140 H   0  0  0  0  0  0  0  0  0  0  0  0
   31.8690   29.9820   35.4480 H   0  0  0  0  0  0  0  0  0  0  0  0
  1 23  1  0  0  0  0
  1  3  1  0  0  0  0
  2  1  2  0  0  0  0
  3  8  1  0  0  0  0
  4  5  1  0  0  0  0
  4  3  2  0  0  0  0
  5  6  2  0  0  0  0
  6  7  1  0  0  0  0
  7 11  1  0  0  0  0
  8  7  2  0  0  0  0
  9  4  1  0  0  0  0
 10  5  1  0  0  0  0
 11 22  1  0  0  0  0
 12 11  2  0  0  0  0
 12 13  1  0  0  0  0
 13 14  2  0  0  0  0
 14 15  1  0  0  0  0
 15 16  1  0  0  0  0
 16 17  2  0  0  0  0
 17 18  1  0  0  0  0
 19 20  1  0  0  0  0
 19 17  1  0  0  0  0
 21 19  2  0  0  0  0
 22 21  1  0  0  0  0
 22 15  2  0  0  0  0
 23 27  1  0  0  0  0
 24 25  1  0  0  0  0
 24 23  2  0  0  0  0
 25 26  2  0  0  0  0
 26 27  1  0  0  0  0
 26 31  1  0  0  0  0
 28 24  1  0  0  0  0
 29 25  1  0  0  0  0
 30 38  1  0  0  0  0
 31 30  2  0  0  0  0
 31 32  1  0  0  0  0
 32 33  2  0  0  0  0
 33 37  1  0  0  0  0
 33 34  1  0  0  0  0
 34 41  1  0  0  0  0
 34 35  1  0  0  0  0
 36 42  1  0  0  0  0
 36 35  2  0  0  0  0
 37 36  1  0  0  0  0
 38 43  1  0  0  0  0
 38 37  2  0  0  0  0
 39 30  1  0  0  0  0
 40 32  1  0  0  0  0
M  END
>  <minimizedAffinity>
-7.5256114

$$$$

 OpenBabel03272507153D

 43 48  0  0  0  0  0  0  0  0999 V2000
   37.3260   26.9760   32.2020 C   0  0  0  0  0  0  0  0  0  0  0  0
   38.5010   26.9490   32.6590 O   0  0  0  0  0  0  0  0  0  0  0  0
   36.5990   28.2080   31.9730 C   0  0  0  0  0  0  0  0  0  0  0  0
   36.9150   28.9580   30.8680 C   0  0  0  0  0  0  0  0  0  0  0  0
   36.2180   30.1290   30.6330 C   0  0  0  0  0  0  0  0  0  0  0  0
   35.2590   30.4720   31.5130 N   0  0  0  0  0  0  0  0  0  0  0  0
   34.9390   29.7580   32.5890 C   0  0  0  0  0  0  0  0  0  0  0  0
   35.6410   28.6320   32.7760 N   0  0  0  0  0  0  0  0  0  0  0  0
   37.6780   28.7020   30.1530 H   0  0  0  0  0  0  0  0  0  0  0  0
   36.3620   30.7960   29.8230 H   0  0  0  0  0  0  0  0  0  0  0  0
   33.9430   29.9490   33.6630 C   0  0  0  0  0  0  0  0  0  0  0  0
   32.7150   29.4200   33.6490 N   0  0  0  0  0  0  0  0  0  0  0  0
   31.8480   29.6170   34.6390 C   0  0  0  0  0  3  0  0  0  0  0  0
   32.1100   30.3490   35.7270 N   0  0  0  0  0  0  0  0  0  0  0  0
   33.3270   30.9200   35.8240 C   0  0  0  0  0  0  0  0  0  0  0  0
   33.6010   31.6730   36.9420 C   0  0  0  0  0  3  0  0  0  0  0  0
   34.8330   32.2700   37.0760 C   0  0  0  0  0  0  0  0  0  0  0  0
   34.9900   32.8430   37.9640 H   0  0  0  0  0  0  0  0  0  0  0  0
   35.7530   32.0830   36.0630 C   0  0  0  0  0  0  0  0  0  0  0  0
   36.7020   32.5710   36.2160 H   0  0  0  0  0  0  0  0  0  0  0  0
   35.4170   31.3170   34.9700 C   0  0  0  0  0  3  0  0  0  0  0  0
   34.2040   30.7000   34.7860 C   0  0  0  0  0  0  0  0  0  0  0  0
   36.6560   25.7270   31.8850 C   0  0  0  0  0  0  0  0  0  0  0  0
   35.4960   25.6930   31.1800 C   0  0  0  0  0  0  0  0  0  0  0  0
   35.1360   24.3440   31.0600 C   0  0  0  0  0  0  0  0  0  0  0  0
   36.1310   23.6310   31.7200 C   0  0  0  0  0  0  0  0  0  0  0  0
   36.9980   24.5010   32.1850 O   0  0  0  0  0  0  0  0  0  0  0  0
   34.9210   26.5330   30.7680 H   0  0  0  0  0  0  0  0  0  0  0  0
   34.2450   24.0160   30.5410 H   0  0  0  0  0  0  0  0  0  0  0  0
   35.0590   21.4170   32.2040 C   0  0  0  0  0  0  0  0  0  0  0  0
   36.1470   22.1710   31.8360 C   0  0  0  0  0  0  0  0  0  0  0  0
   37.3660   21.5770   31.5470 C   0  0  0  0  0  0  0  0  0  0  0  0
   37.4770   20.1970   31.6340 C   0  0  0  0  0  0  0  0  0  0  0  0
   38.4960   19.3680   31.4230 N   0  0  0  0  0  0  0  0  0  0  0  0
   38.0550   18.1350   31.6540 N   0  0  0  0  0  0  0  0  0  0  0  0
   36.7590   18.1700   32.0110 C   0  0  0  0  0  0  0  0  0  0  0  0
   36.3440   19.4820   32.0120 C   0  0  0  0  0  0  0  0  0  0  0  0
   35.1130   20.0720   32.3040 C   0  0  0  0  0  0  0  0  0  0  0  0
   34.1400   21.9420   32.4140 H   0  0  0  0  0  0  0  0  0  0  0  0
   38.2820   22.1030   31.2460 H   0  0  0  0  0  0  0  0  0  0  0  0
   39.4710   19.6320   31.1300 H   0  0  0  0  0  0  0  0  0  0  0  0
   36.1810   17.2960   32.2480 H   0  0  0  0  0  0  0  0  0  0  0  0
   34.2800   19.4390   32.5910 H   0  0  0  0  0  0  0  0  0  0  0  0
  1  2  2  0  0  0  0
  3  1  1  0  0  0  0
  3  8  1  0  0  0  0
  4  3  2  0  0  0  0
  5  4  1  0  0  0  0
  5  6  2  0  0  0  0
  6  7  1  0  0  0  0
  7  8  2  0  0  0  0
  7 11  1  0  0  0  0
  9  4  1  0  0  0  0
 10  5  1  0  0  0  0
 11 22  1  0  0  0  0
 12 11  2  0  0  0  0
 12 13  1  0  0  0  0
 13 14  2  0  0  0  0
 14 15  1  0  0  0  0
 15 16  1  0  0  0  0
 16 17  2  0  0  0  0
 17 18  1  0  0  0  0
 19 20  1  0  0  0  0
 19 17  1  0  0  0  0
 21 19  2  0  0  0  0
 22 21  1  0  0  0  0
 22 15  2  0  0  0  0
 23 27  1  0  0  0  0
 23  1  1  0  0  0  0
 24 23  2  0  0  0  0
 25 24  1  0  0  0  0
 25 26  2  0  0  0  0
 26 31  1  0  0  0  0
 26 27  1  0  0  0  0
 28 24  1  0  0  0  0
 29 25  1  0  0  0  0
 30 38  1  0  0  0  0
 30 39  1  0  0  0  0
 31 30  2  0  0  0  0
 32 33  2  0  0  0  0
 32 31  1  0  0  0  0
 33 37  1  0  0  0  0
 34 33  1  0  0  0  0
 34 35  1  0  0  0  0
 35 36  2  0  0  0  0
 36 37  1  0  0  0  0
 36 42  1  0  0  0  0
 37 38  2  0  0  0  0
 38 43  1  0  0  0  0
 40 32  1  0  0  0  0
 41 34  1  0  0  0  0
M  END
>  <minimizedAffinity>
-7.5109458

$$$$

 OpenBabel03272507153D

 43 48  0  0  0  0  0  0  0  0999 V2000
   37.7790   26.7670   31.9950 C   0  0  0  0  0  0  0  0  0  0  0  0
   37.4970   26.0450   31.0000 O   0  0  0  0  0  0  0  0  0  0  0  0
   38.9510   26.5500   32.8180 C   0  0  0  0  0  0  0  0  0  0  0  0
   40.1140   27.1970   32.4840 C   0  0  0  0  0  0  0  0  0  0  0  0
   41.2350   27.0060   33.2700 C   0  0  0  0  0  0  0  0  0  0  0  0
   41.1210   26.1850   34.3310 N   0  0  0  0  0  0  0  0  0  0  0  0
   40.0030   25.5490   34.6700 C   0  0  0  0  0  0  0  0  0  0  0  0
   38.9430   25.7650   33.8790 N   0  0  0  0  0  0  0  0  0  0  0  0
   40.2270   27.8560   31.6400 H   0  0  0  0  0  0  0  0  0  0  0  0
   42.1890   27.4420   33.1240 H   0  0  0  0  0  0  0  0  0  0  0  0
   39.6670   24.6210   35.7690 C   0  0  0  0  0  0  0  0  0  0  0  0
   38.5390   24.6830   36.4840 N   0  0  0  0  0  0  0  0  0  0  0  0
   38.2750   23.8250   37.4660 C   0  0  0  0  0  3  0  0  0  0  0  0
   39.0950   22.8340   37.8330 N   0  0  0  0  0  0  0  0  0  0  0  0
   40.2570   22.6970   37.1640 C   0  0  0  0  0  0  0  0  0  0  0  0
   41.1030   21.6790   37.5370 C   0  0  0  0  0  3  0  0  0  0  0  0
   42.2980   21.5090   36.8770 C   0  0  0  0  0  0  0  0  0  0  0  0
   42.9140   20.7020   37.2080 H   0  0  0  0  0  0  0  0  0  0  0  0
   42.5970   22.3850   35.8520 C   0  0  0  0  0  0  0  0  0  0  0  0
   43.5440   22.2090   35.3660 H   0  0  0  0  0  0  0  0  0  0  0  0
   41.7070   23.3840   35.5270 C   0  0  0  0  0  3  0  0  0  0  0  0
   40.5040   23.5980   36.1530 C   0  0  0  0  0  0  0  0  0  0  0  0
   36.9030   27.8710   32.3460 C   0  0  0  0  0  0  0  0  0  0  0  0
   36.2370   28.5870   31.4050 C   0  0  0  0  0  0  0  0  0  0  0  0
   35.4960   29.5610   32.0870 C   0  0  0  0  0  0  0  0  0  0  0  0
   35.7700   29.3630   33.4360 C   0  0  0  0  0  0  0  0  0  0  0  0
   36.6060   28.3530   33.5240 O   0  0  0  0  0  0  0  0  0  0  0  0
   36.2500   28.4620   30.3130 H   0  0  0  0  0  0  0  0  0  0  0  0
   34.8640   30.2810   31.5840 H   0  0  0  0  0  0  0  0  0  0  0  0
   35.9320   30.9710   35.3520 C   0  0  0  0  0  0  0  0  0  0  0  0
   35.1950   30.1730   34.5120 C   0  0  0  0  0  0  0  0  0  0  0  0
   33.8170   30.0780   34.6380 C   0  0  0  0  0  0  0  0  0  0  0  0
   33.1840   30.8070   35.6330 C   0  0  0  0  0  0  0  0  0  0  0  0
   31.9060   30.9130   35.9880 N   0  0  0  0  0  0  0  0  0  0  0  0
   31.8500   31.7510   37.0180 N   0  0  0  0  0  0  0  0  0  0  0  0
   33.0850   32.1840   37.3250 C   0  0  0  0  0  0  0  0  0  0  0  0
   33.9790   31.6000   36.4570 C   0  0  0  0  0  0  0  0  0  0  0  0
   35.3660   31.7010   36.3360 C   0  0  0  0  0  0  0  0  0  0  0  0
   37.0000   31.0000   35.1990 H   0  0  0  0  0  0  0  0  0  0  0  0
   33.1550   29.4670   34.0110 H   0  0  0  0  0  0  0  0  0  0  0  0
   31.0870   30.4250   35.5410 H   0  0  0  0  0  0  0  0  0  0  0  0
   33.2950   32.8720   38.1240 H   0  0  0  0  0  0  0  0  0  0  0  0
   35.9090   32.3430   37.0210 H   0  0  0  0  0  0  0  0  0  0  0  0
  1 23  1  0  0  0  0
  1  3  1  0  0  0  0
  2  1  2  0  0  0  0
  3  8  1  0  0  0  0
  4  3  2  0  0  0  0
  4  5  1  0  0  0  0
  5  6  2  0  0  0  0
  6  7  1  0  0  0  0
  7 11  1  0  0  0  0
  8  7  2  0  0  0  0
  9  4  1  0  0  0  0
 10  5  1  0  0  0  0
 11 22  2  0  0  0  0
 11 12  1  0  0  0  0
 12 13  2  0  0  0  0
 13 14  1  0  0  0  0
 15 16  1  0  0  0  0
 15 14  2  0  0  0  0
 17 18  1  0  0  0  0
 17 16  2  0  0  0  0
 19 17  1  0  0  0  0
 20 19  1  0  0  0  0
 21 19  2  0  0  0  0
 21 22  1  0  0  0  0
 22 15  1  0  0  0  0
 23 27  1  0  0  0  0
 24 25  1  0  0  0  0
 24 23  2  0  0  0  0
 25 26  2  0  0  0  0
 26 27  1  0  0  0  0
 26 31  1  0  0  0  0
 28 24  1  0  0  0  0
 29 25  1  0  0  0  0
 30 38  1  0  0  0  0
 31 32  1  0  0  0  0
 31 30  2  0  0  0  0
 32 33  2  0  0  0  0
 33 34  1  0  0  0  0
 33 37  1  0  0  0  0
 34 35  1  0  0  0  0
 35 36  2  0  0  0  0
 36 42  1  0  0  0  0
 37 36  1  0  0  0  0
 38 37  2  0  0  0  0
 38 43  1  0  0  0  0
 39 30  1  0  0  0  0
 40 32  1  0  0  0  0
 41 34  1  0  0  0  0
M  END
>  <minimizedAffinity>
-7.35908651

$$$$

 OpenBabel03272507153D

 43 48  0  0  0  0  0  0  0  0999 V2000
   37.7120   26.3880   31.9550 C   0  0  0  0  0  0  0  0  0  0  0  0
   37.2410   25.5200   31.1700 O   0  0  0  0  0  0  0  0  0  0  0  0
   39.0180   26.2670   32.5700 C   0  0  0  0  0  0  0  0  0  0  0  0
   39.9960   27.1610   32.2080 C   0  0  0  0  0  0  0  0  0  0  0  0
   41.2420   27.0630   32.7980 C   0  0  0  0  0  0  0  0  0  0  0  0
   41.4300   26.0840   33.7020 N   0  0  0  0  0  0  0  0  0  0  0  0
   40.4960   25.2090   34.0640 C   0  0  0  0  0  0  0  0  0  0  0  0
   39.3040   25.3430   33.4670 N   0  0  0  0  0  0  0  0  0  0  0  0
   39.8670   27.9500   31.4870 H   0  0  0  0  0  0  0  0  0  0  0  0
   42.0790   27.6840   32.6100 H   0  0  0  0  0  0  0  0  0  0  0  0
   40.4900   24.0790   35.0160 C   0  0  0  0  0  0  0  0  0  0  0  0
   41.2840   23.0070   34.9120 N   0  0  0  0  0  0  0  0  0  0  0  0
   41.2460   22.0110   35.7930 C   0  0  0  0  0  3  0  0  0  0  0  0
   40.4280   21.9780   36.8500 N   0  0  0  0  0  0  0  0  0  0  0  0
   39.5910   23.0200   37.0320 C   0  0  0  0  0  0  0  0  0  0  0  0
   38.7490   22.9910   38.1180 C   0  0  0  0  0  3  0  0  0  0  0  0
   37.8820   24.0370   38.3360 C   0  0  0  0  0  0  0  0  0  0  0  0
   37.2510   23.9610   39.1940 H   0  0  0  0  0  0  0  0  0  0  0  0
   37.8990   25.0860   37.4380 C   0  0  0  0  0  0  0  0  0  0  0  0
   37.2030   25.8800   37.6530 H   0  0  0  0  0  0  0  0  0  0  0  0
   38.7680   25.0550   36.3700 C   0  0  0  0  0  3  0  0  0  0  0  0
   39.6510   24.0370   36.1060 C   0  0  0  0  0  0  0  0  0  0  0  0
   36.9250   27.5670   32.2690 C   0  0  0  0  0  0  0  0  0  0  0  0
   36.7090   28.5500   31.3580 C   0  0  0  0  0  0  0  0  0  0  0  0
   35.9210   29.5210   31.9900 C   0  0  0  0  0  0  0  0  0  0  0  0
   35.7050   29.0460   33.2790 C   0  0  0  0  0  0  0  0  0  0  0  0
   36.3220   27.8910   33.3830 O   0  0  0  0  0  0  0  0  0  0  0  0
   37.0650   28.6120   30.3200 H   0  0  0  0  0  0  0  0  0  0  0  0
   35.5930   30.4260   31.4970 H   0  0  0  0  0  0  0  0  0  0  0  0
   33.5890   29.5260   34.5350 C   0  0  0  0  0  0  0  0  0  0  0  0
   34.9190   29.7590   34.2890 C   0  0  0  0  0  0  0  0  0  0  0  0
   35.6220   30.7190   35.0020 C   0  0  0  0  0  0  0  0  0  0  0  0
   34.9590   31.4480   35.9770 C   0  0  0  0  0  0  0  0  0  0  0  0
   35.3620   32.4130   36.8010 N   0  0  0  0  0  0  0  0  0  0  0  0
   34.3130   32.7680   37.5360 N   0  0  0  0  0  0  0  0  0  0  0  0
   33.2400   32.0360   37.1880 C   0  0  0  0  0  0  0  0  0  0  0  0
   33.6100   31.1710   36.1840 C   0  0  0  0  0  0  0  0  0  0  0  0
   32.8960   30.2060   35.4720 C   0  0  0  0  0  0  0  0  0  0  0  0
   33.1010   28.7640   33.9440 H   0  0  0  0  0  0  0  0  0  0  0  0
   36.6830   30.9690   34.8700 H   0  0  0  0  0  0  0  0  0  0  0  0
   36.3290   32.8230   36.8630 H   0  0  0  0  0  0  0  0  0  0  0  0
   32.2720   32.1420   37.6440 H   0  0  0  0  0  0  0  0  0  0  0  0
   31.8460   30.0540   35.6980 H   0  0  0  0  0  0  0  0  0  0  0  0
  1 23  1  0  0  0  0
  1  3  1  0  0  0  0
  2  1  2  0  0  0  0
  3  8  1  0  0  0  0
  4  3  2  0  0  0  0
  4  5  1  0  0  0  0
  5  6  2  0  0  0  0
  6  7  1  0  0  0  0
  7 11  1  0  0  0  0
  8  7  2  0  0  0  0
  9  4  1  0  0  0  0
 10  5  1  0  0  0  0
 11 22  1  0  0  0  0
 12 11  2  0  0  0  0
 12 13  1  0  0  0  0
 13 14  2  0  0  0  0
 14 15  1  0  0  0  0
 15 16  1  0  0  0  0
 16 17  2  0  0  0  0
 17 18  1  0  0  0  0
 19 20  1  0  0  0  0
 19 17  1  0  0  0  0
 21 19  2  0  0  0  0
 22 21  1  0  0  0  0
 22 15  2  0  0  0  0
 23 27  1  0  0  0  0
 24 25  1  0  0  0  0
 24 23  2  0  0  0  0
 25 26  2  0  0  0  0
 26 27  1  0  0  0  0
 26 31  1  0  0  0  0
 28 24  1  0  0  0  0
 29 25  1  0  0  0  0
 30 38  1  0  0  0  0
 31 30  2  0  0  0  0
 31 32  1  0  0  0  0
 32 33  2  0  0  0  0
 33 37  1  0  0  0  0
 33 34  1  0  0  0  0
 34 41  1  0  0  0  0
 34 35  1  0  0  0  0
 36 35  2  0  0  0  0
 36 42  1  0  0  0  0
 37 36  1  0  0  0  0
 38 43  1  0  0  0  0
 38 37  2  0  0  0  0
 39 30  1  0  0  0  0
 40 32  1  0  0  0  0
M  END
>  <minimizedAffinity>
-7.15812778

$$$$

 OpenBabel03272507153D

 43 48  0  0  0  0  0  0  0  0999 V2000
   37.3640   28.9980   29.7940 C   0  0  0  0  0  0  0  0  0  0  0  0
   37.4240   28.5950   28.6010 O   0  0  0  0  0  0  0  0  0  0  0  0
   36.6570   30.2010   30.1840 C   0  0  0  0  0  0  0  0  0  0  0  0
   36.9550   31.3740   29.5370 C   0  0  0  0  0  0  0  0  0  0  0  0
   36.2780   32.5250   29.8930 C   0  0  0  0  0  0  0  0  0  0  0  0
   35.3540   32.4300   30.8670 N   0  0  0  0  0  0  0  0  0  0  0  0
   35.0520   31.3030   31.5060 C   0  0  0  0  0  0  0  0  0  0  0  0
   35.7340   30.2130   31.1270 N   0  0  0  0  0  0  0  0  0  0  0  0
   37.6900   31.4710   28.7560 H   0  0  0  0  0  0  0  0  0  0  0  0
   36.4110   33.4890   29.4760 H   0  0  0  0  0  0  0  0  0  0  0  0
   34.0940   30.9830   32.5850 C   0  0  0  0  0  0  0  0  0  0  0  0
   32.9040   30.4070   32.3840 N   0  0  0  0  0  0  0  0  0  0  0  0
   32.0710   30.1350   33.3850 C   0  0  0  0  0  3  0  0  0  0  0  0
   32.3320   30.4060   34.6680 N   0  0  0  0  0  0  0  0  0  0  0  0
   33.5120   30.9880   34.9620 C   0  0  0  0  0  0  0  0  0  0  0  0
   33.7850   31.2660   36.2810 C   0  0  0  0  0  3  0  0  0  0  0  0
   34.9790   31.8590   36.6190 C   0  0  0  0  0  0  0  0  0  0  0  0
   35.1380   32.0520   37.6570 H   0  0  0  0  0  0  0  0  0  0  0  0
   35.8640   32.1520   35.6000 C   0  0  0  0  0  0  0  0  0  0  0  0
   36.7850   32.6150   35.9160 H   0  0  0  0  0  0  0  0  0  0  0  0
   35.5310   31.8470   34.2990 C   0  0  0  0  0  3  0  0  0  0  0  0
   34.3540   31.2570   33.9080 C   0  0  0  0  0  0  0  0  0  0  0  0
   38.0250   28.2360   30.8380 C   0  0  0  0  0  0  0  0  0  0  0  0
   39.2980   27.7840   30.7020 C   0  0  0  0  0  0  0  0  0  0  0  0
   39.6120   27.0980   31.8820 C   0  0  0  0  0  0  0  0  0  0  0  0
   38.4760   27.1820   32.6780 C   0  0  0  0  0  0  0  0  0  0  0  0
   37.5750   27.8650   32.0080 O   0  0  0  0  0  0  0  0  0  0  0  0
   39.9820   27.9100   29.8500 H   0  0  0  0  0  0  0  0  0  0  0  0
   40.5720   26.6280   32.0530 H   0  0  0  0  0  0  0  0  0  0  0  0
   38.4050   27.3180   35.1800 C   0  0  0  0  0  0  0  0  0  0  0  0
   38.3710   26.5930   34.0150 C   0  0  0  0  0  0  0  0  0  0  0  0
   38.2370   25.2130   34.0330 C   0  0  0  0  0  0  0  0  0  0  0  0
   38.1360   24.5660   35.2550 C   0  0  0  0  0  0  0  0  0  0  0  0
   38.0030   23.2810   35.5780 N   0  0  0  0  0  0  0  0  0  0  0  0
   37.9560   23.2110   36.9050 N   0  0  0  0  0  0  0  0  0  0  0  0
   38.0570   24.4430   37.4340 C   0  0  0  0  0  0  0  0  0  0  0  0
   38.1760   25.3490   36.4060 C   0  0  0  0  0  0  0  0  0  0  0  0
   38.3100   26.7390   36.3950 C   0  0  0  0  0  0  0  0  0  0  0  0
   38.5110   28.3900   35.0950 H   0  0  0  0  0  0  0  0  0  0  0  0
   38.2020   24.5590   33.1520 H   0  0  0  0  0  0  0  0  0  0  0  0
   37.9460   22.4680   34.9120 H   0  0  0  0  0  0  0  0  0  0  0  0
   38.0440   24.6420   38.4900 H   0  0  0  0  0  0  0  0  0  0  0  0
   38.3330   27.2730   37.3400 H   0  0  0  0  0  0  0  0  0  0  0  0
  1  3  1  0  0  0  0
  1 23  1  0  0  0  0
  2  1  2  0  0  0  0
  3  8  1  0  0  0  0
  4  5  1  0  0  0  0
  4  3  2  0  0  0  0
  5  6  2  0  0  0  0
  6  7  1  0  0  0  0
  7 11  1  0  0  0  0
  8  7  2  0  0  0  0
  9  4  1  0  0  0  0
 10  5  1  0  0  0  0
 11 22  1  0  0  0  0
 12 11  2  0  0  0  0
 12 13  1  0  0  0  0
 13 14  2  0  0  0  0
 14 15  1  0  0  0  0
 15 16  1  0  0  0  0
 16 17  2  0  0  0  0
 17 18  1  0  0  0  0
 19 20  1  0  0  0  0
 19 17  1  0  0  0  0
 21 19  2  0  0  0  0
 22 21  1  0  0  0  0
 22 15  2  0  0  0  0
 23 27  1  0  0  0  0
 24 23  2  0  0  0  0
 24 25  1  0  0  0  0
 25 29  1  0  0  0  0
 25 26  2  0  0  0  0
 26 31  1  0  0  0  0
 27 26  1  0  0  0  0
 28 24  1  0  0  0  0
 30 38  1  0  0  0  0
 31 32  1  0  0  0  0
 31 30  2  0  0  0  0
 32 33  2  0  0  0  0
 33 34  1  0  0  0  0
 33 37  1  0  0  0  0
 34 35  1  0  0  0  0
 35 36  2  0  0  0  0
 36 42  1  0  0  0  0
 37 36  1  0  0  0  0
 38 37  2  0  0  0  0
 38 43  1  0  0  0  0
 39 30  1  0  0  0  0
 40 32  1  0  0  0  0
 41 34  1  0  0  0  0
M  END
>  <minimizedAffinity>
-7.08193684

$$$$

 OpenBabel03272507153D

 43 48  0  0  0  0  0  0  0  0999 V2000
   36.3430   27.5140   32.7890 C   0  0  0  0  0  0  0  0  0  0  0  0
   36.0660   26.6910   31.8740 O   0  0  0  0  0  0  0  0  0  0  0  0
   35.9380   28.9050   32.7450 C   0  0  0  0  0  0  0  0  0  0  0  0
   36.2690   29.6470   31.6390 C   0  0  0  0  0  0  0  0  0  0  0  0
   35.8770   30.9720   31.5810 C   0  0  0  0  0  0  0  0  0  0  0  0
   35.1860   31.4650   32.6260 N   0  0  0  0  0  0  0  0  0  0  0  0
   34.8570   30.7610   33.7060 C   0  0  0  0  0  0  0  0  0  0  0  0
   35.2580   29.4820   33.7170 N   0  0  0  0  0  0  0  0  0  0  0  0
   36.8210   29.2730   30.7940 H   0  0  0  0  0  0  0  0  0  0  0  0
   36.0660   31.6510   30.7910 H   0  0  0  0  0  0  0  0  0  0  0  0
   34.1200   31.0990   34.9410 C   0  0  0  0  0  0  0  0  0  0  0  0
   34.7010   31.5310   36.0660 N   0  0  0  0  0  0  0  0  0  0  0  0
   33.9980   31.8250   37.1570 C   0  0  0  0  0  3  0  0  0  0  0  0
   32.6680   31.7190   37.2400 N   0  0  0  0  0  0  0  0  0  0  0  0
   32.0000   31.2890   36.1510 C   0  0  0  0  0  0  0  0  0  0  0  0
   30.6320   31.1800   36.2320 C   0  0  0  0  0  3  0  0  0  0  0  0
   29.9170   30.7450   35.1390 C   0  0  0  0  0  0  0  0  0  0  0  0
   28.8590   30.6790   35.2590 H   0  0  0  0  0  0  0  0  0  0  0  0
   30.6210   30.4330   33.9920 C   0  0  0  0  0  0  0  0  0  0  0  0
   30.0160   30.0980   33.1660 H   0  0  0  0  0  0  0  0  0  0  0  0
   31.9910   30.5650   33.9760 C   0  0  0  0  0  3  0  0  0  0  0  0
   32.7520   30.9930   35.0360 C   0  0  0  0  0  0  0  0  0  0  0  0
   37.0980   27.0680   33.9450 C   0  0  0  0  0  0  0  0  0  0  0  0
   37.4290   27.9100   34.9570 C   0  0  0  0  0  0  0  0  0  0  0  0
   38.1470   27.1550   35.8930 C   0  0  0  0  0  0  0  0  0  0  0  0
   38.2050   25.8680   35.3720 C   0  0  0  0  0  0  0  0  0  0  0  0
   37.5690   25.8790   34.2220 O   0  0  0  0  0  0  0  0  0  0  0  0
   37.1990   28.9800   35.0600 H   0  0  0  0  0  0  0  0  0  0  0  0
   38.5400   27.5730   36.8110 H   0  0  0  0  0  0  0  0  0  0  0  0
   38.4010   24.1390   37.1770 C   0  0  0  0  0  0  0  0  0  0  0  0
   38.8710   24.7470   36.0380 C   0  0  0  0  0  0  0  0  0  0  0  0
   40.0460   24.3260   35.4340 C   0  0  0  0  0  0  0  0  0  0  0  0
   40.7500   23.2720   35.9990 C   0  0  0  0  0  0  0  0  0  0  0  0
   41.8820   22.6660   35.6510 N   0  0  0  0  0  0  0  0  0  0  0  0
   42.1090   21.7100   36.5470 N   0  0  0  0  0  0  0  0  0  0  0  0
   41.1280   21.7010   37.4660 C   0  0  0  0  0  0  0  0  0  0  0  0
   40.2280   22.6930   37.1530 C   0  0  0  0  0  0  0  0  0  0  0  0
   39.0460   23.1110   37.7660 C   0  0  0  0  0  0  0  0  0  0  0  0
   37.4800   24.5160   37.5960 H   0  0  0  0  0  0  0  0  0  0  0  0
   40.4910   24.7540   34.5260 H   0  0  0  0  0  0  0  0  0  0  0  0
   42.4900   22.8960   34.8230 H   0  0  0  0  0  0  0  0  0  0  0  0
   41.0920   21.0150   38.2930 H   0  0  0  0  0  0  0  0  0  0  0  0
   38.7110   22.6030   38.6650 H   0  0  0  0  0  0  0  0  0  0  0  0
  1 23  1  0  0  0  0
  2  1  2  0  0  0  0
  3  1  1  0  0  0  0
  3  8  1  0  0  0  0
  4  3  2  0  0  0  0
  5  4  1  0  0  0  0
  5  6  2  0  0  0  0
  6  7  1  0  0  0  0
  7  8  2  0  0  0  0
  7 11  1  0  0  0  0
  9  4  1  0  0  0  0
 10  5  1  0  0  0  0
 11 22  2  0  0  0  0
 11 12  1  0  0  0  0
 12 13  2  0  0  0  0
 13 14  1  0  0  0  0
 15 16  1  0  0  0  0
 15 14  2  0  0  0  0
 17 18  1  0  0  0  0
 17 16  2  0  0  0  0
 19 17  1  0  0  0  0
 20 19  1  0  0  0  0
 21 19  2  0  0  0  0
 21 22  1  0  0  0  0
 22 15  1  0  0  0  0
 23 27  1  0  0  0  0
 23 24  2  0  0  0  0
 24 28  1  0  0  0  0
 24 25  1  0  0  0  0
 25 29  1  0  0  0  0
 26 25  2  0  0  0  0
 26 31  1  0  0  0  0
 27 26  1  0  0  0  0
 30 39  1  0  0  0  0
 30 38  1  0  0  0  0
 31 30  2  0  0  0  0
 32 33  2  0  0  0  0
 32 31  1  0  0  0  0
 33 37  1  0  0  0  0
 34 33  1  0  0  0  0
 34 35  1  0  0  0  0
 35 36  2  0  0  0  0
 36 42  1  0  0  0  0
 37 36  1  0  0  0  0
 37 38  2  0  0  0  0
 38 43  1  0  0  0  0
 40 32  1  0  0  0  0
 41 34  1  0  0  0  0
M  END
>  <minimizedAffinity>
-7.03822756

$$$$

 OpenBabel03272507153D

 43 48  0  0  0  0  0  0  0  0999 V2000
   38.4920   26.8840   32.1930 C   0  0  0  0  0  0  0  0  0  0  0  0
   39.6530   27.2650   31.8810 O   0  0  0  0  0  0  0  0  0  0  0  0
   38.1840   25.5160   32.5590 C   0  0  0  0  0  0  0  0  0  0  0  0
   37.6640   24.6840   31.6000 C   0  0  0  0  0  0  0  0  0  0  0  0
   37.3780   23.3740   31.9360 C   0  0  0  0  0  0  0  0  0  0  0  0
   37.6280   22.9840   33.2000 N   0  0  0  0  0  0  0  0  0  0  0  0
   38.1310   23.7760   34.1430 C   0  0  0  0  0  0  0  0  0  0  0  0
   38.3920   25.0370   33.7710 N   0  0  0  0  0  0  0  0  0  0  0  0
   37.4560   24.9760   30.5850 H   0  0  0  0  0  0  0  0  0  0  0  0
   36.9760   22.6320   31.2950 H   0  0  0  0  0  0  0  0  0  0  0  0
   38.4740   23.5580   35.5630 C   0  0  0  0  0  0  0  0  0  0  0  0
   37.7340   23.9940   36.5880 N   0  0  0  0  0  0  0  0  0  0  0  0
   38.0800   23.7740   37.8540 C   0  0  0  0  0  3  0  0  0  0  0  0
   39.1800   23.1110   38.2240 N   0  0  0  0  0  0  0  0  0  0  0  0
   39.9850   22.6350   37.2530 C   0  0  0  0  0  0  0  0  0  0  0  0
   41.1170   21.9500   37.6290 C   0  0  0  0  0  3  0  0  0  0  0  0
   41.9620   21.4500   36.6660 C   0  0  0  0  0  0  0  0  0  0  0  0
   42.8250   20.9270   37.0150 H   0  0  0  0  0  0  0  0  0  0  0  0
   41.6280   21.6620   35.3430 C   0  0  0  0  0  0  0  0  0  0  0  0
   42.3210   21.2500   34.6270 H   0  0  0  0  0  0  0  0  0  0  0  0
   40.4790   22.3550   35.0320 C   0  0  0  0  0  3  0  0  0  0  0  0
   39.6030   22.8760   35.9530 C   0  0  0  0  0  0  0  0  0  0  0  0
   37.4030   27.8440   32.1920 C   0  0  0  0  0  0  0  0  0  0  0  0
   37.2620   28.7710   31.2100 C   0  0  0  0  0  0  0  0  0  0  0  0
   36.1210   29.5200   31.5220 C   0  0  0  0  0  0  0  0  0  0  0  0
   35.6310   28.9810   32.7070 C   0  0  0  0  0  0  0  0  0  0  0  0
   36.4290   27.9960   33.0520 O   0  0  0  0  0  0  0  0  0  0  0  0
   37.8960   28.9350   30.3280 H   0  0  0  0  0  0  0  0  0  0  0  0
   35.7650   30.3370   30.9080 H   0  0  0  0  0  0  0  0  0  0  0  0
   34.4340   30.0000   34.6610 C   0  0  0  0  0  0  0  0  0  0  0  0
   34.4330   29.4720   33.3920 C   0  0  0  0  0  0  0  0  0  0  0  0
   33.2600   29.3660   32.6610 C   0  0  0  0  0  0  0  0  0  0  0  0
   32.0730   29.8020   33.2320 C   0  0  0  0  0  0  0  0  0  0  0  0
   30.8210   29.8240   32.7830 N   0  0  0  0  0  0  0  0  0  0  0  0
   30.0660   30.3480   33.7430 N   0  0  0  0  0  0  0  0  0  0  0  0
   30.8280   30.6640   34.8050 C   0  0  0  0  0  0  0  0  0  0  0  0
   32.1320   30.3270   34.5200 C   0  0  0  0  0  0  0  0  0  0  0  0
   33.3090   30.4390   35.2620 C   0  0  0  0  0  0  0  0  0  0  0  0
   35.3830   30.0540   35.1740 H   0  0  0  0  0  0  0  0  0  0  0  0
   33.1700   28.9580   31.6460 H   0  0  0  0  0  0  0  0  0  0  0  0
   30.4840   29.4890   31.8430 H   0  0  0  0  0  0  0  0  0  0  0  0
   30.4430   31.1020   35.7070 H   0  0  0  0  0  0  0  0  0  0  0  0
   33.2650   30.8610   36.2600 H   0  0  0  0  0  0  0  0  0  0  0  0
  1  3  1  0  0  0  0
  2  1  2  0  0  0  0
  3  8  1  0  0  0  0
  4  5  1  0  0  0  0
  4  3  2  0  0  0  0
  5  6  2  0  0  0  0
  6  7  1  0  0  0  0
  7 11  1  0  0  0  0
  8  7  2  0  0  0  0
  9  4  1  0  0  0  0
 10  5  1  0  0  0  0
 11 22  2  0  0  0  0
 11 12  1  0  0  0  0
 12 13  2  0  0  0  0
 13 14  1  0  0  0  0
 15 16  1  0  0  0  0
 15 14  2  0  0  0  0
 17 18  1  0  0  0  0
 17 16  2  0  0  0  0
 19 17  1  0  0  0  0
 20 19  1  0  0  0  0
 21 19  2  0  0  0  0
 21 22  1  0  0  0  0
 22 15  1  0  0  0  0
 23  1  1  0  0  0  0
 23 27  1  0  0  0  0
 24 25  1  0  0  0  0
 24 23  2  0  0  0  0
 25 26  2  0  0  0  0
 26 27  1  0  0  0  0
 26 31  1  0  0  0  0
 28 24  1  0  0  0  0
 29 25  1  0  0  0  0
 30 39  1  0  0  0  0
 30 38  1  0  0  0  0
 31 30  2  0  0  0  0
 32 33  2  0  0  0  0
 32 31  1  0  0  0  0
 33 37  1  0  0  0  0
 34 33  1  0  0  0  0
 34 35  1  0  0  0  0
 35 36  2  0  0  0  0
 36 42  1  0  0  0  0
 37 36  1  0  0  0  0
 37 38  2  0  0  0  0
 38 43  1  0  0  0  0
 40 32  1  0  0  0  0
 41 34  1  0  0  0  0
M  END
>  <minimizedAffinity>
-6.99146366

$$$$
