
 OpenBabel03272507133D

 43 48  0  0  0  0  0  0  0  0999 V2000
   37.0500   29.4990   49.9020 C   0  0  0  0  0  0  0  0  0  0  0  0
   37.7570   28.9440   50.7870 O   0  0  0  0  0  0  0  0  0  0  0  0
   37.5610   30.5210   49.0120 C   0  0  0  0  0  0  0  0  0  0  0  0
   38.2640   31.5690   49.5540 C   0  0  0  0  0  0  0  0  0  0  0  0
   38.7660   32.5430   48.7120 C   0  0  0  0  0  0  0  0  0  0  0  0
   38.5340   32.4090   47.3930 N   0  0  0  0  0  0  0  0  0  0  0  0
   37.8560   31.4030   46.8500 C   0  0  0  0  0  0  0  0  0  0  0  0
   37.3880   30.4820   47.7040 N   0  0  0  0  0  0  0  0  0  0  0  0
   38.4590   31.6950   50.6050 H   0  0  0  0  0  0  0  0  0  0  0  0
   39.3220   33.3980   48.9990 H   0  0  0  0  0  0  0  0  0  0  0  0
   37.4920   31.0700   45.4570 C   0  0  0  0  0  0  0  0  0  0  0  0
   36.2350   30.9070   45.0280 N   0  0  0  0  0  0  0  0  0  0  0  0
   35.9520   30.6070   43.7640 C   0  0  0  0  0  3  0  0  0  0  0  0
   36.8750   30.4400   42.8110 N   0  0  0  0  0  0  0  0  0  0  0  0
   38.1710   30.5850   43.1550 C   0  0  0  0  0  0  0  0  0  0  0  0
   39.1220   30.4140   42.1790 C   0  0  0  0  0  3  0  0  0  0  0  0
   40.4550   30.5540   42.4930 C   0  0  0  0  0  0  0  0  0  0  0  0
   41.1490   30.4110   41.6950 H   0  0  0  0  0  0  0  0  0  0  0  0
   40.7780   30.8670   43.7990 C   0  0  0  0  0  0  0  0  0  0  0  0
   41.8340   30.9660   43.9930 H   0  0  0  0  0  0  0  0  0  0  0  0
   39.7770   31.0240   44.7310 C   0  0  0  0  0  3  0  0  0  0  0  0
   38.4350   30.8950   44.4700 C   0  0  0  0  0  0  0  0  0  0  0  0
   35.6600   29.1080   49.7530 C   0  0  0  0  0  0  0  0  0  0  0  0
   34.6910   29.5620   50.5890 C   0  0  0  0  0  0  0  0  0  0  0  0
   33.4860   28.9920   50.1590 C   0  0  0  0  0  0  0  0  0  0  0  0
   33.8140   28.2070   49.0590 C   0  0  0  0  0  0  0  0  0  0  0  0
   35.1090   28.3170   48.8680 O   0  0  0  0  0  0  0  0  0  0  0  0
   34.7910   30.2430   51.4460 H   0  0  0  0  0  0  0  0  0  0  0  0
   32.5380   29.1790   50.6470 H   0  0  0  0  0  0  0  0  0  0  0  0
   33.1740   26.4440   47.3950 C   0  0  0  0  0  0  0  0  0  0  0  0
   32.8390   27.4260   48.2950 C   0  0  0  0  0  0  0  0  0  0  0  0
   31.5130   27.7510   48.5410 C   0  0  0  0  0  0  0  0  0  0  0  0
   30.5180   27.0650   47.8590 C   0  0  0  0  0  0  0  0  0  0  0  0
   29.1910   27.1570   47.8860 N   0  0  0  0  0  0  0  0  0  0  0  0
   28.7160   26.2600   47.0270 N   0  0  0  0  0  0  0  0  0  0  0  0
   29.7320   25.5930   46.4520 C   0  0  0  0  0  0  0  0  0  0  0  0
   30.9150   26.0800   46.9580 C   0  0  0  0  0  0  0  0  0  0  0  0
   32.2470   25.7470   46.7060 C   0  0  0  0  0  0  0  0  0  0  0  0
   34.2250   26.2410   47.2520 H   0  0  0  0  0  0  0  0  0  0  0  0
   31.1580   28.5180   49.2410 H   0  0  0  0  0  0  0  0  0  0  0  0
   28.6180   27.8160   48.4740 H   0  0  0  0  0  0  0  0  0  0  0  0
   29.5980   24.8170   45.7210 H   0  0  0  0  0  0  0  0  0  0  0  0
   32.4680   24.9660   45.9870 H   0  0  0  0  0  0  0  0  0  0  0  0
  1  2  2  0  0  0  0
  3  4  1  0  0  0  0
  3  1  1  0  0  0  0
  4  9  1  0  0  0  0
  5 10  1  0  0  0  0
  5  4  2  0  0  0  0
  6  5  1  0  0  0  0
  7  6  2  0  0  0  0
  7  8  1  0  0  0  0
  8  3  2  0  0  0  0
 11  7  1  0  0  0  0
 12 11  1  0  0  0  0
 13 12  2  0  0  0  0
 14 15  2  0  0  0  0
 14 13  1  0  0  0  0
 15 22  1  0  0  0  0
 16 17  2  0  0  0  0
 16 15  1  0  0  0  0
 17 19  1  0  0  0  0
 18 17  1  0  0  0  0
 19 20  1  0  0  0  0
 19 21  2  0  0  0  0
 22 21  1  0  0  0  0
 22 11  2  0  0  0  0
 23  1  1  0  0  0  0
 23 24  2  0  0  0  0
 24 28  1  0  0  0  0
 25 24  1  0  0  0  0
 25 29  1  0  0  0  0
 26 25  2  0  0  0  0
 27 26  1  0  0  0  0
 27 23  1  0  0  0  0
 30 31  1  0  0  0  0
 31 32  2  0  0  0  0
 31 26  1  0  0  0  0
 32 40  1  0  0  0  0
 33 34  1  0  0  0  0
 33 32  1  0  0  0  0
 34 41  1  0  0  0  0
 35 34  1  0  0  0  0
 36 37  1  0  0  0  0
 36 35  2  0  0  0  0
 37 33  2  0  0  0  0
 38 37  1  0  0  0  0
 38 30  2  0  0  0  0
 39 30  1  0  0  0  0
 42 36  1  0  0  0  0
 43 38  1  0  0  0  0
M  END
>  <minimizedAffinity>
-7.09510517

>  <minimizedRMSD>
0.971838355

$$$$
