
 OpenBabel03272506063D

 33 36  0  0  0  0  0  0  0  0999 V2000
   33.9420   28.6450   48.2220 C   0  0  0  0  0  0  0  0  0  0  0  0
   34.0720   29.4030   47.0020 C   0  0  0  0  0  0  0  0  0  0  0  0
   32.4270   29.2010   46.3500 S   0  0  0  0  0  0  0  0  0  0  0  0
   31.8130   28.1520   47.7760 C   0  0  0  0  0  0  0  0  0  0  0  0
   32.7850   28.0980   48.4580 N   0  0  0  0  0  0  0  0  0  0  0  0
   34.9350   29.9170   46.6440 H   0  0  0  0  0  0  0  0  0  0  0  0
   30.3980   27.7450   47.6160 C   0  0  0  0  0  0  0  0  0  0  0  0
   29.3260   28.4150   48.0750 N   0  0  0  0  0  0  0  0  0  0  0  0
   28.0660   27.9930   47.8960 C   0  0  0  0  0  3  0  0  0  0  0  0
   27.8050   26.8560   47.2370 N   0  0  0  0  0  0  0  0  0  0  0  0
   28.8110   26.1170   46.7420 C   0  0  0  0  0  0  0  0  0  0  0  0
   28.5150   24.9520   46.0680 C   0  0  0  0  0  3  0  0  0  0  0  0
   29.5600   24.1960   45.5600 C   0  0  0  0  0  0  0  0  0  0  0  0
   29.3110   23.2860   45.0340 H   0  0  0  0  0  0  0  0  0  0  0  0
   30.8620   24.6690   45.7660 C   0  0  0  0  0  0  0  0  0  0  0  0
   31.5870   23.9910   45.3220 H   0  0  0  0  0  0  0  0  0  0  0  0
   31.1120   25.8420   46.4470 C   0  0  0  0  0  3  0  0  0  0  0  0
   30.0920   26.5850   46.9450 C   0  0  0  0  0  0  0  0  0  0  0  0
   35.1420   28.5470   49.1150 C   0  0  0  0  0  0  0  0  0  0  0  0
   36.0720   28.4010   48.4890 H   0  0  0  0  0  0  0  0  0  0  0  0
   35.0920   27.6230   49.7270 H   0  0  0  0  0  0  0  0  0  0  0  0
   35.3200   29.7350   49.9800 C   0  0  0  0  0  0  0  0  0  0  0  0
   34.3910   30.3340   50.1370 H   0  0  0  0  0  0  0  0  0  0  0  0
   35.6540   29.4230   51.0120 H   0  0  0  0  0  0  0  0  0  0  0  0
   37.6640   32.5580   49.4800 C   0  0  0  0  0  0  0  0  0  0  0  0
   38.5000   32.0930   48.4680 C   0  0  0  0  0  0  0  0  0  0  0  0
   38.2470   30.8110   47.9690 C   0  0  0  0  0  0  0  0  0  0  0  0
   37.2220   30.0810   48.4720 N   0  0  0  0  0  0  0  0  0  0  0  0
   36.4400   30.5960   49.4650 C   0  0  0  0  0  0  0  0  0  0  0  0
   36.6590   31.8140   49.9590 N   0  0  0  0  0  0  0  0  0  0  0  0
   37.8190   33.5430   49.8990 H   0  0  0  0  0  0  0  0  0  0  0  0
   39.3140   32.6910   48.0780 H   0  0  0  0  0  0  0  0  0  0  0  0
   38.8590   30.4140   47.1950 H   0  0  0  0  0  0  0  0  0  0  0  0
  1  5  1  0  0  0  0
  1 19  1  0  0  0  0
  2  1  2  0  0  0  0
  3  2  1  0  0  0  0
  3  4  1  0  0  0  0
  4  5  2  0  0  0  0
  6  2  1  0  0  0  0
  7  4  1  0  0  0  0
  7  8  1  0  0  0  0
  9  8  2  0  0  0  0
 10  9  1  0  0  0  0
 11 18  1  0  0  0  0
 11 10  2  0  0  0  0
 12 11  1  0  0  0  0
 13 15  1  0  0  0  0
 13 12  2  0  0  0  0
 14 13  1  0  0  0  0
 15 17  2  0  0  0  0
 16 15  1  0  0  0  0
 17 18  1  0  0  0  0
 18  7  2  0  0  0  0
 19 21  1  0  0  0  0
 19 22  1  0  0  0  0
 20 19  1  0  0  0  0
 22 23  1  0  0  0  0
 22 24  1  0  0  0  0
 25 31  1  0  0  0  0
 25 30  1  0  0  0  0
 26 25  2  0  0  0  0
 27 26  1  0  0  0  0
 27 28  2  0  0  0  0
 28 29  1  0  0  0  0
 29 30  2  0  0  0  0
 29 22  1  0  0  0  0
 32 26  1  0  0  0  0
 33 27  1  0  0  0  0
M  END
>  <minimizedAffinity>
-5.26191282

>  <minimizedRMSD>
1.51599586

$$$$
