
 OpenBabel03272500123D

 24 26  0  0  0  0  0  0  0  0999 V2000
   35.8490   28.8840   50.1170 C   0  0  0  0  0  0  0  0  0  0  0  0
   36.2350   30.1540   49.6670 C   0  0  0  0  0  0  0  0  0  0  0  0
   35.6890   30.6030   48.4690 C   0  0  0  0  0  0  0  0  0  0  0  0
   34.8240   29.7960   47.8120 N   0  0  0  0  0  0  0  0  0  0  0  0
   34.4650   28.5990   48.2450 C   0  0  0  0  0  0  0  0  0  0  0  0
   34.9760   28.1530   49.3860 N   0  0  0  0  0  0  0  0  0  0  0  0
   36.2840   28.5530   51.0490 H   0  0  0  0  0  0  0  0  0  0  0  0
   35.9490   31.5520   48.0880 H   0  0  0  0  0  0  0  0  0  0  0  0
   33.5480   27.5900   47.6770 C   0  0  0  0  0  0  0  0  0  0  0  0
   33.8540   26.7600   46.6780 N   0  0  0  0  0  0  0  0  0  0  0  0
   33.0080   25.8570   46.1830 C   0  0  0  0  0  3  0  0  0  0  0  0
   31.7560   25.6870   46.6370 N   0  0  0  0  0  0  0  0  0  0  0  0
   31.3730   26.4880   47.6430 C   0  0  0  0  0  0  0  0  0  0  0  0
   30.0950   26.3070   48.0970 C   0  0  0  0  0  3  0  0  0  0  0  0
   29.6190   27.0830   49.1230 C   0  0  0  0  0  0  0  0  0  0  0  0
   28.6130   26.9310   49.4720 H   0  0  0  0  0  0  0  0  0  0  0  0
   30.4850   28.0400   49.6650 C   0  0  0  0  0  0  0  0  0  0  0  0
   30.0570   28.6170   50.4650 H   0  0  0  0  0  0  0  0  0  0  0  0
   31.7470   28.1650   49.1610 C   0  0  0  0  0  3  0  0  0  0  0  0
   32.2690   27.4130   48.1350 C   0  0  0  0  0  0  0  0  0  0  0  0
   37.1970   30.9500   50.4920 C   0  0  0  0  0  0  0  0  0  0  0  0
   38.4800   30.8810   49.9650 F   0  0  0  0  0  0  0  0  0  0  0  0
   36.7860   32.2770   50.4350 F   0  0  0  0  0  0  0  0  0  0  0  0
   37.2180   30.5380   51.8040 F   0  0  0  0  0  0  0  0  0  0  0  0
  1  7  1  0  0  0  0
  2  1  1  0  0  0  0
  2 21  1  0  0  0  0
  3  2  2  0  0  0  0
  4  5  2  0  0  0  0
  4  3  1  0  0  0  0
  5  6  1  0  0  0  0
  6  1  2  0  0  0  0
  8  3  1  0  0  0  0
  9 20  1  0  0  0  0
  9  5  1  0  0  0  0
 10  9  2  0  0  0  0
 11 12  2  0  0  0  0
 11 10  1  0  0  0  0
 12 13  1  0  0  0  0
 13 14  2  0  0  0  0
 13 20  1  0  0  0  0
 14 15  1  0  0  0  0
 15 16  1  0  0  0  0
 15 17  2  0  0  0  0
 17 18  1  0  0  0  0
 19 17  1  0  0  0  0
 20 19  2  0  0  0  0
 21 24  1  0  0  0  0
 22 21  1  0  0  0  0
 23 21  1  0  0  0  0
M  END
>  <minimizedAffinity>
-5.4399395

>  <minimizedRMSD>
0.280332088

$$$$
