
 OpenBabel03272500113D

 24 26  0  0  0  0  0  0  0  0999 V2000
   35.8480   28.8860   50.1180 C   0  0  0  0  0  0  0  0  0  0  0  0
   36.2350   30.1550   49.6670 C   0  0  0  0  0  0  0  0  0  0  0  0
   35.6900   30.6030   48.4680 C   0  0  0  0  0  0  0  0  0  0  0  0
   34.8240   29.7960   47.8120 N   0  0  0  0  0  0  0  0  0  0  0  0
   34.4660   28.5990   48.2460 C   0  0  0  0  0  0  0  0  0  0  0  0
   34.9760   28.1540   49.3870 N   0  0  0  0  0  0  0  0  0  0  0  0
   36.2840   28.5550   51.0500 H   0  0  0  0  0  0  0  0  0  0  0  0
   35.9490   31.5510   48.0870 H   0  0  0  0  0  0  0  0  0  0  0  0
   33.5480   27.5890   47.6780 C   0  0  0  0  0  0  0  0  0  0  0  0
   33.8550   26.7580   46.6800 N   0  0  0  0  0  0  0  0  0  0  0  0
   33.0100   25.8550   46.1850 C   0  0  0  0  0  3  0  0  0  0  0  0
   31.7570   25.6860   46.6380 N   0  0  0  0  0  0  0  0  0  0  0  0
   31.3730   26.4880   47.6450 C   0  0  0  0  0  0  0  0  0  0  0  0
   30.0960   26.3070   48.0980 C   0  0  0  0  0  3  0  0  0  0  0  0
   29.6190   27.0820   49.1240 C   0  0  0  0  0  0  0  0  0  0  0  0
   28.6140   26.9320   49.4730 H   0  0  0  0  0  0  0  0  0  0  0  0
   30.4850   28.0400   49.6650 C   0  0  0  0  0  0  0  0  0  0  0  0
   30.0580   28.6180   50.4650 H   0  0  0  0  0  0  0  0  0  0  0  0
   31.7470   28.1660   49.1620 C   0  0  0  0  0  3  0  0  0  0  0  0
   32.2710   27.4120   48.1360 C   0  0  0  0  0  0  0  0  0  0  0  0
   37.1970   30.9520   50.4920 C   0  0  0  0  0  0  0  0  0  0  0  0
   38.4790   30.8840   49.9640 F   0  0  0  0  0  0  0  0  0  0  0  0
   36.7840   32.2790   50.4350 F   0  0  0  0  0  0  0  0  0  0  0  0
   37.2180   30.5400   51.8030 F   0  0  0  0  0  0  0  0  0  0  0  0
  1  7  1  0  0  0  0
  2  1  1  0  0  0  0
  2 21  1  0  0  0  0
  3  2  2  0  0  0  0
  4  5  2  0  0  0  0
  4  3  1  0  0  0  0
  5  6  1  0  0  0  0
  6  1  2  0  0  0  0
  8  3  1  0  0  0  0
  9 20  1  0  0  0  0
  9  5  1  0  0  0  0
 10  9  2  0  0  0  0
 11 12  2  0  0  0  0
 11 10  1  0  0  0  0
 12 13  1  0  0  0  0
 13 14  2  0  0  0  0
 13 20  1  0  0  0  0
 14 15  1  0  0  0  0
 15 16  1  0  0  0  0
 15 17  2  0  0  0  0
 17 18  1  0  0  0  0
 19 17  1  0  0  0  0
 20 19  2  0  0  0  0
 21 24  1  0  0  0  0
 22 21  1  0  0  0  0
 23 21  1  0  0  0  0
M  END
>  <minimizedAffinity>
-5.43755722

>  <minimizedRMSD>
0.878905952

$$$$
