
 OpenBabel03272510073D

 33 36  0  0  0  0  0  0  0  0999 V2000
   36.2550   30.0290   48.2010 C   0  0  0  0  0  0  0  0  0  0  0  0
   36.6200   30.5360   46.9500 C   0  0  0  0  0  0  0  0  0  0  0  0
   35.8070   30.2290   45.8310 C   0  0  0  0  0  0  0  0  0  0  0  0
   34.7010   29.4490   46.0220 N   0  0  0  0  0  0  0  0  0  0  0  0
   34.4000   28.9860   47.2620 C   0  0  0  0  0  0  0  0  0  0  0  0
   35.1560   29.2650   48.3400 N   0  0  0  0  0  0  0  0  0  0  0  0
   33.2180   28.1630   47.3930 N   0  0  0  0  0  0  0  0  0  0  0  0
   31.8810   28.6090   47.0740 C   0  0  0  0  0  0  0  0  0  0  0  0
   31.0510   27.3720   47.1090 C   0  0  0  0  0  0  0  0  0  0  0  0
   32.0180   26.2020   47.2130 C   0  0  0  0  0  0  0  0  0  0  0  0
   33.2170   26.7780   47.8640 C   0  0  0  0  0  0  0  0  0  0  0  0
   36.8760   30.2890   49.0270 H   0  0  0  0  0  0  0  0  0  0  0  0
   36.0060   30.5730   44.8310 H   0  0  0  0  0  0  0  0  0  0  0  0
   31.4890   29.3430   47.8080 H   0  0  0  0  0  0  0  0  0  0  0  0
   31.8350   29.1080   46.0830 H   0  0  0  0  0  0  0  0  0  0  0  0
   30.4580   27.2870   46.1820 H   0  0  0  0  0  0  0  0  0  0  0  0
   30.3450   27.3880   47.9670 H   0  0  0  0  0  0  0  0  0  0  0  0
   32.2130   25.7760   46.2020 H   0  0  0  0  0  0  0  0  0  0  0  0
   31.5530   25.4430   47.8910 H   0  0  0  0  0  0  0  0  0  0  0  0
   33.2170   26.7030   48.9570 H   0  0  0  0  0  0  0  0  0  0  0  0
   34.1270   26.2330   47.4800 H   0  0  0  0  0  0  0  0  0  0  0  0
   37.7610   31.3370   46.6090 C   0  0  0  0  0  0  0  0  0  0  0  0
   38.2910   31.1170   45.3830 N   0  0  0  0  0  0  0  0  0  0  0  0
   39.3620   31.8250   44.9940 C   0  0  0  0  0  3  0  0  0  0  0  0
   39.9850   32.7790   45.7450 N   0  0  0  0  0  0  0  0  0  0  0  0
   39.4830   33.0220   46.9690 C   0  0  0  0  0  0  0  0  0  0  0  0
   40.0380   33.9640   47.8380 C   0  0  0  0  0  3  0  0  0  0  0  0
   39.4980   34.1830   49.1080 C   0  0  0  0  0  0  0  0  0  0  0  0
   39.9460   34.9180   49.7600 H   0  0  0  0  0  0  0  0  0  0  0  0
   38.3820   33.4410   49.5130 C   0  0  0  0  0  0  0  0  0  0  0  0
   37.9650   33.6150   50.5060 H   0  0  0  0  0  0  0  0  0  0  0  0
   37.8640   32.5210   48.6270 C   0  0  0  0  0  3  0  0  0  0  0  0
   38.3870   32.2970   47.3710 C   0  0  0  0  0  0  0  0  0  0  0  0
  1  6  1  0  0  0  0
  1 12  1  0  0  0  0
  2  1  2  0  0  0  0
  3  4  2  0  0  0  0
  3  2  1  0  0  0  0
  4  5  1  0  0  0  0
  5  7  1  0  0  0  0
  5  6  2  0  0  0  0
  7 11  1  0  0  0  0
  8  9  1  0  0  0  0
  8  7  1  0  0  0  0
  8 14  1  0  0  0  0
  9 10  1  0  0  0  0
  9 17  1  0  0  0  0
 10 11  1  0  0  0  0
 10 19  1  0  0  0  0
 11 20  1  0  0  0  0
 13  3  1  0  0  0  0
 15  8  1  0  0  0  0
 16  9  1  0  0  0  0
 18 10  1  0  0  0  0
 21 11  1  0  0  0  0
 22  2  1  0  0  0  0
 22 33  1  0  0  0  0
 23 22  2  0  0  0  0
 24 23  1  0  0  0  0
 24 25  2  0  0  0  0
 25 26  1  0  0  0  0
 26 33  2  0  0  0  0
 26 27  1  0  0  0  0
 27 28  2  0  0  0  0
 28 30  1  0  0  0  0
 28 29  1  0  0  0  0
 30 31  1  0  0  0  0
 32 30  2  0  0  0  0
 33 32  1  0  0  0  0
M  END
>  <minimizedAffinity>
-5.69566584

>  <minimizedRMSD>
3.80596495

$$$$
