
 OpenBabel03272510083D

 47 52  0  0  0  0  0  0  0  0999 V2000
   33.0980   34.4700   42.0160 C   0  0  0  0  0  0  0  0  0  0  0  0
   33.1560   35.8230   41.9120 N   0  0  0  0  0  0  0  0  0  0  0  0
   34.3290   36.4260   41.6860 C   0  0  0  0  0  0  0  0  0  0  0  0
   35.5240   35.7600   41.5490 N   0  0  0  0  0  0  0  0  0  0  0  0
   35.4990   34.4250   41.6480 C   0  0  0  0  0  0  0  0  0  0  0  0
   36.6470   33.6380   41.5740 C   0  0  0  0  0  0  0  0  0  0  0  0
   36.5940   32.2600   41.7290 C   0  0  0  0  0  0  0  0  0  0  0  0
   35.3550   31.6430   41.9660 C   0  0  0  0  0  0  0  0  0  0  0  0
   34.2320   32.4650   42.0280 C   0  0  0  0  0  0  0  0  0  0  0  0
   34.2950   33.8130   41.8770 C   0  0  0  0  0  0  0  0  0  0  0  0
   34.3750   37.5090   41.6080 H   0  0  0  0  0  0  0  0  0  0  0  0
   37.5740   34.1890   41.3860 H   0  0  0  0  0  0  0  0  0  0  0  0
   37.5590   31.8130   41.6450 H   0  0  0  0  0  0  0  0  0  0  0  0
   35.5610   30.5900   42.0540 H   0  0  0  0  0  0  0  0  0  0  0  0
   30.8740   33.4030   41.3140 C   0  0  0  0  0  0  0  0  0  0  0  0
   31.8010   33.9340   42.2500 C   0  0  0  0  0  0  0  0  0  0  0  0
   31.4270   33.9720   43.6130 C   0  0  0  0  0  0  0  0  0  0  0  0
   30.2040   33.5120   43.9820 N   0  0  0  0  0  0  0  0  0  0  0  0
   29.3520   33.0150   43.0280 C   0  0  0  0  0  0  0  0  0  0  0  0
   29.6790   32.9570   41.7140 N   0  0  0  0  0  0  0  0  0  0  0  0
   28.0490   32.5730   43.4660 N   0  0  0  0  0  0  0  0  0  0  0  0
   27.8420   31.5090   44.4030 C   0  0  0  0  0  0  0  0  0  0  0  0
   26.3910   31.5930   44.7620 C   0  0  0  0  0  0  0  0  0  0  0  0
   25.8660   32.8840   44.1800 C   0  0  0  0  0  0  0  0  0  0  0  0
   26.7700   33.1360   43.0230 C   0  0  0  0  0  0  0  0  0  0  0  0
   31.2450   33.4110   40.3100 H   0  0  0  0  0  0  0  0  0  0  0  0
   32.0360   34.3380   44.3950 H   0  0  0  0  0  0  0  0  0  0  0  0
   28.1020   30.5200   43.9560 H   0  0  0  0  0  0  0  0  0  0  0  0
   28.4350   31.7360   45.3110 H   0  0  0  0  0  0  0  0  0  0  0  0
   26.2340   31.6310   45.8590 H   0  0  0  0  0  0  0  0  0  0  0  0
   25.8370   30.7060   44.3620 H   0  0  0  0  0  0  0  0  0  0  0  0
   25.8720   33.7160   44.9160 H   0  0  0  0  0  0  0  0  0  0  0  0
   24.8350   32.6970   43.8250 H   0  0  0  0  0  0  0  0  0  0  0  0
   26.8340   34.1810   42.7150 H   0  0  0  0  0  0  0  0  0  0  0  0
   26.4060   32.5650   42.1440 H   0  0  0  0  0  0  0  0  0  0  0  0
   33.1880   31.4470   42.1150 C   0  0  0  0  0  0  0  0  0  0  0  0
   32.0820   31.2120   42.8500 N   0  0  0  0  0  0  0  0  0  0  0  0
   31.3790   30.0960   42.7280 C   0  0  0  0  0  3  0  0  0  0  0  0
   31.7180   29.1310   41.8770 N   0  0  0  0  0  0  0  0  0  0  0  0
   32.8090   29.2510   41.0870 C   0  0  0  0  0  0  0  0  0  0  0  0
   33.0800   28.1830   40.2740 C   0  0  0  0  0  3  0  0  0  0  0  0
   34.1940   28.2610   39.4880 C   0  0  0  0  0  0  0  0  0  0  0  0
   34.4690   27.4680   38.8390 H   0  0  0  0  0  0  0  0  0  0  0  0
   34.9920   29.3720   39.5320 C   0  0  0  0  0  0  0  0  0  0  0  0
   35.9040   29.5000   38.9350 H   0  0  0  0  0  0  0  0  0  0  0  0
   34.6610   30.4050   40.3710 C   0  0  0  0  0  3  0  0  0  0  0  0
   33.5450   30.4340   41.2190 C   0  0  0  0  0  0  0  0  0  0  0  0
  1 16  1  0  0  0  0
  2  1  1  0  0  0  0
  3  2  2  0  0  0  0
  4  5  2  0  0  0  0
  4  3  1  0  0  0  0
  5 10  1  0  0  0  0
  6  5  1  0  0  0  0
  6  7  2  0  0  0  0
  7  8  1  0  0  0  0
  8  9  2  0  0  0  0
  8 14  1  0  0  0  0
  9 36  1  0  0  0  0
 10  1  2  0  0  0  0
 10  9  1  0  0  0  0
 11  3  1  0  0  0  0
 12  6  1  0  0  0  0
 13  7  1  0  0  0  0
 15 20  2  0  0  0  0
 15 16  1  0  0  0  0
 16 17  2  0  0  0  0
 17 18  1  0  0  0  0
 17 27  1  0  0  0  0
 19 21  1  0  0  0  0
 19 18  2  0  0  0  0
 20 19  1  0  0  0  0
 21 22  1  0  0  0  0
 22 23  1  0  0  0  0
 22 29  1  0  0  0  0
 23 30  1  0  0  0  0
 24 23  1  0  0  0  0
 24 32  1  0  0  0  0
 25 21  1  0  0  0  0
 25 24  1  0  0  0  0
 26 15  1  0  0  0  0
 28 22  1  0  0  0  0
 31 23  1  0  0  0  0
 33 24  1  0  0  0  0
 34 25  1  0  0  0  0
 35 25  1  0  0  0  0
 36 37  1  0  0  0  0
 38 37  2  0  0  0  0
 39 38  1  0  0  0  0
 40 47  1  0  0  0  0
 40 39  2  0  0  0  0
 41 40  1  0  0  0  0
 42 44  1  0  0  0  0
 42 41  2  0  0  0  0
 43 42  1  0  0  0  0
 44 46  2  0  0  0  0
 45 44  1  0  0  0  0
 46 47  1  0  0  0  0
 47 36  2  0  0  0  0
M  END
>  <minimizedAffinity>
-2.76585698

>  <minimizedRMSD>
7.54560041

$$$$
