
 OpenBabel03262523163D

 42 46  0  0  0  0  0  0  0  0999 V2000
   36.5200   29.5750   50.3880 C   0  0  0  0  0  0  0  0  0  0  0  0
   37.4090   30.2610   49.5640 C   0  0  0  0  0  0  0  0  0  0  0  0
   37.1450   30.3090   48.2050 C   0  0  0  0  0  0  0  0  0  0  0  0
   36.0230   29.6710   47.7920 N   0  0  0  0  0  0  0  0  0  0  0  0
   35.1820   29.0200   48.5710 C   0  0  0  0  0  0  0  0  0  0  0  0
   35.4420   28.9780   49.8840 N   0  0  0  0  0  0  0  0  0  0  0  0
   38.2640   30.7270   50.0030 H   0  0  0  0  0  0  0  0  0  0  0  0
   38.1150   31.0380   47.4140 C   0  0  0  0  0  0  0  0  0  0  0  0
   38.4910   30.5820   46.2060 N   0  0  0  0  0  0  0  0  0  0  0  0
   39.3770   31.1860   45.4050 C   0  0  0  0  0  3  0  0  0  0  0  0
   39.9880   32.3330   45.7440 N   0  0  0  0  0  0  0  0  0  0  0  0
   39.6710   32.8650   46.9430 C   0  0  0  0  0  0  0  0  0  0  0  0
   40.2670   34.0420   47.3440 C   0  0  0  0  0  3  0  0  0  0  0  0
   39.9760   34.6260   48.5610 C   0  0  0  0  0  0  0  0  0  0  0  0
   40.4320   35.5470   48.8920 H   0  0  0  0  0  0  0  0  0  0  0  0
   39.0450   33.9620   49.3670 C   0  0  0  0  0  0  0  0  0  0  0  0
   38.8270   34.4350   50.3200 H   0  0  0  0  0  0  0  0  0  0  0  0
   38.4760   32.7910   48.9230 C   0  0  0  0  0  3  0  0  0  0  0  0
   38.7540   32.2110   47.7340 C   0  0  0  0  0  0  0  0  0  0  0  0
   34.0030   28.3480   48.0080 C   0  0  0  0  0  0  0  0  0  0  0  0
   33.8320   26.9910   48.2380 C   0  0  0  0  0  0  0  0  0  0  0  0
   32.7080   26.4640   47.6600 C   0  0  0  0  0  0  0  0  0  0  0  0
   31.8220   27.2100   46.9120 C   0  0  0  0  0  0  0  0  0  0  0  0
   32.0700   28.5440   46.7370 C   0  0  0  0  0  0  0  0  0  0  0  0
   33.1670   29.1030   47.2910 N   0  0  0  0  0  0  0  0  0  0  0  0
   34.5320   26.4380   48.8210 H   0  0  0  0  0  0  0  0  0  0  0  0
   32.5240   25.3960   47.8100 H   0  0  0  0  0  0  0  0  0  0  0  0
   30.9750   26.6810   46.5010 H   0  0  0  0  0  0  0  0  0  0  0  0
   29.2160   28.7330   47.7160 Cl  0  0  0  0  0  0  0  0  0  0  0  0
   29.8620   29.5360   46.3190 C   0  0  0  0  0  0  0  0  0  0  0  0
   31.1760   29.3810   45.9640 C   0  0  0  0  0  0  0  0  0  0  0  0
   31.5470   30.0870   44.8270 C   0  0  0  0  0  0  0  0  0  0  0  0
   30.7040   30.8790   44.0950 C   0  0  0  0  0  0  0  0  0  0  0  0
   29.3760   31.0080   44.4920 C   0  0  0  0  0  0  0  0  0  0  0  0
   28.3010   32.0140   43.5710 Cl  0  0  0  0  0  0  0  0  0  0  0  0
   28.9790   30.3240   45.6100 C   0  0  0  0  0  0  0  0  0  0  0  0
   32.5780   30.0070   44.4890 H   0  0  0  0  0  0  0  0  0  0  0  0
   31.0200   31.4130   43.2200 H   0  0  0  0  0  0  0  0  0  0  0  0
   27.9390   30.4440   45.8960 H   0  0  0  0  0  0  0  0  0  0  0  0
   36.6990   29.4660   51.8180 N   0  0  0  0  0  0  0  0  0  0  0  0
   36.5200   30.4630   52.1410 H   0  0  0  0  0  0  0  0  0  0  0  0
   36.9390   28.6250   52.3630 H   0  0  0  0  0  0  0  0  0  0  0  0
  1 40  1  0  0  0  0
  2  7  1  0  0  0  0
  2  1  2  0  0  0  0
  3  2  1  0  0  0  0
  4  3  2  0  0  0  0
  4  5  1  0  0  0  0
  5  6  2  0  0  0  0
  6  1  1  0  0  0  0
  8 19  1  0  0  0  0
  8  3  1  0  0  0  0
  9  8  2  0  0  0  0
 10 11  2  0  0  0  0
 10  9  1  0  0  0  0
 11 12  1  0  0  0  0
 12 13  2  0  0  0  0
 12 19  1  0  0  0  0
 13 14  1  0  0  0  0
 14 15  1  0  0  0  0
 14 16  2  0  0  0  0
 16 17  1  0  0  0  0
 18 16  1  0  0  0  0
 19 18  2  0  0  0  0
 20 21  1  0  0  0  0
 20  5  1  0  0  0  0
 21 26  1  0  0  0  0
 22 27  1  0  0  0  0
 22 21  2  0  0  0  0
 23 22  1  0  0  0  0
 24 23  2  0  0  0  0
 24 25  1  0  0  0  0
 25 20  2  0  0  0  0
 28 23  1  0  0  0  0
 30 29  1  0  0  0  0
 31 30  1  0  0  0  0
 31 24  1  0  0  0  0
 32 31  2  0  0  0  0
 33 34  2  0  0  0  0
 33 32  1  0  0  0  0
 34 36  1  0  0  0  0
 35 34  1  0  0  0  0
 36 39  1  0  0  0  0
 36 30  2  0  0  0  0
 37 32  1  0  0  0  0
 38 33  1  0  0  0  0
 40 41  1  0  0  0  0
 40 42  1  0  0  0  0
M  END
>  <minimizedAffinity>
-7.36055613

>  <minimizedRMSD>
1.83898079

$$$$
