
 OpenBabel03262521203D

 32 34  0  0  0  0  0  0  0  0999 V2000
   36.5020   23.8600   32.0480 C   0  0  0  0  0  0  0  0  0  0  0  0
   36.4000   25.1710   31.6590 C   0  0  0  0  0  0  0  0  0  0  0  0
   37.3260   26.0780   32.1560 C   0  0  0  0  0  0  0  0  0  0  0  0
   38.2780   25.6110   32.9980 N   0  0  0  0  0  0  0  0  0  0  0  0
   38.3780   24.3270   33.3800 C   0  0  0  0  0  0  0  0  0  0  0  0
   37.4790   23.5320   32.8780 N   0  0  0  0  0  0  0  0  0  0  0  0
   35.6770   25.6090   31.0000 H   0  0  0  0  0  0  0  0  0  0  0  0
   37.3640   27.1150   31.9390 H   0  0  0  0  0  0  0  0  0  0  0  0
   39.3130   23.6170   34.2720 C   0  0  0  0  0  0  0  0  0  0  0  0
   40.4120   22.9780   33.8390 N   0  0  0  0  0  0  0  0  0  0  0  0
   41.2300   22.3490   34.6790 C   0  0  0  0  0  3  0  0  0  0  0  0
   41.0390   22.2940   36.0090 N   0  0  0  0  0  0  0  0  0  0  0  0
   39.9470   22.9150   36.5340 C   0  0  0  0  0  0  0  0  0  0  0  0
   39.7520   22.8560   37.8930 C   0  0  0  0  0  3  0  0  0  0  0  0
   38.6520   23.4780   38.4410 C   0  0  0  0  0  0  0  0  0  0  0  0
   38.5880   23.3760   39.5140 H   0  0  0  0  0  0  0  0  0  0  0  0
   37.7800   24.1430   37.5940 C   0  0  0  0  0  0  0  0  0  0  0  0
   36.9500   24.6040   38.0740 H   0  0  0  0  0  0  0  0  0  0  0  0
   38.0490   24.1540   36.2450 C   0  0  0  0  0  3  0  0  0  0  0  0
   39.1260   23.5550   35.6340 C   0  0  0  0  0  0  0  0  0  0  0  0
   35.5470   23.0130   31.5140 O   0  0  0  0  0  0  0  0  0  0  0  0
   35.8930   21.7090   31.2440 C   0  0  0  0  0  0  0  0  0  0  0  0
   35.7710   21.5270   30.1500 H   0  0  0  0  0  0  0  0  0  0  0  0
   36.9640   21.4520   31.4560 H   0  0  0  0  0  0  0  0  0  0  0  0
   34.9940   21.1050   32.0500 C   0  0  0  0  0  0  0  0  0  0  0  0
   34.1540   20.5760   31.5240 H   0  0  0  0  0  0  0  0  0  0  0  0
   34.3890   21.8890   32.6100 H   0  0  0  0  0  0  0  0  0  0  0  0
   35.4940   20.1500   33.0810 C   0  0  0  0  0  0  0  0  0  0  0  0
   34.7910   20.2310   33.9630 H   0  0  0  0  0  0  0  0  0  0  0  0
   36.4920   20.4310   33.4970 H   0  0  0  0  0  0  0  0  0  0  0  0
   35.4600   18.4510   32.5460 S   0  0  0  0  0  0  0  0  0  0  0  0
   36.7870   17.9860   32.4640 H   0  0  0  0  0  0  0  0  0  0  0  0
  1  6  1  0  0  0  0
  2  1  2  0  0  0  0
  2  3  1  0  0  0  0
  3  4  2  0  0  0  0
  4  5  1  0  0  0  0
  5  9  1  0  0  0  0
  6  5  2  0  0  0  0
  7  2  1  0  0  0  0
  8  3  1  0  0  0  0
  9 20  1  0  0  0  0
 10  9  2  0  0  0  0
 10 11  1  0  0  0  0
 11 12  2  0  0  0  0
 12 13  1  0  0  0  0
 13 14  1  0  0  0  0
 14 15  2  0  0  0  0
 15 16  1  0  0  0  0
 17 18  1  0  0  0  0
 17 15  1  0  0  0  0
 19 17  2  0  0  0  0
 20 19  1  0  0  0  0
 20 13  2  0  0  0  0
 21  1  1  0  0  0  0
 22 24  1  0  0  0  0
 22 21  1  0  0  0  0
 22 25  1  0  0  0  0
 23 22  1  0  0  0  0
 25 27  1  0  0  0  0
 25 28  1  0  0  0  0
 26 25  1  0  0  0  0
 28 30  1  0  0  0  0
 28 29  1  0  0  0  0
 31 28  1  0  0  0  0
 32 31  1  0  0  0  0
M  END
>  <minimizedAffinity>
-4.97312784

$$$$

 OpenBabel03262521203D

 32 34  0  0  0  0  0  0  0  0999 V2000
   37.4680   25.5470   32.7560 C   0  0  0  0  0  0  0  0  0  0  0  0
   38.1990   26.6090   32.2880 C   0  0  0  0  0  0  0  0  0  0  0  0
   39.2300   27.0970   33.0800 C   0  0  0  0  0  0  0  0  0  0  0  0
   39.4500   26.4920   34.2720 N   0  0  0  0  0  0  0  0  0  0  0  0
   38.7330   25.4530   34.7310 C   0  0  0  0  0  0  0  0  0  0  0  0
   37.7840   25.0470   33.9390 N   0  0  0  0  0  0  0  0  0  0  0  0
   38.0810   27.1340   31.3610 H   0  0  0  0  0  0  0  0  0  0  0  0
   39.8710   27.9070   32.8430 H   0  0  0  0  0  0  0  0  0  0  0  0
   38.7980   24.6620   35.9730 C   0  0  0  0  0  0  0  0  0  0  0  0
   37.9520   24.8270   37.0040 N   0  0  0  0  0  0  0  0  0  0  0  0
   38.0460   24.0910   38.1080 C   0  0  0  0  0  3  0  0  0  0  0  0
   38.9730   23.1350   38.2930 N   0  0  0  0  0  0  0  0  0  0  0  0
   39.8720   22.9010   37.2980 C   0  0  0  0  0  0  0  0  0  0  0  0
   40.8200   21.9250   37.4900 C   0  0  0  0  0  3  0  0  0  0  0  0
   41.7380   21.6750   36.4930 C   0  0  0  0  0  0  0  0  0  0  0  0
   42.4390   20.8920   36.7380 H   0  0  0  0  0  0  0  0  0  0  0  0
   41.6670   22.4240   35.3300 C   0  0  0  0  0  0  0  0  0  0  0  0
   42.4020   22.1860   34.5970 H   0  0  0  0  0  0  0  0  0  0  0  0
   40.6870   23.3820   35.2180 C   0  0  0  0  0  3  0  0  0  0  0  0
   39.7430   23.6810   36.1730 C   0  0  0  0  0  0  0  0  0  0  0  0
   36.4580   25.1140   31.9140 O   0  0  0  0  0  0  0  0  0  0  0  0
   36.6760   24.0010   31.1360 C   0  0  0  0  0  0  0  0  0  0  0  0
   36.7090   24.3140   30.0660 H   0  0  0  0  0  0  0  0  0  0  0  0
   37.6580   23.4870   31.3110 H   0  0  0  0  0  0  0  0  0  0  0  0
   35.5900   23.2930   31.5140 C   0  0  0  0  0  0  0  0  0  0  0  0
   34.6990   23.3760   30.8340 H   0  0  0  0  0  0  0  0  0  0  0  0
   35.1390   23.7470   32.4540 H   0  0  0  0  0  0  0  0  0  0  0  0
   35.7540   21.8360   31.7930 C   0  0  0  0  0  0  0  0  0  0  0  0
   36.1470   21.3680   30.8430 H   0  0  0  0  0  0  0  0  0  0  0  0
   34.7850   21.3110   31.9790 H   0  0  0  0  0  0  0  0  0  0  0  0
   36.9440   21.4910   33.0730 S   0  0  0  0  0  0  0  0  0  0  0  0
   36.2650   20.9240   34.1680 H   0  0  0  0  0  0  0  0  0  0  0  0
  1  6  1  0  0  0  0
  2  1  2  0  0  0  0
  2  3  1  0  0  0  0
  3  4  2  0  0  0  0
  4  5  1  0  0  0  0
  5  9  1  0  0  0  0
  6  5  2  0  0  0  0
  7  2  1  0  0  0  0
  8  3  1  0  0  0  0
  9 20  2  0  0  0  0
  9 10  1  0  0  0  0
 10 11  2  0  0  0  0
 11 12  1  0  0  0  0
 13 14  1  0  0  0  0
 13 12  2  0  0  0  0
 15 16  1  0  0  0  0
 15 14  2  0  0  0  0
 17 15  1  0  0  0  0
 18 17  1  0  0  0  0
 19 17  2  0  0  0  0
 19 20  1  0  0  0  0
 20 13  1  0  0  0  0
 21  1  1  0  0  0  0
 22 24  1  0  0  0  0
 22 25  1  0  0  0  0
 22 21  1  0  0  0  0
 23 22  1  0  0  0  0
 25 28  1  0  0  0  0
 25 27  1  0  0  0  0
 26 25  1  0  0  0  0
 28 30  1  0  0  0  0
 28 31  1  0  0  0  0
 29 28  1  0  0  0  0
 31 32  1  0  0  0  0
M  END
>  <minimizedAffinity>
-4.91780853

$$$$

 OpenBabel03262521203D

 32 34  0  0  0  0  0  0  0  0999 V2000
   37.3250   27.5730   32.8680 C   0  0  0  0  0  0  0  0  0  0  0  0
   37.8660   27.9770   31.6740 C   0  0  0  0  0  0  0  0  0  0  0  0
   37.2190   28.9810   30.9660 C   0  0  0  0  0  0  0  0  0  0  0  0
   36.0880   29.5010   31.4990 N   0  0  0  0  0  0  0  0  0  0  0  0
   35.5570   29.1040   32.6680 C   0  0  0  0  0  0  0  0  0  0  0  0
   36.2140   28.1610   33.2790 N   0  0  0  0  0  0  0  0  0  0  0  0
   38.7520   27.6130   31.1940 H   0  0  0  0  0  0  0  0  0  0  0  0
   37.5250   29.3870   30.0360 H   0  0  0  0  0  0  0  0  0  0  0  0
   34.3580   29.5210   33.4180 C   0  0  0  0  0  0  0  0  0  0  0  0
   33.1100   29.1530   33.0860 N   0  0  0  0  0  0  0  0  0  0  0  0
   32.0540   29.5530   33.7910 C   0  0  0  0  0  3  0  0  0  0  0  0
   32.1350   30.3450   34.8750 N   0  0  0  0  0  0  0  0  0  0  0  0
   33.3640   30.7660   35.2810 C   0  0  0  0  0  0  0  0  0  0  0  0
   33.4440   31.5760   36.3880 C   0  0  0  0  0  3  0  0  0  0  0  0
   34.6800   32.0130   36.8130 C   0  0  0  0  0  0  0  0  0  0  0  0
   34.6380   32.6420   37.6880 H   0  0  0  0  0  0  0  0  0  0  0  0
   35.8000   31.6130   36.1010 C   0  0  0  0  0  0  0  0  0  0  0  0
   36.7250   31.9810   36.4760 H   0  0  0  0  0  0  0  0  0  0  0  0
   35.6320   30.8010   35.0040 C   0  0  0  0  0  3  0  0  0  0  0  0
   34.4300   30.3310   34.5280 C   0  0  0  0  0  0  0  0  0  0  0  0
   38.0240   26.5700   33.5180 O   0  0  0  0  0  0  0  0  0  0  0  0
   39.2620   26.8590   34.0440 C   0  0  0  0  0  0  0  0  0  0  0  0
   39.9750   26.0570   33.7370 H   0  0  0  0  0  0  0  0  0  0  0  0
   39.7260   27.8080   33.6670 H   0  0  0  0  0  0  0  0  0  0  0  0
   38.9140   26.8760   35.3470 C   0  0  0  0  0  0  0  0  0  0  0  0
   38.3880   27.8070   35.6940 H   0  0  0  0  0  0  0  0  0  0  0  0
   39.8460   26.9460   35.9960 H   0  0  0  0  0  0  0  0  0  0  0  0
   38.1170   25.7340   35.8860 C   0  0  0  0  0  0  0  0  0  0  0  0
   37.2910   25.5390   35.1400 H   0  0  0  0  0  0  0  0  0  0  0  0
   37.5810   25.9800   36.8350 H   0  0  0  0  0  0  0  0  0  0  0  0
   39.0530   24.2260   36.0310 S   0  0  0  0  0  0  0  0  0  0  0  0
   39.1590   23.9000   37.3970 H   0  0  0  0  0  0  0  0  0  0  0  0
  1  6  1  0  0  0  0
  1 21  1  0  0  0  0
  2  1  2  0  0  0  0
  3  4  2  0  0  0  0
  3  2  1  0  0  0  0
  4  5  1  0  0  0  0
  5  6  2  0  0  0  0
  5  9  1  0  0  0  0
  7  2  1  0  0  0  0
  8  3  1  0  0  0  0
  9 20  1  0  0  0  0
 10  9  2  0  0  0  0
 10 11  1  0  0  0  0
 11 12  2  0  0  0  0
 12 13  1  0  0  0  0
 13 14  1  0  0  0  0
 14 15  2  0  0  0  0
 15 16  1  0  0  0  0
 17 18  1  0  0  0  0
 17 15  1  0  0  0  0
 19 17  2  0  0  0  0
 20 19  1  0  0  0  0
 20 13  2  0  0  0  0
 21 22  1  0  0  0  0
 22 25  1  0  0  0  0
 23 22  1  0  0  0  0
 24 22  1  0  0  0  0
 25 26  1  0  0  0  0
 25 28  1  0  0  0  0
 25 27  1  0  0  0  0
 28 31  1  0  0  0  0
 28 30  1  0  0  0  0
 29 28  1  0  0  0  0
 31 32  1  0  0  0  0
M  END
>  <minimizedAffinity>
-4.91712284

$$$$

 OpenBabel03262521203D

 32 34  0  0  0  0  0  0  0  0999 V2000
   37.0030   27.9400   32.1170 C   0  0  0  0  0  0  0  0  0  0  0  0
   37.3480   28.5470   30.9360 C   0  0  0  0  0  0  0  0  0  0  0  0
   36.5950   29.6330   30.5110 C   0  0  0  0  0  0  0  0  0  0  0  0
   35.5600   30.0280   31.2910 N   0  0  0  0  0  0  0  0  0  0  0  0
   35.2210   29.4320   32.4460 C   0  0  0  0  0  0  0  0  0  0  0  0
   35.9680   28.4220   32.7850 N   0  0  0  0  0  0  0  0  0  0  0  0
   38.1490   28.2910   30.2720 H   0  0  0  0  0  0  0  0  0  0  0  0
   36.7490   30.1930   29.6240 H   0  0  0  0  0  0  0  0  0  0  0  0
   34.1540   29.6880   33.4300 C   0  0  0  0  0  0  0  0  0  0  0  0
   32.9050   29.2080   33.3130 N   0  0  0  0  0  0  0  0  0  0  0  0
   31.9710   29.4650   34.2260 C   0  0  0  0  0  3  0  0  0  0  0  0
   32.1820   30.2100   35.3240 N   0  0  0  0  0  0  0  0  0  0  0  0
   33.4220   30.7370   35.5220 C   0  0  0  0  0  0  0  0  0  0  0  0
   33.6360   31.5000   36.6440 C   0  0  0  0  0  3  0  0  0  0  0  0
   34.8840   32.0430   36.8600 C   0  0  0  0  0  0  0  0  0  0  0  0
   34.9520   32.6240   37.7670 H   0  0  0  0  0  0  0  0  0  0  0  0
   35.8800   31.7950   35.9290 C   0  0  0  0  0  0  0  0  0  0  0  0
   36.8220   32.2390   36.1490 H   0  0  0  0  0  0  0  0  0  0  0  0
   35.5820   31.0200   34.8320 C   0  0  0  0  0  3  0  0  0  0  0  0
   34.3600   30.4500   34.5580 C   0  0  0  0  0  0  0  0  0  0  0  0
   37.7980   26.8660   32.4780 O   0  0  0  0  0  0  0  0  0  0  0  0
   37.1970   25.7410   32.9930 C   0  0  0  0  0  0  0  0  0  0  0  0
   37.7430   25.4350   33.9160 H   0  0  0  0  0  0  0  0  0  0  0  0
   36.1360   25.8830   33.3270 H   0  0  0  0  0  0  0  0  0  0  0  0
   37.3510   24.9370   31.9190 C   0  0  0  0  0  0  0  0  0  0  0  0
   38.1950   24.1970   31.9870 H   0  0  0  0  0  0  0  0  0  0  0  0
   37.7190   25.5450   31.0300 H   0  0  0  0  0  0  0  0  0  0  0  0
   36.1700   24.1640   31.4350 C   0  0  0  0  0  0  0  0  0  0  0  0
   35.7770   23.5870   32.3230 H   0  0  0  0  0  0  0  0  0  0  0  0
   36.4360   23.3750   30.6890 H   0  0  0  0  0  0  0  0  0  0  0  0
   34.8400   25.1960   30.8540 S   0  0  0  0  0  0  0  0  0  0  0  0
   34.6830   24.9810   29.4710 H   0  0  0  0  0  0  0  0  0  0  0  0
  1 21  1  0  0  0  0
  1  6  1  0  0  0  0
  2  1  2  0  0  0  0
  3  2  1  0  0  0  0
  3  4  2  0  0  0  0
  4  5  1  0  0  0  0
  5  6  2  0  0  0  0
  5  9  1  0  0  0  0
  7  2  1  0  0  0  0
  8  3  1  0  0  0  0
  9 20  1  0  0  0  0
 10  9  2  0  0  0  0
 10 11  1  0  0  0  0
 11 12  2  0  0  0  0
 12 13  1  0  0  0  0
 13 14  1  0  0  0  0
 14 15  2  0  0  0  0
 15 16  1  0  0  0  0
 17 18  1  0  0  0  0
 17 15  1  0  0  0  0
 19 17  2  0  0  0  0
 20 19  1  0  0  0  0
 20 13  2  0  0  0  0
 21 22  1  0  0  0  0
 22 24  1  0  0  0  0
 22 23  1  0  0  0  0
 25 26  1  0  0  0  0
 25 22  1  0  0  0  0
 27 25  1  0  0  0  0
 28 25  1  0  0  0  0
 28 29  1  0  0  0  0
 30 28  1  0  0  0  0
 31 28  1  0  0  0  0
 32 31  1  0  0  0  0
M  END
>  <minimizedAffinity>
-4.91536522

$$$$

 OpenBabel03262521203D

 32 34  0  0  0  0  0  0  0  0999 V2000
   39.5000   22.7050   36.6860 C   0  0  0  0  0  0  0  0  0  0  0  0
   39.0450   23.1540   37.9000 C   0  0  0  0  0  0  0  0  0  0  0  0
   38.1660   24.2280   37.9150 C   0  0  0  0  0  0  0  0  0  0  0  0
   37.8090   24.7700   36.7260 N   0  0  0  0  0  0  0  0  0  0  0  0
   38.2560   24.3300   35.5370 C   0  0  0  0  0  0  0  0  0  0  0  0
   39.0760   23.3220   35.5960 N   0  0  0  0  0  0  0  0  0  0  0  0
   39.2830   22.7770   38.8740 H   0  0  0  0  0  0  0  0  0  0  0  0
   37.7380   24.6740   38.7760 H   0  0  0  0  0  0  0  0  0  0  0  0
   38.0060   24.7650   34.1510 C   0  0  0  0  0  0  0  0  0  0  0  0
   38.2900   24.0130   33.0740 N   0  0  0  0  0  0  0  0  0  0  0  0
   38.0490   24.4440   31.8390 C   0  0  0  0  0  3  0  0  0  0  0  0
   37.5110   25.6440   31.5570 N   0  0  0  0  0  0  0  0  0  0  0  0
   37.1930   26.4710   32.5900 C   0  0  0  0  0  0  0  0  0  0  0  0
   36.6450   27.6980   32.3000 C   0  0  0  0  0  3  0  0  0  0  0  0
   36.3170   28.5490   33.3330 C   0  0  0  0  0  0  0  0  0  0  0  0
   35.8940   29.4850   33.0040 H   0  0  0  0  0  0  0  0  0  0  0  0
   36.5550   28.1290   34.6320 C   0  0  0  0  0  0  0  0  0  0  0  0
   36.2820   28.8280   35.3870 H   0  0  0  0  0  0  0  0  0  0  0  0
   37.1070   26.8860   34.8350 C   0  0  0  0  0  3  0  0  0  0  0  0
   37.4570   25.9900   33.8520 C   0  0  0  0  0  0  0  0  0  0  0  0
   40.3720   21.6320   36.7470 O   0  0  0  0  0  0  0  0  0  0  0  0
   41.5290   21.7600   37.4810 C   0  0  0  0  0  0  0  0  0  0  0  0
   41.6600   22.8320   37.7580 H   0  0  0  0  0  0  0  0  0  0  0  0
   41.5300   21.2130   38.4600 H   0  0  0  0  0  0  0  0  0  0  0  0
   42.3900   21.2760   36.5600 C   0  0  0  0  0  0  0  0  0  0  0  0
   41.9280   20.9680   35.5830 H   0  0  0  0  0  0  0  0  0  0  0  0
   42.7880   20.2640   36.8960 H   0  0  0  0  0  0  0  0  0  0  0  0
   43.5850   22.0960   36.2050 C   0  0  0  0  0  0  0  0  0  0  0  0
   43.9150   21.7550   35.1790 H   0  0  0  0  0  0  0  0  0  0  0  0
   44.4680   21.8960   36.8600 H   0  0  0  0  0  0  0  0  0  0  0  0
   43.2360   23.8380   36.0860 S   0  0  0  0  0  0  0  0  0  0  0  0
   43.9400   24.5030   37.1090 H   0  0  0  0  0  0  0  0  0  0  0  0
  1 21  1  0  0  0  0
  1  2  1  0  0  0  0
  2  3  2  0  0  0  0
  2  7  1  0  0  0  0
  3  8  1  0  0  0  0
  4  3  1  0  0  0  0
  5  6  1  0  0  0  0
  5  4  2  0  0  0  0
  6  1  2  0  0  0  0
  9  5  1  0  0  0  0
 10  9  2  0  0  0  0
 11 10  1  0  0  0  0
 12 11  2  0  0  0  0
 12 13  1  0  0  0  0
 13 20  1  0  0  0  0
 14 13  2  0  0  0  0
 14 15  1  0  0  0  0
 15 17  2  0  0  0  0
 16 15  1  0  0  0  0
 17 19  1  0  0  0  0
 17 18  1  0  0  0  0
 20  9  1  0  0  0  0
 20 19  2  0  0  0  0
 21 22  1  0  0  0  0
 22 23  1  0  0  0  0
 22 24  1  0  0  0  0
 25 27  1  0  0  0  0
 25 22  1  0  0  0  0
 26 25  1  0  0  0  0
 28 25  1  0  0  0  0
 28 30  1  0  0  0  0
 29 28  1  0  0  0  0
 31 28  1  0  0  0  0
 31 32  1  0  0  0  0
M  END
>  <minimizedAffinity>
-4.84107828

$$$$

 OpenBabel03262521203D

 32 34  0  0  0  0  0  0  0  0999 V2000
   36.9590   27.3760   34.4100 C   0  0  0  0  0  0  0  0  0  0  0  0
   36.9250   27.1110   33.0640 C   0  0  0  0  0  0  0  0  0  0  0  0
   37.3460   25.8610   32.6300 C   0  0  0  0  0  0  0  0  0  0  0  0
   37.7680   24.9770   33.5660 N   0  0  0  0  0  0  0  0  0  0  0  0
   37.8020   25.2380   34.8840 C   0  0  0  0  0  0  0  0  0  0  0  0
   37.3940   26.4260   35.2210 N   0  0  0  0  0  0  0  0  0  0  0  0
   36.6060   27.7580   32.2720 H   0  0  0  0  0  0  0  0  0  0  0  0
   37.3720   25.5230   31.6260 H   0  0  0  0  0  0  0  0  0  0  0  0
   38.2180   24.4400   36.0520 C   0  0  0  0  0  0  0  0  0  0  0  0
   37.4270   24.2070   37.1120 N   0  0  0  0  0  0  0  0  0  0  0  0
   37.8430   23.4810   38.1470 C   0  0  0  0  0  3  0  0  0  0  0  0
   39.0650   22.9260   38.2280 N   0  0  0  0  0  0  0  0  0  0  0  0
   39.9330   23.1130   37.1960 C   0  0  0  0  0  0  0  0  0  0  0  0
   41.1820   22.5470   37.2820 C   0  0  0  0  0  3  0  0  0  0  0  0
   42.0740   22.7270   36.2480 C   0  0  0  0  0  0  0  0  0  0  0  0
   43.0250   22.2440   36.4080 H   0  0  0  0  0  0  0  0  0  0  0  0
   41.6710   23.4770   35.1540 C   0  0  0  0  0  0  0  0  0  0  0  0
   42.4020   23.5820   34.3870 H   0  0  0  0  0  0  0  0  0  0  0  0
   40.4030   24.0090   35.1480 C   0  0  0  0  0  3  0  0  0  0  0  0
   39.4660   23.8690   36.1450 C   0  0  0  0  0  0  0  0  0  0  0  0
   36.5240   28.6400   34.7690 O   0  0  0  0  0  0  0  0  0  0  0  0
   35.4610   29.1920   34.0930 C   0  0  0  0  0  0  0  0  0  0  0  0
   35.7270   29.2690   33.0120 H   0  0  0  0  0  0  0  0  0  0  0  0
   34.5210   28.5810   34.1100 H   0  0  0  0  0  0  0  0  0  0  0  0
   35.3920   30.3580   34.7700 C   0  0  0  0  0  0  0  0  0  0  0  0
   36.0080   30.4070   35.7090 H   0  0  0  0  0  0  0  0  0  0  0  0
   34.3580   30.4780   35.2290 H   0  0  0  0  0  0  0  0  0  0  0  0
   35.6710   31.6260   34.0340 C   0  0  0  0  0  0  0  0  0  0  0  0
   36.6760   31.9940   34.3960 H   0  0  0  0  0  0  0  0  0  0  0  0
   34.9640   32.4510   34.2950 H   0  0  0  0  0  0  0  0  0  0  0  0
   35.8010   31.4050   32.2720 S   0  0  0  0  0  0  0  0  0  0  0  0
   34.7340   32.0900   31.6590 H   0  0  0  0  0  0  0  0  0  0  0  0
  1 21  1  0  0  0  0
  1  6  1  0  0  0  0
  2  1  2  0  0  0  0
  3  2  1  0  0  0  0
  3  4  2  0  0  0  0
  4  5  1  0  0  0  0
  5  6  2  0  0  0  0
  5  9  1  0  0  0  0
  7  2  1  0  0  0  0
  8  3  1  0  0  0  0
  9 20  2  0  0  0  0
  9 10  1  0  0  0  0
 10 11  2  0  0  0  0
 11 12  1  0  0  0  0
 13 14  1  0  0  0  0
 13 12  2  0  0  0  0
 15 16  1  0  0  0  0
 15 14  2  0  0  0  0
 17 15  1  0  0  0  0
 18 17  1  0  0  0  0
 19 17  2  0  0  0  0
 19 20  1  0  0  0  0
 20 13  1  0  0  0  0
 22 24  1  0  0  0  0
 22 21  1  0  0  0  0
 22 25  1  0  0  0  0
 23 22  1  0  0  0  0
 25 27  1  0  0  0  0
 25 26  1  0  0  0  0
 28 30  1  0  0  0  0
 28 29  1  0  0  0  0
 28 25  1  0  0  0  0
 31 28  1  0  0  0  0
 32 31  1  0  0  0  0
M  END
>  <minimizedAffinity>
-4.82406092

$$$$

 OpenBabel03262521203D

 32 34  0  0  0  0  0  0  0  0999 V2000
   37.1800   24.8660   32.2170 C   0  0  0  0  0  0  0  0  0  0  0  0
   36.1570   24.1320   31.6710 C   0  0  0  0  0  0  0  0  0  0  0  0
   36.0730   22.7840   31.9900 C   0  0  0  0  0  0  0  0  0  0  0  0
   37.0100   22.2730   32.8260 N   0  0  0  0  0  0  0  0  0  0  0  0
   38.0110   22.9920   33.3590 C   0  0  0  0  0  0  0  0  0  0  0  0
   38.0310   24.2470   33.0180 N   0  0  0  0  0  0  0  0  0  0  0  0
   35.3860   24.4670   31.0070 H   0  0  0  0  0  0  0  0  0  0  0  0
   35.3390   22.1030   31.6430 H   0  0  0  0  0  0  0  0  0  0  0  0
   39.1190   22.6460   34.2690 C   0  0  0  0  0  0  0  0  0  0  0  0
   40.2730   22.0950   33.8580 N   0  0  0  0  0  0  0  0  0  0  0  0
   41.2470   21.7980   34.7140 C   0  0  0  0  0  3  0  0  0  0  0  0
   41.1720   22.0140   36.0390 N   0  0  0  0  0  0  0  0  0  0  0  0
   40.0350   22.5700   36.5420 C   0  0  0  0  0  0  0  0  0  0  0  0
   39.9590   22.7880   37.8960 C   0  0  0  0  0  3  0  0  0  0  0  0
   38.8150   23.3480   38.4230 C   0  0  0  0  0  0  0  0  0  0  0  0
   38.8530   23.4800   39.4930 H   0  0  0  0  0  0  0  0  0  0  0  0
   37.7810   23.6710   37.5580 C   0  0  0  0  0  0  0  0  0  0  0  0
   36.9250   24.1000   38.0220 H   0  0  0  0  0  0  0  0  0  0  0  0
   37.9390   23.4190   36.2160 C   0  0  0  0  0  3  0  0  0  0  0  0
   39.0510   22.8630   35.6260 C   0  0  0  0  0  0  0  0  0  0  0  0
   37.2010   26.2020   31.8540 O   0  0  0  0  0  0  0  0  0  0  0  0
   37.9430   27.0810   32.6080 C   0  0  0  0  0  0  0  0  0  0  0  0
   38.7380   26.5100   33.1430 H   0  0  0  0  0  0  0  0  0  0  0  0
   38.5000   27.8560   32.0180 H   0  0  0  0  0  0  0  0  0  0  0  0
   36.9420   27.5630   33.3750 C   0  0  0  0  0  0  0  0  0  0  0  0
   35.9270   27.1220   33.1770 H   0  0  0  0  0  0  0  0  0  0  0  0
   36.7240   28.6440   33.0930 H   0  0  0  0  0  0  0  0  0  0  0  0
   37.1100   27.5450   34.8580 C   0  0  0  0  0  0  0  0  0  0  0  0
   36.4150   26.7460   35.2510 H   0  0  0  0  0  0  0  0  0  0  0  0
   36.7600   28.4840   35.3520 H   0  0  0  0  0  0  0  0  0  0  0  0
   38.7550   27.1030   35.3760 S   0  0  0  0  0  0  0  0  0  0  0  0
   39.3340   28.2180   36.0130 H   0  0  0  0  0  0  0  0  0  0  0  0
  1  6  1  0  0  0  0
  2  3  1  0  0  0  0
  2  1  2  0  0  0  0
  3  4  2  0  0  0  0
  4  5  1  0  0  0  0
  5  9  1  0  0  0  0
  6  5  2  0  0  0  0
  7  2  1  0  0  0  0
  8  3  1  0  0  0  0
  9 20  1  0  0  0  0
 10  9  2  0  0  0  0
 10 11  1  0  0  0  0
 11 12  2  0  0  0  0
 12 13  1  0  0  0  0
 13 14  1  0  0  0  0
 14 15  2  0  0  0  0
 15 16  1  0  0  0  0
 17 18  1  0  0  0  0
 17 15  1  0  0  0  0
 19 17  2  0  0  0  0
 20 19  1  0  0  0  0
 20 13  2  0  0  0  0
 21  1  1  0  0  0  0
 21 22  1  0  0  0  0
 22 23  1  0  0  0  0
 22 25  1  0  0  0  0
 24 22  1  0  0  0  0
 25 28  1  0  0  0  0
 26 25  1  0  0  0  0
 27 25  1  0  0  0  0
 28 29  1  0  0  0  0
 28 30  1  0  0  0  0
 28 31  1  0  0  0  0
 31 32  1  0  0  0  0
M  END
>  <minimizedAffinity>
-4.8056674

$$$$

 OpenBabel03262521203D

 32 34  0  0  0  0  0  0  0  0999 V2000
   36.8760   27.3130   32.6140 C   0  0  0  0  0  0  0  0  0  0  0  0
   36.3160   28.2820   33.4070 C   0  0  0  0  0  0  0  0  0  0  0  0
   36.6270   28.2840   34.7600 C   0  0  0  0  0  0  0  0  0  0  0  0
   37.4680   27.3250   35.2170 N   0  0  0  0  0  0  0  0  0  0  0  0
   38.0150   26.3750   34.4400 C   0  0  0  0  0  0  0  0  0  0  0  0
   37.6810   26.4310   33.1840 N   0  0  0  0  0  0  0  0  0  0  0  0
   35.6470   29.0670   33.1170 H   0  0  0  0  0  0  0  0  0  0  0  0
   36.2690   28.9710   35.4830 H   0  0  0  0  0  0  0  0  0  0  0  0
   38.9320   25.2560   34.7220 C   0  0  0  0  0  0  0  0  0  0  0  0
   39.8460   24.8050   33.8460 N   0  0  0  0  0  0  0  0  0  0  0  0
   40.6550   23.7910   34.1420 C   0  0  0  0  0  3  0  0  0  0  0  0
   40.6360   23.1370   35.3170 N   0  0  0  0  0  0  0  0  0  0  0  0
   39.7400   23.5290   36.2630 C   0  0  0  0  0  0  0  0  0  0  0  0
   39.7210   22.8580   37.4620 C   0  0  0  0  0  3  0  0  0  0  0  0
   38.8200   23.2410   38.4320 C   0  0  0  0  0  0  0  0  0  0  0  0
   38.8830   22.6550   39.3360 H   0  0  0  0  0  0  0  0  0  0  0  0
   37.9630   24.2940   38.1560 C   0  0  0  0  0  0  0  0  0  0  0  0
   37.2900   24.5440   38.9420 H   0  0  0  0  0  0  0  0  0  0  0  0
   38.0470   24.9120   36.9300 C   0  0  0  0  0  3  0  0  0  0  0  0
   38.9210   24.5800   35.9210 C   0  0  0  0  0  0  0  0  0  0  0  0
   36.5220   27.3720   31.2780 O   0  0  0  0  0  0  0  0  0  0  0  0
   37.5170   27.3920   30.3280 C   0  0  0  0  0  0  0  0  0  0  0  0
   38.4850   27.1360   30.8210 H   0  0  0  0  0  0  0  0  0  0  0  0
   37.4060   26.6320   29.5110 H   0  0  0  0  0  0  0  0  0  0  0  0
   37.3750   28.6750   29.9330 C   0  0  0  0  0  0  0  0  0  0  0  0
   37.8630   29.4410   30.5960 H   0  0  0  0  0  0  0  0  0  0  0  0
   36.2910   28.9990   30.0550 H   0  0  0  0  0  0  0  0  0  0  0  0
   37.7620   29.0370   28.5380 C   0  0  0  0  0  0  0  0  0  0  0  0
   37.9930   30.1430   28.5450 H   0  0  0  0  0  0  0  0  0  0  0  0
   36.9240   28.9340   27.8070 H   0  0  0  0  0  0  0  0  0  0  0  0
   39.2320   28.2030   27.9750 S   0  0  0  0  0  0  0  0  0  0  0  0
   38.8760   27.3410   26.9200 H   0  0  0  0  0  0  0  0  0  0  0  0
  1  6  2  0  0  0  0
  1  2  1  0  0  0  0
  2  3  2  0  0  0  0
  3  4  1  0  0  0  0
  3  8  1  0  0  0  0
  5  9  1  0  0  0  0
  5  4  2  0  0  0  0
  6  5  1  0  0  0  0
  7  2  1  0  0  0  0
  9 20  1  0  0  0  0
 10 11  1  0  0  0  0
 10  9  2  0  0  0  0
 11 12  2  0  0  0  0
 12 13  1  0  0  0  0
 13 14  1  0  0  0  0
 14 15  2  0  0  0  0
 15 16  1  0  0  0  0
 17 15  1  0  0  0  0
 17 18  1  0  0  0  0
 19 17  2  0  0  0  0
 20 13  2  0  0  0  0
 20 19  1  0  0  0  0
 21  1  1  0  0  0  0
 22 23  1  0  0  0  0
 22 21  1  0  0  0  0
 24 22  1  0  0  0  0
 25 27  1  0  0  0  0
 25 22  1  0  0  0  0
 25 26  1  0  0  0  0
 28 29  1  0  0  0  0
 28 25  1  0  0  0  0
 30 28  1  0  0  0  0
 31 28  1  0  0  0  0
 32 31  1  0  0  0  0
M  END
>  <minimizedAffinity>
-4.79349136

$$$$

 OpenBabel03262521203D

 32 34  0  0  0  0  0  0  0  0999 V2000
   38.1900   24.9390   36.2400 C   0  0  0  0  0  0  0  0  0  0  0  0
   38.3300   24.1650   37.3640 C   0  0  0  0  0  0  0  0  0  0  0  0
   38.3800   22.7860   37.2110 C   0  0  0  0  0  0  0  0  0  0  0  0
   38.2880   22.2870   35.9550 N   0  0  0  0  0  0  0  0  0  0  0  0
   38.1500   23.0440   34.8540 C   0  0  0  0  0  0  0  0  0  0  0  0
   38.1100   24.3270   35.0700 N   0  0  0  0  0  0  0  0  0  0  0  0
   38.4080   24.4900   38.3820 H   0  0  0  0  0  0  0  0  0  0  0  0
   38.4860   22.0740   37.9880 H   0  0  0  0  0  0  0  0  0  0  0  0
   38.0300   22.7170   33.4220 C   0  0  0  0  0  0  0  0  0  0  0  0
   38.7890   23.2770   32.4650 N   0  0  0  0  0  0  0  0  0  0  0  0
   38.6460   22.9530   31.1830 C   0  0  0  0  0  3  0  0  0  0  0  0
   37.7510   22.0560   30.7330 N   0  0  0  0  0  0  0  0  0  0  0  0
   36.9400   21.4400   31.6360 C   0  0  0  0  0  0  0  0  0  0  0  0
   36.0250   20.5250   31.1740 C   0  0  0  0  0  3  0  0  0  0  0  0
   35.1940   19.8920   32.0730 C   0  0  0  0  0  0  0  0  0  0  0  0
   34.5130   19.1930   31.6140 H   0  0  0  0  0  0  0  0  0  0  0  0
   35.3170   20.2070   33.4170 C   0  0  0  0  0  0  0  0  0  0  0  0
   34.6500   19.6880   34.0630 H   0  0  0  0  0  0  0  0  0  0  0  0
   36.2590   21.1350   33.7950 C   0  0  0  0  0  3  0  0  0  0  0  0
   37.1170   21.8010   32.9510 C   0  0  0  0  0  0  0  0  0  0  0  0
   38.1480   26.3030   36.4680 O   0  0  0  0  0  0  0  0  0  0  0  0
   38.6620   27.1510   35.5140 C   0  0  0  0  0  0  0  0  0  0  0  0
   39.5300   27.6980   35.9530 H   0  0  0  0  0  0  0  0  0  0  0  0
   39.0790   26.6420   34.6060 H   0  0  0  0  0  0  0  0  0  0  0  0
   37.5490   27.8830   35.2950 C   0  0  0  0  0  0  0  0  0  0  0  0
   37.6770   28.9950   35.3910 H   0  0  0  0  0  0  0  0  0  0  0  0
   36.8030   27.7150   36.1370 H   0  0  0  0  0  0  0  0  0  0  0  0
   36.7970   27.6680   34.0240 C   0  0  0  0  0  0  0  0  0  0  0  0
   36.3670   28.6720   33.7310 H   0  0  0  0  0  0  0  0  0  0  0  0
   35.9030   27.0100   34.1470 H   0  0  0  0  0  0  0  0  0  0  0  0
   37.8280   27.1320   32.6740 S   0  0  0  0  0  0  0  0  0  0  0  0
   37.4460   25.8240   32.3170 H   0  0  0  0  0  0  0  0  0  0  0  0
  1 21  1  0  0  0  0
  1  2  1  0  0  0  0
  2  7  1  0  0  0  0
  3  2  2  0  0  0  0
  3  8  1  0  0  0  0
  4  3  1  0  0  0  0
  5  6  1  0  0  0  0
  5  4  2  0  0  0  0
  6  1  2  0  0  0  0
  9  5  1  0  0  0  0
 10  9  2  0  0  0  0
 11 10  1  0  0  0  0
 12 11  2  0  0  0  0
 12 13  1  0  0  0  0
 13 20  1  0  0  0  0
 14 13  2  0  0  0  0
 14 15  1  0  0  0  0
 15 17  2  0  0  0  0
 16 15  1  0  0  0  0
 17 19  1  0  0  0  0
 17 18  1  0  0  0  0
 20  9  1  0  0  0  0
 20 19  2  0  0  0  0
 22 23  1  0  0  0  0
 22 21  1  0  0  0  0
 24 22  1  0  0  0  0
 25 26  1  0  0  0  0
 25 22  1  0  0  0  0
 25 27  1  0  0  0  0
 28 30  1  0  0  0  0
 28 25  1  0  0  0  0
 29 28  1  0  0  0  0
 31 28  1  0  0  0  0
 32 31  1  0  0  0  0
M  END
>  <minimizedAffinity>
-4.77950144

$$$$
