
 OpenBabel03262523133D

 32 35  0  0  0  0  0  0  0  0999 V2000
   34.7570   29.1850   48.3320 C   0  0  0  0  0  0  0  0  0  0  0  0
   34.4980   27.9100   48.7230 C   0  0  0  0  0  0  0  0  0  0  0  0
   33.4060   27.3460   48.1110 C   0  0  0  0  0  0  0  0  0  0  0  0
   32.6280   27.9920   47.1860 C   0  0  0  0  0  0  0  0  0  0  0  0
   32.9590   29.3070   46.8340 C   0  0  0  0  0  0  0  0  0  0  0  0
   34.0170   29.8400   47.4320 N   0  0  0  0  0  0  0  0  0  0  0  0
   35.1340   27.4340   49.4550 H   0  0  0  0  0  0  0  0  0  0  0  0
   33.1450   26.3090   48.3880 H   0  0  0  0  0  0  0  0  0  0  0  0
   31.8040   27.4640   46.7720 H   0  0  0  0  0  0  0  0  0  0  0  0
   32.0570   29.8780   45.8460 C   0  0  0  0  0  0  0  0  0  0  0  0
   32.5050   30.5350   44.7640 N   0  0  0  0  0  0  0  0  0  0  0  0
   31.7210   31.0780   43.8280 C   0  0  0  0  0  0  0  0  0  0  0  0
   30.3880   31.0190   43.8780 N   0  0  0  0  0  0  0  0  0  0  0  0
   29.8430   30.3770   44.9330 C   0  0  0  0  0  0  0  0  0  0  0  0
   28.4740   30.2970   45.0190 C   0  0  0  0  0  0  0  0  0  0  0  0
   27.8600   29.6510   46.0780 C   0  0  0  0  0  0  0  0  0  0  0  0
   26.7820   29.6490   46.0430 H   0  0  0  0  0  0  0  0  0  0  0  0
   28.7040   29.0930   47.0420 C   0  0  0  0  0  0  0  0  0  0  0  0
   28.1740   28.5970   47.8510 H   0  0  0  0  0  0  0  0  0  0  0  0
   30.0510   29.2020   46.9070 C   0  0  0  0  0  0  0  0  0  0  0  0
   30.6850   29.8320   45.8750 C   0  0  0  0  0  0  0  0  0  0  0  0
   37.3530   30.2590   50.6940 C   0  0  0  0  0  0  0  0  0  0  0  0
   37.9730   31.3350   50.0120 C   0  0  0  0  0  0  0  0  0  0  0  0
   37.4860   31.6690   48.7510 C   0  0  0  0  0  0  0  0  0  0  0  0
   36.4590   30.9520   48.2570 N   0  0  0  0  0  0  0  0  0  0  0  0
   35.8780   29.9420   48.8960 C   0  0  0  0  0  0  0  0  0  0  0  0
   36.3470   29.6070   50.1310 N   0  0  0  0  0  0  0  0  0  0  0  0
   38.7810   31.8400   50.4910 H   0  0  0  0  0  0  0  0  0  0  0  0
   37.9350   32.4770   48.2140 H   0  0  0  0  0  0  0  0  0  0  0  0
   37.7890   29.8580   51.9820 N   0  0  0  0  0  0  0  0  0  0  0  0
   37.7300   28.8620   52.2560 H   0  0  0  0  0  0  0  0  0  0  0  0
   38.1760   30.5430   52.6810 H   0  0  0  0  0  0  0  0  0  0  0  0
  1  2  1  0  0  0  0
  1 26  1  0  0  0  0
  2  7  1  0  0  0  0
  3  8  1  0  0  0  0
  3  2  2  0  0  0  0
  4  3  1  0  0  0  0
  5  4  2  0  0  0  0
  5  6  1  0  0  0  0
  6  1  2  0  0  0  0
  9  4  1  0  0  0  0
 10 21  1  0  0  0  0
 10  5  1  0  0  0  0
 11 10  2  0  0  0  0
 12 13  2  0  0  0  0
 12 11  1  0  0  0  0
 13 14  1  0  0  0  0
 14 15  2  0  0  0  0
 14 21  1  0  0  0  0
 15 16  1  0  0  0  0
 16 18  2  0  0  0  0
 17 16  1  0  0  0  0
 18 19  1  0  0  0  0
 20 18  1  0  0  0  0
 21 20  2  0  0  0  0
 22 30  1  0  0  0  0
 23 28  1  0  0  0  0
 23 22  2  0  0  0  0
 24 23  1  0  0  0  0
 25 24  2  0  0  0  0
 25 26  1  0  0  0  0
 26 27  2  0  0  0  0
 27 22  1  0  0  0  0
 29 24  1  0  0  0  0
 30 31  1  0  0  0  0
 30 32  1  0  0  0  0
M  END
>  <minimizedAffinity>
-5.88085127

>  <minimizedRMSD>
0.940800488

$$$$
