
 OpenBabel03272509083D

 43 47  0  0  0  0  0  0  0  0999 V2000
   33.6100   26.9080   46.9350 C   0  0  0  0  0  0  0  0  0  0  0  0
   33.8150   25.6230   47.3690 C   0  0  0  0  0  0  0  0  0  0  0  0
   34.2100   24.6390   46.4920 C   0  0  0  0  0  0  0  0  0  0  0  0
   34.4130   24.9150   45.1430 C   0  0  0  0  0  0  0  0  0  0  0  0
   34.2080   26.1940   44.7130 C   0  0  0  0  0  0  0  0  0  0  0  0
   33.8130   27.1930   45.5790 C   0  0  0  0  0  0  0  0  0  0  0  0
   33.6380   25.4860   48.4320 H   0  0  0  0  0  0  0  0  0  0  0  0
   34.3330   23.6800   46.9640 H   0  0  0  0  0  0  0  0  0  0  0  0
   34.7200   24.0460   44.5840 H   0  0  0  0  0  0  0  0  0  0  0  0
   34.3920   26.3160   43.6510 H   0  0  0  0  0  0  0  0  0  0  0  0
   33.6960   28.4900   44.9060 C   0  0  0  0  0  0  0  0  0  0  0  0
   34.7750   29.2660   44.7580 N   0  0  0  0  0  0  0  0  0  0  0  0
   34.7930   30.4610   44.1790 C   0  0  0  0  0  3  0  0  0  0  0  0
   33.6150   30.9170   43.7070 N   0  0  0  0  0  0  0  0  0  0  0  0
   32.4770   30.2110   43.8100 C   0  0  0  0  0  0  0  0  0  0  0  0
   31.2960   30.7650   43.3020 C   0  0  0  0  0  3  0  0  0  0  0  0
   30.1980   29.9530   43.4770 C   0  0  0  0  0  0  0  0  0  0  0  0
   29.2660   30.3780   43.0830 H   0  0  0  0  0  0  0  0  0  0  0  0
   30.1290   28.7210   44.0640 C   0  0  0  0  0  0  0  0  0  0  0  0
   29.1940   28.1820   44.1370 H   0  0  0  0  0  0  0  0  0  0  0  0
   31.3390   28.2210   44.5510 C   0  0  0  0  0  3  0  0  0  0  0  0
   32.4860   28.9590   44.4220 C   0  0  0  0  0  0  0  0  0  0  0  0
   33.1720   28.0630   47.7870 C   0  0  0  0  0  0  0  0  0  0  0  0
   32.5300   27.6330   48.5810 H   0  0  0  0  0  0  0  0  0  0  0  0
   32.5420   28.7320   47.1830 H   0  0  0  0  0  0  0  0  0  0  0  0
   35.0000   28.3910   49.4690 C   0  0  0  0  0  3  0  0  0  0  0  0
   34.2880   28.7690   48.4430 C   0  0  0  0  0  3  0  0  0  0  0  0
   37.3980   30.1610   51.5790 C   0  0  0  0  0  0  0  0  0  0  0  0
   38.1000   30.9230   50.6330 C   0  0  0  0  0  0  0  0  0  0  0  0
   37.7300   30.8150   49.2800 C   0  0  0  0  0  0  0  0  0  0  0  0
   36.6940   29.9620   48.9600 N   0  0  0  0  0  0  0  0  0  0  0  0
   36.0660   29.2600   49.9340 C   0  0  0  0  0  0  0  0  0  0  0  0
   36.4070   29.3570   51.2080 N   0  0  0  0  0  0  0  0  0  0  0  0
   37.7420   30.2980   52.6140 H   0  0  0  0  0  0  0  0  0  0  0  0
   38.9260   31.6090   50.8520 H   0  0  0  0  0  0  0  0  0  0  0  0
   38.3790   31.5620   48.2110 C   0  0  0  0  0  0  0  0  0  0  0  0
   38.5880   31.0300   46.9480 C   0  0  0  0  0  0  0  0  0  0  0  0
   39.2290   32.0270   46.1880 C   0  0  0  0  0  0  0  0  0  0  0  0
   39.3790   33.1010   47.0020 N   0  0  0  0  0  0  0  0  0  0  0  0
   38.8740   32.8180   48.1970 N   0  0  0  0  0  0  0  0  0  0  0  0
   38.3570   30.0790   46.5180 H   0  0  0  0  0  0  0  0  0  0  0  0
   39.5620   32.0150   45.1630 H   0  0  0  0  0  0  0  0  0  0  0  0
   39.8040   34.0570   46.8490 H   0  0  0  0  0  0  0  0  0  0  0  0
  1  2  1  0  0  0  0
  1 23  1  0  0  0  0
  2  7  1  0  0  0  0
  3  8  1  0  0  0  0
  3  2  2  0  0  0  0
  4  3  1  0  0  0  0
  5  4  2  0  0  0  0
  5  6  1  0  0  0  0
  6  1  2  0  0  0  0
  9  4  1  0  0  0  0
 10  5  1  0  0  0  0
 11  6  1  0  0  0  0
 12 11  1  0  0  0  0
 13 12  2  0  0  0  0
 14 15  2  0  0  0  0
 14 13  1  0  0  0  0
 15 22  1  0  0  0  0
 16 17  2  0  0  0  0
 16 15  1  0  0  0  0
 17 19  1  0  0  0  0
 18 17  1  0  0  0  0
 19 20  1  0  0  0  0
 19 21  2  0  0  0  0
 22 21  1  0  0  0  0
 22 11  2  0  0  0  0
 23 27  1  0  0  0  0
 23 24  1  0  0  0  0
 25 23  1  0  0  0  0
 26 32  1  0  0  0  0
 27 26  2  0  0  0  0
 28 34  1  0  0  0  0
 29 35  1  0  0  0  0
 29 28  2  0  0  0  0
 30 29  1  0  0  0  0
 31 30  2  0  0  0  0
 31 32  1  0  0  0  0
 32 33  2  0  0  0  0
 33 28  1  0  0  0  0
 36 30  1  0  0  0  0
 37 36  1  0  0  0  0
 38 37  2  0  0  0  0
 38 39  1  0  0  0  0
 39 40  1  0  0  0  0
 40 36  2  0  0  0  0
 41 37  1  0  0  0  0
 42 38  1  0  0  0  0
 43 39  1  0  0  0  0
M  END
>  <minimizedAffinity>
-6.54011297

>  <minimizedRMSD>
0.665056884

$$$$
