
 OpenBabel03272509083D

 43 47  0  0  0  0  0  0  0  0999 V2000
   33.6140   26.9080   46.9310 C   0  0  0  0  0  0  0  0  0  0  0  0
   33.8190   25.6220   47.3640 C   0  0  0  0  0  0  0  0  0  0  0  0
   34.2130   24.6380   46.4870 C   0  0  0  0  0  0  0  0  0  0  0  0
   34.4150   24.9150   45.1380 C   0  0  0  0  0  0  0  0  0  0  0  0
   34.2100   26.1940   44.7070 C   0  0  0  0  0  0  0  0  0  0  0  0
   33.8150   27.1930   45.5740 C   0  0  0  0  0  0  0  0  0  0  0  0
   33.6430   25.4850   48.4280 H   0  0  0  0  0  0  0  0  0  0  0  0
   34.3370   23.6800   46.9580 H   0  0  0  0  0  0  0  0  0  0  0  0
   34.7220   24.0460   44.5780 H   0  0  0  0  0  0  0  0  0  0  0  0
   34.3920   26.3160   43.6460 H   0  0  0  0  0  0  0  0  0  0  0  0
   33.6970   28.4900   44.9020 C   0  0  0  0  0  0  0  0  0  0  0  0
   34.7760   29.2670   44.7540 N   0  0  0  0  0  0  0  0  0  0  0  0
   34.7930   30.4630   44.1750 C   0  0  0  0  0  3  0  0  0  0  0  0
   33.6150   30.9180   43.7030 N   0  0  0  0  0  0  0  0  0  0  0  0
   32.4770   30.2100   43.8070 C   0  0  0  0  0  0  0  0  0  0  0  0
   31.2970   30.7650   43.2990 C   0  0  0  0  0  3  0  0  0  0  0  0
   30.1980   29.9530   43.4740 C   0  0  0  0  0  0  0  0  0  0  0  0
   29.2670   30.3770   43.0810 H   0  0  0  0  0  0  0  0  0  0  0  0
   30.1310   28.7210   44.0610 C   0  0  0  0  0  0  0  0  0  0  0  0
   29.1960   28.1810   44.1330 H   0  0  0  0  0  0  0  0  0  0  0  0
   31.3410   28.2210   44.5480 C   0  0  0  0  0  3  0  0  0  0  0  0
   32.4870   28.9590   44.4180 C   0  0  0  0  0  0  0  0  0  0  0  0
   33.1760   28.0620   47.7830 C   0  0  0  0  0  0  0  0  0  0  0  0
   32.5340   27.6320   48.5770 H   0  0  0  0  0  0  0  0  0  0  0  0
   32.5470   28.7320   47.1800 H   0  0  0  0  0  0  0  0  0  0  0  0
   34.9940   28.3970   49.4750 C   0  0  0  0  0  3  0  0  0  0  0  0
   34.2930   28.7680   48.4390 C   0  0  0  0  0  3  0  0  0  0  0  0
   37.4010   30.1600   51.5800 C   0  0  0  0  0  0  0  0  0  0  0  0
   38.1030   30.9200   50.6330 C   0  0  0  0  0  0  0  0  0  0  0  0
   37.7290   30.8140   49.2810 C   0  0  0  0  0  0  0  0  0  0  0  0
   36.6900   29.9630   48.9630 N   0  0  0  0  0  0  0  0  0  0  0  0
   36.0630   29.2620   49.9380 C   0  0  0  0  0  0  0  0  0  0  0  0
   36.4070   29.3580   51.2110 N   0  0  0  0  0  0  0  0  0  0  0  0
   37.7480   30.2950   52.6150 H   0  0  0  0  0  0  0  0  0  0  0  0
   38.9310   31.6040   50.8500 H   0  0  0  0  0  0  0  0  0  0  0  0
   38.3780   31.5600   48.2100 C   0  0  0  0  0  0  0  0  0  0  0  0
   38.5870   31.0260   46.9490 C   0  0  0  0  0  0  0  0  0  0  0  0
   39.2270   32.0230   46.1870 C   0  0  0  0  0  0  0  0  0  0  0  0
   39.3760   33.0980   46.9990 N   0  0  0  0  0  0  0  0  0  0  0  0
   38.8720   32.8160   48.1940 N   0  0  0  0  0  0  0  0  0  0  0  0
   38.3560   30.0740   46.5200 H   0  0  0  0  0  0  0  0  0  0  0  0
   39.5590   32.0090   45.1620 H   0  0  0  0  0  0  0  0  0  0  0  0
   39.8000   34.0540   46.8440 H   0  0  0  0  0  0  0  0  0  0  0  0
  1  2  1  0  0  0  0
  1 23  1  0  0  0  0
  2  7  1  0  0  0  0
  3  8  1  0  0  0  0
  3  2  2  0  0  0  0
  4  3  1  0  0  0  0
  5  4  2  0  0  0  0
  5  6  1  0  0  0  0
  6  1  2  0  0  0  0
  9  4  1  0  0  0  0
 10  5  1  0  0  0  0
 11  6  1  0  0  0  0
 12 11  1  0  0  0  0
 13 12  2  0  0  0  0
 14 15  2  0  0  0  0
 14 13  1  0  0  0  0
 15 22  1  0  0  0  0
 16 17  2  0  0  0  0
 16 15  1  0  0  0  0
 17 19  1  0  0  0  0
 18 17  1  0  0  0  0
 19 20  1  0  0  0  0
 19 21  2  0  0  0  0
 22 21  1  0  0  0  0
 22 11  2  0  0  0  0
 23 27  1  0  0  0  0
 23 24  1  0  0  0  0
 25 23  1  0  0  0  0
 26 32  1  0  0  0  0
 27 26  2  0  0  0  0
 28 34  1  0  0  0  0
 29 35  1  0  0  0  0
 29 28  2  0  0  0  0
 30 29  1  0  0  0  0
 31 30  2  0  0  0  0
 31 32  1  0  0  0  0
 32 33  2  0  0  0  0
 33 28  1  0  0  0  0
 36 30  1  0  0  0  0
 37 36  1  0  0  0  0
 38 37  2  0  0  0  0
 38 39  1  0  0  0  0
 39 40  1  0  0  0  0
 40 36  2  0  0  0  0
 41 37  1  0  0  0  0
 42 38  1  0  0  0  0
 43 39  1  0  0  0  0
M  END
>  <minimizedAffinity>
-6.54006147

>  <minimizedRMSD>
1.2222935

$$$$
