
 OpenBabel03272500123D

 24 26  0  0  0  0  0  0  0  0999 V2000
   35.5140   29.0850   50.1700 C   0  0  0  0  0  0  0  0  0  0  0  0
   36.2350   30.1600   49.6340 C   0  0  0  0  0  0  0  0  0  0  0  0
   35.9690   30.5160   48.3160 C   0  0  0  0  0  0  0  0  0  0  0  0
   35.0380   29.8110   47.6320 N   0  0  0  0  0  0  0  0  0  0  0  0
   34.3630   28.7970   48.1480 C   0  0  0  0  0  0  0  0  0  0  0  0
   34.6030   28.4430   49.4040 N   0  0  0  0  0  0  0  0  0  0  0  0
   35.7360   28.8240   51.1950 H   0  0  0  0  0  0  0  0  0  0  0  0
   36.4860   31.3190   47.8660 H   0  0  0  0  0  0  0  0  0  0  0  0
   33.3240   27.9210   47.5680 C   0  0  0  0  0  0  0  0  0  0  0  0
   32.9500   26.7440   48.0750 N   0  0  0  0  0  0  0  0  0  0  0  0
   32.0090   25.9730   47.5330 C   0  0  0  0  0  3  0  0  0  0  0  0
   31.3370   26.2960   46.4180 N   0  0  0  0  0  0  0  0  0  0  0  0
   31.6570   27.4690   45.8470 C   0  0  0  0  0  0  0  0  0  0  0  0
   30.9660   27.7880   44.7110 C   0  0  0  0  0  3  0  0  0  0  0  0
   31.2280   28.9670   44.0610 C   0  0  0  0  0  0  0  0  0  0  0  0
   30.6780   29.2080   43.1690 H   0  0  0  0  0  0  0  0  0  0  0  0
   32.2120   29.8000   44.6070 C   0  0  0  0  0  0  0  0  0  0  0  0
   32.3750   30.7080   44.0560 H   0  0  0  0  0  0  0  0  0  0  0  0
   32.8620   29.4170   45.7440 C   0  0  0  0  0  3  0  0  0  0  0  0
   32.6350   28.2470   46.4300 C   0  0  0  0  0  0  0  0  0  0  0  0
   37.2350   30.8630   50.4990 C   0  0  0  0  0  0  0  0  0  0  0  0
   38.5160   30.7360   49.9810 F   0  0  0  0  0  0  0  0  0  0  0  0
   36.9060   32.2140   50.4910 F   0  0  0  0  0  0  0  0  0  0  0  0
   37.2150   30.3990   51.7930 F   0  0  0  0  0  0  0  0  0  0  0  0
  1  7  1  0  0  0  0
  2  1  1  0  0  0  0
  2 21  1  0  0  0  0
  3  2  2  0  0  0  0
  4  5  2  0  0  0  0
  4  3  1  0  0  0  0
  5  6  1  0  0  0  0
  6  1  2  0  0  0  0
  8  3  1  0  0  0  0
  9 10  1  0  0  0  0
  9  5  1  0  0  0  0
 11 10  2  0  0  0  0
 12 11  1  0  0  0  0
 13 12  2  0  0  0  0
 13 20  1  0  0  0  0
 14 13  1  0  0  0  0
 15 17  1  0  0  0  0
 15 14  2  0  0  0  0
 16 15  1  0  0  0  0
 17 19  2  0  0  0  0
 18 17  1  0  0  0  0
 19 20  1  0  0  0  0
 20  9  2  0  0  0  0
 21 24  1  0  0  0  0
 22 21  1  0  0  0  0
 23 21  1  0  0  0  0
M  END
>  <minimizedAffinity>
-5.09507799

>  <minimizedRMSD>
0.282487601

$$$$
