
 OpenBabel03272502283D

 22 22  0  0  0  0  0  0  0  0999 V2000
   37.6410   31.7530   48.3370 C   0  0  0  0  0  3  0  0  0  0  0  0
   36.5800   30.9770   48.3730 C   0  0  0  0  0  3  0  0  0  0  0  0
   38.4410   32.1680   44.7590 C   0  0  0  0  0  0  0  0  0  0  0  0
   37.7780   31.7940   45.9390 C   0  0  0  0  0  0  0  0  0  0  0  0
   38.3290   32.1450   47.1560 C   0  0  0  0  0  0  0  0  0  0  0  0
   39.4870   32.8350   47.1930 N   0  0  0  0  0  0  0  0  0  0  0  0
   40.1130   33.1870   46.0520 C   0  0  0  0  0  0  0  0  0  0  0  0
   39.6080   32.8650   44.8440 N   0  0  0  0  0  0  0  0  0  0  0  0
   37.9620   31.8650   43.8410 H   0  0  0  0  0  0  0  0  0  0  0  0
   36.8330   31.2300   45.8670 H   0  0  0  0  0  0  0  0  0  0  0  0
   41.0510   33.7470   46.0490 H   0  0  0  0  0  0  0  0  0  0  0  0
   35.8920   30.5880   49.6330 C   0  0  0  0  0  0  0  0  0  0  0  0
   36.1130   31.3520   50.3890 H   0  0  0  0  0  0  0  0  0  0  0  0
   34.7860   30.5710   49.5450 H   0  0  0  0  0  0  0  0  0  0  0  0
   37.5250   30.0980   51.9290 N   0  0  0  0  0  0  0  0  0  0  0  0
   37.3800   29.2130   51.0080 C   0  0  0  0  0  0  0  0  0  0  0  0
   36.3910   29.2770   49.9860 N   0  0  0  0  0  0  0  0  0  0  0  0
   38.2920   28.0970   51.0380 N   0  0  0  0  0  0  0  0  0  0  0  0
   37.7420   27.2610   51.3290 H   0  0  0  0  0  0  0  0  0  0  0  0
   36.9280   30.9440   52.0090 H   0  0  0  0  0  0  0  0  0  0  0  0
   36.0560   28.3940   49.5270 H   0  0  0  0  0  0  0  0  0  0  0  0
   39.3030   27.8400   50.8730 H   0  0  0  0  0  0  0  0  0  0  0  0
  1  2  2  0  0  0  0
  2 12  1  0  0  0  0
  3  8  2  0  0  0  0
  3  4  1  0  0  0  0
  4  5  2  0  0  0  0
  5  6  1  0  0  0  0
  5  1  1  0  0  0  0
  7  6  2  0  0  0  0
  8  7  1  0  0  0  0
  9  3  1  0  0  0  0
 10  4  1  0  0  0  0
 11  7  1  0  0  0  0
 12 17  1  0  0  0  0
 12 13  1  0  0  0  0
 14 12  1  0  0  0  0
 15 20  1  0  0  0  0
 16 18  1  0  0  0  0
 16 15  2  0  0  0  0
 17 16  1  0  0  0  0
 18 19  1  0  0  0  0
 21 17  1  0  0  0  0
 22 18  1  0  0  0  0
M  END
>  <minimizedAffinity>
-4.0227704

>  <minimizedRMSD>
6.22334194

$$$$
