
 OpenBabel03272507063D

 38 41  0  0  0  0  0  0  0  0999 V2000
   38.2800   32.0940   48.0690 C   0  0  0  0  0  0  0  0  0  0  0  0
   38.5710   32.3170   46.7190 C   0  0  0  0  0  0  0  0  0  0  0  0
   37.7460   31.6740   45.7750 C   0  0  0  0  0  0  0  0  0  0  0  0
   36.7390   30.8920   46.2170 N   0  0  0  0  0  0  0  0  0  0  0  0
   36.4940   30.7050   47.5280 C   0  0  0  0  0  0  0  0  0  0  0  0
   37.2570   31.3000   48.4510 N   0  0  0  0  0  0  0  0  0  0  0  0
   38.9210   32.5930   48.7620 H   0  0  0  0  0  0  0  0  0  0  0  0
   39.3530   32.9230   46.3520 H   0  0  0  0  0  0  0  0  0  0  0  0
   37.9090   31.7980   44.3400 C   0  0  0  0  0  0  0  0  0  0  0  0
   37.1450   32.6150   43.5450 C   0  0  0  0  0  0  0  0  0  0  0  0
   37.2850   32.7480   42.1810 C   0  0  0  0  0  0  0  0  0  0  0  0
   38.2450   32.0160   41.5930 N   0  0  0  0  0  0  0  0  0  0  0  0
   39.0110   31.2060   42.3400 C   0  0  0  0  0  0  0  0  0  0  0  0
   38.8460   31.1070   43.6440 N   0  0  0  0  0  0  0  0  0  0  0  0
   36.3610   33.2180   44.0030 H   0  0  0  0  0  0  0  0  0  0  0  0
   36.6880   33.3870   41.5610 H   0  0  0  0  0  0  0  0  0  0  0  0
   41.3160   30.2020   43.6560 N   0  0  0  0  0  0  0  0  0  0  0  0
   41.0620   29.8270   42.4480 C   0  0  0  0  0  0  0  0  0  0  0  0
   40.0200   30.4470   41.6680 N   0  0  0  0  0  0  0  0  0  0  0  0
   41.8860   28.7700   41.9710 N   0  0  0  0  0  0  0  0  0  0  0  0
   42.0720   27.8770   41.4610 H   0  0  0  0  0  0  0  0  0  0  0  0
   42.0310   29.8230   44.2820 H   0  0  0  0  0  0  0  0  0  0  0  0
   40.0580   30.3090   40.6550 H   0  0  0  0  0  0  0  0  0  0  0  0
   42.9240   28.7580   42.1790 H   0  0  0  0  0  0  0  0  0  0  0  0
   35.5230   29.0130   49.0220 C   0  0  0  0  0  0  0  0  0  0  0  0
   35.3760   29.8380   47.9100 C   0  0  0  0  0  0  0  0  0  0  0  0
   34.2090   29.8310   47.1960 C   0  0  0  0  0  0  0  0  0  0  0  0
   33.1680   29.0140   47.5630 C   0  0  0  0  0  0  0  0  0  0  0  0
   31.9370   28.8220   47.0370 N   0  0  0  0  0  0  0  0  0  0  0  0
   31.3760   27.8870   47.8490 C   0  0  0  0  0  0  0  0  0  0  0  0
   32.2210   27.5140   48.8340 N   0  0  0  0  0  0  0  0  0  0  0  0
   33.3620   28.2110   48.6770 C   0  0  0  0  0  0  0  0  0  0  0  0
   34.4960   28.1830   49.4150 C   0  0  0  0  0  0  0  0  0  0  0  0
   36.4710   29.0520   49.5600 H   0  0  0  0  0  0  0  0  0  0  0  0
   34.0920   30.4740   46.3270 H   0  0  0  0  0  0  0  0  0  0  0  0
   31.5040   29.2680   46.2170 H   0  0  0  0  0  0  0  0  0  0  0  0
   30.3680   27.4960   47.7100 H   0  0  0  0  0  0  0  0  0  0  0  0
   34.6560   27.5650   50.2790 H   0  0  0  0  0  0  0  0  0  0  0  0
  1  6  1  0  0  0  0
  1  7  1  0  0  0  0
  2  1  2  0  0  0  0
  3  4  2  0  0  0  0
  3  2  1  0  0  0  0
  4  5  1  0  0  0  0
  5 26  1  0  0  0  0
  5  6  2  0  0  0  0
  8  2  1  0  0  0  0
  9  3  1  0  0  0  0
 10 15  1  0  0  0  0
 10  9  2  0  0  0  0
 11 10  1  0  0  0  0
 12 11  2  0  0  0  0
 12 13  1  0  0  0  0
 13 14  2  0  0  0  0
 14  9  1  0  0  0  0
 16 11  1  0  0  0  0
 17 22  1  0  0  0  0
 18 17  2  0  0  0  0
 19 13  1  0  0  0  0
 19 18  1  0  0  0  0
 20 24  1  0  0  0  0
 20 18  1  0  0  0  0
 21 20  1  0  0  0  0
 23 19  1  0  0  0  0
 25 33  1  0  0  0  0
 25 34  1  0  0  0  0
 26 25  2  0  0  0  0
 27 28  2  0  0  0  0
 27 26  1  0  0  0  0
 28 32  1  0  0  0  0
 29 28  1  0  0  0  0
 29 30  1  0  0  0  0
 30 31  2  0  0  0  0
 32 31  1  0  0  0  0
 32 33  2  0  0  0  0
 33 38  1  0  0  0  0
 35 27  1  0  0  0  0
 36 29  1  0  0  0  0
 37 30  1  0  0  0  0
M  END
>  <minimizedAffinity>
-6.94669676

>  <minimizedRMSD>
1.8521173

$$$$
