
 OpenBabel03272507013D

 45 47  0  0  1  0  0  0  0  0999 V2000
   34.5070   29.7270   49.2430 C   0  0  2  0  0  0  0  0  0  0  0  0
   35.5670   30.3660   48.4160 C   0  0  0  0  0  0  0  0  0  0  0  0
   36.9400   29.7630   48.6550 C   0  0  2  0  0  0  0  0  0  0  0  0
   37.3510   29.8130   50.0800 C   0  0  0  0  0  0  0  0  0  0  0  0
   36.2290   29.4900   51.0420 C   0  0  0  0  0  0  0  0  0  0  0  0
   35.0610   28.8500   50.3390 C   0  0  0  0  0  0  0  0  0  0  0  0
   33.8430   30.4620   49.7870 H   0  0  0  0  0  0  0  0  0  0  0  0
   35.4570   30.3350   47.3270 H   0  0  0  0  0  0  0  0  0  0  0  0
   35.5900   31.4510   48.7540 H   0  0  0  0  0  0  0  0  0  0  0  0
   36.8560   28.6880   48.3540 H   0  0  0  0  0  0  0  0  0  0  0  0
   38.1130   28.9910   50.2240 H   0  0  0  0  0  0  0  0  0  0  0  0
   37.8200   30.7130   50.4510 H   0  0  0  0  0  0  0  0  0  0  0  0
   36.5500   28.8630   51.8720 H   0  0  0  0  0  0  0  0  0  0  0  0
   35.8410   30.4330   51.4950 H   0  0  0  0  0  0  0  0  0  0  0  0
   34.2700   28.6530   51.0690 H   0  0  0  0  0  0  0  0  0  0  0  0
   35.4070   27.8810   49.9150 H   0  0  0  0  0  0  0  0  0  0  0  0
   37.9330   30.3720   47.8440 N   0  0  1  0  0  0  0  0  0  0  0  0
   37.6930   30.1970   46.4210 C   0  0  0  0  0  0  0  0  0  0  0  0
   38.9530   30.8560   45.8580 C   0  0  0  0  0  0  0  0  0  0  0  0
   39.0250   32.0960   46.7530 C   0  0  0  0  0  0  0  0  0  0  0  0
   38.2400   31.7170   48.0240 C   0  0  2  0  0  0  0  0  0  0  0  0
   37.6650   29.1120   46.1520 H   0  0  0  0  0  0  0  0  0  0  0  0
   36.8100   30.7580   46.0790 H   0  0  0  0  0  0  0  0  0  0  0  0
   39.7960   30.1680   46.0720 H   0  0  0  0  0  0  0  0  0  0  0  0
   38.8430   31.1110   44.8000 H   0  0  0  0  0  0  0  0  0  0  0  0
   38.5580   32.9390   46.2120 H   0  0  0  0  0  0  0  0  0  0  0  0
   40.0890   32.2530   46.9400 H   0  0  0  0  0  0  0  0  0  0  0  0
   37.3530   32.3560   48.0350 H   0  0  0  0  0  0  0  0  0  0  0  0
   38.1450   34.4100   49.0500 N   0  0  0  0  0  0  0  0  0  0  0  0
   39.0110   33.4870   49.3710 C   0  0  0  0  0  0  0  0  0  0  0  0
   39.1340   32.0760   49.1020 N   0  0  0  0  0  0  0  0  0  0  0  0
   39.8120   34.4000   50.1120 N   0  0  0  0  0  0  0  0  0  0  0  0
   39.6530   34.3990   51.1640 H   0  0  0  0  0  0  0  0  0  0  0  0
   37.3030   34.2670   48.4810 H   0  0  0  0  0  0  0  0  0  0  0  0
   39.8550   31.8350   49.8150 H   0  0  0  0  0  0  0  0  0  0  0  0
   40.5480   35.0850   49.7680 H   0  0  0  0  0  0  0  0  0  0  0  0
   33.5790   28.8930   48.4440 C   0  0  0  0  0  0  0  0  0  0  0  0
   33.6490   29.1230   47.0670 C   0  0  0  0  0  0  0  0  0  0  0  0
   32.7930   28.3430   46.2590 C   0  0  0  0  0  0  0  0  0  0  0  0
   31.9550   27.4210   46.8520 N   0  0  0  0  0  0  0  0  0  0  0  0
   31.9310   27.2420   48.2000 C   0  0  0  0  0  0  0  0  0  0  0  0
   32.7320   27.9710   48.9560 N   0  0  0  0  0  0  0  0  0  0  0  0
   34.1620   29.7450   46.3640 H   0  0  0  0  0  0  0  0  0  0  0  0
   32.6590   28.3290   45.1900 H   0  0  0  0  0  0  0  0  0  0  0  0
   31.2620   26.5110   48.6310 H   0  0  0  0  0  0  0  0  0  0  0  0
  1  7  1  1  0  0  0
  1  6  1  0  0  0  0
  2  3  1  0  0  0  0
  2  9  1  0  0  0  0
  2  1  1  0  0  0  0
  3 10  1  6  0  0  0
  3  4  1  0  0  0  0
  4 11  1  0  0  0  0
  4 12  1  0  0  0  0
  4  5  1  0  0  0  0
  5 14  1  0  0  0  0
  5 13  1  0  0  0  0
  6  5  1  0  0  0  0
  6 15  1  0  0  0  0
  8  2  1  0  0  0  0
 16  6  1  0  0  0  0
 17 18  1  6  0  0  0
 17 21  1  0  0  0  0
 17  3  1  0  0  0  0
 19 24  1  0  0  0  0
 19 18  1  0  0  0  0
 19 20  1  0  0  0  0
 20 27  1  0  0  0  0
 20 21  1  0  0  0  0
 21 28  1  1  0  0  0
 21 31  1  0  0  0  0
 22 18  1  0  0  0  0
 23 18  1  0  0  0  0
 25 19  1  0  0  0  0
 26 20  1  0  0  0  0
 29 30  2  0  0  0  0
 30 32  1  0  0  0  0
 31 30  1  0  0  0  0
 31 35  1  0  0  0  0
 32 33  1  0  0  0  0
 34 29  1  0  0  0  0
 36 32  1  0  0  0  0
 37 42  1  0  0  0  0
 37  1  1  0  0  0  0
 38 37  2  0  0  0  0
 39 40  2  0  0  0  0
 39 38  1  0  0  0  0
 40 41  1  0  0  0  0
 41 45  1  0  0  0  0
 41 42  2  0  0  0  0
 43 38  1  0  0  0  0
 44 39  1  0  0  0  0
M  END
>  <minimizedAffinity>
-5.52613306

>  <minimizedRMSD>
1.02864516

$$$$
