
 OpenBabel03272502283D

 22 22  0  0  0  0  0  0  0  0999 V2000
   38.2470   30.8520   47.5280 C   0  0  0  0  0  3  0  0  0  0  0  0
   36.9560   30.6290   47.6490 C   0  0  0  0  0  3  0  0  0  0  0  0
   39.0480   30.4510   43.9490 C   0  0  0  0  0  0  0  0  0  0  0  0
   38.3720   30.3750   45.1770 C   0  0  0  0  0  0  0  0  0  0  0  0
   38.9490   30.9440   46.2960 C   0  0  0  0  0  0  0  0  0  0  0  0
   40.1450   31.5590   46.1930 N   0  0  0  0  0  0  0  0  0  0  0  0
   40.7840   31.6240   45.0070 C   0  0  0  0  0  0  0  0  0  0  0  0
   40.2550   31.0820   43.8920 N   0  0  0  0  0  0  0  0  0  0  0  0
   38.5480   29.9880   43.1140 H   0  0  0  0  0  0  0  0  0  0  0  0
   37.3960   29.8640   45.2200 H   0  0  0  0  0  0  0  0  0  0  0  0
   41.7520   32.1160   44.8920 H   0  0  0  0  0  0  0  0  0  0  0  0
   36.2610   30.5370   48.9610 C   0  0  0  0  0  0  0  0  0  0  0  0
   36.6400   29.6510   49.4850 H   0  0  0  0  0  0  0  0  0  0  0  0
   36.4750   31.3920   49.6350 H   0  0  0  0  0  0  0  0  0  0  0  0
   34.6980   28.1740   49.3550 N   0  0  0  0  0  0  0  0  0  0  0  0
   34.2450   29.1750   48.6850 C   0  0  0  0  0  0  0  0  0  0  0  0
   34.8450   30.4650   48.6720 N   0  0  0  0  0  0  0  0  0  0  0  0
   33.0530   28.9410   47.9090 N   0  0  0  0  0  0  0  0  0  0  0  0
   32.2790   29.4550   48.3780 H   0  0  0  0  0  0  0  0  0  0  0  0
   35.5480   28.2210   49.9500 H   0  0  0  0  0  0  0  0  0  0  0  0
   34.2610   31.3100   48.4590 H   0  0  0  0  0  0  0  0  0  0  0  0
   32.7020   28.4380   47.0490 H   0  0  0  0  0  0  0  0  0  0  0  0
  1  2  2  0  0  0  0
  2 12  1  0  0  0  0
  3  4  1  0  0  0  0
  4 10  1  0  0  0  0
  4  5  2  0  0  0  0
  5  1  1  0  0  0  0
  6  5  1  0  0  0  0
  7  6  2  0  0  0  0
  8  3  2  0  0  0  0
  8  7  1  0  0  0  0
  9  3  1  0  0  0  0
 11  7  1  0  0  0  0
 12 13  1  0  0  0  0
 12 14  1  0  0  0  0
 15 20  1  0  0  0  0
 16 15  2  0  0  0  0
 17 16  1  0  0  0  0
 17 12  1  0  0  0  0
 18 19  1  0  0  0  0
 18 16  1  0  0  0  0
 21 17  1  0  0  0  0
 22 18  1  0  0  0  0
M  END
>  <minimizedAffinity>
-3.942101

>  <minimizedRMSD>
6.91089058

$$$$
