
 OpenBabel03272506463D

 41 43  0  0  1  0  0  0  0  0999 V2000
   32.1480   28.5270   47.4400 C   0  0  2  0  0  0  0  0  0  0  0  0
   33.4020   28.3350   48.2440 C   0  0  1  0  0  0  0  0  0  0  0  0
   33.7790   27.0310   48.1300 O   0  0  0  0  0  0  0  0  0  0  0  0
   33.0480   26.4260   47.1130 C   0  0  0  0  0  0  0  0  0  0  0  0
   32.4430   27.5270   46.2820 C   0  0  1  0  0  0  0  0  0  0  0  0
   31.2170   28.2680   47.9310 H   0  0  0  0  0  0  0  0  0  0  0  0
   33.2990   28.6860   49.2960 H   0  0  0  0  0  0  0  0  0  0  0  0
   33.8220   25.8950   46.4850 H   0  0  0  0  0  0  0  0  0  0  0  0
   32.3620   25.7400   47.5850 H   0  0  0  0  0  0  0  0  0  0  0  0
   33.1750   28.0190   45.6500 H   0  0  0  0  0  0  0  0  0  0  0  0
   32.0860   29.8340   46.9200 O   0  0  0  0  0  0  0  0  0  0  0  0
   32.8710   29.9540   46.3500 H   0  0  0  0  0  0  0  0  0  0  0  0
   34.7110   29.3670   47.4730 S   0  0  0  0  0  0  0  0  0  0  0  0
   37.1210   29.3120   50.6150 C   0  0  0  0  0  0  0  0  0  0  0  0
   37.6280   30.5970   50.7110 C   0  0  0  0  0  0  0  0  0  0  0  0
   37.2060   31.5350   49.7540 C   0  0  0  0  0  0  0  0  0  0  0  0
   36.3340   31.1340   48.8020 N   0  0  0  0  0  0  0  0  0  0  0  0
   35.8640   29.8730   48.7430 C   0  0  0  0  0  0  0  0  0  0  0  0
   36.2490   28.9360   49.6500 N   0  0  0  0  0  0  0  0  0  0  0  0
   37.3730   28.4950   51.2990 H   0  0  0  0  0  0  0  0  0  0  0  0
   38.3160   30.7930   51.5110 H   0  0  0  0  0  0  0  0  0  0  0  0
   37.5970   32.5400   49.8270 H   0  0  0  0  0  0  0  0  0  0  0  0
   31.2830   27.0750   45.7070 O   0  0  0  0  0  0  0  0  0  0  0  0
   29.7090   29.1410   44.3270 Cl  0  0  0  0  0  0  0  0  0  0  0  0
   29.2320   28.1170   45.6620 C   0  0  0  0  0  0  0  0  0  0  0  0
   30.0600   27.1740   46.2260 C   0  0  0  0  0  0  0  0  0  0  0  0
   29.5560   26.4050   47.2780 C   0  0  0  0  0  0  0  0  0  0  0  0
   28.2720   26.5890   47.7300 C   0  0  0  0  0  0  0  0  0  0  0  0
   27.4340   27.5290   47.1750 C   0  0  0  0  0  0  0  0  0  0  0  0
   27.9170   28.3000   46.1320 C   0  0  0  0  0  0  0  0  0  0  0  0
   30.1380   25.6440   47.7690 H   0  0  0  0  0  0  0  0  0  0  0  0
   27.8970   25.9920   48.5420 H   0  0  0  0  0  0  0  0  0  0  0  0
   26.4460   27.6270   47.5650 H   0  0  0  0  0  0  0  0  0  0  0  0
   25.5020   27.9350   44.5300 N   0  0  0  0  0  0  0  0  0  0  0  0
   26.2730   28.9870   44.3880 C   0  0  0  0  0  0  0  0  0  0  0  0
   27.0820   29.2810   45.4940 N   0  0  0  0  0  0  0  0  0  0  0  0
   26.2770   29.7950   43.1980 N   0  0  0  0  0  0  0  0  0  0  0  0
   26.0020   30.6080   42.6390 H   0  0  0  0  0  0  0  0  0  0  0  0
   24.8530   27.5880   43.8080 H   0  0  0  0  0  0  0  0  0  0  0  0
   27.0500   30.2770   45.8320 H   0  0  0  0  0  0  0  0  0  0  0  0
   26.8210   29.5370   42.3260 H   0  0  0  0  0  0  0  0  0  0  0  0
  1  6  1  1  0  0  0
  1  2  1  0  0  0  0
  2  7  1  1  0  0  0
  3  2  1  0  0  0  0
  4  9  1  0  0  0  0
  4  3  1  0  0  0  0
  5 10  1  6  0  0  0
  5  4  1  0  0  0  0
  5  1  1  0  0  0  0
  8  4  1  0  0  0  0
 11  1  1  0  0  0  0
 12 11  1  0  0  0  0
 13  2  1  0  0  0  0
 13 18  1  0  0  0  0
 14 15  1  0  0  0  0
 14 20  1  0  0  0  0
 15 21  1  0  0  0  0
 16 22  1  0  0  0  0
 16 15  2  0  0  0  0
 17 16  1  0  0  0  0
 18 17  2  0  0  0  0
 18 19  1  0  0  0  0
 19 14  2  0  0  0  0
 23 26  1  0  0  0  0
 23  5  1  0  0  0  0
 24 25  1  0  0  0  0
 25 30  2  0  0  0  0
 25 26  1  0  0  0  0
 26 27  2  0  0  0  0
 27 28  1  0  0  0  0
 27 31  1  0  0  0  0
 28 32  1  0  0  0  0
 29 33  1  0  0  0  0
 29 28  2  0  0  0  0
 30 29  1  0  0  0  0
 35 34  2  0  0  0  0
 35 36  1  0  0  0  0
 36 40  1  0  0  0  0
 36 30  1  0  0  0  0
 37 35  1  0  0  0  0
 38 37  1  0  0  0  0
 39 34  1  0  0  0  0
 41 37  1  0  0  0  0
M  END
>  <minimizedAffinity>
-4.96022987

>  <minimizedRMSD>
0.153498262

$$$$
