
 OpenBabel03272506463D

 41 43  0  0  1  0  0  0  0  0999 V2000
   32.1490   28.5350   47.4250 C   0  0  2  0  0  0  0  0  0  0  0  0
   33.3940   28.3490   48.2430 C   0  0  1  0  0  0  0  0  0  0  0  0
   33.7780   27.0460   48.1350 O   0  0  0  0  0  0  0  0  0  0  0  0
   33.0620   26.4380   47.1100 C   0  0  0  0  0  0  0  0  0  0  0  0
   32.4610   27.5360   46.2710 C   0  0  1  0  0  0  0  0  0  0  0  0
   31.2130   28.2730   47.9060 H   0  0  0  0  0  0  0  0  0  0  0  0
   33.2780   28.7000   49.2940 H   0  0  0  0  0  0  0  0  0  0  0  0
   33.8450   25.9100   46.4910 H   0  0  0  0  0  0  0  0  0  0  0  0
   32.3730   25.7500   47.5740 H   0  0  0  0  0  0  0  0  0  0  0  0
   33.1980   28.0300   45.6480 H   0  0  0  0  0  0  0  0  0  0  0  0
   32.0860   29.8420   46.9040 O   0  0  0  0  0  0  0  0  0  0  0  0
   32.8770   29.9650   46.3430 H   0  0  0  0  0  0  0  0  0  0  0  0
   34.7070   29.3870   47.4870 S   0  0  0  0  0  0  0  0  0  0  0  0
   37.1210   29.2990   50.6250 C   0  0  0  0  0  0  0  0  0  0  0  0
   37.6120   30.5870   50.7470 C   0  0  0  0  0  0  0  0  0  0  0  0
   37.1760   31.5390   49.8100 C   0  0  0  0  0  0  0  0  0  0  0  0
   36.3080   31.1460   48.8500 N   0  0  0  0  0  0  0  0  0  0  0  0
   35.8550   29.8820   48.7660 C   0  0  0  0  0  0  0  0  0  0  0  0
   36.2530   28.9310   49.6540 N   0  0  0  0  0  0  0  0  0  0  0  0
   37.3840   28.4710   51.2920 H   0  0  0  0  0  0  0  0  0  0  0  0
   38.2970   30.7760   51.5510 H   0  0  0  0  0  0  0  0  0  0  0  0
   37.5550   32.5480   49.9030 H   0  0  0  0  0  0  0  0  0  0  0  0
   31.3100   27.0790   45.6830 O   0  0  0  0  0  0  0  0  0  0  0  0
   29.8070   29.1760   44.2720 Cl  0  0  0  0  0  0  0  0  0  0  0  0
   29.2790   28.1590   45.5930 C   0  0  0  0  0  0  0  0  0  0  0  0
   30.0770   27.1990   46.1740 C   0  0  0  0  0  0  0  0  0  0  0  0
   29.5340   26.4380   47.2120 C   0  0  0  0  0  0  0  0  0  0  0  0
   28.2440   26.6460   47.6350 C   0  0  0  0  0  0  0  0  0  0  0  0
   27.4360   27.6020   47.0630 C   0  0  0  0  0  0  0  0  0  0  0  0
   27.9580   28.3660   46.0330 C   0  0  0  0  0  0  0  0  0  0  0  0
   30.0900   25.6650   47.7150 H   0  0  0  0  0  0  0  0  0  0  0  0
   27.8390   26.0540   48.4370 H   0  0  0  0  0  0  0  0  0  0  0  0
   26.4420   27.7180   47.4290 H   0  0  0  0  0  0  0  0  0  0  0  0
   25.6260   28.0450   44.3040 N   0  0  0  0  0  0  0  0  0  0  0  0
   26.4030   29.0970   44.2260 C   0  0  0  0  0  0  0  0  0  0  0  0
   27.1560   29.3630   45.3780 N   0  0  0  0  0  0  0  0  0  0  0  0
   26.4680   29.9330   43.0570 N   0  0  0  0  0  0  0  0  0  0  0  0
   26.2230   30.7610   42.5050 H   0  0  0  0  0  0  0  0  0  0  0  0
   25.0130   27.7170   43.5420 H   0  0  0  0  0  0  0  0  0  0  0  0
   27.1100   30.3510   45.7370 H   0  0  0  0  0  0  0  0  0  0  0  0
   27.0560   29.6950   42.2080 H   0  0  0  0  0  0  0  0  0  0  0  0
  1  6  1  1  0  0  0
  1  2  1  0  0  0  0
  2  7  1  1  0  0  0
  3  2  1  0  0  0  0
  4  9  1  0  0  0  0
  4  3  1  0  0  0  0
  5 10  1  6  0  0  0
  5  4  1  0  0  0  0
  5  1  1  0  0  0  0
  8  4  1  0  0  0  0
 11  1  1  0  0  0  0
 12 11  1  0  0  0  0
 13  2  1  0  0  0  0
 13 18  1  0  0  0  0
 14 15  1  0  0  0  0
 14 20  1  0  0  0  0
 15 21  1  0  0  0  0
 16 22  1  0  0  0  0
 16 15  2  0  0  0  0
 17 16  1  0  0  0  0
 18 17  2  0  0  0  0
 18 19  1  0  0  0  0
 19 14  2  0  0  0  0
 23 26  1  0  0  0  0
 23  5  1  0  0  0  0
 24 25  1  0  0  0  0
 25 30  2  0  0  0  0
 25 26  1  0  0  0  0
 26 27  2  0  0  0  0
 27 28  1  0  0  0  0
 27 31  1  0  0  0  0
 28 32  1  0  0  0  0
 29 33  1  0  0  0  0
 29 28  2  0  0  0  0
 30 29  1  0  0  0  0
 35 34  2  0  0  0  0
 35 36  1  0  0  0  0
 36 40  1  0  0  0  0
 36 30  1  0  0  0  0
 37 35  1  0  0  0  0
 38 37  1  0  0  0  0
 39 34  1  0  0  0  0
 41 37  1  0  0  0  0
M  END
>  <minimizedAffinity>
-4.89634085

>  <minimizedRMSD>
0.445328683

$$$$
