
 OpenBabel03272507083D

 38 41  0  0  0  0  0  0  0  0999 V2000
   36.7490   28.8760   31.4370 C   0  0  0  0  0  0  0  0  0  0  0  0
   37.2330   27.6090   31.7810 C   0  0  0  0  0  0  0  0  0  0  0  0
   37.0180   27.1830   33.1070 C   0  0  0  0  0  0  0  0  0  0  0  0
   36.3680   28.0060   33.9560 N   0  0  0  0  0  0  0  0  0  0  0  0
   35.9180   29.2180   33.5830 C   0  0  0  0  0  0  0  0  0  0  0  0
   36.1050   29.6540   32.3330 N   0  0  0  0  0  0  0  0  0  0  0  0
   36.9270   29.1730   30.4280 H   0  0  0  0  0  0  0  0  0  0  0  0
   37.7440   26.9510   31.1340 H   0  0  0  0  0  0  0  0  0  0  0  0
   37.4540   25.9020   33.6260 C   0  0  0  0  0  0  0  0  0  0  0  0
   37.5440   24.7560   32.8750 C   0  0  0  0  0  0  0  0  0  0  0  0
   37.9570   23.5300   33.3490 C   0  0  0  0  0  0  0  0  0  0  0  0
   38.2940   23.4610   34.6460 N   0  0  0  0  0  0  0  0  0  0  0  0
   38.2180   24.5610   35.4110 C   0  0  0  0  0  0  0  0  0  0  0  0
   37.8180   25.7170   34.9190 N   0  0  0  0  0  0  0  0  0  0  0  0
   37.2750   24.7920   31.8190 H   0  0  0  0  0  0  0  0  0  0  0  0
   38.0270   22.6360   32.7610 H   0  0  0  0  0  0  0  0  0  0  0  0
   37.0950   22.6090   37.1370 N   0  0  0  0  0  0  0  0  0  0  0  0
   38.1020   23.3080   37.5400 C   0  0  0  0  0  0  0  0  0  0  0  0
   38.5880   24.4370   36.7860 N   0  0  0  0  0  0  0  0  0  0  0  0
   38.6750   22.8710   38.7680 N   0  0  0  0  0  0  0  0  0  0  0  0
   39.4650   22.6510   39.4130 H   0  0  0  0  0  0  0  0  0  0  0  0
   36.6840   21.7960   37.6040 H   0  0  0  0  0  0  0  0  0  0  0  0
   39.1840   25.1030   37.2850 H   0  0  0  0  0  0  0  0  0  0  0  0
   38.0570   22.5650   39.5720 H   0  0  0  0  0  0  0  0  0  0  0  0
   35.9760   30.8850   35.3880 C   0  0  0  0  0  0  0  0  0  0  0  0
   35.2230   30.0390   34.5780 C   0  0  0  0  0  0  0  0  0  0  0  0
   33.8620   29.9830   34.7170 C   0  0  0  0  0  0  0  0  0  0  0  0
   33.2210   30.7570   35.6520 C   0  0  0  0  0  0  0  0  0  0  0  0
   31.9160   30.8850   35.9830 N   0  0  0  0  0  0  0  0  0  0  0  0
   31.9200   31.8050   36.9840 C   0  0  0  0  0  0  0  0  0  0  0  0
   33.1720   32.2300   37.2620 N   0  0  0  0  0  0  0  0  0  0  0  0
   34.0140   31.5830   36.4350 C   0  0  0  0  0  0  0  0  0  0  0  0
   35.3610   31.6740   36.3350 C   0  0  0  0  0  0  0  0  0  0  0  0
   37.0570   30.8960   35.2420 H   0  0  0  0  0  0  0  0  0  0  0  0
   33.2720   29.3230   34.0860 H   0  0  0  0  0  0  0  0  0  0  0  0
   31.0950   30.4090   35.5860 H   0  0  0  0  0  0  0  0  0  0  0  0
   31.0180   32.1490   37.4890 H   0  0  0  0  0  0  0  0  0  0  0  0
   35.9830   32.3100   36.9360 H   0  0  0  0  0  0  0  0  0  0  0  0
  1  2  2  0  0  0  0
  1  6  1  0  0  0  0
  2  3  1  0  0  0  0
  3  9  1  0  0  0  0
  3  4  2  0  0  0  0
  5  4  1  0  0  0  0
  5 26  1  0  0  0  0
  6  5  2  0  0  0  0
  7  1  1  0  0  0  0
  8  2  1  0  0  0  0
  9 14  1  0  0  0  0
 10 11  1  0  0  0  0
 10  9  2  0  0  0  0
 11 12  2  0  0  0  0
 12 13  1  0  0  0  0
 13 19  1  0  0  0  0
 14 13  2  0  0  0  0
 15 10  1  0  0  0  0
 16 11  1  0  0  0  0
 17 18  2  0  0  0  0
 17 22  1  0  0  0  0
 18 20  1  0  0  0  0
 19 23  1  0  0  0  0
 19 18  1  0  0  0  0
 20 21  1  0  0  0  0
 20 24  1  0  0  0  0
 25 33  1  0  0  0  0
 26 27  1  0  0  0  0
 26 25  2  0  0  0  0
 27 28  2  0  0  0  0
 28 29  1  0  0  0  0
 28 32  1  0  0  0  0
 29 30  1  0  0  0  0
 30 31  2  0  0  0  0
 30 37  1  0  0  0  0
 32 31  1  0  0  0  0
 33 32  2  0  0  0  0
 33 38  1  0  0  0  0
 34 25  1  0  0  0  0
 35 27  1  0  0  0  0
 36 29  1  0  0  0  0
M  END
>  <minimizedAffinity>
-7.21601009

$$$$

 OpenBabel03272507083D

 38 41  0  0  0  0  0  0  0  0999 V2000
   36.9170   28.8520   31.4610 C   0  0  0  0  0  0  0  0  0  0  0  0
   37.4220   27.5990   31.8240 C   0  0  0  0  0  0  0  0  0  0  0  0
   37.0990   27.1310   33.1140 C   0  0  0  0  0  0  0  0  0  0  0  0
   36.3340   27.9050   33.9130 N   0  0  0  0  0  0  0  0  0  0  0  0
   35.8690   29.1060   33.5220 C   0  0  0  0  0  0  0  0  0  0  0  0
   36.1560   29.5800   32.3050 N   0  0  0  0  0  0  0  0  0  0  0  0
   37.1780   29.1810   30.4790 H   0  0  0  0  0  0  0  0  0  0  0  0
   38.0210   26.9790   31.2160 H   0  0  0  0  0  0  0  0  0  0  0  0
   37.5400   25.8580   33.6460 C   0  0  0  0  0  0  0  0  0  0  0  0
   37.7020   24.7210   32.8930 C   0  0  0  0  0  0  0  0  0  0  0  0
   38.1200   23.5030   33.3790 C   0  0  0  0  0  0  0  0  0  0  0  0
   38.3880   23.4300   34.6930 N   0  0  0  0  0  0  0  0  0  0  0  0
   38.2400   24.5210   35.4600 C   0  0  0  0  0  0  0  0  0  0  0  0
   37.8370   25.6710   34.9560 N   0  0  0  0  0  0  0  0  0  0  0  0
   37.4900   24.7600   31.8240 H   0  0  0  0  0  0  0  0  0  0  0  0
   38.2460   22.6160   32.7900 H   0  0  0  0  0  0  0  0  0  0  0  0
   37.0770   22.5250   37.1080 N   0  0  0  0  0  0  0  0  0  0  0  0
   38.0410   23.2460   37.5710 C   0  0  0  0  0  0  0  0  0  0  0  0
   38.5370   24.3940   36.8530 N   0  0  0  0  0  0  0  0  0  0  0  0
   38.5560   22.8130   38.8250 N   0  0  0  0  0  0  0  0  0  0  0  0
   39.3160   22.6080   39.5110 H   0  0  0  0  0  0  0  0  0  0  0  0
   36.6610   21.6980   37.5450 H   0  0  0  0  0  0  0  0  0  0  0  0
   39.0870   25.0720   37.3890 H   0  0  0  0  0  0  0  0  0  0  0  0
   37.9030   22.4850   39.5910 H   0  0  0  0  0  0  0  0  0  0  0  0
   33.6750   29.6280   34.4990 C   0  0  0  0  0  0  0  0  0  0  0  0
   35.0450   29.8720   34.4610 C   0  0  0  0  0  0  0  0  0  0  0  0
   35.6010   30.8100   35.2880 C   0  0  0  0  0  0  0  0  0  0  0  0
   34.8200   31.5220   36.1650 C   0  0  0  0  0  0  0  0  0  0  0  0
   35.1170   32.4840   37.0680 N   0  0  0  0  0  0  0  0  0  0  0  0
   33.9150   32.7920   37.6260 C   0  0  0  0  0  0  0  0  0  0  0  0
   32.9170   32.0540   37.0920 N   0  0  0  0  0  0  0  0  0  0  0  0
   33.4620   31.2430   36.1650 C   0  0  0  0  0  0  0  0  0  0  0  0
   32.8660   30.3260   35.3680 C   0  0  0  0  0  0  0  0  0  0  0  0
   33.2760   28.8710   33.8220 H   0  0  0  0  0  0  0  0  0  0  0  0
   36.6710   31.0030   35.2600 H   0  0  0  0  0  0  0  0  0  0  0  0
   36.0280   32.9010   37.2980 H   0  0  0  0  0  0  0  0  0  0  0  0
   33.7880   33.5420   38.4050 H   0  0  0  0  0  0  0  0  0  0  0  0
   31.8150   30.1030   35.3610 H   0  0  0  0  0  0  0  0  0  0  0  0
  1  2  2  0  0  0  0
  1  6  1  0  0  0  0
  2  3  1  0  0  0  0
  3  9  1  0  0  0  0
  3  4  2  0  0  0  0
  5  4  1  0  0  0  0
  5 26  1  0  0  0  0
  6  5  2  0  0  0  0
  7  1  1  0  0  0  0
  8  2  1  0  0  0  0
  9 14  1  0  0  0  0
 10 11  1  0  0  0  0
 10  9  2  0  0  0  0
 11 12  2  0  0  0  0
 12 13  1  0  0  0  0
 13 19  1  0  0  0  0
 14 13  2  0  0  0  0
 15 10  1  0  0  0  0
 16 11  1  0  0  0  0
 17 22  1  0  0  0  0
 17 18  2  0  0  0  0
 18 20  1  0  0  0  0
 19 23  1  0  0  0  0
 19 18  1  0  0  0  0
 20 21  1  0  0  0  0
 20 24  1  0  0  0  0
 25 33  1  0  0  0  0
 26 25  2  0  0  0  0
 26 27  1  0  0  0  0
 27 28  2  0  0  0  0
 28 32  1  0  0  0  0
 28 29  1  0  0  0  0
 29 36  1  0  0  0  0
 29 30  1  0  0  0  0
 30 37  1  0  0  0  0
 31 30  2  0  0  0  0
 32 31  1  0  0  0  0
 33 32  2  0  0  0  0
 34 25  1  0  0  0  0
 35 27  1  0  0  0  0
 38 33  1  0  0  0  0
M  END
>  <minimizedAffinity>
-7.16692591

$$$$

 OpenBabel03272507083D

 38 41  0  0  0  0  0  0  0  0999 V2000
   35.7480   27.6350   31.4120 C   0  0  0  0  0  0  0  0  0  0  0  0
   36.6370   26.7550   32.0390 C   0  0  0  0  0  0  0  0  0  0  0  0
   37.0930   27.1150   33.3230 C   0  0  0  0  0  0  0  0  0  0  0  0
   36.6540   28.2690   33.8670 N   0  0  0  0  0  0  0  0  0  0  0  0
   35.7980   29.0880   33.2290 C   0  0  0  0  0  0  0  0  0  0  0  0
   35.3450   28.7770   32.0100 N   0  0  0  0  0  0  0  0  0  0  0  0
   35.4200   27.3380   30.4410 H   0  0  0  0  0  0  0  0  0  0  0  0
   36.9930   25.8490   31.6310 H   0  0  0  0  0  0  0  0  0  0  0  0
   38.0140   26.3180   34.1070 C   0  0  0  0  0  0  0  0  0  0  0  0
   39.2930   26.0100   33.7160 C   0  0  0  0  0  0  0  0  0  0  0  0
   40.1840   25.2540   34.4470 C   0  0  0  0  0  0  0  0  0  0  0  0
   39.7580   24.7880   35.6320 N   0  0  0  0  0  0  0  0  0  0  0  0
   38.5130   25.0690   36.0460 C   0  0  0  0  0  0  0  0  0  0  0  0
   37.6900   25.7960   35.3160 N   0  0  0  0  0  0  0  0  0  0  0  0
   39.6580   26.3800   32.7580 H   0  0  0  0  0  0  0  0  0  0  0  0
   41.1830   25.0150   34.1410 H   0  0  0  0  0  0  0  0  0  0  0  0
   38.7130   22.3200   36.7210 N   0  0  0  0  0  0  0  0  0  0  0  0
   38.4080   23.1770   37.6360 C   0  0  0  0  0  0  0  0  0  0  0  0
   38.1060   24.5500   37.3140 N   0  0  0  0  0  0  0  0  0  0  0  0
   38.3970   22.6530   38.9590 N   0  0  0  0  0  0  0  0  0  0  0  0
   38.5910   22.6810   39.9840 H   0  0  0  0  0  0  0  0  0  0  0  0
   38.9410   21.3310   36.8540 H   0  0  0  0  0  0  0  0  0  0  0  0
   37.6050   25.0910   38.0250 H   0  0  0  0  0  0  0  0  0  0  0  0
   37.9860   21.6980   39.1570 H   0  0  0  0  0  0  0  0  0  0  0  0
   34.8580   31.3570   33.1340 C   0  0  0  0  0  0  0  0  0  0  0  0
   35.3790   30.3200   33.9030 C   0  0  0  0  0  0  0  0  0  0  0  0
   35.4930   30.4580   35.2600 C   0  0  0  0  0  0  0  0  0  0  0  0
   35.0970   31.6170   35.8820 C   0  0  0  0  0  0  0  0  0  0  0  0
   35.1050   31.9980   37.1800 N   0  0  0  0  0  0  0  0  0  0  0  0
   34.5880   33.2550   37.1550 C   0  0  0  0  0  0  0  0  0  0  0  0
   34.2730   33.6380   35.8980 N   0  0  0  0  0  0  0  0  0  0  0  0
   34.5850   32.6210   35.0730 C   0  0  0  0  0  0  0  0  0  0  0  0
   34.4520   32.5310   33.7300 C   0  0  0  0  0  0  0  0  0  0  0  0
   34.7860   31.2020   32.0570 H   0  0  0  0  0  0  0  0  0  0  0  0
   35.9000   29.6500   35.8630 H   0  0  0  0  0  0  0  0  0  0  0  0
   35.4230   31.4780   38.0080 H   0  0  0  0  0  0  0  0  0  0  0  0
   34.4500   33.8670   38.0460 H   0  0  0  0  0  0  0  0  0  0  0  0
   34.0570   33.3030   33.0950 H   0  0  0  0  0  0  0  0  0  0  0  0
  1  6  2  0  0  0  0
  1  2  1  0  0  0  0
  2  3  2  0  0  0  0
  3  4  1  0  0  0  0
  3  9  1  0  0  0  0
  5  4  2  0  0  0  0
  5 26  1  0  0  0  0
  6  5  1  0  0  0  0
  7  1  1  0  0  0  0
  8  2  1  0  0  0  0
  9 14  1  0  0  0  0
 10  9  2  0  0  0  0
 10 11  1  0  0  0  0
 11 12  2  0  0  0  0
 12 13  1  0  0  0  0
 13 19  1  0  0  0  0
 14 13  2  0  0  0  0
 15 10  1  0  0  0  0
 16 11  1  0  0  0  0
 17 22  1  0  0  0  0
 17 18  2  0  0  0  0
 18 20  1  0  0  0  0
 19 18  1  0  0  0  0
 19 23  1  0  0  0  0
 20 24  1  0  0  0  0
 20 21  1  0  0  0  0
 25 33  2  0  0  0  0
 25 26  1  0  0  0  0
 26 27  2  0  0  0  0
 27 35  1  0  0  0  0
 27 28  1  0  0  0  0
 28 29  1  0  0  0  0
 29 36  1  0  0  0  0
 30 29  1  0  0  0  0
 30 37  1  0  0  0  0
 31 30  2  0  0  0  0
 32 28  2  0  0  0  0
 32 31  1  0  0  0  0
 33 32  1  0  0  0  0
 34 25  1  0  0  0  0
 38 33  1  0  0  0  0
M  END
>  <minimizedAffinity>
-6.75345898

$$$$

 OpenBabel03272507083D

 38 41  0  0  0  0  0  0  0  0999 V2000
   36.8420   25.4230   31.2050 C   0  0  0  0  0  0  0  0  0  0  0  0
   36.4040   26.7470   31.3190 C   0  0  0  0  0  0  0  0  0  0  0  0
   36.5650   27.3660   32.5750 C   0  0  0  0  0  0  0  0  0  0  0  0
   37.1220   26.6590   33.5800 N   0  0  0  0  0  0  0  0  0  0  0  0
   37.5310   25.3860   33.4270 C   0  0  0  0  0  0  0  0  0  0  0  0
   37.3930   24.7680   32.2490 N   0  0  0  0  0  0  0  0  0  0  0  0
   36.7080   24.9800   30.2440 H   0  0  0  0  0  0  0  0  0  0  0  0
   35.9660   27.3160   30.5470 H   0  0  0  0  0  0  0  0  0  0  0  0
   36.1660   28.7290   32.8620 C   0  0  0  0  0  0  0  0  0  0  0  0
   36.1670   29.7440   31.9370 C   0  0  0  0  0  0  0  0  0  0  0  0
   35.7910   31.0440   32.1900 C   0  0  0  0  0  0  0  0  0  0  0  0
   35.3950   31.3320   33.4400 N   0  0  0  0  0  0  0  0  0  0  0  0
   35.3810   30.3650   34.3700 C   0  0  0  0  0  0  0  0  0  0  0  0
   35.7490   29.1300   34.0880 N   0  0  0  0  0  0  0  0  0  0  0  0
   36.4850   29.5300   30.9160 H   0  0  0  0  0  0  0  0  0  0  0  0
   35.7920   31.8360   31.4660 H   0  0  0  0  0  0  0  0  0  0  0  0
   36.5100   32.5200   35.8300 N   0  0  0  0  0  0  0  0  0  0  0  0
   35.4530   31.9340   36.2800 C   0  0  0  0  0  0  0  0  0  0  0  0
   34.9510   30.7200   35.6860 N   0  0  0  0  0  0  0  0  0  0  0  0
   34.8430   32.5830   37.3910 N   0  0  0  0  0  0  0  0  0  0  0  0
   34.0340   32.9340   37.9490 H   0  0  0  0  0  0  0  0  0  0  0  0
   36.9380   33.3800   36.1850 H   0  0  0  0  0  0  0  0  0  0  0  0
   34.3010   30.1660   36.2490 H   0  0  0  0  0  0  0  0  0  0  0  0
   35.4350   32.9870   38.1700 H   0  0  0  0  0  0  0  0  0  0  0  0
   39.1480   23.7850   34.3540 C   0  0  0  0  0  0  0  0  0  0  0  0
   38.1250   24.7020   34.5790 C   0  0  0  0  0  0  0  0  0  0  0  0
   37.6890   24.9510   35.8520 C   0  0  0  0  0  0  0  0  0  0  0  0
   38.2530   24.3040   36.9240 C   0  0  0  0  0  0  0  0  0  0  0  0
   38.0100   24.3700   38.2530 N   0  0  0  0  0  0  0  0  0  0  0  0
   38.8960   23.4900   38.7920 C   0  0  0  0  0  0  0  0  0  0  0  0
   39.6550   22.9040   37.8410 N   0  0  0  0  0  0  0  0  0  0  0  0
   39.2690   23.4010   36.6500 C   0  0  0  0  0  0  0  0  0  0  0  0
   39.7340   23.1210   35.4100 C   0  0  0  0  0  0  0  0  0  0  0  0
   39.4620   23.6180   33.3230 H   0  0  0  0  0  0  0  0  0  0  0  0
   36.8900   25.6660   36.0300 H   0  0  0  0  0  0  0  0  0  0  0  0
   37.3220   24.9420   38.7610 H   0  0  0  0  0  0  0  0  0  0  0  0
   38.9730   23.2920   39.8610 H   0  0  0  0  0  0  0  0  0  0  0  0
   40.5190   22.4230   35.1880 H   0  0  0  0  0  0  0  0  0  0  0  0
  1  2  2  0  0  0  0
  1  6  1  0  0  0  0
  2  3  1  0  0  0  0
  3  9  1  0  0  0  0
  3  4  2  0  0  0  0
  5  4  1  0  0  0  0
  5 26  1  0  0  0  0
  6  5  2  0  0  0  0
  7  1  1  0  0  0  0
  8  2  1  0  0  0  0
  9 14  1  0  0  0  0
 10 11  1  0  0  0  0
 10  9  2  0  0  0  0
 11 12  2  0  0  0  0
 12 13  1  0  0  0  0
 13 19  1  0  0  0  0
 14 13  2  0  0  0  0
 15 10  1  0  0  0  0
 16 11  1  0  0  0  0
 17 22  1  0  0  0  0
 17 18  2  0  0  0  0
 18 20  1  0  0  0  0
 19 23  1  0  0  0  0
 19 18  1  0  0  0  0
 20 21  1  0  0  0  0
 20 24  1  0  0  0  0
 25 26  2  0  0  0  0
 25 33  1  0  0  0  0
 26 27  1  0  0  0  0
 27 35  1  0  0  0  0
 27 28  2  0  0  0  0
 28 29  1  0  0  0  0
 29 36  1  0  0  0  0
 29 30  1  0  0  0  0
 30 37  1  0  0  0  0
 31 30  2  0  0  0  0
 32 28  1  0  0  0  0
 32 31  1  0  0  0  0
 33 32  2  0  0  0  0
 34 25  1  0  0  0  0
 38 33  1  0  0  0  0
M  END
>  <minimizedAffinity>
-6.56685448

$$$$

 OpenBabel03272507083D

 38 41  0  0  0  0  0  0  0  0999 V2000
   37.0410   27.7130   31.7100 C   0  0  0  0  0  0  0  0  0  0  0  0
   36.2900   28.7220   32.3210 C   0  0  0  0  0  0  0  0  0  0  0  0
   36.2180   28.7010   33.7290 C   0  0  0  0  0  0  0  0  0  0  0  0
   36.8670   27.7240   34.3970 N   0  0  0  0  0  0  0  0  0  0  0  0
   37.5790   26.7710   33.7680 C   0  0  0  0  0  0  0  0  0  0  0  0
   37.6680   26.7610   32.4340 N   0  0  0  0  0  0  0  0  0  0  0  0
   37.0770   27.7540   30.6440 H   0  0  0  0  0  0  0  0  0  0  0  0
   35.7760   29.4940   31.8180 H   0  0  0  0  0  0  0  0  0  0  0  0
   35.4850   29.6710   34.5160 C   0  0  0  0  0  0  0  0  0  0  0  0
   36.0730   30.6650   35.2590 C   0  0  0  0  0  0  0  0  0  0  0  0
   35.3940   31.5960   36.0130 C   0  0  0  0  0  0  0  0  0  0  0  0
   34.0540   31.5170   36.0160 N   0  0  0  0  0  0  0  0  0  0  0  0
   33.4450   30.5570   35.3030 C   0  0  0  0  0  0  0  0  0  0  0  0
   34.1310   29.6840   34.5920 N   0  0  0  0  0  0  0  0  0  0  0  0
   37.1600   30.7460   35.2690 H   0  0  0  0  0  0  0  0  0  0  0  0
   35.8550   32.3720   36.5920 H   0  0  0  0  0  0  0  0  0  0  0  0
   31.9660   30.4700   37.7230 N   0  0  0  0  0  0  0  0  0  0  0  0
   31.3450   30.6520   36.6070 C   0  0  0  0  0  0  0  0  0  0  0  0
   32.0170   30.5140   35.3380 N   0  0  0  0  0  0  0  0  0  0  0  0
   29.9700   30.9930   36.7420 N   0  0  0  0  0  0  0  0  0  0  0  0
   29.1030   31.5230   36.5030 H   0  0  0  0  0  0  0  0  0  0  0  0
   31.5740   30.5450   38.6660 H   0  0  0  0  0  0  0  0  0  0  0  0
   31.4230   30.3900   34.5130 H   0  0  0  0  0  0  0  0  0  0  0  0
   29.3620   30.5060   37.4590 H   0  0  0  0  0  0  0  0  0  0  0  0
   39.3790   25.1250   34.0660 C   0  0  0  0  0  0  0  0  0  0  0  0
   38.2480   25.7520   34.5810 C   0  0  0  0  0  0  0  0  0  0  0  0
   37.7790   25.4150   35.8220 C   0  0  0  0  0  0  0  0  0  0  0  0
   38.4150   24.4590   36.5760 C   0  0  0  0  0  0  0  0  0  0  0  0
   38.1580   23.9560   37.8050 N   0  0  0  0  0  0  0  0  0  0  0  0
   39.1440   23.0390   37.9950 C   0  0  0  0  0  0  0  0  0  0  0  0
   39.9750   22.9760   36.9320 N   0  0  0  0  0  0  0  0  0  0  0  0
   39.5360   23.8640   36.0200 C   0  0  0  0  0  0  0  0  0  0  0  0
   40.0380   24.1610   34.7990 C   0  0  0  0  0  0  0  0  0  0  0  0
   39.7170   25.4240   33.0720 H   0  0  0  0  0  0  0  0  0  0  0  0
   36.8960   25.9030   36.2270 H   0  0  0  0  0  0  0  0  0  0  0  0
   37.4020   24.1940   38.4600 H   0  0  0  0  0  0  0  0  0  0  0  0
   39.2400   22.4370   38.8980 H   0  0  0  0  0  0  0  0  0  0  0  0
   40.9060   23.7060   34.3590 H   0  0  0  0  0  0  0  0  0  0  0  0
  1  2  2  0  0  0  0
  1  6  1  0  0  0  0
  2  3  1  0  0  0  0
  3  4  2  0  0  0  0
  3  9  1  0  0  0  0
  5  4  1  0  0  0  0
  5 26  1  0  0  0  0
  6  5  2  0  0  0  0
  7  1  1  0  0  0  0
  8  2  1  0  0  0  0
  9 14  2  0  0  0  0
  9 10  1  0  0  0  0
 10 15  1  0  0  0  0
 10 11  2  0  0  0  0
 11 12  1  0  0  0  0
 11 16  1  0  0  0  0
 13 19  1  0  0  0  0
 13 12  2  0  0  0  0
 14 13  1  0  0  0  0
 17 22  1  0  0  0  0
 18 20  1  0  0  0  0
 18 17  2  0  0  0  0
 19 18  1  0  0  0  0
 20 24  1  0  0  0  0
 21 20  1  0  0  0  0
 23 19  1  0  0  0  0
 25 26  2  0  0  0  0
 25 33  1  0  0  0  0
 26 27  1  0  0  0  0
 27 35  1  0  0  0  0
 27 28  2  0  0  0  0
 28 29  1  0  0  0  0
 29 30  1  0  0  0  0
 29 36  1  0  0  0  0
 30 37  1  0  0  0  0
 31 30  2  0  0  0  0
 32 28  1  0  0  0  0
 32 31  1  0  0  0  0
 33 32  2  0  0  0  0
 34 25  1  0  0  0  0
 38 33  1  0  0  0  0
M  END
>  <minimizedAffinity>
-6.49141884

$$$$

 OpenBabel03272507083D

 38 41  0  0  0  0  0  0  0  0999 V2000
   35.5060   29.6380   33.9240 C   0  0  0  0  0  0  0  0  0  0  0  0
   35.9440   28.4130   34.4380 C   0  0  0  0  0  0  0  0  0  0  0  0
   36.7490   27.6190   33.5960 C   0  0  0  0  0  0  0  0  0  0  0  0
   37.0480   28.0780   32.3630 N   0  0  0  0  0  0  0  0  0  0  0  0
   36.6060   29.2650   31.9080 C   0  0  0  0  0  0  0  0  0  0  0  0
   35.8400   30.0430   32.6800 N   0  0  0  0  0  0  0  0  0  0  0  0
   34.8980   30.2180   34.5830 H   0  0  0  0  0  0  0  0  0  0  0  0
   35.7210   28.0360   35.3980 H   0  0  0  0  0  0  0  0  0  0  0  0
   37.2840   26.3260   33.9720 C   0  0  0  0  0  0  0  0  0  0  0  0
   37.5080   25.2980   33.0900 C   0  0  0  0  0  0  0  0  0  0  0  0
   38.0160   24.0630   33.4270 C   0  0  0  0  0  0  0  0  0  0  0  0
   38.3110   23.8580   34.7210 N   0  0  0  0  0  0  0  0  0  0  0  0
   38.1030   24.8400   35.6120 C   0  0  0  0  0  0  0  0  0  0  0  0
   37.6150   26.0100   35.2480 N   0  0  0  0  0  0  0  0  0  0  0  0
   37.2760   25.4450   32.0350 H   0  0  0  0  0  0  0  0  0  0  0  0
   38.1910   23.2620   32.7370 H   0  0  0  0  0  0  0  0  0  0  0  0
   37.1060   22.5920   37.0260 N   0  0  0  0  0  0  0  0  0  0  0  0
   38.0270   23.3190   37.5610 C   0  0  0  0  0  0  0  0  0  0  0  0
   38.4320   24.5740   36.9770 N   0  0  0  0  0  0  0  0  0  0  0  0
   38.5920   22.7810   38.7510 N   0  0  0  0  0  0  0  0  0  0  0  0
   39.3760   22.5510   39.4010 H   0  0  0  0  0  0  0  0  0  0  0  0
   36.7550   21.6930   37.3670 H   0  0  0  0  0  0  0  0  0  0  0  0
   38.9440   25.2210   37.5830 H   0  0  0  0  0  0  0  0  0  0  0  0
   37.9760   22.3220   39.4800 H   0  0  0  0  0  0  0  0  0  0  0  0
   37.5790   28.7380   29.7140 C   0  0  0  0  0  0  0  0  0  0  0  0
   36.9840   29.6760   30.5530 C   0  0  0  0  0  0  0  0  0  0  0  0
   36.7640   30.9530   30.1130 C   0  0  0  0  0  0  0  0  0  0  0  0
   37.1220   31.3280   28.8420 C   0  0  0  0  0  0  0  0  0  0  0  0
   37.0160   32.5020   28.1780 N   0  0  0  0  0  0  0  0  0  0  0  0
   37.5490   32.2360   26.9560 C   0  0  0  0  0  0  0  0  0  0  0  0
   37.9690   30.9550   26.8650 N   0  0  0  0  0  0  0  0  0  0  0  0
   37.7110   30.3580   28.0430 C   0  0  0  0  0  0  0  0  0  0  0  0
   37.9500   29.0850   28.4330 C   0  0  0  0  0  0  0  0  0  0  0  0
   37.7360   27.7330   30.1080 H   0  0  0  0  0  0  0  0  0  0  0  0
   36.3000   31.6880   30.7670 H   0  0  0  0  0  0  0  0  0  0  0  0
   36.6260   33.3970   28.5000 H   0  0  0  0  0  0  0  0  0  0  0  0
   37.6220   32.9750   26.1580 H   0  0  0  0  0  0  0  0  0  0  0  0
   38.4050   28.3270   27.8230 H   0  0  0  0  0  0  0  0  0  0  0  0
  1  2  1  0  0  0  0
  1  7  1  0  0  0  0
  2  8  1  0  0  0  0
  3  9  1  0  0  0  0
  3  2  2  0  0  0  0
  4  3  1  0  0  0  0
  5  4  2  0  0  0  0
  5  6  1  0  0  0  0
  6  1  2  0  0  0  0
  9 14  1  0  0  0  0
 10 11  1  0  0  0  0
 10  9  2  0  0  0  0
 11 12  2  0  0  0  0
 12 13  1  0  0  0  0
 13 19  1  0  0  0  0
 14 13  2  0  0  0  0
 15 10  1  0  0  0  0
 16 11  1  0  0  0  0
 17 22  1  0  0  0  0
 17 18  2  0  0  0  0
 18 20  1  0  0  0  0
 19 18  1  0  0  0  0
 19 23  1  0  0  0  0
 20 21  1  0  0  0  0
 20 24  1  0  0  0  0
 25 34  1  0  0  0  0
 25 26  1  0  0  0  0
 26  5  1  0  0  0  0
 27 26  2  0  0  0  0
 27 35  1  0  0  0  0
 28 27  1  0  0  0  0
 29 36  1  0  0  0  0
 29 28  1  0  0  0  0
 30 29  1  0  0  0  0
 31 30  2  0  0  0  0
 31 32  1  0  0  0  0
 32 33  1  0  0  0  0
 32 28  2  0  0  0  0
 33 25  2  0  0  0  0
 37 30  1  0  0  0  0
 38 33  1  0  0  0  0
M  END
>  <minimizedAffinity>
-6.44078684

$$$$

 OpenBabel03272507083D

 38 41  0  0  0  0  0  0  0  0999 V2000
   38.0310   28.1580   31.0190 C   0  0  0  0  0  0  0  0  0  0  0  0
   38.4040   26.9300   31.5760 C   0  0  0  0  0  0  0  0  0  0  0  0
   37.6520   26.4740   32.6770 C   0  0  0  0  0  0  0  0  0  0  0  0
   36.6310   27.2340   33.1250 N   0  0  0  0  0  0  0  0  0  0  0  0
   36.3060   28.4120   32.5590 C   0  0  0  0  0  0  0  0  0  0  0  0
   36.9980   28.8740   31.5130 N   0  0  0  0  0  0  0  0  0  0  0  0
   38.6180   28.4790   30.1880 H   0  0  0  0  0  0  0  0  0  0  0  0
   39.1980   26.3210   31.2420 H   0  0  0  0  0  0  0  0  0  0  0  0
   37.9050   25.2260   33.3690 C   0  0  0  0  0  0  0  0  0  0  0  0
   37.7900   23.9870   32.7900 C   0  0  0  0  0  0  0  0  0  0  0  0
   38.0260   22.7900   33.4300 C   0  0  0  0  0  0  0  0  0  0  0  0
   38.3970   22.8510   34.7190 N   0  0  0  0  0  0  0  0  0  0  0  0
   38.5180   24.0460   35.3170 C   0  0  0  0  0  0  0  0  0  0  0  0
   38.2830   25.1700   34.6690 N   0  0  0  0  0  0  0  0  0  0  0  0
   37.4910   23.9160   31.7440 H   0  0  0  0  0  0  0  0  0  0  0  0
   37.9370   21.8230   32.9760 H   0  0  0  0  0  0  0  0  0  0  0  0
   37.1740   22.5560   37.3230 N   0  0  0  0  0  0  0  0  0  0  0  0
   38.2900   23.1380   37.6070 C   0  0  0  0  0  0  0  0  0  0  0  0
   38.9150   24.0590   36.6900 N   0  0  0  0  0  0  0  0  0  0  0  0
   38.8330   22.7930   38.8760 N   0  0  0  0  0  0  0  0  0  0  0  0
   39.6040   22.5440   39.5350 H   0  0  0  0  0  0  0  0  0  0  0  0
   36.6600   21.8920   37.9080 H   0  0  0  0  0  0  0  0  0  0  0  0
   39.6250   24.6870   37.0790 H   0  0  0  0  0  0  0  0  0  0  0  0
   38.2060   22.7040   39.7250 H   0  0  0  0  0  0  0  0  0  0  0  0
   35.3890   29.9200   34.2690 C   0  0  0  0  0  0  0  0  0  0  0  0
   35.1800   29.1650   33.1180 C   0  0  0  0  0  0  0  0  0  0  0  0
   33.9450   29.1340   32.5290 C   0  0  0  0  0  0  0  0  0  0  0  0
   32.8970   29.8440   33.0610 C   0  0  0  0  0  0  0  0  0  0  0  0
   31.6060   29.9780   32.6790 N   0  0  0  0  0  0  0  0  0  0  0  0
   31.0740   30.8120   33.6120 C   0  0  0  0  0  0  0  0  0  0  0  0
   31.9930   31.1780   34.5320 N   0  0  0  0  0  0  0  0  0  0  0  0
   33.1540   30.5800   34.2070 C   0  0  0  0  0  0  0  0  0  0  0  0
   34.3560   30.6430   34.8260 C   0  0  0  0  0  0  0  0  0  0  0  0
   36.3890   29.9150   34.7030 H   0  0  0  0  0  0  0  0  0  0  0  0
   33.7790   28.5450   31.6300 H   0  0  0  0  0  0  0  0  0  0  0  0
   31.1180   29.5590   31.8770 H   0  0  0  0  0  0  0  0  0  0  0  0
   30.0330   31.1360   33.6070 H   0  0  0  0  0  0  0  0  0  0  0  0
   34.5660   31.2100   35.7130 H   0  0  0  0  0  0  0  0  0  0  0  0
  1  6  2  0  0  0  0
  1  2  1  0  0  0  0
  2  3  2  0  0  0  0
  3  4  1  0  0  0  0
  3  9  1  0  0  0  0
  5 26  1  0  0  0  0
  5  4  2  0  0  0  0
  6  5  1  0  0  0  0
  7  1  1  0  0  0  0
  8  2  1  0  0  0  0
  9 14  1  0  0  0  0
 10  9  2  0  0  0  0
 10 11  1  0  0  0  0
 11 12  2  0  0  0  0
 12 13  1  0  0  0  0
 13 19  1  0  0  0  0
 14 13  2  0  0  0  0
 15 10  1  0  0  0  0
 16 11  1  0  0  0  0
 17 18  2  0  0  0  0
 17 22  1  0  0  0  0
 18 20  1  0  0  0  0
 19 23  1  0  0  0  0
 19 18  1  0  0  0  0
 20 21  1  0  0  0  0
 20 24  1  0  0  0  0
 25 34  1  0  0  0  0
 25 33  1  0  0  0  0
 26 25  2  0  0  0  0
 27 28  2  0  0  0  0
 27 26  1  0  0  0  0
 28 32  1  0  0  0  0
 29 28  1  0  0  0  0
 29 30  1  0  0  0  0
 30 31  2  0  0  0  0
 32 31  1  0  0  0  0
 32 33  2  0  0  0  0
 33 38  1  0  0  0  0
 35 27  1  0  0  0  0
 36 29  1  0  0  0  0
 37 30  1  0  0  0  0
M  END
>  <minimizedAffinity>
-6.42486

$$$$

 OpenBabel03272507083D

 38 41  0  0  0  0  0  0  0  0999 V2000
   36.2500   29.2530   31.7740 C   0  0  0  0  0  0  0  0  0  0  0  0
   35.3630   29.9650   32.5880 C   0  0  0  0  0  0  0  0  0  0  0  0
   35.3160   29.6020   33.9490 C   0  0  0  0  0  0  0  0  0  0  0  0
   36.1140   28.6040   34.3830 N   0  0  0  0  0  0  0  0  0  0  0  0
   36.9540   27.9450   33.5640 C   0  0  0  0  0  0  0  0  0  0  0  0
   37.0250   28.2640   32.2670 N   0  0  0  0  0  0  0  0  0  0  0  0
   36.2650   29.5490   30.7480 H   0  0  0  0  0  0  0  0  0  0  0  0
   34.7310   30.7470   32.2690 H   0  0  0  0  0  0  0  0  0  0  0  0
   34.4540   30.2370   34.9260 C   0  0  0  0  0  0  0  0  0  0  0  0
   33.1080   29.9930   35.0410 C   0  0  0  0  0  0  0  0  0  0  0  0
   32.2720   30.5850   35.9620 C   0  0  0  0  0  0  0  0  0  0  0  0
   32.8270   31.4670   36.8080 N   0  0  0  0  0  0  0  0  0  0  0  0
   34.1400   31.7310   36.7250 C   0  0  0  0  0  0  0  0  0  0  0  0
   34.9070   31.1420   35.8280 N   0  0  0  0  0  0  0  0  0  0  0  0
   32.6390   29.2790   34.3630 H   0  0  0  0  0  0  0  0  0  0  0  0
   31.2210   30.3930   36.0510 H   0  0  0  0  0  0  0  0  0  0  0  0
   33.0730   34.3380   37.0650 N   0  0  0  0  0  0  0  0  0  0  0  0
   33.9730   33.9090   37.8840 C   0  0  0  0  0  0  0  0  0  0  0  0
   34.6840   32.6770   37.6470 N   0  0  0  0  0  0  0  0  0  0  0  0
   34.1920   34.7460   39.0140 N   0  0  0  0  0  0  0  0  0  0  0  0
   34.3640   34.9350   40.0260 H   0  0  0  0  0  0  0  0  0  0  0  0
   32.5210   35.1960   37.1500 H   0  0  0  0  0  0  0  0  0  0  0  0
   35.5580   32.5430   38.1640 H   0  0  0  0  0  0  0  0  0  0  0  0
   34.2220   35.7990   38.9080 H   0  0  0  0  0  0  0  0  0  0  0  0
   39.0170   26.6090   33.5450 C   0  0  0  0  0  0  0  0  0  0  0  0
   37.7820   26.8760   34.1300 C   0  0  0  0  0  0  0  0  0  0  0  0
   37.3590   26.1500   35.2100 C   0  0  0  0  0  0  0  0  0  0  0  0
   38.1440   25.1510   35.7320 C   0  0  0  0  0  0  0  0  0  0  0  0
   37.9610   24.3040   36.7720 N   0  0  0  0  0  0  0  0  0  0  0  0
   39.0930   23.5510   36.7830 C   0  0  0  0  0  0  0  0  0  0  0  0
   39.9400   23.9130   35.7950 N   0  0  0  0  0  0  0  0  0  0  0  0
   39.3640   24.9220   35.1160 C   0  0  0  0  0  0  0  0  0  0  0  0
   39.8250   25.6120   34.0470 C   0  0  0  0  0  0  0  0  0  0  0  0
   39.3120   27.2130   32.6860 H   0  0  0  0  0  0  0  0  0  0  0  0
   36.3960   26.3560   35.6680 H   0  0  0  0  0  0  0  0  0  0  0  0
   37.1630   24.2290   37.4160 H   0  0  0  0  0  0  0  0  0  0  0  0
   39.2800   22.7570   37.5060 H   0  0  0  0  0  0  0  0  0  0  0  0
   40.7690   25.4430   33.5620 H   0  0  0  0  0  0  0  0  0  0  0  0
  1  6  2  0  0  0  0
  1  2  1  0  0  0  0
  2  3  2  0  0  0  0
  3  4  1  0  0  0  0
  3  9  1  0  0  0  0
  5 26  1  0  0  0  0
  5  4  2  0  0  0  0
  6  5  1  0  0  0  0
  7  1  1  0  0  0  0
  8  2  1  0  0  0  0
  9 10  2  0  0  0  0
  9 14  1  0  0  0  0
 10 11  1  0  0  0  0
 11 16  1  0  0  0  0
 11 12  2  0  0  0  0
 13 12  1  0  0  0  0
 13 19  1  0  0  0  0
 14 13  2  0  0  0  0
 15 10  1  0  0  0  0
 17 22  1  0  0  0  0
 17 18  2  0  0  0  0
 18 20  1  0  0  0  0
 19 18  1  0  0  0  0
 19 23  1  0  0  0  0
 20 21  1  0  0  0  0
 24 20  1  0  0  0  0
 25 33  2  0  0  0  0
 25 26  1  0  0  0  0
 26 27  2  0  0  0  0
 27 35  1  0  0  0  0
 27 28  1  0  0  0  0
 28 29  1  0  0  0  0
 29 30  1  0  0  0  0
 29 36  1  0  0  0  0
 30 37  1  0  0  0  0
 31 30  2  0  0  0  0
 32 28  2  0  0  0  0
 32 31  1  0  0  0  0
 33 32  1  0  0  0  0
 34 25  1  0  0  0  0
 38 33  1  0  0  0  0
M  END
>  <minimizedAffinity>
-6.40357161

$$$$

 OpenBabel03272507083D

 38 41  0  0  0  0  0  0  0  0999 V2000
   37.8920   27.5920   31.5480 C   0  0  0  0  0  0  0  0  0  0  0  0
   36.9190   28.5340   31.8990 C   0  0  0  0  0  0  0  0  0  0  0  0
   36.4180   28.4730   33.2150 C   0  0  0  0  0  0  0  0  0  0  0  0
   36.8960   27.5260   34.0480 N   0  0  0  0  0  0  0  0  0  0  0  0
   37.8330   26.6380   33.6680 C   0  0  0  0  0  0  0  0  0  0  0  0
   38.3310   26.6670   32.4280 N   0  0  0  0  0  0  0  0  0  0  0  0
   38.2530   27.6620   30.5460 H   0  0  0  0  0  0  0  0  0  0  0  0
   36.5320   29.2820   31.2630 H   0  0  0  0  0  0  0  0  0  0  0  0
   35.4100   29.3730   33.7390 C   0  0  0  0  0  0  0  0  0  0  0  0
   34.1980   29.6070   33.1380 C   0  0  0  0  0  0  0  0  0  0  0  0
   33.2270   30.4570   33.6200 C   0  0  0  0  0  0  0  0  0  0  0  0
   33.4970   31.1010   34.7660 N   0  0  0  0  0  0  0  0  0  0  0  0
   34.6720   30.8970   35.3810 C   0  0  0  0  0  0  0  0  0  0  0  0
   35.5760   30.0750   34.8870 N   0  0  0  0  0  0  0  0  0  0  0  0
   33.9600   29.0920   32.2060 H   0  0  0  0  0  0  0  0  0  0  0  0
   32.2810   30.6380   33.1500 H   0  0  0  0  0  0  0  0  0  0  0  0
   34.4150   33.7150   35.5980 N   0  0  0  0  0  0  0  0  0  0  0  0
   34.5860   33.0100   36.6650 C   0  0  0  0  0  0  0  0  0  0  0  0
   34.9120   31.6070   36.5980 N   0  0  0  0  0  0  0  0  0  0  0  0
   34.4260   33.7290   37.8830 N   0  0  0  0  0  0  0  0  0  0  0  0
   34.0960   33.8560   38.8650 H   0  0  0  0  0  0  0  0  0  0  0  0
   34.1840   34.7110   35.5490 H   0  0  0  0  0  0  0  0  0  0  0  0
   35.3060   31.1840   37.4440 H   0  0  0  0  0  0  0  0  0  0  0  0
   34.8180   34.7070   37.9870 H   0  0  0  0  0  0  0  0  0  0  0  0
   39.2640   24.7300   34.2610 C   0  0  0  0  0  0  0  0  0  0  0  0
   38.2890   25.6460   34.6460 C   0  0  0  0  0  0  0  0  0  0  0  0
   37.7730   25.6110   35.9130 C   0  0  0  0  0  0  0  0  0  0  0  0
   38.2080   24.6780   36.8220 C   0  0  0  0  0  0  0  0  0  0  0  0
   37.8660   24.4370   38.1080 N   0  0  0  0  0  0  0  0  0  0  0  0
   38.6470   23.3820   38.4620 C   0  0  0  0  0  0  0  0  0  0  0  0
   39.4370   22.9850   37.4410 N   0  0  0  0  0  0  0  0  0  0  0  0
   39.1800   23.7880   36.3920 C   0  0  0  0  0  0  0  0  0  0  0  0
   39.7200   23.7810   35.1510 C   0  0  0  0  0  0  0  0  0  0  0  0
   39.6460   24.7940   33.2410 H   0  0  0  0  0  0  0  0  0  0  0  0
   37.0110   26.3260   36.2160 H   0  0  0  0  0  0  0  0  0  0  0  0
   37.1810   24.9230   38.7010 H   0  0  0  0  0  0  0  0  0  0  0  0
   38.6270   22.9230   39.4500 H   0  0  0  0  0  0  0  0  0  0  0  0
   40.4730   23.0960   34.8080 H   0  0  0  0  0  0  0  0  0  0  0  0
  1  2  2  0  0  0  0
  1  6  1  0  0  0  0
  2  3  1  0  0  0  0
  3  9  1  0  0  0  0
  3  4  2  0  0  0  0
  5  4  1  0  0  0  0
  5 26  1  0  0  0  0
  6  5  2  0  0  0  0
  7  1  1  0  0  0  0
  8  2  1  0  0  0  0
  9 14  1  0  0  0  0
 10 11  1  0  0  0  0
 10  9  2  0  0  0  0
 11 12  2  0  0  0  0
 12 13  1  0  0  0  0
 13 19  1  0  0  0  0
 14 13  2  0  0  0  0
 15 10  1  0  0  0  0
 16 11  1  0  0  0  0
 17 18  2  0  0  0  0
 18 20  1  0  0  0  0
 19 18  1  0  0  0  0
 19 23  1  0  0  0  0
 20 24  1  0  0  0  0
 20 21  1  0  0  0  0
 22 17  1  0  0  0  0
 25 26  2  0  0  0  0
 25 33  1  0  0  0  0
 26 27  1  0  0  0  0
 27 35  1  0  0  0  0
 27 28  2  0  0  0  0
 28 29  1  0  0  0  0
 29 30  1  0  0  0  0
 29 36  1  0  0  0  0
 30 37  1  0  0  0  0
 31 30  2  0  0  0  0
 32 28  1  0  0  0  0
 32 31  1  0  0  0  0
 33 32  2  0  0  0  0
 34 25  1  0  0  0  0
 38 33  1  0  0  0  0
M  END
>  <minimizedAffinity>
-6.28815985

$$$$
