
 OpenBabel03272507023D

 45 47  0  0  1  0  0  0  0  0999 V2000
   36.9610   23.9250   31.0680 C   0  0  2  0  0  0  0  0  0  0  0  0
   37.7770   24.4670   32.1880 C   0  0  0  0  0  0  0  0  0  0  0  0
   36.9870   25.3930   33.0940 C   0  0  2  0  0  0  0  0  0  0  0  0
   36.3690   26.5270   32.3610 C   0  0  0  0  0  0  0  0  0  0  0  0
   35.7830   26.1310   31.0240 C   0  0  0  0  0  0  0  0  0  0  0  0
   35.6410   24.6360   30.9000 C   0  0  0  0  0  0  0  0  0  0  0  0
   37.4540   24.0140   30.0550 H   0  0  0  0  0  0  0  0  0  0  0  0
   38.2350   23.7550   32.8830 H   0  0  0  0  0  0  0  0  0  0  0  0
   38.5990   25.0730   31.6870 H   0  0  0  0  0  0  0  0  0  0  0  0
   36.1650   24.7680   33.5260 H   0  0  0  0  0  0  0  0  0  0  0  0
   35.4890   26.8690   32.9820 H   0  0  0  0  0  0  0  0  0  0  0  0
   36.9620   27.4120   32.1830 H   0  0  0  0  0  0  0  0  0  0  0  0
   34.8270   26.6110   30.8210 H   0  0  0  0  0  0  0  0  0  0  0  0
   36.4720   26.4470   30.2050 H   0  0  0  0  0  0  0  0  0  0  0  0
   35.2340   24.3980   29.9130 H   0  0  0  0  0  0  0  0  0  0  0  0
   34.9220   24.2960   31.6770 H   0  0  0  0  0  0  0  0  0  0  0  0
   37.7770   25.8860   34.1660 N   0  0  1  0  0  0  0  0  0  0  0  0
   37.3480   27.1940   34.6360 C   0  0  0  0  0  0  0  0  0  0  0  0
   38.4300   27.4670   35.6810 C   0  0  0  0  0  0  0  0  0  0  0  0
   38.5000   26.0940   36.3550 C   0  0  0  0  0  0  0  0  0  0  0  0
   37.9590   25.1050   35.3030 C   0  0  2  0  0  0  0  0  0  0  0  0
   37.3980   27.9480   33.8140 H   0  0  0  0  0  0  0  0  0  0  0  0
   36.3680   27.1510   35.1360 H   0  0  0  0  0  0  0  0  0  0  0  0
   39.3650   27.6770   35.1240 H   0  0  0  0  0  0  0  0  0  0  0  0
   38.1360   28.2580   36.3760 H   0  0  0  0  0  0  0  0  0  0  0  0
   37.8680   26.1230   37.2620 H   0  0  0  0  0  0  0  0  0  0  0  0
   39.5560   25.9390   36.5830 H   0  0  0  0  0  0  0  0  0  0  0  0
   37.0190   24.7170   35.7060 H   0  0  0  0  0  0  0  0  0  0  0  0
   37.5030   22.7040   36.8340 N   0  0  0  0  0  0  0  0  0  0  0  0
   38.5940   23.0180   36.1900 C   0  0  0  0  0  0  0  0  0  0  0  0
   38.9590   24.0620   35.2630 N   0  0  0  0  0  0  0  0  0  0  0  0
   39.3160   21.9240   36.7400 N   0  0  0  0  0  0  0  0  0  0  0  0
   39.3850   21.0610   36.1220 H   0  0  0  0  0  0  0  0  0  0  0  0
   36.6120   23.2090   36.7800 H   0  0  0  0  0  0  0  0  0  0  0  0
   39.8480   23.6560   34.8990 H   0  0  0  0  0  0  0  0  0  0  0  0
   39.8010   21.8390   37.6830 H   0  0  0  0  0  0  0  0  0  0  0  0
   36.6630   22.4820   31.2210 C   0  0  0  0  0  0  0  0  0  0  0  0
   35.4500   22.2160   31.8620 C   0  0  0  0  0  0  0  0  0  0  0  0
   35.1120   20.8540   32.0210 C   0  0  0  0  0  0  0  0  0  0  0  0
   35.9720   19.8820   31.5500 N   0  0  0  0  0  0  0  0  0  0  0  0
   37.1410   20.2030   30.9340 C   0  0  0  0  0  0  0  0  0  0  0  0
   37.4570   21.4770   30.7840 N   0  0  0  0  0  0  0  0  0  0  0  0
   34.6320   22.7340   32.3190 H   0  0  0  0  0  0  0  0  0  0  0  0
   34.2480   20.3940   32.4730 H   0  0  0  0  0  0  0  0  0  0  0  0
   37.7900   19.4170   30.5770 H   0  0  0  0  0  0  0  0  0  0  0  0
  1  7  1  6  0  0  0
  1 37  1  0  0  0  0
  1  2  1  0  0  0  0
  2  8  1  0  0  0  0
  2  3  1  0  0  0  0
  3 10  1  1  0  0  0
  3 17  1  0  0  0  0
  4 11  1  0  0  0  0
  4  3  1  0  0  0  0
  5  4  1  0  0  0  0
  6  5  1  0  0  0  0
  6  1  1  0  0  0  0
  6 16  1  0  0  0  0
  9  2  1  0  0  0  0
 12  4  1  0  0  0  0
 13  5  1  0  0  0  0
 14  5  1  0  0  0  0
 15  6  1  0  0  0  0
 17 18  1  1  0  0  0
 17 21  1  0  0  0  0
 18 23  1  0  0  0  0
 18 19  1  0  0  0  0
 19 20  1  0  0  0  0
 19 25  1  0  0  0  0
 20 27  1  0  0  0  0
 20 26  1  0  0  0  0
 21 28  1  1  0  0  0
 21 20  1  0  0  0  0
 22 18  1  0  0  0  0
 24 19  1  0  0  0  0
 30 32  1  0  0  0  0
 30 29  2  0  0  0  0
 31 21  1  0  0  0  0
 31 30  1  0  0  0  0
 32 36  1  0  0  0  0
 33 32  1  0  0  0  0
 34 29  1  0  0  0  0
 35 31  1  0  0  0  0
 37 38  1  0  0  0  0
 38 39  2  0  0  0  0
 38 43  1  0  0  0  0
 39 44  1  0  0  0  0
 40 39  1  0  0  0  0
 41 40  2  0  0  0  0
 42 41  1  0  0  0  0
 42 37  2  0  0  0  0
 45 41  1  0  0  0  0
M  END
>  <minimizedAffinity>
-5.7200985

$$$$

 OpenBabel03272507023D

 45 47  0  0  1  0  0  0  0  0999 V2000
   38.5830   26.0910   35.1210 C   0  0  2  0  0  0  0  0  0  0  0  0
   37.5380   25.7830   34.1080 C   0  0  0  0  0  0  0  0  0  0  0  0
   38.1210   25.3990   32.7600 C   0  0  2  0  0  0  0  0  0  0  0  0
   39.0280   26.4380   32.2100 C   0  0  0  0  0  0  0  0  0  0  0  0
   39.9300   27.0620   33.2510 C   0  0  0  0  0  0  0  0  0  0  0  0
   39.9580   26.2530   34.5210 C   0  0  0  0  0  0  0  0  0  0  0  0
   38.4110   27.0580   35.6800 H   0  0  0  0  0  0  0  0  0  0  0  0
   36.8340   24.9710   34.3250 H   0  0  0  0  0  0  0  0  0  0  0  0
   36.9550   26.7510   33.9830 H   0  0  0  0  0  0  0  0  0  0  0  0
   38.7220   24.4720   32.9420 H   0  0  0  0  0  0  0  0  0  0  0  0
   39.7230   25.9090   31.4920 H   0  0  0  0  0  0  0  0  0  0  0  0
   38.5980   27.2550   31.6500 H   0  0  0  0  0  0  0  0  0  0  0  0
   40.9460   27.2210   32.8910 H   0  0  0  0  0  0  0  0  0  0  0  0
   39.5380   28.0690   33.5310 H   0  0  0  0  0  0  0  0  0  0  0  0
   40.6060   26.7520   35.2480 H   0  0  0  0  0  0  0  0  0  0  0  0
   40.3900   25.2560   34.2800 H   0  0  0  0  0  0  0  0  0  0  0  0
   37.1100   25.0910   31.8140 N   0  0  1  0  0  0  0  0  0  0  0  0
   36.4540   23.8190   32.0740 C   0  0  0  0  0  0  0  0  0  0  0  0
   35.5290   23.7460   30.8590 C   0  0  0  0  0  0  0  0  0  0  0  0
   35.0180   25.1880   30.8270 C   0  0  0  0  0  0  0  0  0  0  0  0
   36.0930   26.0090   31.5670 C   0  0  2  0  0  0  0  0  0  0  0  0
   37.1920   22.9800   32.0560 H   0  0  0  0  0  0  0  0  0  0  0  0
   35.8440   23.8490   32.9890 H   0  0  0  0  0  0  0  0  0  0  0  0
   36.1730   23.5390   29.9800 H   0  0  0  0  0  0  0  0  0  0  0  0
   34.7230   23.0210   31.0020 H   0  0  0  0  0  0  0  0  0  0  0  0
   34.0420   25.2200   31.3450 H   0  0  0  0  0  0  0  0  0  0  0  0
   34.9420   25.4430   29.7680 H   0  0  0  0  0  0  0  0  0  0  0  0
   35.6200   26.3730   32.4830 H   0  0  0  0  0  0  0  0  0  0  0  0
   35.8350   28.7000   32.5710 N   0  0  0  0  0  0  0  0  0  0  0  0
   36.0570   28.3510   31.3330 C   0  0  0  0  0  0  0  0  0  0  0  0
   36.3680   27.1080   30.6700 N   0  0  0  0  0  0  0  0  0  0  0  0
   35.8850   29.6800   30.8560 N   0  0  0  0  0  0  0  0  0  0  0  0
   36.7810   30.2310   30.6990 H   0  0  0  0  0  0  0  0  0  0  0  0
   35.8470   28.0680   33.3800 H   0  0  0  0  0  0  0  0  0  0  0  0
   36.6840   27.4860   29.7510 H   0  0  0  0  0  0  0  0  0  0  0  0
   34.9890   30.2070   30.6310 H   0  0  0  0  0  0  0  0  0  0  0  0
   38.6860   25.0540   36.1740 C   0  0  0  0  0  0  0  0  0  0  0  0
   39.6170   24.0500   35.8960 C   0  0  0  0  0  0  0  0  0  0  0  0
   39.7630   23.0440   36.8760 C   0  0  0  0  0  0  0  0  0  0  0  0
   39.0010   23.1010   38.0250 N   0  0  0  0  0  0  0  0  0  0  0  0
   38.1100   24.1050   38.2400 C   0  0  0  0  0  0  0  0  0  0  0  0
   37.9730   25.0460   37.3240 N   0  0  0  0  0  0  0  0  0  0  0  0
   40.3010   23.7550   35.1280 H   0  0  0  0  0  0  0  0  0  0  0  0
   40.4030   22.1760   36.9000 H   0  0  0  0  0  0  0  0  0  0  0  0
   37.5290   24.1180   39.1510 H   0  0  0  0  0  0  0  0  0  0  0  0
  1  7  1  1  0  0  0
  1 37  1  0  0  0  0
  2  8  1  0  0  0  0
  2  1  1  0  0  0  0
  3 10  1  1  0  0  0
  3  2  1  0  0  0  0
  4  3  1  0  0  0  0
  4  5  1  0  0  0  0
  5 14  1  0  0  0  0
  5  6  1  0  0  0  0
  6  1  1  0  0  0  0
  6 15  1  0  0  0  0
  9  2  1  0  0  0  0
 11  4  1  0  0  0  0
 12  4  1  0  0  0  0
 13  5  1  0  0  0  0
 16  6  1  0  0  0  0
 17 18  1  1  0  0  0
 17  3  1  0  0  0  0
 18 23  1  0  0  0  0
 19 25  1  0  0  0  0
 19 18  1  0  0  0  0
 20 19  1  0  0  0  0
 20 26  1  0  0  0  0
 20 21  1  0  0  0  0
 21 17  1  0  0  0  0
 21 28  1  1  0  0  0
 22 18  1  0  0  0  0
 24 19  1  0  0  0  0
 27 20  1  0  0  0  0
 29 34  1  0  0  0  0
 30 29  2  0  0  0  0
 31 30  1  0  0  0  0
 31 21  1  0  0  0  0
 32 30  1  0  0  0  0
 33 32  1  0  0  0  0
 35 31  1  0  0  0  0
 36 32  1  0  0  0  0
 37 42  1  0  0  0  0
 38 37  2  0  0  0  0
 38 39  1  0  0  0  0
 39 44  1  0  0  0  0
 39 40  2  0  0  0  0
 40 41  1  0  0  0  0
 41 45  1  0  0  0  0
 42 41  2  0  0  0  0
 43 38  1  0  0  0  0
M  END
>  <minimizedAffinity>
-5.4469595

$$$$

 OpenBabel03272507023D

 45 47  0  0  1  0  0  0  0  0999 V2000
   36.4720   25.5070   31.0680 C   0  0  2  0  0  0  0  0  0  0  0  0
   35.7380   24.2860   31.4980 C   0  0  0  0  0  0  0  0  0  0  0  0
   36.6640   23.1780   31.9630 C   0  0  2  0  0  0  0  0  0  0  0  0
   37.6650   22.7960   30.9350 C   0  0  0  0  0  0  0  0  0  0  0  0
   38.2470   23.9780   30.1930 C   0  0  0  0  0  0  0  0  0  0  0  0
   37.9540   25.2760   30.8980 C   0  0  0  0  0  0  0  0  0  0  0  0
   36.1400   25.9150   30.0670 H   0  0  0  0  0  0  0  0  0  0  0  0
   35.0170   24.3820   32.3180 H   0  0  0  0  0  0  0  0  0  0  0  0
   35.1910   23.9290   30.5670 H   0  0  0  0  0  0  0  0  0  0  0  0
   37.2130   23.5900   32.8470 H   0  0  0  0  0  0  0  0  0  0  0  0
   38.5350   22.3340   31.4900 H   0  0  0  0  0  0  0  0  0  0  0  0
   37.3830   22.0730   30.1830 H   0  0  0  0  0  0  0  0  0  0  0  0
   39.3190   23.8850   30.0220 H   0  0  0  0  0  0  0  0  0  0  0  0
   37.7760   24.0570   29.1850 H   0  0  0  0  0  0  0  0  0  0  0  0
   38.3760   26.1010   30.3160 H   0  0  0  0  0  0  0  0  0  0  0  0
   38.4530   25.2460   31.8920 H   0  0  0  0  0  0  0  0  0  0  0  0
   35.9450   22.0300   32.3870 N   0  0  1  0  0  0  0  0  0  0  0  0
   35.4460   21.2290   31.2800 C   0  0  0  0  0  0  0  0  0  0  0  0
   34.6610   20.1690   32.0530 C   0  0  0  0  0  0  0  0  0  0  0  0
   35.6540   19.8750   33.1810 C   0  0  0  0  0  0  0  0  0  0  0  0
   36.5350   21.1370   33.2770 C   0  0  2  0  0  0  0  0  0  0  0  0
   34.7610   21.8290   30.6320 H   0  0  0  0  0  0  0  0  0  0  0  0
   36.2610   20.7400   30.7250 H   0  0  0  0  0  0  0  0  0  0  0  0
   33.7550   20.6700   32.4500 H   0  0  0  0  0  0  0  0  0  0  0  0
   34.4530   19.2880   31.4410 H   0  0  0  0  0  0  0  0  0  0  0  0
   36.2400   18.9810   32.9000 H   0  0  0  0  0  0  0  0  0  0  0  0
   35.0400   19.7150   34.0700 H   0  0  0  0  0  0  0  0  0  0  0  0
   37.5380   20.8310   32.9690 H   0  0  0  0  0  0  0  0  0  0  0  0
   38.9510   22.1500   34.4820 N   0  0  0  0  0  0  0  0  0  0  0  0
   37.8490   21.8280   35.1030 C   0  0  0  0  0  0  0  0  0  0  0  0
   36.5170   21.4640   34.6840 N   0  0  0  0  0  0  0  0  0  0  0  0
   38.4490   21.9750   36.3850 N   0  0  0  0  0  0  0  0  0  0  0  0
   38.2690   22.9030   36.8730 H   0  0  0  0  0  0  0  0  0  0  0  0
   39.0660   22.2060   33.4640 H   0  0  0  0  0  0  0  0  0  0  0  0
   36.0220   21.5760   35.5950 H   0  0  0  0  0  0  0  0  0  0  0  0
   39.0520   21.2910   36.9320 H   0  0  0  0  0  0  0  0  0  0  0  0
   36.3120   26.6370   32.0130 C   0  0  0  0  0  0  0  0  0  0  0  0
   37.0830   26.5230   33.1730 C   0  0  0  0  0  0  0  0  0  0  0  0
   36.9760   27.5820   34.1000 C   0  0  0  0  0  0  0  0  0  0  0  0
   36.1410   28.6450   33.8240 N   0  0  0  0  0  0  0  0  0  0  0  0
   35.4130   28.7000   32.6750 C   0  0  0  0  0  0  0  0  0  0  0  0
   35.5130   27.7090   31.8070 N   0  0  0  0  0  0  0  0  0  0  0  0
   37.7710   25.8480   33.6370 H   0  0  0  0  0  0  0  0  0  0  0  0
   37.4590   27.7310   35.0530 H   0  0  0  0  0  0  0  0  0  0  0  0
   34.7690   29.5460   32.4910 H   0  0  0  0  0  0  0  0  0  0  0  0
  1  7  1  6  0  0  0
  1  2  1  0  0  0  0
  1 37  1  0  0  0  0
  2  3  1  0  0  0  0
  2  8  1  0  0  0  0
  3 17  1  0  0  0  0
  3 10  1  1  0  0  0
  4 11  1  0  0  0  0
  4  3  1  0  0  0  0
  5  6  1  0  0  0  0
  5  4  1  0  0  0  0
  6  1  1  0  0  0  0
  6 16  1  0  0  0  0
  9  2  1  0  0  0  0
 12  4  1  0  0  0  0
 13  5  1  0  0  0  0
 14  5  1  0  0  0  0
 15  6  1  0  0  0  0
 17 18  1  6  0  0  0
 17 21  1  0  0  0  0
 18 19  1  0  0  0  0
 19 24  1  0  0  0  0
 19 20  1  0  0  0  0
 20 21  1  0  0  0  0
 20 27  1  0  0  0  0
 21 28  1  6  0  0  0
 21 31  1  0  0  0  0
 22 18  1  0  0  0  0
 23 18  1  0  0  0  0
 25 19  1  0  0  0  0
 26 20  1  0  0  0  0
 29 30  2  0  0  0  0
 30 32  1  0  0  0  0
 31 30  1  0  0  0  0
 31 35  1  0  0  0  0
 32 33  1  0  0  0  0
 32 36  1  0  0  0  0
 34 29  1  0  0  0  0
 37 38  1  0  0  0  0
 38 43  1  0  0  0  0
 38 39  2  0  0  0  0
 39 44  1  0  0  0  0
 40 39  1  0  0  0  0
 41 40  2  0  0  0  0
 42 37  2  0  0  0  0
 42 41  1  0  0  0  0
 45 41  1  0  0  0  0
M  END
>  <minimizedAffinity>
-5.43470573

$$$$

 OpenBabel03272507023D

 45 47  0  0  1  0  0  0  0  0999 V2000
   37.8450   25.1470   35.4530 C   0  0  2  0  0  0  0  0  0  0  0  0
   38.1280   24.8970   34.0130 C   0  0  0  0  0  0  0  0  0  0  0  0
   38.8940   26.0340   33.3610 C   0  0  2  0  0  0  0  0  0  0  0  0
   38.2050   27.3420   33.4930 C   0  0  0  0  0  0  0  0  0  0  0  0
   37.5830   27.5610   34.8540 C   0  0  0  0  0  0  0  0  0  0  0  0
   38.1020   26.5750   35.8670 C   0  0  0  0  0  0  0  0  0  0  0  0
   36.7690   24.9630   35.7480 H   0  0  0  0  0  0  0  0  0  0  0  0
   38.7120   24.0080   33.7510 H   0  0  0  0  0  0  0  0  0  0  0  0
   37.1060   24.8250   33.5200 H   0  0  0  0  0  0  0  0  0  0  0  0
   39.8690   26.0970   33.9070 H   0  0  0  0  0  0  0  0  0  0  0  0
   39.0030   28.1360   33.3980 H   0  0  0  0  0  0  0  0  0  0  0  0
   37.4480   27.6030   32.7670 H   0  0  0  0  0  0  0  0  0  0  0  0
   37.7180   28.5760   35.2230 H   0  0  0  0  0  0  0  0  0  0  0  0
   36.4810   27.3950   34.7930 H   0  0  0  0  0  0  0  0  0  0  0  0
   37.6110   26.7580   36.8270 H   0  0  0  0  0  0  0  0  0  0  0  0
   39.1950   26.7480   35.9840 H   0  0  0  0  0  0  0  0  0  0  0  0
   39.1710   25.7700   31.9940 N   0  0  1  0  0  0  0  0  0  0  0  0
   40.4350   25.0800   31.7920 C   0  0  0  0  0  0  0  0  0  0  0  0
   40.4750   25.0450   30.2640 C   0  0  0  0  0  0  0  0  0  0  0  0
   39.0240   24.6570   29.9700 C   0  0  0  0  0  0  0  0  0  0  0  0
   38.2320   25.0960   31.2180 C   0  0  2  0  0  0  0  0  0  0  0  0
   41.2860   25.6840   32.1920 H   0  0  0  0  0  0  0  0  0  0  0  0
   40.4090   24.0490   32.1750 H   0  0  0  0  0  0  0  0  0  0  0  0
   40.6790   26.0810   29.9260 H   0  0  0  0  0  0  0  0  0  0  0  0
   41.1880   24.3040   29.8910 H   0  0  0  0  0  0  0  0  0  0  0  0
   38.9840   23.5620   29.8170 H   0  0  0  0  0  0  0  0  0  0  0  0
   38.7520   25.2170   29.0740 H   0  0  0  0  0  0  0  0  0  0  0  0
   37.8740   24.1760   31.6900 H   0  0  0  0  0  0  0  0  0  0  0  0
   35.5590   24.0930   31.6230 N   0  0  0  0  0  0  0  0  0  0  0  0
   35.9030   25.1110   30.8820 C   0  0  0  0  0  0  0  0  0  0  0  0
   37.1250   25.8500   30.6780 N   0  0  0  0  0  0  0  0  0  0  0  0
   34.5960   25.2420   30.3360 N   0  0  0  0  0  0  0  0  0  0  0  0
   33.9790   25.9790   30.7910 H   0  0  0  0  0  0  0  0  0  0  0  0
   36.1800   23.5860   32.2630 H   0  0  0  0  0  0  0  0  0  0  0  0
   36.7330   26.6860   30.1920 H   0  0  0  0  0  0  0  0  0  0  0  0
   34.1410   24.7100   29.5350 H   0  0  0  0  0  0  0  0  0  0  0  0
   38.6410   24.2810   36.3540 C   0  0  0  0  0  0  0  0  0  0  0  0
   38.1250   24.1770   37.6480 C   0  0  0  0  0  0  0  0  0  0  0  0
   38.8410   23.3530   38.5420 C   0  0  0  0  0  0  0  0  0  0  0  0
   39.9810   22.7080   38.1070 N   0  0  0  0  0  0  0  0  0  0  0  0
   40.4350   22.8480   36.8330 C   0  0  0  0  0  0  0  0  0  0  0  0
   39.7660   23.6200   35.9960 N   0  0  0  0  0  0  0  0  0  0  0  0
   37.3150   24.5490   38.2400 H   0  0  0  0  0  0  0  0  0  0  0  0
   38.6530   23.1110   39.5760 H   0  0  0  0  0  0  0  0  0  0  0  0
   41.3320   22.3300   36.5250 H   0  0  0  0  0  0  0  0  0  0  0  0
  1  7  1  1  0  0  0
  1  6  1  0  0  0  0
  1 37  1  0  0  0  0
  2  1  1  0  0  0  0
  3  4  1  0  0  0  0
  3 10  1  1  0  0  0
  3  2  1  0  0  0  0
  4  5  1  0  0  0  0
  5 13  1  0  0  0  0
  5  6  1  0  0  0  0
  6 16  1  0  0  0  0
  6 15  1  0  0  0  0
  8  2  1  0  0  0  0
  9  2  1  0  0  0  0
 11  4  1  0  0  0  0
 12  4  1  0  0  0  0
 14  5  1  0  0  0  0
 17 18  1  1  0  0  0
 17  3  1  0  0  0  0
 18 23  1  0  0  0  0
 18 22  1  0  0  0  0
 19 18  1  0  0  0  0
 20 19  1  0  0  0  0
 20 21  1  0  0  0  0
 21 28  1  1  0  0  0
 21 17  1  0  0  0  0
 24 19  1  0  0  0  0
 25 19  1  0  0  0  0
 26 20  1  0  0  0  0
 27 20  1  0  0  0  0
 29 34  1  0  0  0  0
 30 29  2  0  0  0  0
 31 30  1  0  0  0  0
 31 21  1  0  0  0  0
 32 33  1  0  0  0  0
 32 30  1  0  0  0  0
 35 31  1  0  0  0  0
 36 32  1  0  0  0  0
 37 38  1  0  0  0  0
 38 43  1  0  0  0  0
 38 39  2  0  0  0  0
 39 44  1  0  0  0  0
 40 39  1  0  0  0  0
 41 40  2  0  0  0  0
 42 37  2  0  0  0  0
 42 41  1  0  0  0  0
 45 41  1  0  0  0  0
M  END
>  <minimizedAffinity>
-5.37397671

$$$$

 OpenBabel03272507023D

 45 47  0  0  1  0  0  0  0  0999 V2000
   39.0450   25.5780   32.3980 C   0  0  2  0  0  0  0  0  0  0  0  0
   39.7210   24.4570   33.1070 C   0  0  0  0  0  0  0  0  0  0  0  0
   39.8730   24.7110   34.5950 C   0  0  2  0  0  0  0  0  0  0  0  0
   40.5990   25.9710   34.8930 C   0  0  0  0  0  0  0  0  0  0  0  0
   40.2100   27.1180   33.9880 C   0  0  0  0  0  0  0  0  0  0  0  0
   38.9370   26.8270   33.2370 C   0  0  0  0  0  0  0  0  0  0  0  0
   39.5790   25.9190   31.4630 H   0  0  0  0  0  0  0  0  0  0  0  0
   39.2570   23.4650   33.0600 H   0  0  0  0  0  0  0  0  0  0  0  0
   40.7590   24.4010   32.6460 H   0  0  0  0  0  0  0  0  0  0  0  0
   38.8320   24.8060   34.9960 H   0  0  0  0  0  0  0  0  0  0  0  0
   40.2800   26.2870   35.9300 H   0  0  0  0  0  0  0  0  0  0  0  0
   41.6790   25.9520   34.9130 H   0  0  0  0  0  0  0  0  0  0  0  0
   40.1190   28.0650   34.5180 H   0  0  0  0  0  0  0  0  0  0  0  0
   41.0000   27.2690   33.2140 H   0  0  0  0  0  0  0  0  0  0  0  0
   38.7070   27.6740   32.5840 H   0  0  0  0  0  0  0  0  0  0  0  0
   38.1190   26.7180   33.9830 H   0  0  0  0  0  0  0  0  0  0  0  0
   40.5020   23.6230   35.2560 N   0  0  1  0  0  0  0  0  0  0  0  0
   41.9530   23.7240   35.2660 C   0  0  0  0  0  0  0  0  0  0  0  0
   42.3050   22.3960   35.9350 C   0  0  0  0  0  0  0  0  0  0  0  0
   41.2590   22.3770   37.0530 C   0  0  0  0  0  0  0  0  0  0  0  0
   40.1260   23.2960   36.5560 C   0  0  2  0  0  0  0  0  0  0  0  0
   42.3560   23.7580   34.2250 H   0  0  0  0  0  0  0  0  0  0  0  0
   42.3040   24.5520   35.9010 H   0  0  0  0  0  0  0  0  0  0  0  0
   42.0990   21.6000   35.1920 H   0  0  0  0  0  0  0  0  0  0  0  0
   43.3280   22.3920   36.3220 H   0  0  0  0  0  0  0  0  0  0  0  0
   41.7330   22.7630   37.9750 H   0  0  0  0  0  0  0  0  0  0  0  0
   40.9530   21.3330   37.1420 H   0  0  0  0  0  0  0  0  0  0  0  0
   40.1200   24.1600   37.2260 H   0  0  0  0  0  0  0  0  0  0  0  0
   38.2160   24.1400   38.5440 N   0  0  0  0  0  0  0  0  0  0  0  0
   38.1860   23.0290   37.8610 C   0  0  0  0  0  0  0  0  0  0  0  0
   38.9320   22.5050   36.7430 N   0  0  0  0  0  0  0  0  0  0  0  0
   37.1130   22.5030   38.6340 N   0  0  0  0  0  0  0  0  0  0  0  0
   36.1450   22.6090   38.2080 H   0  0  0  0  0  0  0  0  0  0  0  0
   38.8550   24.9250   38.3770 H   0  0  0  0  0  0  0  0  0  0  0  0
   38.3030   21.7150   36.4810 H   0  0  0  0  0  0  0  0  0  0  0  0
   37.1360   22.0160   39.5790 H   0  0  0  0  0  0  0  0  0  0  0  0
   37.6760   25.2330   31.9510 C   0  0  0  0  0  0  0  0  0  0  0  0
   37.4000   23.8630   31.9640 C   0  0  0  0  0  0  0  0  0  0  0  0
   36.1020   23.4820   31.5590 C   0  0  0  0  0  0  0  0  0  0  0  0
   35.1970   24.4530   31.1810 N   0  0  0  0  0  0  0  0  0  0  0  0
   35.5240   25.7740   31.1880 C   0  0  0  0  0  0  0  0  0  0  0  0
   36.7380   26.1300   31.5680 N   0  0  0  0  0  0  0  0  0  0  0  0
   37.8800   22.9320   32.1830 H   0  0  0  0  0  0  0  0  0  0  0  0
   35.6490   22.5070   31.4830 H   0  0  0  0  0  0  0  0  0  0  0  0
   34.7920   26.5070   30.8860 H   0  0  0  0  0  0  0  0  0  0  0  0
  1  7  1  6  0  0  0
  1  2  1  0  0  0  0
  1  6  1  0  0  0  0
  2  3  1  0  0  0  0
  3  4  1  0  0  0  0
  3 10  1  1  0  0  0
  3 17  1  0  0  0  0
  4 12  1  0  0  0  0
  4 11  1  0  0  0  0
  5 13  1  0  0  0  0
  5  4  1  0  0  0  0
  6 16  1  0  0  0  0
  6  5  1  0  0  0  0
  8  2  1  0  0  0  0
  9  2  1  0  0  0  0
 14  5  1  0  0  0  0
 15  6  1  0  0  0  0
 17 18  1  1  0  0  0
 17 21  1  0  0  0  0
 18 23  1  0  0  0  0
 18 19  1  0  0  0  0
 19 25  1  0  0  0  0
 19 20  1  0  0  0  0
 20 27  1  0  0  0  0
 20 26  1  0  0  0  0
 21 31  1  0  0  0  0
 21 20  1  0  0  0  0
 21 28  1  1  0  0  0
 22 18  1  0  0  0  0
 24 19  1  0  0  0  0
 30 29  2  0  0  0  0
 30 32  1  0  0  0  0
 31 30  1  0  0  0  0
 32 36  1  0  0  0  0
 33 32  1  0  0  0  0
 34 29  1  0  0  0  0
 35 31  1  0  0  0  0
 37 38  1  0  0  0  0
 37  1  1  0  0  0  0
 38 43  1  0  0  0  0
 39 38  2  0  0  0  0
 40 41  2  0  0  0  0
 40 39  1  0  0  0  0
 41 42  1  0  0  0  0
 42 37  2  0  0  0  0
 44 39  1  0  0  0  0
 45 41  1  0  0  0  0
M  END
>  <minimizedAffinity>
-5.28817511

$$$$

 OpenBabel03272507023D

 45 47  0  0  1  0  0  0  0  0999 V2000
   38.1950   27.4220   33.8480 C   0  0  2  0  0  0  0  0  0  0  0  0
   38.4340   25.9960   33.4960 C   0  0  0  0  0  0  0  0  0  0  0  0
   37.8600   25.0350   34.5210 C   0  0  2  0  0  0  0  0  0  0  0  0
   38.3740   25.2810   35.8920 C   0  0  0  0  0  0  0  0  0  0  0  0
   38.4810   26.7480   36.2400 C   0  0  0  0  0  0  0  0  0  0  0  0
   37.7170   27.6080   35.2680 C   0  0  0  0  0  0  0  0  0  0  0  0
   39.1160   28.0730   33.7800 H   0  0  0  0  0  0  0  0  0  0  0  0
   38.0350   25.6270   32.5450 H   0  0  0  0  0  0  0  0  0  0  0  0
   39.5650   25.8800   33.4910 H   0  0  0  0  0  0  0  0  0  0  0  0
   36.7560   25.2170   34.5250 H   0  0  0  0  0  0  0  0  0  0  0  0
   37.6030   24.8610   36.6040 H   0  0  0  0  0  0  0  0  0  0  0  0
   39.3130   24.8300   36.1800 H   0  0  0  0  0  0  0  0  0  0  0  0
   38.1610   26.9670   37.2580 H   0  0  0  0  0  0  0  0  0  0  0  0
   39.5470   27.0730   36.1720 H   0  0  0  0  0  0  0  0  0  0  0  0
   37.8390   28.6580   35.5480 H   0  0  0  0  0  0  0  0  0  0  0  0
   36.6400   27.3390   35.3470 H   0  0  0  0  0  0  0  0  0  0  0  0
   38.0820   23.6800   34.1590 N   0  0  1  0  0  0  0  0  0  0  0  0
   38.1960   23.4860   32.7220 C   0  0  0  0  0  0  0  0  0  0  0  0
   38.3200   21.9630   32.6700 C   0  0  0  0  0  0  0  0  0  0  0  0
   39.2960   21.7380   33.8280 C   0  0  0  0  0  0  0  0  0  0  0  0
   39.1380   22.9770   34.7310 C   0  0  2  0  0  0  0  0  0  0  0  0
   37.2660   23.8210   32.2000 H   0  0  0  0  0  0  0  0  0  0  0  0
   39.1150   23.9360   32.3170 H   0  0  0  0  0  0  0  0  0  0  0  0
   37.3200   21.5530   32.9160 H   0  0  0  0  0  0  0  0  0  0  0  0
   38.7220   21.6180   31.7130 H   0  0  0  0  0  0  0  0  0  0  0  0
   40.3160   21.6570   33.4090 H   0  0  0  0  0  0  0  0  0  0  0  0
   38.9640   20.8150   34.3090 H   0  0  0  0  0  0  0  0  0  0  0  0
   40.0870   23.5170   34.6740 H   0  0  0  0  0  0  0  0  0  0  0  0
   41.4130   22.8450   36.4980 N   0  0  0  0  0  0  0  0  0  0  0  0
   40.2310   22.3340   36.7140 C   0  0  0  0  0  0  0  0  0  0  0  0
   38.9520   22.4220   36.0520 N   0  0  0  0  0  0  0  0  0  0  0  0
   40.6670   21.6440   37.8790 N   0  0  0  0  0  0  0  0  0  0  0  0
   40.4570   22.1260   38.8040 H   0  0  0  0  0  0  0  0  0  0  0  0
   41.6580   23.4730   35.7240 H   0  0  0  0  0  0  0  0  0  0  0  0
   38.3480   22.0300   36.8070 H   0  0  0  0  0  0  0  0  0  0  0  0
   41.1740   20.7130   37.9630 H   0  0  0  0  0  0  0  0  0  0  0  0
   37.2010   28.0730   32.9640 C   0  0  0  0  0  0  0  0  0  0  0  0
   36.0690   28.5490   33.6320 C   0  0  0  0  0  0  0  0  0  0  0  0
   35.0960   29.1900   32.8350 C   0  0  0  0  0  0  0  0  0  0  0  0
   35.3050   29.3120   31.4760 N   0  0  0  0  0  0  0  0  0  0  0  0
   36.4290   28.8280   30.8820 C   0  0  0  0  0  0  0  0  0  0  0  0
   37.3390   28.2280   31.6270 N   0  0  0  0  0  0  0  0  0  0  0  0
   35.6520   28.5840   34.6170 H   0  0  0  0  0  0  0  0  0  0  0  0
   34.1520   29.6360   33.1050 H   0  0  0  0  0  0  0  0  0  0  0  0
   36.5590   28.9400   29.8160 H   0  0  0  0  0  0  0  0  0  0  0  0
  1  7  1  6  0  0  0
  1  6  1  0  0  0  0
  2  1  1  0  0  0  0
  2  3  1  0  0  0  0
  3 10  1  1  0  0  0
  3  4  1  0  0  0  0
  4 12  1  0  0  0  0
  4  5  1  0  0  0  0
  4 11  1  0  0  0  0
  5 13  1  0  0  0  0
  6 16  1  0  0  0  0
  6 15  1  0  0  0  0
  6  5  1  0  0  0  0
  8  2  1  0  0  0  0
  9  2  1  0  0  0  0
 14  5  1  0  0  0  0
 17 18  1  6  0  0  0
 17  3  1  0  0  0  0
 17 21  1  0  0  0  0
 19 18  1  0  0  0  0
 19 24  1  0  0  0  0
 19 20  1  0  0  0  0
 20 27  1  0  0  0  0
 20 21  1  0  0  0  0
 21 28  1  6  0  0  0
 21 31  1  0  0  0  0
 22 18  1  0  0  0  0
 23 18  1  0  0  0  0
 25 19  1  0  0  0  0
 26 20  1  0  0  0  0
 29 30  2  0  0  0  0
 30 32  1  0  0  0  0
 31 30  1  0  0  0  0
 31 35  1  0  0  0  0
 32 36  1  0  0  0  0
 32 33  1  0  0  0  0
 34 29  1  0  0  0  0
 37 38  1  0  0  0  0
 37  1  1  0  0  0  0
 38 43  1  0  0  0  0
 39 44  1  0  0  0  0
 39 38  2  0  0  0  0
 40 39  1  0  0  0  0
 41 40  2  0  0  0  0
 41 42  1  0  0  0  0
 42 37  2  0  0  0  0
 45 41  1  0  0  0  0
M  END
>  <minimizedAffinity>
-5.28215075

$$$$

 OpenBabel03272507023D

 45 47  0  0  1  0  0  0  0  0999 V2000
   38.8360   22.4590   34.4800 C   0  0  2  0  0  0  0  0  0  0  0  0
   39.2560   23.6360   33.6730 C   0  0  0  0  0  0  0  0  0  0  0  0
   38.1100   24.2490   32.8890 C   0  0  2  0  0  0  0  0  0  0  0  0
   37.4360   23.2730   31.9960 C   0  0  0  0  0  0  0  0  0  0  0  0
   37.2510   21.9100   32.6250 C   0  0  0  0  0  0  0  0  0  0  0  0
   37.4620   21.9520   34.1160 C   0  0  0  0  0  0  0  0  0  0  0  0
   39.5050   21.5560   34.3590 H   0  0  0  0  0  0  0  0  0  0  0  0
   39.6950   24.4910   34.1990 H   0  0  0  0  0  0  0  0  0  0  0  0
   40.0170   23.2290   32.9320 H   0  0  0  0  0  0  0  0  0  0  0  0
   37.3670   24.5920   33.6540 H   0  0  0  0  0  0  0  0  0  0  0  0
   36.3910   23.6660   31.8220 H   0  0  0  0  0  0  0  0  0  0  0  0
   37.8500   23.1010   31.0140 H   0  0  0  0  0  0  0  0  0  0  0  0
   36.2810   21.4680   32.4020 H   0  0  0  0  0  0  0  0  0  0  0  0
   38.0150   21.2040   32.2220 H   0  0  0  0  0  0  0  0  0  0  0  0
   37.3380   20.9440   34.5220 H   0  0  0  0  0  0  0  0  0  0  0  0
   36.6820   22.6140   34.5530 H   0  0  0  0  0  0  0  0  0  0  0  0
   38.5250   25.3810   32.1400 N   0  0  1  0  0  0  0  0  0  0  0  0
   38.0850   25.3410   30.7550 C   0  0  0  0  0  0  0  0  0  0  0  0
   38.7630   26.6050   30.2250 C   0  0  0  0  0  0  0  0  0  0  0  0
   38.4690   27.5660   31.3800 C   0  0  0  0  0  0  0  0  0  0  0  0
   38.2320   26.6600   32.6040 C   0  0  2  0  0  0  0  0  0  0  0  0
   38.4850   24.4350   30.2360 H   0  0  0  0  0  0  0  0  0  0  0  0
   36.9940   25.4540   30.6650 H   0  0  0  0  0  0  0  0  0  0  0  0
   39.8480   26.3840   30.1670 H   0  0  0  0  0  0  0  0  0  0  0  0
   38.3240   26.9390   29.2820 H   0  0  0  0  0  0  0  0  0  0  0  0
   37.5700   28.1540   31.1180 H   0  0  0  0  0  0  0  0  0  0  0  0
   39.3640   28.1850   31.4740 H   0  0  0  0  0  0  0  0  0  0  0  0
   37.1800   26.7820   32.8740 H   0  0  0  0  0  0  0  0  0  0  0  0
   37.4670   26.3400   35.3660 N   0  0  0  0  0  0  0  0  0  0  0  0
   38.4540   27.0640   34.9120 C   0  0  0  0  0  0  0  0  0  0  0  0
   39.0830   27.2280   33.6240 N   0  0  0  0  0  0  0  0  0  0  0  0
   38.7020   27.6480   36.1860 N   0  0  0  0  0  0  0  0  0  0  0  0
   39.4890   27.2060   36.7490 H   0  0  0  0  0  0  0  0  0  0  0  0
   36.9060   25.6850   34.8120 H   0  0  0  0  0  0  0  0  0  0  0  0
   39.9520   27.7200   33.9260 H   0  0  0  0  0  0  0  0  0  0  0  0
   38.2150   28.4650   36.6620 H   0  0  0  0  0  0  0  0  0  0  0  0
   38.8280   22.7350   35.9360 C   0  0  0  0  0  0  0  0  0  0  0  0
   40.0280   22.4250   36.5820 C   0  0  0  0  0  0  0  0  0  0  0  0
   40.0750   22.6810   37.9690 C   0  0  0  0  0  0  0  0  0  0  0  0
   38.9680   23.2100   38.6000 N   0  0  0  0  0  0  0  0  0  0  0  0
   37.8260   23.4920   37.9170 C   0  0  0  0  0  0  0  0  0  0  0  0
   37.7810   23.2520   36.6190 N   0  0  0  0  0  0  0  0  0  0  0  0
   40.9930   22.0160   36.3670 H   0  0  0  0  0  0  0  0  0  0  0  0
   40.8700   22.5330   38.6820 H   0  0  0  0  0  0  0  0  0  0  0  0
   36.9770   23.9040   38.4430 H   0  0  0  0  0  0  0  0  0  0  0  0
  1  7  1  6  0  0  0
  1 37  1  0  0  0  0
  2  8  1  0  0  0  0
  2  1  1  0  0  0  0
  3 10  1  1  0  0  0
  3  2  1  0  0  0  0
  4  5  1  0  0  0  0
  4  3  1  0  0  0  0
  5  6  1  0  0  0  0
  6  1  1  0  0  0  0
  6 15  1  0  0  0  0
  6 16  1  0  0  0  0
  9  2  1  0  0  0  0
 11  4  1  0  0  0  0
 12  4  1  0  0  0  0
 13  5  1  0  0  0  0
 14  5  1  0  0  0  0
 17 18  1  6  0  0  0
 17 21  1  0  0  0  0
 17  3  1  0  0  0  0
 19 18  1  0  0  0  0
 19 20  1  0  0  0  0
 20 27  1  0  0  0  0
 20 21  1  0  0  0  0
 21 28  1  1  0  0  0
 21 31  1  0  0  0  0
 22 18  1  0  0  0  0
 23 18  1  0  0  0  0
 24 19  1  0  0  0  0
 25 19  1  0  0  0  0
 26 20  1  0  0  0  0
 30 29  2  0  0  0  0
 30 32  1  0  0  0  0
 31 35  1  0  0  0  0
 31 30  1  0  0  0  0
 32 36  1  0  0  0  0
 32 33  1  0  0  0  0
 34 29  1  0  0  0  0
 37 38  2  0  0  0  0
 37 42  1  0  0  0  0
 38 39  1  0  0  0  0
 39 40  2  0  0  0  0
 39 44  1  0  0  0  0
 41 45  1  0  0  0  0
 41 40  1  0  0  0  0
 42 41  2  0  0  0  0
 43 38  1  0  0  0  0
M  END
>  <minimizedAffinity>
-5.27415705

$$$$

 OpenBabel03272507023D

 45 47  0  0  1  0  0  0  0  0999 V2000
   39.7080   25.7430   34.9900 C   0  0  2  0  0  0  0  0  0  0  0  0
   38.8870   25.1640   33.8920 C   0  0  0  0  0  0  0  0  0  0  0  0
   38.0170   26.2000   33.2020 C   0  0  2  0  0  0  0  0  0  0  0  0
   37.1210   26.9170   34.1430 C   0  0  0  0  0  0  0  0  0  0  0  0
   37.7840   27.2710   35.4560 C   0  0  0  0  0  0  0  0  0  0  0  0
   39.2820   27.1380   35.3750 C   0  0  0  0  0  0  0  0  0  0  0  0
   39.6570   25.1610   35.9580 H   0  0  0  0  0  0  0  0  0  0  0  0
   39.4080   24.6720   33.0640 H   0  0  0  0  0  0  0  0  0  0  0  0
   38.2070   24.4080   34.4010 H   0  0  0  0  0  0  0  0  0  0  0  0
   38.7250   26.9450   32.7590 H   0  0  0  0  0  0  0  0  0  0  0  0
   36.8730   27.9070   33.6580 H   0  0  0  0  0  0  0  0  0  0  0  0
   36.1700   26.4700   34.3940 H   0  0  0  0  0  0  0  0  0  0  0  0
   37.5200   28.2660   35.8100 H   0  0  0  0  0  0  0  0  0  0  0  0
   37.4500   26.5590   36.2480 H   0  0  0  0  0  0  0  0  0  0  0  0
   39.7150   27.3840   36.3490 H   0  0  0  0  0  0  0  0  0  0  0  0
   39.6500   27.8720   34.6230 H   0  0  0  0  0  0  0  0  0  0  0  0
   37.2560   25.6340   32.1470 N   0  0  1  0  0  0  0  0  0  0  0  0
   36.6340   24.3690   32.5080 C   0  0  0  0  0  0  0  0  0  0  0  0
   36.0010   23.9940   31.1670 C   0  0  0  0  0  0  0  0  0  0  0  0
   35.4270   25.3530   30.7570 C   0  0  0  0  0  0  0  0  0  0  0  0
   36.2660   26.3910   31.5280 C   0  0  2  0  0  0  0  0  0  0  0  0
   37.4050   23.6160   32.8010 H   0  0  0  0  0  0  0  0  0  0  0  0
   35.8380   24.5000   33.2570 H   0  0  0  0  0  0  0  0  0  0  0  0
   36.8310   23.7000   30.4940 H   0  0  0  0  0  0  0  0  0  0  0  0
   35.2260   23.2310   31.2810 H   0  0  0  0  0  0  0  0  0  0  0  0
   34.3610   25.3790   31.0500 H   0  0  0  0  0  0  0  0  0  0  0  0
   35.5680   25.4090   29.6750 H   0  0  0  0  0  0  0  0  0  0  0  0
   35.5840   26.8620   32.2420 H   0  0  0  0  0  0  0  0  0  0  0  0
   35.6810   29.1840   31.9450 N   0  0  0  0  0  0  0  0  0  0  0  0
   36.1670   28.6460   30.8600 C   0  0  0  0  0  0  0  0  0  0  0  0
   36.6650   27.3370   30.5120 N   0  0  0  0  0  0  0  0  0  0  0  0
   36.0330   29.8530   30.1190 N   0  0  0  0  0  0  0  0  0  0  0  0
   36.9150   30.4420   30.0360 H   0  0  0  0  0  0  0  0  0  0  0  0
   35.5580   28.7050   32.8440 H   0  0  0  0  0  0  0  0  0  0  0  0
   37.1440   27.5750   29.6160 H   0  0  0  0  0  0  0  0  0  0  0  0
   35.1780   30.2570   29.6330 H   0  0  0  0  0  0  0  0  0  0  0  0
   41.1510   25.8030   34.6570 C   0  0  0  0  0  0  0  0  0  0  0  0
   41.5330   26.9680   33.9860 C   0  0  0  0  0  0  0  0  0  0  0  0
   42.9010   27.0800   33.6570 C   0  0  0  0  0  0  0  0  0  0  0  0
   43.7680   26.0650   34.0050 N   0  0  0  0  0  0  0  0  0  0  0  0
   43.3370   24.9520   34.6590 C   0  0  0  0  0  0  0  0  0  0  0  0
   42.0570   24.8470   34.9660 N   0  0  0  0  0  0  0  0  0  0  0  0
   41.1040   27.8680   33.5960 H   0  0  0  0  0  0  0  0  0  0  0  0
   43.4380   27.8660   33.1510 H   0  0  0  0  0  0  0  0  0  0  0  0
   44.0430   24.1760   34.9150 H   0  0  0  0  0  0  0  0  0  0  0  0
  1  6  1  0  0  0  0
  1  7  1  1  0  0  0
  2  9  1  0  0  0  0
  2  1  1  0  0  0  0
  3 10  1  6  0  0  0
  3  2  1  0  0  0  0
  3  4  1  0  0  0  0
  4 12  1  0  0  0  0
  4  5  1  0  0  0  0
  5 13  1  0  0  0  0
  5 14  1  0  0  0  0
  6  5  1  0  0  0  0
  6 15  1  0  0  0  0
  8  2  1  0  0  0  0
 11  4  1  0  0  0  0
 16  6  1  0  0  0  0
 17 18  1  1  0  0  0
 17  3  1  0  0  0  0
 18 22  1  0  0  0  0
 18 23  1  0  0  0  0
 19 25  1  0  0  0  0
 19 18  1  0  0  0  0
 20 26  1  0  0  0  0
 20 19  1  0  0  0  0
 20 21  1  0  0  0  0
 21 17  1  0  0  0  0
 21 28  1  1  0  0  0
 24 19  1  0  0  0  0
 27 20  1  0  0  0  0
 29 34  1  0  0  0  0
 30 29  2  0  0  0  0
 31 30  1  0  0  0  0
 31 21  1  0  0  0  0
 32 30  1  0  0  0  0
 33 32  1  0  0  0  0
 35 31  1  0  0  0  0
 36 32  1  0  0  0  0
 37 42  1  0  0  0  0
 37  1  1  0  0  0  0
 38 37  2  0  0  0  0
 39 38  1  0  0  0  0
 39 40  2  0  0  0  0
 40 41  1  0  0  0  0
 41 45  1  0  0  0  0
 41 42  2  0  0  0  0
 43 38  1  0  0  0  0
 44 39  1  0  0  0  0
M  END
>  <minimizedAffinity>
-5.22464132

$$$$

 OpenBabel03272507023D

 45 47  0  0  1  0  0  0  0  0999 V2000
   37.6210   26.8760   33.0920 C   0  0  2  0  0  0  0  0  0  0  0  0
   39.0580   26.4910   33.0540 C   0  0  0  0  0  0  0  0  0  0  0  0
   39.5520   25.9390   34.3790 C   0  0  2  0  0  0  0  0  0  0  0  0
   39.3390   26.8790   35.5090 C   0  0  0  0  0  0  0  0  0  0  0  0
   38.0030   27.5870   35.4590 C   0  0  0  0  0  0  0  0  0  0  0  0
   37.0580   26.9250   34.4910 C   0  0  0  0  0  0  0  0  0  0  0  0
   37.4100   27.9050   32.6740 H   0  0  0  0  0  0  0  0  0  0  0  0
   39.3680   25.7320   32.3270 H   0  0  0  0  0  0  0  0  0  0  0  0
   39.6160   27.4570   32.8390 H   0  0  0  0  0  0  0  0  0  0  0  0
   38.9440   25.0190   34.5720 H   0  0  0  0  0  0  0  0  0  0  0  0
   39.3090   26.2500   36.4470 H   0  0  0  0  0  0  0  0  0  0  0  0
   40.0810   27.6420   35.6930 H   0  0  0  0  0  0  0  0  0  0  0  0
   37.5310   27.6710   36.4370 H   0  0  0  0  0  0  0  0  0  0  0  0
   38.1460   28.6310   35.0910 H   0  0  0  0  0  0  0  0  0  0  0  0
   36.1160   27.4810   34.4750 H   0  0  0  0  0  0  0  0  0  0  0  0
   36.8600   25.8930   34.8590 H   0  0  0  0  0  0  0  0  0  0  0  0
   40.9180   25.5600   34.3180 N   0  0  1  0  0  0  0  0  0  0  0  0
   41.8210   26.6950   34.2120 C   0  0  0  0  0  0  0  0  0  0  0  0
   43.1530   25.9600   34.0670 C   0  0  0  0  0  0  0  0  0  0  0  0
   42.9740   24.8740   35.1310 C   0  0  0  0  0  0  0  0  0  0  0  0
   41.4480   24.7330   35.3040 C   0  0  2  0  0  0  0  0  0  0  0  0
   41.6010   27.2930   33.2940 H   0  0  0  0  0  0  0  0  0  0  0  0
   41.8390   27.2950   35.1340 H   0  0  0  0  0  0  0  0  0  0  0  0
   43.1640   25.5150   33.0520 H   0  0  0  0  0  0  0  0  0  0  0  0
   44.0050   26.6130   34.2780 H   0  0  0  0  0  0  0  0  0  0  0  0
   43.4670   25.2160   36.0600 H   0  0  0  0  0  0  0  0  0  0  0  0
   43.4400   23.9800   34.7110 H   0  0  0  0  0  0  0  0  0  0  0  0
   41.2240   25.0810   36.3160 H   0  0  0  0  0  0  0  0  0  0  0  0
   39.5820   23.5030   37.1260 N   0  0  0  0  0  0  0  0  0  0  0  0
   40.3570   22.8870   36.2750 C   0  0  0  0  0  0  0  0  0  0  0  0
   41.2190   23.3100   35.1980 N   0  0  0  0  0  0  0  0  0  0  0  0
   40.0310   21.6060   36.8010 N   0  0  0  0  0  0  0  0  0  0  0  0
   39.2820   21.0680   36.2710 H   0  0  0  0  0  0  0  0  0  0  0  0
   39.4390   24.5170   37.1750 H   0  0  0  0  0  0  0  0  0  0  0  0
   41.3620   22.3890   34.7300 H   0  0  0  0  0  0  0  0  0  0  0  0
   40.4280   21.1030   37.6500 H   0  0  0  0  0  0  0  0  0  0  0  0
   36.7590   25.9620   32.3070 C   0  0  0  0  0  0  0  0  0  0  0  0
   37.0860   24.6100   32.4470 C   0  0  0  0  0  0  0  0  0  0  0  0
   36.2860   23.6960   31.7280 C   0  0  0  0  0  0  0  0  0  0  0  0
   35.2510   24.1680   30.9470 N   0  0  0  0  0  0  0  0  0  0  0  0
   34.9810   25.4980   30.8490 C   0  0  0  0  0  0  0  0  0  0  0  0
   35.7300   26.3530   31.5210 N   0  0  0  0  0  0  0  0  0  0  0  0
   37.8000   23.9860   32.9430 H   0  0  0  0  0  0  0  0  0  0  0  0
   36.3310   22.6200   31.6700 H   0  0  0  0  0  0  0  0  0  0  0  0
   34.1640   25.8330   30.2270 H   0  0  0  0  0  0  0  0  0  0  0  0
  1  7  1  6  0  0  0
  1  6  1  0  0  0  0
  2  1  1  0  0  0  0
  2  3  1  0  0  0  0
  3 10  1  1  0  0  0
  3  4  1  0  0  0  0
  4 12  1  0  0  0  0
  4 11  1  0  0  0  0
  5  4  1  0  0  0  0
  5 13  1  0  0  0  0
  6 16  1  0  0  0  0
  6  5  1  0  0  0  0
  8  2  1  0  0  0  0
  9  2  1  0  0  0  0
 14  5  1  0  0  0  0
 15  6  1  0  0  0  0
 17 18  1  1  0  0  0
 17  3  1  0  0  0  0
 17 21  1  0  0  0  0
 18 23  1  0  0  0  0
 19 18  1  0  0  0  0
 19 25  1  0  0  0  0
 19 20  1  0  0  0  0
 20 21  1  0  0  0  0
 20 26  1  0  0  0  0
 21 28  1  1  0  0  0
 22 18  1  0  0  0  0
 24 19  1  0  0  0  0
 27 20  1  0  0  0  0
 29 34  1  0  0  0  0
 30 32  1  0  0  0  0
 30 29  2  0  0  0  0
 31 21  1  0  0  0  0
 31 30  1  0  0  0  0
 32 36  1  0  0  0  0
 33 32  1  0  0  0  0
 35 31  1  0  0  0  0
 37 38  1  0  0  0  0
 37  1  1  0  0  0  0
 38 43  1  0  0  0  0
 39 38  2  0  0  0  0
 40 39  1  0  0  0  0
 41 40  2  0  0  0  0
 41 42  1  0  0  0  0
 42 37  2  0  0  0  0
 44 39  1  0  0  0  0
 45 41  1  0  0  0  0
M  END
>  <minimizedAffinity>
-5.22326899

$$$$
