
 OpenBabel03262521013D

 36 37  0  0  1  0  0  0  0  0999 V2000
   38.0040   30.6270   46.4280 S   0  0  0  0  0  0  0  0  0  0  0  0
   39.5010   32.8880   46.2020 N   0  0  0  0  0  0  0  0  0  0  0  0
   38.2000   32.3740   45.9080 C   0  0  1  0  0  0  0  0  0  0  0  0
   37.9580   32.3890   44.4210 C   0  0  0  0  0  0  0  0  0  0  0  0
   38.9900   31.5650   43.8070 N   0  0  0  0  0  0  0  0  0  0  0  0
   40.2280   32.3380   43.9830 C   0  0  0  0  0  0  0  0  0  0  0  0
   40.5520   32.2540   45.4690 C   0  0  2  0  0  0  0  0  0  0  0  0
   39.6810   33.1060   47.1790 H   0  0  0  0  0  0  0  0  0  0  0  0
   37.4330   32.9870   46.4060 H   0  0  0  0  0  0  0  0  0  0  0  0
   36.9920   31.8740   44.1980 H   0  0  0  0  0  0  0  0  0  0  0  0
   38.0020   33.3980   43.9670 H   0  0  0  0  0  0  0  0  0  0  0  0
   38.7870   31.3510   42.8220 H   0  0  0  0  0  0  0  0  0  0  0  0
   39.9620   33.3820   43.7160 H   0  0  0  0  0  0  0  0  0  0  0  0
   41.0560   31.9310   43.4000 H   0  0  0  0  0  0  0  0  0  0  0  0
   41.4790   32.8300   45.6670 H   0  0  0  0  0  0  0  0  0  0  0  0
   40.7650   30.8630   45.8230 N   0  0  0  0  0  0  0  0  0  0  0  0
   40.7420   30.7030   46.8450 H   0  0  0  0  0  0  0  0  0  0  0  0
   40.2400   30.1890   45.2560 H   0  0  0  0  0  0  0  0  0  0  0  0
   36.1700   31.2190   49.9890 C   0  0  0  0  0  0  0  0  0  0  0  0
   37.0450   31.3880   48.9390 C   0  0  0  0  0  0  0  0  0  0  0  0
   36.9570   30.5460   47.8580 C   0  0  0  0  0  0  0  0  0  0  0  0
   35.9780   29.5570   47.8810 N   0  0  0  0  0  0  0  0  0  0  0  0
   35.1640   29.4500   48.9290 C   0  0  0  0  0  0  0  0  0  0  0  0
   35.2440   30.2660   49.9860 N   0  0  0  0  0  0  0  0  0  0  0  0
   36.2310   31.8880   50.8610 H   0  0  0  0  0  0  0  0  0  0  0  0
   37.7990   32.1520   48.9250 H   0  0  0  0  0  0  0  0  0  0  0  0
   34.1450   28.3960   48.9190 C   0  0  0  0  0  0  0  0  0  0  0  0
   34.2940   27.2970   48.3510 O   0  0  0  0  0  0  0  0  0  0  0  0
   31.6590   27.3380   48.2150 N   0  0  0  0  0  0  0  0  0  0  0  0
   31.6590   28.1240   49.2380 C   0  0  0  0  0  0  0  0  0  0  0  0
   32.9100   28.6700   49.6110 N   0  0  0  0  0  0  0  0  0  0  0  0
   30.4990   28.4550   49.9840 N   0  0  0  0  0  0  0  0  0  0  0  0
   30.4970   29.2840   50.5890 H   0  0  0  0  0  0  0  0  0  0  0  0
   30.7210   26.9390   47.9480 H   0  0  0  0  0  0  0  0  0  0  0  0
   32.9310   29.3100   50.4400 H   0  0  0  0  0  0  0  0  0  0  0  0
   29.6910   27.8340   49.8840 H   0  0  0  0  0  0  0  0  0  0  0  0
  1 21  1  0  0  0  0
  2  8  1  0  0  0  0
  3  2  1  0  0  0  0
  3  9  1  1  0  0  0
  3  1  1  0  0  0  0
  4  3  1  0  0  0  0
  5  6  1  0  0  0  0
  5  4  1  0  0  0  0
  6  7  1  0  0  0  0
  7 15  1  1  0  0  0
  7 16  1  0  0  0  0
  7  2  1  0  0  0  0
 10  4  1  0  0  0  0
 11  4  1  0  0  0  0
 12  5  1  0  0  0  0
 13  6  1  0  0  0  0
 14  6  1  0  0  0  0
 16 17  1  0  0  0  0
 18 16  1  0  0  0  0
 19 25  1  0  0  0  0
 20 19  2  0  0  0  0
 21 22  2  0  0  0  0
 21 20  1  0  0  0  0
 22 23  1  0  0  0  0
 23 24  2  0  0  0  0
 24 19  1  0  0  0  0
 26 20  1  0  0  0  0
 27 23  1  0  0  0  0
 27 31  1  0  0  0  0
 28 27  2  0  0  0  0
 29 30  2  0  0  0  0
 30 31  1  0  0  0  0
 30 32  1  0  0  0  0
 31 35  1  0  0  0  0
 32 33  1  0  0  0  0
 34 29  1  0  0  0  0
 36 32  1  0  0  0  0
M  END
>  <minimizedAffinity>
-5.85540485

>  <minimizedRMSD>
1.51233423

$$$$
