
 OpenBabel03262521013D

 36 37  0  0  1  0  0  0  0  0999 V2000
   37.1680   30.4340   44.0410 S   0  0  0  0  0  0  0  0  0  0  0  0
   39.3220   30.5840   42.3860 N   0  0  0  0  0  0  0  0  0  0  0  0
   37.9390   30.9380   42.4560 C   0  0  1  0  0  0  0  0  0  0  0  0
   37.1640   30.2260   41.3790 C   0  0  0  0  0  0  0  0  0  0  0  0
   37.3430   28.7960   41.5900 N   0  0  0  0  0  0  0  0  0  0  0  0
   38.7520   28.5490   41.2500 C   0  0  0  0  0  0  0  0  0  0  0  0
   39.5580   29.1740   42.3820 C   0  0  2  0  0  0  0  0  0  0  0  0
   39.9550   31.1600   42.9360 H   0  0  0  0  0  0  0  0  0  0  0  0
   37.8230   32.0250   42.3280 H   0  0  0  0  0  0  0  0  0  0  0  0
   36.0720   30.4150   41.5210 H   0  0  0  0  0  0  0  0  0  0  0  0
   37.4930   30.4700   40.3500 H   0  0  0  0  0  0  0  0  0  0  0  0
   36.6910   28.2320   41.0310 H   0  0  0  0  0  0  0  0  0  0  0  0
   38.9290   29.1120   40.3090 H   0  0  0  0  0  0  0  0  0  0  0  0
   38.9790   27.4850   41.1770 H   0  0  0  0  0  0  0  0  0  0  0  0
   40.6380   29.0270   42.1750 H   0  0  0  0  0  0  0  0  0  0  0  0
   39.2110   28.5110   43.6240 N   0  0  0  0  0  0  0  0  0  0  0  0
   39.5240   29.0370   44.4590 H   0  0  0  0  0  0  0  0  0  0  0  0
   38.2540   28.1440   43.6640 H   0  0  0  0  0  0  0  0  0  0  0  0
   39.6730   32.5800   46.3890 C   0  0  0  0  0  0  0  0  0  0  0  0
   39.0670   32.0830   45.2570 C   0  0  0  0  0  0  0  0  0  0  0  0
   38.0510   31.1700   45.3930 C   0  0  0  0  0  0  0  0  0  0  0  0
   37.6830   30.7910   46.6810 N   0  0  0  0  0  0  0  0  0  0  0  0
   38.3120   31.3120   47.7330 C   0  0  0  0  0  0  0  0  0  0  0  0
   39.3030   32.2020   47.6080 N   0  0  0  0  0  0  0  0  0  0  0  0
   40.4890   33.3130   46.2930 H   0  0  0  0  0  0  0  0  0  0  0  0
   39.3530   32.3770   44.2650 H   0  0  0  0  0  0  0  0  0  0  0  0
   37.8990   30.8910   49.0750 C   0  0  0  0  0  0  0  0  0  0  0  0
   38.3020   29.8470   49.6250 O   0  0  0  0  0  0  0  0  0  0  0  0
   38.1060   33.6720   49.2250 N   0  0  0  0  0  0  0  0  0  0  0  0
   37.0980   33.1540   49.8410 C   0  0  0  0  0  0  0  0  0  0  0  0
   36.9740   31.7450   49.7760 N   0  0  0  0  0  0  0  0  0  0  0  0
   36.1330   33.9080   50.5580 N   0  0  0  0  0  0  0  0  0  0  0  0
   35.5330   33.4500   51.2520 H   0  0  0  0  0  0  0  0  0  0  0  0
   38.1850   34.7200   49.2820 H   0  0  0  0  0  0  0  0  0  0  0  0
   36.1620   31.3070   50.2700 H   0  0  0  0  0  0  0  0  0  0  0  0
   36.0770   34.9090   50.3450 H   0  0  0  0  0  0  0  0  0  0  0  0
  1 21  1  0  0  0  0
  2  3  1  0  0  0  0
  2  8  1  0  0  0  0
  3  9  1  6  0  0  0
  3  1  1  0  0  0  0
  4 10  1  0  0  0  0
  4  5  1  0  0  0  0
  4  3  1  0  0  0  0
  6  5  1  0  0  0  0
  6  7  1  0  0  0  0
  7 15  1  6  0  0  0
  7  2  1  0  0  0  0
  7 16  1  0  0  0  0
 11  4  1  0  0  0  0
 12  5  1  0  0  0  0
 13  6  1  0  0  0  0
 14  6  1  0  0  0  0
 16 18  1  0  0  0  0
 16 17  1  0  0  0  0
 19 24  1  0  0  0  0
 20 21  1  0  0  0  0
 20 19  2  0  0  0  0
 21 22  2  0  0  0  0
 22 23  1  0  0  0  0
 23 27  1  0  0  0  0
 24 23  2  0  0  0  0
 25 19  1  0  0  0  0
 26 20  1  0  0  0  0
 27 28  2  0  0  0  0
 27 31  1  0  0  0  0
 29 34  1  0  0  0  0
 29 30  2  0  0  0  0
 30 32  1  0  0  0  0
 31 30  1  0  0  0  0
 31 35  1  0  0  0  0
 32 33  1  0  0  0  0
 36 32  1  0  0  0  0
M  END
>  <minimizedAffinity>
-3.44102931

>  <minimizedRMSD>
4.23789597

$$$$
