
 OpenBabel03262521013D

 36 37  0  0  1  0  0  0  0  0999 V2000
   38.4320   30.3490   44.7130 S   0  0  0  0  0  0  0  0  0  0  0  0
   41.0200   30.6680   43.9350 N   0  0  0  0  0  0  0  0  0  0  0  0
   39.8490   31.4200   44.2630 C   0  0  1  0  0  0  0  0  0  0  0  0
   39.3950   32.2230   43.0720 C   0  0  0  0  0  0  0  0  0  0  0  0
   39.1190   31.2810   41.9960 N   0  0  0  0  0  0  0  0  0  0  0  0
   40.4410   30.7690   41.6090 C   0  0  0  0  0  0  0  0  0  0  0  0
   40.8810   29.8700   42.7570 C   0  0  2  0  0  0  0  0  0  0  0  0
   41.5150   30.2550   44.7210 H   0  0  0  0  0  0  0  0  0  0  0  0
   40.0640   32.1030   45.0990 H   0  0  0  0  0  0  0  0  0  0  0  0
   38.4160   32.7080   43.3040 H   0  0  0  0  0  0  0  0  0  0  0  0
   40.1420   32.9560   42.7100 H   0  0  0  0  0  0  0  0  0  0  0  0
   38.6120   31.7150   41.2140 H   0  0  0  0  0  0  0  0  0  0  0  0
   41.0980   31.6630   41.5600 H   0  0  0  0  0  0  0  0  0  0  0  0
   40.4080   30.1960   40.6810 H   0  0  0  0  0  0  0  0  0  0  0  0
   41.8850   29.4580   42.5250 H   0  0  0  0  0  0  0  0  0  0  0  0
   39.9320   28.7810   42.8870 N   0  0  0  0  0  0  0  0  0  0  0  0
   40.0220   28.2770   43.7870 H   0  0  0  0  0  0  0  0  0  0  0  0
   38.9750   29.0070   42.5990 H   0  0  0  0  0  0  0  0  0  0  0  0
   38.0750   31.6210   48.5400 C   0  0  0  0  0  0  0  0  0  0  0  0
   38.6380   31.3470   47.3140 C   0  0  0  0  0  0  0  0  0  0  0  0
   37.8630   30.7660   46.3410 C   0  0  0  0  0  0  0  0  0  0  0  0
   36.5350   30.4830   46.6480 N   0  0  0  0  0  0  0  0  0  0  0  0
   36.0540   30.7750   47.8550 C   0  0  0  0  0  0  0  0  0  0  0  0
   36.8040   31.3400   48.8080 N   0  0  0  0  0  0  0  0  0  0  0  0
   38.6860   32.0860   49.3280 H   0  0  0  0  0  0  0  0  0  0  0  0
   39.6620   31.5660   47.0800 H   0  0  0  0  0  0  0  0  0  0  0  0
   34.6510   30.4630   48.1450 C   0  0  0  0  0  0  0  0  0  0  0  0
   33.7770   30.3360   47.2660 O   0  0  0  0  0  0  0  0  0  0  0  0
   35.7410   28.5490   49.8600 N   0  0  0  0  0  0  0  0  0  0  0  0
   34.8520   29.3240   50.3830 C   0  0  0  0  0  0  0  0  0  0  0  0
   34.2870   30.3010   49.5290 N   0  0  0  0  0  0  0  0  0  0  0  0
   34.4260   29.2430   51.7340 N   0  0  0  0  0  0  0  0  0  0  0  0
   33.5380   29.6700   52.0200 H   0  0  0  0  0  0  0  0  0  0  0  0
   36.1530   27.8260   50.5060 H   0  0  0  0  0  0  0  0  0  0  0  0
   33.5640   30.9380   49.9360 H   0  0  0  0  0  0  0  0  0  0  0  0
   35.0430   28.7460   52.3850 H   0  0  0  0  0  0  0  0  0  0  0  0
  1 21  1  0  0  0  0
  2  3  1  0  0  0  0
  2  8  1  0  0  0  0
  3  1  1  0  0  0  0
  3  9  1  1  0  0  0
  4 10  1  0  0  0  0
  4  3  1  0  0  0  0
  5  4  1  0  0  0  0
  6  5  1  0  0  0  0
  6  7  1  0  0  0  0
  7 15  1  6  0  0  0
  7 16  1  0  0  0  0
  7  2  1  0  0  0  0
 11  4  1  0  0  0  0
 12  5  1  0  0  0  0
 13  6  1  0  0  0  0
 14  6  1  0  0  0  0
 16 17  1  0  0  0  0
 18 16  1  0  0  0  0
 19 24  1  0  0  0  0
 19 25  1  0  0  0  0
 20 19  2  0  0  0  0
 21 22  2  0  0  0  0
 21 20  1  0  0  0  0
 22 23  1  0  0  0  0
 23 27  1  0  0  0  0
 23 24  2  0  0  0  0
 26 20  1  0  0  0  0
 27 31  1  0  0  0  0
 28 27  2  0  0  0  0
 29 30  2  0  0  0  0
 29 34  1  0  0  0  0
 30 32  1  0  0  0  0
 31 35  1  0  0  0  0
 31 30  1  0  0  0  0
 32 33  1  0  0  0  0
 32 36  1  0  0  0  0
M  END
>  <minimizedAffinity>
-5.16989279

>  <minimizedRMSD>
2.58998251

$$$$
