
 OpenBabel03272502173D

 32 33  0  0  1  0  0  0  0  0999 V2000
   36.2180   29.4620   49.2310 S   0  0  0  0  0  0  0  0  0  0  0  0
   37.2980   30.7960   48.7900 C   0  0  0  0  0  0  0  0  0  0  0  0
   37.2070   31.8980   49.6550 C   0  0  0  0  0  0  0  0  0  0  0  0
   38.0020   33.0090   49.4180 C   0  0  0  0  0  0  0  0  0  0  0  0
   38.8420   32.9690   48.3370 N   0  0  0  0  0  0  0  0  0  0  0  0
   38.9100   31.8970   47.5200 C   0  0  0  0  0  0  0  0  0  0  0  0
   38.1470   30.8320   47.7480 N   0  0  0  0  0  0  0  0  0  0  0  0
   36.5460   31.9480   50.5180 H   0  0  0  0  0  0  0  0  0  0  0  0
   37.9630   33.8780   50.0610 H   0  0  0  0  0  0  0  0  0  0  0  0
   38.5260   30.4770   45.0910 N   0  0  0  0  0  0  0  0  0  0  0  0
   39.6790   30.9700   45.3680 C   0  0  0  0  0  0  0  0  0  0  0  0
   39.8080   31.9260   46.4150 N   0  0  0  0  0  0  0  0  0  0  0  0
   40.8370   30.5750   44.6410 N   0  0  0  0  0  0  0  0  0  0  0  0
   41.6540   30.2070   44.1240 H   0  0  0  0  0  0  0  0  0  0  0  0
   38.4190   29.7780   44.3260 H   0  0  0  0  0  0  0  0  0  0  0  0
   40.5650   32.6420   46.3600 H   0  0  0  0  0  0  0  0  0  0  0  0
   41.5120   31.2920   44.2870 H   0  0  0  0  0  0  0  0  0  0  0  0
   33.6370   28.7170   49.0200 N   0  0  0  0  0  0  0  0  0  0  0  0
   34.4720   29.8850   48.8980 C   0  0  2  0  0  0  0  0  0  0  0  0
   34.3680   30.3920   47.4730 C   0  0  0  0  0  0  0  0  0  0  0  0
   33.2360   29.8550   46.8200 O   0  0  0  0  0  0  0  0  0  0  0  0
   33.5400   28.4930   46.6470 C   0  0  0  0  0  0  0  0  0  0  0  0
   33.9460   27.8280   47.9250 C   0  0  2  0  0  0  0  0  0  0  0  0
   32.6510   29.0220   48.8870 H   0  0  0  0  0  0  0  0  0  0  0  0
   34.2230   30.6800   49.6360 H   0  0  0  0  0  0  0  0  0  0  0  0
   35.2390   30.0870   46.8620 H   0  0  0  0  0  0  0  0  0  0  0  0
   34.2650   31.4930   47.4570 H   0  0  0  0  0  0  0  0  0  0  0  0
   32.5840   28.0240   46.2990 H   0  0  0  0  0  0  0  0  0  0  0  0
   34.3440   28.3490   45.9080 H   0  0  0  0  0  0  0  0  0  0  0  0
   35.0070   27.5170   47.9470 H   0  0  0  0  0  0  0  0  0  0  0  0
   33.1970   26.6470   48.1220 O   0  0  0  0  0  0  0  0  0  0  0  0
   33.0030   26.5530   49.0880 H   0  0  0  0  0  0  0  0  0  0  0  0
  2  1  1  0  0  0  0
  2  3  1  0  0  0  0
  3  8  1  0  0  0  0
  4  3  2  0  0  0  0
  4  9  1  0  0  0  0
  5  4  1  0  0  0  0
  6  7  1  0  0  0  0
  6  5  2  0  0  0  0
  7  2  2  0  0  0  0
 10 11  2  0  0  0  0
 11 12  1  0  0  0  0
 12  6  1  0  0  0  0
 13 11  1  0  0  0  0
 14 13  1  0  0  0  0
 15 10  1  0  0  0  0
 16 12  1  0  0  0  0
 17 13  1  0  0  0  0
 19 18  1  0  0  0  0
 19  1  1  0  0  0  0
 19 25  1  1  0  0  0
 20 19  1  0  0  0  0
 21 20  1  0  0  0  0
 22 21  1  0  0  0  0
 22 23  1  0  0  0  0
 23 30  1  6  0  0  0
 23 31  1  0  0  0  0
 23 18  1  0  0  0  0
 24 18  1  0  0  0  0
 26 20  1  0  0  0  0
 27 20  1  0  0  0  0
 28 22  1  0  0  0  0
 29 22  1  0  0  0  0
 31 32  1  0  0  0  0
M  END
>  <minimizedAffinity>
-5.5223484

>  <minimizedRMSD>
0.123660572

$$$$
