
 OpenBabel03272502193D

 32 33  0  0  1  0  0  0  0  0999 V2000
   39.0790   26.1970   32.6350 S   0  0  0  0  0  0  0  0  0  0  0  0
   38.9880   25.3250   34.1750 C   0  0  0  0  0  0  0  0  0  0  0  0
   38.2310   25.9940   35.1520 C   0  0  0  0  0  0  0  0  0  0  0  0
   38.0830   25.4160   36.4030 C   0  0  0  0  0  0  0  0  0  0  0  0
   38.6930   24.2090   36.6200 N   0  0  0  0  0  0  0  0  0  0  0  0
   39.4150   23.5870   35.6650 C   0  0  0  0  0  0  0  0  0  0  0  0
   39.5570   24.1420   34.4650 N   0  0  0  0  0  0  0  0  0  0  0  0
   37.7410   26.9520   34.9980 H   0  0  0  0  0  0  0  0  0  0  0  0
   37.5090   25.8970   37.1830 H   0  0  0  0  0  0  0  0  0  0  0  0
   39.8070   22.5610   38.2840 N   0  0  0  0  0  0  0  0  0  0  0  0
   40.4300   22.0350   37.2920 C   0  0  0  0  0  0  0  0  0  0  0  0
   40.0210   22.3330   35.9630 N   0  0  0  0  0  0  0  0  0  0  0  0
   41.5280   21.1550   37.5010 N   0  0  0  0  0  0  0  0  0  0  0  0
   42.3580   20.5720   37.7090 H   0  0  0  0  0  0  0  0  0  0  0  0
   40.0960   22.3520   39.2630 H   0  0  0  0  0  0  0  0  0  0  0  0
   40.1710   21.6220   35.2130 H   0  0  0  0  0  0  0  0  0  0  0  0
   41.5910   20.2510   36.9790 H   0  0  0  0  0  0  0  0  0  0  0  0
   37.8210   26.1510   30.2520 N   0  0  0  0  0  0  0  0  0  0  0  0
   38.2630   25.2600   31.2950 C   0  0  2  0  0  0  0  0  0  0  0  0
   37.0430   24.5680   31.8720 C   0  0  0  0  0  0  0  0  0  0  0  0
   35.9340   24.6770   31.0050 O   0  0  0  0  0  0  0  0  0  0  0  0
   35.5760   26.0360   31.0550 C   0  0  0  0  0  0  0  0  0  0  0  0
   36.7320   26.9450   30.7730 C   0  0  2  0  0  0  0  0  0  0  0  0
   37.4250   25.5660   29.4890 H   0  0  0  0  0  0  0  0  0  0  0  0
   39.0260   24.5270   30.9500 H   0  0  0  0  0  0  0  0  0  0  0  0
   36.7230   25.0260   32.8270 H   0  0  0  0  0  0  0  0  0  0  0  0
   37.2400   23.4900   32.0200 H   0  0  0  0  0  0  0  0  0  0  0  0
   34.8220   26.1690   30.2380 H   0  0  0  0  0  0  0  0  0  0  0  0
   35.1520   26.3060   32.0350 H   0  0  0  0  0  0  0  0  0  0  0  0
   37.0530   27.5430   31.6460 H   0  0  0  0  0  0  0  0  0  0  0  0
   36.3850   27.8820   29.7740 O   0  0  0  0  0  0  0  0  0  0  0  0
   37.1760   28.0390   29.1990 H   0  0  0  0  0  0  0  0  0  0  0  0
  1  2  1  0  0  0  0
  2  7  2  0  0  0  0
  2  3  1  0  0  0  0
  3  4  2  0  0  0  0
  4  5  1  0  0  0  0
  4  9  1  0  0  0  0
  6 12  1  0  0  0  0
  6  5  2  0  0  0  0
  7  6  1  0  0  0  0
  8  3  1  0  0  0  0
 10 15  1  0  0  0  0
 11 13  1  0  0  0  0
 11 10  2  0  0  0  0
 12 11  1  0  0  0  0
 13 14  1  0  0  0  0
 16 12  1  0  0  0  0
 17 13  1  0  0  0  0
 18 23  1  0  0  0  0
 18 19  1  0  0  0  0
 19 25  1  6  0  0  0
 19 20  1  0  0  0  0
 19  1  1  0  0  0  0
 20 27  1  0  0  0  0
 20 26  1  0  0  0  0
 21 22  1  0  0  0  0
 21 20  1  0  0  0  0
 22 29  1  0  0  0  0
 23 22  1  0  0  0  0
 23 30  1  1  0  0  0
 24 18  1  0  0  0  0
 28 22  1  0  0  0  0
 31 23  1  0  0  0  0
 32 31  1  0  0  0  0
M  END
>  <minimizedAffinity>
-5.6047368

$$$$

 OpenBabel03272502193D

 32 33  0  0  1  0  0  0  0  0999 V2000
   38.3090   24.8940   35.4940 S   0  0  0  0  0  0  0  0  0  0  0  0
   37.7220   25.3820   33.8950 C   0  0  0  0  0  0  0  0  0  0  0  0
   37.7940   24.3580   32.9360 C   0  0  0  0  0  0  0  0  0  0  0  0
   37.3640   24.6130   31.6430 C   0  0  0  0  0  0  0  0  0  0  0  0
   36.8860   25.8670   31.3690 N   0  0  0  0  0  0  0  0  0  0  0  0
   36.8270   26.8340   32.3080 C   0  0  0  0  0  0  0  0  0  0  0  0
   37.2400   26.5890   33.5490 N   0  0  0  0  0  0  0  0  0  0  0  0
   38.1700   23.3570   33.1350 H   0  0  0  0  0  0  0  0  0  0  0  0
   37.4020   23.8530   30.8750 H   0  0  0  0  0  0  0  0  0  0  0  0
   36.5280   27.7700   29.6440 N   0  0  0  0  0  0  0  0  0  0  0  0
   36.4720   28.5990   30.6230 C   0  0  0  0  0  0  0  0  0  0  0  0
   36.3180   28.1150   31.9510 N   0  0  0  0  0  0  0  0  0  0  0  0
   36.5620   30.0020   30.3990 N   0  0  0  0  0  0  0  0  0  0  0  0
   36.6940   31.0060   30.1860 H   0  0  0  0  0  0  0  0  0  0  0  0
   36.6410   28.1110   28.6660 H   0  0  0  0  0  0  0  0  0  0  0  0
   35.8290   28.7110   32.6560 H   0  0  0  0  0  0  0  0  0  0  0  0
   35.8890   30.6570   30.8600 H   0  0  0  0  0  0  0  0  0  0  0  0
   38.2150   22.5610   36.8370 N   0  0  0  0  0  0  0  0  0  0  0  0
   38.6240   23.0960   35.5640 C   0  0  2  0  0  0  0  0  0  0  0  0
   40.1160   22.8670   35.4130 C   0  0  0  0  0  0  0  0  0  0  0  0
   40.5780   21.8900   36.3230 O   0  0  0  0  0  0  0  0  0  0  0  0
   40.4810   22.5050   37.5840 C   0  0  0  0  0  0  0  0  0  0  0  0
   39.1170   23.0650   37.8470 C   0  0  2  0  0  0  0  0  0  0  0  0
   38.3530   21.5300   36.8020 H   0  0  0  0  0  0  0  0  0  0  0  0
   38.0550   22.6710   34.7070 H   0  0  0  0  0  0  0  0  0  0  0  0
   40.6980   23.7820   35.6350 H   0  0  0  0  0  0  0  0  0  0  0  0
   40.3540   22.5070   34.3960 H   0  0  0  0  0  0  0  0  0  0  0  0
   40.6680   21.6850   38.3230 H   0  0  0  0  0  0  0  0  0  0  0  0
   41.2180   23.3170   37.6950 H   0  0  0  0  0  0  0  0  0  0  0  0
   39.0900   24.1700   37.8940 H   0  0  0  0  0  0  0  0  0  0  0  0
   38.6370   22.6160   39.0970 O   0  0  0  0  0  0  0  0  0  0  0  0
   37.6630   22.4560   39.0230 H   0  0  0  0  0  0  0  0  0  0  0  0
  1 19  1  0  0  0  0
  2  1  1  0  0  0  0
  3  8  1  0  0  0  0
  3  2  2  0  0  0  0
  4  3  1  0  0  0  0
  5  4  2  0  0  0  0
  5  6  1  0  0  0  0
  6  7  2  0  0  0  0
  7  2  1  0  0  0  0
  9  4  1  0  0  0  0
 10 11  2  0  0  0  0
 11 12  1  0  0  0  0
 12  6  1  0  0  0  0
 12 16  1  0  0  0  0
 13 11  1  0  0  0  0
 13 17  1  0  0  0  0
 14 13  1  0  0  0  0
 15 10  1  0  0  0  0
 18 23  1  0  0  0  0
 19 25  1  6  0  0  0
 19 18  1  0  0  0  0
 20 19  1  0  0  0  0
 20 26  1  0  0  0  0
 20 21  1  0  0  0  0
 21 22  1  0  0  0  0
 22 29  1  0  0  0  0
 22 23  1  0  0  0  0
 22 28  1  0  0  0  0
 23 30  1  6  0  0  0
 23 31  1  0  0  0  0
 24 18  1  0  0  0  0
 27 20  1  0  0  0  0
 32 31  1  0  0  0  0
M  END
>  <minimizedAffinity>
-5.45705318

$$$$

 OpenBabel03272502193D

 32 33  0  0  1  0  0  0  0  0999 V2000
   38.8150   26.0510   32.1780 S   0  0  0  0  0  0  0  0  0  0  0  0
   39.3290   25.2370   33.6660 C   0  0  0  0  0  0  0  0  0  0  0  0
   40.6350   24.7240   33.6000 C   0  0  0  0  0  0  0  0  0  0  0  0
   41.1550   24.0630   34.7020 C   0  0  0  0  0  0  0  0  0  0  0  0
   40.3560   23.9460   35.8080 N   0  0  0  0  0  0  0  0  0  0  0  0
   39.1040   24.4480   35.8460 C   0  0  0  0  0  0  0  0  0  0  0  0
   38.6050   25.0820   34.7880 N   0  0  0  0  0  0  0  0  0  0  0  0
   41.2830   24.8070   32.7320 H   0  0  0  0  0  0  0  0  0  0  0  0
   42.1560   23.6530   34.6930 H   0  0  0  0  0  0  0  0  0  0  0  0
   39.6880   22.6000   37.9220 N   0  0  0  0  0  0  0  0  0  0  0  0
   38.5310   23.1560   37.8670 C   0  0  0  0  0  0  0  0  0  0  0  0
   38.3300   24.2880   37.0300 N   0  0  0  0  0  0  0  0  0  0  0  0
   37.4420   22.6550   38.6330 N   0  0  0  0  0  0  0  0  0  0  0  0
   36.6710   22.2120   39.1630 H   0  0  0  0  0  0  0  0  0  0  0  0
   39.8490   21.7700   38.5300 H   0  0  0  0  0  0  0  0  0  0  0  0
   37.6100   24.9960   37.2960 H   0  0  0  0  0  0  0  0  0  0  0  0
   36.8360   23.3060   39.1840 H   0  0  0  0  0  0  0  0  0  0  0  0
   36.5510   26.5380   30.8000 N   0  0  0  0  0  0  0  0  0  0  0  0
   37.0040   26.2910   32.1450 C   0  0  2  0  0  0  0  0  0  0  0  0
   36.6700   27.5080   32.9860 C   0  0  0  0  0  0  0  0  0  0  0  0
   35.7030   28.3190   32.3510 O   0  0  0  0  0  0  0  0  0  0  0  0
   36.3760   28.8760   31.2480 C   0  0  0  0  0  0  0  0  0  0  0  0
   37.0360   27.8370   30.3950 C   0  0  2  0  0  0  0  0  0  0  0  0
   35.5130   26.6020   30.8260 H   0  0  0  0  0  0  0  0  0  0  0  0
   36.5820   25.3600   32.5850 H   0  0  0  0  0  0  0  0  0  0  0  0
   37.5520   28.1580   33.1400 H   0  0  0  0  0  0  0  0  0  0  0  0
   36.2520   27.2040   33.9640 H   0  0  0  0  0  0  0  0  0  0  0  0
   35.5760   29.3700   30.6390 H   0  0  0  0  0  0  0  0  0  0  0  0
   37.1400   29.6030   31.5660 H   0  0  0  0  0  0  0  0  0  0  0  0
   38.1410   27.8790   30.4170 H   0  0  0  0  0  0  0  0  0  0  0  0
   36.6730   28.0140   29.0410 O   0  0  0  0  0  0  0  0  0  0  0  0
   36.5750   27.1240   28.6210 H   0  0  0  0  0  0  0  0  0  0  0  0
  1  2  1  0  0  0  0
  2  7  1  0  0  0  0
  3  2  2  0  0  0  0
  3  4  1  0  0  0  0
  4  5  2  0  0  0  0
  5  6  1  0  0  0  0
  6 12  1  0  0  0  0
  7  6  2  0  0  0  0
  8  3  1  0  0  0  0
  9  4  1  0  0  0  0
 10 15  1  0  0  0  0
 11 10  2  0  0  0  0
 11 13  1  0  0  0  0
 12 16  1  0  0  0  0
 12 11  1  0  0  0  0
 13 14  1  0  0  0  0
 13 17  1  0  0  0  0
 18 24  1  0  0  0  0
 18 19  1  0  0  0  0
 19  1  1  0  0  0  0
 19 25  1  1  0  0  0
 19 20  1  0  0  0  0
 20 26  1  0  0  0  0
 20 27  1  0  0  0  0
 21 20  1  0  0  0  0
 22 29  1  0  0  0  0
 22 21  1  0  0  0  0
 23 30  1  1  0  0  0
 23 18  1  0  0  0  0
 23 22  1  0  0  0  0
 28 22  1  0  0  0  0
 31 23  1  0  0  0  0
 32 31  1  0  0  0  0
M  END
>  <minimizedAffinity>
-5.2050519

$$$$

 OpenBabel03272502193D

 32 33  0  0  1  0  0  0  0  0999 V2000
   38.2080   25.4290   36.0660 S   0  0  0  0  0  0  0  0  0  0  0  0
   38.0190   26.2930   34.5300 C   0  0  0  0  0  0  0  0  0  0  0  0
   36.9480   27.2020   34.5280 C   0  0  0  0  0  0  0  0  0  0  0  0
   36.6930   27.9420   33.3840 C   0  0  0  0  0  0  0  0  0  0  0  0
   37.5120   27.7430   32.3050 N   0  0  0  0  0  0  0  0  0  0  0  0
   38.5350   26.8630   32.3320 C   0  0  0  0  0  0  0  0  0  0  0  0
   38.7780   26.1530   33.4300 N   0  0  0  0  0  0  0  0  0  0  0  0
   36.2870   27.3730   35.3750 H   0  0  0  0  0  0  0  0  0  0  0  0
   35.8790   28.6530   33.3410 H   0  0  0  0  0  0  0  0  0  0  0  0
   37.8160   27.7440   29.7290 N   0  0  0  0  0  0  0  0  0  0  0  0
   38.7880   26.9180   29.8790 C   0  0  0  0  0  0  0  0  0  0  0  0
   39.3450   26.7080   31.1710 N   0  0  0  0  0  0  0  0  0  0  0  0
   39.3200   26.2050   28.7680 N   0  0  0  0  0  0  0  0  0  0  0  0
   39.6270   25.6690   27.9380 H   0  0  0  0  0  0  0  0  0  0  0  0
   37.3990   27.9060   28.7880 H   0  0  0  0  0  0  0  0  0  0  0  0
   40.3510   26.4400   31.2540 H   0  0  0  0  0  0  0  0  0  0  0  0
   40.3540   26.1460   28.6220 H   0  0  0  0  0  0  0  0  0  0  0  0
   38.0140   22.8990   36.9720 N   0  0  0  0  0  0  0  0  0  0  0  0
   38.4020   23.6330   35.7950 C   0  0  2  0  0  0  0  0  0  0  0  0
   39.8680   23.3480   35.5240 C   0  0  0  0  0  0  0  0  0  0  0  0
   40.3020   22.1960   36.2170 O   0  0  0  0  0  0  0  0  0  0  0  0
   40.3010   22.5750   37.5710 C   0  0  0  0  0  0  0  0  0  0  0  0
   38.9910   23.1570   38.0040 C   0  0  2  0  0  0  0  0  0  0  0  0
   38.0800   21.8860   36.7460 H   0  0  0  0  0  0  0  0  0  0  0  0
   37.7690   23.4050   34.9080 H   0  0  0  0  0  0  0  0  0  0  0  0
   40.5190   24.1710   35.8730 H   0  0  0  0  0  0  0  0  0  0  0  0
   40.0360   23.1660   34.4470 H   0  0  0  0  0  0  0  0  0  0  0  0
   40.4650   21.6240   38.1390 H   0  0  0  0  0  0  0  0  0  0  0  0
   41.0950   23.3080   37.7860 H   0  0  0  0  0  0  0  0  0  0  0  0
   39.0410   24.2340   38.2500 H   0  0  0  0  0  0  0  0  0  0  0  0
   38.5360   22.5160   39.1780 O   0  0  0  0  0  0  0  0  0  0  0  0
   37.5520   22.4290   39.1310 H   0  0  0  0  0  0  0  0  0  0  0  0
  2  1  1  0  0  0  0
  3  2  1  0  0  0  0
  3  8  1  0  0  0  0
  4  3  2  0  0  0  0
  5  6  2  0  0  0  0
  5  4  1  0  0  0  0
  6  7  1  0  0  0  0
  7  2  2  0  0  0  0
  9  4  1  0  0  0  0
 10 11  2  0  0  0  0
 11 12  1  0  0  0  0
 12 16  1  0  0  0  0
 12  6  1  0  0  0  0
 13 11  1  0  0  0  0
 14 13  1  0  0  0  0
 15 10  1  0  0  0  0
 17 13  1  0  0  0  0
 18 23  1  0  0  0  0
 19 25  1  6  0  0  0
 19  1  1  0  0  0  0
 19 18  1  0  0  0  0
 20 19  1  0  0  0  0
 20 26  1  0  0  0  0
 20 21  1  0  0  0  0
 21 22  1  0  0  0  0
 22 29  1  0  0  0  0
 22 23  1  0  0  0  0
 22 28  1  0  0  0  0
 23 30  1  1  0  0  0
 23 31  1  0  0  0  0
 24 18  1  0  0  0  0
 27 20  1  0  0  0  0
 32 31  1  0  0  0  0
M  END
>  <minimizedAffinity>
-5.20002604

$$$$

 OpenBabel03272502193D

 32 33  0  0  1  0  0  0  0  0999 V2000
   38.2220   25.1450   35.6540 S   0  0  0  0  0  0  0  0  0  0  0  0
   38.7640   25.9390   34.1650 C   0  0  0  0  0  0  0  0  0  0  0  0
   40.0110   26.5740   34.2920 C   0  0  0  0  0  0  0  0  0  0  0  0
   40.5460   27.2340   33.1970 C   0  0  0  0  0  0  0  0  0  0  0  0
   39.8190   27.2290   32.0360 N   0  0  0  0  0  0  0  0  0  0  0  0
   38.6240   26.6120   31.9400 C   0  0  0  0  0  0  0  0  0  0  0  0
   38.1100   25.9790   32.9910 N   0  0  0  0  0  0  0  0  0  0  0  0
   40.6010   26.5890   35.2050 H   0  0  0  0  0  0  0  0  0  0  0  0
   41.5030   27.7350   33.2520 H   0  0  0  0  0  0  0  0  0  0  0  0
   39.1830   28.4160   29.8200 N   0  0  0  0  0  0  0  0  0  0  0  0
   38.0810   27.7580   29.8240 C   0  0  0  0  0  0  0  0  0  0  0  0
   37.9240   26.6480   30.7000 N   0  0  0  0  0  0  0  0  0  0  0  0
   37.0070   28.1230   28.9640 N   0  0  0  0  0  0  0  0  0  0  0  0
   36.2400   28.4690   28.3630 H   0  0  0  0  0  0  0  0  0  0  0  0
   39.3120   29.2310   29.1840 H   0  0  0  0  0  0  0  0  0  0  0  0
   37.2910   25.8660   30.4220 H   0  0  0  0  0  0  0  0  0  0  0  0
   36.5030   27.3950   28.4070 H   0  0  0  0  0  0  0  0  0  0  0  0
   38.1080   22.7170   36.8170 N   0  0  0  0  0  0  0  0  0  0  0  0
   38.4720   23.3370   35.5690 C   0  0  2  0  0  0  0  0  0  0  0  0
   39.9440   23.0700   35.3210 C   0  0  0  0  0  0  0  0  0  0  0  0
   40.4150   22.0100   36.1270 O   0  0  0  0  0  0  0  0  0  0  0  0
   40.4050   22.5270   37.4350 C   0  0  0  0  0  0  0  0  0  0  0  0
   39.0790   23.1100   37.8120 C   0  0  2  0  0  0  0  0  0  0  0  0
   38.2050   21.6880   36.6960 H   0  0  0  0  0  0  0  0  0  0  0  0
   37.8440   23.0000   34.7130 H   0  0  0  0  0  0  0  0  0  0  0  0
   40.5710   23.9450   35.5810 H   0  0  0  0  0  0  0  0  0  0  0  0
   40.1170   22.7840   34.2670 H   0  0  0  0  0  0  0  0  0  0  0  0
   40.5990   21.6450   38.0970 H   0  0  0  0  0  0  0  0  0  0  0  0
   41.1770   23.3020   37.5690 H   0  0  0  0  0  0  0  0  0  0  0  0
   39.0960   24.2070   37.9460 H   0  0  0  0  0  0  0  0  0  0  0  0
   38.6460   22.5800   39.0480 O   0  0  0  0  0  0  0  0  0  0  0  0
   37.6640   22.4590   39.0150 H   0  0  0  0  0  0  0  0  0  0  0  0
  2  3  1  0  0  0  0
  2  1  1  0  0  0  0
  3  8  1  0  0  0  0
  4  9  1  0  0  0  0
  4  3  2  0  0  0  0
  5  4  1  0  0  0  0
  6  5  2  0  0  0  0
  6  7  1  0  0  0  0
  7  2  2  0  0  0  0
 10 11  2  0  0  0  0
 11 12  1  0  0  0  0
 12  6  1  0  0  0  0
 13 11  1  0  0  0  0
 14 13  1  0  0  0  0
 15 10  1  0  0  0  0
 16 12  1  0  0  0  0
 17 13  1  0  0  0  0
 18 23  1  0  0  0  0
 19 25  1  6  0  0  0
 19  1  1  0  0  0  0
 19 18  1  0  0  0  0
 20 19  1  0  0  0  0
 20 26  1  0  0  0  0
 20 21  1  0  0  0  0
 21 22  1  0  0  0  0
 22 29  1  0  0  0  0
 22 23  1  0  0  0  0
 22 28  1  0  0  0  0
 23 30  1  1  0  0  0
 23 31  1  0  0  0  0
 24 18  1  0  0  0  0
 27 20  1  0  0  0  0
 32 31  1  0  0  0  0
M  END
>  <minimizedAffinity>
-5.18649578

$$$$

 OpenBabel03272502193D

 32 33  0  0  1  0  0  0  0  0999 V2000
   38.1490   27.1250   32.1150 S   0  0  0  0  0  0  0  0  0  0  0  0
   38.0340   25.5640   32.9480 C   0  0  0  0  0  0  0  0  0  0  0  0
   37.5700   24.5240   32.1250 C   0  0  0  0  0  0  0  0  0  0  0  0
   37.4350   23.2520   32.6580 C   0  0  0  0  0  0  0  0  0  0  0  0
   37.7660   23.0780   33.9760 N   0  0  0  0  0  0  0  0  0  0  0  0
   38.2090   24.0940   34.7450 C   0  0  0  0  0  0  0  0  0  0  0  0
   38.3380   25.3150   34.2330 N   0  0  0  0  0  0  0  0  0  0  0  0
   37.3030   24.6440   31.0780 H   0  0  0  0  0  0  0  0  0  0  0  0
   37.0820   22.4240   32.0590 H   0  0  0  0  0  0  0  0  0  0  0  0
   37.3970   21.7930   36.1980 N   0  0  0  0  0  0  0  0  0  0  0  0
   37.8530   22.8170   36.8250 C   0  0  0  0  0  0  0  0  0  0  0  0
   38.5340   23.8390   36.1080 N   0  0  0  0  0  0  0  0  0  0  0  0
   37.6870   22.9460   38.2320 N   0  0  0  0  0  0  0  0  0  0  0  0
   37.4850   23.0180   39.2440 H   0  0  0  0  0  0  0  0  0  0  0  0
   36.8960   21.0370   36.7110 H   0  0  0  0  0  0  0  0  0  0  0  0
   39.2720   24.3960   36.5940 H   0  0  0  0  0  0  0  0  0  0  0  0
   38.4940   23.2240   38.8380 H   0  0  0  0  0  0  0  0  0  0  0  0
   36.5820   27.5600   29.9660 N   0  0  0  0  0  0  0  0  0  0  0  0
   36.5390   27.6170   31.4050 C   0  0  2  0  0  0  0  0  0  0  0  0
   36.2580   29.0510   31.8120 C   0  0  0  0  0  0  0  0  0  0  0  0
   35.7430   29.7980   30.7290 O   0  0  0  0  0  0  0  0  0  0  0  0
   36.8260   29.9300   29.8410 C   0  0  0  0  0  0  0  0  0  0  0  0
   37.4530   28.6140   29.5010 C   0  0  2  0  0  0  0  0  0  0  0  0
   35.6290   27.7840   29.6150 H   0  0  0  0  0  0  0  0  0  0  0  0
   35.8010   26.9120   31.8490 H   0  0  0  0  0  0  0  0  0  0  0  0
   37.1780   29.5780   32.1280 H   0  0  0  0  0  0  0  0  0  0  0  0
   35.5070   29.0870   32.6220 H   0  0  0  0  0  0  0  0  0  0  0  0
   36.3840   30.3570   28.9050 H   0  0  0  0  0  0  0  0  0  0  0  0
   37.6050   30.5920   30.2510 H   0  0  0  0  0  0  0  0  0  0  0  0
   38.4780   28.4930   29.8980 H   0  0  0  0  0  0  0  0  0  0  0  0
   37.5660   28.4740   28.1000 O   0  0  0  0  0  0  0  0  0  0  0  0
   37.3960   27.5280   27.8620 H   0  0  0  0  0  0  0  0  0  0  0  0
  1  2  1  0  0  0  0
  2  7  1  0  0  0  0
  3  4  1  0  0  0  0
  3  2  2  0  0  0  0
  4  5  2  0  0  0  0
  5  6  1  0  0  0  0
  6 12  1  0  0  0  0
  7  6  2  0  0  0  0
  8  3  1  0  0  0  0
  9  4  1  0  0  0  0
 10 15  1  0  0  0  0
 10 11  2  0  0  0  0
 11 13  1  0  0  0  0
 12 16  1  0  0  0  0
 12 11  1  0  0  0  0
 13 17  1  0  0  0  0
 13 14  1  0  0  0  0
 18 19  1  0  0  0  0
 19 20  1  0  0  0  0
 19 25  1  1  0  0  0
 19  1  1  0  0  0  0
 20 26  1  0  0  0  0
 20 27  1  0  0  0  0
 21 20  1  0  0  0  0
 22 29  1  0  0  0  0
 22 21  1  0  0  0  0
 23 22  1  0  0  0  0
 23 30  1  1  0  0  0
 23 18  1  0  0  0  0
 24 18  1  0  0  0  0
 28 22  1  0  0  0  0
 31 23  1  0  0  0  0
 32 31  1  0  0  0  0
M  END
>  <minimizedAffinity>
-5.13818359

$$$$

 OpenBabel03272502193D

 32 33  0  0  1  0  0  0  0  0999 V2000
   34.6940   30.6400   34.8720 S   0  0  0  0  0  0  0  0  0  0  0  0
   35.5190   29.4880   33.8080 C   0  0  0  0  0  0  0  0  0  0  0  0
   36.2130   28.4830   34.5030 C   0  0  0  0  0  0  0  0  0  0  0  0
   36.9010   27.5190   33.7840 C   0  0  0  0  0  0  0  0  0  0  0  0
   36.8660   27.6010   32.4170 N   0  0  0  0  0  0  0  0  0  0  0  0
   36.1920   28.5770   31.7730 C   0  0  0  0  0  0  0  0  0  0  0  0
   35.5320   29.5030   32.4640 N   0  0  0  0  0  0  0  0  0  0  0  0
   36.2520   28.4020   35.5860 H   0  0  0  0  0  0  0  0  0  0  0  0
   37.4480   26.7280   34.2790 H   0  0  0  0  0  0  0  0  0  0  0  0
   38.0300   27.1520   30.1430 N   0  0  0  0  0  0  0  0  0  0  0  0
   37.3190   28.0920   29.6340 C   0  0  0  0  0  0  0  0  0  0  0  0
   36.2000   28.6000   30.3500 N   0  0  0  0  0  0  0  0  0  0  0  0
   37.6350   28.6390   28.3580 N   0  0  0  0  0  0  0  0  0  0  0  0
   37.9460   29.0400   27.4570 H   0  0  0  0  0  0  0  0  0  0  0  0
   38.8530   26.7710   29.6300 H   0  0  0  0  0  0  0  0  0  0  0  0
   35.3890   28.9870   29.8180 H   0  0  0  0  0  0  0  0  0  0  0  0
   36.8860   28.7830   27.6420 H   0  0  0  0  0  0  0  0  0  0  0  0
   35.2570   32.0300   37.1110 N   0  0  0  0  0  0  0  0  0  0  0  0
   35.8870   31.5620   35.9030 C   0  0  2  0  0  0  0  0  0  0  0  0
   36.3600   32.7720   35.1190 C   0  0  0  0  0  0  0  0  0  0  0  0
   36.4120   33.9230   35.9360 O   0  0  0  0  0  0  0  0  0  0  0  0
   35.0660   34.2290   36.2040 C   0  0  0  0  0  0  0  0  0  0  0  0
   34.3090   33.0590   36.7530 C   0  0  2  0  0  0  0  0  0  0  0  0
   35.9900   32.4890   37.6890 H   0  0  0  0  0  0  0  0  0  0  0  0
   36.7180   30.8460   36.0920 H   0  0  0  0  0  0  0  0  0  0  0  0
   35.6690   33.0220   34.2920 H   0  0  0  0  0  0  0  0  0  0  0  0
   37.3780   32.6050   34.7210 H   0  0  0  0  0  0  0  0  0  0  0  0
   35.1000   35.0230   36.9930 H   0  0  0  0  0  0  0  0  0  0  0  0
   34.5460   34.5880   35.3020 H   0  0  0  0  0  0  0  0  0  0  0  0
   33.5330   32.6700   36.0670 H   0  0  0  0  0  0  0  0  0  0  0  0
   33.6270   33.4280   37.9330 O   0  0  0  0  0  0  0  0  0  0  0  0
   33.6520   32.6660   38.5640 H   0  0  0  0  0  0  0  0  0  0  0  0
  1 19  1  0  0  0  0
  2  3  1  0  0  0  0
  2  1  1  0  0  0  0
  3  8  1  0  0  0  0
  4  9  1  0  0  0  0
  4  3  2  0  0  0  0
  5  4  1  0  0  0  0
  6  5  2  0  0  0  0
  6  7  1  0  0  0  0
  7  2  2  0  0  0  0
 11 10  2  0  0  0  0
 11 12  1  0  0  0  0
 12  6  1  0  0  0  0
 13 11  1  0  0  0  0
 14 13  1  0  0  0  0
 15 10  1  0  0  0  0
 16 12  1  0  0  0  0
 17 13  1  0  0  0  0
 18 24  1  0  0  0  0
 19 25  1  1  0  0  0
 19 18  1  0  0  0  0
 20 19  1  0  0  0  0
 20 21  1  0  0  0  0
 21 22  1  0  0  0  0
 22 23  1  0  0  0  0
 22 28  1  0  0  0  0
 23 30  1  6  0  0  0
 23 18  1  0  0  0  0
 23 31  1  0  0  0  0
 26 20  1  0  0  0  0
 27 20  1  0  0  0  0
 29 22  1  0  0  0  0
 31 32  1  0  0  0  0
M  END
>  <minimizedAffinity>
-5.11105871

$$$$

 OpenBabel03272502193D

 32 33  0  0  1  0  0  0  0  0999 V2000
   38.9730   25.2960   32.1070 S   0  0  0  0  0  0  0  0  0  0  0  0
   38.8900   24.7380   33.7870 C   0  0  0  0  0  0  0  0  0  0  0  0
   38.1590   25.5960   34.6260 C   0  0  0  0  0  0  0  0  0  0  0  0
   38.0200   25.2720   35.9660 C   0  0  0  0  0  0  0  0  0  0  0  0
   38.6110   24.1160   36.4040 N   0  0  0  0  0  0  0  0  0  0  0  0
   39.3080   23.3090   35.5780 C   0  0  0  0  0  0  0  0  0  0  0  0
   39.4420   23.6210   34.2920 N   0  0  0  0  0  0  0  0  0  0  0  0
   37.6830   26.5160   34.2960 H   0  0  0  0  0  0  0  0  0  0  0  0
   37.4650   25.9040   36.6450 H   0  0  0  0  0  0  0  0  0  0  0  0
   39.7210   22.7960   38.3410 N   0  0  0  0  0  0  0  0  0  0  0  0
   40.3200   22.0780   37.4610 C   0  0  0  0  0  0  0  0  0  0  0  0
   39.8970   22.1230   36.1040 N   0  0  0  0  0  0  0  0  0  0  0  0
   41.4060   21.2330   37.8230 N   0  0  0  0  0  0  0  0  0  0  0  0
   42.2280   20.6840   38.1300 H   0  0  0  0  0  0  0  0  0  0  0  0
   40.0210   22.7730   39.3380 H   0  0  0  0  0  0  0  0  0  0  0  0
   40.0230   21.2790   35.5020 H   0  0  0  0  0  0  0  0  0  0  0  0
   41.4450   20.2440   37.4830 H   0  0  0  0  0  0  0  0  0  0  0  0
   37.9240   27.7190   31.5720 N   0  0  0  0  0  0  0  0  0  0  0  0
   39.1510   27.1120   32.0200 C   0  0  2  0  0  0  0  0  0  0  0  0
   40.2340   27.4370   31.0080 C   0  0  0  0  0  0  0  0  0  0  0  0
   39.8540   28.5160   30.1800 O   0  0  0  0  0  0  0  0  0  0  0  0
   38.8190   28.0020   29.3790 C   0  0  0  0  0  0  0  0  0  0  0  0
   37.7290   27.3670   30.1850 C   0  0  2  0  0  0  0  0  0  0  0  0
   38.0560   28.7510   31.6030 H   0  0  0  0  0  0  0  0  0  0  0  0
   39.4440   27.4220   33.0480 H   0  0  0  0  0  0  0  0  0  0  0  0
   40.4270   26.5880   30.3240 H   0  0  0  0  0  0  0  0  0  0  0  0
   41.1700   27.7280   31.5190 H   0  0  0  0  0  0  0  0  0  0  0  0
   38.3900   28.8920   28.8520 H   0  0  0  0  0  0  0  0  0  0  0  0
   39.1980   27.2590   28.6590 H   0  0  0  0  0  0  0  0  0  0  0  0
   37.6580   26.2710   30.0540 H   0  0  0  0  0  0  0  0  0  0  0  0
   36.4720   27.8810   29.7970 O   0  0  0  0  0  0  0  0  0  0  0  0
   35.9010   27.9630   30.6020 H   0  0  0  0  0  0  0  0  0  0  0  0
  1  2  1  0  0  0  0
  2  7  2  0  0  0  0
  2  3  1  0  0  0  0
  3  4  2  0  0  0  0
  4  5  1  0  0  0  0
  4  9  1  0  0  0  0
  6 12  1  0  0  0  0
  6  5  2  0  0  0  0
  7  6  1  0  0  0  0
  8  3  1  0  0  0  0
 10 15  1  0  0  0  0
 11 13  1  0  0  0  0
 11 10  2  0  0  0  0
 12 11  1  0  0  0  0
 13 14  1  0  0  0  0
 16 12  1  0  0  0  0
 17 13  1  0  0  0  0
 18 24  1  0  0  0  0
 18 19  1  0  0  0  0
 19  1  1  0  0  0  0
 19 25  1  1  0  0  0
 20 27  1  0  0  0  0
 20 19  1  0  0  0  0
 21 20  1  0  0  0  0
 22 21  1  0  0  0  0
 22 23  1  0  0  0  0
 23 30  1  6  0  0  0
 23 18  1  0  0  0  0
 26 20  1  0  0  0  0
 28 22  1  0  0  0  0
 29 22  1  0  0  0  0
 31 23  1  0  0  0  0
 31 32  1  0  0  0  0
M  END
>  <minimizedAffinity>
-4.92659521

$$$$

 OpenBabel03272502193D

 32 33  0  0  1  0  0  0  0  0999 V2000
   39.8020   24.9950   31.7580 S   0  0  0  0  0  0  0  0  0  0  0  0
   40.1220   24.3780   33.3890 C   0  0  0  0  0  0  0  0  0  0  0  0
   41.3610   23.7250   33.5070 C   0  0  0  0  0  0  0  0  0  0  0  0
   41.7300   23.1960   34.7340 C   0  0  0  0  0  0  0  0  0  0  0  0
   40.8540   23.3420   35.7770 N   0  0  0  0  0  0  0  0  0  0  0  0
   39.6700   23.9730   35.6380 C   0  0  0  0  0  0  0  0  0  0  0  0
   39.3160   24.4800   34.4600 N   0  0  0  0  0  0  0  0  0  0  0  0
   42.0680   23.6000   32.6910 H   0  0  0  0  0  0  0  0  0  0  0  0
   42.6740   22.6870   34.8680 H   0  0  0  0  0  0  0  0  0  0  0  0
   39.9010   22.4280   38.0090 N   0  0  0  0  0  0  0  0  0  0  0  0
   38.8230   23.0880   37.7780 C   0  0  0  0  0  0  0  0  0  0  0  0
   38.8090   24.0870   36.7660 N   0  0  0  0  0  0  0  0  0  0  0  0
   37.6370   22.8330   38.5210 N   0  0  0  0  0  0  0  0  0  0  0  0
   36.7880   22.5650   39.0480 H   0  0  0  0  0  0  0  0  0  0  0  0
   39.9250   21.6930   38.7470 H   0  0  0  0  0  0  0  0  0  0  0  0
   38.1620   24.9010   36.8640 H   0  0  0  0  0  0  0  0  0  0  0  0
   37.0780   23.6240   38.9160 H   0  0  0  0  0  0  0  0  0  0  0  0
   37.7600   24.4050   30.1030 N   0  0  0  0  0  0  0  0  0  0  0  0
   38.8780   23.7770   30.7590 C   0  0  2  0  0  0  0  0  0  0  0  0
   38.3380   22.7070   31.6900 C   0  0  0  0  0  0  0  0  0  0  0  0
   37.0050   22.3720   31.3660 O   0  0  0  0  0  0  0  0  0  0  0  0
   36.2560   23.5070   31.7240 C   0  0  0  0  0  0  0  0  0  0  0  0
   36.7920   24.7650   31.1130 C   0  0  2  0  0  0  0  0  0  0  0  0
   37.3080   23.6890   29.4990 H   0  0  0  0  0  0  0  0  0  0  0  0
   39.6260   23.3610   30.0470 H   0  0  0  0  0  0  0  0  0  0  0  0
   38.3130   23.0510   32.7420 H   0  0  0  0  0  0  0  0  0  0  0  0
   38.9380   21.7820   31.6110 H   0  0  0  0  0  0  0  0  0  0  0  0
   35.2340   23.3250   31.3050 H   0  0  0  0  0  0  0  0  0  0  0  0
   36.2200   23.6390   32.8170 H   0  0  0  0  0  0  0  0  0  0  0  0
   37.2220   25.4700   31.8490 H   0  0  0  0  0  0  0  0  0  0  0  0
   35.7560   25.4730   30.4640 O   0  0  0  0  0  0  0  0  0  0  0  0
   36.1220   25.8870   29.6430 H   0  0  0  0  0  0  0  0  0  0  0  0
  1  2  1  0  0  0  0
  2  3  2  0  0  0  0
  2  7  1  0  0  0  0
  3  4  1  0  0  0  0
  4  9  1  0  0  0  0
  4  5  2  0  0  0  0
  6  5  1  0  0  0  0
  6 12  1  0  0  0  0
  7  6  2  0  0  0  0
  8  3  1  0  0  0  0
 10 15  1  0  0  0  0
 11 10  2  0  0  0  0
 11 13  1  0  0  0  0
 12 16  1  0  0  0  0
 12 11  1  0  0  0  0
 13 17  1  0  0  0  0
 13 14  1  0  0  0  0
 18 19  1  0  0  0  0
 18 23  1  0  0  0  0
 19 25  1  6  0  0  0
 19 20  1  0  0  0  0
 19  1  1  0  0  0  0
 20 26  1  0  0  0  0
 21 20  1  0  0  0  0
 21 22  1  0  0  0  0
 22 29  1  0  0  0  0
 23 22  1  0  0  0  0
 23 30  1  1  0  0  0
 24 18  1  0  0  0  0
 27 20  1  0  0  0  0
 28 22  1  0  0  0  0
 31 23  1  0  0  0  0
 32 31  1  0  0  0  0
M  END
>  <minimizedAffinity>
-4.86442661

$$$$
