
 OpenBabel03262521203D

 28 28  0  0  0  0  0  0  0  0999 V2000
   38.0430   21.9670   33.4990 C   0  0  0  0  0  0  0  0  0  0  0  0
   39.4010   22.1340   33.7130 C   0  0  0  0  0  0  0  0  0  0  0  0
   39.8830   22.2610   35.0310 C   0  0  0  0  0  0  0  0  0  0  0  0
   38.9460   22.2070   36.0410 N   0  0  0  0  0  0  0  0  0  0  0  0
   37.6290   22.0410   35.7820 C   0  0  0  0  0  0  0  0  0  0  0  0
   37.2090   21.9260   34.5450 N   0  0  0  0  0  0  0  0  0  0  0  0
   40.1840   22.1850   32.9730 H   0  0  0  0  0  0  0  0  0  0  0  0
   40.9360   22.3940   35.2530 H   0  0  0  0  0  0  0  0  0  0  0  0
   35.2670   20.5340   35.8550 N   0  0  0  0  0  0  0  0  0  0  0  0
   35.6910   21.0160   36.9630 C   0  0  0  0  0  0  0  0  0  0  0  0
   36.7210   21.9960   36.8870 N   0  0  0  0  0  0  0  0  0  0  0  0
   35.2520   20.6830   38.2770 N   0  0  0  0  0  0  0  0  0  0  0  0
   35.1410   19.8200   38.8550 H   0  0  0  0  0  0  0  0  0  0  0  0
   34.5370   19.8270   35.7170 H   0  0  0  0  0  0  0  0  0  0  0  0
   36.8240   22.7070   37.6570 H   0  0  0  0  0  0  0  0  0  0  0  0
   34.9110   21.3380   39.0130 H   0  0  0  0  0  0  0  0  0  0  0  0
   37.7430   21.8590   32.1620 O   0  0  0  0  0  0  0  0  0  0  0  0
   36.5330   22.3580   31.7390 C   0  0  0  0  0  0  0  0  0  0  0  0
   36.0130   22.7590   32.6580 H   0  0  0  0  0  0  0  0  0  0  0  0
   36.5830   23.2360   31.0530 H   0  0  0  0  0  0  0  0  0  0  0  0
   36.0050   21.2200   31.2440 C   0  0  0  0  0  0  0  0  0  0  0  0
   36.7470   20.4110   30.9980 H   0  0  0  0  0  0  0  0  0  0  0  0
   35.5850   21.4080   30.2060 H   0  0  0  0  0  0  0  0  0  0  0  0
   34.9190   20.5540   32.0210 C   0  0  0  0  0  0  0  0  0  0  0  0
   33.9950   20.5380   31.3720 H   0  0  0  0  0  0  0  0  0  0  0  0
   34.6300   21.0830   32.9440 H   0  0  0  0  0  0  0  0  0  0  0  0
   35.3300   18.8660   32.4820 S   0  0  0  0  0  0  0  0  0  0  0  0
   34.2020   18.1870   32.9180 H   0  0  0  0  0  0  0  0  0  0  0  0
  1  2  2  0  0  0  0
  1  6  1  0  0  0  0
  2  3  1  0  0  0  0
  3  8  1  0  0  0  0
  3  4  2  0  0  0  0
  5  4  1  0  0  0  0
  5 11  1  0  0  0  0
  6  5  2  0  0  0  0
  7  2  1  0  0  0  0
  9 10  2  0  0  0  0
 10 12  1  0  0  0  0
 11 10  1  0  0  0  0
 11 15  1  0  0  0  0
 12 13  1  0  0  0  0
 12 16  1  0  0  0  0
 14  9  1  0  0  0  0
 17  1  1  0  0  0  0
 18 17  1  0  0  0  0
 18 19  1  0  0  0  0
 20 18  1  0  0  0  0
 21 18  1  0  0  0  0
 21 24  1  0  0  0  0
 22 21  1  0  0  0  0
 23 21  1  0  0  0  0
 24 27  1  0  0  0  0
 24 26  1  0  0  0  0
 25 24  1  0  0  0  0
 27 28  1  0  0  0  0
M  END
>  <minimizedAffinity>
-4.60088205

$$$$

 OpenBabel03262521203D

 28 28  0  0  0  0  0  0  0  0999 V2000
   38.4500   22.0850   33.4870 C   0  0  0  0  0  0  0  0  0  0  0  0
   39.7660   22.2360   33.8900 C   0  0  0  0  0  0  0  0  0  0  0  0
   40.0650   22.2980   35.2650 C   0  0  0  0  0  0  0  0  0  0  0  0
   39.0000   22.2030   36.1360 N   0  0  0  0  0  0  0  0  0  0  0  0
   37.7310   22.0560   35.6940 C   0  0  0  0  0  0  0  0  0  0  0  0
   37.4810   22.0020   34.4080 N   0  0  0  0  0  0  0  0  0  0  0  0
   40.6420   22.3160   33.2660 H   0  0  0  0  0  0  0  0  0  0  0  0
   41.0790   22.4150   35.6340 H   0  0  0  0  0  0  0  0  0  0  0  0
   35.3810   20.5610   35.3770 N   0  0  0  0  0  0  0  0  0  0  0  0
   35.6520   20.9890   36.5530 C   0  0  0  0  0  0  0  0  0  0  0  0
   36.6810   21.9660   36.6630 N   0  0  0  0  0  0  0  0  0  0  0  0
   35.0390   20.5980   37.7790 N   0  0  0  0  0  0  0  0  0  0  0  0
   34.8510   19.7100   38.2960 H   0  0  0  0  0  0  0  0  0  0  0  0
   34.6770   19.8650   35.1090 H   0  0  0  0  0  0  0  0  0  0  0  0
   36.6790   22.6400   37.4720 H   0  0  0  0  0  0  0  0  0  0  0  0
   34.6010   21.2200   38.4920 H   0  0  0  0  0  0  0  0  0  0  0  0
   38.3340   22.0420   32.1190 O   0  0  0  0  0  0  0  0  0  0  0  0
   37.0650   22.0400   31.5870 C   0  0  0  0  0  0  0  0  0  0  0  0
   37.0120   21.1560   30.8870 H   0  0  0  0  0  0  0  0  0  0  0  0
   36.2360   21.8600   32.3120 H   0  0  0  0  0  0  0  0  0  0  0  0
   37.0970   23.2420   30.9770 C   0  0  0  0  0  0  0  0  0  0  0  0
   36.9930   23.2200   29.8580 H   0  0  0  0  0  0  0  0  0  0  0  0
   38.1390   23.6890   31.0570 H   0  0  0  0  0  0  0  0  0  0  0  0
   36.1540   24.2960   31.4530 C   0  0  0  0  0  0  0  0  0  0  0  0
   35.3440   23.7850   32.0510 H   0  0  0  0  0  0  0  0  0  0  0  0
   35.6350   24.8390   30.6450 H   0  0  0  0  0  0  0  0  0  0  0  0
   36.9520   25.5250   32.4930 S   0  0  0  0  0  0  0  0  0  0  0  0
   36.0090   26.2930   33.1590 H   0  0  0  0  0  0  0  0  0  0  0  0
  1  2  2  0  0  0  0
  1  6  1  0  0  0  0
  2  3  1  0  0  0  0
  3  8  1  0  0  0  0
  3  4  2  0  0  0  0
  5  4  1  0  0  0  0
  5 11  1  0  0  0  0
  6  5  2  0  0  0  0
  7  2  1  0  0  0  0
  9 10  2  0  0  0  0
 10 11  1  0  0  0  0
 10 12  1  0  0  0  0
 11 15  1  0  0  0  0
 12 13  1  0  0  0  0
 12 16  1  0  0  0  0
 14  9  1  0  0  0  0
 17  1  1  0  0  0  0
 18 17  1  0  0  0  0
 18 20  1  0  0  0  0
 19 18  1  0  0  0  0
 21 23  1  0  0  0  0
 21 24  1  0  0  0  0
 21 18  1  0  0  0  0
 22 21  1  0  0  0  0
 24 25  1  0  0  0  0
 24 27  1  0  0  0  0
 26 24  1  0  0  0  0
 27 28  1  0  0  0  0
M  END
>  <minimizedAffinity>
-4.4953413

$$$$

 OpenBabel03262521203D

 28 28  0  0  0  0  0  0  0  0999 V2000
   39.0140   24.6390   36.0550 C   0  0  0  0  0  0  0  0  0  0  0  0
   38.1490   25.1230   37.0210 C   0  0  0  0  0  0  0  0  0  0  0  0
   37.9680   24.3970   38.2150 C   0  0  0  0  0  0  0  0  0  0  0  0
   38.6840   23.2260   38.3420 N   0  0  0  0  0  0  0  0  0  0  0  0
   39.5190   22.7930   37.3700 C   0  0  0  0  0  0  0  0  0  0  0  0
   39.6670   23.4890   36.2680 N   0  0  0  0  0  0  0  0  0  0  0  0
   37.5610   26.0270   36.9860 H   0  0  0  0  0  0  0  0  0  0  0  0
   37.3020   24.7330   39.0020 H   0  0  0  0  0  0  0  0  0  0  0  0
   42.0820   22.2310   36.3820 N   0  0  0  0  0  0  0  0  0  0  0  0
   41.6130   21.4480   37.2810 C   0  0  0  0  0  0  0  0  0  0  0  0
   40.2260   21.5660   37.5790 N   0  0  0  0  0  0  0  0  0  0  0  0
   42.3220   20.4620   38.0270 N   0  0  0  0  0  0  0  0  0  0  0  0
   43.1730   20.4210   38.6320 H   0  0  0  0  0  0  0  0  0  0  0  0
   43.0470   22.2870   36.0400 H   0  0  0  0  0  0  0  0  0  0  0  0
   39.7010   20.7380   37.9630 H   0  0  0  0  0  0  0  0  0  0  0  0
   42.0860   19.4510   38.1210 H   0  0  0  0  0  0  0  0  0  0  0  0
   39.0750   25.4640   34.9580 O   0  0  0  0  0  0  0  0  0  0  0  0
   39.3610   26.7920   35.1760 C   0  0  0  0  0  0  0  0  0  0  0  0
   38.5470   27.3830   34.6620 H   0  0  0  0  0  0  0  0  0  0  0  0
   39.3120   27.1320   36.2380 H   0  0  0  0  0  0  0  0  0  0  0  0
   40.5640   26.8440   34.5690 C   0  0  0  0  0  0  0  0  0  0  0  0
   41.2050   25.9270   34.6880 H   0  0  0  0  0  0  0  0  0  0  0  0
   41.2280   27.6040   35.0900 H   0  0  0  0  0  0  0  0  0  0  0  0
   40.6030   27.1810   33.1160 C   0  0  0  0  0  0  0  0  0  0  0  0
   39.9570   28.0930   32.9590 H   0  0  0  0  0  0  0  0  0  0  0  0
   40.1880   26.4000   32.4570 H   0  0  0  0  0  0  0  0  0  0  0  0
   42.2640   27.5420   32.5320 S   0  0  0  0  0  0  0  0  0  0  0  0
   42.2260   28.1440   31.2830 H   0  0  0  0  0  0  0  0  0  0  0  0
  1  6  2  0  0  0  0
  1  2  1  0  0  0  0
  2  3  2  0  0  0  0
  3  4  1  0  0  0  0
  3  8  1  0  0  0  0
  5 11  1  0  0  0  0
  5  4  2  0  0  0  0
  6  5  1  0  0  0  0
  7  2  1  0  0  0  0
  9 10  2  0  0  0  0
 10 11  1  0  0  0  0
 10 12  1  0  0  0  0
 11 15  1  0  0  0  0
 12 16  1  0  0  0  0
 12 13  1  0  0  0  0
 14  9  1  0  0  0  0
 17 18  1  0  0  0  0
 17  1  1  0  0  0  0
 18 20  1  0  0  0  0
 19 18  1  0  0  0  0
 21 22  1  0  0  0  0
 21 23  1  0  0  0  0
 21 18  1  0  0  0  0
 24 21  1  0  0  0  0
 25 24  1  0  0  0  0
 26 24  1  0  0  0  0
 27 24  1  0  0  0  0
 28 27  1  0  0  0  0
M  END
>  <minimizedAffinity>
-4.47495413

$$$$

 OpenBabel03262521203D

 28 28  0  0  0  0  0  0  0  0999 V2000
   39.3310   24.7550   35.6990 C   0  0  0  0  0  0  0  0  0  0  0  0
   38.2760   25.1710   36.4930 C   0  0  0  0  0  0  0  0  0  0  0  0
   37.8570   24.3600   37.5670 C   0  0  0  0  0  0  0  0  0  0  0  0
   38.5440   23.1800   37.7570 N   0  0  0  0  0  0  0  0  0  0  0  0
   39.5700   22.8170   36.9540 C   0  0  0  0  0  0  0  0  0  0  0  0
   39.9380   23.5910   35.9620 N   0  0  0  0  0  0  0  0  0  0  0  0
   37.6980   26.0760   36.4010 H   0  0  0  0  0  0  0  0  0  0  0  0
   37.0360   24.6390   38.2190 H   0  0  0  0  0  0  0  0  0  0  0  0
   42.2890   22.3190   36.4910 N   0  0  0  0  0  0  0  0  0  0  0  0
   41.6510   21.4740   37.2120 C   0  0  0  0  0  0  0  0  0  0  0  0
   40.2310   21.5750   37.2180 N   0  0  0  0  0  0  0  0  0  0  0  0
   42.1990   20.4340   38.0180 N   0  0  0  0  0  0  0  0  0  0  0  0
   42.9040   20.3450   38.7830 H   0  0  0  0  0  0  0  0  0  0  0  0
   43.3040   22.3960   36.3650 H   0  0  0  0  0  0  0  0  0  0  0  0
   39.6470   20.7230   37.4220 H   0  0  0  0  0  0  0  0  0  0  0  0
   41.9610   19.4190   37.9860 H   0  0  0  0  0  0  0  0  0  0  0  0
   39.6110   25.6580   34.7030 O   0  0  0  0  0  0  0  0  0  0  0  0
   39.0570   26.9130   34.8060 C   0  0  0  0  0  0  0  0  0  0  0  0
   38.1730   26.8160   35.5020 H   0  0  0  0  0  0  0  0  0  0  0  0
   39.6970   27.6880   35.2910 H   0  0  0  0  0  0  0  0  0  0  0  0
   38.7370   27.1030   33.5100 C   0  0  0  0  0  0  0  0  0  0  0  0
   39.2830   26.4480   32.7770 H   0  0  0  0  0  0  0  0  0  0  0  0
   39.1100   28.1190   33.1640 H   0  0  0  0  0  0  0  0  0  0  0  0
   37.2970   27.0330   33.1250 C   0  0  0  0  0  0  0  0  0  0  0  0
   37.0930   27.8810   32.4090 H   0  0  0  0  0  0  0  0  0  0  0  0
   36.5950   27.1710   33.9640 H   0  0  0  0  0  0  0  0  0  0  0  0
   36.8690   25.4830   32.3220 S   0  0  0  0  0  0  0  0  0  0  0  0
   35.6280   25.5730   31.7090 H   0  0  0  0  0  0  0  0  0  0  0  0
  1  6  2  0  0  0  0
  1  2  1  0  0  0  0
  2  3  2  0  0  0  0
  3  4  1  0  0  0  0
  3  8  1  0  0  0  0
  5 11  1  0  0  0  0
  5  4  2  0  0  0  0
  6  5  1  0  0  0  0
  7  2  1  0  0  0  0
  9 10  2  0  0  0  0
 10 11  1  0  0  0  0
 10 12  1  0  0  0  0
 11 15  1  0  0  0  0
 12 13  1  0  0  0  0
 14  9  1  0  0  0  0
 16 12  1  0  0  0  0
 17 18  1  0  0  0  0
 17  1  1  0  0  0  0
 18 20  1  0  0  0  0
 18 19  1  0  0  0  0
 21 18  1  0  0  0  0
 22 21  1  0  0  0  0
 23 21  1  0  0  0  0
 24 21  1  0  0  0  0
 24 26  1  0  0  0  0
 25 24  1  0  0  0  0
 27 24  1  0  0  0  0
 28 27  1  0  0  0  0
M  END
>  <minimizedAffinity>
-4.32606506

$$$$

 OpenBabel03262521203D

 28 28  0  0  0  0  0  0  0  0999 V2000
   37.6460   22.0890   32.7270 C   0  0  0  0  0  0  0  0  0  0  0  0
   36.8350   22.1760   31.6080 C   0  0  0  0  0  0  0  0  0  0  0  0
   35.5270   21.6550   31.6590 C   0  0  0  0  0  0  0  0  0  0  0  0
   35.1360   21.0800   32.8490 N   0  0  0  0  0  0  0  0  0  0  0  0
   35.9640   21.0180   33.9160 C   0  0  0  0  0  0  0  0  0  0  0  0
   37.1770   21.5120   33.8400 N   0  0  0  0  0  0  0  0  0  0  0  0
   37.0770   22.6100   30.6510 H   0  0  0  0  0  0  0  0  0  0  0  0
   34.8530   21.6970   30.8110 H   0  0  0  0  0  0  0  0  0  0  0  0
   36.7100   21.7670   36.5130 N   0  0  0  0  0  0  0  0  0  0  0  0
   35.6910   21.0000   36.3910 C   0  0  0  0  0  0  0  0  0  0  0  0
   35.4820   20.4040   35.1160 N   0  0  0  0  0  0  0  0  0  0  0  0
   34.7320   20.6690   37.3920 N   0  0  0  0  0  0  0  0  0  0  0  0
   34.0960   21.1780   38.0460 H   0  0  0  0  0  0  0  0  0  0  0  0
   37.0160   22.2760   37.3480 H   0  0  0  0  0  0  0  0  0  0  0  0
   34.9600   19.4920   35.0440 H   0  0  0  0  0  0  0  0  0  0  0  0
   34.4450   19.7150   37.7000 H   0  0  0  0  0  0  0  0  0  0  0  0
   38.8830   22.6450   32.5090 O   0  0  0  0  0  0  0  0  0  0  0  0
   39.0460   23.9770   32.8110 C   0  0  0  0  0  0  0  0  0  0  0  0
   39.2950   24.4970   31.8400 H   0  0  0  0  0  0  0  0  0  0  0  0
   38.1340   24.5060   33.1750 H   0  0  0  0  0  0  0  0  0  0  0  0
   40.0770   23.8670   33.6730 C   0  0  0  0  0  0  0  0  0  0  0  0
   40.9380   24.5660   33.4880 H   0  0  0  0  0  0  0  0  0  0  0  0
   40.6070   22.8740   33.5170 H   0  0  0  0  0  0  0  0  0  0  0  0
   39.7840   23.9600   35.1330 C   0  0  0  0  0  0  0  0  0  0  0  0
   40.6850   24.4200   35.6340 H   0  0  0  0  0  0  0  0  0  0  0  0
   39.6280   22.9870   35.6280 H   0  0  0  0  0  0  0  0  0  0  0  0
   38.3440   24.9750   35.4880 S   0  0  0  0  0  0  0  0  0  0  0  0
   38.2870   25.2920   36.8370 H   0  0  0  0  0  0  0  0  0  0  0  0
  1  6  1  0  0  0  0
  2  3  1  0  0  0  0
  2  1  2  0  0  0  0
  3  4  2  0  0  0  0
  4  5  1  0  0  0  0
  5 11  1  0  0  0  0
  6  5  2  0  0  0  0
  7  2  1  0  0  0  0
  8  3  1  0  0  0  0
  9 14  1  0  0  0  0
 10  9  2  0  0  0  0
 10 12  1  0  0  0  0
 11 10  1  0  0  0  0
 12 16  1  0  0  0  0
 12 13  1  0  0  0  0
 15 11  1  0  0  0  0
 17  1  1  0  0  0  0
 17 18  1  0  0  0  0
 18 20  1  0  0  0  0
 18 21  1  0  0  0  0
 19 18  1  0  0  0  0
 21 24  1  0  0  0  0
 22 21  1  0  0  0  0
 23 21  1  0  0  0  0
 24 27  1  0  0  0  0
 24 26  1  0  0  0  0
 24 25  1  0  0  0  0
 27 28  1  0  0  0  0
M  END
>  <minimizedAffinity>
-4.28132391

$$$$

 OpenBabel03262521203D

 28 28  0  0  0  0  0  0  0  0999 V2000
   38.3190   25.2670   33.8430 C   0  0  0  0  0  0  0  0  0  0  0  0
   38.5620   26.6280   33.9090 C   0  0  0  0  0  0  0  0  0  0  0  0
   38.5770   27.2680   35.1650 C   0  0  0  0  0  0  0  0  0  0  0  0
   38.3440   26.4730   36.2670 N   0  0  0  0  0  0  0  0  0  0  0  0
   38.1110   25.1460   36.1520 C   0  0  0  0  0  0  0  0  0  0  0  0
   38.1020   24.5770   34.9710 N   0  0  0  0  0  0  0  0  0  0  0  0
   38.7520   27.3040   33.0910 H   0  0  0  0  0  0  0  0  0  0  0  0
   38.7630   28.3310   35.2720 H   0  0  0  0  0  0  0  0  0  0  0  0
   38.8450   22.4670   36.5260 N   0  0  0  0  0  0  0  0  0  0  0  0
   38.5050   23.1340   37.5650 C   0  0  0  0  0  0  0  0  0  0  0  0
   37.8760   24.3920   37.3460 N   0  0  0  0  0  0  0  0  0  0  0  0
   38.6840   22.7630   38.9300 N   0  0  0  0  0  0  0  0  0  0  0  0
   39.4710   22.4660   39.5490 H   0  0  0  0  0  0  0  0  0  0  0  0
   39.3030   21.5500   36.4920 H   0  0  0  0  0  0  0  0  0  0  0  0
   37.2240   24.7850   38.0730 H   0  0  0  0  0  0  0  0  0  0  0  0
   37.9520   22.7140   39.6710 H   0  0  0  0  0  0  0  0  0  0  0  0
   38.3400   24.8030   32.5500 O   0  0  0  0  0  0  0  0  0  0  0  0
   37.8930   23.5220   32.3250 C   0  0  0  0  0  0  0  0  0  0  0  0
   38.8130   22.8740   32.2290 H   0  0  0  0  0  0  0  0  0  0  0  0
   37.3200   23.0550   33.1600 H   0  0  0  0  0  0  0  0  0  0  0  0
   37.2310   23.7360   31.1700 C   0  0  0  0  0  0  0  0  0  0  0  0
   37.5400   23.0830   30.3080 H   0  0  0  0  0  0  0  0  0  0  0  0
   37.5140   24.7510   30.7440 H   0  0  0  0  0  0  0  0  0  0  0  0
   35.7400   23.6950   31.1980 C   0  0  0  0  0  0  0  0  0  0  0  0
   35.4270   23.3130   32.2130 H   0  0  0  0  0  0  0  0  0  0  0  0
   35.2900   23.0060   30.4650 H   0  0  0  0  0  0  0  0  0  0  0  0
   34.9960   25.3100   30.9340 S   0  0  0  0  0  0  0  0  0  0  0  0
   33.6510   25.2930   31.2720 H   0  0  0  0  0  0  0  0  0  0  0  0
  1  2  2  0  0  0  0
  1  6  1  0  0  0  0
  2  3  1  0  0  0  0
  3  8  1  0  0  0  0
  3  4  2  0  0  0  0
  5  4  1  0  0  0  0
  5 11  1  0  0  0  0
  6  5  2  0  0  0  0
  7  2  1  0  0  0  0
  9 10  2  0  0  0  0
 10 12  1  0  0  0  0
 11 10  1  0  0  0  0
 11 15  1  0  0  0  0
 12 13  1  0  0  0  0
 12 16  1  0  0  0  0
 14  9  1  0  0  0  0
 17  1  1  0  0  0  0
 18 17  1  0  0  0  0
 18 20  1  0  0  0  0
 19 18  1  0  0  0  0
 21 24  1  0  0  0  0
 21 18  1  0  0  0  0
 22 21  1  0  0  0  0
 23 21  1  0  0  0  0
 24 25  1  0  0  0  0
 26 24  1  0  0  0  0
 27 24  1  0  0  0  0
 27 28  1  0  0  0  0
M  END
>  <minimizedAffinity>
-4.24941969

$$$$

 OpenBabel03262521203D

 28 28  0  0  0  0  0  0  0  0999 V2000
   37.9350   25.6960   33.9390 C   0  0  0  0  0  0  0  0  0  0  0  0
   38.0810   27.0580   34.1400 C   0  0  0  0  0  0  0  0  0  0  0  0
   38.2560   27.5490   35.4490 C   0  0  0  0  0  0  0  0  0  0  0  0
   38.2720   26.6150   36.4640 N   0  0  0  0  0  0  0  0  0  0  0  0
   38.1260   25.2940   36.2170 C   0  0  0  0  0  0  0  0  0  0  0  0
   37.9630   24.8650   34.9880 N   0  0  0  0  0  0  0  0  0  0  0  0
   38.0780   27.8380   33.3960 H   0  0  0  0  0  0  0  0  0  0  0  0
   38.3750   28.6060   35.6610 H   0  0  0  0  0  0  0  0  0  0  0  0
   39.1150   22.6720   36.1250 N   0  0  0  0  0  0  0  0  0  0  0  0
   38.9030   23.1810   37.2810 C   0  0  0  0  0  0  0  0  0  0  0  0
   38.1520   24.3890   37.3270 N   0  0  0  0  0  0  0  0  0  0  0  0
   39.3350   22.6760   38.5420 N   0  0  0  0  0  0  0  0  0  0  0  0
   40.2350   22.3870   38.9870 H   0  0  0  0  0  0  0  0  0  0  0  0
   39.6300   21.8140   35.9020 H   0  0  0  0  0  0  0  0  0  0  0  0
   37.6020   24.6320   38.1910 H   0  0  0  0  0  0  0  0  0  0  0  0
   38.7440   22.4720   39.3760 H   0  0  0  0  0  0  0  0  0  0  0  0
   37.7750   25.3870   32.6090 O   0  0  0  0  0  0  0  0  0  0  0  0
   36.8250   26.0870   31.9030 C   0  0  0  0  0  0  0  0  0  0  0  0
   36.4100   26.8650   32.6080 H   0  0  0  0  0  0  0  0  0  0  0  0
   37.2040   26.6820   31.0380 H   0  0  0  0  0  0  0  0  0  0  0  0
   35.9840   25.0690   31.6270 C   0  0  0  0  0  0  0  0  0  0  0  0
   35.0470   25.3530   31.0740 H   0  0  0  0  0  0  0  0  0  0  0  0
   35.5220   24.6780   32.5880 H   0  0  0  0  0  0  0  0  0  0  0  0
   36.5340   23.8800   30.9130 C   0  0  0  0  0  0  0  0  0  0  0  0
   37.6510   23.8710   31.0720 H   0  0  0  0  0  0  0  0  0  0  0  0
   36.3850   23.8970   29.8210 H   0  0  0  0  0  0  0  0  0  0  0  0
   35.8520   22.3310   31.5190 S   0  0  0  0  0  0  0  0  0  0  0  0
   36.5980   21.2540   31.0630 H   0  0  0  0  0  0  0  0  0  0  0  0
  1  2  2  0  0  0  0
  1  6  1  0  0  0  0
  2  3  1  0  0  0  0
  3  8  1  0  0  0  0
  3  4  2  0  0  0  0
  5  4  1  0  0  0  0
  5 11  1  0  0  0  0
  6  5  2  0  0  0  0
  7  2  1  0  0  0  0
  9 10  2  0  0  0  0
 10 11  1  0  0  0  0
 10 12  1  0  0  0  0
 11 15  1  0  0  0  0
 12 13  1  0  0  0  0
 12 16  1  0  0  0  0
 14  9  1  0  0  0  0
 17  1  1  0  0  0  0
 18 19  1  0  0  0  0
 18 17  1  0  0  0  0
 20 18  1  0  0  0  0
 21 18  1  0  0  0  0
 21 23  1  0  0  0  0
 22 21  1  0  0  0  0
 24 25  1  0  0  0  0
 24 27  1  0  0  0  0
 24 21  1  0  0  0  0
 26 24  1  0  0  0  0
 28 27  1  0  0  0  0
M  END
>  <minimizedAffinity>
-4.17008734

$$$$

 OpenBabel03262521203D

 28 28  0  0  0  0  0  0  0  0999 V2000
   38.2890   25.2890   33.9220 C   0  0  0  0  0  0  0  0  0  0  0  0
   38.5030   26.6550   33.9920 C   0  0  0  0  0  0  0  0  0  0  0  0
   38.5210   27.2880   35.2510 C   0  0  0  0  0  0  0  0  0  0  0  0
   38.3180   26.4830   36.3520 N   0  0  0  0  0  0  0  0  0  0  0  0
   38.1130   25.1520   36.2330 C   0  0  0  0  0  0  0  0  0  0  0  0
   38.1020   24.5890   35.0480 N   0  0  0  0  0  0  0  0  0  0  0  0
   38.6680   27.3400   33.1760 H   0  0  0  0  0  0  0  0  0  0  0  0
   38.6840   28.3540   35.3620 H   0  0  0  0  0  0  0  0  0  0  0  0
   38.9100   22.4870   36.5820 N   0  0  0  0  0  0  0  0  0  0  0  0
   38.5680   23.1410   37.6290 C   0  0  0  0  0  0  0  0  0  0  0  0
   37.9100   24.3860   37.4250 N   0  0  0  0  0  0  0  0  0  0  0  0
   38.7730   22.7670   38.9890 N   0  0  0  0  0  0  0  0  0  0  0  0
   39.5740   22.4840   39.5960 H   0  0  0  0  0  0  0  0  0  0  0  0
   39.3870   21.5810   36.5360 H   0  0  0  0  0  0  0  0  0  0  0  0
   37.2580   24.7610   38.1630 H   0  0  0  0  0  0  0  0  0  0  0  0
   38.0520   22.6980   39.7390 H   0  0  0  0  0  0  0  0  0  0  0  0
   38.3040   24.8330   32.6260 O   0  0  0  0  0  0  0  0  0  0  0  0
   37.1940   24.1570   32.1750 C   0  0  0  0  0  0  0  0  0  0  0  0
   37.3560   23.0690   32.4320 H   0  0  0  0  0  0  0  0  0  0  0  0
   36.2320   24.4120   32.6810 H   0  0  0  0  0  0  0  0  0  0  0  0
   37.2950   24.4480   30.8630 C   0  0  0  0  0  0  0  0  0  0  0  0
   36.5930   25.2420   30.4880 H   0  0  0  0  0  0  0  0  0  0  0  0
   36.9300   23.5690   30.2420 H   0  0  0  0  0  0  0  0  0  0  0  0
   38.6400   24.8080   30.3260 C   0  0  0  0  0  0  0  0  0  0  0  0
   39.3450   24.9000   31.2030 H   0  0  0  0  0  0  0  0  0  0  0  0
   38.6770   25.7800   29.8060 H   0  0  0  0  0  0  0  0  0  0  0  0
   39.2880   23.5730   29.1920 S   0  0  0  0  0  0  0  0  0  0  0  0
   40.6410   23.7790   28.9620 H   0  0  0  0  0  0  0  0  0  0  0  0
  1  2  2  0  0  0  0
  1  6  1  0  0  0  0
  2  3  1  0  0  0  0
  3  8  1  0  0  0  0
  3  4  2  0  0  0  0
  5  4  1  0  0  0  0
  5 11  1  0  0  0  0
  6  5  2  0  0  0  0
  7  2  1  0  0  0  0
  9 10  2  0  0  0  0
 10 12  1  0  0  0  0
 11 10  1  0  0  0  0
 11 15  1  0  0  0  0
 12 13  1  0  0  0  0
 12 16  1  0  0  0  0
 14  9  1  0  0  0  0
 17  1  1  0  0  0  0
 18 19  1  0  0  0  0
 18 17  1  0  0  0  0
 18 20  1  0  0  0  0
 21 18  1  0  0  0  0
 22 21  1  0  0  0  0
 23 21  1  0  0  0  0
 24 21  1  0  0  0  0
 24 25  1  0  0  0  0
 26 24  1  0  0  0  0
 27 24  1  0  0  0  0
 28 27  1  0  0  0  0
M  END
>  <minimizedAffinity>
-3.95961189

$$$$

 OpenBabel03262521203D

 28 28  0  0  0  0  0  0  0  0999 V2000
   37.8920   24.3250   33.5590 C   0  0  0  0  0  0  0  0  0  0  0  0
   37.4350   23.3110   32.7350 C   0  0  0  0  0  0  0  0  0  0  0  0
   37.4230   21.9840   33.2110 C   0  0  0  0  0  0  0  0  0  0  0  0
   37.8790   21.7840   34.4970 N   0  0  0  0  0  0  0  0  0  0  0  0
   38.3150   22.8080   35.2650 C   0  0  0  0  0  0  0  0  0  0  0  0
   38.3150   24.0330   34.7950 N   0  0  0  0  0  0  0  0  0  0  0  0
   37.0670   23.3970   31.7250 H   0  0  0  0  0  0  0  0  0  0  0  0
   37.0760   21.1540   32.6060 H   0  0  0  0  0  0  0  0  0  0  0  0
   38.0670   24.5300   37.4630 N   0  0  0  0  0  0  0  0  0  0  0  0
   38.3810   23.3120   37.7030 C   0  0  0  0  0  0  0  0  0  0  0  0
   38.7730   22.5160   36.5900 N   0  0  0  0  0  0  0  0  0  0  0  0
   38.3840   22.6500   38.9650 N   0  0  0  0  0  0  0  0  0  0  0  0
   37.7130   22.4850   39.7480 H   0  0  0  0  0  0  0  0  0  0  0  0
   37.7640   25.2430   38.1340 H   0  0  0  0  0  0  0  0  0  0  0  0
   39.4130   21.6920   36.7340 H   0  0  0  0  0  0  0  0  0  0  0  0
   39.1750   22.1300   39.4030 H   0  0  0  0  0  0  0  0  0  0  0  0
   37.8350   25.5520   32.9430 O   0  0  0  0  0  0  0  0  0  0  0  0
   37.2390   26.5830   33.6320 C   0  0  0  0  0  0  0  0  0  0  0  0
   36.1630   26.2800   33.7920 H   0  0  0  0  0  0  0  0  0  0  0  0
   37.6250   26.7650   34.6630 H   0  0  0  0  0  0  0  0  0  0  0  0
   37.4200   27.5650   32.7260 C   0  0  0  0  0  0  0  0  0  0  0  0
   37.8830   27.2450   31.7520 H   0  0  0  0  0  0  0  0  0  0  0  0
   38.2250   28.2810   33.0870 H   0  0  0  0  0  0  0  0  0  0  0  0
   36.2440   28.4070   32.3590 C   0  0  0  0  0  0  0  0  0  0  0  0
   36.1380   29.2080   33.1480 H   0  0  0  0  0  0  0  0  0  0  0  0
   35.2840   27.8660   32.3480 H   0  0  0  0  0  0  0  0  0  0  0  0
   36.4290   29.1980   30.7560 S   0  0  0  0  0  0  0  0  0  0  0  0
   35.4840   30.1990   30.5890 H   0  0  0  0  0  0  0  0  0  0  0  0
  1  6  1  0  0  0  0
  2  3  1  0  0  0  0
  2  1  2  0  0  0  0
  3  4  2  0  0  0  0
  4  5  1  0  0  0  0
  5 11  1  0  0  0  0
  6  5  2  0  0  0  0
  7  2  1  0  0  0  0
  8  3  1  0  0  0  0
  9 10  2  0  0  0  0
  9 14  1  0  0  0  0
 10 12  1  0  0  0  0
 11 15  1  0  0  0  0
 11 10  1  0  0  0  0
 12 16  1  0  0  0  0
 12 13  1  0  0  0  0
 17  1  1  0  0  0  0
 17 18  1  0  0  0  0
 18 19  1  0  0  0  0
 18 20  1  0  0  0  0
 21 23  1  0  0  0  0
 21 18  1  0  0  0  0
 22 21  1  0  0  0  0
 24 21  1  0  0  0  0
 24 25  1  0  0  0  0
 26 24  1  0  0  0  0
 27 24  1  0  0  0  0
 28 27  1  0  0  0  0
M  END
>  <minimizedAffinity>
-3.95903063

$$$$
