
 OpenBabel03272502173D

 32 33  0  0  1  0  0  0  0  0999 V2000
   36.0280   29.3660   49.3960 S   0  0  0  0  0  0  0  0  0  0  0  0
   37.1850   30.6160   48.9040 C   0  0  0  0  0  0  0  0  0  0  0  0
   37.0940   31.7920   49.6660 C   0  0  0  0  0  0  0  0  0  0  0  0
   37.9460   32.8480   49.3800 C   0  0  0  0  0  0  0  0  0  0  0  0
   38.8400   32.6820   48.3560 N   0  0  0  0  0  0  0  0  0  0  0  0
   38.9070   31.5410   47.6380 C   0  0  0  0  0  0  0  0  0  0  0  0
   38.0890   30.5290   47.9130 N   0  0  0  0  0  0  0  0  0  0  0  0
   36.3910   31.9420   50.4820 H   0  0  0  0  0  0  0  0  0  0  0  0
   37.9100   33.7710   49.9430 H   0  0  0  0  0  0  0  0  0  0  0  0
   39.8030   33.7200   46.0520 N   0  0  0  0  0  0  0  0  0  0  0  0
   40.0330   32.5150   45.6720 C   0  0  0  0  0  0  0  0  0  0  0  0
   39.8620   31.4400   46.5870 N   0  0  0  0  0  0  0  0  0  0  0  0
   40.4560   32.2370   44.3420 N   0  0  0  0  0  0  0  0  0  0  0  0
   40.7030   32.0860   43.3490 H   0  0  0  0  0  0  0  0  0  0  0  0
   39.9250   34.5170   45.3910 H   0  0  0  0  0  0  0  0  0  0  0  0
   40.4450   30.5800   46.4770 H   0  0  0  0  0  0  0  0  0  0  0  0
   41.2590   31.5880   44.1670 H   0  0  0  0  0  0  0  0  0  0  0  0
   33.4460   28.6900   49.0280 N   0  0  0  0  0  0  0  0  0  0  0  0
   34.3190   29.8330   48.9510 C   0  0  2  0  0  0  0  0  0  0  0  0
   34.3180   30.3310   47.5180 C   0  0  0  0  0  0  0  0  0  0  0  0
   33.2160   29.8190   46.7990 O   0  0  0  0  0  0  0  0  0  0  0  0
   33.4910   28.4480   46.6550 C   0  0  0  0  0  0  0  0  0  0  0  0
   33.7990   27.7830   47.9610 C   0  0  2  0  0  0  0  0  0  0  0  0
   32.4790   29.0210   48.8310 H   0  0  0  0  0  0  0  0  0  0  0  0
   34.0460   30.6420   49.6660 H   0  0  0  0  0  0  0  0  0  0  0  0
   35.2170   29.9970   46.9650 H   0  0  0  0  0  0  0  0  0  0  0  0
   34.2470   31.4340   47.4880 H   0  0  0  0  0  0  0  0  0  0  0  0
   32.5470   28.0020   46.2510 H   0  0  0  0  0  0  0  0  0  0  0  0
   34.3360   28.2750   45.9690 H   0  0  0  0  0  0  0  0  0  0  0  0
   34.8470   27.4440   48.0520 H   0  0  0  0  0  0  0  0  0  0  0  0
   33.0060   26.6250   48.1190 O   0  0  0  0  0  0  0  0  0  0  0  0
   32.7490   26.5440   49.0710 H   0  0  0  0  0  0  0  0  0  0  0  0
  2  1  1  0  0  0  0
  2  3  1  0  0  0  0
  3  8  1  0  0  0  0
  4  3  2  0  0  0  0
  4  9  1  0  0  0  0
  5  4  1  0  0  0  0
  6  7  1  0  0  0  0
  6  5  2  0  0  0  0
  7  2  2  0  0  0  0
 11 10  2  0  0  0  0
 11 12  1  0  0  0  0
 12  6  1  0  0  0  0
 13 11  1  0  0  0  0
 14 13  1  0  0  0  0
 15 10  1  0  0  0  0
 16 12  1  0  0  0  0
 17 13  1  0  0  0  0
 19 18  1  0  0  0  0
 19  1  1  0  0  0  0
 19 25  1  1  0  0  0
 20 19  1  0  0  0  0
 21 20  1  0  0  0  0
 22 21  1  0  0  0  0
 22 23  1  0  0  0  0
 23 30  1  1  0  0  0
 23 31  1  0  0  0  0
 23 18  1  0  0  0  0
 24 18  1  0  0  0  0
 26 20  1  0  0  0  0
 27 20  1  0  0  0  0
 28 22  1  0  0  0  0
 29 22  1  0  0  0  0
 31 32  1  0  0  0  0
M  END
>  <minimizedAffinity>
-5.89824724

>  <minimizedRMSD>
0.248898223

$$$$
