
 OpenBabel03272502173D

 32 33  0  0  1  0  0  0  0  0999 V2000
   36.3170   29.3500   49.2910 S   0  0  0  0  0  0  0  0  0  0  0  0
   37.2720   30.7850   48.8810 C   0  0  0  0  0  0  0  0  0  0  0  0
   37.1060   31.8460   49.7870 C   0  0  0  0  0  0  0  0  0  0  0  0
   37.7990   33.0270   49.5770 C   0  0  0  0  0  0  0  0  0  0  0  0
   38.6190   33.0960   48.4820 N   0  0  0  0  0  0  0  0  0  0  0  0
   38.7620   32.0630   47.6260 C   0  0  0  0  0  0  0  0  0  0  0  0
   38.0960   30.9290   47.8280 N   0  0  0  0  0  0  0  0  0  0  0  0
   36.4590   31.8100   50.6600 H   0  0  0  0  0  0  0  0  0  0  0  0
   37.6990   33.8670   50.2510 H   0  0  0  0  0  0  0  0  0  0  0  0
   39.2860   30.0270   45.7170 N   0  0  0  0  0  0  0  0  0  0  0  0
   40.0520   31.0570   45.7800 C   0  0  0  0  0  0  0  0  0  0  0  0
   39.6330   32.2060   46.5090 N   0  0  0  0  0  0  0  0  0  0  0  0
   41.3170   31.0680   45.1290 N   0  0  0  0  0  0  0  0  0  0  0  0
   42.2510   30.9990   44.6900 H   0  0  0  0  0  0  0  0  0  0  0  0
   39.5800   29.1810   45.1860 H   0  0  0  0  0  0  0  0  0  0  0  0
   39.9730   33.1470   46.2130 H   0  0  0  0  0  0  0  0  0  0  0  0
   41.6080   31.8900   44.5510 H   0  0  0  0  0  0  0  0  0  0  0  0
   33.8110   28.3960   49.0240 N   0  0  0  0  0  0  0  0  0  0  0  0
   34.5340   29.6430   49.0260 C   0  0  2  0  0  0  0  0  0  0  0  0
   34.3540   30.2940   47.6680 C   0  0  0  0  0  0  0  0  0  0  0  0
   33.2630   29.7300   46.9700 O   0  0  0  0  0  0  0  0  0  0  0  0
   33.6860   28.4300   46.6410 C   0  0  0  0  0  0  0  0  0  0  0  0
   34.1780   27.6670   47.8320 C   0  0  2  0  0  0  0  0  0  0  0  0
   32.7990   28.6210   48.9360 H   0  0  0  0  0  0  0  0  0  0  0  0
   34.2280   30.3240   49.8520 H   0  0  0  0  0  0  0  0  0  0  0  0
   35.2370   30.1420   47.0180 H   0  0  0  0  0  0  0  0  0  0  0  0
   34.1510   31.3750   47.7780 H   0  0  0  0  0  0  0  0  0  0  0  0
   32.7700   27.9160   46.2530 H   0  0  0  0  0  0  0  0  0  0  0  0
   34.4850   28.4450   45.8830 H   0  0  0  0  0  0  0  0  0  0  0  0
   35.2630   27.4560   47.8080 H   0  0  0  0  0  0  0  0  0  0  0  0
   33.5440   26.4080   47.9020 O   0  0  0  0  0  0  0  0  0  0  0  0
   33.3790   26.1880   48.8530 H   0  0  0  0  0  0  0  0  0  0  0  0
  2  1  1  0  0  0  0
  2  3  1  0  0  0  0
  3  8  1  0  0  0  0
  4  3  2  0  0  0  0
  4  9  1  0  0  0  0
  5  4  1  0  0  0  0
  6  7  1  0  0  0  0
  6  5  2  0  0  0  0
  7  2  2  0  0  0  0
 10 11  2  0  0  0  0
 11 12  1  0  0  0  0
 12  6  1  0  0  0  0
 13 11  1  0  0  0  0
 14 13  1  0  0  0  0
 15 10  1  0  0  0  0
 16 12  1  0  0  0  0
 17 13  1  0  0  0  0
 18 19  1  0  0  0  0
 19  1  1  0  0  0  0
 19 25  1  1  0  0  0
 20 27  1  0  0  0  0
 20 19  1  0  0  0  0
 21 20  1  0  0  0  0
 22 21  1  0  0  0  0
 22 23  1  0  0  0  0
 23 30  1  6  0  0  0
 23 31  1  0  0  0  0
 23 18  1  0  0  0  0
 24 18  1  0  0  0  0
 26 20  1  0  0  0  0
 28 22  1  0  0  0  0
 29 22  1  0  0  0  0
 31 32  1  0  0  0  0
M  END
>  <minimizedAffinity>
-5.54635572

>  <minimizedRMSD>
0.369814843

$$$$
