
 OpenBabel03272502173D

 32 33  0  0  1  0  0  0  0  0999 V2000
   36.0350   29.4010   49.3470 S   0  0  0  0  0  0  0  0  0  0  0  0
   37.2140   30.6240   48.8410 C   0  0  0  0  0  0  0  0  0  0  0  0
   37.1300   31.8190   49.5740 C   0  0  0  0  0  0  0  0  0  0  0  0
   37.9990   32.8570   49.2750 C   0  0  0  0  0  0  0  0  0  0  0  0
   38.9040   32.6550   48.2660 N   0  0  0  0  0  0  0  0  0  0  0  0
   38.9640   31.4970   47.5770 C   0  0  0  0  0  0  0  0  0  0  0  0
   38.1300   30.5020   47.8640 N   0  0  0  0  0  0  0  0  0  0  0  0
   36.4190   31.9970   50.3770 H   0  0  0  0  0  0  0  0  0  0  0  0
   37.9680   33.7930   49.8150 H   0  0  0  0  0  0  0  0  0  0  0  0
   39.4720   33.4410   45.5690 N   0  0  0  0  0  0  0  0  0  0  0  0
   39.9150   32.2440   45.4270 C   0  0  0  0  0  0  0  0  0  0  0  0
   39.9310   31.3590   46.5410 N   0  0  0  0  0  0  0  0  0  0  0  0
   40.3930   31.7850   44.1670 N   0  0  0  0  0  0  0  0  0  0  0  0
   40.6700   31.4860   43.2170 H   0  0  0  0  0  0  0  0  0  0  0  0
   39.4550   34.0980   44.7620 H   0  0  0  0  0  0  0  0  0  0  0  0
   40.6590   30.6110   46.5850 H   0  0  0  0  0  0  0  0  0  0  0  0
   41.2990   31.2670   44.1010 H   0  0  0  0  0  0  0  0  0  0  0  0
   33.4370   28.7740   49.0060 N   0  0  0  0  0  0  0  0  0  0  0  0
   34.3350   29.8960   48.9010 C   0  0  2  0  0  0  0  0  0  0  0  0
   34.3380   30.3630   47.4570 C   0  0  0  0  0  0  0  0  0  0  0  0
   33.2210   29.8600   46.7540 O   0  0  0  0  0  0  0  0  0  0  0  0
   33.4660   28.4800   46.6380 C   0  0  0  0  0  0  0  0  0  0  0  0
   33.7650   27.8370   47.9560 C   0  0  2  0  0  0  0  0  0  0  0  0
   32.4770   29.1210   48.8060 H   0  0  0  0  0  0  0  0  0  0  0  0
   34.0830   30.7250   49.6000 H   0  0  0  0  0  0  0  0  0  0  0  0
   35.2260   29.9980   46.9080 H   0  0  0  0  0  0  0  0  0  0  0  0
   34.2900   31.4660   47.4050 H   0  0  0  0  0  0  0  0  0  0  0  0
   32.5100   28.0470   46.2480 H   0  0  0  0  0  0  0  0  0  0  0  0
   34.3030   28.2760   45.9520 H   0  0  0  0  0  0  0  0  0  0  0  0
   34.8070   27.4770   48.0500 H   0  0  0  0  0  0  0  0  0  0  0  0
   32.9480   26.7000   48.1420 O   0  0  0  0  0  0  0  0  0  0  0  0
   32.6950   26.6450   49.0970 H   0  0  0  0  0  0  0  0  0  0  0  0
  2  1  1  0  0  0  0
  2  3  1  0  0  0  0
  3  8  1  0  0  0  0
  4  3  2  0  0  0  0
  4  9  1  0  0  0  0
  5  4  1  0  0  0  0
  6  7  1  0  0  0  0
  6  5  2  0  0  0  0
  7  2  2  0  0  0  0
 11 10  2  0  0  0  0
 11 12  1  0  0  0  0
 12 16  1  0  0  0  0
 12  6  1  0  0  0  0
 13 11  1  0  0  0  0
 14 13  1  0  0  0  0
 15 10  1  0  0  0  0
 17 13  1  0  0  0  0
 19 18  1  0  0  0  0
 19  1  1  0  0  0  0
 19 25  1  1  0  0  0
 20 19  1  0  0  0  0
 21 20  1  0  0  0  0
 22 21  1  0  0  0  0
 22 23  1  0  0  0  0
 23 30  1  1  0  0  0
 23 31  1  0  0  0  0
 23 18  1  0  0  0  0
 24 18  1  0  0  0  0
 26 20  1  0  0  0  0
 27 20  1  0  0  0  0
 28 22  1  0  0  0  0
 29 22  1  0  0  0  0
 31 32  1  0  0  0  0
M  END
>  <minimizedAffinity>
-5.77341747

>  <minimizedRMSD>
0.302638739

$$$$
