
 OpenBabel03272502173D

 32 33  0  0  1  0  0  0  0  0999 V2000
   36.2070   29.3600   49.1790 S   0  0  0  0  0  0  0  0  0  0  0  0
   37.0970   30.8560   48.8450 C   0  0  0  0  0  0  0  0  0  0  0  0
   37.1280   31.7430   49.9340 C   0  0  0  0  0  0  0  0  0  0  0  0
   37.7940   32.9510   49.8000 C   0  0  0  0  0  0  0  0  0  0  0  0
   38.3930   33.2160   48.5970 N   0  0  0  0  0  0  0  0  0  0  0  0
   38.3480   32.3470   47.5660 C   0  0  0  0  0  0  0  0  0  0  0  0
   37.7080   31.1880   47.6940 N   0  0  0  0  0  0  0  0  0  0  0  0
   36.6590   31.5500   50.8960 H   0  0  0  0  0  0  0  0  0  0  0  0
   37.8430   33.6620   50.6140 H   0  0  0  0  0  0  0  0  0  0  0  0
   40.0420   30.6090   46.0910 N   0  0  0  0  0  0  0  0  0  0  0  0
   40.0360   31.8670   45.8330 C   0  0  0  0  0  0  0  0  0  0  0  0
   38.9930   32.6900   46.3430 N   0  0  0  0  0  0  0  0  0  0  0  0
   41.0610   32.4560   45.0420 N   0  0  0  0  0  0  0  0  0  0  0  0
   41.8630   32.8410   44.5130 H   0  0  0  0  0  0  0  0  0  0  0  0
   40.7990   29.9970   45.7240 H   0  0  0  0  0  0  0  0  0  0  0  0
   38.7090   33.5410   45.8110 H   0  0  0  0  0  0  0  0  0  0  0  0
   40.8200   33.1160   44.2660 H   0  0  0  0  0  0  0  0  0  0  0  0
   33.7360   28.3130   48.9300 N   0  0  0  0  0  0  0  0  0  0  0  0
   34.4120   29.5850   48.9210 C   0  0  2  0  0  0  0  0  0  0  0  0
   34.2020   30.2210   47.5590 C   0  0  0  0  0  0  0  0  0  0  0  0
   33.1300   29.6120   46.8700 O   0  0  0  0  0  0  0  0  0  0  0  0
   33.5990   28.3260   46.5480 C   0  0  0  0  0  0  0  0  0  0  0  0
   34.1240   27.5900   47.7410 C   0  0  2  0  0  0  0  0  0  0  0  0
   32.7160   28.5000   48.8460 H   0  0  0  0  0  0  0  0  0  0  0  0
   34.0860   30.2600   49.7440 H   0  0  0  0  0  0  0  0  0  0  0  0
   35.0870   30.0960   46.9060 H   0  0  0  0  0  0  0  0  0  0  0  0
   33.9590   31.2940   47.6630 H   0  0  0  0  0  0  0  0  0  0  0  0
   32.7010   27.7760   46.1680 H   0  0  0  0  0  0  0  0  0  0  0  0
   34.3930   28.3660   45.7860 H   0  0  0  0  0  0  0  0  0  0  0  0
   35.2170   27.4190   47.7140 H   0  0  0  0  0  0  0  0  0  0  0  0
   33.5370   26.3080   47.8230 O   0  0  0  0  0  0  0  0  0  0  0  0
   33.3850   26.0890   48.7760 H   0  0  0  0  0  0  0  0  0  0  0  0
  2  1  1  0  0  0  0
  2  3  1  0  0  0  0
  3  8  1  0  0  0  0
  4  3  2  0  0  0  0
  4  9  1  0  0  0  0
  5  4  1  0  0  0  0
  6  7  1  0  0  0  0
  6  5  2  0  0  0  0
  7  2  2  0  0  0  0
 11 10  2  0  0  0  0
 11 12  1  0  0  0  0
 12  6  1  0  0  0  0
 13 11  1  0  0  0  0
 14 13  1  0  0  0  0
 15 10  1  0  0  0  0
 16 12  1  0  0  0  0
 17 13  1  0  0  0  0
 19 18  1  0  0  0  0
 19  1  1  0  0  0  0
 19 25  1  1  0  0  0
 20 27  1  0  0  0  0
 20 19  1  0  0  0  0
 21 20  1  0  0  0  0
 22 21  1  0  0  0  0
 22 23  1  0  0  0  0
 23 30  1  6  0  0  0
 23 31  1  0  0  0  0
 23 18  1  0  0  0  0
 24 18  1  0  0  0  0
 26 20  1  0  0  0  0
 28 22  1  0  0  0  0
 29 22  1  0  0  0  0
 31 32  1  0  0  0  0
M  END
>  <minimizedAffinity>
-5.53650522

>  <minimizedRMSD>
0.801108122

$$$$
