
 OpenBabel03272502173D

 32 33  0  0  1  0  0  0  0  0999 V2000
   36.2260   29.2580   49.4050 S   0  0  0  0  0  0  0  0  0  0  0  0
   37.2080   30.6120   48.8190 C   0  0  0  0  0  0  0  0  0  0  0  0
   37.8380   31.3320   49.8470 C   0  0  0  0  0  0  0  0  0  0  0  0
   38.6360   32.4170   49.5200 C   0  0  0  0  0  0  0  0  0  0  0  0
   38.7660   32.7320   48.1930 N   0  0  0  0  0  0  0  0  0  0  0  0
   38.1490   32.0240   47.2240 C   0  0  0  0  0  0  0  0  0  0  0  0
   37.3830   30.9830   47.5390 N   0  0  0  0  0  0  0  0  0  0  0  0
   37.7470   31.0970   50.9050 H   0  0  0  0  0  0  0  0  0  0  0  0
   39.1400   32.9980   50.2810 H   0  0  0  0  0  0  0  0  0  0  0  0
   40.6380   32.7610   46.0700 N   0  0  0  0  0  0  0  0  0  0  0  0
   39.5430   33.0300   45.4550 C   0  0  0  0  0  0  0  0  0  0  0  0
   38.3300   32.4090   45.8650 N   0  0  0  0  0  0  0  0  0  0  0  0
   39.5220   33.9430   44.3630 N   0  0  0  0  0  0  0  0  0  0  0  0
   39.5530   34.6580   43.6170 H   0  0  0  0  0  0  0  0  0  0  0  0
   41.5310   33.2100   45.7790 H   0  0  0  0  0  0  0  0  0  0  0  0
   37.5800   32.2410   45.1580 H   0  0  0  0  0  0  0  0  0  0  0  0
   39.0160   33.7000   43.4790 H   0  0  0  0  0  0  0  0  0  0  0  0
   33.7310   28.3020   49.0600 N   0  0  0  0  0  0  0  0  0  0  0  0
   34.4480   29.5500   49.1060 C   0  0  2  0  0  0  0  0  0  0  0  0
   34.2960   30.2310   47.7590 C   0  0  0  0  0  0  0  0  0  0  0  0
   33.2240   29.6790   47.0240 O   0  0  0  0  0  0  0  0  0  0  0  0
   33.6590   28.3880   46.6760 C   0  0  0  0  0  0  0  0  0  0  0  0
   34.1270   27.6010   47.8610 C   0  0  2  0  0  0  0  0  0  0  0  0
   32.7200   28.5250   48.9540 H   0  0  0  0  0  0  0  0  0  0  0  0
   34.1210   30.2120   49.9400 H   0  0  0  0  0  0  0  0  0  0  0  0
   35.1940   30.0960   47.1260 H   0  0  0  0  0  0  0  0  0  0  0  0
   34.0860   31.3090   47.8880 H   0  0  0  0  0  0  0  0  0  0  0  0
   32.7550   27.8800   46.2560 H   0  0  0  0  0  0  0  0  0  0  0  0
   34.4750   28.4230   45.9370 H   0  0  0  0  0  0  0  0  0  0  0  0
   35.2140   27.3940   47.8570 H   0  0  0  0  0  0  0  0  0  0  0  0
   33.4970   26.3370   47.8890 O   0  0  0  0  0  0  0  0  0  0  0  0
   33.3120   26.0960   48.8310 H   0  0  0  0  0  0  0  0  0  0  0  0
  2  1  1  0  0  0  0
  2  3  1  0  0  0  0
  3  8  1  0  0  0  0
  4  3  2  0  0  0  0
  4  9  1  0  0  0  0
  5  4  1  0  0  0  0
  6  7  1  0  0  0  0
  6  5  2  0  0  0  0
  7  2  2  0  0  0  0
 11 12  1  0  0  0  0
 11 10  2  0  0  0  0
 12  6  1  0  0  0  0
 13 11  1  0  0  0  0
 14 13  1  0  0  0  0
 15 10  1  0  0  0  0
 16 12  1  0  0  0  0
 17 13  1  0  0  0  0
 18 19  1  0  0  0  0
 19  1  1  0  0  0  0
 19 25  1  1  0  0  0
 20 27  1  0  0  0  0
 20 19  1  0  0  0  0
 21 20  1  0  0  0  0
 22 21  1  0  0  0  0
 22 23  1  0  0  0  0
 23 30  1  6  0  0  0
 23 31  1  0  0  0  0
 23 18  1  0  0  0  0
 24 18  1  0  0  0  0
 26 20  1  0  0  0  0
 28 22  1  0  0  0  0
 29 22  1  0  0  0  0
 31 32  1  0  0  0  0
M  END
>  <minimizedAffinity>
-5.25287724

>  <minimizedRMSD>
1.0233109

$$$$
