
 OpenBabel03272502173D

 32 33  0  0  1  0  0  0  0  0999 V2000
   36.2810   29.2880   49.3310 S   0  0  0  0  0  0  0  0  0  0  0  0
   37.2520   30.6960   48.8660 C   0  0  0  0  0  0  0  0  0  0  0  0
   37.6170   31.5080   49.9530 C   0  0  0  0  0  0  0  0  0  0  0  0
   38.3780   32.6420   49.7220 C   0  0  0  0  0  0  0  0  0  0  0  0
   38.7380   32.9120   48.4280 N   0  0  0  0  0  0  0  0  0  0  0  0
   38.3750   32.1160   47.4010 C   0  0  0  0  0  0  0  0  0  0  0  0
   37.6430   31.0280   47.6230 N   0  0  0  0  0  0  0  0  0  0  0  0
   37.3400   31.3090   50.9860 H   0  0  0  0  0  0  0  0  0  0  0  0
   38.6810   33.2930   50.5300 H   0  0  0  0  0  0  0  0  0  0  0  0
   40.4830   30.8450   45.9830 N   0  0  0  0  0  0  0  0  0  0  0  0
   40.0190   31.9690   45.5680 C   0  0  0  0  0  0  0  0  0  0  0  0
   38.7850   32.4590   46.0810 N   0  0  0  0  0  0  0  0  0  0  0  0
   40.7240   32.7380   44.6000 N   0  0  0  0  0  0  0  0  0  0  0  0
   41.3060   33.2840   43.9410 H   0  0  0  0  0  0  0  0  0  0  0  0
   41.3840   30.4760   45.6150 H   0  0  0  0  0  0  0  0  0  0  0  0
   38.1900   33.0680   45.4780 H   0  0  0  0  0  0  0  0  0  0  0  0
   40.2200   33.1460   43.7780 H   0  0  0  0  0  0  0  0  0  0  0  0
   33.7710   28.3520   49.0410 N   0  0  0  0  0  0  0  0  0  0  0  0
   34.5000   29.5940   49.0610 C   0  0  2  0  0  0  0  0  0  0  0  0
   34.3300   30.2630   47.7100 C   0  0  0  0  0  0  0  0  0  0  0  0
   33.2400   29.7130   47.0010 O   0  0  0  0  0  0  0  0  0  0  0  0
   33.6570   28.4140   46.6580 C   0  0  0  0  0  0  0  0  0  0  0  0
   34.1390   27.6350   47.8420 C   0  0  2  0  0  0  0  0  0  0  0  0
   32.7610   28.5840   48.9510 H   0  0  0  0  0  0  0  0  0  0  0  0
   34.1940   30.2680   49.8930 H   0  0  0  0  0  0  0  0  0  0  0  0
   35.2150   30.1130   47.0620 H   0  0  0  0  0  0  0  0  0  0  0  0
   34.1320   31.3440   47.8320 H   0  0  0  0  0  0  0  0  0  0  0  0
   32.7400   27.9100   46.2600 H   0  0  0  0  0  0  0  0  0  0  0  0
   34.4590   28.4340   45.9040 H   0  0  0  0  0  0  0  0  0  0  0  0
   35.2230   27.4180   47.8210 H   0  0  0  0  0  0  0  0  0  0  0  0
   33.4980   26.3780   47.8940 O   0  0  0  0  0  0  0  0  0  0  0  0
   33.3270   26.1480   48.8420 H   0  0  0  0  0  0  0  0  0  0  0  0
  2  1  1  0  0  0  0
  2  3  1  0  0  0  0
  3  8  1  0  0  0  0
  4  3  2  0  0  0  0
  4  9  1  0  0  0  0
  5  4  1  0  0  0  0
  6  7  1  0  0  0  0
  6  5  2  0  0  0  0
  7  2  2  0  0  0  0
 11 10  2  0  0  0  0
 11 12  1  0  0  0  0
 12  6  1  0  0  0  0
 13 11  1  0  0  0  0
 14 13  1  0  0  0  0
 15 10  1  0  0  0  0
 16 12  1  0  0  0  0
 17 13  1  0  0  0  0
 18 19  1  0  0  0  0
 19  1  1  0  0  0  0
 19 25  1  1  0  0  0
 20 27  1  0  0  0  0
 20 19  1  0  0  0  0
 21 20  1  0  0  0  0
 22 21  1  0  0  0  0
 22 23  1  0  0  0  0
 23 30  1  6  0  0  0
 23 31  1  0  0  0  0
 23 18  1  0  0  0  0
 24 18  1  0  0  0  0
 26 20  1  0  0  0  0
 28 22  1  0  0  0  0
 29 22  1  0  0  0  0
 31 32  1  0  0  0  0
M  END
>  <minimizedAffinity>
-5.65718651

>  <minimizedRMSD>
0.873401046

$$$$
