
 OpenBabel03272502173D

 32 33  0  0  1  0  0  0  0  0999 V2000
   36.2250   29.4810   49.1660 S   0  0  0  0  0  0  0  0  0  0  0  0
   37.3050   30.8250   48.7540 C   0  0  0  0  0  0  0  0  0  0  0  0
   37.2090   31.9110   49.6390 C   0  0  0  0  0  0  0  0  0  0  0  0
   38.0020   33.0280   49.4260 C   0  0  0  0  0  0  0  0  0  0  0  0
   38.8470   33.0090   48.3490 N   0  0  0  0  0  0  0  0  0  0  0  0
   38.9210   31.9530   47.5120 C   0  0  0  0  0  0  0  0  0  0  0  0
   38.1590   30.8820   47.7170 N   0  0  0  0  0  0  0  0  0  0  0  0
   36.5440   31.9440   50.4990 H   0  0  0  0  0  0  0  0  0  0  0  0
   37.9590   33.8850   50.0850 H   0  0  0  0  0  0  0  0  0  0  0  0
   38.2520   32.8900   44.9160 N   0  0  0  0  0  0  0  0  0  0  0  0
   39.3300   32.2130   45.0930 C   0  0  0  0  0  0  0  0  0  0  0  0
   39.8230   32.0030   46.4120 N   0  0  0  0  0  0  0  0  0  0  0  0
   40.0410   31.6670   43.9890 N   0  0  0  0  0  0  0  0  0  0  0  0
   40.4840   31.2430   43.1570 H   0  0  0  0  0  0  0  0  0  0  0  0
   37.8810   33.0510   43.9570 H   0  0  0  0  0  0  0  0  0  0  0  0
   40.8510   31.8860   46.5580 H   0  0  0  0  0  0  0  0  0  0  0  0
   41.0800   31.7770   43.9210 H   0  0  0  0  0  0  0  0  0  0  0  0
   33.6370   28.7530   48.9950 N   0  0  0  0  0  0  0  0  0  0  0  0
   34.4790   29.9120   48.8470 C   0  0  2  0  0  0  0  0  0  0  0  0
   34.3620   30.4000   47.4150 C   0  0  0  0  0  0  0  0  0  0  0  0
   33.2190   29.8620   46.7830 O   0  0  0  0  0  0  0  0  0  0  0  0
   33.5100   28.4950   46.6270 C   0  0  0  0  0  0  0  0  0  0  0  0
   33.9270   27.8460   47.9100 C   0  0  2  0  0  0  0  0  0  0  0  0
   32.6520   29.0640   48.8690 H   0  0  0  0  0  0  0  0  0  0  0  0
   34.2440   30.7200   49.5760 H   0  0  0  0  0  0  0  0  0  0  0  0
   35.2240   30.0790   46.7990 H   0  0  0  0  0  0  0  0  0  0  0  0
   34.2670   31.5010   47.3840 H   0  0  0  0  0  0  0  0  0  0  0  0
   32.5470   28.0290   46.2970 H   0  0  0  0  0  0  0  0  0  0  0  0
   34.3050   28.3340   45.8810 H   0  0  0  0  0  0  0  0  0  0  0  0
   34.9860   27.5270   47.9250 H   0  0  0  0  0  0  0  0  0  0  0  0
   33.1710   26.6740   48.1330 O   0  0  0  0  0  0  0  0  0  0  0  0
   32.9870   26.5950   49.1020 H   0  0  0  0  0  0  0  0  0  0  0  0
  2  1  1  0  0  0  0
  2  3  1  0  0  0  0
  3  8  1  0  0  0  0
  4  3  2  0  0  0  0
  4  9  1  0  0  0  0
  5  4  1  0  0  0  0
  6  7  1  0  0  0  0
  6  5  2  0  0  0  0
  7  2  2  0  0  0  0
 10 11  2  0  0  0  0
 11 12  1  0  0  0  0
 12 16  1  0  0  0  0
 12  6  1  0  0  0  0
 13 11  1  0  0  0  0
 14 13  1  0  0  0  0
 15 10  1  0  0  0  0
 17 13  1  0  0  0  0
 19 18  1  0  0  0  0
 19  1  1  0  0  0  0
 19 25  1  1  0  0  0
 20 19  1  0  0  0  0
 21 20  1  0  0  0  0
 22 21  1  0  0  0  0
 22 23  1  0  0  0  0
 23 30  1  6  0  0  0
 23 31  1  0  0  0  0
 23 18  1  0  0  0  0
 24 18  1  0  0  0  0
 26 20  1  0  0  0  0
 27 20  1  0  0  0  0
 28 22  1  0  0  0  0
 29 22  1  0  0  0  0
 31 32  1  0  0  0  0
M  END
>  <minimizedAffinity>
-5.56293726

>  <minimizedRMSD>
0.181718335

$$$$
