
 OpenBabel03272505373D

 30 31  0  0  0  0  0  0  0  0999 V2000
   36.7070   30.7640   46.5930 C   0  0  0  0  0  0  0  0  0  0  0  0
   35.5670   29.9890   46.4110 C   0  0  0  0  0  0  0  0  0  0  0  0
   35.0270   29.7570   45.1810 C   0  0  0  0  0  0  0  0  0  0  0  0
   35.6060   30.2960   44.0340 C   0  0  0  0  0  0  0  0  0  0  0  0
   36.7290   31.0610   44.1990 C   0  0  0  0  0  0  0  0  0  0  0  0
   37.2770   31.2960   45.4490 C   0  0  0  0  0  0  0  0  0  0  0  0
   35.1290   29.5750   47.3350 H   0  0  0  0  0  0  0  0  0  0  0  0
   34.1440   29.1380   45.1940 H   0  0  0  0  0  0  0  0  0  0  0  0
   35.1040   30.0550   43.1090 H   0  0  0  0  0  0  0  0  0  0  0  0
   37.0610   31.4170   43.2470 H   0  0  0  0  0  0  0  0  0  0  0  0
   37.4770   30.3590   50.1450 C   0  0  0  0  0  0  0  0  0  0  0  0
   38.2740   31.4730   50.4150 C   0  0  0  0  0  0  0  0  0  0  0  0
   38.5350   32.3540   49.3670 C   0  0  0  0  0  0  0  0  0  0  0  0
   37.9970   32.0670   48.1610 N   0  0  0  0  0  0  0  0  0  0  0  0
   37.2360   30.9920   47.9250 C   0  0  0  0  0  0  0  0  0  0  0  0
   36.9820   30.1430   48.9260 N   0  0  0  0  0  0  0  0  0  0  0  0
   38.6580   31.6140   51.4150 H   0  0  0  0  0  0  0  0  0  0  0  0
   39.1500   33.2140   49.5720 H   0  0  0  0  0  0  0  0  0  0  0  0
   37.1920   29.4190   51.2860 C   0  0  0  0  0  0  0  0  0  0  0  0
   35.8100   29.1800   51.3500 F   0  0  0  0  0  0  0  0  0  0  0  0
   37.8930   28.2850   51.0880 F   0  0  0  0  0  0  0  0  0  0  0  0
   37.5270   30.0600   52.4600 F   0  0  0  0  0  0  0  0  0  0  0  0
   40.0660   30.4890   45.8930 N   0  0  0  0  0  0  0  0  0  0  0  0
   39.7720   31.6100   45.3040 C   0  0  0  0  0  0  0  0  0  0  0  0
   38.4470   32.0900   45.5010 N   0  0  0  0  0  0  0  0  0  0  0  0
   40.7700   32.2950   44.5080 N   0  0  0  0  0  0  0  0  0  0  0  0
   41.1630   31.6090   43.8200 H   0  0  0  0  0  0  0  0  0  0  0  0
   41.0060   30.1090   45.7780 H   0  0  0  0  0  0  0  0  0  0  0  0
   38.5380   33.1110   45.6820 H   0  0  0  0  0  0  0  0  0  0  0  0
   41.1030   33.2600   44.5320 H   0  0  0  0  0  0  0  0  0  0  0  0
  1 15  1  0  0  0  0
  2  1  1  0  0  0  0
  2  7  1  0  0  0  0
  3  8  1  0  0  0  0
  3  2  2  0  0  0  0
  4  5  2  0  0  0  0
  4  3  1  0  0  0  0
  5  6  1  0  0  0  0
  6 25  1  0  0  0  0
  6  1  2  0  0  0  0
  9  4  1  0  0  0  0
 10  5  1  0  0  0  0
 11 12  1  0  0  0  0
 11 19  1  0  0  0  0
 12 17  1  0  0  0  0
 13 18  1  0  0  0  0
 13 12  2  0  0  0  0
 14 13  1  0  0  0  0
 15 14  2  0  0  0  0
 15 16  1  0  0  0  0
 16 11  2  0  0  0  0
 19 20  1  0  0  0  0
 19 22  1  0  0  0  0
 21 19  1  0  0  0  0
 24 25  1  0  0  0  0
 24 23  2  0  0  0  0
 25 29  1  0  0  0  0
 26 30  1  0  0  0  0
 26 24  1  0  0  0  0
 27 26  1  0  0  0  0
 28 23  1  0  0  0  0
M  END
>  <minimizedAffinity>
-6.16819429

>  <minimizedRMSD>
0.658200145

$$$$
