
 OpenBabel03272508403D

 41 43  0  0  1  0  0  0  0  0999 V2000
   31.3790   26.8720   48.4740 N   0  0  0  0  0  0  0  0  0  0  0  0
   32.4220   27.8200   48.8570 C   0  0  0  0  0  0  0  0  0  0  0  0
   33.3500   28.1690   47.7820 C   0  0  2  0  0  0  0  0  0  0  0  0
   33.7770   26.9790   46.9920 N   0  0  0  0  0  0  0  0  0  0  0  0
   32.5530   26.3020   46.5280 C   0  0  0  0  0  0  0  0  0  0  0  0
   31.9520   25.7570   47.8040 C   0  0  0  0  0  0  0  0  0  0  0  0
   33.0080   27.1630   49.5880 H   0  0  0  0  0  0  0  0  0  0  0  0
   31.9690   28.6870   49.3300 H   0  0  0  0  0  0  0  0  0  0  0  0
   32.9290   28.7810   46.9650 H   0  0  0  0  0  0  0  0  0  0  0  0
   34.3800   26.3540   47.5630 H   0  0  0  0  0  0  0  0  0  0  0  0
   32.8990   25.4480   45.9120 H   0  0  0  0  0  0  0  0  0  0  0  0
   31.9400   27.0390   46.0120 H   0  0  0  0  0  0  0  0  0  0  0  0
   32.7840   25.3020   48.3930 H   0  0  0  0  0  0  0  0  0  0  0  0
   31.2060   24.9770   47.6270 H   0  0  0  0  0  0  0  0  0  0  0  0
   34.4560   30.3870   46.1400 Cl  0  0  0  0  0  0  0  0  0  0  0  0
   35.1280   29.8760   47.6930 C   0  0  0  0  0  0  0  0  0  0  0  0
   34.5300   28.8200   48.3240 C   0  0  0  0  0  0  0  0  0  0  0  0
   34.9500   28.2990   49.5600 C   0  0  0  0  0  0  0  0  0  0  0  0
   36.0580   28.9390   50.1310 C   0  0  0  0  0  0  0  0  0  0  0  0
   36.6760   30.0210   49.4870 C   0  0  0  0  0  0  0  0  0  0  0  0
   36.2040   30.4680   48.2890 C   0  0  0  0  0  0  0  0  0  0  0  0
   34.6730   27.5320   50.2400 H   0  0  0  0  0  0  0  0  0  0  0  0
   36.5380   28.6980   51.0710 H   0  0  0  0  0  0  0  0  0  0  0  0
   37.5440   30.5160   49.9290 H   0  0  0  0  0  0  0  0  0  0  0  0
   38.7050   30.5430   46.8370 N   0  0  0  0  0  0  0  0  0  0  0  0
   37.7390   31.3420   46.5030 C   0  0  0  0  0  0  0  0  0  0  0  0
   36.7590   31.5580   47.5390 N   0  0  0  0  0  0  0  0  0  0  0  0
   37.5810   32.0000   45.2410 N   0  0  0  0  0  0  0  0  0  0  0  0
   37.4580   31.9100   44.2230 H   0  0  0  0  0  0  0  0  0  0  0  0
   39.4340   30.3500   46.1410 H   0  0  0  0  0  0  0  0  0  0  0  0
   36.4800   32.5570   47.6970 H   0  0  0  0  0  0  0  0  0  0  0  0
   37.6000   33.0370   45.4480 H   0  0  0  0  0  0  0  0  0  0  0  0
   30.0110   27.0800   48.7710 C   0  0  0  0  0  0  0  0  0  0  0  0
   29.0100   26.9300   47.8090 C   0  0  0  0  0  0  0  0  0  0  0  0
   27.6900   27.1490   48.1850 C   0  0  0  0  0  0  0  0  0  0  0  0
   27.4350   27.5050   49.5010 N   0  0  0  0  0  0  0  0  0  0  0  0
   28.4420   27.6350   50.3920 C   0  0  0  0  0  0  0  0  0  0  0  0
   29.7040   27.4310   50.0500 N   0  0  0  0  0  0  0  0  0  0  0  0
   29.3440   26.6520   46.8270 H   0  0  0  0  0  0  0  0  0  0  0  0
   26.9300   27.0320   47.4410 H   0  0  0  0  0  0  0  0  0  0  0  0
   28.1170   27.9130   51.3730 H   0  0  0  0  0  0  0  0  0  0  0  0
  1 33  1  0  0  0  0
  1  2  1  0  0  0  0
  2  8  1  0  0  0  0
  2  7  1  0  0  0  0
  3  9  1  6  0  0  0
  3 17  1  0  0  0  0
  3  2  1  0  0  0  0
  4 10  1  0  0  0  0
  4  3  1  0  0  0  0
  5  4  1  0  0  0  0
  5  6  1  0  0  0  0
  6 13  1  0  0  0  0
  6  1  1  0  0  0  0
 11  5  1  0  0  0  0
 12  5  1  0  0  0  0
 14  6  1  0  0  0  0
 15 16  1  0  0  0  0
 16 21  2  0  0  0  0
 16 17  1  0  0  0  0
 17 18  2  0  0  0  0
 18 19  1  0  0  0  0
 18 22  1  0  0  0  0
 19 23  1  0  0  0  0
 20 24  1  0  0  0  0
 20 19  2  0  0  0  0
 21 20  1  0  0  0  0
 26 25  2  0  0  0  0
 26 27  1  0  0  0  0
 27 31  1  0  0  0  0
 27 21  1  0  0  0  0
 28 32  1  0  0  0  0
 28 26  1  0  0  0  0
 29 28  1  0  0  0  0
 30 25  1  0  0  0  0
 33 38  1  0  0  0  0
 34 35  1  0  0  0  0
 34 33  2  0  0  0  0
 35 36  2  0  0  0  0
 36 37  1  0  0  0  0
 37 41  1  0  0  0  0
 38 37  2  0  0  0  0
 39 34  1  0  0  0  0
 40 35  1  0  0  0  0
M  END
>  <minimizedAffinity>
-6.12585115

>  <minimizedRMSD>
4.92996359

$$$$
