
 OpenBabel03272508403D

 41 43  0  0  1  0  0  0  0  0999 V2000
   32.1020   30.4110   43.1370 N   0  0  0  0  0  0  0  0  0  0  0  0
   32.2970   30.0690   44.5440 C   0  0  0  0  0  0  0  0  0  0  0  0
   33.6350   30.3550   45.0590 C   0  0  2  0  0  0  0  0  0  0  0  0
   34.7090   29.9450   44.1100 N   0  0  0  0  0  0  0  0  0  0  0  0
   34.4160   30.5880   42.8160 C   0  0  0  0  0  0  0  0  0  0  0  0
   33.1620   29.8820   42.3530 C   0  0  0  0  0  0  0  0  0  0  0  0
   32.2170   28.9300   44.4680 H   0  0  0  0  0  0  0  0  0  0  0  0
   31.5040   30.5130   45.1390 H   0  0  0  0  0  0  0  0  0  0  0  0
   33.8910   31.4250   45.1620 H   0  0  0  0  0  0  0  0  0  0  0  0
   34.7570   28.9090   44.0320 H   0  0  0  0  0  0  0  0  0  0  0  0
   35.2490   30.2990   42.1440 H   0  0  0  0  0  0  0  0  0  0  0  0
   34.3010   31.6550   42.9940 H   0  0  0  0  0  0  0  0  0  0  0  0
   33.3100   28.7910   42.5370 H   0  0  0  0  0  0  0  0  0  0  0  0
   32.9660   30.0140   41.2850 H   0  0  0  0  0  0  0  0  0  0  0  0
   32.3650   27.6790   45.3020 Cl  0  0  0  0  0  0  0  0  0  0  0  0
   33.3470   28.4260   46.5680 C   0  0  0  0  0  0  0  0  0  0  0  0
   33.8450   29.6770   46.3260 C   0  0  0  0  0  0  0  0  0  0  0  0
   34.6390   30.3990   47.2330 C   0  0  0  0  0  0  0  0  0  0  0  0
   34.9000   29.7480   48.4460 C   0  0  0  0  0  0  0  0  0  0  0  0
   34.3900   28.4660   48.7010 C   0  0  0  0  0  0  0  0  0  0  0  0
   33.6290   27.8320   47.7650 C   0  0  0  0  0  0  0  0  0  0  0  0
   35.1380   31.3350   47.2910 H   0  0  0  0  0  0  0  0  0  0  0  0
   35.4850   30.1240   49.2760 H   0  0  0  0  0  0  0  0  0  0  0  0
   34.5870   27.9620   49.6490 H   0  0  0  0  0  0  0  0  0  0  0  0
   33.4130   25.7340   45.7850 N   0  0  0  0  0  0  0  0  0  0  0  0
   33.4080   25.4350   47.0470 C   0  0  0  0  0  0  0  0  0  0  0  0
   33.0510   26.5280   47.9170 N   0  0  0  0  0  0  0  0  0  0  0  0
   33.7130   24.1570   47.6160 N   0  0  0  0  0  0  0  0  0  0  0  0
   34.4070   23.4070   47.7470 H   0  0  0  0  0  0  0  0  0  0  0  0
   33.6590   24.9970   45.1140 H   0  0  0  0  0  0  0  0  0  0  0  0
   32.3510   26.3010   48.6650 H   0  0  0  0  0  0  0  0  0  0  0  0
   32.8400   23.8490   48.1270 H   0  0  0  0  0  0  0  0  0  0  0  0
   30.9860   31.1530   42.6790 C   0  0  0  0  0  0  0  0  0  0  0  0
   31.0800   32.0610   41.6230 C   0  0  0  0  0  0  0  0  0  0  0  0
   29.9360   32.7450   41.2310 C   0  0  0  0  0  0  0  0  0  0  0  0
   28.7550   32.4890   41.9130 N   0  0  0  0  0  0  0  0  0  0  0  0
   28.7200   31.5980   42.9290 C   0  0  0  0  0  0  0  0  0  0  0  0
   29.8010   30.9380   43.3130 N   0  0  0  0  0  0  0  0  0  0  0  0
   32.0550   32.1650   41.1830 H   0  0  0  0  0  0  0  0  0  0  0  0
   30.0180   33.4400   40.4210 H   0  0  0  0  0  0  0  0  0  0  0  0
   27.7530   31.4880   43.3720 H   0  0  0  0  0  0  0  0  0  0  0  0
  1  2  1  0  0  0  0
  2  3  1  0  0  0  0
  2  8  1  0  0  0  0
  3  9  1  1  0  0  0
  3 17  1  0  0  0  0
  4  3  1  0  0  0  0
  5 12  1  0  0  0  0
  5  4  1  0  0  0  0
  6 13  1  0  0  0  0
  6  5  1  0  0  0  0
  6  1  1  0  0  0  0
  7  2  1  0  0  0  0
 10  4  1  0  0  0  0
 11  5  1  0  0  0  0
 14  6  1  0  0  0  0
 15 16  1  0  0  0  0
 16 21  1  0  0  0  0
 17 16  2  0  0  0  0
 17 18  1  0  0  0  0
 18 22  1  0  0  0  0
 18 19  2  0  0  0  0
 19 20  1  0  0  0  0
 19 23  1  0  0  0  0
 20 24  1  0  0  0  0
 21 27  1  0  0  0  0
 21 20  2  0  0  0  0
 25 26  2  0  0  0  0
 26 28  1  0  0  0  0
 26 27  1  0  0  0  0
 27 31  1  0  0  0  0
 28 29  1  0  0  0  0
 28 32  1  0  0  0  0
 30 25  1  0  0  0  0
 33  1  1  0  0  0  0
 33 38  1  0  0  0  0
 34 33  2  0  0  0  0
 35 34  1  0  0  0  0
 35 36  2  0  0  0  0
 36 37  1  0  0  0  0
 37 38  2  0  0  0  0
 37 41  1  0  0  0  0
 39 34  1  0  0  0  0
 40 35  1  0  0  0  0
M  END
>  <minimizedAffinity>
-2.99946713

>  <minimizedRMSD>
5.78989363

$$$$
