
 OpenBabel03272502083D

 38 40  0  0  0  0  0  0  0  0999 V2000
   38.3540   26.9540   32.7150 F   0  0  0  0  0  0  0  0  0  0  0  0
   37.3290   26.1930   32.2130 C   0  0  0  0  0  0  0  0  0  0  0  0
   37.1700   24.8670   32.5610 C   0  0  0  0  0  0  0  0  0  0  0  0
   36.1100   24.1690   32.0290 C   0  0  0  0  0  0  0  0  0  0  0  0
   35.2100   24.7910   31.1530 C   0  0  0  0  0  0  0  0  0  0  0  0
   35.4290   26.1200   30.8480 C   0  0  0  0  0  0  0  0  0  0  0  0
   36.4510   26.8380   31.3430 C   0  0  0  0  0  0  0  0  0  0  0  0
   36.0190   23.1420   32.3220 H   0  0  0  0  0  0  0  0  0  0  0  0
   34.3940   24.2170   30.7580 H   0  0  0  0  0  0  0  0  0  0  0  0
   34.6950   26.5250   30.1700 H   0  0  0  0  0  0  0  0  0  0  0  0
   38.4220   25.0920   34.6080 C   0  0  0  0  0  0  0  0  0  0  0  0
   38.1550   24.3490   33.4630 C   0  0  0  0  0  0  0  0  0  0  0  0
   38.8570   23.1640   33.2840 C   0  0  0  0  0  0  0  0  0  0  0  0
   39.7610   22.7720   34.2080 N   0  0  0  0  0  0  0  0  0  0  0  0
   40.0020   23.5000   35.3000 C   0  0  0  0  0  0  0  0  0  0  0  0
   39.3430   24.6380   35.4920 N   0  0  0  0  0  0  0  0  0  0  0  0
   37.9070   26.0310   34.8090 H   0  0  0  0  0  0  0  0  0  0  0  0
   38.6330   22.5950   32.3800 H   0  0  0  0  0  0  0  0  0  0  0  0
   39.3740   22.3190   37.7800 N   0  0  0  0  0  0  0  0  0  0  0  0
   40.5750   22.2120   37.3340 C   0  0  0  0  0  0  0  0  0  0  0  0
   40.9630   23.0520   36.2480 N   0  0  0  0  0  0  0  0  0  0  0  0
   41.5120   21.2880   37.8900 N   0  0  0  0  0  0  0  0  0  0  0  0
   42.0370   20.4140   38.0110 H   0  0  0  0  0  0  0  0  0  0  0  0
   39.0930   21.7040   38.5720 H   0  0  0  0  0  0  0  0  0  0  0  0
   41.9710   23.3410   36.1510 H   0  0  0  0  0  0  0  0  0  0  0  0
   41.5220   20.3480   37.3970 H   0  0  0  0  0  0  0  0  0  0  0  0
   35.4760   29.0170   33.3690 Br  0  0  0  0  0  0  0  0  0  0  0  0
   36.3290   29.3520   31.6980 C   0  0  0  0  0  0  0  0  0  0  0  0
   36.6350   28.2310   30.9750 C   0  0  0  0  0  0  0  0  0  0  0  0
   37.2320   28.4030   29.7130 C   0  0  0  0  0  0  0  0  0  0  0  0
   37.4930   29.6440   29.2320 C   0  0  0  0  0  0  0  0  0  0  0  0
   37.1590   30.7410   30.0150 C   0  0  0  0  0  0  0  0  0  0  0  0
   36.5670   30.6040   31.2690 C   0  0  0  0  0  0  0  0  0  0  0  0
   37.5050   27.5710   29.0770 H   0  0  0  0  0  0  0  0  0  0  0  0
   37.9500   29.8090   28.2660 H   0  0  0  0  0  0  0  0  0  0  0  0
   37.3540   31.7480   29.6630 H   0  0  0  0  0  0  0  0  0  0  0  0
   36.2130   31.6260   32.0940 O   0  0  0  0  0  0  0  0  0  0  0  0
   36.6320   31.6540   33.0250 H   0  0  0  0  0  0  0  0  0  0  0  0
  2  3  1  0  0  0  0
  2  1  1  0  0  0  0
  3 12  1  0  0  0  0
  4  8  1  0  0  0  0
  4  3  2  0  0  0  0
  5  4  1  0  0  0  0
  6  5  2  0  0  0  0
  6  7  1  0  0  0  0
  7  2  2  0  0  0  0
  9  5  1  0  0  0  0
 10  6  1  0  0  0  0
 11 17  1  0  0  0  0
 11 16  1  0  0  0  0
 12 11  2  0  0  0  0
 13 12  1  0  0  0  0
 13 14  2  0  0  0  0
 14 15  1  0  0  0  0
 15 16  2  0  0  0  0
 15 21  1  0  0  0  0
 18 13  1  0  0  0  0
 19 24  1  0  0  0  0
 20 19  2  0  0  0  0
 20 22  1  0  0  0  0
 21 20  1  0  0  0  0
 22 23  1  0  0  0  0
 25 21  1  0  0  0  0
 26 22  1  0  0  0  0
 28 27  1  0  0  0  0
 29  7  1  0  0  0  0
 29 28  2  0  0  0  0
 30 29  1  0  0  0  0
 31 30  2  0  0  0  0
 31 32  1  0  0  0  0
 32 33  2  0  0  0  0
 33 28  1  0  0  0  0
 33 37  1  0  0  0  0
 34 30  1  0  0  0  0
 35 31  1  0  0  0  0
 36 32  1  0  0  0  0
 37 38  1  0  0  0  0
M  END
>  <minimizedAffinity>
-6.53269815

$$$$

 OpenBabel03272502083D

 38 40  0  0  0  0  0  0  0  0999 V2000
   36.4620   29.5430   35.8640 F   0  0  0  0  0  0  0  0  0  0  0  0
   35.9870   29.6220   34.5790 C   0  0  0  0  0  0  0  0  0  0  0  0
   36.2230   28.6240   33.6550 C   0  0  0  0  0  0  0  0  0  0  0  0
   35.7030   28.7630   32.3880 C   0  0  0  0  0  0  0  0  0  0  0  0
   34.9500   29.8930   32.0430 C   0  0  0  0  0  0  0  0  0  0  0  0
   34.7530   30.8520   33.0170 C   0  0  0  0  0  0  0  0  0  0  0  0
   35.2430   30.7580   34.2640 C   0  0  0  0  0  0  0  0  0  0  0  0
   35.9070   27.9690   31.6980 H   0  0  0  0  0  0  0  0  0  0  0  0
   34.5580   29.9690   31.0460 H   0  0  0  0  0  0  0  0  0  0  0  0
   34.1650   31.6890   32.6750 H   0  0  0  0  0  0  0  0  0  0  0  0
   37.7550   27.7260   35.2830 C   0  0  0  0  0  0  0  0  0  0  0  0
   37.0060   27.5220   34.1300 C   0  0  0  0  0  0  0  0  0  0  0  0
   37.0690   26.2700   33.5310 C   0  0  0  0  0  0  0  0  0  0  0  0
   37.8410   25.3040   34.0750 N   0  0  0  0  0  0  0  0  0  0  0  0
   38.5520   25.5200   35.1820 C   0  0  0  0  0  0  0  0  0  0  0  0
   38.5070   26.7110   35.7720 N   0  0  0  0  0  0  0  0  0  0  0  0
   37.7510   28.6840   35.8020 H   0  0  0  0  0  0  0  0  0  0  0  0
   36.4740   26.1310   32.6270 H   0  0  0  0  0  0  0  0  0  0  0  0
   37.8730   23.9910   37.4490 N   0  0  0  0  0  0  0  0  0  0  0  0
   38.8120   23.5670   36.6800 C   0  0  0  0  0  0  0  0  0  0  0  0
   39.3530   24.4750   35.7210 N   0  0  0  0  0  0  0  0  0  0  0  0
   39.3170   22.2340   36.7610 N   0  0  0  0  0  0  0  0  0  0  0  0
   39.4110   21.2320   36.5550 H   0  0  0  0  0  0  0  0  0  0  0  0
   37.4800   23.3260   38.1470 H   0  0  0  0  0  0  0  0  0  0  0  0
   40.3540   24.3680   35.4120 H   0  0  0  0  0  0  0  0  0  0  0  0
   38.8290   21.5570   36.1050 H   0  0  0  0  0  0  0  0  0  0  0  0
   36.9180   33.3890   34.0000 Br  0  0  0  0  0  0  0  0  0  0  0  0
   35.5840   33.0470   35.3170 C   0  0  0  0  0  0  0  0  0  0  0  0
   35.0110   31.8060   35.2420 C   0  0  0  0  0  0  0  0  0  0  0  0
   34.0450   31.4680   36.2070 C   0  0  0  0  0  0  0  0  0  0  0  0
   33.6960   32.3480   37.1790 C   0  0  0  0  0  0  0  0  0  0  0  0
   34.3140   33.5910   37.1980 C   0  0  0  0  0  0  0  0  0  0  0  0
   35.2740   33.9560   36.2570 C   0  0  0  0  0  0  0  0  0  0  0  0
   33.5430   30.5090   36.2220 H   0  0  0  0  0  0  0  0  0  0  0  0
   32.9570   32.1170   37.9340 H   0  0  0  0  0  0  0  0  0  0  0  0
   34.0600   34.3200   37.9600 H   0  0  0  0  0  0  0  0  0  0  0  0
   35.9220   35.1520   36.2090 O   0  0  0  0  0  0  0  0  0  0  0  0
   35.8310   35.7100   35.3580 H   0  0  0  0  0  0  0  0  0  0  0  0
  2  1  1  0  0  0  0
  3 12  1  0  0  0  0
  3  2  2  0  0  0  0
  4  3  1  0  0  0  0
  5  4  2  0  0  0  0
  5  6  1  0  0  0  0
  6  7  2  0  0  0  0
  7  2  1  0  0  0  0
  7 29  1  0  0  0  0
  8  4  1  0  0  0  0
  9  5  1  0  0  0  0
 10  6  1  0  0  0  0
 11 16  1  0  0  0  0
 11 17  1  0  0  0  0
 12 11  2  0  0  0  0
 13 14  2  0  0  0  0
 13 12  1  0  0  0  0
 14 15  1  0  0  0  0
 15 21  1  0  0  0  0
 15 16  2  0  0  0  0
 18 13  1  0  0  0  0
 19 24  1  0  0  0  0
 20 22  1  0  0  0  0
 20 19  2  0  0  0  0
 21 20  1  0  0  0  0
 23 22  1  0  0  0  0
 25 21  1  0  0  0  0
 26 22  1  0  0  0  0
 27 28  1  0  0  0  0
 28 33  1  0  0  0  0
 29 28  2  0  0  0  0
 29 30  1  0  0  0  0
 30 34  1  0  0  0  0
 30 31  2  0  0  0  0
 31 32  1  0  0  0  0
 31 35  1  0  0  0  0
 32 36  1  0  0  0  0
 33 32  2  0  0  0  0
 37 33  1  0  0  0  0
 38 37  1  0  0  0  0
M  END
>  <minimizedAffinity>
-6.49157381

$$$$

 OpenBabel03272502083D

 38 40  0  0  0  0  0  0  0  0999 V2000
   35.9040   28.1380   35.1920 F   0  0  0  0  0  0  0  0  0  0  0  0
   36.3430   28.2730   33.8990 C   0  0  0  0  0  0  0  0  0  0  0  0
   37.1630   27.3330   33.3090 C   0  0  0  0  0  0  0  0  0  0  0  0
   37.5530   27.5260   32.0030 C   0  0  0  0  0  0  0  0  0  0  0  0
   37.1260   28.6520   31.2880 C   0  0  0  0  0  0  0  0  0  0  0  0
   36.3070   29.5520   31.9400 C   0  0  0  0  0  0  0  0  0  0  0  0
   35.9040   29.4040   33.2130 C   0  0  0  0  0  0  0  0  0  0  0  0
   38.1900   26.7750   31.5790 H   0  0  0  0  0  0  0  0  0  0  0  0
   37.4480   28.7700   30.2700 H   0  0  0  0  0  0  0  0  0  0  0  0
   36.0220   30.3900   31.3230 H   0  0  0  0  0  0  0  0  0  0  0  0
   37.6840   24.9910   33.5310 C   0  0  0  0  0  0  0  0  0  0  0  0
   37.5290   26.2280   34.1460 C   0  0  0  0  0  0  0  0  0  0  0  0
   37.7460   26.3010   35.5150 C   0  0  0  0  0  0  0  0  0  0  0  0
   38.0940   25.1900   36.2010 N   0  0  0  0  0  0  0  0  0  0  0  0
   38.2370   24.0120   35.5920 C   0  0  0  0  0  0  0  0  0  0  0  0
   38.0340   23.9180   34.2820 N   0  0  0  0  0  0  0  0  0  0  0  0
   37.5280   24.8630   32.4600 H   0  0  0  0  0  0  0  0  0  0  0  0
   37.6200   27.2810   35.9780 H   0  0  0  0  0  0  0  0  0  0  0  0
   40.8120   22.8690   35.6220 N   0  0  0  0  0  0  0  0  0  0  0  0
   39.9780   22.5280   36.5380 C   0  0  0  0  0  0  0  0  0  0  0  0
   38.6040   22.8660   36.3510 N   0  0  0  0  0  0  0  0  0  0  0  0
   40.3850   21.8330   37.7160 N   0  0  0  0  0  0  0  0  0  0  0  0
   40.7010   21.6920   38.6840 H   0  0  0  0  0  0  0  0  0  0  0  0
   41.8140   22.6220   35.7600 H   0  0  0  0  0  0  0  0  0  0  0  0
   37.8580   22.2600   36.7810 H   0  0  0  0  0  0  0  0  0  0  0  0
   40.6160   22.4770   38.5290 H   0  0  0  0  0  0  0  0  0  0  0  0
   32.8080   29.0920   32.8600 Br  0  0  0  0  0  0  0  0  0  0  0  0
   33.6820   30.4510   33.8700 C   0  0  0  0  0  0  0  0  0  0  0  0
   35.0490   30.3920   33.8490 C   0  0  0  0  0  0  0  0  0  0  0  0
   35.7630   31.3860   34.5410 C   0  0  0  0  0  0  0  0  0  0  0  0
   35.1120   32.3710   35.2090 C   0  0  0  0  0  0  0  0  0  0  0  0
   33.7230   32.3740   35.1930 C   0  0  0  0  0  0  0  0  0  0  0  0
   32.9880   31.4030   34.5170 C   0  0  0  0  0  0  0  0  0  0  0  0
   36.8440   31.4140   34.5750 H   0  0  0  0  0  0  0  0  0  0  0  0
   35.6320   33.1500   35.7500 H   0  0  0  0  0  0  0  0  0  0  0  0
   33.1690   33.1450   35.7160 H   0  0  0  0  0  0  0  0  0  0  0  0
   31.6290   31.3370   34.4560 O   0  0  0  0  0  0  0  0  0  0  0  0
   31.1770   30.4910   34.8070 H   0  0  0  0  0  0  0  0  0  0  0  0
  2  1  1  0  0  0  0
  3  2  1  0  0  0  0
  3 12  1  0  0  0  0
  4  3  2  0  0  0  0
  5  6  2  0  0  0  0
  5  4  1  0  0  0  0
  6  7  1  0  0  0  0
  7 29  1  0  0  0  0
  7  2  2  0  0  0  0
  8  4  1  0  0  0  0
  9  5  1  0  0  0  0
 10  6  1  0  0  0  0
 11 12  2  0  0  0  0
 11 16  1  0  0  0  0
 12 13  1  0  0  0  0
 13 18  1  0  0  0  0
 13 14  2  0  0  0  0
 15 14  1  0  0  0  0
 15 21  1  0  0  0  0
 16 15  2  0  0  0  0
 17 11  1  0  0  0  0
 19 24  1  0  0  0  0
 19 20  2  0  0  0  0
 20 22  1  0  0  0  0
 21 20  1  0  0  0  0
 21 25  1  0  0  0  0
 22 26  1  0  0  0  0
 22 23  1  0  0  0  0
 27 28  1  0  0  0  0
 28 33  1  0  0  0  0
 29 28  2  0  0  0  0
 29 30  1  0  0  0  0
 30 34  1  0  0  0  0
 30 31  2  0  0  0  0
 31 35  1  0  0  0  0
 32 31  1  0  0  0  0
 32 36  1  0  0  0  0
 33 32  2  0  0  0  0
 37 33  1  0  0  0  0
 37 38  1  0  0  0  0
M  END
>  <minimizedAffinity>
-6.2647624

$$$$

 OpenBabel03272502083D

 38 40  0  0  0  0  0  0  0  0999 V2000
   39.0960   25.1210   34.1380 F   0  0  0  0  0  0  0  0  0  0  0  0
   38.3090   24.1150   33.6370 C   0  0  0  0  0  0  0  0  0  0  0  0
   37.4950   24.3080   32.5380 C   0  0  0  0  0  0  0  0  0  0  0  0
   36.7440   23.2490   32.0820 C   0  0  0  0  0  0  0  0  0  0  0  0
   36.8040   22.0020   32.7170 C   0  0  0  0  0  0  0  0  0  0  0  0
   37.6390   21.8800   33.8100 C   0  0  0  0  0  0  0  0  0  0  0  0
   38.3870   22.8870   34.2900 C   0  0  0  0  0  0  0  0  0  0  0  0
   36.1250   23.4360   31.2270 H   0  0  0  0  0  0  0  0  0  0  0  0
   36.2050   21.1970   32.3330 H   0  0  0  0  0  0  0  0  0  0  0  0
   37.6280   20.8920   34.2430 H   0  0  0  0  0  0  0  0  0  0  0  0
   38.7100   26.0400   31.3850 C   0  0  0  0  0  0  0  0  0  0  0  0
   37.5230   25.6270   31.9790 C   0  0  0  0  0  0  0  0  0  0  0  0
   36.4580   26.5180   31.9820 C   0  0  0  0  0  0  0  0  0  0  0  0
   36.6000   27.7370   31.4180 N   0  0  0  0  0  0  0  0  0  0  0  0
   37.7480   28.1140   30.8530 C   0  0  0  0  0  0  0  0  0  0  0  0
   38.7820   27.2780   30.8390 N   0  0  0  0  0  0  0  0  0  0  0  0
   39.5850   25.3900   31.3490 H   0  0  0  0  0  0  0  0  0  0  0  0
   35.5350   26.1750   32.4530 H   0  0  0  0  0  0  0  0  0  0  0  0
   37.6920   28.6320   28.0840 N   0  0  0  0  0  0  0  0  0  0  0  0
   37.5310   29.6150   28.8970 C   0  0  0  0  0  0  0  0  0  0  0  0
   37.8570   29.4080   30.2700 N   0  0  0  0  0  0  0  0  0  0  0  0
   37.0410   30.8850   28.4660 N   0  0  0  0  0  0  0  0  0  0  0  0
   36.3650   31.6300   28.2560 H   0  0  0  0  0  0  0  0  0  0  0  0
   37.4540   28.7860   27.0820 H   0  0  0  0  0  0  0  0  0  0  0  0
   38.1800   30.2210   30.8550 H   0  0  0  0  0  0  0  0  0  0  0  0
   35.9870   30.9820   28.5480 H   0  0  0  0  0  0  0  0  0  0  0  0
   37.3370   23.9360   37.0470 Br  0  0  0  0  0  0  0  0  0  0  0  0
   38.9910   23.0350   36.7560 C   0  0  0  0  0  0  0  0  0  0  0  0
   39.2390   22.7000   35.4520 C   0  0  0  0  0  0  0  0  0  0  0  0
   40.4590   22.0660   35.1560 C   0  0  0  0  0  0  0  0  0  0  0  0
   41.3580   21.7970   36.1350 C   0  0  0  0  0  0  0  0  0  0  0  0
   41.0450   22.1620   37.4380 C   0  0  0  0  0  0  0  0  0  0  0  0
   39.8450   22.7900   37.7640 C   0  0  0  0  0  0  0  0  0  0  0  0
   40.7350   21.7680   34.1530 H   0  0  0  0  0  0  0  0  0  0  0  0
   42.3040   21.3110   35.9390 H   0  0  0  0  0  0  0  0  0  0  0  0
   41.7390   21.9620   38.2470 H   0  0  0  0  0  0  0  0  0  0  0  0
   39.4660   23.1750   39.0130 O   0  0  0  0  0  0  0  0  0  0  0  0
   38.6010   22.7860   39.3900 H   0  0  0  0  0  0  0  0  0  0  0  0
  2  1  1  0  0  0  0
  2  7  1  0  0  0  0
  3  2  2  0  0  0  0
  4  3  1  0  0  0  0
  4  5  2  0  0  0  0
  5  6  1  0  0  0  0
  6 10  1  0  0  0  0
  6  7  2  0  0  0  0
  7 29  1  0  0  0  0
  8  4  1  0  0  0  0
  9  5  1  0  0  0  0
 11 12  1  0  0  0  0
 12 13  2  0  0  0  0
 12  3  1  0  0  0  0
 13 18  1  0  0  0  0
 14 13  1  0  0  0  0
 15 14  2  0  0  0  0
 16 15  1  0  0  0  0
 16 11  2  0  0  0  0
 17 11  1  0  0  0  0
 19 20  2  0  0  0  0
 20 21  1  0  0  0  0
 21 15  1  0  0  0  0
 21 25  1  0  0  0  0
 22 26  1  0  0  0  0
 22 20  1  0  0  0  0
 23 22  1  0  0  0  0
 24 19  1  0  0  0  0
 28 27  1  0  0  0  0
 28 33  1  0  0  0  0
 29 28  2  0  0  0  0
 30 29  1  0  0  0  0
 30 31  2  0  0  0  0
 31 32  1  0  0  0  0
 32 33  2  0  0  0  0
 32 36  1  0  0  0  0
 33 37  1  0  0  0  0
 34 30  1  0  0  0  0
 35 31  1  0  0  0  0
 37 38  1  0  0  0  0
M  END
>  <minimizedAffinity>
-6.1984868

$$$$

 OpenBabel03272502083D

 38 40  0  0  0  0  0  0  0  0999 V2000
   35.7770   28.2250   34.8610 F   0  0  0  0  0  0  0  0  0  0  0  0
   35.6240   28.9080   33.6810 C   0  0  0  0  0  0  0  0  0  0  0  0
   36.2390   28.4940   32.5170 C   0  0  0  0  0  0  0  0  0  0  0  0
   36.0300   29.2210   31.3670 C   0  0  0  0  0  0  0  0  0  0  0  0
   35.2090   30.3560   31.3770 C   0  0  0  0  0  0  0  0  0  0  0  0
   34.6250   30.7130   32.5770 C   0  0  0  0  0  0  0  0  0  0  0  0
   34.8030   30.0340   33.7220 C   0  0  0  0  0  0  0  0  0  0  0  0
   36.5240   28.8690   30.4840 H   0  0  0  0  0  0  0  0  0  0  0  0
   35.0660   30.8980   30.4610 H   0  0  0  0  0  0  0  0  0  0  0  0
   34.0090   31.5950   32.5020 H   0  0  0  0  0  0  0  0  0  0  0  0
   38.3870   27.5060   32.9820 C   0  0  0  0  0  0  0  0  0  0  0  0
   37.0530   27.3210   32.6380 C   0  0  0  0  0  0  0  0  0  0  0  0
   36.6100   26.0190   32.4450 C   0  0  0  0  0  0  0  0  0  0  0  0
   37.4700   24.9870   32.5930 N   0  0  0  0  0  0  0  0  0  0  0  0
   38.7470   25.1870   32.9220 C   0  0  0  0  0  0  0  0  0  0  0  0
   39.1930   26.4250   33.1130 N   0  0  0  0  0  0  0  0  0  0  0  0
   38.8000   28.5010   33.1480 H   0  0  0  0  0  0  0  0  0  0  0  0
   35.5600   25.8950   32.1760 H   0  0  0  0  0  0  0  0  0  0  0  0
   39.6020   24.1340   35.3930 N   0  0  0  0  0  0  0  0  0  0  0  0
   39.7710   23.4280   34.3310 C   0  0  0  0  0  0  0  0  0  0  0  0
   39.6210   24.0730   33.0680 N   0  0  0  0  0  0  0  0  0  0  0  0
   40.0990   22.0400   34.3870 N   0  0  0  0  0  0  0  0  0  0  0  0
   39.9570   21.0220   34.4080 H   0  0  0  0  0  0  0  0  0  0  0  0
   39.7120   23.6610   36.3140 H   0  0  0  0  0  0  0  0  0  0  0  0
   40.1620   23.7190   32.2370 H   0  0  0  0  0  0  0  0  0  0  0  0
   39.2490   21.4030   34.3620 H   0  0  0  0  0  0  0  0  0  0  0  0
   36.2740   32.2090   35.4270 Br  0  0  0  0  0  0  0  0  0  0  0  0
   34.5920   31.4180   35.8440 C   0  0  0  0  0  0  0  0  0  0  0  0
   34.1700   30.4660   34.9560 C   0  0  0  0  0  0  0  0  0  0  0  0
   32.9540   29.8100   35.2200 C   0  0  0  0  0  0  0  0  0  0  0  0
   32.2260   30.1160   36.3230 C   0  0  0  0  0  0  0  0  0  0  0  0
   32.7090   31.0920   37.1850 C   0  0  0  0  0  0  0  0  0  0  0  0
   33.9090   31.7590   36.9510 C   0  0  0  0  0  0  0  0  0  0  0  0
   32.5490   29.0460   34.5710 H   0  0  0  0  0  0  0  0  0  0  0  0
   31.2880   29.6300   36.5540 H   0  0  0  0  0  0  0  0  0  0  0  0
   32.1530   31.3630   38.0760 H   0  0  0  0  0  0  0  0  0  0  0  0
   34.4460   32.7260   37.7440 O   0  0  0  0  0  0  0  0  0  0  0  0
   34.6190   33.6430   37.3280 H   0  0  0  0  0  0  0  0  0  0  0  0
  2  7  1  0  0  0  0
  2  1  1  0  0  0  0
  3 12  1  0  0  0  0
  3  2  2  0  0  0  0
  4  5  2  0  0  0  0
  4  3  1  0  0  0  0
  5  6  1  0  0  0  0
  6  7  2  0  0  0  0
  7 29  1  0  0  0  0
  8  4  1  0  0  0  0
  9  5  1  0  0  0  0
 10  6  1  0  0  0  0
 11 16  1  0  0  0  0
 11 17  1  0  0  0  0
 12 11  2  0  0  0  0
 13 14  2  0  0  0  0
 13 12  1  0  0  0  0
 14 15  1  0  0  0  0
 15 21  1  0  0  0  0
 15 16  2  0  0  0  0
 18 13  1  0  0  0  0
 19 24  1  0  0  0  0
 20 22  1  0  0  0  0
 20 19  2  0  0  0  0
 21 20  1  0  0  0  0
 22 23  1  0  0  0  0
 25 21  1  0  0  0  0
 26 22  1  0  0  0  0
 27 28  1  0  0  0  0
 28 33  1  0  0  0  0
 29 30  1  0  0  0  0
 29 28  2  0  0  0  0
 30 31  2  0  0  0  0
 31 35  1  0  0  0  0
 31 32  1  0  0  0  0
 32 36  1  0  0  0  0
 33 32  2  0  0  0  0
 33 37  1  0  0  0  0
 34 30  1  0  0  0  0
 38 37  1  0  0  0  0
M  END
>  <minimizedAffinity>
-6.16606236

$$$$

 OpenBabel03272502083D

 38 40  0  0  0  0  0  0  0  0999 V2000
   35.4840   28.2820   33.9980 F   0  0  0  0  0  0  0  0  0  0  0  0
   35.8200   28.9950   32.8760 C   0  0  0  0  0  0  0  0  0  0  0  0
   35.7260   30.3720   32.8350 C   0  0  0  0  0  0  0  0  0  0  0  0
   36.0940   31.0230   31.6790 C   0  0  0  0  0  0  0  0  0  0  0  0
   36.5550   30.3050   30.5680 C   0  0  0  0  0  0  0  0  0  0  0  0
   36.6230   28.9300   30.6790 C   0  0  0  0  0  0  0  0  0  0  0  0
   36.2730   28.2540   31.7860 C   0  0  0  0  0  0  0  0  0  0  0  0
   36.0070   32.0910   31.6850 H   0  0  0  0  0  0  0  0  0  0  0  0
   36.8350   30.8450   29.6840 H   0  0  0  0  0  0  0  0  0  0  0  0
   36.9870   28.4510   29.7830 H   0  0  0  0  0  0  0  0  0  0  0  0
   36.1710   31.2530   35.0330 C   0  0  0  0  0  0  0  0  0  0  0  0
   35.2410   30.9890   34.0340 C   0  0  0  0  0  0  0  0  0  0  0  0
   33.9200   31.3450   34.2700 C   0  0  0  0  0  0  0  0  0  0  0  0
   33.5800   31.9280   35.4410 N   0  0  0  0  0  0  0  0  0  0  0  0
   34.4880   32.1720   36.3870 C   0  0  0  0  0  0  0  0  0  0  0  0
   35.7590   31.8400   36.1830 N   0  0  0  0  0  0  0  0  0  0  0  0
   37.2240   30.9990   34.9120 H   0  0  0  0  0  0  0  0  0  0  0  0
   33.2060   31.1290   33.4750 H   0  0  0  0  0  0  0  0  0  0  0  0
   34.9450   34.8750   37.0410 N   0  0  0  0  0  0  0  0  0  0  0  0
   34.0960   34.2080   37.7390 C   0  0  0  0  0  0  0  0  0  0  0  0
   34.0890   32.7870   37.6060 N   0  0  0  0  0  0  0  0  0  0  0  0
   33.1760   34.8440   38.6270 N   0  0  0  0  0  0  0  0  0  0  0  0
   32.3060   35.2840   38.9500 H   0  0  0  0  0  0  0  0  0  0  0  0
   34.9480   35.9120   37.1400 H   0  0  0  0  0  0  0  0  0  0  0  0
   33.7850   32.1920   38.4190 H   0  0  0  0  0  0  0  0  0  0  0  0
   32.2400   35.0670   38.1780 H   0  0  0  0  0  0  0  0  0  0  0  0
   38.7010   26.9920   33.3070 Br  0  0  0  0  0  0  0  0  0  0  0  0
   37.2910   26.0250   32.4650 C   0  0  0  0  0  0  0  0  0  0  0  0
   36.3570   26.8050   31.8370 C   0  0  0  0  0  0  0  0  0  0  0  0
   35.3070   26.1590   31.1600 C   0  0  0  0  0  0  0  0  0  0  0  0
   35.2270   24.8050   31.1330 C   0  0  0  0  0  0  0  0  0  0  0  0
   36.2060   24.0710   31.7910 C   0  0  0  0  0  0  0  0  0  0  0  0
   37.2580   24.6820   32.4700 C   0  0  0  0  0  0  0  0  0  0  0  0
   34.5280   26.6980   30.6380 H   0  0  0  0  0  0  0  0  0  0  0  0
   34.4330   24.2790   30.6210 H   0  0  0  0  0  0  0  0  0  0  0  0
   36.1740   22.9880   31.7910 H   0  0  0  0  0  0  0  0  0  0  0  0
   38.2520   24.0340   33.1380 O   0  0  0  0  0  0  0  0  0  0  0  0
   38.3650   24.2330   34.1340 H   0  0  0  0  0  0  0  0  0  0  0  0
  2  1  1  0  0  0  0
  3  2  1  0  0  0  0
  3 12  1  0  0  0  0
  4  8  1  0  0  0  0
  4  3  2  0  0  0  0
  5  6  2  0  0  0  0
  5  4  1  0  0  0  0
  6  7  1  0  0  0  0
  7 29  1  0  0  0  0
  7  2  2  0  0  0  0
  9  5  1  0  0  0  0
 10  6  1  0  0  0  0
 11 16  1  0  0  0  0
 12 13  1  0  0  0  0
 12 11  2  0  0  0  0
 13 14  2  0  0  0  0
 14 15  1  0  0  0  0
 15 21  1  0  0  0  0
 16 15  2  0  0  0  0
 17 11  1  0  0  0  0
 18 13  1  0  0  0  0
 19 24  1  0  0  0  0
 19 20  2  0  0  0  0
 20 22  1  0  0  0  0
 21 20  1  0  0  0  0
 21 25  1  0  0  0  0
 22 23  1  0  0  0  0
 26 22  1  0  0  0  0
 28 33  1  0  0  0  0
 28 27  1  0  0  0  0
 29 28  2  0  0  0  0
 30 29  1  0  0  0  0
 31 30  2  0  0  0  0
 31 32  1  0  0  0  0
 32 36  1  0  0  0  0
 32 33  2  0  0  0  0
 33 37  1  0  0  0  0
 34 30  1  0  0  0  0
 35 31  1  0  0  0  0
 37 38  1  0  0  0  0
M  END
>  <minimizedAffinity>
-6.15873098

$$$$

 OpenBabel03272502083D

 38 40  0  0  0  0  0  0  0  0999 V2000
   36.0730   28.4300   34.8750 F   0  0  0  0  0  0  0  0  0  0  0  0
   35.8630   29.0150   33.6510 C   0  0  0  0  0  0  0  0  0  0  0  0
   36.3670   28.4690   32.4890 C   0  0  0  0  0  0  0  0  0  0  0  0
   36.1050   29.1020   31.2950 C   0  0  0  0  0  0  0  0  0  0  0  0
   35.3410   30.2760   31.2610 C   0  0  0  0  0  0  0  0  0  0  0  0
   34.8680   30.7670   32.4610 C   0  0  0  0  0  0  0  0  0  0  0  0
   35.1010   30.1830   33.6480 C   0  0  0  0  0  0  0  0  0  0  0  0
   36.5130   28.6480   30.4140 H   0  0  0  0  0  0  0  0  0  0  0  0
   35.1540   30.7430   30.3120 H   0  0  0  0  0  0  0  0  0  0  0  0
   34.2910   31.6710   32.3510 H   0  0  0  0  0  0  0  0  0  0  0  0
   38.4970   27.4110   32.8760 C   0  0  0  0  0  0  0  0  0  0  0  0
   37.1310   27.2680   32.6570 C   0  0  0  0  0  0  0  0  0  0  0  0
   36.6130   25.9800   32.6250 C   0  0  0  0  0  0  0  0  0  0  0  0
   37.4320   24.9210   32.8020 N   0  0  0  0  0  0  0  0  0  0  0  0
   38.7400   25.0790   33.0100 C   0  0  0  0  0  0  0  0  0  0  0  0
   39.2590   26.3030   33.0460 N   0  0  0  0  0  0  0  0  0  0  0  0
   38.9690   28.3920   32.9130 H   0  0  0  0  0  0  0  0  0  0  0  0
   35.5390   25.8900   32.4520 H   0  0  0  0  0  0  0  0  0  0  0  0
   39.7470   24.2110   35.4950 N   0  0  0  0  0  0  0  0  0  0  0  0
   39.7930   23.4030   34.4970 C   0  0  0  0  0  0  0  0  0  0  0  0
   39.5690   23.9370   33.1930 N   0  0  0  0  0  0  0  0  0  0  0  0
   40.0580   22.0100   34.6590 N   0  0  0  0  0  0  0  0  0  0  0  0
   39.8710   21.0080   34.7890 H   0  0  0  0  0  0  0  0  0  0  0  0
   39.9110   23.8190   36.4460 H   0  0  0  0  0  0  0  0  0  0  0  0
   40.0220   23.4790   32.3600 H   0  0  0  0  0  0  0  0  0  0  0  0
   39.1800   21.4210   34.7610 H   0  0  0  0  0  0  0  0  0  0  0  0
   32.2190   29.3480   34.5420 Br  0  0  0  0  0  0  0  0  0  0  0  0
   33.3830   30.5200   35.4920 C   0  0  0  0  0  0  0  0  0  0  0  0
   34.5850   30.7540   34.8800 C   0  0  0  0  0  0  0  0  0  0  0  0
   35.4810   31.6410   35.5040 C   0  0  0  0  0  0  0  0  0  0  0  0
   35.1590   32.2420   36.6760 C   0  0  0  0  0  0  0  0  0  0  0  0
   33.9240   31.9620   37.2460 C   0  0  0  0  0  0  0  0  0  0  0  0
   33.0150   31.0880   36.6530 C   0  0  0  0  0  0  0  0  0  0  0  0
   36.4500   31.8820   35.0880 H   0  0  0  0  0  0  0  0  0  0  0  0
   35.8260   32.9290   37.1800 H   0  0  0  0  0  0  0  0  0  0  0  0
   33.6330   32.4230   38.1830 H   0  0  0  0  0  0  0  0  0  0  0  0
   31.7910   30.7610   37.1490 O   0  0  0  0  0  0  0  0  0  0  0  0
   31.6020   29.7760   37.3430 H   0  0  0  0  0  0  0  0  0  0  0  0
  2  1  1  0  0  0  0
  3 12  1  0  0  0  0
  3  2  2  0  0  0  0
  4  3  1  0  0  0  0
  5  4  2  0  0  0  0
  5  6  1  0  0  0  0
  6  7  2  0  0  0  0
  7  2  1  0  0  0  0
  7 29  1  0  0  0  0
  8  4  1  0  0  0  0
  9  5  1  0  0  0  0
 10  6  1  0  0  0  0
 11 17  1  0  0  0  0
 11 16  1  0  0  0  0
 12 11  2  0  0  0  0
 13 12  1  0  0  0  0
 13 14  2  0  0  0  0
 14 15  1  0  0  0  0
 15 16  2  0  0  0  0
 15 21  1  0  0  0  0
 18 13  1  0  0  0  0
 19 24  1  0  0  0  0
 20 22  1  0  0  0  0
 20 19  2  0  0  0  0
 21 20  1  0  0  0  0
 22 26  1  0  0  0  0
 22 23  1  0  0  0  0
 25 21  1  0  0  0  0
 27 28  1  0  0  0  0
 28 33  1  0  0  0  0
 29 28  2  0  0  0  0
 29 30  1  0  0  0  0
 30 31  2  0  0  0  0
 31 35  1  0  0  0  0
 31 32  1  0  0  0  0
 32 36  1  0  0  0  0
 33 37  1  0  0  0  0
 33 32  2  0  0  0  0
 34 30  1  0  0  0  0
 37 38  1  0  0  0  0
M  END
>  <minimizedAffinity>
-6.15718794

$$$$

 OpenBabel03272502083D

 38 40  0  0  0  0  0  0  0  0999 V2000
   35.3230   28.6380   34.5070 F   0  0  0  0  0  0  0  0  0  0  0  0
   35.5480   29.5620   33.5180 C   0  0  0  0  0  0  0  0  0  0  0  0
   36.1880   29.2270   32.3420 C   0  0  0  0  0  0  0  0  0  0  0  0
   36.3670   30.2030   31.3880 C   0  0  0  0  0  0  0  0  0  0  0  0
   35.9060   31.5080   31.6040 C   0  0  0  0  0  0  0  0  0  0  0  0
   35.2740   31.7730   32.8030 C   0  0  0  0  0  0  0  0  0  0  0  0
   35.0810   30.8530   33.7620 C   0  0  0  0  0  0  0  0  0  0  0  0
   36.8680   29.9060   30.4890 H   0  0  0  0  0  0  0  0  0  0  0  0
   36.0610   32.2440   30.8380 H   0  0  0  0  0  0  0  0  0  0  0  0
   34.9500   32.7980   32.8930 H   0  0  0  0  0  0  0  0  0  0  0  0
   35.8000   26.9980   31.5150 C   0  0  0  0  0  0  0  0  0  0  0  0
   36.6110   27.8610   32.2430 C   0  0  0  0  0  0  0  0  0  0  0  0
   37.7660   27.3400   32.8100 C   0  0  0  0  0  0  0  0  0  0  0  0
   38.0650   26.0320   32.6440 N   0  0  0  0  0  0  0  0  0  0  0  0
   37.2730   25.2200   31.9430 C   0  0  0  0  0  0  0  0  0  0  0  0
   36.1620   25.6980   31.3900 N   0  0  0  0  0  0  0  0  0  0  0  0
   34.8790   27.3420   31.0440 H   0  0  0  0  0  0  0  0  0  0  0  0
   38.3880   28.0330   33.3770 H   0  0  0  0  0  0  0  0  0  0  0  0
   38.3620   24.0950   29.6000 N   0  0  0  0  0  0  0  0  0  0  0  0
   38.4290   23.4230   30.6940 C   0  0  0  0  0  0  0  0  0  0  0  0
   37.6240   23.8500   31.7920 N   0  0  0  0  0  0  0  0  0  0  0  0
   39.2740   22.2810   30.8330 N   0  0  0  0  0  0  0  0  0  0  0  0
   40.1130   21.7330   31.0580 H   0  0  0  0  0  0  0  0  0  0  0  0
   38.9500   23.7810   28.8000 H   0  0  0  0  0  0  0  0  0  0  0  0
   37.2890   23.1420   32.4950 H   0  0  0  0  0  0  0  0  0  0  0  0
   40.2360   22.5110   31.2190 H   0  0  0  0  0  0  0  0  0  0  0  0
   32.0940   29.9780   34.1070 Br  0  0  0  0  0  0  0  0  0  0  0  0
   33.1430   30.8970   35.4070 C   0  0  0  0  0  0  0  0  0  0  0  0
   34.4170   31.1950   35.0080 C   0  0  0  0  0  0  0  0  0  0  0  0
   35.2380   31.9070   35.9010 C   0  0  0  0  0  0  0  0  0  0  0  0
   34.7750   32.2830   37.1200 C   0  0  0  0  0  0  0  0  0  0  0  0
   33.4720   31.9480   37.4650 C   0  0  0  0  0  0  0  0  0  0  0  0
   32.6350   31.2440   36.6020 C   0  0  0  0  0  0  0  0  0  0  0  0
   36.2570   32.1850   35.6650 H   0  0  0  0  0  0  0  0  0  0  0  0
   35.3810   32.8320   37.8280 H   0  0  0  0  0  0  0  0  0  0  0  0
   33.0690   32.2320   38.4300 H   0  0  0  0  0  0  0  0  0  0  0  0
   31.3510   30.8770   36.8670 O   0  0  0  0  0  0  0  0  0  0  0  0
   31.1240   29.8820   36.8380 H   0  0  0  0  0  0  0  0  0  0  0  0
  2  7  1  0  0  0  0
  2  1  1  0  0  0  0
  3  2  2  0  0  0  0
  4  5  2  0  0  0  0
  4  3  1  0  0  0  0
  5  6  1  0  0  0  0
  6 10  1  0  0  0  0
  6  7  2  0  0  0  0
  7 29  1  0  0  0  0
  8  4  1  0  0  0  0
  9  5  1  0  0  0  0
 11 12  1  0  0  0  0
 12  3  1  0  0  0  0
 12 13  2  0  0  0  0
 13 18  1  0  0  0  0
 14 13  1  0  0  0  0
 15 14  2  0  0  0  0
 16 11  2  0  0  0  0
 16 15  1  0  0  0  0
 17 11  1  0  0  0  0
 19 20  2  0  0  0  0
 20 22  1  0  0  0  0
 20 21  1  0  0  0  0
 21 15  1  0  0  0  0
 21 25  1  0  0  0  0
 22 23  1  0  0  0  0
 22 26  1  0  0  0  0
 24 19  1  0  0  0  0
 27 28  1  0  0  0  0
 28 33  1  0  0  0  0
 29 28  2  0  0  0  0
 29 30  1  0  0  0  0
 30 31  2  0  0  0  0
 31 32  1  0  0  0  0
 31 35  1  0  0  0  0
 32 36  1  0  0  0  0
 33 37  1  0  0  0  0
 33 32  2  0  0  0  0
 34 30  1  0  0  0  0
 38 37  1  0  0  0  0
M  END
>  <minimizedAffinity>
-6.13354778

$$$$

 OpenBabel03272502083D

 38 40  0  0  0  0  0  0  0  0999 V2000
   35.7190   27.8920   35.0240 F   0  0  0  0  0  0  0  0  0  0  0  0
   36.0150   28.4430   33.8030 C   0  0  0  0  0  0  0  0  0  0  0  0
   37.0230   27.9410   33.0040 C   0  0  0  0  0  0  0  0  0  0  0  0
   37.2540   28.5340   31.7840 C   0  0  0  0  0  0  0  0  0  0  0  0
   36.4820   29.6240   31.3610 C   0  0  0  0  0  0  0  0  0  0  0  0
   35.4900   30.0750   32.2100 C   0  0  0  0  0  0  0  0  0  0  0  0
   35.2320   29.5270   33.4090 C   0  0  0  0  0  0  0  0  0  0  0  0
   38.0440   28.1170   31.1920 H   0  0  0  0  0  0  0  0  0  0  0  0
   36.6890   30.0620   30.4020 H   0  0  0  0  0  0  0  0  0  0  0  0
   34.9430   30.9150   31.8130 H   0  0  0  0  0  0  0  0  0  0  0  0
   38.7320   27.1040   34.4810 C   0  0  0  0  0  0  0  0  0  0  0  0
   37.7380   26.8250   33.5500 C   0  0  0  0  0  0  0  0  0  0  0  0
   37.5110   25.4950   33.2250 C   0  0  0  0  0  0  0  0  0  0  0  0
   38.2480   24.5250   33.8100 N   0  0  0  0  0  0  0  0  0  0  0  0
   39.1980   24.8130   34.7010 C   0  0  0  0  0  0  0  0  0  0  0  0
   39.4330   26.0800   35.0280 N   0  0  0  0  0  0  0  0  0  0  0  0
   38.9620   28.1260   34.7810 H   0  0  0  0  0  0  0  0  0  0  0  0
   36.7270   25.2970   32.4930 H   0  0  0  0  0  0  0  0  0  0  0  0
   38.8160   23.8510   37.3220 N   0  0  0  0  0  0  0  0  0  0  0  0
   39.5100   23.1450   36.5030 C   0  0  0  0  0  0  0  0  0  0  0  0
   39.9510   23.7620   35.2940 N   0  0  0  0  0  0  0  0  0  0  0  0
   39.8430   21.7820   36.7680 N   0  0  0  0  0  0  0  0  0  0  0  0
   39.7620   20.7580   36.7630 H   0  0  0  0  0  0  0  0  0  0  0  0
   38.4950   23.3980   38.2040 H   0  0  0  0  0  0  0  0  0  0  0  0
   40.8420   23.4340   34.8390 H   0  0  0  0  0  0  0  0  0  0  0  0
   39.1450   21.0900   36.3670 H   0  0  0  0  0  0  0  0  0  0  0  0
   36.0740   31.4520   35.7300 Br  0  0  0  0  0  0  0  0  0  0  0  0
   34.2900   30.9300   35.3080 C   0  0  0  0  0  0  0  0  0  0  0  0
   34.1820   30.0530   34.2630 C   0  0  0  0  0  0  0  0  0  0  0  0
   32.8980   29.5930   33.9190 C   0  0  0  0  0  0  0  0  0  0  0  0
   31.8040   30.0090   34.6050 C   0  0  0  0  0  0  0  0  0  0  0  0
   31.9820   30.9000   35.6550 C   0  0  0  0  0  0  0  0  0  0  0  0
   33.2400   31.3740   36.0200 C   0  0  0  0  0  0  0  0  0  0  0  0
   32.7230   28.8990   33.1070 H   0  0  0  0  0  0  0  0  0  0  0  0
   30.8040   29.6730   34.3650 H   0  0  0  0  0  0  0  0  0  0  0  0
   31.1310   31.2550   36.2260 H   0  0  0  0  0  0  0  0  0  0  0  0
   33.4950   32.2470   37.0330 O   0  0  0  0  0  0  0  0  0  0  0  0
   33.9600   33.1260   36.7980 H   0  0  0  0  0  0  0  0  0  0  0  0
  2  1  1  0  0  0  0
  3 12  1  0  0  0  0
  3  2  2  0  0  0  0
  4  3  1  0  0  0  0
  5  4  2  0  0  0  0
  5  6  1  0  0  0  0
  6  7  2  0  0  0  0
  7  2  1  0  0  0  0
  7 29  1  0  0  0  0
  8  4  1  0  0  0  0
  9  5  1  0  0  0  0
 10  6  1  0  0  0  0
 11 17  1  0  0  0  0
 11 16  1  0  0  0  0
 12 11  2  0  0  0  0
 13 12  1  0  0  0  0
 13 14  2  0  0  0  0
 14 15  1  0  0  0  0
 15 16  2  0  0  0  0
 15 21  1  0  0  0  0
 18 13  1  0  0  0  0
 19 24  1  0  0  0  0
 20 22  1  0  0  0  0
 20 19  2  0  0  0  0
 21 20  1  0  0  0  0
 23 22  1  0  0  0  0
 25 21  1  0  0  0  0
 26 22  1  0  0  0  0
 28 27  1  0  0  0  0
 28 33  1  0  0  0  0
 29 28  2  0  0  0  0
 30 29  1  0  0  0  0
 30 31  2  0  0  0  0
 31 32  1  0  0  0  0
 32 33  2  0  0  0  0
 32 36  1  0  0  0  0
 33 37  1  0  0  0  0
 34 30  1  0  0  0  0
 35 31  1  0  0  0  0
 38 37  1  0  0  0  0
M  END
>  <minimizedAffinity>
-6.11671448

$$$$
