
 OpenBabel03272508403D

 41 43  0  0  1  0  0  0  0  0999 V2000
   31.1620   29.5310   44.9970 N   0  0  0  0  0  0  0  0  0  0  0  0
   31.9680   29.6020   46.2140 C   0  0  0  0  0  0  0  0  0  0  0  0
   33.4100   29.5240   45.9920 C   0  0  2  0  0  0  0  0  0  0  0  0
   33.7770   28.4730   45.0000 N   0  0  0  0  0  0  0  0  0  0  0  0
   32.9990   28.7370   43.7770 C   0  0  0  0  0  0  0  0  0  0  0  0
   31.5780   28.4330   44.1970 C   0  0  0  0  0  0  0  0  0  0  0  0
   31.6610   28.6090   46.6930 H   0  0  0  0  0  0  0  0  0  0  0  0
   31.6690   30.4680   46.7970 H   0  0  0  0  0  0  0  0  0  0  0  0
   33.8680   30.3990   45.4980 H   0  0  0  0  0  0  0  0  0  0  0  0
   33.5960   27.5240   45.3840 H   0  0  0  0  0  0  0  0  0  0  0  0
   33.3200   27.9680   43.0460 H   0  0  0  0  0  0  0  0  0  0  0  0
   33.1780   29.7710   43.4860 H   0  0  0  0  0  0  0  0  0  0  0  0
   31.6030   27.4820   44.7790 H   0  0  0  0  0  0  0  0  0  0  0  0
   30.9040   28.2850   43.3480 H   0  0  0  0  0  0  0  0  0  0  0  0
   36.1630   30.6280   46.2030 Cl  0  0  0  0  0  0  0  0  0  0  0  0
   35.3590   29.7220   47.4910 C   0  0  0  0  0  0  0  0  0  0  0  0
   34.1000   29.2500   47.2410 C   0  0  0  0  0  0  0  0  0  0  0  0
   33.3350   28.5150   48.1630 C   0  0  0  0  0  0  0  0  0  0  0  0
   33.9560   28.2770   49.3970 C   0  0  0  0  0  0  0  0  0  0  0  0
   35.2480   28.7570   49.6570 C   0  0  0  0  0  0  0  0  0  0  0  0
   35.9210   29.4660   48.7090 C   0  0  0  0  0  0  0  0  0  0  0  0
   32.3780   28.0600   48.2250 H   0  0  0  0  0  0  0  0  0  0  0  0
   33.5470   27.7350   50.2400 H   0  0  0  0  0  0  0  0  0  0  0  0
   35.7350   28.5650   50.6160 H   0  0  0  0  0  0  0  0  0  0  0  0
   36.7080   31.9680   49.9310 N   0  0  0  0  0  0  0  0  0  0  0  0
   37.5540   30.9850   49.8680 C   0  0  0  0  0  0  0  0  0  0  0  0
   37.2450   29.9980   48.8610 N   0  0  0  0  0  0  0  0  0  0  0  0
   38.7190   30.8150   50.6810 N   0  0  0  0  0  0  0  0  0  0  0  0
   39.1100   30.6970   51.6260 H   0  0  0  0  0  0  0  0  0  0  0  0
   36.8740   32.7030   50.6280 H   0  0  0  0  0  0  0  0  0  0  0  0
   38.0510   29.6970   48.2610 H   0  0  0  0  0  0  0  0  0  0  0  0
   39.5410   30.8120   50.0160 H   0  0  0  0  0  0  0  0  0  0  0  0
   30.1180   30.4460   44.7180 C   0  0  0  0  0  0  0  0  0  0  0  0
   30.2670   31.4870   43.7990 C   0  0  0  0  0  0  0  0  0  0  0  0
   29.1910   32.3380   43.5790 C   0  0  0  0  0  0  0  0  0  0  0  0
   28.0200   32.1080   44.2860 N   0  0  0  0  0  0  0  0  0  0  0  0
   27.9290   31.0830   45.1640 C   0  0  0  0  0  0  0  0  0  0  0  0
   28.9450   30.2640   45.3840 N   0  0  0  0  0  0  0  0  0  0  0  0
   31.2270   31.5530   43.3210 H   0  0  0  0  0  0  0  0  0  0  0  0
   29.3140   33.1330   42.8740 H   0  0  0  0  0  0  0  0  0  0  0  0
   26.9770   31.0110   45.6440 H   0  0  0  0  0  0  0  0  0  0  0  0
  1  2  1  0  0  0  0
  2  7  1  0  0  0  0
  2  8  1  0  0  0  0
  3  9  1  6  0  0  0
  3  2  1  0  0  0  0
  3 17  1  0  0  0  0
  4 10  1  0  0  0  0
  4  3  1  0  0  0  0
  5  6  1  0  0  0  0
  5  4  1  0  0  0  0
  6 13  1  0  0  0  0
  6  1  1  0  0  0  0
 11  5  1  0  0  0  0
 12  5  1  0  0  0  0
 14  6  1  0  0  0  0
 15 16  1  0  0  0  0
 16 21  1  0  0  0  0
 17 16  2  0  0  0  0
 17 18  1  0  0  0  0
 18 22  1  0  0  0  0
 18 19  2  0  0  0  0
 19 20  1  0  0  0  0
 19 23  1  0  0  0  0
 20 24  1  0  0  0  0
 21 27  1  0  0  0  0
 21 20  2  0  0  0  0
 25 30  1  0  0  0  0
 26 25  2  0  0  0  0
 26 28  1  0  0  0  0
 27 26  1  0  0  0  0
 28 29  1  0  0  0  0
 31 27  1  0  0  0  0
 32 28  1  0  0  0  0
 33  1  1  0  0  0  0
 33 38  1  0  0  0  0
 34 33  2  0  0  0  0
 35 34  1  0  0  0  0
 35 36  2  0  0  0  0
 36 37  1  0  0  0  0
 37 38  2  0  0  0  0
 37 41  1  0  0  0  0
 39 34  1  0  0  0  0
 40 35  1  0  0  0  0
M  END
>  <minimizedAffinity>
-4.96223593

>  <minimizedRMSD>
3.40768528

$$$$
