
 OpenBabel03272502123D

 38 40  0  0  1  0  0  0  0  0999 V2000
   40.1300   32.1840   45.8300 C   0  0  2  0  0  0  0  0  0  0  0  0
   39.9470   33.1050   44.7010 C   0  0  0  0  0  0  0  0  0  0  0  0
   40.0710   32.1760   43.5130 C   0  0  0  0  0  0  0  0  0  0  0  0
   39.8700   30.7990   43.9830 C   0  0  0  0  0  0  0  0  0  0  0  0
   39.4920   30.9150   45.4580 C   0  0  2  0  0  0  0  0  0  0  0  0
   41.2510   32.0760   45.9720 H   0  0  0  0  0  0  0  0  0  0  0  0
   39.0810   33.7630   44.6940 H   0  0  0  0  0  0  0  0  0  0  0  0
   40.8250   33.8360   44.7060 H   0  0  0  0  0  0  0  0  0  0  0  0
   39.4550   32.4940   42.6550 H   0  0  0  0  0  0  0  0  0  0  0  0
   41.1200   32.2600   43.1550 H   0  0  0  0  0  0  0  0  0  0  0  0
   40.7160   30.1330   43.7900 H   0  0  0  0  0  0  0  0  0  0  0  0
   38.9790   30.2930   43.5140 H   0  0  0  0  0  0  0  0  0  0  0  0
   40.1790   30.1260   45.9220 H   0  0  0  0  0  0  0  0  0  0  0  0
   38.3250   32.0960   49.0250 C   0  0  0  0  0  0  0  0  0  0  0  0
   38.6580   33.3500   49.5050 C   0  0  0  0  0  0  0  0  0  0  0  0
   39.4660   34.2520   48.8070 C   0  0  0  0  0  0  0  0  0  0  0  0
   39.9410   33.8580   47.5870 N   0  0  0  0  0  0  0  0  0  0  0  0
   39.6060   32.6340   47.1380 C   0  0  0  0  0  0  0  0  0  0  0  0
   38.8400   31.7920   47.8110 N   0  0  0  0  0  0  0  0  0  0  0  0
   38.2890   33.6790   50.4700 H   0  0  0  0  0  0  0  0  0  0  0  0
   39.7160   35.2290   49.1990 H   0  0  0  0  0  0  0  0  0  0  0  0
   37.8690   30.5560   50.9440 C   0  0  0  0  0  0  0  0  0  0  0  0
   37.5050   31.1800   49.7570 C   0  0  0  0  0  0  0  0  0  0  0  0
   36.2480   30.8790   49.2660 C   0  0  0  0  0  0  0  0  0  0  0  0
   35.4530   30.0160   49.9410 N   0  0  0  0  0  0  0  0  0  0  0  0
   35.8520   29.4260   51.1020 C   0  0  0  0  0  0  0  0  0  0  0  0
   37.0830   29.7080   51.6030 N   0  0  0  0  0  0  0  0  0  0  0  0
   38.8410   30.7770   51.3400 H   0  0  0  0  0  0  0  0  0  0  0  0
   35.8840   31.3190   48.3500 H   0  0  0  0  0  0  0  0  0  0  0  0
   35.2330   28.7400   51.6490 H   0  0  0  0  0  0  0  0  0  0  0  0
   36.9710   31.9430   44.4210 N   0  0  0  0  0  0  0  0  0  0  0  0
   36.9440   31.0070   45.2690 C   0  0  0  0  0  0  0  0  0  0  0  0
   38.1970   30.5590   45.7670 N   0  0  0  0  0  0  0  0  0  0  0  0
   35.6480   30.5260   45.5990 N   0  0  0  0  0  0  0  0  0  0  0  0
   34.8890   30.4340   46.3100 H   0  0  0  0  0  0  0  0  0  0  0  0
   36.1810   32.3930   43.9560 H   0  0  0  0  0  0  0  0  0  0  0  0
   37.9800   29.8100   46.5100 H   0  0  0  0  0  0  0  0  0  0  0  0
   35.2470   30.0280   44.7560 H   0  0  0  0  0  0  0  0  0  0  0  0
  1  6  1  1  0  0  0
  1 18  1  0  0  0  0
  2  8  1  0  0  0  0
  2  1  1  0  0  0  0
  3  4  1  0  0  0  0
  3  2  1  0  0  0  0
  4  5  1  0  0  0  0
  5 33  1  0  0  0  0
  5  1  1  0  0  0  0
  5 13  1  1  0  0  0
  7  2  1  0  0  0  0
  9  3  1  0  0  0  0
 10  3  1  0  0  0  0
 11  4  1  0  0  0  0
 12  4  1  0  0  0  0
 14 15  1  0  0  0  0
 14 23  1  0  0  0  0
 15 20  1  0  0  0  0
 16 21  1  0  0  0  0
 16 15  2  0  0  0  0
 17 16  1  0  0  0  0
 18 17  2  0  0  0  0
 18 19  1  0  0  0  0
 19 14  2  0  0  0  0
 22 28  1  0  0  0  0
 22 27  1  0  0  0  0
 23 22  2  0  0  0  0
 24 23  1  0  0  0  0
 24 25  2  0  0  0  0
 25 26  1  0  0  0  0
 26 27  2  0  0  0  0
 26 30  1  0  0  0  0
 29 24  1  0  0  0  0
 31 32  2  0  0  0  0
 32 34  1  0  0  0  0
 32 33  1  0  0  0  0
 33 37  1  0  0  0  0
 34 35  1  0  0  0  0
 36 31  1  0  0  0  0
 38 34  1  0  0  0  0
M  END
>  <minimizedAffinity>
-6.60308647

>  <minimizedRMSD>
1.00594771

$$$$
