
 OpenBabel03272505373D

 30 31  0  0  0  0  0  0  0  0999 V2000
   36.4170   30.5640   46.5250 C   0  0  0  0  0  0  0  0  0  0  0  0
   35.1580   29.9730   46.4750 C   0  0  0  0  0  0  0  0  0  0  0  0
   34.5170   29.7110   45.3020 C   0  0  0  0  0  0  0  0  0  0  0  0
   35.1060   30.0300   44.0790 C   0  0  0  0  0  0  0  0  0  0  0  0
   36.3440   30.6120   44.1130 C   0  0  0  0  0  0  0  0  0  0  0  0
   36.9950   30.8770   45.3070 C   0  0  0  0  0  0  0  0  0  0  0  0
   34.7160   29.7320   47.4560 H   0  0  0  0  0  0  0  0  0  0  0  0
   33.5490   29.2510   45.4180 H   0  0  0  0  0  0  0  0  0  0  0  0
   34.5190   29.7840   43.2080 H   0  0  0  0  0  0  0  0  0  0  0  0
   36.6730   30.8120   43.1160 H   0  0  0  0  0  0  0  0  0  0  0  0
   37.4450   30.2920   50.0230 C   0  0  0  0  0  0  0  0  0  0  0  0
   38.2930   31.3900   50.1800 C   0  0  0  0  0  0  0  0  0  0  0  0
   38.4980   32.2150   49.0750 C   0  0  0  0  0  0  0  0  0  0  0  0
   37.8600   31.8930   47.9280 N   0  0  0  0  0  0  0  0  0  0  0  0
   37.0520   30.8330   47.8010 C   0  0  0  0  0  0  0  0  0  0  0  0
   36.8510   30.0390   48.8570 N   0  0  0  0  0  0  0  0  0  0  0  0
   38.7560   31.5630   51.1410 H   0  0  0  0  0  0  0  0  0  0  0  0
   39.1510   33.0620   49.1920 H   0  0  0  0  0  0  0  0  0  0  0  0
   37.2210   29.4130   51.2250 C   0  0  0  0  0  0  0  0  0  0  0  0
   35.8450   29.1780   51.3730 F   0  0  0  0  0  0  0  0  0  0  0  0
   37.9140   28.2700   51.0520 F   0  0  0  0  0  0  0  0  0  0  0  0
   37.6150   30.1150   52.3450 F   0  0  0  0  0  0  0  0  0  0  0  0
   39.5910   29.6380   44.7090 N   0  0  0  0  0  0  0  0  0  0  0  0
   39.3950   30.9110   44.5370 C   0  0  0  0  0  0  0  0  0  0  0  0
   38.2780   31.4680   45.2230 N   0  0  0  0  0  0  0  0  0  0  0  0
   40.2890   31.6770   43.6950 N   0  0  0  0  0  0  0  0  0  0  0  0
   40.3600   31.1880   42.7690 H   0  0  0  0  0  0  0  0  0  0  0  0
   40.3790   29.1970   44.2350 H   0  0  0  0  0  0  0  0  0  0  0  0
   38.6130   32.3680   45.6270 H   0  0  0  0  0  0  0  0  0  0  0  0
   40.8040   32.5410   43.8690 H   0  0  0  0  0  0  0  0  0  0  0  0
  1 15  1  0  0  0  0
  2  1  1  0  0  0  0
  2  7  1  0  0  0  0
  3  8  1  0  0  0  0
  3  2  2  0  0  0  0
  4  5  2  0  0  0  0
  4  3  1  0  0  0  0
  5  6  1  0  0  0  0
  6  1  2  0  0  0  0
  9  4  1  0  0  0  0
 10  5  1  0  0  0  0
 11 12  1  0  0  0  0
 11 19  1  0  0  0  0
 12 17  1  0  0  0  0
 13 18  1  0  0  0  0
 13 12  2  0  0  0  0
 14 13  1  0  0  0  0
 15 14  2  0  0  0  0
 15 16  1  0  0  0  0
 16 11  2  0  0  0  0
 19 20  1  0  0  0  0
 19 22  1  0  0  0  0
 21 19  1  0  0  0  0
 24 23  2  0  0  0  0
 24 25  1  0  0  0  0
 25  6  1  0  0  0  0
 25 29  1  0  0  0  0
 26 30  1  0  0  0  0
 26 24  1  0  0  0  0
 27 26  1  0  0  0  0
 28 23  1  0  0  0  0
M  END
>  <minimizedAffinity>
-6.18914127

>  <minimizedRMSD>
0.860611022

$$$$
