
 OpenBabel03262522503D

 32 34  0  0  0  0  0  0  0  0999 V2000
   35.9380   30.0300   48.6750 C   0  0  0  0  0  0  0  0  0  0  0  0
   35.7180   29.1340   49.6350 C   0  0  0  0  0  0  0  0  0  0  0  0
   34.6690   28.2480   49.5000 C   0  0  0  0  0  0  0  0  0  0  0  0
   33.9260   28.3660   48.3660 C   0  0  0  0  0  0  0  0  0  0  0  0
   34.7270   29.7420   47.4930 S   0  0  0  0  0  0  0  0  0  0  0  0
   36.3750   29.1140   50.5240 H   0  0  0  0  0  0  0  0  0  0  0  0
   34.4090   27.4820   50.2270 H   0  0  0  0  0  0  0  0  0  0  0  0
   32.7650   27.5790   47.9430 C   0  0  0  0  0  0  0  0  0  0  0  0
   32.8010   26.9170   46.7540 C   0  0  0  0  0  0  0  0  0  0  0  0
   31.6800   26.1910   46.4110 C   0  0  0  0  0  0  0  0  0  0  0  0
   30.5870   26.1330   47.2080 N   0  0  0  0  0  0  0  0  0  0  0  0
   30.6570   26.8280   48.3660 C   0  0  0  0  0  0  0  0  0  0  0  0
   31.7120   27.5560   48.7700 N   0  0  0  0  0  0  0  0  0  0  0  0
   33.6540   26.9280   46.0730 H   0  0  0  0  0  0  0  0  0  0  0  0
   31.6200   25.6320   45.4850 H   0  0  0  0  0  0  0  0  0  0  0  0
   30.0130   28.8180   50.2880 N   0  0  0  0  0  0  0  0  0  0  0  0
   29.3740   27.7110   50.2810 C   0  0  0  0  0  0  0  0  0  0  0  0
   29.5220   26.7840   49.2230 N   0  0  0  0  0  0  0  0  0  0  0  0
   28.5060   27.4390   51.3740 N   0  0  0  0  0  0  0  0  0  0  0  0
   27.8810   27.1240   52.1250 H   0  0  0  0  0  0  0  0  0  0  0  0
   29.9420   29.5430   51.0490 H   0  0  0  0  0  0  0  0  0  0  0  0
   28.7590   26.0800   49.1160 H   0  0  0  0  0  0  0  0  0  0  0  0
   28.1810   26.4580   51.5160 H   0  0  0  0  0  0  0  0  0  0  0  0
   37.9030   32.9880   49.4950 C   0  0  0  0  0  0  0  0  0  0  0  0
   38.8890   33.0160   48.4880 C   0  0  0  0  0  0  0  0  0  0  0  0
   38.8640   32.0020   47.5240 C   0  0  0  0  0  0  0  0  0  0  0  0
   37.8930   31.0320   47.5980 N   0  0  0  0  0  0  0  0  0  0  0  0
   36.9810   31.0680   48.5900 C   0  0  0  0  0  0  0  0  0  0  0  0
   36.9720   32.0110   49.5200 N   0  0  0  0  0  0  0  0  0  0  0  0
   37.9480   33.7850   50.2270 H   0  0  0  0  0  0  0  0  0  0  0  0
   39.6130   33.8010   48.4940 H   0  0  0  0  0  0  0  0  0  0  0  0
   39.6060   31.9930   46.7380 H   0  0  0  0  0  0  0  0  0  0  0  0
  1  2  2  0  0  0  0
  2  6  1  0  0  0  0
  3  2  1  0  0  0  0
  3  7  1  0  0  0  0
  4  3  2  0  0  0  0
  5  4  1  0  0  0  0
  5  1  1  0  0  0  0
  8  4  1  0  0  0  0
  8 13  1  0  0  0  0
  9  8  2  0  0  0  0
 10  9  1  0  0  0  0
 10 11  2  0  0  0  0
 11 12  1  0  0  0  0
 12 13  2  0  0  0  0
 12 18  1  0  0  0  0
 14  9  1  0  0  0  0
 15 10  1  0  0  0  0
 16 21  1  0  0  0  0
 17 16  2  0  0  0  0
 17 19  1  0  0  0  0
 18 17  1  0  0  0  0
 19 23  1  0  0  0  0
 19 20  1  0  0  0  0
 22 18  1  0  0  0  0
 24 29  1  0  0  0  0
 24 30  1  0  0  0  0
 25 31  1  0  0  0  0
 25 24  2  0  0  0  0
 26 27  2  0  0  0  0
 26 25  1  0  0  0  0
 27 28  1  0  0  0  0
 28  1  1  0  0  0  0
 28 29  2  0  0  0  0
 32 26  1  0  0  0  0
M  END
>  <minimizedAffinity>
-6.95479774

>  <minimizedRMSD>
0.799325526

$$$$
