
 OpenBabel03272509333D

 40 43  0  0  1  0  0  0  0  0999 V2000
   37.6550   32.0900   47.8040 C   0  0  1  0  0  0  0  0  0  0  0  0
   38.9790   32.6910   48.0470 C   0  0  0  0  0  0  0  0  0  0  0  0
   38.9440   31.4900   47.1710 C   0  0  2  0  0  0  0  0  0  0  0  0
   37.0140   32.4810   47.0330 H   0  0  0  0  0  0  0  0  0  0  0  0
   39.3920   32.5080   49.0850 H   0  0  0  0  0  0  0  0  0  0  0  0
   39.0100   33.7350   47.7970 H   0  0  0  0  0  0  0  0  0  0  0  0
   38.9540   30.4300   47.3630 H   0  0  0  0  0  0  0  0  0  0  0  0
   39.2870   31.8600   45.7720 C   0  0  0  0  0  0  0  0  0  0  0  0
   39.6650   33.2070   45.6990 C   0  0  0  0  0  0  0  0  0  0  0  0
   40.1040   33.7580   44.5140 C   0  0  0  0  0  0  0  0  0  0  0  0
   40.1880   32.9840   43.3510 C   0  0  0  0  0  0  0  0  0  0  0  0
   39.8120   31.6640   43.4490 C   0  0  0  0  0  0  0  0  0  0  0  0
   39.8260   30.7910   42.3860 C   0  0  0  0  0  0  0  0  0  0  0  0
   39.4350   29.4680   42.4770 C   0  0  0  0  0  0  0  0  0  0  0  0
   39.0060   28.9740   43.6860 C   0  0  0  0  0  0  0  0  0  0  0  0
   38.9860   29.8330   44.7610 C   0  0  0  0  0  0  0  0  0  0  0  0
   39.3810   31.1430   44.6320 C   0  0  0  0  0  0  0  0  0  0  0  0
   39.7400   34.0380   46.3660 H   0  0  0  0  0  0  0  0  0  0  0  0
   40.4270   34.7600   44.2850 H   0  0  0  0  0  0  0  0  0  0  0  0
   40.5070   33.2590   42.3540 H   0  0  0  0  0  0  0  0  0  0  0  0
   40.1600   31.1410   41.4050 H   0  0  0  0  0  0  0  0  0  0  0  0
   39.4590   28.8090   41.6120 H   0  0  0  0  0  0  0  0  0  0  0  0
   38.6930   27.9600   43.8170 H   0  0  0  0  0  0  0  0  0  0  0  0
   38.6400   29.4220   45.7260 H   0  0  0  0  0  0  0  0  0  0  0  0
   35.1740   30.0420   49.7620 C   0  0  0  0  0  0  0  0  0  0  0  0
   35.7300   30.8700   48.7350 C   0  0  0  0  0  0  0  0  0  0  0  0
   37.0600   31.2280   48.8440 C   0  0  0  0  0  0  0  0  0  0  0  0
   37.7630   30.7640   49.9370 N   0  0  0  0  0  0  0  0  0  0  0  0
   37.2130   29.9930   50.8760 C   0  0  0  0  0  0  0  0  0  0  0  0
   35.9200   29.6190   50.8120 N   0  0  0  0  0  0  0  0  0  0  0  0
   34.1410   29.7650   49.6750 H   0  0  0  0  0  0  0  0  0  0  0  0
   35.0920   31.1780   47.9210 H   0  0  0  0  0  0  0  0  0  0  0  0
   36.8060   27.5680   52.2870 N   0  0  0  0  0  0  0  0  0  0  0  0
   37.9460   28.1980   52.4340 C   0  0  0  0  0  0  0  0  0  0  0  0
   37.9950   29.5390   51.9880 N   0  0  0  0  0  0  0  0  0  0  0  0
   39.1280   27.6110   53.0170 N   0  0  0  0  0  0  0  0  0  0  0  0
   39.6780   28.0600   53.7830 H   0  0  0  0  0  0  0  0  0  0  0  0
   36.8220   26.5690   52.6370 H   0  0  0  0  0  0  0  0  0  0  0  0
   38.6230   30.2240   52.4870 H   0  0  0  0  0  0  0  0  0  0  0  0
   39.3670   26.6860   52.5790 H   0  0  0  0  0  0  0  0  0  0  0  0
  1  4  1  6  0  0  0
  1  2  1  0  0  0  0
  1 27  1  0  0  0  0
  2  5  1  0  0  0  0
  3  7  1  1  0  0  0
  3  1  1  0  0  0  0
  3  2  1  0  0  0  0
  6  2  1  0  0  0  0
  8  3  1  0  0  0  0
  9  8  1  0  0  0  0
  9 18  1  0  0  0  0
 10  9  2  0  0  0  0
 11 12  2  0  0  0  0
 11 10  1  0  0  0  0
 12 17  1  0  0  0  0
 13 14  2  0  0  0  0
 13 12  1  0  0  0  0
 14 15  1  0  0  0  0
 15 23  1  0  0  0  0
 15 16  2  0  0  0  0
 16 24  1  0  0  0  0
 17 16  1  0  0  0  0
 17  8  2  0  0  0  0
 19 10  1  0  0  0  0
 20 11  1  0  0  0  0
 21 13  1  0  0  0  0
 22 14  1  0  0  0  0
 25 30  1  0  0  0  0
 26 27  1  0  0  0  0
 26 25  2  0  0  0  0
 27 28  2  0  0  0  0
 28 29  1  0  0  0  0
 29 35  1  0  0  0  0
 30 29  2  0  0  0  0
 31 25  1  0  0  0  0
 32 26  1  0  0  0  0
 33 34  2  0  0  0  0
 33 38  1  0  0  0  0
 34 36  1  0  0  0  0
 35 34  1  0  0  0  0
 35 39  1  0  0  0  0
 36 37  1  0  0  0  0
 40 36  1  0  0  0  0
M  END
>  <minimizedAffinity>
-2.8653307

>  <minimizedRMSD>
0.776357949

$$$$
