
 OpenBabel03272507363D

 18 18  0  0  0  0  0  0  0  0999 V2000
   36.8720   30.0500   51.0120 C   0  0  0  0  0  0  0  0  0  0  0  0
   36.9020   31.0030   49.9930 C   0  0  0  0  0  0  0  0  0  0  0  0
   35.7770   31.0290   49.1900 C   0  0  0  0  0  0  0  0  0  0  0  0
   34.7330   30.1790   49.3970 N   0  0  0  0  0  0  0  0  0  0  0  0
   34.7430   29.2700   50.3970 C   0  0  0  0  0  0  0  0  0  0  0  0
   35.8190   29.2380   51.1730 N   0  0  0  0  0  0  0  0  0  0  0  0
   35.6500   31.7100   48.3670 H   0  0  0  0  0  0  0  0  0  0  0  0
   33.9580   28.5670   50.6220 H   0  0  0  0  0  0  0  0  0  0  0  0
   38.9120   31.0110   47.8960 N   0  0  0  0  0  0  0  0  0  0  0  0
   38.6420   32.1210   48.5430 C   0  0  0  0  0  0  0  0  0  0  0  0
   37.9860   31.8950   49.7820 N   0  0  0  0  0  0  0  0  0  0  0  0
   38.9180   33.4900   48.1750 N   0  0  0  0  0  0  0  0  0  0  0  0
   39.2590   34.1000   48.9560 H   0  0  0  0  0  0  0  0  0  0  0  0
   39.3950   31.1660   46.9840 H   0  0  0  0  0  0  0  0  0  0  0  0
   38.3160   32.4350   50.6410 H   0  0  0  0  0  0  0  0  0  0  0  0
   38.7210   33.6540   47.1420 H   0  0  0  0  0  0  0  0  0  0  0  0
   38.0090   30.0510   51.7970 O   0  0  0  0  0  0  0  0  0  0  0  0
   38.2250   29.3650   52.5150 H   0  0  0  0  0  0  0  0  0  0  0  0
  1  6  1  0  0  0  0
  1 17  1  0  0  0  0
  2  1  2  0  0  0  0
  3  4  2  0  0  0  0
  3  2  1  0  0  0  0
  4  5  1  0  0  0  0
  5  8  1  0  0  0  0
  5  6  2  0  0  0  0
  7  3  1  0  0  0  0
  9 10  2  0  0  0  0
 10 11  1  0  0  0  0
 11  2  1  0  0  0  0
 11 15  1  0  0  0  0
 12 10  1  0  0  0  0
 12 13  1  0  0  0  0
 14  9  1  0  0  0  0
 16 12  1  0  0  0  0
 17 18  1  0  0  0  0
M  END
>  <minimizedAffinity>
-4.63592052

>  <minimizedRMSD>
1.52050793

$$$$
