
 OpenBabel03272507363D

 18 18  0  0  0  0  0  0  0  0999 V2000
   36.8730   30.0500   51.0190 C   0  0  0  0  0  0  0  0  0  0  0  0
   36.8950   31.0060   50.0020 C   0  0  0  0  0  0  0  0  0  0  0  0
   35.7640   31.0340   49.2090 C   0  0  0  0  0  0  0  0  0  0  0  0
   34.7210   30.1840   49.4220 N   0  0  0  0  0  0  0  0  0  0  0  0
   34.7390   29.2730   50.4200 C   0  0  0  0  0  0  0  0  0  0  0  0
   35.8210   29.2390   51.1870 N   0  0  0  0  0  0  0  0  0  0  0  0
   35.6310   31.7170   48.3880 H   0  0  0  0  0  0  0  0  0  0  0  0
   33.9560   28.5700   50.6500 H   0  0  0  0  0  0  0  0  0  0  0  0
   38.9040   31.0010   47.9030 N   0  0  0  0  0  0  0  0  0  0  0  0
   38.6330   32.1150   48.5430 C   0  0  0  0  0  0  0  0  0  0  0  0
   37.9780   31.8970   49.7840 N   0  0  0  0  0  0  0  0  0  0  0  0
   38.9060   33.4830   48.1650 N   0  0  0  0  0  0  0  0  0  0  0  0
   39.2480   34.0970   48.9410 H   0  0  0  0  0  0  0  0  0  0  0  0
   39.3860   31.1500   46.9900 H   0  0  0  0  0  0  0  0  0  0  0  0
   38.3090   32.4430   50.6380 H   0  0  0  0  0  0  0  0  0  0  0  0
   38.7090   33.6390   47.1310 H   0  0  0  0  0  0  0  0  0  0  0  0
   38.0170   30.0480   51.7940 O   0  0  0  0  0  0  0  0  0  0  0  0
   38.2380   29.3610   52.5090 H   0  0  0  0  0  0  0  0  0  0  0  0
  1  6  1  0  0  0  0
  1 17  1  0  0  0  0
  2  1  2  0  0  0  0
  3  4  2  0  0  0  0
  3  2  1  0  0  0  0
  4  5  1  0  0  0  0
  5  8  1  0  0  0  0
  5  6  2  0  0  0  0
  7  3  1  0  0  0  0
  9 10  2  0  0  0  0
 10 11  1  0  0  0  0
 11  2  1  0  0  0  0
 11 15  1  0  0  0  0
 12 10  1  0  0  0  0
 12 13  1  0  0  0  0
 14  9  1  0  0  0  0
 16 12  1  0  0  0  0
 17 18  1  0  0  0  0
M  END
>  <minimizedAffinity>
-4.63804674

>  <minimizedRMSD>
1.49069202

$$$$
