
 OpenBabel03272507363D

 18 18  0  0  0  0  0  0  0  0999 V2000
   37.0190   29.9890   51.1130 C   0  0  0  0  0  0  0  0  0  0  0  0
   37.2260   30.9250   50.0990 C   0  0  0  0  0  0  0  0  0  0  0  0
   36.1610   31.0890   49.2340 C   0  0  0  0  0  0  0  0  0  0  0  0
   35.0080   30.3810   49.3800 N   0  0  0  0  0  0  0  0  0  0  0  0
   34.8450   29.4830   50.3780 C   0  0  0  0  0  0  0  0  0  0  0  0
   35.8630   29.3180   51.2120 N   0  0  0  0  0  0  0  0  0  0  0  0
   36.1690   31.7770   48.4070 H   0  0  0  0  0  0  0  0  0  0  0  0
   33.9660   28.8870   50.5560 H   0  0  0  0  0  0  0  0  0  0  0  0
   38.1130   32.5870   47.8870 N   0  0  0  0  0  0  0  0  0  0  0  0
   38.6070   32.7830   49.0880 C   0  0  0  0  0  0  0  0  0  0  0  0
   38.4260   31.6700   49.9510 N   0  0  0  0  0  0  0  0  0  0  0  0
   39.2880   33.9380   49.6250 N   0  0  0  0  0  0  0  0  0  0  0  0
   40.1180   33.7240   50.2260 H   0  0  0  0  0  0  0  0  0  0  0  0
   38.2420   33.3990   47.2460 H   0  0  0  0  0  0  0  0  0  0  0  0
   39.2460   31.3520   50.5520 H   0  0  0  0  0  0  0  0  0  0  0  0
   38.8160   34.8390   49.3110 H   0  0  0  0  0  0  0  0  0  0  0  0
   38.1000   29.8490   51.9600 O   0  0  0  0  0  0  0  0  0  0  0  0
   38.1870   29.1450   52.6880 H   0  0  0  0  0  0  0  0  0  0  0  0
  1  6  1  0  0  0  0
  1 17  1  0  0  0  0
  2  1  2  0  0  0  0
  3  4  2  0  0  0  0
  3  2  1  0  0  0  0
  4  5  1  0  0  0  0
  5  8  1  0  0  0  0
  5  6  2  0  0  0  0
  7  3  1  0  0  0  0
  9 10  2  0  0  0  0
 10 12  1  0  0  0  0
 10 11  1  0  0  0  0
 11  2  1  0  0  0  0
 11 15  1  0  0  0  0
 12 13  1  0  0  0  0
 14  9  1  0  0  0  0
 16 12  1  0  0  0  0
 17 18  1  0  0  0  0
M  END
>  <minimizedAffinity>
-4.5807724

>  <minimizedRMSD>
1.18317533

$$$$
