
 OpenBabel03272509343D

 40 43  0  0  1  0  0  0  0  0999 V2000
   37.9620   23.6590   32.4770 C   0  0  1  0  0  0  0  0  0  0  0  0
   37.4030   24.9180   33.0000 C   0  0  0  0  0  0  0  0  0  0  0  0
   38.3450   24.1890   33.8890 C   0  0  2  0  0  0  0  0  0  0  0  0
   38.8240   23.6740   31.8330 H   0  0  0  0  0  0  0  0  0  0  0  0
   36.3150   24.8550   33.3080 H   0  0  0  0  0  0  0  0  0  0  0  0
   37.5700   25.7490   32.3410 H   0  0  0  0  0  0  0  0  0  0  0  0
   38.2270   23.3840   34.5970 H   0  0  0  0  0  0  0  0  0  0  0  0
   39.6110   24.9550   34.0430 C   0  0  0  0  0  0  0  0  0  0  0  0
   39.4830   26.2310   33.4800 C   0  0  0  0  0  0  0  0  0  0  0  0
   40.5040   27.1530   33.5710 C   0  0  0  0  0  0  0  0  0  0  0  0
   41.6960   26.8390   34.2330 C   0  0  0  0  0  0  0  0  0  0  0  0
   41.7960   25.5800   34.7790 C   0  0  0  0  0  0  0  0  0  0  0  0
   42.9140   25.1280   35.4410 C   0  0  0  0  0  0  0  0  0  0  0  0
   43.0240   23.8580   35.9770 C   0  0  0  0  0  0  0  0  0  0  0  0
   41.9730   22.9810   35.8560 C   0  0  0  0  0  0  0  0  0  0  0  0
   40.8460   23.4170   35.1950 C   0  0  0  0  0  0  0  0  0  0  0  0
   40.7730   24.6860   34.6740 C   0  0  0  0  0  0  0  0  0  0  0  0
   38.7380   26.7830   32.9470 H   0  0  0  0  0  0  0  0  0  0  0  0
   40.5710   28.1620   33.2000 H   0  0  0  0  0  0  0  0  0  0  0  0
   42.5820   27.4390   34.3920 H   0  0  0  0  0  0  0  0  0  0  0  0
   43.7750   25.7920   35.5620 H   0  0  0  0  0  0  0  0  0  0  0  0
   43.9270   23.5380   36.4930 H   0  0  0  0  0  0  0  0  0  0  0  0
   42.0000   21.9880   36.2500 H   0  0  0  0  0  0  0  0  0  0  0  0
   40.0090   22.7020   35.1050 H   0  0  0  0  0  0  0  0  0  0  0  0
   36.0030   20.6300   31.3950 C   0  0  0  0  0  0  0  0  0  0  0  0
   36.8170   21.8060   31.3310 C   0  0  0  0  0  0  0  0  0  0  0  0
   37.1340   22.4380   32.5170 C   0  0  0  0  0  0  0  0  0  0  0  0
   36.6430   21.8930   33.6870 N   0  0  0  0  0  0  0  0  0  0  0  0
   35.8880   20.7940   33.7100 C   0  0  0  0  0  0  0  0  0  0  0  0
   35.5530   20.1450   32.5790 N   0  0  0  0  0  0  0  0  0  0  0  0
   35.7590   20.1400   30.4730 H   0  0  0  0  0  0  0  0  0  0  0  0
   37.1490   22.1480   30.3630 H   0  0  0  0  0  0  0  0  0  0  0  0
   36.8700   21.5050   36.2730 N   0  0  0  0  0  0  0  0  0  0  0  0
   35.7130   20.8950   36.1900 C   0  0  0  0  0  0  0  0  0  0  0  0
   35.4090   20.2740   34.9570 N   0  0  0  0  0  0  0  0  0  0  0  0
   34.7560   20.8230   37.2660 N   0  0  0  0  0  0  0  0  0  0  0  0
   34.3200   19.9310   37.5910 H   0  0  0  0  0  0  0  0  0  0  0  0
   37.0500   21.9540   37.2150 H   0  0  0  0  0  0  0  0  0  0  0  0
   34.8120   19.4030   34.9550 H   0  0  0  0  0  0  0  0  0  0  0  0
   34.5510   21.7670   37.6780 H   0  0  0  0  0  0  0  0  0  0  0  0
  1  4  1  6  0  0  0
  1 27  1  0  0  0  0
  1  2  1  0  0  0  0
  1  3  1  0  0  0  0
  2  5  1  0  0  0  0
  2  3  1  0  0  0  0
  3  8  1  0  0  0  0
  3  7  1  1  0  0  0
  6  2  1  0  0  0  0
  8 17  1  0  0  0  0
  9 10  1  0  0  0  0
  9  8  2  0  0  0  0
 10 11  2  0  0  0  0
 11 20  1  0  0  0  0
 11 12  1  0  0  0  0
 12 13  1  0  0  0  0
 13 21  1  0  0  0  0
 13 14  2  0  0  0  0
 14 22  1  0  0  0  0
 15 14  1  0  0  0  0
 15 23  1  0  0  0  0
 16 15  2  0  0  0  0
 17 12  2  0  0  0  0
 17 16  1  0  0  0  0
 18  9  1  0  0  0  0
 19 10  1  0  0  0  0
 24 16  1  0  0  0  0
 25 30  1  0  0  0  0
 26 25  2  0  0  0  0
 26 27  1  0  0  0  0
 27 28  2  0  0  0  0
 28 29  1  0  0  0  0
 29 35  1  0  0  0  0
 30 29  2  0  0  0  0
 31 25  1  0  0  0  0
 32 26  1  0  0  0  0
 33 38  1  0  0  0  0
 34 33  2  0  0  0  0
 34 36  1  0  0  0  0
 35 34  1  0  0  0  0
 36 37  1  0  0  0  0
 36 40  1  0  0  0  0
 39 35  1  0  0  0  0
M  END
>  <minimizedAffinity>
-6.58822012

$$$$

 OpenBabel03272509343D

 40 43  0  0  1  0  0  0  0  0999 V2000
   39.3860   25.5860   34.8170 C   0  0  1  0  0  0  0  0  0  0  0  0
   39.7510   24.9030   33.5630 C   0  0  0  0  0  0  0  0  0  0  0  0
   38.3500   25.3870   33.6740 C   0  0  2  0  0  0  0  0  0  0  0  0
   39.5950   26.6340   34.9460 H   0  0  0  0  0  0  0  0  0  0  0  0
   39.8730   23.7820   33.6600 H   0  0  0  0  0  0  0  0  0  0  0  0
   40.6040   25.3460   33.0850 H   0  0  0  0  0  0  0  0  0  0  0  0
   37.4510   24.9710   34.1000 H   0  0  0  0  0  0  0  0  0  0  0  0
   38.1120   26.5090   32.7260 C   0  0  0  0  0  0  0  0  0  0  0  0
   38.8010   26.2910   31.5260 C   0  0  0  0  0  0  0  0  0  0  0  0
   38.6690   27.1590   30.4630 C   0  0  0  0  0  0  0  0  0  0  0  0
   37.8400   28.2830   30.5540 C   0  0  0  0  0  0  0  0  0  0  0  0
   37.1730   28.4740   31.7430 C   0  0  0  0  0  0  0  0  0  0  0  0
   36.3400   29.5420   31.9810 C   0  0  0  0  0  0  0  0  0  0  0  0
   35.6810   29.7460   33.1790 C   0  0  0  0  0  0  0  0  0  0  0  0
   35.8500   28.8460   34.2040 C   0  0  0  0  0  0  0  0  0  0  0  0
   36.6810   27.7700   33.9830 C   0  0  0  0  0  0  0  0  0  0  0  0
   37.3200   27.6010   32.7790 C   0  0  0  0  0  0  0  0  0  0  0  0
   39.4690   25.5580   31.1260 H   0  0  0  0  0  0  0  0  0  0  0  0
   39.1190   27.1420   29.4850 H   0  0  0  0  0  0  0  0  0  0  0  0
   37.6280   29.0520   29.8240 H   0  0  0  0  0  0  0  0  0  0  0  0
   36.1750   30.2830   31.1940 H   0  0  0  0  0  0  0  0  0  0  0  0
   35.0300   30.6050   33.3290 H   0  0  0  0  0  0  0  0  0  0  0  0
   35.3660   28.9500   35.1510 H   0  0  0  0  0  0  0  0  0  0  0  0
   36.8080   27.0540   34.8150 H   0  0  0  0  0  0  0  0  0  0  0  0
   37.8130   24.3610   38.0130 C   0  0  0  0  0  0  0  0  0  0  0  0
   38.0670   25.1590   36.8510 C   0  0  0  0  0  0  0  0  0  0  0  0
   39.0970   24.7740   36.0150 C   0  0  0  0  0  0  0  0  0  0  0  0
   39.8130   23.6450   36.3570 N   0  0  0  0  0  0  0  0  0  0  0  0
   39.5490   22.9240   37.4460 C   0  0  0  0  0  0  0  0  0  0  0  0
   38.5560   23.2610   38.2910 N   0  0  0  0  0  0  0  0  0  0  0  0
   37.0140   24.6620   38.6610 H   0  0  0  0  0  0  0  0  0  0  0  0
   37.4460   26.0240   36.6770 H   0  0  0  0  0  0  0  0  0  0  0  0
   41.2660   21.5820   35.6330 N   0  0  0  0  0  0  0  0  0  0  0  0
   41.3880   21.3350   36.9150 C   0  0  0  0  0  0  0  0  0  0  0  0
   40.3270   21.7580   37.7480 N   0  0  0  0  0  0  0  0  0  0  0  0
   42.5210   20.6680   37.5070 N   0  0  0  0  0  0  0  0  0  0  0  0
   42.4360   19.8540   38.1560 H   0  0  0  0  0  0  0  0  0  0  0  0
   42.0860   21.2450   35.0530 H   0  0  0  0  0  0  0  0  0  0  0  0
   40.1030   21.2010   38.6160 H   0  0  0  0  0  0  0  0  0  0  0  0
   43.4330   21.0970   37.2110 H   0  0  0  0  0  0  0  0  0  0  0  0
  1  4  1  1  0  0  0
  1 27  1  0  0  0  0
  2  5  1  0  0  0  0
  2  3  1  0  0  0  0
  2  1  1  0  0  0  0
  3  7  1  1  0  0  0
  3  1  1  0  0  0  0
  6  2  1  0  0  0  0
  8 17  1  0  0  0  0
  8  3  1  0  0  0  0
  9  8  2  0  0  0  0
 10 11  2  0  0  0  0
 10  9  1  0  0  0  0
 11 12  1  0  0  0  0
 12 13  2  0  0  0  0
 12 17  1  0  0  0  0
 13 14  1  0  0  0  0
 14 22  1  0  0  0  0
 14 15  2  0  0  0  0
 15 23  1  0  0  0  0
 16 15  1  0  0  0  0
 16 24  1  0  0  0  0
 17 16  2  0  0  0  0
 18  9  1  0  0  0  0
 19 10  1  0  0  0  0
 20 11  1  0  0  0  0
 21 13  1  0  0  0  0
 25 30  1  0  0  0  0
 25 31  1  0  0  0  0
 26 25  2  0  0  0  0
 27 28  2  0  0  0  0
 27 26  1  0  0  0  0
 28 29  1  0  0  0  0
 29 35  1  0  0  0  0
 29 30  2  0  0  0  0
 32 26  1  0  0  0  0
 33 34  2  0  0  0  0
 34 36  1  0  0  0  0
 34 35  1  0  0  0  0
 35 39  1  0  0  0  0
 36 37  1  0  0  0  0
 38 33  1  0  0  0  0
 40 36  1  0  0  0  0
M  END
>  <minimizedAffinity>
-6.54117489

$$$$

 OpenBabel03272509343D

 40 43  0  0  1  0  0  0  0  0999 V2000
   39.0590   26.6520   34.4730 C   0  0  1  0  0  0  0  0  0  0  0  0
   37.7670   26.6800   35.1830 C   0  0  0  0  0  0  0  0  0  0  0  0
   38.2970   25.3400   34.8170 C   0  0  2  0  0  0  0  0  0  0  0  0
   39.9820   26.6960   35.0240 H   0  0  0  0  0  0  0  0  0  0  0  0
   36.8950   27.0320   34.5530 H   0  0  0  0  0  0  0  0  0  0  0  0
   37.8180   27.2190   36.1100 H   0  0  0  0  0  0  0  0  0  0  0  0
   38.2410   24.7360   33.9260 H   0  0  0  0  0  0  0  0  0  0  0  0
   38.6910   24.5880   36.0390 C   0  0  0  0  0  0  0  0  0  0  0  0
   37.8440   24.9080   37.1070 C   0  0  0  0  0  0  0  0  0  0  0  0
   37.9650   24.2740   38.3250 C   0  0  0  0  0  0  0  0  0  0  0  0
   38.9390   23.2880   38.5260 C   0  0  0  0  0  0  0  0  0  0  0  0
   39.7570   22.9900   37.4610 C   0  0  0  0  0  0  0  0  0  0  0  0
   40.7670   22.0580   37.5190 C   0  0  0  0  0  0  0  0  0  0  0  0
   41.6010   21.7670   36.4560 C   0  0  0  0  0  0  0  0  0  0  0  0
   41.4320   22.4310   35.2640 C   0  0  0  0  0  0  0  0  0  0  0  0
   40.4260   23.3680   35.1890 C   0  0  0  0  0  0  0  0  0  0  0  0
   39.6170   23.6320   36.2670 C   0  0  0  0  0  0  0  0  0  0  0  0
   37.0200   25.5660   37.2860 H   0  0  0  0  0  0  0  0  0  0  0  0
   37.4070   24.3980   39.2380 H   0  0  0  0  0  0  0  0  0  0  0  0
   39.1640   22.7030   39.4080 H   0  0  0  0  0  0  0  0  0  0  0  0
   40.9380   21.5050   38.4470 H   0  0  0  0  0  0  0  0  0  0  0  0
   42.3900   21.0220   36.5420 H   0  0  0  0  0  0  0  0  0  0  0  0
   42.0460   22.2480   34.4080 H   0  0  0  0  0  0  0  0  0  0  0  0
   40.3010   23.8950   34.2250 H   0  0  0  0  0  0  0  0  0  0  0  0
   40.1690   26.8220   30.8780 C   0  0  0  0  0  0  0  0  0  0  0  0
   40.1600   26.5120   32.2760 C   0  0  0  0  0  0  0  0  0  0  0  0
   39.0870   26.9480   33.0280 C   0  0  0  0  0  0  0  0  0  0  0  0
   38.0940   27.6560   32.3800 N   0  0  0  0  0  0  0  0  0  0  0  0
   38.1330   27.9260   31.0750 C   0  0  0  0  0  0  0  0  0  0  0  0
   39.1590   27.5220   30.3020 N   0  0  0  0  0  0  0  0  0  0  0  0
   41.0030   26.4830   30.2970 H   0  0  0  0  0  0  0  0  0  0  0  0
   40.9870   25.9520   32.6830 H   0  0  0  0  0  0  0  0  0  0  0  0
   35.5800   28.3920   32.2150 N   0  0  0  0  0  0  0  0  0  0  0  0
   35.9570   29.1260   31.1960 C   0  0  0  0  0  0  0  0  0  0  0  0
   37.0710   28.6640   30.4580 N   0  0  0  0  0  0  0  0  0  0  0  0
   35.3110   30.3520   30.7970 N   0  0  0  0  0  0  0  0  0  0  0  0
   35.0010   30.5470   29.8190 H   0  0  0  0  0  0  0  0  0  0  0  0
   34.7420   28.7810   32.7340 H   0  0  0  0  0  0  0  0  0  0  0  0
   37.1210   28.8680   29.4230 H   0  0  0  0  0  0  0  0  0  0  0  0
   35.1930   31.0180   31.6000 H   0  0  0  0  0  0  0  0  0  0  0  0
  1  3  1  0  0  0  0
  1  4  1  1  0  0  0
  1  2  1  0  0  0  0
  2  6  1  0  0  0  0
  3  7  1  6  0  0  0
  3  2  1  0  0  0  0
  3  8  1  0  0  0  0
  5  2  1  0  0  0  0
  8 17  2  0  0  0  0
  8  9  1  0  0  0  0
  9 18  1  0  0  0  0
  9 10  2  0  0  0  0
 10 11  1  0  0  0  0
 10 19  1  0  0  0  0
 11 20  1  0  0  0  0
 12 13  1  0  0  0  0
 12 11  2  0  0  0  0
 13 21  1  0  0  0  0
 14 22  1  0  0  0  0
 14 13  2  0  0  0  0
 15 14  1  0  0  0  0
 16 15  2  0  0  0  0
 16 17  1  0  0  0  0
 17 12  1  0  0  0  0
 23 15  1  0  0  0  0
 24 16  1  0  0  0  0
 25 26  1  0  0  0  0
 26 32  1  0  0  0  0
 26 27  2  0  0  0  0
 27  1  1  0  0  0  0
 28 27  1  0  0  0  0
 29 28  2  0  0  0  0
 30 25  2  0  0  0  0
 30 29  1  0  0  0  0
 31 25  1  0  0  0  0
 33 38  1  0  0  0  0
 34 33  2  0  0  0  0
 35 29  1  0  0  0  0
 35 34  1  0  0  0  0
 36 34  1  0  0  0  0
 36 40  1  0  0  0  0
 37 36  1  0  0  0  0
 39 35  1  0  0  0  0
M  END
>  <minimizedAffinity>
-6.4990983

$$$$

 OpenBabel03272509343D

 40 43  0  0  1  0  0  0  0  0999 V2000
   37.6990   24.4480   32.7840 C   0  0  1  0  0  0  0  0  0  0  0  0
   38.8100   24.3480   31.8210 C   0  0  0  0  0  0  0  0  0  0  0  0
   38.5980   23.1800   32.7150 C   0  0  2  0  0  0  0  0  0  0  0  0
   36.6950   24.2040   32.4830 H   0  0  0  0  0  0  0  0  0  0  0  0
   39.7110   24.9840   32.0790 H   0  0  0  0  0  0  0  0  0  0  0  0
   38.4940   24.5170   30.8090 H   0  0  0  0  0  0  0  0  0  0  0  0
   38.9230   22.9390   33.7140 H   0  0  0  0  0  0  0  0  0  0  0  0
   38.1170   22.0100   31.9330 C   0  0  0  0  0  0  0  0  0  0  0  0
   38.8210   21.9030   30.7270 C   0  0  0  0  0  0  0  0  0  0  0  0
   38.6050   20.8460   29.8680 C   0  0  0  0  0  0  0  0  0  0  0  0
   37.6760   19.8480   30.1810 C   0  0  0  0  0  0  0  0  0  0  0  0
   36.9980   19.9740   31.3720 C   0  0  0  0  0  0  0  0  0  0  0  0
   36.0450   19.0790   31.8000 C   0  0  0  0  0  0  0  0  0  0  0  0
   35.3510   19.2110   32.9880 C   0  0  0  0  0  0  0  0  0  0  0  0
   35.6100   20.2860   33.8050 C   0  0  0  0  0  0  0  0  0  0  0  0
   36.5610   21.1920   33.3910 C   0  0  0  0  0  0  0  0  0  0  0  0
   37.2300   21.0290   32.2030 C   0  0  0  0  0  0  0  0  0  0  0  0
   39.5810   22.4510   30.2100 H   0  0  0  0  0  0  0  0  0  0  0  0
   39.0520   20.6150   28.9160 H   0  0  0  0  0  0  0  0  0  0  0  0
   37.3900   18.9640   29.6250 H   0  0  0  0  0  0  0  0  0  0  0  0
   35.8070   18.2080   31.1820 H   0  0  0  0  0  0  0  0  0  0  0  0
   34.6030   18.4810   33.2910 H   0  0  0  0  0  0  0  0  0  0  0  0
   35.1050   20.4400   34.7350 H   0  0  0  0  0  0  0  0  0  0  0  0
   36.7590   22.0510   34.0580 H   0  0  0  0  0  0  0  0  0  0  0  0
   38.2210   27.3420   35.1380 C   0  0  0  0  0  0  0  0  0  0  0  0
   38.0240   26.6040   33.9270 C   0  0  0  0  0  0  0  0  0  0  0  0
   37.8920   25.2330   34.0200 C   0  0  0  0  0  0  0  0  0  0  0  0
   37.9590   24.6640   35.2760 N   0  0  0  0  0  0  0  0  0  0  0  0
   38.1430   25.3810   36.3850 C   0  0  0  0  0  0  0  0  0  0  0  0
   38.2780   26.7210   36.3430 N   0  0  0  0  0  0  0  0  0  0  0  0
   38.3240   28.4060   35.0640 H   0  0  0  0  0  0  0  0  0  0  0  0
   37.9860   27.1470   32.9960 H   0  0  0  0  0  0  0  0  0  0  0  0
   37.3020   22.7280   36.9220 N   0  0  0  0  0  0  0  0  0  0  0  0
   38.0710   23.3340   37.7950 C   0  0  0  0  0  0  0  0  0  0  0  0
   38.2030   24.7350   37.6620 N   0  0  0  0  0  0  0  0  0  0  0  0
   38.7740   22.6610   38.8600 N   0  0  0  0  0  0  0  0  0  0  0  0
   38.7320   22.9640   39.8580 H   0  0  0  0  0  0  0  0  0  0  0  0
   37.2370   21.6810   37.0650 H   0  0  0  0  0  0  0  0  0  0  0  0
   38.3490   25.3200   38.5280 H   0  0  0  0  0  0  0  0  0  0  0  0
   39.3280   21.8390   38.5120 H   0  0  0  0  0  0  0  0  0  0  0  0
  1  4  1  6  0  0  0
  1 27  1  0  0  0  0
  2  5  1  0  0  0  0
  2  3  1  0  0  0  0
  2  1  1  0  0  0  0
  3  1  1  0  0  0  0
  3  7  1  1  0  0  0
  6  2  1  0  0  0  0
  8 17  1  0  0  0  0
  8  3  1  0  0  0  0
  9  8  2  0  0  0  0
 10 11  2  0  0  0  0
 10  9  1  0  0  0  0
 11 12  1  0  0  0  0
 12 13  2  0  0  0  0
 12 17  1  0  0  0  0
 13 14  1  0  0  0  0
 14 22  1  0  0  0  0
 14 15  2  0  0  0  0
 15 23  1  0  0  0  0
 16 15  1  0  0  0  0
 16 24  1  0  0  0  0
 17 16  2  0  0  0  0
 18  9  1  0  0  0  0
 19 10  1  0  0  0  0
 20 11  1  0  0  0  0
 21 13  1  0  0  0  0
 25 30  1  0  0  0  0
 26 27  1  0  0  0  0
 26 25  2  0  0  0  0
 27 28  2  0  0  0  0
 28 29  1  0  0  0  0
 29 35  1  0  0  0  0
 30 29  2  0  0  0  0
 31 25  1  0  0  0  0
 32 26  1  0  0  0  0
 33 38  1  0  0  0  0
 33 34  2  0  0  0  0
 34 36  1  0  0  0  0
 35 34  1  0  0  0  0
 35 39  1  0  0  0  0
 36 37  1  0  0  0  0
 40 36  1  0  0  0  0
M  END
>  <minimizedAffinity>
-6.35971451

$$$$

 OpenBabel03272509343D

 40 43  0  0  1  0  0  0  0  0999 V2000
   37.7920   25.7850   35.3100 C   0  0  1  0  0  0  0  0  0  0  0  0
   38.2110   27.0950   35.8390 C   0  0  0  0  0  0  0  0  0  0  0  0
   38.3130   26.9070   34.3680 C   0  0  2  0  0  0  0  0  0  0  0  0
   36.7530   25.5870   35.1080 H   0  0  0  0  0  0  0  0  0  0  0  0
   39.2010   27.0830   36.3880 H   0  0  0  0  0  0  0  0  0  0  0  0
   37.4470   27.5650   36.4300 H   0  0  0  0  0  0  0  0  0  0  0  0
   39.0670   26.4860   33.7230 H   0  0  0  0  0  0  0  0  0  0  0  0
   37.3210   27.7650   33.6660 C   0  0  0  0  0  0  0  0  0  0  0  0
   36.4300   28.3360   34.5840 C   0  0  0  0  0  0  0  0  0  0  0  0
   35.4670   29.2340   34.1750 C   0  0  0  0  0  0  0  0  0  0  0  0
   35.3560   29.6030   32.8300 C   0  0  0  0  0  0  0  0  0  0  0  0
   36.2440   29.0290   31.9480 C   0  0  0  0  0  0  0  0  0  0  0  0
   36.2410   29.2850   30.5970 C   0  0  0  0  0  0  0  0  0  0  0  0
   37.1210   28.6990   29.7060 C   0  0  0  0  0  0  0  0  0  0  0  0
   38.0600   27.8100   30.1710 C   0  0  0  0  0  0  0  0  0  0  0  0
   38.0780   27.5430   31.5220 C   0  0  0  0  0  0  0  0  0  0  0  0
   37.1870   28.1440   32.3780 C   0  0  0  0  0  0  0  0  0  0  0  0
   36.2550   28.2940   35.6380 H   0  0  0  0  0  0  0  0  0  0  0  0
   34.7140   29.7580   34.7400 H   0  0  0  0  0  0  0  0  0  0  0  0
   34.6660   30.2840   32.3500 H   0  0  0  0  0  0  0  0  0  0  0  0
   35.5110   29.9850   30.1820 H   0  0  0  0  0  0  0  0  0  0  0  0
   37.0860   28.9260   28.6420 H   0  0  0  0  0  0  0  0  0  0  0  0
   38.7670   27.3270   29.5310 H   0  0  0  0  0  0  0  0  0  0  0  0
   38.8380   26.8270   31.8830 H   0  0  0  0  0  0  0  0  0  0  0  0
   39.1120   22.2720   35.6270 C   0  0  0  0  0  0  0  0  0  0  0  0
   38.1950   23.3640   35.5090 C   0  0  0  0  0  0  0  0  0  0  0  0
   38.7170   24.6390   35.4210 C   0  0  0  0  0  0  0  0  0  0  0  0
   40.0900   24.7760   35.4550 N   0  0  0  0  0  0  0  0  0  0  0  0
   40.9170   23.7350   35.5640 C   0  0  0  0  0  0  0  0  0  0  0  0
   40.4540   22.4730   35.6530 N   0  0  0  0  0  0  0  0  0  0  0  0
   38.7050   21.2820   35.6950 H   0  0  0  0  0  0  0  0  0  0  0  0
   37.1380   23.1480   35.4920 H   0  0  0  0  0  0  0  0  0  0  0  0
   42.2480   26.1170   34.7960 N   0  0  0  0  0  0  0  0  0  0  0  0
   42.9040   25.2300   35.5040 C   0  0  0  0  0  0  0  0  0  0  0  0
   42.3350   23.9390   35.5910 N   0  0  0  0  0  0  0  0  0  0  0  0
   44.1480   25.4950   36.1830 N   0  0  0  0  0  0  0  0  0  0  0  0
   44.9970   24.8930   36.0870 H   0  0  0  0  0  0  0  0  0  0  0  0
   42.7160   27.0670   34.7610 H   0  0  0  0  0  0  0  0  0  0  0  0
   42.9730   23.1020   35.6790 H   0  0  0  0  0  0  0  0  0  0  0  0
   44.0980   26.3570   36.7810 H   0  0  0  0  0  0  0  0  0  0  0  0
  1  4  1  6  0  0  0
  1 27  1  0  0  0  0
  1  2  1  0  0  0  0
  2  5  1  0  0  0  0
  2  6  1  0  0  0  0
  3  7  1  6  0  0  0
  3  1  1  0  0  0  0
  3  2  1  0  0  0  0
  8  3  1  0  0  0  0
  8  9  1  0  0  0  0
  9 18  1  0  0  0  0
 10  9  2  0  0  0  0
 10 19  1  0  0  0  0
 11 10  1  0  0  0  0
 12 17  1  0  0  0  0
 12 11  2  0  0  0  0
 13 12  1  0  0  0  0
 14 15  1  0  0  0  0
 14 13  2  0  0  0  0
 15 16  2  0  0  0  0
 16 24  1  0  0  0  0
 16 17  1  0  0  0  0
 17  8  2  0  0  0  0
 20 11  1  0  0  0  0
 21 13  1  0  0  0  0
 22 14  1  0  0  0  0
 23 15  1  0  0  0  0
 25 30  1  0  0  0  0
 25 31  1  0  0  0  0
 26 25  2  0  0  0  0
 27 28  2  0  0  0  0
 27 26  1  0  0  0  0
 28 29  1  0  0  0  0
 29 35  1  0  0  0  0
 29 30  2  0  0  0  0
 32 26  1  0  0  0  0
 33 34  2  0  0  0  0
 34 35  1  0  0  0  0
 34 36  1  0  0  0  0
 35 39  1  0  0  0  0
 36 40  1  0  0  0  0
 37 36  1  0  0  0  0
 38 33  1  0  0  0  0
M  END
>  <minimizedAffinity>
-6.30679989

$$$$

 OpenBabel03272509343D

 40 43  0  0  1  0  0  0  0  0999 V2000
   38.5070   25.3710   35.0730 C   0  0  1  0  0  0  0  0  0  0  0  0
   38.1560   26.8020   35.1170 C   0  0  0  0  0  0  0  0  0  0  0  0
   39.5930   26.4750   34.9210 C   0  0  2  0  0  0  0  0  0  0  0  0
   38.4140   24.8180   34.1540 H   0  0  0  0  0  0  0  0  0  0  0  0
   37.8950   27.1880   36.1490 H   0  0  0  0  0  0  0  0  0  0  0  0
   37.3970   27.0640   34.4040 H   0  0  0  0  0  0  0  0  0  0  0  0
   40.4030   26.2490   35.5950 H   0  0  0  0  0  0  0  0  0  0  0  0
   40.0290   26.8600   33.5520 C   0  0  0  0  0  0  0  0  0  0  0  0
   38.9190   27.0330   32.7140 C   0  0  0  0  0  0  0  0  0  0  0  0
   39.0710   27.4690   31.4150 C   0  0  0  0  0  0  0  0  0  0  0  0
   40.3400   27.7540   30.8980 C   0  0  0  0  0  0  0  0  0  0  0  0
   41.4130   27.5780   31.7410 C   0  0  0  0  0  0  0  0  0  0  0  0
   42.7170   27.8030   31.3640 C   0  0  0  0  0  0  0  0  0  0  0  0
   43.7990   27.6120   32.2040 C   0  0  0  0  0  0  0  0  0  0  0  0
   43.5860   27.1770   33.4900 C   0  0  0  0  0  0  0  0  0  0  0  0
   42.2870   26.9470   33.8840 C   0  0  0  0  0  0  0  0  0  0  0  0
   41.2370   27.1460   33.0220 C   0  0  0  0  0  0  0  0  0  0  0  0
   37.8570   26.9310   32.7860 H   0  0  0  0  0  0  0  0  0  0  0  0
   38.3370   27.6510   30.6470 H   0  0  0  0  0  0  0  0  0  0  0  0
   40.6290   28.1000   29.9140 H   0  0  0  0  0  0  0  0  0  0  0  0
   42.9330   28.1510   30.3510 H   0  0  0  0  0  0  0  0  0  0  0  0
   44.8170   27.8000   31.8680 H   0  0  0  0  0  0  0  0  0  0  0  0
   44.3830   27.0130   34.1840 H   0  0  0  0  0  0  0  0  0  0  0  0
   42.1310   26.5970   34.9200 H   0  0  0  0  0  0  0  0  0  0  0  0
   37.9060   24.2230   38.6090 C   0  0  0  0  0  0  0  0  0  0  0  0
   37.7780   24.9580   37.3870 C   0  0  0  0  0  0  0  0  0  0  0  0
   38.6110   24.6210   36.3390 C   0  0  0  0  0  0  0  0  0  0  0  0
   39.5140   23.5960   36.5410 N   0  0  0  0  0  0  0  0  0  0  0  0
   39.6060   22.9300   37.6920 C   0  0  0  0  0  0  0  0  0  0  0  0
   38.8150   23.2250   38.7420 N   0  0  0  0  0  0  0  0  0  0  0  0
   37.2580   24.4860   39.4210 H   0  0  0  0  0  0  0  0  0  0  0  0
   37.0380   25.7420   37.3350 H   0  0  0  0  0  0  0  0  0  0  0  0
   40.9750   21.6440   35.5690 N   0  0  0  0  0  0  0  0  0  0  0  0
   41.4310   21.5010   36.7900 C   0  0  0  0  0  0  0  0  0  0  0  0
   40.5630   21.8730   37.8410 N   0  0  0  0  0  0  0  0  0  0  0  0
   42.7430   20.9950   37.1100 N   0  0  0  0  0  0  0  0  0  0  0  0
   42.9110   20.2240   37.7950 H   0  0  0  0  0  0  0  0  0  0  0  0
   41.6630   21.3510   34.8190 H   0  0  0  0  0  0  0  0  0  0  0  0
   40.6200   21.3590   38.7610 H   0  0  0  0  0  0  0  0  0  0  0  0
   43.5010   21.4910   36.5790 H   0  0  0  0  0  0  0  0  0  0  0  0
  1  4  1  6  0  0  0
  1  2  1  0  0  0  0
  1 27  1  0  0  0  0
  2  5  1  0  0  0  0
  3  1  1  0  0  0  0
  3  2  1  0  0  0  0
  3  7  1  1  0  0  0
  6  2  1  0  0  0  0
  8  3  1  0  0  0  0
  9 18  1  0  0  0  0
  9  8  2  0  0  0  0
 10  9  1  0  0  0  0
 11 10  2  0  0  0  0
 11 12  1  0  0  0  0
 12 17  1  0  0  0  0
 13 12  2  0  0  0  0
 13 14  1  0  0  0  0
 14 15  2  0  0  0  0
 15 16  1  0  0  0  0
 15 23  1  0  0  0  0
 16 24  1  0  0  0  0
 17  8  1  0  0  0  0
 17 16  2  0  0  0  0
 19 10  1  0  0  0  0
 20 11  1  0  0  0  0
 21 13  1  0  0  0  0
 22 14  1  0  0  0  0
 25 30  1  0  0  0  0
 25 31  1  0  0  0  0
 26 25  2  0  0  0  0
 27 28  2  0  0  0  0
 27 26  1  0  0  0  0
 28 29  1  0  0  0  0
 29 35  1  0  0  0  0
 29 30  2  0  0  0  0
 32 26  1  0  0  0  0
 33 34  2  0  0  0  0
 34 36  1  0  0  0  0
 34 35  1  0  0  0  0
 35 39  1  0  0  0  0
 36 37  1  0  0  0  0
 38 33  1  0  0  0  0
 40 36  1  0  0  0  0
M  END
>  <minimizedAffinity>
-6.29471445

$$$$

 OpenBabel03272509343D

 40 43  0  0  1  0  0  0  0  0999 V2000
   36.7500   22.9980   31.2530 C   0  0  1  0  0  0  0  0  0  0  0  0
   35.7870   24.1060   31.1280 C   0  0  0  0  0  0  0  0  0  0  0  0
   36.6710   24.1240   32.3230 C   0  0  2  0  0  0  0  0  0  0  0  0
   37.6970   23.0410   30.7430 H   0  0  0  0  0  0  0  0  0  0  0  0
   34.7120   23.8180   31.3380 H   0  0  0  0  0  0  0  0  0  0  0  0
   35.8720   24.6240   30.1910 H   0  0  0  0  0  0  0  0  0  0  0  0
   36.6150   23.6640   33.2960 H   0  0  0  0  0  0  0  0  0  0  0  0
   37.6330   25.2550   32.2390 C   0  0  0  0  0  0  0  0  0  0  0  0
   37.3440   26.0630   31.1320 C   0  0  0  0  0  0  0  0  0  0  0  0
   38.0550   27.2200   30.8920 C   0  0  0  0  0  0  0  0  0  0  0  0
   39.0830   27.6210   31.7520 C   0  0  0  0  0  0  0  0  0  0  0  0
   39.3470   26.8110   32.8330 C   0  0  0  0  0  0  0  0  0  0  0  0
   40.3390   27.0700   33.7500 C   0  0  0  0  0  0  0  0  0  0  0  0
   40.6160   26.2510   34.8280 C   0  0  0  0  0  0  0  0  0  0  0  0
   39.8740   25.1090   35.0170 C   0  0  0  0  0  0  0  0  0  0  0  0
   38.8770   24.8340   34.1080 C   0  0  0  0  0  0  0  0  0  0  0  0
   38.6300   25.6710   33.0480 C   0  0  0  0  0  0  0  0  0  0  0  0
   36.6460   26.0660   30.3220 H   0  0  0  0  0  0  0  0  0  0  0  0
   37.9650   27.9450   30.1000 H   0  0  0  0  0  0  0  0  0  0  0  0
   39.7290   28.4880   31.7080 H   0  0  0  0  0  0  0  0  0  0  0  0
   40.9540   27.9670   33.6400 H   0  0  0  0  0  0  0  0  0  0  0  0
   41.4110   26.4900   35.5320 H   0  0  0  0  0  0  0  0  0  0  0  0
   40.0420   24.4380   35.8330 H   0  0  0  0  0  0  0  0  0  0  0  0
   38.2880   23.9140   34.2720 H   0  0  0  0  0  0  0  0  0  0  0  0
   35.4890   19.4500   31.3330 C   0  0  0  0  0  0  0  0  0  0  0  0
   35.9580   20.7060   30.8300 C   0  0  0  0  0  0  0  0  0  0  0  0
   36.2760   21.6900   31.7450 C   0  0  0  0  0  0  0  0  0  0  0  0
   36.1190   21.3960   33.0850 N   0  0  0  0  0  0  0  0  0  0  0  0
   35.6810   20.2140   33.5190 C   0  0  0  0  0  0  0  0  0  0  0  0
   35.3580   19.2250   32.6640 N   0  0  0  0  0  0  0  0  0  0  0  0
   35.2430   18.6870   30.6210 H   0  0  0  0  0  0  0  0  0  0  0  0
   36.0440   20.8310   29.7620 H   0  0  0  0  0  0  0  0  0  0  0  0
   36.8190   21.7880   35.5850 N   0  0  0  0  0  0  0  0  0  0  0  0
   35.8570   20.9510   35.8890 C   0  0  0  0  0  0  0  0  0  0  0  0
   35.5410   19.9670   34.9240 N   0  0  0  0  0  0  0  0  0  0  0  0
   35.1200   20.9800   37.1280 N   0  0  0  0  0  0  0  0  0  0  0  0
   34.9790   20.1400   37.7340 H   0  0  0  0  0  0  0  0  0  0  0  0
   37.0170   22.5040   36.3390 H   0  0  0  0  0  0  0  0  0  0  0  0
   35.1920   19.0250   35.2480 H   0  0  0  0  0  0  0  0  0  0  0  0
   34.7450   21.9370   37.3450 H   0  0  0  0  0  0  0  0  0  0  0  0
  1  4  1  6  0  0  0
  1 27  1  0  0  0  0
  1  3  1  0  0  0  0
  2  1  1  0  0  0  0
  2  5  1  0  0  0  0
  2  3  1  0  0  0  0
  3  7  1  1  0  0  0
  6  2  1  0  0  0  0
  8  3  1  0  0  0  0
  8 17  1  0  0  0  0
  9  8  2  0  0  0  0
 10  9  1  0  0  0  0
 10 11  2  0  0  0  0
 11 12  1  0  0  0  0
 12 17  2  0  0  0  0
 12 13  1  0  0  0  0
 13 14  2  0  0  0  0
 14 15  1  0  0  0  0
 14 22  1  0  0  0  0
 15 23  1  0  0  0  0
 16 24  1  0  0  0  0
 16 15  2  0  0  0  0
 17 16  1  0  0  0  0
 18  9  1  0  0  0  0
 19 10  1  0  0  0  0
 20 11  1  0  0  0  0
 21 13  1  0  0  0  0
 25 30  1  0  0  0  0
 26 25  2  0  0  0  0
 26 27  1  0  0  0  0
 27 28  2  0  0  0  0
 28 29  1  0  0  0  0
 29 35  1  0  0  0  0
 30 29  2  0  0  0  0
 31 25  1  0  0  0  0
 32 26  1  0  0  0  0
 33 34  2  0  0  0  0
 33 38  1  0  0  0  0
 34 36  1  0  0  0  0
 35 39  1  0  0  0  0
 35 34  1  0  0  0  0
 36 40  1  0  0  0  0
 36 37  1  0  0  0  0
M  END
>  <minimizedAffinity>
-6.26463652

$$$$

 OpenBabel03272509343D

 40 43  0  0  1  0  0  0  0  0999 V2000
   36.4090   28.6480   33.3540 C   0  0  1  0  0  0  0  0  0  0  0  0
   35.8710   29.7970   32.6030 C   0  0  0  0  0  0  0  0  0  0  0  0
   34.9620   29.1660   33.5970 C   0  0  2  0  0  0  0  0  0  0  0  0
   37.0090   28.8070   34.2330 H   0  0  0  0  0  0  0  0  0  0  0  0
   35.6190   29.5730   31.5220 H   0  0  0  0  0  0  0  0  0  0  0  0
   36.4920   30.6690   32.6830 H   0  0  0  0  0  0  0  0  0  0  0  0
   34.2900   28.3250   33.5610 H   0  0  0  0  0  0  0  0  0  0  0  0
   34.7200   30.0910   34.7370 C   0  0  0  0  0  0  0  0  0  0  0  0
   35.8780   30.8230   35.0290 C   0  0  0  0  0  0  0  0  0  0  0  0
   35.8730   31.8030   35.9990 C   0  0  0  0  0  0  0  0  0  0  0  0
   34.7080   32.0950   36.7170 C   0  0  0  0  0  0  0  0  0  0  0  0
   33.5830   31.3640   36.4100 C   0  0  0  0  0  0  0  0  0  0  0  0
   32.3750   31.5300   37.0450 C   0  0  0  0  0  0  0  0  0  0  0  0
   31.2470   30.7860   36.7500 C   0  0  0  0  0  0  0  0  0  0  0  0
   31.3120   29.8220   35.7720 C   0  0  0  0  0  0  0  0  0  0  0  0
   32.5140   29.6420   35.1260 C   0  0  0  0  0  0  0  0  0  0  0  0
   33.6140   30.4000   35.4460 C   0  0  0  0  0  0  0  0  0  0  0  0
   36.8870   30.8710   34.6770 H   0  0  0  0  0  0  0  0  0  0  0  0
   36.6620   32.4490   36.3450 H   0  0  0  0  0  0  0  0  0  0  0  0
   34.5370   32.8230   37.4990 H   0  0  0  0  0  0  0  0  0  0  0  0
   32.2770   32.2860   37.8290 H   0  0  0  0  0  0  0  0  0  0  0  0
   30.3080   30.9470   37.2760 H   0  0  0  0  0  0  0  0  0  0  0  0
   30.4730   29.2170   35.5000 H   0  0  0  0  0  0  0  0  0  0  0  0
   32.5520   28.8650   34.3420 H   0  0  0  0  0  0  0  0  0  0  0  0
   35.9100   25.8750   30.8550 C   0  0  0  0  0  0  0  0  0  0  0  0
   35.8640   27.1710   31.4620 C   0  0  0  0  0  0  0  0  0  0  0  0
   36.4530   27.3250   32.7010 C   0  0  0  0  0  0  0  0  0  0  0  0
   37.0470   26.2170   33.2730 N   0  0  0  0  0  0  0  0  0  0  0  0
   37.0730   25.0240   32.6790 C   0  0  0  0  0  0  0  0  0  0  0  0
   36.5110   24.8260   31.4710 N   0  0  0  0  0  0  0  0  0  0  0  0
   35.4520   25.7570   29.8930 H   0  0  0  0  0  0  0  0  0  0  0  0
   35.3740   27.9700   30.9290 H   0  0  0  0  0  0  0  0  0  0  0  0
   38.8560   25.1940   34.8770 N   0  0  0  0  0  0  0  0  0  0  0  0
   38.3190   24.0330   34.5890 C   0  0  0  0  0  0  0  0  0  0  0  0
   37.7070   23.9110   33.3210 N   0  0  0  0  0  0  0  0  0  0  0  0
   38.3230   22.8970   35.4780 N   0  0  0  0  0  0  0  0  0  0  0  0
   38.6370   21.9430   35.1920 H   0  0  0  0  0  0  0  0  0  0  0  0
   39.3010   25.2340   35.8370 H   0  0  0  0  0  0  0  0  0  0  0  0
   37.7160   22.9740   32.8350 H   0  0  0  0  0  0  0  0  0  0  0  0
   37.9730   23.1430   36.4380 H   0  0  0  0  0  0  0  0  0  0  0  0
  1  3  1  0  0  0  0
  1  4  1  1  0  0  0
  2  6  1  0  0  0  0
  2  1  1  0  0  0  0
  2  3  1  0  0  0  0
  3  7  1  6  0  0  0
  3  8  1  0  0  0  0
  5  2  1  0  0  0  0
  8  9  2  0  0  0  0
  8 17  1  0  0  0  0
  9 10  1  0  0  0  0
 10 19  1  0  0  0  0
 10 11  2  0  0  0  0
 11 20  1  0  0  0  0
 12 11  1  0  0  0  0
 12 13  1  0  0  0  0
 13 21  1  0  0  0  0
 14 13  2  0  0  0  0
 14 22  1  0  0  0  0
 15 14  1  0  0  0  0
 16 17  1  0  0  0  0
 16 15  2  0  0  0  0
 17 12  2  0  0  0  0
 18  9  1  0  0  0  0
 23 15  1  0  0  0  0
 24 16  1  0  0  0  0
 25 26  2  0  0  0  0
 25 30  1  0  0  0  0
 26 27  1  0  0  0  0
 27 28  2  0  0  0  0
 27  1  1  0  0  0  0
 29 28  1  0  0  0  0
 29 35  1  0  0  0  0
 30 29  2  0  0  0  0
 31 25  1  0  0  0  0
 32 26  1  0  0  0  0
 33 38  1  0  0  0  0
 34 33  2  0  0  0  0
 34 36  1  0  0  0  0
 35 34  1  0  0  0  0
 36 40  1  0  0  0  0
 37 36  1  0  0  0  0
 39 35  1  0  0  0  0
M  END
>  <minimizedAffinity>
-6.22271395

$$$$

 OpenBabel03272509343D

 40 43  0  0  1  0  0  0  0  0999 V2000
   37.4730   25.8010   34.0580 C   0  0  1  0  0  0  0  0  0  0  0  0
   38.7100   25.1830   33.5480 C   0  0  0  0  0  0  0  0  0  0  0  0
   38.8020   25.8700   34.8640 C   0  0  2  0  0  0  0  0  0  0  0  0
   36.7500   25.2090   34.5920 H   0  0  0  0  0  0  0  0  0  0  0  0
   39.1910   25.7410   32.6880 H   0  0  0  0  0  0  0  0  0  0  0  0
   38.5850   24.1430   33.3130 H   0  0  0  0  0  0  0  0  0  0  0  0
   38.9680   26.8940   35.1580 H   0  0  0  0  0  0  0  0  0  0  0  0
   39.0270   24.8790   35.9500 C   0  0  0  0  0  0  0  0  0  0  0  0
   37.9990   24.9500   36.8990 C   0  0  0  0  0  0  0  0  0  0  0  0
   37.9500   24.0710   37.9600 C   0  0  0  0  0  0  0  0  0  0  0  0
   38.9260   23.0800   38.1160 C   0  0  0  0  0  0  0  0  0  0  0  0
   39.9240   23.0300   37.1700 C   0  0  0  0  0  0  0  0  0  0  0  0
   40.9560   22.1220   37.2050 C   0  0  0  0  0  0  0  0  0  0  0  0
   41.9690   22.0790   36.2650 C   0  0  0  0  0  0  0  0  0  0  0  0
   41.9660   22.9810   35.2280 C   0  0  0  0  0  0  0  0  0  0  0  0
   40.9390   23.8970   35.1770 C   0  0  0  0  0  0  0  0  0  0  0  0
   39.9500   23.9110   36.1300 C   0  0  0  0  0  0  0  0  0  0  0  0
   37.1240   25.5420   37.0660 H   0  0  0  0  0  0  0  0  0  0  0  0
   37.2420   23.9880   38.7680 H   0  0  0  0  0  0  0  0  0  0  0  0
   39.0320   22.3230   38.8810 H   0  0  0  0  0  0  0  0  0  0  0  0
   40.9990   21.3850   38.0120 H   0  0  0  0  0  0  0  0  0  0  0  0
   42.7700   21.3450   36.3280 H   0  0  0  0  0  0  0  0  0  0  0  0
   42.7210   22.9950   34.4710 H   0  0  0  0  0  0  0  0  0  0  0  0
   40.9490   24.6160   34.3380 H   0  0  0  0  0  0  0  0  0  0  0  0
   35.9010   29.2110   33.7640 C   0  0  0  0  0  0  0  0  0  0  0  0
   36.3080   27.9550   34.3160 C   0  0  0  0  0  0  0  0  0  0  0  0
   37.0500   27.1080   33.5170 C   0  0  0  0  0  0  0  0  0  0  0  0
   37.3500   27.5310   32.2370 N   0  0  0  0  0  0  0  0  0  0  0  0
   36.9550   28.7090   31.7550 C   0  0  0  0  0  0  0  0  0  0  0  0
   36.2290   29.5670   32.4970 N   0  0  0  0  0  0  0  0  0  0  0  0
   35.3250   29.8670   34.3860 H   0  0  0  0  0  0  0  0  0  0  0  0
   36.0200   27.7220   35.3290 H   0  0  0  0  0  0  0  0  0  0  0  0
   38.9410   27.4770   30.1500 N   0  0  0  0  0  0  0  0  0  0  0  0
   38.0570   28.2530   29.5720 C   0  0  0  0  0  0  0  0  0  0  0  0
   37.2990   29.0950   30.4180 N   0  0  0  0  0  0  0  0  0  0  0  0
   37.8230   28.2950   28.1490 N   0  0  0  0  0  0  0  0  0  0  0  0
   37.8070   29.1790   27.5940 H   0  0  0  0  0  0  0  0  0  0  0  0
   39.4830   26.8680   29.4740 H   0  0  0  0  0  0  0  0  0  0  0  0
   36.9770   30.0320   30.0540 H   0  0  0  0  0  0  0  0  0  0  0  0
   37.6710   27.3380   27.7440 H   0  0  0  0  0  0  0  0  0  0  0  0
  1  4  1  1  0  0  0
  1  3  1  0  0  0  0
  2  1  1  0  0  0  0
  2  3  1  0  0  0  0
  3  7  1  1  0  0  0
  3  8  1  0  0  0  0
  5  2  1  0  0  0  0
  6  2  1  0  0  0  0
  8 17  2  0  0  0  0
  8  9  1  0  0  0  0
  9 18  1  0  0  0  0
  9 10  2  0  0  0  0
 10 11  1  0  0  0  0
 10 19  1  0  0  0  0
 11 20  1  0  0  0  0
 12 13  1  0  0  0  0
 12 11  2  0  0  0  0
 13 21  1  0  0  0  0
 14 22  1  0  0  0  0
 14 13  2  0  0  0  0
 15 14  1  0  0  0  0
 16 15  2  0  0  0  0
 16 17  1  0  0  0  0
 17 12  1  0  0  0  0
 23 15  1  0  0  0  0
 24 16  1  0  0  0  0
 25 26  1  0  0  0  0
 25 31  1  0  0  0  0
 26 32  1  0  0  0  0
 27  1  1  0  0  0  0
 27 26  2  0  0  0  0
 28 27  1  0  0  0  0
 29 28  2  0  0  0  0
 29 30  1  0  0  0  0
 30 25  2  0  0  0  0
 34 33  2  0  0  0  0
 34 35  1  0  0  0  0
 35 29  1  0  0  0  0
 36 34  1  0  0  0  0
 37 36  1  0  0  0  0
 38 33  1  0  0  0  0
 39 35  1  0  0  0  0
 40 36  1  0  0  0  0
M  END
>  <minimizedAffinity>
-6.18289375

$$$$
