
 OpenBabel03272509333D

 40 43  0  0  1  0  0  0  0  0999 V2000
   37.4870   31.8920   48.0600 C   0  0  1  0  0  0  0  0  0  0  0  0
   38.6950   32.7310   48.1540 C   0  0  0  0  0  0  0  0  0  0  0  0
   38.7840   31.5300   47.2820 C   0  0  2  0  0  0  0  0  0  0  0  0
   36.7020   32.1450   47.3680 H   0  0  0  0  0  0  0  0  0  0  0  0
   39.2490   32.6450   49.1370 H   0  0  0  0  0  0  0  0  0  0  0  0
   38.5040   33.7580   47.9060 H   0  0  0  0  0  0  0  0  0  0  0  0
   39.0120   30.4930   47.4660 H   0  0  0  0  0  0  0  0  0  0  0  0
   38.8940   31.9340   45.8550 C   0  0  0  0  0  0  0  0  0  0  0  0
   39.7960   32.9950   45.7130 C   0  0  0  0  0  0  0  0  0  0  0  0
   40.1230   33.4890   44.4670 C   0  0  0  0  0  0  0  0  0  0  0  0
   39.5620   32.9390   43.3090 C   0  0  0  0  0  0  0  0  0  0  0  0
   38.6790   31.8960   43.4750 C   0  0  0  0  0  0  0  0  0  0  0  0
   38.0400   31.2710   42.4290 C   0  0  0  0  0  0  0  0  0  0  0  0
   37.1410   30.2330   42.5930 C   0  0  0  0  0  0  0  0  0  0  0  0
   36.8550   29.7820   43.8600 C   0  0  0  0  0  0  0  0  0  0  0  0
   37.4870   30.3970   44.9180 C   0  0  0  0  0  0  0  0  0  0  0  0
   38.3730   31.4260   44.7170 C   0  0  0  0  0  0  0  0  0  0  0  0
   40.3950   33.6080   46.3530 H   0  0  0  0  0  0  0  0  0  0  0  0
   40.7860   34.2880   44.1830 H   0  0  0  0  0  0  0  0  0  0  0  0
   39.7090   33.2050   42.2710 H   0  0  0  0  0  0  0  0  0  0  0  0
   38.2370   31.5970   41.4040 H   0  0  0  0  0  0  0  0  0  0  0  0
   36.6540   29.7650   41.7400 H   0  0  0  0  0  0  0  0  0  0  0  0
   36.1700   28.9830   44.0480 H   0  0  0  0  0  0  0  0  0  0  0  0
   37.2480   30.0240   45.9310 H   0  0  0  0  0  0  0  0  0  0  0  0
   35.6610   30.0670   50.8030 C   0  0  0  0  0  0  0  0  0  0  0  0
   35.9280   30.9820   49.7340 C   0  0  0  0  0  0  0  0  0  0  0  0
   37.1820   30.9520   49.1560 C   0  0  0  0  0  0  0  0  0  0  0  0
   38.0960   30.0420   49.6500 N   0  0  0  0  0  0  0  0  0  0  0  0
   37.8130   29.2040   50.6470 C   0  0  0  0  0  0  0  0  0  0  0  0
   36.6040   29.1960   51.2410 N   0  0  0  0  0  0  0  0  0  0  0  0
   34.6870   30.0920   51.2500 H   0  0  0  0  0  0  0  0  0  0  0  0
   35.1420   31.6520   49.4240 H   0  0  0  0  0  0  0  0  0  0  0  0
   38.4210   28.6900   53.3680 N   0  0  0  0  0  0  0  0  0  0  0  0
   38.8340   27.8400   52.4600 C   0  0  0  0  0  0  0  0  0  0  0  0
   38.8030   28.2790   51.1160 N   0  0  0  0  0  0  0  0  0  0  0  0
   39.3100   26.5100   52.7520 N   0  0  0  0  0  0  0  0  0  0  0  0
   40.2140   26.1300   52.3930 H   0  0  0  0  0  0  0  0  0  0  0  0
   38.4650   28.3140   54.3570 H   0  0  0  0  0  0  0  0  0  0  0  0
   39.5270   27.9150   50.4400 H   0  0  0  0  0  0  0  0  0  0  0  0
   38.6430   25.9740   53.3610 H   0  0  0  0  0  0  0  0  0  0  0  0
  1  4  1  6  0  0  0
  1  2  1  0  0  0  0
  1 27  1  0  0  0  0
  2  5  1  0  0  0  0
  3  7  1  1  0  0  0
  3  1  1  0  0  0  0
  3  2  1  0  0  0  0
  6  2  1  0  0  0  0
  8  3  1  0  0  0  0
  9  8  1  0  0  0  0
  9 18  1  0  0  0  0
 10  9  2  0  0  0  0
 11 12  2  0  0  0  0
 11 10  1  0  0  0  0
 12 17  1  0  0  0  0
 13 14  2  0  0  0  0
 13 12  1  0  0  0  0
 14 15  1  0  0  0  0
 15 23  1  0  0  0  0
 15 16  2  0  0  0  0
 16 24  1  0  0  0  0
 17 16  1  0  0  0  0
 17  8  2  0  0  0  0
 19 10  1  0  0  0  0
 20 11  1  0  0  0  0
 21 13  1  0  0  0  0
 22 14  1  0  0  0  0
 25 30  1  0  0  0  0
 25 31  1  0  0  0  0
 26 25  2  0  0  0  0
 27 28  2  0  0  0  0
 27 26  1  0  0  0  0
 28 29  1  0  0  0  0
 29 35  1  0  0  0  0
 29 30  2  0  0  0  0
 32 26  1  0  0  0  0
 33 38  1  0  0  0  0
 34 36  1  0  0  0  0
 34 33  2  0  0  0  0
 35 34  1  0  0  0  0
 36 40  1  0  0  0  0
 37 36  1  0  0  0  0
 39 35  1  0  0  0  0
M  END
>  <minimizedAffinity>
-4.93406773

>  <minimizedRMSD>
1.57841849

$$$$
