
 OpenBabel03272502073D

 40 43  0  0  0  0  0  0  0  0999 V2000
   34.1770   30.4480   47.6840 F   0  0  0  0  0  0  0  0  0  0  0  0
   34.5840   29.9750   46.4620 C   0  0  0  0  0  0  0  0  0  0  0  0
   33.7080   29.3700   45.5730 C   0  0  0  0  0  0  0  0  0  0  0  0
   34.1870   28.9380   44.3590 C   0  0  0  0  0  0  0  0  0  0  0  0
   35.5340   29.1040   44.0200 C   0  0  0  0  0  0  0  0  0  0  0  0
   36.3550   29.7140   44.9520 C   0  0  0  0  0  0  0  0  0  0  0  0
   35.9300   30.1510   46.1500 C   0  0  0  0  0  0  0  0  0  0  0  0
   33.4710   28.4790   43.7130 H   0  0  0  0  0  0  0  0  0  0  0  0
   35.8670   28.7490   43.0550 H   0  0  0  0  0  0  0  0  0  0  0  0
   37.3780   29.8030   44.6140 H   0  0  0  0  0  0  0  0  0  0  0  0
   32.0770   28.2480   46.9480 C   0  0  0  0  0  0  0  0  0  0  0  0
   32.3520   29.2600   46.0400 C   0  0  0  0  0  0  0  0  0  0  0  0
   31.3110   30.0940   45.6610 C   0  0  0  0  0  0  0  0  0  0  0  0
   30.0690   29.9100   46.1770 N   0  0  0  0  0  0  0  0  0  0  0  0
   29.8450   28.9230   47.0520 C   0  0  0  0  0  0  0  0  0  0  0  0
   30.8160   28.1080   47.4340 N   0  0  0  0  0  0  0  0  0  0  0  0
   32.8340   27.5530   47.2940 H   0  0  0  0  0  0  0  0  0  0  0  0
   31.5440   30.8830   44.9480 H   0  0  0  0  0  0  0  0  0  0  0  0
   28.5240   28.7570   47.5780 N   0  0  0  0  0  0  0  0  0  0  0  0
   27.6890   29.7860   47.3420 C   0  0  0  0  0  3  0  0  0  0  0  0
   26.3890   29.6600   47.8400 C   0  0  0  0  0  3  0  0  0  0  0  0
   26.1100   28.4780   48.5260 C   0  0  0  0  0  0  0  0  0  0  0  0
   24.8090   28.2640   49.0680 N   0  0  0  0  0  0  0  0  0  0  0  0
   27.0050   27.4980   48.7170 N   0  0  0  0  0  0  0  0  0  0  0  0
   28.2340   27.6230   48.2420 C   0  0  0  0  0  0  0  0  0  0  0  0
   29.1400   26.7590   48.3720 O   0  0  0  0  0  0  0  0  0  0  0  0
   23.7860   28.0870   48.9740 H   0  0  0  0  0  0  0  0  0  0  0  0
   24.8290   28.2880   50.1200 H   0  0  0  0  0  0  0  0  0  0  0  0
   37.8960   32.3230   45.0440 Br  0  0  0  0  0  0  0  0  0  0  0  0
   37.7690   31.7590   46.8590 C   0  0  0  0  0  0  0  0  0  0  0  0
   36.8490   30.7690   47.0840 C   0  0  0  0  0  0  0  0  0  0  0  0
   36.7330   30.2700   48.3920 C   0  0  0  0  0  0  0  0  0  0  0  0
   37.5100   30.7590   49.3980 C   0  0  0  0  0  0  0  0  0  0  0  0
   38.4160   31.7590   49.1070 C   0  0  0  0  0  0  0  0  0  0  0  0
   38.5580   32.2800   47.8110 C   0  0  0  0  0  0  0  0  0  0  0  0
   36.0380   29.4890   48.6660 H   0  0  0  0  0  0  0  0  0  0  0  0
   37.4480   30.3990   50.4140 H   0  0  0  0  0  0  0  0  0  0  0  0
   39.0540   32.1790   49.8730 H   0  0  0  0  0  0  0  0  0  0  0  0
   39.4220   33.2640   47.4410 O   0  0  0  0  0  0  0  0  0  0  0  0
   39.1470   34.2330   47.5700 H   0  0  0  0  0  0  0  0  0  0  0  0
  2  1  1  0  0  0  0
  3 12  1  0  0  0  0
  3  2  2  0  0  0  0
  4  3  1  0  0  0  0
  5  4  2  0  0  0  0
  5  6  1  0  0  0  0
  6  7  2  0  0  0  0
  7  2  1  0  0  0  0
  7 31  1  0  0  0  0
  8  4  1  0  0  0  0
  9  5  1  0  0  0  0
 10  6  1  0  0  0  0
 11 17  1  0  0  0  0
 11 16  1  0  0  0  0
 12 11  2  0  0  0  0
 13 12  1  0  0  0  0
 13 14  2  0  0  0  0
 14 15  1  0  0  0  0
 15 16  2  0  0  0  0
 15 19  1  0  0  0  0
 18 13  1  0  0  0  0
 19 25  1  0  0  0  0
 20 19  1  0  0  0  0
 20 21  2  0  0  0  0
 21 22  1  0  0  0  0
 22 24  2  0  0  0  0
 22 23  1  0  0  0  0
 23 28  1  0  0  0  0
 25 26  2  0  0  0  0
 25 24  1  0  0  0  0
 27 23  1  0  0  0  0
 29 30  1  0  0  0  0
 30 31  2  0  0  0  0
 30 35  1  0  0  0  0
 31 32  1  0  0  0  0
 32 36  1  0  0  0  0
 32 33  2  0  0  0  0
 33 37  1  0  0  0  0
 34 33  1  0  0  0  0
 34 38  1  0  0  0  0
 35 34  2  0  0  0  0
 39 40  1  0  0  0  0
 39 35  1  0  0  0  0
M  END
>  <minimizedAffinity>
-8.07996368

>  <minimizedRMSD>
0.199666873

$$$$
