
 OpenBabel03272504333D

 41 44  0  0  0  0  0  0  0  0999 V2000
   35.0950   29.6100   47.5710 C   0  0  0  0  0  0  0  0  0  0  0  0
   35.2360   30.0400   46.2540 C   0  0  0  0  0  0  0  0  0  0  0  0
   34.2070   29.8730   45.3550 C   0  0  0  0  0  0  0  0  0  0  0  0
   33.0630   29.2760   45.8090 N   0  0  0  0  0  0  0  0  0  0  0  0
   32.9530   28.8700   47.0920 C   0  0  0  0  0  0  0  0  0  0  0  0
   33.9620   29.0310   47.9790 N   0  0  0  0  0  0  0  0  0  0  0  0
   36.1640   30.5050   45.9510 H   0  0  0  0  0  0  0  0  0  0  0  0
   34.2860   30.1970   44.3190 H   0  0  0  0  0  0  0  0  0  0  0  0
   31.7110   28.2370   47.5420 C   0  0  0  0  0  0  0  0  0  0  0  0
   31.6350   27.6090   48.7520 C   0  0  0  0  0  0  0  0  0  0  0  0
   30.4790   26.9990   49.2170 C   0  0  0  0  0  0  0  0  0  0  0  0
   29.4170   27.0640   48.3850 N   0  0  0  0  0  0  0  0  0  0  0  0
   29.4810   27.6760   47.1970 C   0  0  0  0  0  0  0  0  0  0  0  0
   30.6230   28.2650   46.7670 N   0  0  0  0  0  0  0  0  0  0  0  0
   32.4890   27.5600   49.4140 H   0  0  0  0  0  0  0  0  0  0  0  0
   30.4250   26.5040   50.1760 H   0  0  0  0  0  0  0  0  0  0  0  0
   28.4080   27.7900   46.2660 N   0  0  0  0  0  0  0  0  0  0  0  0
   27.2650   28.3070   46.7490 C   0  0  0  0  0  3  0  0  0  0  0  0
   26.2290   28.4160   45.8410 C   0  0  0  0  0  3  0  0  0  0  0  0
   26.4550   27.9910   44.5470 C   0  0  0  0  0  0  0  0  0  0  0  0
   25.4300   28.0770   43.5680 N   0  0  0  0  0  0  0  0  0  0  0  0
   27.6500   27.4750   44.1350 N   0  0  0  0  0  0  0  0  0  0  0  0
   28.6610   27.3670   45.0140 C   0  0  0  0  0  0  0  0  0  0  0  0
   29.7940   26.9000   44.7090 O   0  0  0  0  0  0  0  0  0  0  0  0
   24.5800   27.7580   43.0520 H   0  0  0  0  0  0  0  0  0  0  0  0
   24.8360   27.2070   43.7040 H   0  0  0  0  0  0  0  0  0  0  0  0
   36.1320   29.7580   48.5500 N   0  0  0  0  0  0  0  0  0  0  0  0
   36.2350   28.8960   49.7060 C   0  0  0  0  0  0  0  0  0  0  0  0
   36.5090   29.6040   51.0020 C   0  0  0  0  0  0  0  0  0  0  0  0
   37.2310   30.8100   50.9420 N   0  0  0  0  0  0  0  0  0  0  0  0
   36.9230   31.6140   49.7630 C   0  0  0  0  0  0  0  0  0  0  0  0
   37.1720   30.7140   48.5640 C   0  0  0  0  0  0  0  0  0  0  0  0
   35.3310   28.2610   49.8350 H   0  0  0  0  0  0  0  0  0  0  0  0
   37.0870   28.1810   49.5040 H   0  0  0  0  0  0  0  0  0  0  0  0
   37.0460   28.8750   51.6490 H   0  0  0  0  0  0  0  0  0  0  0  0
   35.5330   29.7710   51.5290 H   0  0  0  0  0  0  0  0  0  0  0  0
   36.9390   31.4150   51.7690 H   0  0  0  0  0  0  0  0  0  0  0  0
   35.8630   31.9200   49.8530 H   0  0  0  0  0  0  0  0  0  0  0  0
   37.5870   32.4960   49.7600 H   0  0  0  0  0  0  0  0  0  0  0  0
   37.1490   31.3490   47.6690 H   0  0  0  0  0  0  0  0  0  0  0  0
   38.1900   30.2870   48.6940 H   0  0  0  0  0  0  0  0  0  0  0  0
  1  6  1  0  0  0  0
  1 27  1  0  0  0  0
  2  1  2  0  0  0  0
  3  4  2  0  0  0  0
  3  2  1  0  0  0  0
  4  5  1  0  0  0  0
  5  9  1  0  0  0  0
  5  6  2  0  0  0  0
  7  2  1  0  0  0  0
  8  3  1  0  0  0  0
  9 10  1  0  0  0  0
 10 11  2  0  0  0  0
 10 15  1  0  0  0  0
 11 16  1  0  0  0  0
 12 11  1  0  0  0  0
 13 12  2  0  0  0  0
 14 13  1  0  0  0  0
 14  9  2  0  0  0  0
 17 18  1  0  0  0  0
 17 13  1  0  0  0  0
 19 18  2  0  0  0  0
 20 19  1  0  0  0  0
 21 26  1  0  0  0  0
 21 20  1  0  0  0  0
 22 20  2  0  0  0  0
 22 23  1  0  0  0  0
 23 17  1  0  0  0  0
 24 23  2  0  0  0  0
 25 21  1  0  0  0  0
 27 32  1  0  0  0  0
 27 28  1  0  0  0  0
 28 33  1  0  0  0  0
 28 29  1  0  0  0  0
 29 36  1  0  0  0  0
 29 35  1  0  0  0  0
 30 29  1  0  0  0  0
 30 37  1  0  0  0  0
 31 38  1  0  0  0  0
 31 30  1  0  0  0  0
 32 41  1  0  0  0  0
 32 31  1  0  0  0  0
 34 28  1  0  0  0  0
 39 31  1  0  0  0  0
 40 32  1  0  0  0  0
M  END
>  <minimizedAffinity>
-5.6894083

>  <minimizedRMSD>
0.738407552

$$$$
