
 OpenBabel03272502063D

 40 43  0  0  0  0  0  0  0  0999 V2000
   34.1780   30.4500   47.6930 F   0  0  0  0  0  0  0  0  0  0  0  0
   34.5850   29.9740   46.4710 C   0  0  0  0  0  0  0  0  0  0  0  0
   33.7090   29.3680   45.5850 C   0  0  0  0  0  0  0  0  0  0  0  0
   34.1870   28.9330   44.3710 C   0  0  0  0  0  0  0  0  0  0  0  0
   35.5340   29.0980   44.0320 C   0  0  0  0  0  0  0  0  0  0  0  0
   36.3550   29.7100   44.9610 C   0  0  0  0  0  0  0  0  0  0  0  0
   35.9310   30.1490   46.1590 C   0  0  0  0  0  0  0  0  0  0  0  0
   33.4710   28.4730   43.7270 H   0  0  0  0  0  0  0  0  0  0  0  0
   35.8670   28.7410   43.0660 H   0  0  0  0  0  0  0  0  0  0  0  0
   37.3780   29.7980   44.6220 H   0  0  0  0  0  0  0  0  0  0  0  0
   32.0790   28.2520   46.9670 C   0  0  0  0  0  0  0  0  0  0  0  0
   32.3530   29.2580   46.0520 C   0  0  0  0  0  0  0  0  0  0  0  0
   31.3110   30.0890   45.6680 C   0  0  0  0  0  0  0  0  0  0  0  0
   30.0680   29.9060   46.1850 N   0  0  0  0  0  0  0  0  0  0  0  0
   29.8460   28.9240   47.0670 C   0  0  0  0  0  0  0  0  0  0  0  0
   30.8180   28.1140   47.4540 N   0  0  0  0  0  0  0  0  0  0  0  0
   32.8380   27.5610   47.3170 H   0  0  0  0  0  0  0  0  0  0  0  0
   31.5420   30.8720   44.9490 H   0  0  0  0  0  0  0  0  0  0  0  0
   28.5260   28.7600   47.5940 N   0  0  0  0  0  0  0  0  0  0  0  0
   28.4650   28.6100   48.9290 C   0  0  0  0  0  3  0  0  0  0  0  0
   27.1910   28.4470   49.4810 C   0  0  0  0  0  3  0  0  0  0  0  0
   26.1280   28.4580   48.5770 C   0  0  0  0  0  0  0  0  0  0  0  0
   24.7950   28.2980   49.0520 N   0  0  0  0  0  0  0  0  0  0  0  0
   26.2770   28.6140   47.2540 N   0  0  0  0  0  0  0  0  0  0  0  0
   27.4870   28.7690   46.7390 C   0  0  0  0  0  0  0  0  0  0  0  0
   27.7240   28.9210   45.5120 O   0  0  0  0  0  0  0  0  0  0  0  0
   23.9510   28.6280   49.5700 H   0  0  0  0  0  0  0  0  0  0  0  0
   24.3940   27.3720   48.7500 H   0  0  0  0  0  0  0  0  0  0  0  0
   37.8950   32.3220   45.0470 Br  0  0  0  0  0  0  0  0  0  0  0  0
   37.7690   31.7600   46.8630 C   0  0  0  0  0  0  0  0  0  0  0  0
   36.8500   30.7700   47.0910 C   0  0  0  0  0  0  0  0  0  0  0  0
   36.7360   30.2720   48.4000 C   0  0  0  0  0  0  0  0  0  0  0  0
   37.5130   30.7630   49.4050 C   0  0  0  0  0  0  0  0  0  0  0  0
   38.4180   31.7630   49.1110 C   0  0  0  0  0  0  0  0  0  0  0  0
   38.5590   32.2830   47.8140 C   0  0  0  0  0  0  0  0  0  0  0  0
   36.0410   29.4910   48.6760 H   0  0  0  0  0  0  0  0  0  0  0  0
   37.4520   30.4040   50.4210 H   0  0  0  0  0  0  0  0  0  0  0  0
   39.0570   32.1840   49.8760 H   0  0  0  0  0  0  0  0  0  0  0  0
   39.4220   33.2670   47.4420 O   0  0  0  0  0  0  0  0  0  0  0  0
   39.1470   34.2360   47.5700 H   0  0  0  0  0  0  0  0  0  0  0  0
  2  1  1  0  0  0  0
  3 12  1  0  0  0  0
  3  2  2  0  0  0  0
  4  3  1  0  0  0  0
  5  4  2  0  0  0  0
  5  6  1  0  0  0  0
  6  7  2  0  0  0  0
  7  2  1  0  0  0  0
  7 31  1  0  0  0  0
  8  4  1  0  0  0  0
  9  5  1  0  0  0  0
 10  6  1  0  0  0  0
 11 17  1  0  0  0  0
 11 16  1  0  0  0  0
 12 11  2  0  0  0  0
 13 12  1  0  0  0  0
 13 14  2  0  0  0  0
 14 15  1  0  0  0  0
 15 16  2  0  0  0  0
 15 19  1  0  0  0  0
 18 13  1  0  0  0  0
 19 20  1  0  0  0  0
 20 21  2  0  0  0  0
 22 23  1  0  0  0  0
 22 21  1  0  0  0  0
 23 27  1  0  0  0  0
 24 22  2  0  0  0  0
 25 24  1  0  0  0  0
 25 19  1  0  0  0  0
 26 25  2  0  0  0  0
 28 23  1  0  0  0  0
 29 30  1  0  0  0  0
 30 31  2  0  0  0  0
 30 35  1  0  0  0  0
 31 32  1  0  0  0  0
 32 36  1  0  0  0  0
 32 33  2  0  0  0  0
 33 37  1  0  0  0  0
 34 33  1  0  0  0  0
 34 38  1  0  0  0  0
 35 34  2  0  0  0  0
 39 40  1  0  0  0  0
 39 35  1  0  0  0  0
M  END
>  <minimizedAffinity>
-8.07081509

>  <minimizedRMSD>
0.202802837

$$$$
