
 OpenBabel03272502073D

 40 43  0  0  0  0  0  0  0  0999 V2000
   34.2770   30.4190   47.4410 F   0  0  0  0  0  0  0  0  0  0  0  0
   34.6630   29.9150   46.2240 C   0  0  0  0  0  0  0  0  0  0  0  0
   33.7740   29.2840   45.3680 C   0  0  0  0  0  0  0  0  0  0  0  0
   34.2320   28.8210   44.1570 C   0  0  0  0  0  0  0  0  0  0  0  0
   35.5720   28.9830   43.7890 C   0  0  0  0  0  0  0  0  0  0  0  0
   36.4070   29.6200   44.6890 C   0  0  0  0  0  0  0  0  0  0  0  0
   36.0030   30.0870   45.8830 C   0  0  0  0  0  0  0  0  0  0  0  0
   33.5070   28.3430   43.5370 H   0  0  0  0  0  0  0  0  0  0  0  0
   35.8900   28.6040   42.8270 H   0  0  0  0  0  0  0  0  0  0  0  0
   37.4240   29.7050   44.3300 H   0  0  0  0  0  0  0  0  0  0  0  0
   32.0120   27.9340   46.3080 C   0  0  0  0  0  0  0  0  0  0  0  0
   32.4280   29.1800   45.8630 C   0  0  0  0  0  0  0  0  0  0  0  0
   31.5260   30.2320   45.9380 C   0  0  0  0  0  0  0  0  0  0  0  0
   30.2810   30.0260   46.4380 N   0  0  0  0  0  0  0  0  0  0  0  0
   29.9190   28.8090   46.8590 C   0  0  0  0  0  0  0  0  0  0  0  0
   30.7540   27.7840   46.8000 N   0  0  0  0  0  0  0  0  0  0  0  0
   32.6540   27.0610   46.2820 H   0  0  0  0  0  0  0  0  0  0  0  0
   31.8680   31.2030   45.5840 H   0  0  0  0  0  0  0  0  0  0  0  0
   28.5990   28.6270   47.3820 N   0  0  0  0  0  0  0  0  0  0  0  0
   27.6810   28.2450   46.4760 C   0  0  0  0  0  3  0  0  0  0  0  0
   26.3790   28.0580   46.9490 C   0  0  0  0  0  3  0  0  0  0  0  0
   26.1850   28.2890   48.3110 C   0  0  0  0  0  0  0  0  0  0  0  0
   24.8900   28.1210   48.8790 N   0  0  0  0  0  0  0  0  0  0  0  0
   27.1600   28.6690   49.1480 N   0  0  0  0  0  0  0  0  0  0  0  0
   28.3910   28.8450   48.6930 C   0  0  0  0  0  0  0  0  0  0  0  0
   29.3690   29.2000   49.4020 O   0  0  0  0  0  0  0  0  0  0  0  0
   24.0800   27.5360   49.1810 H   0  0  0  0  0  0  0  0  0  0  0  0
   24.4790   29.0470   49.1690 H   0  0  0  0  0  0  0  0  0  0  0  0
   37.8430   32.3350   44.7130 Br  0  0  0  0  0  0  0  0  0  0  0  0
   37.8100   31.7570   46.5280 C   0  0  0  0  0  0  0  0  0  0  0  0
   36.9360   30.7330   46.7840 C   0  0  0  0  0  0  0  0  0  0  0  0
   36.8910   30.2240   48.0920 C   0  0  0  0  0  0  0  0  0  0  0  0
   37.6900   30.7350   49.0690 C   0  0  0  0  0  0  0  0  0  0  0  0
   38.5470   31.7690   48.7480 C   0  0  0  0  0  0  0  0  0  0  0  0
   38.6180   32.3020   47.4510 C   0  0  0  0  0  0  0  0  0  0  0  0
   36.2360   29.4160   48.3890 H   0  0  0  0  0  0  0  0  0  0  0  0
   37.6830   30.3670   50.0840 H   0  0  0  0  0  0  0  0  0  0  0  0
   39.2000   32.2070   49.4910 H   0  0  0  0  0  0  0  0  0  0  0  0
   39.4300   33.3180   47.0530 O   0  0  0  0  0  0  0  0  0  0  0  0
   39.1260   34.2760   47.1990 H   0  0  0  0  0  0  0  0  0  0  0  0
  2  1  1  0  0  0  0
  3 12  1  0  0  0  0
  3  2  2  0  0  0  0
  4  3  1  0  0  0  0
  5  4  2  0  0  0  0
  5  6  1  0  0  0  0
  6  7  2  0  0  0  0
  7  2  1  0  0  0  0
  7 31  1  0  0  0  0
  8  4  1  0  0  0  0
  9  5  1  0  0  0  0
 10  6  1  0  0  0  0
 11 16  1  0  0  0  0
 12 13  1  0  0  0  0
 12 11  2  0  0  0  0
 13 14  2  0  0  0  0
 14 15  1  0  0  0  0
 15 19  1  0  0  0  0
 16 15  2  0  0  0  0
 17 11  1  0  0  0  0
 18 13  1  0  0  0  0
 19 25  1  0  0  0  0
 20 21  2  0  0  0  0
 20 19  1  0  0  0  0
 21 22  1  0  0  0  0
 22 23  1  0  0  0  0
 22 24  2  0  0  0  0
 23 28  1  0  0  0  0
 23 27  1  0  0  0  0
 25 24  1  0  0  0  0
 25 26  2  0  0  0  0
 29 30  1  0  0  0  0
 30 31  2  0  0  0  0
 30 35  1  0  0  0  0
 31 32  1  0  0  0  0
 32 36  1  0  0  0  0
 32 33  2  0  0  0  0
 33 37  1  0  0  0  0
 34 33  1  0  0  0  0
 34 38  1  0  0  0  0
 35 34  2  0  0  0  0
 39 40  1  0  0  0  0
 39 35  1  0  0  0  0
M  END
>  <minimizedAffinity>
-7.05544424

>  <minimizedRMSD>
0.383385956

$$$$
