
 OpenBabel03272504333D

 41 44  0  0  0  0  0  0  0  0999 V2000
   35.2670   29.5800   47.6900 C   0  0  0  0  0  0  0  0  0  0  0  0
   35.4970   30.0760   46.4090 C   0  0  0  0  0  0  0  0  0  0  0  0
   34.5110   30.0090   45.4510 C   0  0  0  0  0  0  0  0  0  0  0  0
   33.3180   29.4430   45.8100 N   0  0  0  0  0  0  0  0  0  0  0  0
   33.1230   28.9700   47.0590 C   0  0  0  0  0  0  0  0  0  0  0  0
   34.0890   29.0330   48.0050 N   0  0  0  0  0  0  0  0  0  0  0  0
   36.4590   30.5130   46.1810 H   0  0  0  0  0  0  0  0  0  0  0  0
   34.6590   30.3880   44.4410 H   0  0  0  0  0  0  0  0  0  0  0  0
   31.8320   28.3720   47.4080 C   0  0  0  0  0  0  0  0  0  0  0  0
   31.6950   27.5760   48.5090 C   0  0  0  0  0  0  0  0  0  0  0  0
   30.4910   26.9920   48.8760 C   0  0  0  0  0  0  0  0  0  0  0  0
   29.4470   27.2630   48.0630 N   0  0  0  0  0  0  0  0  0  0  0  0
   29.5700   28.0420   46.9820 C   0  0  0  0  0  0  0  0  0  0  0  0
   30.7580   28.6010   46.6460 N   0  0  0  0  0  0  0  0  0  0  0  0
   32.5350   27.3620   49.1550 H   0  0  0  0  0  0  0  0  0  0  0  0
   30.3890   26.3630   49.7480 H   0  0  0  0  0  0  0  0  0  0  0  0
   28.5190   28.3760   46.0790 N   0  0  0  0  0  0  0  0  0  0  0  0
   27.3490   27.7450   46.2810 C   0  0  0  0  0  3  0  0  0  0  0  0
   26.3340   28.0730   45.4030 C   0  0  0  0  0  3  0  0  0  0  0  0
   26.6050   29.0000   44.4180 C   0  0  0  0  0  0  0  0  0  0  0  0
   25.6040   29.3800   43.4850 N   0  0  0  0  0  0  0  0  0  0  0  0
   27.8250   29.5980   44.2800 N   0  0  0  0  0  0  0  0  0  0  0  0
   28.8160   29.2830   45.1310 C   0  0  0  0  0  0  0  0  0  0  0  0
   29.9700   29.7930   45.0670 O   0  0  0  0  0  0  0  0  0  0  0  0
   25.0280   29.2850   42.6190 H   0  0  0  0  0  0  0  0  0  0  0  0
   25.6250   28.6330   42.7290 H   0  0  0  0  0  0  0  0  0  0  0  0
   36.2560   29.6230   48.7270 N   0  0  0  0  0  0  0  0  0  0  0  0
   36.1330   28.8560   49.9460 C   0  0  0  0  0  0  0  0  0  0  0  0
   36.4580   29.6110   51.2040 C   0  0  0  0  0  0  0  0  0  0  0  0
   37.3910   30.6600   51.1080 N   0  0  0  0  0  0  0  0  0  0  0  0
   37.3040   31.4030   49.8550 C   0  0  0  0  0  0  0  0  0  0  0  0
   37.4510   30.3750   48.7450 C   0  0  0  0  0  0  0  0  0  0  0  0
   35.1220   28.4060   50.0560 H   0  0  0  0  0  0  0  0  0  0  0  0
   36.8490   27.9870   49.8580 H   0  0  0  0  0  0  0  0  0  0  0  0
   36.8140   28.8550   51.9380 H   0  0  0  0  0  0  0  0  0  0  0  0
   35.5010   29.9930   51.6460 H   0  0  0  0  0  0  0  0  0  0  0  0
   37.1690   31.3750   51.8660 H   0  0  0  0  0  0  0  0  0  0  0  0
   36.3140   31.8990   49.8470 H   0  0  0  0  0  0  0  0  0  0  0  0
   38.1180   32.1490   49.8350 H   0  0  0  0  0  0  0  0  0  0  0  0
   37.5970   30.9270   47.8070 H   0  0  0  0  0  0  0  0  0  0  0  0
   38.3640   29.7860   48.9780 H   0  0  0  0  0  0  0  0  0  0  0  0
  1  6  1  0  0  0  0
  1 27  1  0  0  0  0
  2  1  2  0  0  0  0
  3  4  2  0  0  0  0
  3  2  1  0  0  0  0
  4  5  1  0  0  0  0
  5  9  1  0  0  0  0
  5  6  2  0  0  0  0
  7  2  1  0  0  0  0
  8  3  1  0  0  0  0
  9 10  1  0  0  0  0
 10 11  2  0  0  0  0
 10 15  1  0  0  0  0
 11 16  1  0  0  0  0
 12 11  1  0  0  0  0
 13 12  2  0  0  0  0
 14 13  1  0  0  0  0
 14  9  2  0  0  0  0
 17 18  1  0  0  0  0
 17 13  1  0  0  0  0
 19 18  2  0  0  0  0
 20 19  1  0  0  0  0
 21 20  1  0  0  0  0
 22 20  2  0  0  0  0
 22 23  1  0  0  0  0
 23 17  1  0  0  0  0
 24 23  2  0  0  0  0
 25 21  1  0  0  0  0
 26 21  1  0  0  0  0
 27 32  1  0  0  0  0
 27 28  1  0  0  0  0
 28 33  1  0  0  0  0
 28 29  1  0  0  0  0
 29 36  1  0  0  0  0
 29 35  1  0  0  0  0
 30 29  1  0  0  0  0
 30 37  1  0  0  0  0
 31 30  1  0  0  0  0
 32 41  1  0  0  0  0
 32 31  1  0  0  0  0
 34 28  1  0  0  0  0
 38 31  1  0  0  0  0
 39 31  1  0  0  0  0
 40 32  1  0  0  0  0
M  END
>  <minimizedAffinity>
-5.77747869

>  <minimizedRMSD>
0.489206284

$$$$
