
 OpenBabel03272508053D

 36 39  0  0  0  0  0  0  0  0999 V2000
   38.8950   30.8840   45.7870 C   0  0  0  0  0  0  0  0  0  0  0  0
   40.0900   31.5210   46.0490 C   0  0  0  0  0  0  0  0  0  0  0  0
   40.9300   31.4720   44.9530 C   0  0  0  0  0  0  0  0  0  0  0  0
   40.1980   30.7900   44.0440 N   0  0  0  0  0  0  0  0  0  0  0  0
   39.0140   30.4460   44.5240 N   0  0  0  0  0  0  0  0  0  0  0  0
   40.3590   32.0080   46.9880 H   0  0  0  0  0  0  0  0  0  0  0  0
   41.9280   31.8530   44.7840 H   0  0  0  0  0  0  0  0  0  0  0  0
   37.7780   30.7380   46.6970 C   0  0  0  0  0  0  0  0  0  0  0  0
   37.9880   30.9530   48.0750 C   0  0  0  0  0  0  0  0  0  0  0  0
   36.9050   30.8090   48.9340 C   0  0  0  0  0  0  0  0  0  0  0  0
   35.6980   30.4700   48.3910 N   0  0  0  0  0  0  0  0  0  0  0  0
   35.5170   30.2680   47.0640 C   0  0  0  0  0  0  0  0  0  0  0  0
   36.5700   30.4070   46.2300 N   0  0  0  0  0  0  0  0  0  0  0  0
   38.9890   31.2210   48.4170 H   0  0  0  0  0  0  0  0  0  0  0  0
   34.5380   30.0000   46.6800 H   0  0  0  0  0  0  0  0  0  0  0  0
   37.1000   31.0300   50.3900 C   0  0  0  0  0  0  0  0  0  0  0  0
   36.5890   32.2770   50.6520 F   0  0  0  0  0  0  0  0  0  0  0  0
   36.4270   30.1010   51.1690 F   0  0  0  0  0  0  0  0  0  0  0  0
   38.4540   31.0400   50.7300 F   0  0  0  0  0  0  0  0  0  0  0  0
   40.5700   30.4270   42.6680 C   0  0  0  0  0  0  0  0  0  0  0  0
   40.1550   31.1910   41.5660 C   0  0  0  0  0  0  0  0  0  0  0  0
   40.5180   30.8220   40.3310 C   0  0  0  0  0  0  0  0  0  0  0  0
   41.3220   29.6600   40.1510 C   0  0  0  0  0  0  0  0  0  0  0  0
   41.5430   29.0950   41.9060 S   0  0  0  0  0  0  0  0  0  0  0  0
   39.5410   32.0830   41.6700 H   0  0  0  0  0  0  0  0  0  0  0  0
   40.3050   31.2690   39.3740 H   0  0  0  0  0  0  0  0  0  0  0  0
   41.8800   28.9810   39.1010 N   0  0  0  0  0  0  0  0  0  0  0  0
   41.3900   27.8530   38.6160 C   0  0  0  0  0  3  0  0  0  0  0  0
   42.0320   27.2400   37.5430 C   0  0  0  0  0  3  0  0  0  0  0  0
   43.1640   27.8170   37.0050 C   0  0  0  0  0  0  0  0  0  0  0  0
   43.9090   27.2820   35.9040 N   0  0  0  0  0  0  0  0  0  0  0  0
   43.6480   28.9800   37.5240 N   0  0  0  0  0  0  0  0  0  0  0  0
   42.9980   29.5580   38.5750 C   0  0  0  0  0  0  0  0  0  0  0  0
   43.5060   30.6280   38.9970 O   0  0  0  0  0  0  0  0  0  0  0  0
   44.9520   27.3680   35.9000 H   0  0  0  0  0  0  0  0  0  0  0  0
   43.2560   26.8510   35.2130 H   0  0  0  0  0  0  0  0  0  0  0  0
  1  2  1  0  0  0  0
  1  8  1  0  0  0  0
  2  6  1  0  0  0  0
  3  2  2  0  0  0  0
  4  5  1  0  0  0  0
  4  3  1  0  0  0  0
  5  1  2  0  0  0  0
  7  3  1  0  0  0  0
  8  9  1  0  0  0  0
  9 14  1  0  0  0  0
  9 10  2  0  0  0  0
 10 16  1  0  0  0  0
 11 10  1  0  0  0  0
 12 11  2  0  0  0  0
 13  8  2  0  0  0  0
 13 12  1  0  0  0  0
 15 12  1  0  0  0  0
 16 17  1  0  0  0  0
 16 19  1  0  0  0  0
 16 18  1  0  0  0  0
 20  4  1  0  0  0  0
 21 25  1  0  0  0  0
 21 20  2  0  0  0  0
 22 21  1  0  0  0  0
 23 22  2  0  0  0  0
 23 24  1  0  0  0  0
 24 20  1  0  0  0  0
 26 22  1  0  0  0  0
 27 23  1  0  0  0  0
 28 27  1  0  0  0  0
 29 28  2  0  0  0  0
 30 32  2  0  0  0  0
 30 29  1  0  0  0  0
 31 30  1  0  0  0  0
 32 33  1  0  0  0  0
 33 34  2  0  0  0  0
 33 27  1  0  0  0  0
 35 31  1  0  0  0  0
 36 31  1  0  0  0  0
M  END
>  <minimizedAffinity>
-6.54627657

>  <minimizedRMSD>
0.729008615

$$$$
