
 OpenBabel03272506273D

 43 46  0  0  0  0  0  0  0  0999 V2000
   37.8750   30.4700   45.5380 C   0  0  0  0  0  0  0  0  0  0  0  0
   38.7320   30.8120   46.5710 C   0  0  0  0  0  0  0  0  0  0  0  0
   38.3330   31.0280   47.8890 C   0  0  0  0  0  0  0  0  0  0  0  0
   36.9610   30.8920   48.1960 C   0  0  0  0  0  0  0  0  0  0  0  0
   36.1250   30.5510   47.1530 C   0  0  0  0  0  0  0  0  0  0  0  0
   36.5290   30.3410   45.8690 C   0  0  0  0  0  0  0  0  0  0  0  0
   39.8090   30.9260   46.3640 H   0  0  0  0  0  0  0  0  0  0  0  0
   39.1030   31.2920   48.6110 H   0  0  0  0  0  0  0  0  0  0  0  0
   36.7730   31.0800   49.2290 H   0  0  0  0  0  0  0  0  0  0  0  0
   35.1590   30.5100   47.5820 H   0  0  0  0  0  0  0  0  0  0  0  0
   38.9410   28.9970   43.9460 C   0  0  0  0  0  0  0  0  0  0  0  0
   38.4660   30.2890   44.2430 C   0  0  0  0  0  0  0  0  0  0  0  0
   38.6030   31.2860   43.2710 C   0  0  0  0  0  0  0  0  0  0  0  0
   39.1890   30.9600   42.0870 N   0  0  0  0  0  0  0  0  0  0  0  0
   39.6410   29.7050   41.8170 C   0  0  0  0  0  0  0  0  0  0  0  0
   39.5150   28.7250   42.7530 N   0  0  0  0  0  0  0  0  0  0  0  0
   38.8480   28.2080   44.6750 H   0  0  0  0  0  0  0  0  0  0  0  0
   40.1020   29.4800   40.8670 H   0  0  0  0  0  0  0  0  0  0  0  0
   38.1520   32.6880   43.4480 C   0  0  0  0  0  0  0  0  0  0  0  0
   38.4970   33.4380   42.3050 F   0  0  0  0  0  0  0  0  0  0  0  0
   36.8390   32.8600   43.6930 F   0  0  0  0  0  0  0  0  0  0  0  0
   38.8830   33.2950   44.4700 F   0  0  0  0  0  0  0  0  0  0  0  0
   35.4470   29.9030   44.5600 S   0  0  0  0  0  0  0  0  0  0  0  0
   34.3700   26.9980   44.8010 Cl  0  0  0  0  0  0  0  0  0  0  0  0
   33.3450   28.3640   45.1730 C   0  0  0  0  0  0  0  0  0  0  0  0
   33.7640   29.6850   45.0690 C   0  0  0  0  0  0  0  0  0  0  0  0
   32.9120   30.7080   45.3620 C   0  0  0  0  0  0  0  0  0  0  0  0
   31.6280   30.4210   45.7660 C   0  0  0  0  0  0  0  0  0  0  0  0
   31.1960   29.1020   45.8730 C   0  0  0  0  0  0  0  0  0  0  0  0
   32.0480   28.0470   45.5770 C   0  0  0  0  0  0  0  0  0  0  0  0
   33.1250   31.7400   45.2790 H   0  0  0  0  0  0  0  0  0  0  0  0
   30.8840   31.1660   46.0210 H   0  0  0  0  0  0  0  0  0  0  0  0
   30.1940   28.8730   46.1880 H   0  0  0  0  0  0  0  0  0  0  0  0
   31.6030   26.6940   45.6860 N   0  0  0  0  0  0  0  0  0  0  0  0
   31.8160   25.9990   46.8210 C   0  0  0  0  0  3  0  0  0  0  0  0
   31.3390   24.7040   46.7990 C   0  0  0  0  0  3  0  0  0  0  0  0
   30.6910   24.1330   45.7200 C   0  0  0  0  0  0  0  0  0  0  0  0
   30.2130   22.7930   45.7350 N   0  0  0  0  0  0  0  0  0  0  0  0
   30.5320   24.9220   44.6340 N   0  0  0  0  0  0  0  0  0  0  0  0
   30.9810   26.2040   44.5970 C   0  0  0  0  0  0  0  0  0  0  0  0
   30.7840   26.8470   43.5470 O   0  0  0  0  0  0  0  0  0  0  0  0
   29.2190   23.0250   45.9890 H   0  0  0  0  0  0  0  0  0  0  0  0
   30.6120   21.8640   45.5710 H   0  0  0  0  0  0  0  0  0  0  0  0
  1  6  2  0  0  0  0
  1  2  1  0  0  0  0
  2  3  2  0  0  0  0
  3  4  1  0  0  0  0
  3  8  1  0  0  0  0
  4  9  1  0  0  0  0
  5 10  1  0  0  0  0
  5  4  2  0  0  0  0
  6  5  1  0  0  0  0
  7  2  1  0  0  0  0
 11 12  1  0  0  0  0
 11 17  1  0  0  0  0
 12  1  1  0  0  0  0
 13 19  1  0  0  0  0
 13 12  2  0  0  0  0
 14 13  1  0  0  0  0
 15 14  2  0  0  0  0
 15 16  1  0  0  0  0
 16 11  2  0  0  0  0
 18 15  1  0  0  0  0
 19 21  1  0  0  0  0
 19 22  1  0  0  0  0
 20 19  1  0  0  0  0
 23 26  1  0  0  0  0
 23  6  1  0  0  0  0
 24 25  1  0  0  0  0
 25 30  1  0  0  0  0
 26 25  2  0  0  0  0
 26 27  1  0  0  0  0
 27 28  2  0  0  0  0
 28 29  1  0  0  0  0
 28 32  1  0  0  0  0
 29 33  1  0  0  0  0
 30 34  1  0  0  0  0
 30 29  2  0  0  0  0
 31 27  1  0  0  0  0
 34 35  1  0  0  0  0
 36 35  2  0  0  0  0
 37 38  1  0  0  0  0
 37 36  1  0  0  0  0
 38 42  1  0  0  0  0
 39 37  2  0  0  0  0
 40 39  1  0  0  0  0
 40 34  1  0  0  0  0
 41 40  2  0  0  0  0
 43 38  1  0  0  0  0
M  END
>  <minimizedAffinity>
-4.86617422

>  <minimizedRMSD>
8.26186371

$$$$
