
 OpenBabel03272504333D

 41 44  0  0  0  0  0  0  0  0999 V2000
   35.2590   29.5850   47.6760 C   0  0  0  0  0  0  0  0  0  0  0  0
   35.4650   30.0850   46.3930 C   0  0  0  0  0  0  0  0  0  0  0  0
   34.4650   30.0100   45.4490 C   0  0  0  0  0  0  0  0  0  0  0  0
   33.2840   29.4330   45.8260 N   0  0  0  0  0  0  0  0  0  0  0  0
   33.1110   28.9570   47.0770 C   0  0  0  0  0  0  0  0  0  0  0  0
   34.0900   29.0280   48.0080 N   0  0  0  0  0  0  0  0  0  0  0  0
   36.4200   30.5310   46.1510 H   0  0  0  0  0  0  0  0  0  0  0  0
   34.5960   30.3910   44.4380 H   0  0  0  0  0  0  0  0  0  0  0  0
   31.8300   28.3480   47.4430 C   0  0  0  0  0  0  0  0  0  0  0  0
   31.7070   27.5820   48.5680 C   0  0  0  0  0  0  0  0  0  0  0  0
   30.5140   26.9880   48.9530 C   0  0  0  0  0  0  0  0  0  0  0  0
   29.4650   27.2170   48.1330 N   0  0  0  0  0  0  0  0  0  0  0  0
   29.5750   27.9650   47.0290 C   0  0  0  0  0  0  0  0  0  0  0  0
   30.7520   28.5340   46.6760 N   0  0  0  0  0  0  0  0  0  0  0  0
   32.5510   27.4030   49.2200 H   0  0  0  0  0  0  0  0  0  0  0  0
   30.4230   26.3840   49.8440 H   0  0  0  0  0  0  0  0  0  0  0  0
   28.5180   28.2540   46.1170 N   0  0  0  0  0  0  0  0  0  0  0  0
   28.3360   29.5530   45.8240 C   0  0  0  0  0  3  0  0  0  0  0  0
   27.3120   29.8270   44.9370 C   0  0  0  0  0  3  0  0  0  0  0  0
   26.5830   28.7640   44.4430 C   0  0  0  0  0  0  0  0  0  0  0  0
   25.5180   28.9800   43.5280 N   0  0  0  0  0  0  0  0  0  0  0  0
   26.8330   27.4690   44.7920 N   0  0  0  0  0  0  0  0  0  0  0  0
   27.8270   27.1960   45.6530 C   0  0  0  0  0  0  0  0  0  0  0  0
   28.1190   26.0250   46.0230 O   0  0  0  0  0  0  0  0  0  0  0  0
   24.5390   29.2090   43.2470 H   0  0  0  0  0  0  0  0  0  0  0  0
   24.6750   29.2230   44.1280 H   0  0  0  0  0  0  0  0  0  0  0  0
   36.2620   29.6360   48.6980 N   0  0  0  0  0  0  0  0  0  0  0  0
   36.1640   28.8690   49.9190 C   0  0  0  0  0  0  0  0  0  0  0  0
   36.5000   29.6260   51.1720 C   0  0  0  0  0  0  0  0  0  0  0  0
   37.4240   30.6830   51.0630 N   0  0  0  0  0  0  0  0  0  0  0  0
   37.3120   31.4250   49.8110 C   0  0  0  0  0  0  0  0  0  0  0  0
   37.4520   30.3980   48.6990 C   0  0  0  0  0  0  0  0  0  0  0  0
   35.1570   28.4110   50.0440 H   0  0  0  0  0  0  0  0  0  0  0  0
   36.8850   28.0050   49.8210 H   0  0  0  0  0  0  0  0  0  0  0  0
   36.8740   28.8740   51.9020 H   0  0  0  0  0  0  0  0  0  0  0  0
   35.5470   30.0010   51.6290 H   0  0  0  0  0  0  0  0  0  0  0  0
   37.2070   31.3960   51.8240 H   0  0  0  0  0  0  0  0  0  0  0  0
   36.3190   31.9140   49.8170 H   0  0  0  0  0  0  0  0  0  0  0  0
   38.1200   32.1770   49.7800 H   0  0  0  0  0  0  0  0  0  0  0  0
   37.5790   30.9510   47.7590 H   0  0  0  0  0  0  0  0  0  0  0  0
   38.3730   29.8160   48.9190 H   0  0  0  0  0  0  0  0  0  0  0  0
  1  6  1  0  0  0  0
  1 27  1  0  0  0  0
  2  1  2  0  0  0  0
  3  4  2  0  0  0  0
  3  2  1  0  0  0  0
  4  5  1  0  0  0  0
  5  9  1  0  0  0  0
  5  6  2  0  0  0  0
  7  2  1  0  0  0  0
  8  3  1  0  0  0  0
  9 10  1  0  0  0  0
 10 11  2  0  0  0  0
 10 15  1  0  0  0  0
 11 16  1  0  0  0  0
 12 11  1  0  0  0  0
 13 12  2  0  0  0  0
 14 13  1  0  0  0  0
 14  9  2  0  0  0  0
 17 13  1  0  0  0  0
 18 17  1  0  0  0  0
 19 18  2  0  0  0  0
 20 22  2  0  0  0  0
 20 19  1  0  0  0  0
 21 26  1  0  0  0  0
 21 20  1  0  0  0  0
 22 23  1  0  0  0  0
 23 24  2  0  0  0  0
 23 17  1  0  0  0  0
 25 21  1  0  0  0  0
 27 32  1  0  0  0  0
 27 28  1  0  0  0  0
 28 33  1  0  0  0  0
 28 29  1  0  0  0  0
 29 36  1  0  0  0  0
 29 35  1  0  0  0  0
 30 29  1  0  0  0  0
 30 37  1  0  0  0  0
 31 38  1  0  0  0  0
 31 30  1  0  0  0  0
 32 41  1  0  0  0  0
 32 31  1  0  0  0  0
 34 28  1  0  0  0  0
 39 31  1  0  0  0  0
 40 32  1  0  0  0  0
M  END
>  <minimizedAffinity>
-5.75676537

>  <minimizedRMSD>
0.51091069

$$$$
