
 OpenBabel03272508053D

 36 39  0  0  0  0  0  0  0  0999 V2000
   38.8940   30.8840   45.7880 C   0  0  0  0  0  0  0  0  0  0  0  0
   40.0880   31.5220   46.0500 C   0  0  0  0  0  0  0  0  0  0  0  0
   40.9290   31.4730   44.9540 C   0  0  0  0  0  0  0  0  0  0  0  0
   40.1960   30.7900   44.0450 N   0  0  0  0  0  0  0  0  0  0  0  0
   39.0130   30.4460   44.5260 N   0  0  0  0  0  0  0  0  0  0  0  0
   40.3570   32.0090   46.9900 H   0  0  0  0  0  0  0  0  0  0  0  0
   41.9270   31.8550   44.7850 H   0  0  0  0  0  0  0  0  0  0  0  0
   37.7770   30.7380   46.6980 C   0  0  0  0  0  0  0  0  0  0  0  0
   37.9870   30.9520   48.0770 C   0  0  0  0  0  0  0  0  0  0  0  0
   36.9030   30.8080   48.9350 C   0  0  0  0  0  0  0  0  0  0  0  0
   35.6970   30.4690   48.3920 N   0  0  0  0  0  0  0  0  0  0  0  0
   35.5150   30.2680   47.0650 C   0  0  0  0  0  0  0  0  0  0  0  0
   36.5680   30.4080   46.2310 N   0  0  0  0  0  0  0  0  0  0  0  0
   38.9880   31.2200   48.4180 H   0  0  0  0  0  0  0  0  0  0  0  0
   34.5360   30.0000   46.6810 H   0  0  0  0  0  0  0  0  0  0  0  0
   37.0990   31.0280   50.3910 C   0  0  0  0  0  0  0  0  0  0  0  0
   36.5870   32.2750   50.6540 F   0  0  0  0  0  0  0  0  0  0  0  0
   36.4260   30.0990   51.1690 F   0  0  0  0  0  0  0  0  0  0  0  0
   38.4530   31.0380   50.7310 F   0  0  0  0  0  0  0  0  0  0  0  0
   40.5690   30.4270   42.6700 C   0  0  0  0  0  0  0  0  0  0  0  0
   40.1550   31.1910   41.5680 C   0  0  0  0  0  0  0  0  0  0  0  0
   40.5190   30.8220   40.3330 C   0  0  0  0  0  0  0  0  0  0  0  0
   41.3220   29.6590   40.1530 C   0  0  0  0  0  0  0  0  0  0  0  0
   41.5420   29.0940   41.9080 S   0  0  0  0  0  0  0  0  0  0  0  0
   39.5420   32.0840   41.6710 H   0  0  0  0  0  0  0  0  0  0  0  0
   40.3060   31.2690   39.3750 H   0  0  0  0  0  0  0  0  0  0  0  0
   41.8790   28.9800   39.1030 N   0  0  0  0  0  0  0  0  0  0  0  0
   41.3890   27.8510   38.6190 C   0  0  0  0  0  3  0  0  0  0  0  0
   42.0310   27.2370   37.5450 C   0  0  0  0  0  3  0  0  0  0  0  0
   43.1640   27.8150   37.0070 C   0  0  0  0  0  0  0  0  0  0  0  0
   43.9080   27.2790   35.9060 N   0  0  0  0  0  0  0  0  0  0  0  0
   43.6470   28.9780   37.5270 N   0  0  0  0  0  0  0  0  0  0  0  0
   42.9980   29.5570   38.5760 C   0  0  0  0  0  0  0  0  0  0  0  0
   43.5050   30.6280   38.9980 O   0  0  0  0  0  0  0  0  0  0  0  0
   44.9510   27.3670   35.9010 H   0  0  0  0  0  0  0  0  0  0  0  0
   43.2560   26.8480   35.2170 H   0  0  0  0  0  0  0  0  0  0  0  0
  1  2  1  0  0  0  0
  1  8  1  0  0  0  0
  2  6  1  0  0  0  0
  3  2  2  0  0  0  0
  4  5  1  0  0  0  0
  4  3  1  0  0  0  0
  5  1  2  0  0  0  0
  7  3  1  0  0  0  0
  8  9  1  0  0  0  0
  9 14  1  0  0  0  0
  9 10  2  0  0  0  0
 10 16  1  0  0  0  0
 11 10  1  0  0  0  0
 12 11  2  0  0  0  0
 13  8  2  0  0  0  0
 13 12  1  0  0  0  0
 15 12  1  0  0  0  0
 16 17  1  0  0  0  0
 16 19  1  0  0  0  0
 16 18  1  0  0  0  0
 20  4  1  0  0  0  0
 21 25  1  0  0  0  0
 21 20  2  0  0  0  0
 22 21  1  0  0  0  0
 23 22  2  0  0  0  0
 23 24  1  0  0  0  0
 24 20  1  0  0  0  0
 26 22  1  0  0  0  0
 27 23  1  0  0  0  0
 28 27  1  0  0  0  0
 29 28  2  0  0  0  0
 30 32  2  0  0  0  0
 30 29  1  0  0  0  0
 31 30  1  0  0  0  0
 32 33  1  0  0  0  0
 33 34  2  0  0  0  0
 33 27  1  0  0  0  0
 35 31  1  0  0  0  0
 36 31  1  0  0  0  0
M  END
>  <minimizedAffinity>
-6.54929972

>  <minimizedRMSD>
0.585706294

$$$$
