
 OpenBabel03272502063D

 40 43  0  0  0  0  0  0  0  0999 V2000
   34.1260   30.4240   47.6880 F   0  0  0  0  0  0  0  0  0  0  0  0
   34.5350   29.9550   46.4640 C   0  0  0  0  0  0  0  0  0  0  0  0
   33.6600   29.3590   45.5700 C   0  0  0  0  0  0  0  0  0  0  0  0
   34.1400   28.9310   44.3540 C   0  0  0  0  0  0  0  0  0  0  0  0
   35.4890   29.0940   44.0210 C   0  0  0  0  0  0  0  0  0  0  0  0
   36.3090   29.6950   44.9580 C   0  0  0  0  0  0  0  0  0  0  0  0
   35.8830   30.1280   46.1570 C   0  0  0  0  0  0  0  0  0  0  0  0
   33.4250   28.4790   43.7040 H   0  0  0  0  0  0  0  0  0  0  0  0
   35.8240   28.7430   43.0540 H   0  0  0  0  0  0  0  0  0  0  0  0
   37.3340   29.7830   44.6230 H   0  0  0  0  0  0  0  0  0  0  0  0
   32.0110   28.2090   46.9000 C   0  0  0  0  0  0  0  0  0  0  0  0
   32.3020   29.2510   46.0320 C   0  0  0  0  0  0  0  0  0  0  0  0
   31.2740   30.1160   45.6850 C   0  0  0  0  0  0  0  0  0  0  0  0
   30.0280   29.9300   46.1940 N   0  0  0  0  0  0  0  0  0  0  0  0
   29.7890   28.9140   47.0300 C   0  0  0  0  0  0  0  0  0  0  0  0
   30.7470   28.0700   47.3800 N   0  0  0  0  0  0  0  0  0  0  0  0
   32.7570   27.4900   47.2180 H   0  0  0  0  0  0  0  0  0  0  0  0
   31.5190   30.9270   45.0020 H   0  0  0  0  0  0  0  0  0  0  0  0
   28.4660   28.7480   47.5490 N   0  0  0  0  0  0  0  0  0  0  0  0
   27.7490   29.8830   47.6420 C   0  0  0  0  0  3  0  0  0  0  0  0
   26.4500   29.7610   48.1450 C   0  0  0  0  0  3  0  0  0  0  0  0
   26.0490   28.4700   48.4920 C   0  0  0  0  0  0  0  0  0  0  0  0
   24.7410   28.2530   49.0120 N   0  0  0  0  0  0  0  0  0  0  0  0
   26.8290   27.3880   48.3650 N   0  0  0  0  0  0  0  0  0  0  0  0
   28.0580   27.5120   47.8880 C   0  0  0  0  0  0  0  0  0  0  0  0
   28.8620   26.5550   47.7350 O   0  0  0  0  0  0  0  0  0  0  0  0
   23.7020   28.2170   48.9200 H   0  0  0  0  0  0  0  0  0  0  0  0
   24.7770   27.9820   50.0290 H   0  0  0  0  0  0  0  0  0  0  0  0
   37.8680   32.2910   45.0660 Br  0  0  0  0  0  0  0  0  0  0  0  0
   37.7290   31.7220   46.8790 C   0  0  0  0  0  0  0  0  0  0  0  0
   36.8020   30.7370   47.0970 C   0  0  0  0  0  0  0  0  0  0  0  0
   36.6760   30.2350   48.4030 C   0  0  0  0  0  0  0  0  0  0  0  0
   37.4510   30.7160   49.4140 C   0  0  0  0  0  0  0  0  0  0  0  0
   38.3650   31.7110   49.1300 C   0  0  0  0  0  0  0  0  0  0  0  0
   38.5170   32.2360   47.8360 C   0  0  0  0  0  0  0  0  0  0  0  0
   35.9750   29.4580   48.6720 H   0  0  0  0  0  0  0  0  0  0  0  0
   37.3820   30.3530   50.4290 H   0  0  0  0  0  0  0  0  0  0  0  0
   39.0020   32.1250   49.9010 H   0  0  0  0  0  0  0  0  0  0  0  0
   39.3880   33.2150   47.4730 O   0  0  0  0  0  0  0  0  0  0  0  0
   39.1190   34.1850   47.6040 H   0  0  0  0  0  0  0  0  0  0  0  0
  2  1  1  0  0  0  0
  3 12  1  0  0  0  0
  3  2  2  0  0  0  0
  4  3  1  0  0  0  0
  5  4  2  0  0  0  0
  5  6  1  0  0  0  0
  6  7  2  0  0  0  0
  7  2  1  0  0  0  0
  7 31  1  0  0  0  0
  8  4  1  0  0  0  0
  9  5  1  0  0  0  0
 10  6  1  0  0  0  0
 11 17  1  0  0  0  0
 11 16  1  0  0  0  0
 12 11  2  0  0  0  0
 13 12  1  0  0  0  0
 13 14  2  0  0  0  0
 14 15  1  0  0  0  0
 15 16  2  0  0  0  0
 15 19  1  0  0  0  0
 18 13  1  0  0  0  0
 19 20  1  0  0  0  0
 19 25  1  0  0  0  0
 20 21  2  0  0  0  0
 21 22  1  0  0  0  0
 22 23  1  0  0  0  0
 23 28  1  0  0  0  0
 24 22  2  0  0  0  0
 25 24  1  0  0  0  0
 26 25  2  0  0  0  0
 27 23  1  0  0  0  0
 29 30  1  0  0  0  0
 30 31  2  0  0  0  0
 30 35  1  0  0  0  0
 31 32  1  0  0  0  0
 32 36  1  0  0  0  0
 32 33  2  0  0  0  0
 33 37  1  0  0  0  0
 34 33  1  0  0  0  0
 34 38  1  0  0  0  0
 35 34  2  0  0  0  0
 39 40  1  0  0  0  0
 39 35  1  0  0  0  0
M  END
>  <minimizedAffinity>
-8.10960484

>  <minimizedRMSD>
0.246443331

$$$$
