
 OpenBabel03272502073D

 40 43  0  0  0  0  0  0  0  0999 V2000
   34.1620   30.4220   47.6800 F   0  0  0  0  0  0  0  0  0  0  0  0
   34.5720   29.9570   46.4550 C   0  0  0  0  0  0  0  0  0  0  0  0
   33.6990   29.3560   45.5620 C   0  0  0  0  0  0  0  0  0  0  0  0
   34.1790   28.9330   44.3450 C   0  0  0  0  0  0  0  0  0  0  0  0
   35.5260   29.1050   44.0090 C   0  0  0  0  0  0  0  0  0  0  0  0
   36.3450   29.7110   44.9450 C   0  0  0  0  0  0  0  0  0  0  0  0
   35.9180   30.1390   46.1460 C   0  0  0  0  0  0  0  0  0  0  0  0
   33.4660   28.4770   43.6960 H   0  0  0  0  0  0  0  0  0  0  0  0
   35.8620   28.7580   43.0410 H   0  0  0  0  0  0  0  0  0  0  0  0
   37.3680   29.8060   44.6080 H   0  0  0  0  0  0  0  0  0  0  0  0
   32.0630   28.2020   46.9040 C   0  0  0  0  0  0  0  0  0  0  0  0
   32.3430   29.2390   46.0270 C   0  0  0  0  0  0  0  0  0  0  0  0
   31.3060   30.0900   45.6740 C   0  0  0  0  0  0  0  0  0  0  0  0
   30.0630   29.8970   46.1860 N   0  0  0  0  0  0  0  0  0  0  0  0
   29.8340   28.8850   47.0310 C   0  0  0  0  0  0  0  0  0  0  0  0
   30.8010   28.0540   47.3870 N   0  0  0  0  0  0  0  0  0  0  0  0
   32.8170   27.4930   47.2280 H   0  0  0  0  0  0  0  0  0  0  0  0
   31.5420   30.8980   44.9840 H   0  0  0  0  0  0  0  0  0  0  0  0
   28.5130   28.7110   47.5530 N   0  0  0  0  0  0  0  0  0  0  0  0
   28.3810   27.6970   48.4280 C   0  0  0  0  0  3  0  0  0  0  0  0
   27.1040   27.4950   48.9600 C   0  0  0  0  0  3  0  0  0  0  0  0
   26.1130   28.3720   48.5180 C   0  0  0  0  0  0  0  0  0  0  0  0
   24.7820   28.2390   49.0080 N   0  0  0  0  0  0  0  0  0  0  0  0
   26.3300   29.3600   47.6380 N   0  0  0  0  0  0  0  0  0  0  0  0
   27.5420   29.5450   47.1390 C   0  0  0  0  0  0  0  0  0  0  0  0
   27.8420   30.4440   46.3100 O   0  0  0  0  0  0  0  0  0  0  0  0
   24.0630   28.2990   49.7600 H   0  0  0  0  0  0  0  0  0  0  0  0
   24.1310   27.9050   48.2500 H   0  0  0  0  0  0  0  0  0  0  0  0
   37.8890   32.3150   45.0530 Br  0  0  0  0  0  0  0  0  0  0  0  0
   37.7550   31.7440   46.8660 C   0  0  0  0  0  0  0  0  0  0  0  0
   36.8340   30.7540   47.0850 C   0  0  0  0  0  0  0  0  0  0  0  0
   36.7140   30.2500   48.3910 C   0  0  0  0  0  0  0  0  0  0  0  0
   37.4880   30.7360   49.4010 C   0  0  0  0  0  0  0  0  0  0  0  0
   38.3960   31.7360   49.1150 C   0  0  0  0  0  0  0  0  0  0  0  0
   38.5420   32.2620   47.8220 C   0  0  0  0  0  0  0  0  0  0  0  0
   36.0180   29.4690   48.6600 H   0  0  0  0  0  0  0  0  0  0  0  0
   37.4230   30.3720   50.4150 H   0  0  0  0  0  0  0  0  0  0  0  0
   39.0310   32.1530   49.8850 H   0  0  0  0  0  0  0  0  0  0  0  0
   39.4070   33.2460   47.4580 O   0  0  0  0  0  0  0  0  0  0  0  0
   39.1320   34.2150   47.5890 H   0  0  0  0  0  0  0  0  0  0  0  0
  2  1  1  0  0  0  0
  3 12  1  0  0  0  0
  3  2  2  0  0  0  0
  4  3  1  0  0  0  0
  5  4  2  0  0  0  0
  5  6  1  0  0  0  0
  6  7  2  0  0  0  0
  7  2  1  0  0  0  0
  7 31  1  0  0  0  0
  8  4  1  0  0  0  0
  9  5  1  0  0  0  0
 10  6  1  0  0  0  0
 11 17  1  0  0  0  0
 11 16  1  0  0  0  0
 12 11  2  0  0  0  0
 13 12  1  0  0  0  0
 13 14  2  0  0  0  0
 14 15  1  0  0  0  0
 15 16  2  0  0  0  0
 15 19  1  0  0  0  0
 18 13  1  0  0  0  0
 19 20  1  0  0  0  0
 20 21  2  0  0  0  0
 22 21  1  0  0  0  0
 22 23  1  0  0  0  0
 23 27  1  0  0  0  0
 24 22  2  0  0  0  0
 25 19  1  0  0  0  0
 25 24  1  0  0  0  0
 26 25  2  0  0  0  0
 28 23  1  0  0  0  0
 29 30  1  0  0  0  0
 30 31  2  0  0  0  0
 30 35  1  0  0  0  0
 31 32  1  0  0  0  0
 32 36  1  0  0  0  0
 32 33  2  0  0  0  0
 33 37  1  0  0  0  0
 34 33  1  0  0  0  0
 34 38  1  0  0  0  0
 35 34  2  0  0  0  0
 39 40  1  0  0  0  0
 39 35  1  0  0  0  0
M  END
>  <minimizedAffinity>
-8.09633064

>  <minimizedRMSD>
0.198376179

$$$$
