
 OpenBabel03272508053D

 36 39  0  0  0  0  0  0  0  0999 V2000
   38.8940   30.9110   45.7780 C   0  0  0  0  0  0  0  0  0  0  0  0
   40.0630   31.6040   46.0150 C   0  0  0  0  0  0  0  0  0  0  0  0
   40.9050   31.5460   44.9200 C   0  0  0  0  0  0  0  0  0  0  0  0
   40.2010   30.8010   44.0390 N   0  0  0  0  0  0  0  0  0  0  0  0
   39.0310   30.4300   44.5340 N   0  0  0  0  0  0  0  0  0  0  0  0
   40.3120   32.1370   46.9350 H   0  0  0  0  0  0  0  0  0  0  0  0
   41.8870   31.9600   44.7360 H   0  0  0  0  0  0  0  0  0  0  0  0
   37.7840   30.7560   46.6950 C   0  0  0  0  0  0  0  0  0  0  0  0
   38.0000   30.9720   48.0720 C   0  0  0  0  0  0  0  0  0  0  0  0
   36.9220   30.8210   48.9370 C   0  0  0  0  0  0  0  0  0  0  0  0
   35.7160   30.4710   48.4000 N   0  0  0  0  0  0  0  0  0  0  0  0
   35.5280   30.2680   47.0740 C   0  0  0  0  0  0  0  0  0  0  0  0
   36.5760   30.4150   46.2350 N   0  0  0  0  0  0  0  0  0  0  0  0
   39.0000   31.2490   48.4080 H   0  0  0  0  0  0  0  0  0  0  0  0
   34.5500   29.9910   46.6960 H   0  0  0  0  0  0  0  0  0  0  0  0
   37.1240   31.0430   50.3910 C   0  0  0  0  0  0  0  0  0  0  0  0
   36.6070   32.2870   50.6560 F   0  0  0  0  0  0  0  0  0  0  0  0
   36.4600   30.1110   51.1740 F   0  0  0  0  0  0  0  0  0  0  0  0
   38.4790   31.0610   50.7250 F   0  0  0  0  0  0  0  0  0  0  0  0
   40.5880   30.4010   42.6780 C   0  0  0  0  0  0  0  0  0  0  0  0
   40.2220   31.1590   41.5540 C   0  0  0  0  0  0  0  0  0  0  0  0
   40.5970   30.7550   40.3340 C   0  0  0  0  0  0  0  0  0  0  0  0
   41.3630   29.5620   40.1910 C   0  0  0  0  0  0  0  0  0  0  0  0
   41.5280   29.0220   41.9600 S   0  0  0  0  0  0  0  0  0  0  0  0
   39.6380   32.0740   41.6300 H   0  0  0  0  0  0  0  0  0  0  0  0
   40.4190   31.1920   39.3650 H   0  0  0  0  0  0  0  0  0  0  0  0
   41.9170   28.8460   39.1650 N   0  0  0  0  0  0  0  0  0  0  0  0
   43.0990   29.1160   38.6380 C   0  0  0  0  0  3  0  0  0  0  0  0
   43.5750   28.3250   37.5940 C   0  0  0  0  0  3  0  0  0  0  0  0
   42.8070   27.2770   37.1280 C   0  0  0  0  0  0  0  0  0  0  0  0
   43.1870   26.3970   36.0630 N   0  0  0  0  0  0  0  0  0  0  0  0
   41.5920   27.0220   37.6890 N   0  0  0  0  0  0  0  0  0  0  0  0
   41.1530   27.8120   38.7100 C   0  0  0  0  0  0  0  0  0  0  0  0
   40.0240   27.5110   39.1730 O   0  0  0  0  0  0  0  0  0  0  0  0
   42.4570   26.0500   35.3980 H   0  0  0  0  0  0  0  0  0  0  0  0
   44.2140   26.2140   36.1070 H   0  0  0  0  0  0  0  0  0  0  0  0
  1  2  1  0  0  0  0
  1  8  1  0  0  0  0
  2  6  1  0  0  0  0
  3  2  2  0  0  0  0
  4  5  1  0  0  0  0
  4  3  1  0  0  0  0
  5  1  2  0  0  0  0
  7  3  1  0  0  0  0
  8  9  1  0  0  0  0
  9 14  1  0  0  0  0
  9 10  2  0  0  0  0
 10 16  1  0  0  0  0
 11 10  1  0  0  0  0
 12 11  2  0  0  0  0
 13  8  2  0  0  0  0
 13 12  1  0  0  0  0
 15 12  1  0  0  0  0
 16 17  1  0  0  0  0
 16 19  1  0  0  0  0
 16 18  1  0  0  0  0
 20  4  1  0  0  0  0
 21 25  1  0  0  0  0
 21 20  2  0  0  0  0
 22 21  1  0  0  0  0
 23 22  2  0  0  0  0
 23 24  1  0  0  0  0
 24 20  1  0  0  0  0
 26 22  1  0  0  0  0
 27 23  1  0  0  0  0
 28 27  1  0  0  0  0
 29 28  2  0  0  0  0
 30 29  1  0  0  0  0
 30 32  2  0  0  0  0
 31 36  1  0  0  0  0
 31 30  1  0  0  0  0
 32 33  1  0  0  0  0
 33 27  1  0  0  0  0
 33 34  2  0  0  0  0
 35 31  1  0  0  0  0
M  END
>  <minimizedAffinity>
-6.42572832

>  <minimizedRMSD>
0.368629932

$$$$
