
 OpenBabel03272504333D

 41 44  0  0  0  0  0  0  0  0999 V2000
   34.8780   29.5090   47.5320 C   0  0  0  0  0  0  0  0  0  0  0  0
   35.0060   29.9110   46.2050 C   0  0  0  0  0  0  0  0  0  0  0  0
   33.9630   29.7380   45.3230 C   0  0  0  0  0  0  0  0  0  0  0  0
   32.8180   29.1630   45.8040 N   0  0  0  0  0  0  0  0  0  0  0  0
   32.7220   28.7830   47.0950 C   0  0  0  0  0  0  0  0  0  0  0  0
   33.7440   28.9500   47.9660 N   0  0  0  0  0  0  0  0  0  0  0  0
   35.9350   30.3590   45.8810 H   0  0  0  0  0  0  0  0  0  0  0  0
   34.0320   30.0410   44.2800 H   0  0  0  0  0  0  0  0  0  0  0  0
   31.4780   28.1730   47.5740 C   0  0  0  0  0  0  0  0  0  0  0  0
   31.3950   27.6210   48.8200 C   0  0  0  0  0  0  0  0  0  0  0  0
   30.2390   27.0360   49.3140 C   0  0  0  0  0  0  0  0  0  0  0  0
   29.1830   27.0450   48.4710 N   0  0  0  0  0  0  0  0  0  0  0  0
   29.2540   27.5820   47.2470 C   0  0  0  0  0  0  0  0  0  0  0  0
   30.3970   28.1480   46.7900 N   0  0  0  0  0  0  0  0  0  0  0  0
   32.2440   27.6180   49.4910 H   0  0  0  0  0  0  0  0  0  0  0  0
   30.1790   26.6010   50.3010 H   0  0  0  0  0  0  0  0  0  0  0  0
   28.1880   27.6320   46.3020 N   0  0  0  0  0  0  0  0  0  0  0  0
   28.3410   26.8660   45.2070 C   0  0  0  0  0  0  0  0  0  0  0  0
   27.3040   26.9170   44.2950 C   0  0  0  0  0  0  0  0  0  0  0  0
   26.2280   27.7310   44.5820 C   0  0  0  0  0  0  0  0  0  0  0  0
   25.1310   27.8260   43.6850 N   0  0  0  0  0  0  0  0  0  0  0  0
   26.1500   28.4800   45.7200 N   0  0  0  0  0  0  0  0  0  0  0  0
   27.1540   28.4350   46.6120 C   0  0  0  0  0  0  0  0  0  0  0  0
   27.1550   29.0980   47.6860 O   0  0  0  0  0  0  0  0  0  0  0  0
   24.6140   28.1850   42.8520 H   0  0  0  0  0  0  0  0  0  0  0  0
   25.4250   28.5430   42.9560 H   0  0  0  0  0  0  0  0  0  0  0  0
   35.9290   29.6640   48.4950 N   0  0  0  0  0  0  0  0  0  0  0  0
   36.0330   28.8290   49.6700 C   0  0  0  0  0  0  0  0  0  0  0  0
   36.3340   29.5650   50.9440 C   0  0  0  0  0  0  0  0  0  0  0  0
   37.0750   30.7570   50.8450 N   0  0  0  0  0  0  0  0  0  0  0  0
   36.7660   31.5360   49.6500 C   0  0  0  0  0  0  0  0  0  0  0  0
   36.9850   30.6020   48.4710 C   0  0  0  0  0  0  0  0  0  0  0  0
   35.1200   28.2130   49.8260 H   0  0  0  0  0  0  0  0  0  0  0  0
   36.8700   28.0960   49.4760 H   0  0  0  0  0  0  0  0  0  0  0  0
   36.8680   28.8440   51.6030 H   0  0  0  0  0  0  0  0  0  0  0  0
   35.3680   29.7610   51.4790 H   0  0  0  0  0  0  0  0  0  0  0  0
   36.8040   31.3870   51.6600 H   0  0  0  0  0  0  0  0  0  0  0  0
   35.7120   31.8610   49.7450 H   0  0  0  0  0  0  0  0  0  0  0  0
   37.4440   32.4060   49.6170 H   0  0  0  0  0  0  0  0  0  0  0  0
   36.9610   31.2150   47.5610 H   0  0  0  0  0  0  0  0  0  0  0  0
   37.9970   30.1610   48.6000 H   0  0  0  0  0  0  0  0  0  0  0  0
  1  6  1  0  0  0  0
  1 27  1  0  0  0  0
  2  1  2  0  0  0  0
  3  4  2  0  0  0  0
  3  2  1  0  0  0  0
  4  5  1  0  0  0  0
  5  9  1  0  0  0  0
  5  6  2  0  0  0  0
  7  2  1  0  0  0  0
  8  3  1  0  0  0  0
  9 10  1  0  0  0  0
 10 11  2  0  0  0  0
 10 15  1  0  0  0  0
 11 16  1  0  0  0  0
 12 11  1  0  0  0  0
 13 12  2  0  0  0  0
 14 13  1  0  0  0  0
 14  9  2  0  0  0  0
 17 23  1  0  0  0  0
 17 13  1  0  0  0  0
 18 17  1  0  0  0  0
 19 20  1  0  0  0  0
 19 18  2  0  0  0  0
 20 22  2  0  0  0  0
 21 20  1  0  0  0  0
 22 23  1  0  0  0  0
 23 24  2  0  0  0  0
 25 21  1  0  0  0  0
 26 21  1  0  0  0  0
 27 28  1  0  0  0  0
 28 33  1  0  0  0  0
 28 29  1  0  0  0  0
 29 36  1  0  0  0  0
 29 35  1  0  0  0  0
 30 29  1  0  0  0  0
 30 37  1  0  0  0  0
 31 38  1  0  0  0  0
 31 30  1  0  0  0  0
 32 27  1  0  0  0  0
 32 41  1  0  0  0  0
 32 31  1  0  0  0  0
 34 28  1  0  0  0  0
 39 31  1  0  0  0  0
 40 32  1  0  0  0  0
M  END
>  <minimizedAffinity>
-6.0121913

>  <minimizedRMSD>
0.861890912

$$$$
