
 OpenBabel03272506273D

 43 46  0  0  0  0  0  0  0  0999 V2000
   35.5580   30.0650   44.8860 C   0  0  0  0  0  0  0  0  0  0  0  0
   36.2440   30.1030   46.0900 C   0  0  0  0  0  0  0  0  0  0  0  0
   35.6390   30.2340   47.3380 C   0  0  0  0  0  0  0  0  0  0  0  0
   34.2320   30.3380   47.3850 C   0  0  0  0  0  0  0  0  0  0  0  0
   33.5680   30.2990   46.1770 C   0  0  0  0  0  0  0  0  0  0  0  0
   34.1710   30.1690   44.9620 C   0  0  0  0  0  0  0  0  0  0  0  0
   37.3430   30.0240   46.0870 H   0  0  0  0  0  0  0  0  0  0  0  0
   36.2870   30.2500   48.2120 H   0  0  0  0  0  0  0  0  0  0  0  0
   33.8810   30.4340   48.3880 H   0  0  0  0  0  0  0  0  0  0  0  0
   32.5450   30.4000   46.4250 H   0  0  0  0  0  0  0  0  0  0  0  0
   36.5960   28.6130   43.2580 C   0  0  0  0  0  0  0  0  0  0  0  0
   36.3490   29.9280   43.6970 C   0  0  0  0  0  0  0  0  0  0  0  0
   36.8840   30.9860   42.9550 C   0  0  0  0  0  0  0  0  0  0  0  0
   37.6180   30.6950   41.8470 N   0  0  0  0  0  0  0  0  0  0  0  0
   37.8450   29.4170   41.4380 C   0  0  0  0  0  0  0  0  0  0  0  0
   37.3320   28.3770   42.1490 N   0  0  0  0  0  0  0  0  0  0  0  0
   36.1960   27.7770   43.8090 H   0  0  0  0  0  0  0  0  0  0  0  0
   38.4330   29.2210   40.5520 H   0  0  0  0  0  0  0  0  0  0  0  0
   36.7060   32.4170   43.3010 C   0  0  0  0  0  0  0  0  0  0  0  0
   37.4230   33.2130   42.3840 F   0  0  0  0  0  0  0  0  0  0  0  0
   35.4360   32.8610   43.3510 F   0  0  0  0  0  0  0  0  0  0  0  0
   37.3250   32.6900   44.5230 F   0  0  0  0  0  0  0  0  0  0  0  0
   33.3060   30.1160   43.4380 S   0  0  0  0  0  0  0  0  0  0  0  0
   31.5890   27.5340   43.2430 Cl  0  0  0  0  0  0  0  0  0  0  0  0
   30.8370   29.0860   43.5280 C   0  0  0  0  0  0  0  0  0  0  0  0
   31.5500   30.2760   43.6090 C   0  0  0  0  0  0  0  0  0  0  0  0
   30.9040   31.4580   43.8210 C   0  0  0  0  0  0  0  0  0  0  0  0
   29.5350   31.4630   43.9580 C   0  0  0  0  0  0  0  0  0  0  0  0
   28.8090   30.2760   43.8780 C   0  0  0  0  0  0  0  0  0  0  0  0
   29.4480   29.0640   43.6600 C   0  0  0  0  0  0  0  0  0  0  0  0
   31.3520   32.4150   43.8620 H   0  0  0  0  0  0  0  0  0  0  0  0
   28.9380   32.3490   44.1300 H   0  0  0  0  0  0  0  0  0  0  0  0
   27.7400   30.2740   43.9840 H   0  0  0  0  0  0  0  0  0  0  0  0
   28.7030   27.8480   43.5770 N   0  0  0  0  0  0  0  0  0  0  0  0
   28.4930   27.1050   44.6810 C   0  0  0  0  0  3  0  0  0  0  0  0
   27.7600   25.9540   44.4680 C   0  0  0  0  0  3  0  0  0  0  0  0
   27.2660   25.5650   43.2360 C   0  0  0  0  0  0  0  0  0  0  0  0
   26.5140   24.3710   43.0560 N   0  0  0  0  0  0  0  0  0  0  0  0
   27.5380   26.3870   42.1990 N   0  0  0  0  0  0  0  0  0  0  0  0
   28.2550   27.5330   42.3480 C   0  0  0  0  0  0  0  0  0  0  0  0
   28.4490   28.2210   41.3260 O   0  0  0  0  0  0  0  0  0  0  0  0
   25.5640   24.8210   43.1020 H   0  0  0  0  0  0  0  0  0  0  0  0
   26.7240   23.3790   42.9200 H   0  0  0  0  0  0  0  0  0  0  0  0
  1  6  2  0  0  0  0
  1  2  1  0  0  0  0
  2  3  2  0  0  0  0
  3  4  1  0  0  0  0
  3  8  1  0  0  0  0
  4  9  1  0  0  0  0
  5 10  1  0  0  0  0
  5  4  2  0  0  0  0
  6  5  1  0  0  0  0
  7  2  1  0  0  0  0
 11 12  1  0  0  0  0
 11 17  1  0  0  0  0
 12  1  1  0  0  0  0
 13 19  1  0  0  0  0
 13 12  2  0  0  0  0
 14 13  1  0  0  0  0
 15 14  2  0  0  0  0
 15 16  1  0  0  0  0
 16 11  2  0  0  0  0
 18 15  1  0  0  0  0
 19 21  1  0  0  0  0
 19 22  1  0  0  0  0
 20 19  1  0  0  0  0
 23 26  1  0  0  0  0
 23  6  1  0  0  0  0
 24 25  1  0  0  0  0
 25 26  2  0  0  0  0
 25 30  1  0  0  0  0
 26 27  1  0  0  0  0
 27 31  1  0  0  0  0
 27 28  2  0  0  0  0
 28 32  1  0  0  0  0
 29 28  1  0  0  0  0
 29 33  1  0  0  0  0
 30 29  2  0  0  0  0
 34 30  1  0  0  0  0
 34 35  1  0  0  0  0
 36 35  2  0  0  0  0
 37 36  1  0  0  0  0
 38 42  1  0  0  0  0
 38 37  1  0  0  0  0
 39 40  1  0  0  0  0
 39 37  2  0  0  0  0
 40 34  1  0  0  0  0
 41 40  2  0  0  0  0
 43 38  1  0  0  0  0
M  END
>  <minimizedAffinity>
-3.69767284

>  <minimizedRMSD>
9.60237217

$$$$
