
 OpenBabel03272504333D

 41 44  0  0  0  0  0  0  0  0999 V2000
   34.9480   29.5390   47.5590 C   0  0  0  0  0  0  0  0  0  0  0  0
   35.0890   29.9390   46.2330 C   0  0  0  0  0  0  0  0  0  0  0  0
   34.0510   29.7720   45.3430 C   0  0  0  0  0  0  0  0  0  0  0  0
   32.9000   29.2050   45.8160 N   0  0  0  0  0  0  0  0  0  0  0  0
   32.7910   28.8260   47.1070 C   0  0  0  0  0  0  0  0  0  0  0  0
   33.8080   28.9880   47.9860 N   0  0  0  0  0  0  0  0  0  0  0  0
   36.0220   30.3820   45.9140 H   0  0  0  0  0  0  0  0  0  0  0  0
   34.1300   30.0740   44.3010 H   0  0  0  0  0  0  0  0  0  0  0  0
   31.5410   28.2250   47.5770 C   0  0  0  0  0  0  0  0  0  0  0  0
   31.4560   27.6400   48.8090 C   0  0  0  0  0  0  0  0  0  0  0  0
   30.2930   27.0600   49.2930 C   0  0  0  0  0  0  0  0  0  0  0  0
   29.2320   27.1100   48.4580 N   0  0  0  0  0  0  0  0  0  0  0  0
   29.3040   27.6800   47.2500 C   0  0  0  0  0  0  0  0  0  0  0  0
   30.4540   28.2390   46.8010 N   0  0  0  0  0  0  0  0  0  0  0  0
   32.3090   27.6030   49.4730 H   0  0  0  0  0  0  0  0  0  0  0  0
   30.2320   26.6000   50.2690 H   0  0  0  0  0  0  0  0  0  0  0  0
   28.2340   27.7740   46.3140 N   0  0  0  0  0  0  0  0  0  0  0  0
   28.2020   26.8230   45.3630 C   0  0  0  0  0  3  0  0  0  0  0  0
   27.1620   26.9170   44.4590 C   0  0  0  0  0  3  0  0  0  0  0  0
   26.2670   27.9570   44.6080 C   0  0  0  0  0  0  0  0  0  0  0  0
   25.1760   28.1080   43.7120 N   0  0  0  0  0  0  0  0  0  0  0  0
   26.3700   28.8840   45.6050 N   0  0  0  0  0  0  0  0  0  0  0  0
   27.3790   28.7980   46.4870 C   0  0  0  0  0  0  0  0  0  0  0  0
   27.5410   29.6160   47.4350 O   0  0  0  0  0  0  0  0  0  0  0  0
   24.7050   28.4160   42.8330 H   0  0  0  0  0  0  0  0  0  0  0  0
   25.5710   28.6260   42.8720 H   0  0  0  0  0  0  0  0  0  0  0  0
   35.9930   29.6890   48.5290 N   0  0  0  0  0  0  0  0  0  0  0  0
   36.0950   28.8430   49.6960 C   0  0  0  0  0  0  0  0  0  0  0  0
   36.3860   29.5670   50.9800 C   0  0  0  0  0  0  0  0  0  0  0  0
   37.1220   30.7630   50.8970 N   0  0  0  0  0  0  0  0  0  0  0  0
   36.8160   31.5530   49.7080 C   0  0  0  0  0  0  0  0  0  0  0  0
   37.0460   30.6320   48.5210 C   0  0  0  0  0  0  0  0  0  0  0  0
   35.1830   28.2210   49.8410 H   0  0  0  0  0  0  0  0  0  0  0  0
   36.9360   28.1150   49.4990 H   0  0  0  0  0  0  0  0  0  0  0  0
   36.9180   28.8410   51.6340 H   0  0  0  0  0  0  0  0  0  0  0  0
   35.4160   29.7540   51.5110 H   0  0  0  0  0  0  0  0  0  0  0  0
   36.8440   31.3840   51.7170 H   0  0  0  0  0  0  0  0  0  0  0  0
   35.7600   31.8730   49.8010 H   0  0  0  0  0  0  0  0  0  0  0  0
   37.4910   32.4260   49.6880 H   0  0  0  0  0  0  0  0  0  0  0  0
   37.0240   31.2540   47.6170 H   0  0  0  0  0  0  0  0  0  0  0  0
   38.0590   30.1940   48.6510 H   0  0  0  0  0  0  0  0  0  0  0  0
  1  6  1  0  0  0  0
  1 27  1  0  0  0  0
  2  1  2  0  0  0  0
  3  4  2  0  0  0  0
  3  2  1  0  0  0  0
  4  5  1  0  0  0  0
  5  9  1  0  0  0  0
  5  6  2  0  0  0  0
  7  2  1  0  0  0  0
  8  3  1  0  0  0  0
  9 10  1  0  0  0  0
 10 11  2  0  0  0  0
 10 15  1  0  0  0  0
 11 16  1  0  0  0  0
 12 11  1  0  0  0  0
 13 12  2  0  0  0  0
 14 13  1  0  0  0  0
 14  9  2  0  0  0  0
 17 23  1  0  0  0  0
 17 13  1  0  0  0  0
 18 17  1  0  0  0  0
 19 20  1  0  0  0  0
 19 18  2  0  0  0  0
 20 22  2  0  0  0  0
 21 20  1  0  0  0  0
 22 23  1  0  0  0  0
 23 24  2  0  0  0  0
 25 21  1  0  0  0  0
 26 21  1  0  0  0  0
 27 28  1  0  0  0  0
 28 33  1  0  0  0  0
 28 29  1  0  0  0  0
 29 36  1  0  0  0  0
 29 35  1  0  0  0  0
 30 29  1  0  0  0  0
 30 37  1  0  0  0  0
 31 38  1  0  0  0  0
 31 30  1  0  0  0  0
 32 27  1  0  0  0  0
 32 41  1  0  0  0  0
 32 31  1  0  0  0  0
 34 28  1  0  0  0  0
 39 31  1  0  0  0  0
 40 32  1  0  0  0  0
M  END
>  <minimizedAffinity>
-5.96553564

>  <minimizedRMSD>
0.752498746

$$$$
