
 OpenBabel03272508053D

 36 39  0  0  0  0  0  0  0  0999 V2000
   38.8950   30.9090   45.7790 C   0  0  0  0  0  0  0  0  0  0  0  0
   40.0650   31.6010   46.0160 C   0  0  0  0  0  0  0  0  0  0  0  0
   40.9070   31.5420   44.9220 C   0  0  0  0  0  0  0  0  0  0  0  0
   40.2010   30.8000   44.0400 N   0  0  0  0  0  0  0  0  0  0  0  0
   39.0310   30.4300   44.5340 N   0  0  0  0  0  0  0  0  0  0  0  0
   40.3150   32.1320   46.9370 H   0  0  0  0  0  0  0  0  0  0  0  0
   41.8900   31.9550   44.7380 H   0  0  0  0  0  0  0  0  0  0  0  0
   37.7840   30.7550   46.6950 C   0  0  0  0  0  0  0  0  0  0  0  0
   38.0000   30.9720   48.0730 C   0  0  0  0  0  0  0  0  0  0  0  0
   36.9220   30.8200   48.9370 C   0  0  0  0  0  0  0  0  0  0  0  0
   35.7150   30.4720   48.4000 N   0  0  0  0  0  0  0  0  0  0  0  0
   35.5280   30.2680   47.0740 C   0  0  0  0  0  0  0  0  0  0  0  0
   36.5760   30.4150   46.2340 N   0  0  0  0  0  0  0  0  0  0  0  0
   39.0000   31.2480   48.4080 H   0  0  0  0  0  0  0  0  0  0  0  0
   34.5500   29.9920   46.6950 H   0  0  0  0  0  0  0  0  0  0  0  0
   37.1230   31.0430   50.3910 C   0  0  0  0  0  0  0  0  0  0  0  0
   36.6070   32.2870   50.6550 F   0  0  0  0  0  0  0  0  0  0  0  0
   36.4580   30.1110   51.1740 F   0  0  0  0  0  0  0  0  0  0  0  0
   38.4780   31.0600   50.7250 F   0  0  0  0  0  0  0  0  0  0  0  0
   40.5880   30.4000   42.6780 C   0  0  0  0  0  0  0  0  0  0  0  0
   40.2210   31.1590   41.5550 C   0  0  0  0  0  0  0  0  0  0  0  0
   40.5960   30.7570   40.3340 C   0  0  0  0  0  0  0  0  0  0  0  0
   41.3630   29.5640   40.1900 C   0  0  0  0  0  0  0  0  0  0  0  0
   41.5290   29.0230   41.9580 S   0  0  0  0  0  0  0  0  0  0  0  0
   39.6370   32.0730   41.6320 H   0  0  0  0  0  0  0  0  0  0  0  0
   40.4170   31.1930   39.3650 H   0  0  0  0  0  0  0  0  0  0  0  0
   41.9170   28.8490   39.1630 N   0  0  0  0  0  0  0  0  0  0  0  0
   43.0990   29.1200   38.6360 C   0  0  0  0  0  3  0  0  0  0  0  0
   43.5740   28.3310   37.5910 C   0  0  0  0  0  3  0  0  0  0  0  0
   42.8070   27.2830   37.1240 C   0  0  0  0  0  0  0  0  0  0  0  0
   43.1870   26.4040   36.0590 N   0  0  0  0  0  0  0  0  0  0  0  0
   41.5920   27.0260   37.6850 N   0  0  0  0  0  0  0  0  0  0  0  0
   41.1530   27.8160   38.7060 C   0  0  0  0  0  0  0  0  0  0  0  0
   40.0230   27.5140   39.1700 O   0  0  0  0  0  0  0  0  0  0  0  0
   42.4570   26.0580   35.3930 H   0  0  0  0  0  0  0  0  0  0  0  0
   44.2140   26.2220   36.1020 H   0  0  0  0  0  0  0  0  0  0  0  0
  1  2  1  0  0  0  0
  1  8  1  0  0  0  0
  2  6  1  0  0  0  0
  3  2  2  0  0  0  0
  4  5  1  0  0  0  0
  4  3  1  0  0  0  0
  5  1  2  0  0  0  0
  7  3  1  0  0  0  0
  8  9  1  0  0  0  0
  9 14  1  0  0  0  0
  9 10  2  0  0  0  0
 10 16  1  0  0  0  0
 11 10  1  0  0  0  0
 12 11  2  0  0  0  0
 13  8  2  0  0  0  0
 13 12  1  0  0  0  0
 15 12  1  0  0  0  0
 16 17  1  0  0  0  0
 16 19  1  0  0  0  0
 16 18  1  0  0  0  0
 20  4  1  0  0  0  0
 21 25  1  0  0  0  0
 21 20  2  0  0  0  0
 22 21  1  0  0  0  0
 23 22  2  0  0  0  0
 23 24  1  0  0  0  0
 24 20  1  0  0  0  0
 26 22  1  0  0  0  0
 27 23  1  0  0  0  0
 28 27  1  0  0  0  0
 29 28  2  0  0  0  0
 30 29  1  0  0  0  0
 30 32  2  0  0  0  0
 31 36  1  0  0  0  0
 31 30  1  0  0  0  0
 32 33  1  0  0  0  0
 33 27  1  0  0  0  0
 33 34  2  0  0  0  0
 35 31  1  0  0  0  0
M  END
>  <minimizedAffinity>
-6.42558384

>  <minimizedRMSD>
0.488874674

$$$$
