
 OpenBabel03272504333D

 41 44  0  0  0  0  0  0  0  0999 V2000
   35.3140   29.5900   47.7010 C   0  0  0  0  0  0  0  0  0  0  0  0
   35.5260   30.0860   46.4180 C   0  0  0  0  0  0  0  0  0  0  0  0
   34.5300   30.0110   45.4700 C   0  0  0  0  0  0  0  0  0  0  0  0
   33.3460   29.4360   45.8430 N   0  0  0  0  0  0  0  0  0  0  0  0
   33.1680   28.9620   47.0950 C   0  0  0  0  0  0  0  0  0  0  0  0
   34.1440   29.0340   48.0300 N   0  0  0  0  0  0  0  0  0  0  0  0
   36.4830   30.5310   46.1790 H   0  0  0  0  0  0  0  0  0  0  0  0
   34.6650   30.3900   44.4590 H   0  0  0  0  0  0  0  0  0  0  0  0
   31.8850   28.3550   47.4580 C   0  0  0  0  0  0  0  0  0  0  0  0
   31.7610   27.5790   48.5750 C   0  0  0  0  0  0  0  0  0  0  0  0
   30.5660   26.9870   48.9560 C   0  0  0  0  0  0  0  0  0  0  0  0
   29.5160   27.2280   48.1400 N   0  0  0  0  0  0  0  0  0  0  0  0
   29.6280   27.9860   47.0430 C   0  0  0  0  0  0  0  0  0  0  0  0
   30.8070   28.5530   46.6940 N   0  0  0  0  0  0  0  0  0  0  0  0
   32.6050   27.3900   49.2240 H   0  0  0  0  0  0  0  0  0  0  0  0
   30.4740   26.3750   49.8410 H   0  0  0  0  0  0  0  0  0  0  0  0
   28.5710   28.2880   46.1350 N   0  0  0  0  0  0  0  0  0  0  0  0
   27.3410   27.9030   46.5190 C   0  0  0  0  0  3  0  0  0  0  0  0
   26.3210   28.2000   45.6360 C   0  0  0  0  0  3  0  0  0  0  0  0
   26.6480   28.8480   44.4630 C   0  0  0  0  0  0  0  0  0  0  0  0
   25.6450   29.1800   43.5140 N   0  0  0  0  0  0  0  0  0  0  0  0
   27.9280   29.2040   44.1460 N   0  0  0  0  0  0  0  0  0  0  0  0
   28.9240   28.9200   45.0010 C   0  0  0  0  0  0  0  0  0  0  0  0
   30.1320   29.2170   44.7800 O   0  0  0  0  0  0  0  0  0  0  0  0
   24.9980   29.0020   42.7150 H   0  0  0  0  0  0  0  0  0  0  0  0
   25.5010   28.3000   42.9370 H   0  0  0  0  0  0  0  0  0  0  0  0
   36.3130   29.6410   48.7270 N   0  0  0  0  0  0  0  0  0  0  0  0
   36.2140   28.8700   49.9450 C   0  0  0  0  0  0  0  0  0  0  0  0
   36.5430   29.6240   51.2020 C   0  0  0  0  0  0  0  0  0  0  0  0
   37.4630   30.6850   51.1000 N   0  0  0  0  0  0  0  0  0  0  0  0
   37.3520   31.4310   49.8500 C   0  0  0  0  0  0  0  0  0  0  0  0
   37.5000   30.4090   48.7350 C   0  0  0  0  0  0  0  0  0  0  0  0
   35.2100   28.4060   50.0650 H   0  0  0  0  0  0  0  0  0  0  0  0
   36.9400   28.0090   49.8460 H   0  0  0  0  0  0  0  0  0  0  0  0
   36.9170   28.8700   51.9300 H   0  0  0  0  0  0  0  0  0  0  0  0
   35.5870   29.9930   51.6560 H   0  0  0  0  0  0  0  0  0  0  0  0
   37.2400   31.3940   51.8620 H   0  0  0  0  0  0  0  0  0  0  0  0
   36.3560   31.9150   49.8540 H   0  0  0  0  0  0  0  0  0  0  0  0
   38.1560   32.1870   49.8240 H   0  0  0  0  0  0  0  0  0  0  0  0
   37.6280   30.9650   47.7970 H   0  0  0  0  0  0  0  0  0  0  0  0
   38.4230   29.8300   48.9560 H   0  0  0  0  0  0  0  0  0  0  0  0
  1  6  1  0  0  0  0
  1 27  1  0  0  0  0
  2  1  2  0  0  0  0
  3  4  2  0  0  0  0
  3  2  1  0  0  0  0
  4  5  1  0  0  0  0
  5  9  1  0  0  0  0
  5  6  2  0  0  0  0
  7  2  1  0  0  0  0
  8  3  1  0  0  0  0
  9 10  1  0  0  0  0
 10 11  2  0  0  0  0
 10 15  1  0  0  0  0
 11 16  1  0  0  0  0
 12 11  1  0  0  0  0
 13 12  2  0  0  0  0
 14 13  1  0  0  0  0
 14  9  2  0  0  0  0
 17 18  1  0  0  0  0
 17 13  1  0  0  0  0
 19 18  2  0  0  0  0
 20 19  1  0  0  0  0
 21 20  1  0  0  0  0
 22 20  2  0  0  0  0
 22 23  1  0  0  0  0
 23 17  1  0  0  0  0
 24 23  2  0  0  0  0
 25 21  1  0  0  0  0
 26 21  1  0  0  0  0
 27 32  1  0  0  0  0
 27 28  1  0  0  0  0
 28 33  1  0  0  0  0
 28 29  1  0  0  0  0
 29 36  1  0  0  0  0
 29 35  1  0  0  0  0
 30 29  1  0  0  0  0
 30 37  1  0  0  0  0
 31 38  1  0  0  0  0
 31 30  1  0  0  0  0
 32 41  1  0  0  0  0
 32 31  1  0  0  0  0
 34 28  1  0  0  0  0
 39 31  1  0  0  0  0
 40 32  1  0  0  0  0
M  END
>  <minimizedAffinity>
-5.73599672

>  <minimizedRMSD>
0.519197106

$$$$
