
 OpenBabel03272504333D

 41 44  0  0  0  0  0  0  0  0999 V2000
   35.2090   29.5560   47.6670 C   0  0  0  0  0  0  0  0  0  0  0  0
   35.4430   30.0340   46.3800 C   0  0  0  0  0  0  0  0  0  0  0  0
   34.4550   29.9670   45.4240 C   0  0  0  0  0  0  0  0  0  0  0  0
   33.2570   29.4190   45.7910 N   0  0  0  0  0  0  0  0  0  0  0  0
   33.0570   28.9630   47.0460 C   0  0  0  0  0  0  0  0  0  0  0  0
   34.0250   29.0260   47.9890 N   0  0  0  0  0  0  0  0  0  0  0  0
   36.4100   30.4580   46.1460 H   0  0  0  0  0  0  0  0  0  0  0  0
   34.6070   30.3320   44.4090 H   0  0  0  0  0  0  0  0  0  0  0  0
   31.7590   28.3850   47.4020 C   0  0  0  0  0  0  0  0  0  0  0  0
   31.6060   27.6330   48.5320 C   0  0  0  0  0  0  0  0  0  0  0  0
   30.3960   27.0690   48.9080 C   0  0  0  0  0  0  0  0  0  0  0  0
   29.3620   27.3110   48.0730 N   0  0  0  0  0  0  0  0  0  0  0  0
   29.5020   28.0450   46.9630 C   0  0  0  0  0  0  0  0  0  0  0  0
   30.6950   28.5860   46.6190 N   0  0  0  0  0  0  0  0  0  0  0  0
   32.4380   27.4430   49.1970 H   0  0  0  0  0  0  0  0  0  0  0  0
   30.2820   26.4760   49.8040 H   0  0  0  0  0  0  0  0  0  0  0  0
   28.4630   28.3470   46.0350 N   0  0  0  0  0  0  0  0  0  0  0  0
   27.5670   27.3670   45.8190 C   0  0  0  0  0  3  0  0  0  0  0  0
   26.5630   27.6640   44.9190 C   0  0  0  0  0  3  0  0  0  0  0  0
   26.5670   28.9150   44.3340 C   0  0  0  0  0  0  0  0  0  0  0  0
   25.5610   29.2810   43.4010 N   0  0  0  0  0  0  0  0  0  0  0  0
   27.5160   29.8570   44.6080 N   0  0  0  0  0  0  0  0  0  0  0  0
   28.4960   29.5740   45.4830 C   0  0  0  0  0  0  0  0  0  0  0  0
   29.4090   30.3910   45.7870 O   0  0  0  0  0  0  0  0  0  0  0  0
   25.1110   29.3300   42.4600 H   0  0  0  0  0  0  0  0  0  0  0  0
   25.8860   28.8900   42.4670 H   0  0  0  0  0  0  0  0  0  0  0  0
   36.1990   29.6000   48.7020 N   0  0  0  0  0  0  0  0  0  0  0  0
   36.0790   28.8330   49.9220 C   0  0  0  0  0  0  0  0  0  0  0  0
   36.4040   29.5880   51.1790 C   0  0  0  0  0  0  0  0  0  0  0  0
   37.3370   30.6380   51.0820 N   0  0  0  0  0  0  0  0  0  0  0  0
   37.2470   31.3820   49.8290 C   0  0  0  0  0  0  0  0  0  0  0  0
   37.3940   30.3530   48.7190 C   0  0  0  0  0  0  0  0  0  0  0  0
   35.0680   28.3820   50.0340 H   0  0  0  0  0  0  0  0  0  0  0  0
   36.7960   27.9650   49.8330 H   0  0  0  0  0  0  0  0  0  0  0  0
   36.7630   28.8330   51.9130 H   0  0  0  0  0  0  0  0  0  0  0  0
   35.4480   29.9700   51.6230 H   0  0  0  0  0  0  0  0  0  0  0  0
   37.1150   31.3530   51.8400 H   0  0  0  0  0  0  0  0  0  0  0  0
   36.2570   31.8770   49.8220 H   0  0  0  0  0  0  0  0  0  0  0  0
   38.0600   32.1280   49.8080 H   0  0  0  0  0  0  0  0  0  0  0  0
   37.5370   30.9050   47.7800 H   0  0  0  0  0  0  0  0  0  0  0  0
   38.3080   29.7650   48.9510 H   0  0  0  0  0  0  0  0  0  0  0  0
  1  6  1  0  0  0  0
  1 27  1  0  0  0  0
  2  1  2  0  0  0  0
  3  4  2  0  0  0  0
  3  2  1  0  0  0  0
  4  5  1  0  0  0  0
  5  9  1  0  0  0  0
  5  6  2  0  0  0  0
  7  2  1  0  0  0  0
  8  3  1  0  0  0  0
  9 10  1  0  0  0  0
 10 11  2  0  0  0  0
 10 15  1  0  0  0  0
 11 16  1  0  0  0  0
 12 11  1  0  0  0  0
 13 12  2  0  0  0  0
 14 13  1  0  0  0  0
 14  9  2  0  0  0  0
 17 13  1  0  0  0  0
 18 17  1  0  0  0  0
 19 18  2  0  0  0  0
 20 22  2  0  0  0  0
 20 19  1  0  0  0  0
 21 20  1  0  0  0  0
 22 23  1  0  0  0  0
 23 24  2  0  0  0  0
 23 17  1  0  0  0  0
 25 21  1  0  0  0  0
 26 21  1  0  0  0  0
 27 32  1  0  0  0  0
 27 28  1  0  0  0  0
 28 33  1  0  0  0  0
 28 29  1  0  0  0  0
 29 36  1  0  0  0  0
 29 35  1  0  0  0  0
 30 29  1  0  0  0  0
 30 37  1  0  0  0  0
 31 30  1  0  0  0  0
 32 41  1  0  0  0  0
 32 31  1  0  0  0  0
 34 28  1  0  0  0  0
 38 31  1  0  0  0  0
 39 31  1  0  0  0  0
 40 32  1  0  0  0  0
M  END
>  <minimizedAffinity>
-5.6973176

>  <minimizedRMSD>
0.523287892

$$$$
