
 OpenBabel03272504333D

 41 44  0  0  0  0  0  0  0  0999 V2000
   34.8950   29.5090   47.5350 C   0  0  0  0  0  0  0  0  0  0  0  0
   35.0270   29.9060   46.2070 C   0  0  0  0  0  0  0  0  0  0  0  0
   33.9860   29.7300   45.3230 C   0  0  0  0  0  0  0  0  0  0  0  0
   32.8400   29.1590   45.8030 N   0  0  0  0  0  0  0  0  0  0  0  0
   32.7400   28.7840   47.0960 C   0  0  0  0  0  0  0  0  0  0  0  0
   33.7600   28.9530   47.9680 N   0  0  0  0  0  0  0  0  0  0  0  0
   35.9570   30.3520   45.8820 H   0  0  0  0  0  0  0  0  0  0  0  0
   34.0580   30.0290   44.2780 H   0  0  0  0  0  0  0  0  0  0  0  0
   31.4950   28.1770   47.5740 C   0  0  0  0  0  0  0  0  0  0  0  0
   31.4080   27.6290   48.8220 C   0  0  0  0  0  0  0  0  0  0  0  0
   30.2500   27.0460   49.3140 C   0  0  0  0  0  0  0  0  0  0  0  0
   29.1960   27.0530   48.4690 N   0  0  0  0  0  0  0  0  0  0  0  0
   29.2700   27.5860   47.2440 C   0  0  0  0  0  0  0  0  0  0  0  0
   30.4150   28.1500   46.7880 N   0  0  0  0  0  0  0  0  0  0  0  0
   32.2560   27.6270   49.4940 H   0  0  0  0  0  0  0  0  0  0  0  0
   30.1880   26.6150   50.3030 H   0  0  0  0  0  0  0  0  0  0  0  0
   28.2060   27.6340   46.2970 N   0  0  0  0  0  0  0  0  0  0  0  0
   27.1790   28.4430   46.6090 C   0  0  0  0  0  3  0  0  0  0  0  0
   26.1510   28.4860   45.6880 C   0  0  0  0  0  3  0  0  0  0  0  0
   26.2690   27.7120   44.5510 C   0  0  0  0  0  0  0  0  0  0  0  0
   25.2460   27.7130   43.5650 N   0  0  0  0  0  0  0  0  0  0  0  0
   27.3500   26.9140   44.3070 N   0  0  0  0  0  0  0  0  0  0  0  0
   28.3520   26.8680   45.2010 C   0  0  0  0  0  0  0  0  0  0  0  0
   29.3830   26.1560   45.0470 O   0  0  0  0  0  0  0  0  0  0  0  0
   24.3420   27.4180   43.1350 H   0  0  0  0  0  0  0  0  0  0  0  0
   24.5200   27.0180   43.9100 H   0  0  0  0  0  0  0  0  0  0  0  0
   35.9440   29.6670   48.4990 N   0  0  0  0  0  0  0  0  0  0  0  0
   36.0500   28.8310   49.6730 C   0  0  0  0  0  0  0  0  0  0  0  0
   36.3460   29.5660   50.9490 C   0  0  0  0  0  0  0  0  0  0  0  0
   37.0830   30.7620   50.8530 N   0  0  0  0  0  0  0  0  0  0  0  0
   36.7720   31.5410   49.6580 C   0  0  0  0  0  0  0  0  0  0  0  0
   36.9970   30.6100   48.4780 C   0  0  0  0  0  0  0  0  0  0  0  0
   35.1390   28.2110   49.8270 H   0  0  0  0  0  0  0  0  0  0  0  0
   36.8900   28.1010   49.4790 H   0  0  0  0  0  0  0  0  0  0  0  0
   36.8820   28.8470   51.6070 H   0  0  0  0  0  0  0  0  0  0  0  0
   35.3790   29.7590   51.4830 H   0  0  0  0  0  0  0  0  0  0  0  0
   36.8080   31.3900   51.6680 H   0  0  0  0  0  0  0  0  0  0  0  0
   35.7170   31.8620   49.7520 H   0  0  0  0  0  0  0  0  0  0  0  0
   37.4470   32.4140   49.6270 H   0  0  0  0  0  0  0  0  0  0  0  0
   36.9720   31.2240   47.5680 H   0  0  0  0  0  0  0  0  0  0  0  0
   38.0100   30.1730   48.6080 H   0  0  0  0  0  0  0  0  0  0  0  0
  1  6  1  0  0  0  0
  1 27  1  0  0  0  0
  2  1  2  0  0  0  0
  3  4  2  0  0  0  0
  3  2  1  0  0  0  0
  4  5  1  0  0  0  0
  5  9  1  0  0  0  0
  5  6  2  0  0  0  0
  7  2  1  0  0  0  0
  8  3  1  0  0  0  0
  9 10  1  0  0  0  0
 10 11  2  0  0  0  0
 10 15  1  0  0  0  0
 11 16  1  0  0  0  0
 12 11  1  0  0  0  0
 13 12  2  0  0  0  0
 14 13  1  0  0  0  0
 14  9  2  0  0  0  0
 17 18  1  0  0  0  0
 17 13  1  0  0  0  0
 19 18  2  0  0  0  0
 20 19  1  0  0  0  0
 21 26  1  0  0  0  0
 21 20  1  0  0  0  0
 22 20  2  0  0  0  0
 22 23  1  0  0  0  0
 23 17  1  0  0  0  0
 24 23  2  0  0  0  0
 25 21  1  0  0  0  0
 27 28  1  0  0  0  0
 28 33  1  0  0  0  0
 28 29  1  0  0  0  0
 29 36  1  0  0  0  0
 29 35  1  0  0  0  0
 30 29  1  0  0  0  0
 30 37  1  0  0  0  0
 31 38  1  0  0  0  0
 31 30  1  0  0  0  0
 32 27  1  0  0  0  0
 32 41  1  0  0  0  0
 32 31  1  0  0  0  0
 34 28  1  0  0  0  0
 39 31  1  0  0  0  0
 40 32  1  0  0  0  0
M  END
>  <minimizedAffinity>
-5.73065662

>  <minimizedRMSD>
0.881555438

$$$$
