
 OpenBabel03272508043D

 36 39  0  0  0  0  0  0  0  0999 V2000
   38.8970   30.8990   45.7780 C   0  0  0  0  0  0  0  0  0  0  0  0
   40.0770   31.5700   46.0240 C   0  0  0  0  0  0  0  0  0  0  0  0
   40.9180   31.5140   44.9300 C   0  0  0  0  0  0  0  0  0  0  0  0
   40.2020   30.7930   44.0370 N   0  0  0  0  0  0  0  0  0  0  0  0
   39.0270   30.4340   44.5260 N   0  0  0  0  0  0  0  0  0  0  0  0
   40.3340   32.0840   46.9520 H   0  0  0  0  0  0  0  0  0  0  0  0
   41.9070   31.9150   44.7520 H   0  0  0  0  0  0  0  0  0  0  0  0
   37.7840   30.7490   46.6910 C   0  0  0  0  0  0  0  0  0  0  0  0
   37.9960   30.9650   48.0690 C   0  0  0  0  0  0  0  0  0  0  0  0
   36.9160   30.8180   48.9310 C   0  0  0  0  0  0  0  0  0  0  0  0
   35.7100   30.4720   48.3910 N   0  0  0  0  0  0  0  0  0  0  0  0
   35.5250   30.2680   47.0650 C   0  0  0  0  0  0  0  0  0  0  0  0
   36.5760   30.4110   46.2280 N   0  0  0  0  0  0  0  0  0  0  0  0
   38.9970   31.2390   48.4070 H   0  0  0  0  0  0  0  0  0  0  0  0
   34.5470   29.9950   46.6840 H   0  0  0  0  0  0  0  0  0  0  0  0
   37.1150   31.0410   50.3850 C   0  0  0  0  0  0  0  0  0  0  0  0
   36.5990   32.2860   50.6480 F   0  0  0  0  0  0  0  0  0  0  0  0
   36.4470   30.1100   51.1670 F   0  0  0  0  0  0  0  0  0  0  0  0
   38.4690   31.0570   50.7220 F   0  0  0  0  0  0  0  0  0  0  0  0
   40.5840   30.4070   42.6710 C   0  0  0  0  0  0  0  0  0  0  0  0
   40.2180   31.1790   41.5570 C   0  0  0  0  0  0  0  0  0  0  0  0
   40.5880   30.7880   40.3310 C   0  0  0  0  0  0  0  0  0  0  0  0
   41.3490   29.5940   40.1720 C   0  0  0  0  0  0  0  0  0  0  0  0
   41.5170   29.0330   41.9340 S   0  0  0  0  0  0  0  0  0  0  0  0
   39.6380   32.0950   41.6450 H   0  0  0  0  0  0  0  0  0  0  0  0
   40.4090   31.2360   39.3670 H   0  0  0  0  0  0  0  0  0  0  0  0
   41.8970   28.8870   39.1360 N   0  0  0  0  0  0  0  0  0  0  0  0
   43.1070   29.1140   38.6530 C   0  0  0  0  0  3  0  0  0  0  0  0
   43.5730   28.3380   37.5950 C   0  0  0  0  0  3  0  0  0  0  0  0
   42.7680   27.3470   37.0680 C   0  0  0  0  0  0  0  0  0  0  0  0
   43.1360   26.4870   35.9840 N   0  0  0  0  0  0  0  0  0  0  0  0
   41.5250   27.1350   37.5850 N   0  0  0  0  0  0  0  0  0  0  0  0
   41.0960   27.9110   38.6210 C   0  0  0  0  0  0  0  0  0  0  0  0
   39.9390   27.6520   39.0410 O   0  0  0  0  0  0  0  0  0  0  0  0
   42.4100   26.2030   35.2860 H   0  0  0  0  0  0  0  0  0  0  0  0
   44.1500   26.2500   36.0500 H   0  0  0  0  0  0  0  0  0  0  0  0
  1  2  1  0  0  0  0
  1  8  1  0  0  0  0
  2  6  1  0  0  0  0
  3  2  2  0  0  0  0
  4  5  1  0  0  0  0
  4  3  1  0  0  0  0
  5  1  2  0  0  0  0
  7  3  1  0  0  0  0
  8  9  1  0  0  0  0
  9 14  1  0  0  0  0
  9 10  2  0  0  0  0
 10 16  1  0  0  0  0
 11 10  1  0  0  0  0
 12 11  2  0  0  0  0
 13  8  2  0  0  0  0
 13 12  1  0  0  0  0
 15 12  1  0  0  0  0
 16 17  1  0  0  0  0
 16 19  1  0  0  0  0
 16 18  1  0  0  0  0
 20  4  1  0  0  0  0
 21 25  1  0  0  0  0
 21 20  2  0  0  0  0
 22 21  1  0  0  0  0
 23 22  2  0  0  0  0
 23 24  1  0  0  0  0
 24 20  1  0  0  0  0
 26 22  1  0  0  0  0
 27 23  1  0  0  0  0
 28 27  1  0  0  0  0
 29 28  2  0  0  0  0
 30 32  2  0  0  0  0
 30 29  1  0  0  0  0
 31 36  1  0  0  0  0
 31 30  1  0  0  0  0
 32 33  1  0  0  0  0
 33 34  2  0  0  0  0
 33 27  1  0  0  0  0
 35 31  1  0  0  0  0
M  END
>  <minimizedAffinity>
-6.4171257

>  <minimizedRMSD>
0.744759858

$$$$
