
 OpenBabel03272504323D

 41 44  0  0  0  0  0  0  0  0999 V2000
   35.1810   29.5570   47.6670 C   0  0  0  0  0  0  0  0  0  0  0  0
   35.3800   30.0990   46.4010 C   0  0  0  0  0  0  0  0  0  0  0  0
   34.3850   30.0280   45.4510 C   0  0  0  0  0  0  0  0  0  0  0  0
   33.2170   29.4100   45.8050 N   0  0  0  0  0  0  0  0  0  0  0  0
   33.0520   28.8930   47.0400 C   0  0  0  0  0  0  0  0  0  0  0  0
   34.0260   28.9600   47.9770 N   0  0  0  0  0  0  0  0  0  0  0  0
   36.3240   30.5770   46.1760 H   0  0  0  0  0  0  0  0  0  0  0  0
   34.5100   30.4420   44.4520 H   0  0  0  0  0  0  0  0  0  0  0  0
   31.7860   28.2400   47.3830 C   0  0  0  0  0  0  0  0  0  0  0  0
   31.6630   27.4830   48.5130 C   0  0  0  0  0  0  0  0  0  0  0  0
   30.4830   26.8500   48.8750 C   0  0  0  0  0  0  0  0  0  0  0  0
   29.4470   27.0310   48.0280 N   0  0  0  0  0  0  0  0  0  0  0  0
   29.5570   27.7700   46.9180 C   0  0  0  0  0  0  0  0  0  0  0  0
   30.7210   28.3780   46.5870 N   0  0  0  0  0  0  0  0  0  0  0  0
   32.4970   27.3420   49.1880 H   0  0  0  0  0  0  0  0  0  0  0  0
   30.3920   26.2530   49.7710 H   0  0  0  0  0  0  0  0  0  0  0  0
   28.5130   28.0100   45.9770 N   0  0  0  0  0  0  0  0  0  0  0  0
   27.8790   26.9180   45.5160 C   0  0  0  0  0  3  0  0  0  0  0  0
   26.8680   27.1550   44.6040 C   0  0  0  0  0  3  0  0  0  0  0  0
   26.6050   28.4640   44.2560 C   0  0  0  0  0  0  0  0  0  0  0  0
   25.5780   28.7740   43.3250 N   0  0  0  0  0  0  0  0  0  0  0  0
   27.2990   29.5210   44.7720 N   0  0  0  0  0  0  0  0  0  0  0  0
   28.2830   29.2960   45.6580 C   0  0  0  0  0  0  0  0  0  0  0  0
   28.9680   30.2200   46.1790 O   0  0  0  0  0  0  0  0  0  0  0  0
   25.1660   28.9040   42.3740 H   0  0  0  0  0  0  0  0  0  0  0  0
   26.0210   28.6530   42.3660 H   0  0  0  0  0  0  0  0  0  0  0  0
   36.1790   29.6020   48.6950 N   0  0  0  0  0  0  0  0  0  0  0  0
   36.0700   28.8350   49.9150 C   0  0  0  0  0  0  0  0  0  0  0  0
   36.4040   29.5900   51.1700 C   0  0  0  0  0  0  0  0  0  0  0  0
   37.3330   30.6410   51.0660 N   0  0  0  0  0  0  0  0  0  0  0  0
   37.2330   31.3850   49.8150 C   0  0  0  0  0  0  0  0  0  0  0  0
   37.3730   30.3570   48.7030 C   0  0  0  0  0  0  0  0  0  0  0  0
   35.0600   28.3820   50.0350 H   0  0  0  0  0  0  0  0  0  0  0  0
   36.7870   27.9670   49.8200 H   0  0  0  0  0  0  0  0  0  0  0  0
   36.7690   28.8350   51.9020 H   0  0  0  0  0  0  0  0  0  0  0  0
   35.4500   29.9690   51.6220 H   0  0  0  0  0  0  0  0  0  0  0  0
   37.1160   31.3550   51.8270 H   0  0  0  0  0  0  0  0  0  0  0  0
   36.2420   31.8780   49.8150 H   0  0  0  0  0  0  0  0  0  0  0  0
   38.0440   32.1330   49.7880 H   0  0  0  0  0  0  0  0  0  0  0  0
   37.5080   30.9100   47.7640 H   0  0  0  0  0  0  0  0  0  0  0  0
   38.2890   29.7700   48.9280 H   0  0  0  0  0  0  0  0  0  0  0  0
  1  6  1  0  0  0  0
  1 27  1  0  0  0  0
  2  1  2  0  0  0  0
  3  4  2  0  0  0  0
  3  2  1  0  0  0  0
  4  5  1  0  0  0  0
  5  9  1  0  0  0  0
  5  6  2  0  0  0  0
  7  2  1  0  0  0  0
  8  3  1  0  0  0  0
  9 10  1  0  0  0  0
 10 11  2  0  0  0  0
 10 15  1  0  0  0  0
 11 16  1  0  0  0  0
 12 11  1  0  0  0  0
 13 12  2  0  0  0  0
 14 13  1  0  0  0  0
 14  9  2  0  0  0  0
 17 13  1  0  0  0  0
 18 17  1  0  0  0  0
 19 18  2  0  0  0  0
 20 19  1  0  0  0  0
 20 22  2  0  0  0  0
 21 20  1  0  0  0  0
 22 23  1  0  0  0  0
 23 17  1  0  0  0  0
 23 24  2  0  0  0  0
 25 21  1  0  0  0  0
 26 21  1  0  0  0  0
 27 32  1  0  0  0  0
 27 28  1  0  0  0  0
 28 33  1  0  0  0  0
 28 29  1  0  0  0  0
 29 36  1  0  0  0  0
 29 35  1  0  0  0  0
 30 29  1  0  0  0  0
 30 37  1  0  0  0  0
 31 38  1  0  0  0  0
 31 30  1  0  0  0  0
 32 41  1  0  0  0  0
 32 31  1  0  0  0  0
 34 28  1  0  0  0  0
 39 31  1  0  0  0  0
 40 32  1  0  0  0  0
M  END
>  <minimizedAffinity>
-5.59248734

>  <minimizedRMSD>
0.679290473

$$$$
