
 OpenBabel03272508253D

 19 20  0  0  1  0  0  0  0  0999 V2000
   36.0370   30.4640   49.7430 C   0  0  1  0  0  0  0  0  0  0  0  0
   36.0070   29.0280   49.4860 C   0  0  1  0  0  0  0  0  0  0  0  0
   36.5400   29.5010   50.8060 C   0  0  0  0  0  0  0  0  0  0  0  0
   35.0590   30.9730   49.9750 H   0  0  0  0  0  0  0  0  0  0  0  0
   36.7900   28.6020   48.8280 H   0  0  0  0  0  0  0  0  0  0  0  0
   37.6040   29.4750   51.0330 H   0  0  0  0  0  0  0  0  0  0  0  0
   35.8620   29.3770   51.6580 H   0  0  0  0  0  0  0  0  0  0  0  0
   37.1290   31.3240   49.1670 C   0  0  0  0  0  0  0  0  0  0  0  0
   37.3400   32.5790   49.7650 C   0  0  0  0  0  0  0  0  0  0  0  0
   38.3400   33.3710   49.2020 C   0  0  0  0  0  0  0  0  0  0  0  0
   39.0400   32.8950   48.1300 N   0  0  0  0  0  0  0  0  0  0  0  0
   38.8100   31.6790   47.5780 C   0  0  0  0  0  0  0  0  0  0  0  0
   37.8420   30.8900   48.1080 N   0  0  0  0  0  0  0  0  0  0  0  0
   36.7460   32.8870   50.6130 H   0  0  0  0  0  0  0  0  0  0  0  0
   38.5460   34.3480   49.6220 H   0  0  0  0  0  0  0  0  0  0  0  0
   39.4090   31.3800   46.7300 H   0  0  0  0  0  0  0  0  0  0  0  0
   34.7240   28.2810   49.5010 C   0  0  0  0  0  0  0  0  0  0  0  0
   34.5860   27.2300   49.2660 H   0  0  0  0  0  0  0  0  0  0  0  0
   33.7560   28.9830   49.8240 O   0  0  0  0  0  0  0  0  0  0  0  0
  1  4  1  1  0  0  0
  1  3  1  0  0  0  0
  2  5  1  6  0  0  0
  2 17  1  0  0  0  0
  2  1  1  0  0  0  0
  2  3  1  0  0  0  0
  3  6  1  0  0  0  0
  3  7  1  0  0  0  0
  8  1  1  0  0  0  0
  8  9  1  0  0  0  0
  9 14  1  0  0  0  0
 10 15  1  0  0  0  0
 10  9  2  0  0  0  0
 11 10  1  0  0  0  0
 12 13  1  0  0  0  0
 12 11  2  0  0  0  0
 13  8  2  0  0  0  0
 16 12  1  0  0  0  0
 17 19  2  0  0  0  0
 18 17  1  0  0  0  0
M  END
>  <minimizedAffinity>
-4.44564295

>  <minimizedRMSD>
0.550582349

$$$$
