
 OpenBabel03272508183D

 19 20  0  0  0  0  0  0  0  0999 V2000
   38.1470   24.8090   35.5480 C   0  0  0  0  0  0  0  0  0  0  0  0
   37.9430   23.7830   36.4740 C   0  0  0  0  0  0  0  0  0  0  0  0
   37.7930   22.5020   36.0030 C   0  0  0  0  0  0  0  0  0  0  0  0
   37.8500   22.2970   34.6750 N   0  0  0  0  0  0  0  0  0  0  0  0
   38.0460   23.2840   33.7820 C   0  0  0  0  0  0  0  0  0  0  0  0
   38.1960   24.5510   34.2170 N   0  0  0  0  0  0  0  0  0  0  0  0
   37.6280   21.6240   36.6270 H   0  0  0  0  0  0  0  0  0  0  0  0
   38.1080   23.2330   32.7080 H   0  0  0  0  0  0  0  0  0  0  0  0
   38.4040   26.1850   36.1200 C   0  0  0  0  0  0  0  0  0  0  0  0
   39.1220   27.1640   35.3340 C   0  0  0  0  0  0  0  0  0  0  0  0
   37.6220   27.2470   35.3190 C   0  0  0  0  0  0  0  0  0  0  0  0
   38.1120   26.2630   37.2110 H   0  0  0  0  0  0  0  0  0  0  0  0
   39.6640   28.0160   35.7860 H   0  0  0  0  0  0  0  0  0  0  0  0
   39.6200   26.8290   34.3930 H   0  0  0  0  0  0  0  0  0  0  0  0
   37.1900   28.0560   35.9260 H   0  0  0  0  0  0  0  0  0  0  0  0
   37.0410   26.9510   34.4530 H   0  0  0  0  0  0  0  0  0  0  0  0
   37.8600   23.9140   37.9100 C   0  0  0  0  0  0  0  0  0  0  0  0
   36.9870   24.1050   38.4670 H   0  0  0  0  0  0  0  0  0  0  0  0
   38.5740   23.8800   38.9140 O   0  0  0  0  0  0  0  0  0  0  0  0
  1  9  1  0  0  0  0
  1  2  1  0  0  0  0
  2 17  1  0  0  0  0
  3  2  2  0  0  0  0
  3  7  1  0  0  0  0
  4  3  1  0  0  0  0
  5  6  1  0  0  0  0
  5  4  2  0  0  0  0
  6  1  2  0  0  0  0
  8  5  1  0  0  0  0
  9 12  1  0  0  0  0
 10 13  1  0  0  0  0
 10  9  1  0  0  0  0
 11 10  1  0  0  0  0
 11 15  1  0  0  0  0
 11  9  1  0  0  0  0
 14 10  1  0  0  0  0
 16 11  1  0  0  0  0
 17 18  1  0  0  0  0
 17 19  2  0  0  0  0
M  END
>  <minimizedAffinity>
-3.62751961

$$$$

 OpenBabel03272508183D

 19 20  0  0  0  0  0  0  0  0999 V2000
   38.5310   25.0090   36.2640 C   0  0  0  0  0  0  0  0  0  0  0  0
   39.4180   24.6400   35.2500 C   0  0  0  0  0  0  0  0  0  0  0  0
   39.9850   25.6310   34.4870 C   0  0  0  0  0  0  0  0  0  0  0  0
   39.6580   26.9080   34.7530 N   0  0  0  0  0  0  0  0  0  0  0  0
   38.8040   27.2660   35.7290 C   0  0  0  0  0  0  0  0  0  0  0  0
   38.2340   26.3140   36.4930 N   0  0  0  0  0  0  0  0  0  0  0  0
   40.6860   25.4650   33.6710 H   0  0  0  0  0  0  0  0  0  0  0  0
   38.4760   28.2480   36.0260 H   0  0  0  0  0  0  0  0  0  0  0  0
   38.0100   23.8900   37.1380 C   0  0  0  0  0  0  0  0  0  0  0  0
   38.8640   23.3220   38.1580 C   0  0  0  0  0  0  0  0  0  0  0  0
   37.8830   24.3720   38.5980 C   0  0  0  0  0  0  0  0  0  0  0  0
   37.0050   23.5020   36.7930 H   0  0  0  0  0  0  0  0  0  0  0  0
   38.7190   22.3030   38.5630 H   0  0  0  0  0  0  0  0  0  0  0  0
   39.9440   23.6040   38.1640 H   0  0  0  0  0  0  0  0  0  0  0  0
   36.9990   23.9940   39.1320 H   0  0  0  0  0  0  0  0  0  0  0  0
   38.1990   25.3740   38.8660 H   0  0  0  0  0  0  0  0  0  0  0  0
   39.8150   23.2980   34.8910 C   0  0  0  0  0  0  0  0  0  0  0  0
   39.3560   22.6870   34.1680 H   0  0  0  0  0  0  0  0  0  0  0  0
   40.6560   22.4430   35.1780 O   0  0  0  0  0  0  0  0  0  0  0  0
  1  6  1  0  0  0  0
  1  9  1  0  0  0  0
  2  1  2  0  0  0  0
  3  4  2  0  0  0  0
  3  2  1  0  0  0  0
  4  5  1  0  0  0  0
  5  8  1  0  0  0  0
  5  6  2  0  0  0  0
  7  3  1  0  0  0  0
  9 10  1  0  0  0  0
  9 11  1  0  0  0  0
 10 14  1  0  0  0  0
 10 13  1  0  0  0  0
 10 11  1  0  0  0  0
 11 16  1  0  0  0  0
 11 15  1  0  0  0  0
 12  9  1  0  0  0  0
 17 19  2  0  0  0  0
 17  2  1  0  0  0  0
 18 17  1  0  0  0  0
M  END
>  <minimizedAffinity>
-3.4373796

$$$$

 OpenBabel03272508183D

 19 20  0  0  0  0  0  0  0  0999 V2000
   38.6360   24.8370   36.2640 C   0  0  0  0  0  0  0  0  0  0  0  0
   39.5640   23.8200   36.0290 C   0  0  0  0  0  0  0  0  0  0  0  0
   39.7630   22.8800   37.0100 C   0  0  0  0  0  0  0  0  0  0  0  0
   39.0540   22.9840   38.1480 N   0  0  0  0  0  0  0  0  0  0  0  0
   38.1600   23.9630   38.3760 C   0  0  0  0  0  0  0  0  0  0  0  0
   37.9460   24.8980   37.4300 N   0  0  0  0  0  0  0  0  0  0  0  0
   40.4590   22.0450   36.9410 H   0  0  0  0  0  0  0  0  0  0  0  0
   37.5430   24.1390   39.2420 H   0  0  0  0  0  0  0  0  0  0  0  0
   38.3830   25.7900   35.1160 C   0  0  0  0  0  0  0  0  0  0  0  0
   37.6660   27.0220   35.3560 C   0  0  0  0  0  0  0  0  0  0  0  0
   39.1660   27.1010   35.3340 C   0  0  0  0  0  0  0  0  0  0  0  0
   38.6770   25.3520   34.1150 H   0  0  0  0  0  0  0  0  0  0  0  0
   37.1250   27.5670   34.5590 H   0  0  0  0  0  0  0  0  0  0  0  0
   37.1650   27.1630   36.3440 H   0  0  0  0  0  0  0  0  0  0  0  0
   39.6000   27.5350   34.4220 H   0  0  0  0  0  0  0  0  0  0  0  0
   39.7440   27.2420   36.2400 H   0  0  0  0  0  0  0  0  0  0  0  0
   40.3720   23.6390   34.8450 C   0  0  0  0  0  0  0  0  0  0  0  0
   40.1780   22.9670   34.0570 H   0  0  0  0  0  0  0  0  0  0  0  0
   41.4040   24.0620   34.3200 O   0  0  0  0  0  0  0  0  0  0  0  0
  1  6  1  0  0  0  0
  2  1  2  0  0  0  0
  2  3  1  0  0  0  0
  3  4  2  0  0  0  0
  4  5  1  0  0  0  0
  5  8  1  0  0  0  0
  6  5  2  0  0  0  0
  7  3  1  0  0  0  0
  9 11  1  0  0  0  0
  9 10  1  0  0  0  0
  9  1  1  0  0  0  0
 10 14  1  0  0  0  0
 11 10  1  0  0  0  0
 11 16  1  0  0  0  0
 12  9  1  0  0  0  0
 13 10  1  0  0  0  0
 15 11  1  0  0  0  0
 17  2  1  0  0  0  0
 18 17  1  0  0  0  0
 19 17  2  0  0  0  0
M  END
>  <minimizedAffinity>
-3.35717177

$$$$

 OpenBabel03272508183D

 19 20  0  0  0  0  0  0  0  0999 V2000
   38.0300   23.9410   36.2280 C   0  0  0  0  0  0  0  0  0  0  0  0
   38.0860   25.0730   35.4130 C   0  0  0  0  0  0  0  0  0  0  0  0
   38.0520   24.8980   34.0510 C   0  0  0  0  0  0  0  0  0  0  0  0
   37.9660   23.6450   33.5700 N   0  0  0  0  0  0  0  0  0  0  0  0
   37.9120   22.5530   34.3530 C   0  0  0  0  0  0  0  0  0  0  0  0
   37.9440   22.6970   35.6930 N   0  0  0  0  0  0  0  0  0  0  0  0
   38.0910   25.7030   33.3180 H   0  0  0  0  0  0  0  0  0  0  0  0
   37.8420   21.5140   34.0770 H   0  0  0  0  0  0  0  0  0  0  0  0
   37.9720   24.1910   37.7190 C   0  0  0  0  0  0  0  0  0  0  0  0
   37.6690   23.0990   38.6170 C   0  0  0  0  0  0  0  0  0  0  0  0
   39.1190   23.4410   38.4280 C   0  0  0  0  0  0  0  0  0  0  0  0
   38.0410   25.2910   37.9770 H   0  0  0  0  0  0  0  0  0  0  0  0
   37.2470   23.2520   39.6280 H   0  0  0  0  0  0  0  0  0  0  0  0
   37.3140   22.1350   38.1800 H   0  0  0  0  0  0  0  0  0  0  0  0
   39.5840   23.9910   39.2590 H   0  0  0  0  0  0  0  0  0  0  0  0
   39.7870   22.8080   37.8540 H   0  0  0  0  0  0  0  0  0  0  0  0
   38.1880   26.4480   35.8440 C   0  0  0  0  0  0  0  0  0  0  0  0
   37.4220   27.0190   36.2870 H   0  0  0  0  0  0  0  0  0  0  0  0
   38.9980   27.3760   35.8900 O   0  0  0  0  0  0  0  0  0  0  0  0
  1  9  1  0  0  0  0
  2 17  1  0  0  0  0
  2  1  2  0  0  0  0
  3  2  1  0  0  0  0
  4  3  2  0  0  0  0
  4  5  1  0  0  0  0
  5  6  2  0  0  0  0
  6  1  1  0  0  0  0
  7  3  1  0  0  0  0
  8  5  1  0  0  0  0
  9 12  1  0  0  0  0
  9 11  1  0  0  0  0
  9 10  1  0  0  0  0
 10 13  1  0  0  0  0
 11 10  1  0  0  0  0
 11 15  1  0  0  0  0
 14 10  1  0  0  0  0
 16 11  1  0  0  0  0
 17 19  2  0  0  0  0
 17 18  1  0  0  0  0
M  END
>  <minimizedAffinity>
-3.33635736

$$$$

 OpenBabel03272508183D

 19 20  0  0  0  0  0  0  0  0999 V2000
   39.0160   24.9430   35.8860 C   0  0  0  0  0  0  0  0  0  0  0  0
   39.1300   26.2790   35.4950 C   0  0  0  0  0  0  0  0  0  0  0  0
   40.2530   26.6610   34.8030 C   0  0  0  0  0  0  0  0  0  0  0  0
   41.1870   25.7310   34.5360 N   0  0  0  0  0  0  0  0  0  0  0  0
   41.0780   24.4440   34.9120 C   0  0  0  0  0  0  0  0  0  0  0  0
   39.9870   24.0420   35.5920 N   0  0  0  0  0  0  0  0  0  0  0  0
   40.4530   27.6710   34.4490 H   0  0  0  0  0  0  0  0  0  0  0  0
   41.7580   23.6230   34.7520 H   0  0  0  0  0  0  0  0  0  0  0  0
   37.7190   24.5520   36.5600 C   0  0  0  0  0  0  0  0  0  0  0  0
   37.5780   23.2290   37.1270 C   0  0  0  0  0  0  0  0  0  0  0  0
   37.9490   24.3380   38.0700 C   0  0  0  0  0  0  0  0  0  0  0  0
   36.9060   25.3270   36.4200 H   0  0  0  0  0  0  0  0  0  0  0  0
   36.5960   22.7450   37.2860 H   0  0  0  0  0  0  0  0  0  0  0  0
   38.3650   22.4690   36.9050 H   0  0  0  0  0  0  0  0  0  0  0  0
   37.1340   24.6970   38.7150 H   0  0  0  0  0  0  0  0  0  0  0  0
   38.9470   24.4280   38.4830 H   0  0  0  0  0  0  0  0  0  0  0  0
   38.1840   27.3410   35.7480 C   0  0  0  0  0  0  0  0  0  0  0  0
   38.0810   27.8810   36.6460 H   0  0  0  0  0  0  0  0  0  0  0  0
   37.2800   27.9650   35.1890 O   0  0  0  0  0  0  0  0  0  0  0  0
  1  9  1  0  0  0  0
  2 17  1  0  0  0  0
  2  1  2  0  0  0  0
  3  2  1  0  0  0  0
  4  3  2  0  0  0  0
  4  5  1  0  0  0  0
  5  6  2  0  0  0  0
  6  1  1  0  0  0  0
  7  3  1  0  0  0  0
  8  5  1  0  0  0  0
  9 10  1  0  0  0  0
  9 11  1  0  0  0  0
 10 13  1  0  0  0  0
 10 11  1  0  0  0  0
 11 16  1  0  0  0  0
 11 15  1  0  0  0  0
 12  9  1  0  0  0  0
 14 10  1  0  0  0  0
 17 18  1  0  0  0  0
 19 17  2  0  0  0  0
M  END
>  <minimizedAffinity>
-3.33492041

$$$$

 OpenBabel03272508183D

 19 20  0  0  0  0  0  0  0  0999 V2000
   36.4510   21.9830   31.3410 C   0  0  0  0  0  0  0  0  0  0  0  0
   36.4710   23.3610   31.1130 C   0  0  0  0  0  0  0  0  0  0  0  0
   37.5820   23.9060   30.5170 C   0  0  0  0  0  0  0  0  0  0  0  0
   38.5950   23.0870   30.1830 N   0  0  0  0  0  0  0  0  0  0  0  0
   38.5770   21.7600   30.4020 C   0  0  0  0  0  0  0  0  0  0  0  0
   37.4990   21.1990   30.9850 N   0  0  0  0  0  0  0  0  0  0  0  0
   37.7130   24.9640   30.2920 H   0  0  0  0  0  0  0  0  0  0  0  0
   39.3250   21.0180   30.1770 H   0  0  0  0  0  0  0  0  0  0  0  0
   35.1680   21.4190   31.9100 C   0  0  0  0  0  0  0  0  0  0  0  0
   35.0220   19.9880   32.0630 C   0  0  0  0  0  0  0  0  0  0  0  0
   35.4380   20.7630   33.2800 C   0  0  0  0  0  0  0  0  0  0  0  0
   34.3640   22.2050   32.0330 H   0  0  0  0  0  0  0  0  0  0  0  0
   34.0370   19.4850   32.1030 H   0  0  0  0  0  0  0  0  0  0  0  0
   35.7890   19.3230   31.5990 H   0  0  0  0  0  0  0  0  0  0  0  0
   34.6480   20.9210   34.0290 H   0  0  0  0  0  0  0  0  0  0  0  0
   36.4490   20.7200   33.6690 H   0  0  0  0  0  0  0  0  0  0  0  0
   35.4360   24.3120   31.4470 C   0  0  0  0  0  0  0  0  0  0  0  0
   35.0320   24.4790   32.4050 H   0  0  0  0  0  0  0  0  0  0  0  0
   34.7140   25.1600   30.9200 O   0  0  0  0  0  0  0  0  0  0  0  0
  1  9  1  0  0  0  0
  2  1  1  0  0  0  0
  2 17  1  0  0  0  0
  3  2  2  0  0  0  0
  4  5  2  0  0  0  0
  4  3  1  0  0  0  0
  5  6  1  0  0  0  0
  6  1  2  0  0  0  0
  7  3  1  0  0  0  0
  8  5  1  0  0  0  0
  9 12  1  0  0  0  0
  9 10  1  0  0  0  0
  9 11  1  0  0  0  0
 10 13  1  0  0  0  0
 10 11  1  0  0  0  0
 11 16  1  0  0  0  0
 11 15  1  0  0  0  0
 14 10  1  0  0  0  0
 17 18  1  0  0  0  0
 19 17  2  0  0  0  0
M  END
>  <minimizedAffinity>
-3.24350548

$$$$

 OpenBabel03272508183D

 19 20  0  0  0  0  0  0  0  0999 V2000
   38.3140   24.8430   35.3190 C   0  0  0  0  0  0  0  0  0  0  0  0
   38.1510   23.9310   34.2740 C   0  0  0  0  0  0  0  0  0  0  0  0
   38.0950   22.5930   34.5810 C   0  0  0  0  0  0  0  0  0  0  0  0
   38.2010   22.2270   35.8700 N   0  0  0  0  0  0  0  0  0  0  0  0
   38.3580   23.1040   36.8780 C   0  0  0  0  0  0  0  0  0  0  0  0
   38.4160   24.4230   36.6050 N   0  0  0  0  0  0  0  0  0  0  0  0
   37.9730   21.7910   33.8530 H   0  0  0  0  0  0  0  0  0  0  0  0
   38.4520   22.9230   37.9360 H   0  0  0  0  0  0  0  0  0  0  0  0
   38.2710   26.3070   34.9410 C   0  0  0  0  0  0  0  0  0  0  0  0
   38.6210   27.3090   35.9240 C   0  0  0  0  0  0  0  0  0  0  0  0
   39.6950   26.9000   34.9560 C   0  0  0  0  0  0  0  0  0  0  0  0
   37.8150   26.4790   33.9200 H   0  0  0  0  0  0  0  0  0  0  0  0
   38.2680   28.3560   35.8650 H   0  0  0  0  0  0  0  0  0  0  0  0
   38.7470   26.9910   36.9860 H   0  0  0  0  0  0  0  0  0  0  0  0
   39.9020   27.6210   34.1520 H   0  0  0  0  0  0  0  0  0  0  0  0
   40.5350   26.2850   35.2600 H   0  0  0  0  0  0  0  0  0  0  0  0
   38.0390   24.2340   32.8660 C   0  0  0  0  0  0  0  0  0  0  0  0
   37.1440   24.3980   32.3350 H   0  0  0  0  0  0  0  0  0  0  0  0
   38.7420   24.4020   31.8680 O   0  0  0  0  0  0  0  0  0  0  0  0
  1  6  1  0  0  0  0
  2  3  1  0  0  0  0
  2  1  2  0  0  0  0
  3  4  2  0  0  0  0
  4  5  1  0  0  0  0
  5  8  1  0  0  0  0
  6  5  2  0  0  0  0
  7  3  1  0  0  0  0
  9 11  1  0  0  0  0
  9  1  1  0  0  0  0
  9 10  1  0  0  0  0
 10 14  1  0  0  0  0
 11 16  1  0  0  0  0
 11 10  1  0  0  0  0
 12  9  1  0  0  0  0
 13 10  1  0  0  0  0
 15 11  1  0  0  0  0
 17  2  1  0  0  0  0
 18 17  1  0  0  0  0
 19 17  2  0  0  0  0
M  END
>  <minimizedAffinity>
-3.21018147

$$$$

 OpenBabel03272508183D

 19 20  0  0  0  0  0  0  0  0999 V2000
   37.0740   27.3660   33.6380 C   0  0  0  0  0  0  0  0  0  0  0  0
   36.2590   28.4640   33.3530 C   0  0  0  0  0  0  0  0  0  0  0  0
   36.0330   28.7830   32.0360 C   0  0  0  0  0  0  0  0  0  0  0  0
   36.6080   28.0240   31.0870 N   0  0  0  0  0  0  0  0  0  0  0  0
   37.3930   26.9660   31.3590 C   0  0  0  0  0  0  0  0  0  0  0  0
   37.6310   26.6310   32.6430 N   0  0  0  0  0  0  0  0  0  0  0  0
   35.4190   29.6150   31.6930 H   0  0  0  0  0  0  0  0  0  0  0  0
   37.8980   26.2950   30.6840 H   0  0  0  0  0  0  0  0  0  0  0  0
   37.2120   26.9980   35.0980 C   0  0  0  0  0  0  0  0  0  0  0  0
   38.1270   25.9470   35.4870 C   0  0  0  0  0  0  0  0  0  0  0  0
   38.6240   27.3600   35.6050 C   0  0  0  0  0  0  0  0  0  0  0  0
   36.4460   27.5150   35.7510 H   0  0  0  0  0  0  0  0  0  0  0  0
   38.0200   25.3750   36.4280 H   0  0  0  0  0  0  0  0  0  0  0  0
   38.5820   25.3150   34.6870 H   0  0  0  0  0  0  0  0  0  0  0  0
   38.6560   27.7620   36.6280 H   0  0  0  0  0  0  0  0  0  0  0  0
   39.3570   27.7690   34.9180 H   0  0  0  0  0  0  0  0  0  0  0  0
   35.6120   29.3360   34.3060 C   0  0  0  0  0  0  0  0  0  0  0  0
   34.6140   29.2660   34.6350 H   0  0  0  0  0  0  0  0  0  0  0  0
   35.8460   30.3210   35.0080 O   0  0  0  0  0  0  0  0  0  0  0  0
  1  9  1  0  0  0  0
  2  1  1  0  0  0  0
  2 17  1  0  0  0  0
  3  2  2  0  0  0  0
  4  5  2  0  0  0  0
  4  3  1  0  0  0  0
  5  6  1  0  0  0  0
  6  1  2  0  0  0  0
  7  3  1  0  0  0  0
  8  5  1  0  0  0  0
  9 10  1  0  0  0  0
  9 11  1  0  0  0  0
  9 12  1  0  0  0  0
 10 11  1  0  0  0  0
 10 13  1  0  0  0  0
 11 15  1  0  0  0  0
 14 10  1  0  0  0  0
 16 11  1  0  0  0  0
 17 18  1  0  0  0  0
 17 19  2  0  0  0  0
M  END
>  <minimizedAffinity>
-3.19735599

$$$$

 OpenBabel03272508183D

 19 20  0  0  0  0  0  0  0  0999 V2000
   36.4940   22.7120   32.1030 C   0  0  0  0  0  0  0  0  0  0  0  0
   36.3710   24.0840   31.8740 C   0  0  0  0  0  0  0  0  0  0  0  0
   37.1780   24.9380   32.5860 C   0  0  0  0  0  0  0  0  0  0  0  0
   38.0460   24.4110   33.4670 N   0  0  0  0  0  0  0  0  0  0  0  0
   38.1660   23.0900   33.6890 C   0  0  0  0  0  0  0  0  0  0  0  0
   37.3860   22.2300   33.0040 N   0  0  0  0  0  0  0  0  0  0  0  0
   37.1710   26.0230   32.4940 H   0  0  0  0  0  0  0  0  0  0  0  0
   38.8210   22.5640   34.3640 H   0  0  0  0  0  0  0  0  0  0  0  0
   35.6530   21.8100   31.2260 C   0  0  0  0  0  0  0  0  0  0  0  0
   35.9280   20.3910   31.1900 C   0  0  0  0  0  0  0  0  0  0  0  0
   34.8220   20.8470   32.0990 C   0  0  0  0  0  0  0  0  0  0  0  0
   34.9530   22.3890   30.5530 H   0  0  0  0  0  0  0  0  0  0  0  0
   35.6400   19.7450   30.3390 H   0  0  0  0  0  0  0  0  0  0  0  0
   36.8610   20.0170   31.6760 H   0  0  0  0  0  0  0  0  0  0  0  0
   33.8040   20.6570   31.7310 H   0  0  0  0  0  0  0  0  0  0  0  0
   34.9360   20.8590   33.1770 H   0  0  0  0  0  0  0  0  0  0  0  0
   35.4630   24.7340   30.9580 C   0  0  0  0  0  0  0  0  0  0  0  0
   35.5760   24.7980   29.9120 H   0  0  0  0  0  0  0  0  0  0  0  0
   34.4020   25.3620   30.9500 O   0  0  0  0  0  0  0  0  0  0  0  0
  1  6  1  0  0  0  0
  2  1  2  0  0  0  0
  2  3  1  0  0  0  0
  3  4  2  0  0  0  0
  4  5  1  0  0  0  0
  5  8  1  0  0  0  0
  6  5  2  0  0  0  0
  7  3  1  0  0  0  0
  9 11  1  0  0  0  0
  9  1  1  0  0  0  0
 10  9  1  0  0  0  0
 10 14  1  0  0  0  0
 10 11  1  0  0  0  0
 11 16  1  0  0  0  0
 12  9  1  0  0  0  0
 13 10  1  0  0  0  0
 15 11  1  0  0  0  0
 17  2  1  0  0  0  0
 18 17  1  0  0  0  0
 19 17  2  0  0  0  0
M  END
>  <minimizedAffinity>
-3.19693184

$$$$
