
 OpenBabel03272502043D

 32 34  0  0  0  0  0  0  0  0999 V2000
   36.0190   28.1980   34.7240 F   0  0  0  0  0  0  0  0  0  0  0  0
   36.0720   28.8810   33.5460 C   0  0  0  0  0  0  0  0  0  0  0  0
   36.6480   28.3240   32.4260 C   0  0  0  0  0  0  0  0  0  0  0  0
   36.6250   29.0410   31.2190 C   0  0  0  0  0  0  0  0  0  0  0  0
   36.0240   30.3060   31.1710 C   0  0  0  0  0  0  0  0  0  0  0  0
   35.4720   30.7980   32.3330 C   0  0  0  0  0  0  0  0  0  0  0  0
   35.4780   30.1260   33.5150 C   0  0  0  0  0  0  0  0  0  0  0  0
   37.1140   28.4820   30.4140 H   0  0  0  0  0  0  0  0  0  0  0  0
   36.1060   30.6850   30.1780 H   0  0  0  0  0  0  0  0  0  0  0  0
   35.1330   31.7380   32.0270 H   0  0  0  0  0  0  0  0  0  0  0  0
   32.4790   29.4700   34.0820 Br  0  0  0  0  0  0  0  0  0  0  0  0
   33.5990   30.5250   35.1810 C   0  0  0  0  0  0  0  0  0  0  0  0
   34.8760   30.7130   34.6940 C   0  0  0  0  0  0  0  0  0  0  0  0
   35.7320   31.5200   35.4300 C   0  0  0  0  0  0  0  0  0  0  0  0
   35.3240   32.0970   36.5910 C   0  0  0  0  0  0  0  0  0  0  0  0
   34.0430   31.8720   37.0320 C   0  0  0  0  0  0  0  0  0  0  0  0
   33.1460   31.0690   36.3200 C   0  0  0  0  0  0  0  0  0  0  0  0
   36.7300   31.9010   35.3520 H   0  0  0  0  0  0  0  0  0  0  0  0
   35.8090   32.7380   37.3010 H   0  0  0  0  0  0  0  0  0  0  0  0
   33.5640   32.2630   37.9510 H   0  0  0  0  0  0  0  0  0  0  0  0
   31.7750   30.8040   36.7490 C   0  0  0  0  0  0  0  0  0  0  0  0
   31.5200   29.8060   37.1110 H   0  0  0  0  0  0  0  0  0  0  0  0
   30.9640   31.7350   36.6780 O   0  0  0  0  0  0  0  0  0  0  0  0
   36.4470   25.9560   32.1990 C   0  0  0  0  0  0  0  0  0  0  0  0
   37.2630   27.0490   32.5820 C   0  0  0  0  0  0  0  0  0  0  0  0
   38.5180   26.7690   33.0490 C   0  0  0  0  0  0  0  0  0  0  0  0
   38.9270   25.4670   33.1250 N   0  0  0  0  0  0  0  0  0  0  0  0
   38.1280   24.4520   32.7530 C   0  0  0  0  0  0  0  0  0  0  0  0
   36.8930   24.6860   32.2900 N   0  0  0  0  0  0  0  0  0  0  0  0
   35.4360   26.0420   31.8130 H   0  0  0  0  0  0  0  0  0  0  0  0
   39.1120   27.6050   33.3310 H   0  0  0  0  0  0  0  0  0  0  0  0
   38.5720   23.4670   32.8620 H   0  0  0  0  0  0  0  0  0  0  0  0
  2  1  1  0  0  0  0
  3 25  1  0  0  0  0
  3  2  2  0  0  0  0
  4  3  1  0  0  0  0
  5  4  2  0  0  0  0
  5  6  1  0  0  0  0
  6  7  2  0  0  0  0
  7  2  1  0  0  0  0
  7 13  1  0  0  0  0
  8  4  1  0  0  0  0
  9  5  1  0  0  0  0
 10  6  1  0  0  0  0
 11 12  1  0  0  0  0
 12 17  1  0  0  0  0
 13 12  2  0  0  0  0
 13 14  1  0  0  0  0
 14 15  2  0  0  0  0
 15 16  1  0  0  0  0
 15 19  1  0  0  0  0
 16 20  1  0  0  0  0
 17 21  1  0  0  0  0
 17 16  2  0  0  0  0
 18 14  1  0  0  0  0
 21 22  1  0  0  0  0
 23 21  2  0  0  0  0
 24 29  2  0  0  0  0
 24 25  1  0  0  0  0
 25 26  2  0  0  0  0
 26 27  1  0  0  0  0
 26 31  1  0  0  0  0
 28 32  1  0  0  0  0
 28 27  2  0  0  0  0
 29 28  1  0  0  0  0
 30 24  1  0  0  0  0
M  END
>  <minimizedAffinity>
-5.60813713

$$$$

 OpenBabel03272502043D

 32 34  0  0  0  0  0  0  0  0999 V2000
   35.5170   31.6300   32.4530 F   0  0  0  0  0  0  0  0  0  0  0  0
   35.8990   30.3390   32.6680 C   0  0  0  0  0  0  0  0  0  0  0  0
   36.5850   29.6310   31.7060 C   0  0  0  0  0  0  0  0  0  0  0  0
   37.0110   28.3250   31.9960 C   0  0  0  0  0  0  0  0  0  0  0  0
   36.7330   27.7630   33.2490 C   0  0  0  0  0  0  0  0  0  0  0  0
   36.0400   28.5310   34.1570 C   0  0  0  0  0  0  0  0  0  0  0  0
   35.6160   29.7980   33.9050 C   0  0  0  0  0  0  0  0  0  0  0  0
   37.5430   27.8820   31.1480 H   0  0  0  0  0  0  0  0  0  0  0  0
   37.1340   26.7750   33.2760 H   0  0  0  0  0  0  0  0  0  0  0  0
   35.9460   27.8750   34.9660 H   0  0  0  0  0  0  0  0  0  0  0  0
   32.5070   29.5150   33.9500 Br  0  0  0  0  0  0  0  0  0  0  0  0
   33.5340   30.5320   35.1690 C   0  0  0  0  0  0  0  0  0  0  0  0
   34.8910   30.5420   34.9150 C   0  0  0  0  0  0  0  0  0  0  0  0
   35.6940   31.3110   35.7440 C   0  0  0  0  0  0  0  0  0  0  0  0
   35.1610   32.0220   36.7720 C   0  0  0  0  0  0  0  0  0  0  0  0
   33.8040   31.9730   36.9830 C   0  0  0  0  0  0  0  0  0  0  0  0
   32.9570   31.2140   36.1690 C   0  0  0  0  0  0  0  0  0  0  0  0
   36.7290   31.5760   35.8280 H   0  0  0  0  0  0  0  0  0  0  0  0
   35.5870   32.6640   37.5180 H   0  0  0  0  0  0  0  0  0  0  0  0
   33.2220   32.4870   37.7720 H   0  0  0  0  0  0  0  0  0  0  0  0
   31.5100   31.1330   36.3540 C   0  0  0  0  0  0  0  0  0  0  0  0
   31.0060   30.1840   36.1550 H   0  0  0  0  0  0  0  0  0  0  0  0
   30.9240   32.1550   36.7300 O   0  0  0  0  0  0  0  0  0  0  0  0
   37.4160   29.4640   29.4750 C   0  0  0  0  0  0  0  0  0  0  0  0
   36.7910   30.2750   30.4530 C   0  0  0  0  0  0  0  0  0  0  0  0
   36.4650   31.5560   30.0990 C   0  0  0  0  0  0  0  0  0  0  0  0
   36.7490   31.9920   28.8350 N   0  0  0  0  0  0  0  0  0  0  0  0
   37.3430   31.1960   27.9300 C   0  0  0  0  0  0  0  0  0  0  0  0
   37.6780   29.9360   28.2390 N   0  0  0  0  0  0  0  0  0  0  0  0
   37.7250   28.4340   29.6280 H   0  0  0  0  0  0  0  0  0  0  0  0
   35.9970   32.1470   30.8500 H   0  0  0  0  0  0  0  0  0  0  0  0
   37.5140   31.6620   26.9640 H   0  0  0  0  0  0  0  0  0  0  0  0
  1  2  1  0  0  0  0
  2  7  1  0  0  0  0
  3  4  1  0  0  0  0
  3  2  2  0  0  0  0
  4  5  2  0  0  0  0
  5  9  1  0  0  0  0
  5  6  1  0  0  0  0
  6 10  1  0  0  0  0
  7  6  2  0  0  0  0
  7 13  1  0  0  0  0
  8  4  1  0  0  0  0
 11 12  1  0  0  0  0
 12 17  1  0  0  0  0
 13 12  2  0  0  0  0
 13 14  1  0  0  0  0
 14 18  1  0  0  0  0
 14 15  2  0  0  0  0
 15 16  1  0  0  0  0
 15 19  1  0  0  0  0
 16 20  1  0  0  0  0
 17 21  1  0  0  0  0
 17 16  2  0  0  0  0
 21 23  2  0  0  0  0
 22 21  1  0  0  0  0
 24 30  1  0  0  0  0
 24 25  1  0  0  0  0
 25  3  1  0  0  0  0
 26 25  2  0  0  0  0
 26 31  1  0  0  0  0
 27 26  1  0  0  0  0
 28 29  1  0  0  0  0
 28 27  2  0  0  0  0
 29 24  2  0  0  0  0
 32 28  1  0  0  0  0
M  END
>  <minimizedAffinity>
-5.49496222

$$$$

 OpenBabel03272502043D

 32 34  0  0  0  0  0  0  0  0999 V2000
   35.5280   28.2020   34.3460 F   0  0  0  0  0  0  0  0  0  0  0  0
   35.7880   29.0030   33.2750 C   0  0  0  0  0  0  0  0  0  0  0  0
   35.6750   30.3730   33.3670 C   0  0  0  0  0  0  0  0  0  0  0  0
   36.0120   31.1610   32.2560 C   0  0  0  0  0  0  0  0  0  0  0  0
   36.4540   30.5480   31.0750 C   0  0  0  0  0  0  0  0  0  0  0  0
   36.5390   29.1740   31.0580 C   0  0  0  0  0  0  0  0  0  0  0  0
   36.2190   28.3860   32.1200 C   0  0  0  0  0  0  0  0  0  0  0  0
   35.8780   32.2270   32.4670 H   0  0  0  0  0  0  0  0  0  0  0  0
   36.6600   31.3070   30.3540 H   0  0  0  0  0  0  0  0  0  0  0  0
   36.8540   28.9910   30.0790 H   0  0  0  0  0  0  0  0  0  0  0  0
   38.6560   27.0350   33.5300 Br  0  0  0  0  0  0  0  0  0  0  0  0
   37.2800   26.1260   32.6050 C   0  0  0  0  0  0  0  0  0  0  0  0
   36.3350   26.9450   32.0220 C   0  0  0  0  0  0  0  0  0  0  0  0
   35.3260   26.3410   31.2860 C   0  0  0  0  0  0  0  0  0  0  0  0
   35.2710   24.9890   31.1520 C   0  0  0  0  0  0  0  0  0  0  0  0
   36.2350   24.2200   31.7570 C   0  0  0  0  0  0  0  0  0  0  0  0
   37.2720   24.7880   32.5050 C   0  0  0  0  0  0  0  0  0  0  0  0
   34.4830   26.6390   30.6950 H   0  0  0  0  0  0  0  0  0  0  0  0
   34.5950   24.3300   30.6430 H   0  0  0  0  0  0  0  0  0  0  0  0
   36.3280   23.1170   31.7460 H   0  0  0  0  0  0  0  0  0  0  0  0
   38.3190   24.0120   33.1630 C   0  0  0  0  0  0  0  0  0  0  0  0
   39.3050   23.9510   32.6950 H   0  0  0  0  0  0  0  0  0  0  0  0
   38.0330   23.4550   34.2300 O   0  0  0  0  0  0  0  0  0  0  0  0
   33.7740   30.9470   34.6920 C   0  0  0  0  0  0  0  0  0  0  0  0
   35.1860   30.9000   34.5970 C   0  0  0  0  0  0  0  0  0  0  0  0
   35.9080   31.3540   35.6660 C   0  0  0  0  0  0  0  0  0  0  0  0
   35.2480   31.8280   36.7650 N   0  0  0  0  0  0  0  0  0  0  0  0
   33.9060   31.8600   36.8230 C   0  0  0  0  0  0  0  0  0  0  0  0
   33.1640   31.4220   35.7980 N   0  0  0  0  0  0  0  0  0  0  0  0
   33.0880   30.6190   33.9170 H   0  0  0  0  0  0  0  0  0  0  0  0
   36.9670   31.3090   35.5720 H   0  0  0  0  0  0  0  0  0  0  0  0
   33.5050   32.2580   37.7510 H   0  0  0  0  0  0  0  0  0  0  0  0
  2  3  1  0  0  0  0
  2  1  1  0  0  0  0
  3 25  1  0  0  0  0
  4  8  1  0  0  0  0
  4  3  2  0  0  0  0
  5  4  1  0  0  0  0
  6  5  2  0  0  0  0
  6  7  1  0  0  0  0
  7  2  2  0  0  0  0
  9  5  1  0  0  0  0
 10  6  1  0  0  0  0
 12 11  1  0  0  0  0
 13  7  1  0  0  0  0
 13 12  2  0  0  0  0
 14 13  1  0  0  0  0
 15 14  2  0  0  0  0
 15 16  1  0  0  0  0
 16 17  2  0  0  0  0
 17 12  1  0  0  0  0
 17 21  1  0  0  0  0
 18 14  1  0  0  0  0
 19 15  1  0  0  0  0
 20 16  1  0  0  0  0
 21 23  2  0  0  0  0
 22 21  1  0  0  0  0
 24 29  1  0  0  0  0
 25 24  2  0  0  0  0
 25 26  1  0  0  0  0
 26 27  2  0  0  0  0
 27 28  1  0  0  0  0
 28 32  1  0  0  0  0
 29 28  2  0  0  0  0
 30 24  1  0  0  0  0
 31 26  1  0  0  0  0
M  END
>  <minimizedAffinity>
-5.40637255

$$$$

 OpenBabel03272502043D

 32 34  0  0  0  0  0  0  0  0999 V2000
   36.0330   27.9020   34.7190 F   0  0  0  0  0  0  0  0  0  0  0  0
   36.2850   28.5620   33.5520 C   0  0  0  0  0  0  0  0  0  0  0  0
   36.9960   27.9630   32.5360 C   0  0  0  0  0  0  0  0  0  0  0  0
   37.1780   28.6580   31.3300 C   0  0  0  0  0  0  0  0  0  0  0  0
   36.6390   29.9430   31.1780 C   0  0  0  0  0  0  0  0  0  0  0  0
   35.9430   30.4760   32.2400 C   0  0  0  0  0  0  0  0  0  0  0  0
   35.7500   29.8260   33.4180 C   0  0  0  0  0  0  0  0  0  0  0  0
   37.7570   28.0680   30.6120 H   0  0  0  0  0  0  0  0  0  0  0  0
   36.8810   30.3010   30.2030 H   0  0  0  0  0  0  0  0  0  0  0  0
   35.6890   31.4230   31.8760 H   0  0  0  0  0  0  0  0  0  0  0  0
   32.6480   29.4700   33.4220 Br  0  0  0  0  0  0  0  0  0  0  0  0
   33.6490   30.3920   34.7350 C   0  0  0  0  0  0  0  0  0  0  0  0
   35.0050   30.4560   34.4890 C   0  0  0  0  0  0  0  0  0  0  0  0
   35.7890   31.1630   35.3900 C   0  0  0  0  0  0  0  0  0  0  0  0
   35.2360   31.7630   36.4770 C   0  0  0  0  0  0  0  0  0  0  0  0
   33.8800   31.6640   36.6760 C   0  0  0  0  0  0  0  0  0  0  0  0
   33.0530   30.9650   35.7910 C   0  0  0  0  0  0  0  0  0  0  0  0
   36.8170   31.4410   35.5040 H   0  0  0  0  0  0  0  0  0  0  0  0
   35.6450   32.3430   37.2810 H   0  0  0  0  0  0  0  0  0  0  0  0
   33.2840   32.0900   37.5060 H   0  0  0  0  0  0  0  0  0  0  0  0
   31.6080   30.8350   35.9600 C   0  0  0  0  0  0  0  0  0  0  0  0
   30.9540   31.1010   35.1270 H   0  0  0  0  0  0  0  0  0  0  0  0
   31.1950   30.4240   37.0510 O   0  0  0  0  0  0  0  0  0  0  0  0
   38.8540   26.6760   33.3040 C   0  0  0  0  0  0  0  0  0  0  0  0
   37.5320   26.6690   32.7970 C   0  0  0  0  0  0  0  0  0  0  0  0
   36.9300   25.4550   32.6150 C   0  0  0  0  0  0  0  0  0  0  0  0
   37.6170   24.3150   32.9260 N   0  0  0  0  0  0  0  0  0  0  0  0
   38.8720   24.3560   33.4060 C   0  0  0  0  0  0  0  0  0  0  0  0
   39.4950   25.5260   33.5990 N   0  0  0  0  0  0  0  0  0  0  0  0
   39.4420   27.5690   33.4940 H   0  0  0  0  0  0  0  0  0  0  0  0
   35.9370   25.4740   32.2320 H   0  0  0  0  0  0  0  0  0  0  0  0
   39.3060   23.3830   33.6140 H   0  0  0  0  0  0  0  0  0  0  0  0
  2  1  1  0  0  0  0
  3 25  1  0  0  0  0
  3  2  2  0  0  0  0
  4  3  1  0  0  0  0
  5  4  2  0  0  0  0
  5  6  1  0  0  0  0
  6  7  2  0  0  0  0
  7  2  1  0  0  0  0
  7 13  1  0  0  0  0
  8  4  1  0  0  0  0
  9  5  1  0  0  0  0
 10  6  1  0  0  0  0
 11 12  1  0  0  0  0
 12 17  1  0  0  0  0
 13 12  2  0  0  0  0
 13 14  1  0  0  0  0
 14 18  1  0  0  0  0
 14 15  2  0  0  0  0
 15 16  1  0  0  0  0
 15 19  1  0  0  0  0
 16 20  1  0  0  0  0
 17 21  1  0  0  0  0
 17 16  2  0  0  0  0
 21 23  2  0  0  0  0
 22 21  1  0  0  0  0
 24 30  1  0  0  0  0
 24 29  1  0  0  0  0
 25 24  2  0  0  0  0
 26 25  1  0  0  0  0
 26 27  2  0  0  0  0
 27 28  1  0  0  0  0
 28 29  2  0  0  0  0
 28 32  1  0  0  0  0
 31 26  1  0  0  0  0
M  END
>  <minimizedAffinity>
-5.38745403

$$$$

 OpenBabel03272502043D

 32 34  0  0  0  0  0  0  0  0999 V2000
   36.0450   27.8940   34.7270 F   0  0  0  0  0  0  0  0  0  0  0  0
   36.1790   28.5820   33.5590 C   0  0  0  0  0  0  0  0  0  0  0  0
   35.7110   29.8710   33.4350 C   0  0  0  0  0  0  0  0  0  0  0  0
   35.9260   30.5620   32.2310 C   0  0  0  0  0  0  0  0  0  0  0  0
   36.6070   29.9340   31.1800 C   0  0  0  0  0  0  0  0  0  0  0  0
   37.0420   28.6420   31.3780 C   0  0  0  0  0  0  0  0  0  0  0  0
   36.8490   27.9500   32.5320 C   0  0  0  0  0  0  0  0  0  0  0  0
   35.5070   31.5720   32.2700 H   0  0  0  0  0  0  0  0  0  0  0  0
   36.6710   30.6140   30.3610 H   0  0  0  0  0  0  0  0  0  0  0  0
   37.4740   28.4170   30.4530 H   0  0  0  0  0  0  0  0  0  0  0  0
   35.2000   25.6860   31.1520 Br  0  0  0  0  0  0  0  0  0  0  0  0
   36.8200   25.4440   32.0970 C   0  0  0  0  0  0  0  0  0  0  0  0
   37.3370   26.5920   32.6620 C   0  0  0  0  0  0  0  0  0  0  0  0
   38.4990   26.4730   33.4110 C   0  0  0  0  0  0  0  0  0  0  0  0
   39.1050   25.2680   33.5750 C   0  0  0  0  0  0  0  0  0  0  0  0
   38.5490   24.1570   32.9870 C   0  0  0  0  0  0  0  0  0  0  0  0
   37.3780   24.2310   32.2270 C   0  0  0  0  0  0  0  0  0  0  0  0
   39.1380   27.1040   33.9950 H   0  0  0  0  0  0  0  0  0  0  0  0
   39.9870   24.9570   34.0990 H   0  0  0  0  0  0  0  0  0  0  0  0
   38.9200   23.1150   33.0230 H   0  0  0  0  0  0  0  0  0  0  0  0
   36.7500   23.0790   31.5860 C   0  0  0  0  0  0  0  0  0  0  0  0
   36.8580   22.9530   30.5060 H   0  0  0  0  0  0  0  0  0  0  0  0
   36.1210   22.2960   32.3070 O   0  0  0  0  0  0  0  0  0  0  0  0
   35.7960   31.1970   35.4180 C   0  0  0  0  0  0  0  0  0  0  0  0
   35.0030   30.4120   34.5460 C   0  0  0  0  0  0  0  0  0  0  0  0
   33.6800   30.2610   34.8570 C   0  0  0  0  0  0  0  0  0  0  0  0
   33.1840   30.8640   35.9790 N   0  0  0  0  0  0  0  0  0  0  0  0
   33.9650   31.6030   36.7870 C   0  0  0  0  0  0  0  0  0  0  0  0
   35.2650   31.7750   36.5150 N   0  0  0  0  0  0  0  0  0  0  0  0
   36.8550   31.3940   35.2850 H   0  0  0  0  0  0  0  0  0  0  0  0
   33.1030   29.6670   34.1880 H   0  0  0  0  0  0  0  0  0  0  0  0
   33.4500   32.0280   37.6430 H   0  0  0  0  0  0  0  0  0  0  0  0
  2  1  1  0  0  0  0
  3  2  1  0  0  0  0
  3 25  1  0  0  0  0
  4  8  1  0  0  0  0
  4  3  2  0  0  0  0
  5  6  2  0  0  0  0
  5  4  1  0  0  0  0
  6  7  1  0  0  0  0
  7 13  1  0  0  0  0
  7  2  2  0  0  0  0
  9  5  1  0  0  0  0
 10  6  1  0  0  0  0
 11 12  1  0  0  0  0
 12 17  2  0  0  0  0
 12 13  1  0  0  0  0
 13 14  2  0  0  0  0
 14 15  1  0  0  0  0
 14 18  1  0  0  0  0
 15 19  1  0  0  0  0
 16 20  1  0  0  0  0
 16 15  2  0  0  0  0
 17 16  1  0  0  0  0
 21 17  1  0  0  0  0
 21 23  2  0  0  0  0
 22 21  1  0  0  0  0
 24 29  1  0  0  0  0
 25 26  1  0  0  0  0
 25 24  2  0  0  0  0
 26 27  2  0  0  0  0
 27 28  1  0  0  0  0
 28 32  1  0  0  0  0
 29 28  2  0  0  0  0
 30 24  1  0  0  0  0
 31 26  1  0  0  0  0
M  END
>  <minimizedAffinity>
-5.32729483

$$$$

 OpenBabel03272502043D

 32 34  0  0  0  0  0  0  0  0999 V2000
   35.9350   28.0160   34.9270 F   0  0  0  0  0  0  0  0  0  0  0  0
   35.8860   28.6780   33.7360 C   0  0  0  0  0  0  0  0  0  0  0  0
   36.6250   28.2510   32.6550 C   0  0  0  0  0  0  0  0  0  0  0  0
   36.4960   28.9280   31.4320 C   0  0  0  0  0  0  0  0  0  0  0  0
   35.6260   30.0220   31.3290 C   0  0  0  0  0  0  0  0  0  0  0  0
   34.9240   30.3910   32.4540 C   0  0  0  0  0  0  0  0  0  0  0  0
   35.0280   29.7540   33.6510 C   0  0  0  0  0  0  0  0  0  0  0  0
   37.1340   28.4850   30.6610 H   0  0  0  0  0  0  0  0  0  0  0  0
   35.6660   30.3970   30.3310 H   0  0  0  0  0  0  0  0  0  0  0  0
   34.3950   31.2260   32.1130 H   0  0  0  0  0  0  0  0  0  0  0  0
   36.1760   32.1270   35.3250 Br  0  0  0  0  0  0  0  0  0  0  0  0
   34.5230   31.2620   35.6360 C   0  0  0  0  0  0  0  0  0  0  0  0
   34.2550   30.2050   34.7900 C   0  0  0  0  0  0  0  0  0  0  0  0
   33.0810   29.4970   34.9990 C   0  0  0  0  0  0  0  0  0  0  0  0
   32.2240   29.8400   35.9970 C   0  0  0  0  0  0  0  0  0  0  0  0
   32.5380   30.9040   36.8080 C   0  0  0  0  0  0  0  0  0  0  0  0
   33.7130   31.6430   36.6350 C   0  0  0  0  0  0  0  0  0  0  0  0
   32.5820   28.6430   34.5870 H   0  0  0  0  0  0  0  0  0  0  0  0
   31.2850   29.4410   36.3270 H   0  0  0  0  0  0  0  0  0  0  0  0
   31.9500   31.3080   37.6540 H   0  0  0  0  0  0  0  0  0  0  0  0
   34.0900   32.7790   37.4720 C   0  0  0  0  0  0  0  0  0  0  0  0
   34.9800   32.7000   38.0990 H   0  0  0  0  0  0  0  0  0  0  0  0
   33.3710   33.7850   37.4270 O   0  0  0  0  0  0  0  0  0  0  0  0
   36.9300   25.8840   32.6010 C   0  0  0  0  0  0  0  0  0  0  0  0
   37.5050   27.1510   32.8660 C   0  0  0  0  0  0  0  0  0  0  0  0
   38.8060   27.1810   33.2870 C   0  0  0  0  0  0  0  0  0  0  0  0
   39.4880   26.0050   33.4310 N   0  0  0  0  0  0  0  0  0  0  0  0
   38.9130   24.8180   33.1700 C   0  0  0  0  0  0  0  0  0  0  0  0
   37.6410   24.7480   32.7560 N   0  0  0  0  0  0  0  0  0  0  0  0
   35.9110   25.7230   32.2620 H   0  0  0  0  0  0  0  0  0  0  0  0
   39.2160   28.1430   33.4800 H   0  0  0  0  0  0  0  0  0  0  0  0
   39.5620   23.9610   33.3230 H   0  0  0  0  0  0  0  0  0  0  0  0
  2  1  1  0  0  0  0
  3 25  1  0  0  0  0
  3  2  2  0  0  0  0
  4  3  1  0  0  0  0
  5  4  2  0  0  0  0
  5  6  1  0  0  0  0
  6  7  2  0  0  0  0
  7  2  1  0  0  0  0
  7 13  1  0  0  0  0
  8  4  1  0  0  0  0
  9  5  1  0  0  0  0
 10  6  1  0  0  0  0
 11 12  1  0  0  0  0
 12 17  1  0  0  0  0
 13 14  1  0  0  0  0
 13 12  2  0  0  0  0
 14 15  2  0  0  0  0
 15 19  1  0  0  0  0
 15 16  1  0  0  0  0
 16 20  1  0  0  0  0
 17 16  2  0  0  0  0
 17 21  1  0  0  0  0
 18 14  1  0  0  0  0
 21 22  1  0  0  0  0
 23 21  2  0  0  0  0
 24 29  2  0  0  0  0
 24 25  1  0  0  0  0
 25 26  2  0  0  0  0
 26 27  1  0  0  0  0
 26 31  1  0  0  0  0
 28 32  1  0  0  0  0
 28 27  2  0  0  0  0
 29 28  1  0  0  0  0
 30 24  1  0  0  0  0
M  END
>  <minimizedAffinity>
-5.24247789

$$$$

 OpenBabel03272502043D

 32 34  0  0  0  0  0  0  0  0999 V2000
   35.9690   27.7080   34.8130 F   0  0  0  0  0  0  0  0  0  0  0  0
   36.1810   28.3720   33.6420 C   0  0  0  0  0  0  0  0  0  0  0  0
   35.7940   29.6850   33.4880 C   0  0  0  0  0  0  0  0  0  0  0  0
   36.0890   30.3450   32.2850 C   0  0  0  0  0  0  0  0  0  0  0  0
   36.7670   29.6650   31.2640 C   0  0  0  0  0  0  0  0  0  0  0  0
   37.1180   28.3540   31.4910 C   0  0  0  0  0  0  0  0  0  0  0  0
   36.8470   27.6890   32.6460 C   0  0  0  0  0  0  0  0  0  0  0  0
   35.7280   31.3790   32.2980 H   0  0  0  0  0  0  0  0  0  0  0  0
   36.8970   30.3300   30.4400 H   0  0  0  0  0  0  0  0  0  0  0  0
   37.5670   28.0920   30.5830 H   0  0  0  0  0  0  0  0  0  0  0  0
   39.3220   27.1120   34.4600 Br  0  0  0  0  0  0  0  0  0  0  0  0
   38.2640   25.8040   33.5970 C   0  0  0  0  0  0  0  0  0  0  0  0
   37.2510   26.3070   32.8070 C   0  0  0  0  0  0  0  0  0  0  0  0
   36.4700   25.3990   32.1070 C   0  0  0  0  0  0  0  0  0  0  0  0
   36.6950   24.0620   32.2040 C   0  0  0  0  0  0  0  0  0  0  0  0
   37.7150   23.6150   33.0080 C   0  0  0  0  0  0  0  0  0  0  0  0
   38.5290   24.4950   33.7290 C   0  0  0  0  0  0  0  0  0  0  0  0
   35.6590   25.4200   31.4070 H   0  0  0  0  0  0  0  0  0  0  0  0
   36.2230   23.2060   31.7630 H   0  0  0  0  0  0  0  0  0  0  0  0
   38.0210   22.5670   33.1940 H   0  0  0  0  0  0  0  0  0  0  0  0
   39.6240   24.0660   34.5940 C   0  0  0  0  0  0  0  0  0  0  0  0
   40.6490   24.1360   34.2210 H   0  0  0  0  0  0  0  0  0  0  0  0
   39.3320   23.6410   35.7180 O   0  0  0  0  0  0  0  0  0  0  0  0
   35.8750   31.0970   35.4100 C   0  0  0  0  0  0  0  0  0  0  0  0
   35.0820   30.2800   34.5680 C   0  0  0  0  0  0  0  0  0  0  0  0
   33.7560   30.1530   34.8760 C   0  0  0  0  0  0  0  0  0  0  0  0
   33.2570   30.8100   35.9660 N   0  0  0  0  0  0  0  0  0  0  0  0
   34.0380   31.5780   36.7460 C   0  0  0  0  0  0  0  0  0  0  0  0
   35.3410   31.7280   36.4760 N   0  0  0  0  0  0  0  0  0  0  0  0
   36.9370   31.2800   35.2760 H   0  0  0  0  0  0  0  0  0  0  0  0
   33.1790   29.5350   34.2300 H   0  0  0  0  0  0  0  0  0  0  0  0
   33.5210   32.0450   37.5790 H   0  0  0  0  0  0  0  0  0  0  0  0
  2  1  1  0  0  0  0
  3  2  1  0  0  0  0
  3 25  1  0  0  0  0
  4  8  1  0  0  0  0
  4  3  2  0  0  0  0
  5  6  2  0  0  0  0
  5  4  1  0  0  0  0
  6  7  1  0  0  0  0
  7 13  1  0  0  0  0
  7  2  2  0  0  0  0
  9  5  1  0  0  0  0
 10  6  1  0  0  0  0
 12 17  1  0  0  0  0
 12 11  1  0  0  0  0
 13 12  2  0  0  0  0
 14 15  2  0  0  0  0
 14 13  1  0  0  0  0
 15 16  1  0  0  0  0
 16 20  1  0  0  0  0
 16 17  2  0  0  0  0
 17 21  1  0  0  0  0
 18 14  1  0  0  0  0
 19 15  1  0  0  0  0
 21 23  2  0  0  0  0
 22 21  1  0  0  0  0
 24 29  1  0  0  0  0
 25 26  1  0  0  0  0
 25 24  2  0  0  0  0
 26 27  2  0  0  0  0
 27 28  1  0  0  0  0
 28 32  1  0  0  0  0
 29 28  2  0  0  0  0
 30 24  1  0  0  0  0
 31 26  1  0  0  0  0
M  END
>  <minimizedAffinity>
-5.19831419

$$$$

 OpenBabel03272502043D

 32 34  0  0  0  0  0  0  0  0999 V2000
   39.6580   24.2200   35.3760 F   0  0  0  0  0  0  0  0  0  0  0  0
   40.7780   24.9250   35.0480 C   0  0  0  0  0  0  0  0  0  0  0  0
   42.0330   24.3800   35.2060 C   0  0  0  0  0  0  0  0  0  0  0  0
   43.1540   25.1200   34.7970 C   0  0  0  0  0  0  0  0  0  0  0  0
   42.9820   26.3950   34.2400 C   0  0  0  0  0  0  0  0  0  0  0  0
   41.6970   26.8730   34.1170 C   0  0  0  0  0  0  0  0  0  0  0  0
   40.5930   26.1780   34.5040 C   0  0  0  0  0  0  0  0  0  0  0  0
   44.0830   24.5700   34.9780 H   0  0  0  0  0  0  0  0  0  0  0  0
   43.9410   26.7910   33.9950 H   0  0  0  0  0  0  0  0  0  0  0  0
   41.8600   27.8240   33.7160 H   0  0  0  0  0  0  0  0  0  0  0  0
   39.2280   25.8880   31.7110 Br  0  0  0  0  0  0  0  0  0  0  0  0
   38.4530   26.7010   33.2320 C   0  0  0  0  0  0  0  0  0  0  0  0
   39.2730   26.7520   34.3410 C   0  0  0  0  0  0  0  0  0  0  0  0
   38.7810   27.3820   35.4750 C   0  0  0  0  0  0  0  0  0  0  0  0
   37.5330   27.9200   35.4910 C   0  0  0  0  0  0  0  0  0  0  0  0
   36.7570   27.8370   34.3600 C   0  0  0  0  0  0  0  0  0  0  0  0
   37.2150   27.2150   33.1940 C   0  0  0  0  0  0  0  0  0  0  0  0
   39.1230   27.6300   36.4600 H   0  0  0  0  0  0  0  0  0  0  0  0
   36.9680   28.4370   36.2410 H   0  0  0  0  0  0  0  0  0  0  0  0
   35.7290   28.2190   34.2150 H   0  0  0  0  0  0  0  0  0  0  0  0
   36.4280   27.1040   31.9690 C   0  0  0  0  0  0  0  0  0  0  0  0
   36.7740   26.4350   31.1780 H   0  0  0  0  0  0  0  0  0  0  0  0
   35.3960   27.7820   31.8890 O   0  0  0  0  0  0  0  0  0  0  0  0
   42.8650   22.1460   35.0790 C   0  0  0  0  0  0  0  0  0  0  0  0
   42.1080   23.0930   35.8110 C   0  0  0  0  0  0  0  0  0  0  0  0
   41.5440   22.6790   36.9870 C   0  0  0  0  0  0  0  0  0  0  0  0
   41.7320   21.3900   37.4010 N   0  0  0  0  0  0  0  0  0  0  0  0
   42.4570   20.5160   36.6820 C   0  0  0  0  0  0  0  0  0  0  0  0
   43.0250   20.8830   35.5260 N   0  0  0  0  0  0  0  0  0  0  0  0
   43.3620   22.3460   34.1350 H   0  0  0  0  0  0  0  0  0  0  0  0
   40.9790   23.4070   37.5200 H   0  0  0  0  0  0  0  0  0  0  0  0
   42.5300   19.5250   37.1200 H   0  0  0  0  0  0  0  0  0  0  0  0
  2  3  1  0  0  0  0
  2  1  1  0  0  0  0
  3 25  1  0  0  0  0
  4  8  1  0  0  0  0
  4  3  2  0  0  0  0
  5  4  1  0  0  0  0
  6  5  2  0  0  0  0
  6  7  1  0  0  0  0
  7  2  2  0  0  0  0
  9  5  1  0  0  0  0
 10  6  1  0  0  0  0
 11 12  1  0  0  0  0
 12 13  1  0  0  0  0
 13  7  1  0  0  0  0
 13 14  2  0  0  0  0
 14 15  1  0  0  0  0
 14 18  1  0  0  0  0
 15 19  1  0  0  0  0
 16 15  2  0  0  0  0
 17 12  2  0  0  0  0
 17 16  1  0  0  0  0
 20 16  1  0  0  0  0
 21 17  1  0  0  0  0
 22 21  1  0  0  0  0
 23 21  2  0  0  0  0
 24 29  2  0  0  0  0
 24 25  1  0  0  0  0
 25 26  2  0  0  0  0
 26 27  1  0  0  0  0
 26 31  1  0  0  0  0
 28 32  1  0  0  0  0
 28 27  2  0  0  0  0
 29 28  1  0  0  0  0
 30 24  1  0  0  0  0
M  END
>  <minimizedAffinity>
-5.17585564

$$$$

 OpenBabel03272502043D

 32 34  0  0  0  0  0  0  0  0999 V2000
   38.5960   25.2000   33.9280 F   0  0  0  0  0  0  0  0  0  0  0  0
   37.9030   24.1420   33.4200 C   0  0  0  0  0  0  0  0  0  0  0  0
   37.2680   24.2260   32.2010 C   0  0  0  0  0  0  0  0  0  0  0  0
   36.6190   23.0910   31.6910 C   0  0  0  0  0  0  0  0  0  0  0  0
   36.6230   21.8970   32.4240 C   0  0  0  0  0  0  0  0  0  0  0  0
   37.2760   21.8910   33.6370 C   0  0  0  0  0  0  0  0  0  0  0  0
   37.9140   22.9750   34.1540 C   0  0  0  0  0  0  0  0  0  0  0  0
   36.1600   23.2960   30.7180 H   0  0  0  0  0  0  0  0  0  0  0  0
   36.0840   21.1580   31.8760 H   0  0  0  0  0  0  0  0  0  0  0  0
   37.0990   20.9160   33.9710 H   0  0  0  0  0  0  0  0  0  0  0  0
   40.8590   21.9370   34.1880 Br  0  0  0  0  0  0  0  0  0  0  0  0
   39.8830   22.5200   35.6990 C   0  0  0  0  0  0  0  0  0  0  0  0
   38.5780   22.8880   35.4390 C   0  0  0  0  0  0  0  0  0  0  0  0
   37.7940   23.2780   36.5150 C   0  0  0  0  0  0  0  0  0  0  0  0
   38.2990   23.3020   37.7770 C   0  0  0  0  0  0  0  0  0  0  0  0
   39.6060   22.9290   37.9780 C   0  0  0  0  0  0  0  0  0  0  0  0
   40.4310   22.5250   36.9240 C   0  0  0  0  0  0  0  0  0  0  0  0
   36.7830   23.5830   36.6940 H   0  0  0  0  0  0  0  0  0  0  0  0
   37.8810   23.5640   38.7280 H   0  0  0  0  0  0  0  0  0  0  0  0
   40.1610   22.8970   38.9360 H   0  0  0  0  0  0  0  0  0  0  0  0
   41.8240   22.1190   37.0900 C   0  0  0  0  0  0  0  0  0  0  0  0
   42.6140   22.8120   36.7900 H   0  0  0  0  0  0  0  0  0  0  0  0
   42.0390   20.9990   37.5670 O   0  0  0  0  0  0  0  0  0  0  0  0
   36.1090   26.2540   31.7080 C   0  0  0  0  0  0  0  0  0  0  0  0
   37.2910   25.4910   31.5460 C   0  0  0  0  0  0  0  0  0  0  0  0
   38.2980   26.0340   30.7960 C   0  0  0  0  0  0  0  0  0  0  0  0
   38.1260   27.2730   30.2440 N   0  0  0  0  0  0  0  0  0  0  0  0
   36.9900   27.9720   30.4170 C   0  0  0  0  0  0  0  0  0  0  0  0
   35.9830   27.4740   31.1450 N   0  0  0  0  0  0  0  0  0  0  0  0
   35.2400   25.9380   32.2760 H   0  0  0  0  0  0  0  0  0  0  0  0
   39.1760   25.4430   30.6880 H   0  0  0  0  0  0  0  0  0  0  0  0
   36.9800   28.9410   29.9280 H   0  0  0  0  0  0  0  0  0  0  0  0
  2  1  1  0  0  0  0
  2  7  1  0  0  0  0
  3  2  2  0  0  0  0
  4  3  1  0  0  0  0
  4  5  2  0  0  0  0
  5  6  1  0  0  0  0
  6 10  1  0  0  0  0
  6  7  2  0  0  0  0
  7 13  1  0  0  0  0
  8  4  1  0  0  0  0
  9  5  1  0  0  0  0
 11 12  1  0  0  0  0
 12 17  1  0  0  0  0
 13 12  2  0  0  0  0
 13 14  1  0  0  0  0
 14 18  1  0  0  0  0
 14 15  2  0  0  0  0
 15 16  1  0  0  0  0
 15 19  1  0  0  0  0
 16 20  1  0  0  0  0
 17 21  1  0  0  0  0
 17 16  2  0  0  0  0
 21 23  2  0  0  0  0
 22 21  1  0  0  0  0
 24 30  1  0  0  0  0
 25 24  1  0  0  0  0
 25  3  1  0  0  0  0
 26 25  2  0  0  0  0
 27 28  2  0  0  0  0
 27 26  1  0  0  0  0
 28 29  1  0  0  0  0
 29 24  2  0  0  0  0
 31 26  1  0  0  0  0
 32 28  1  0  0  0  0
M  END
>  <minimizedAffinity>
-5.1150918

$$$$
