
 OpenBabel03272510073D

 24 25  0  0  0  0  0  0  0  0999 V2000
   36.7570   21.7640   32.8750 C   0  0  0  0  0  0  0  0  0  0  0  0
   35.6950   20.9040   33.2640 C   0  0  0  0  0  0  0  0  0  0  0  0
   35.5790   20.5900   34.6190 C   0  0  0  0  0  0  0  0  0  0  0  0
   36.4780   21.1190   35.4810 N   0  0  0  0  0  0  0  0  0  0  0  0
   37.4740   21.9300   35.0960 C   0  0  0  0  0  0  0  0  0  0  0  0
   37.6000   22.2400   33.8040 N   0  0  0  0  0  0  0  0  0  0  0  0
   38.3780   22.4360   36.0860 N   0  0  0  0  0  0  0  0  0  0  0  0
   37.9550   23.2210   37.2200 C   0  0  0  0  0  0  0  0  0  0  0  0
   39.1820   23.3250   38.0740 C   0  0  0  0  0  0  0  0  0  0  0  0
   40.1760   22.3340   37.5080 C   0  0  0  0  0  0  0  0  0  0  0  0
   39.8260   22.2170   36.0630 C   0  0  0  0  0  0  0  0  0  0  0  0
   36.9050   22.0480   31.8400 H   0  0  0  0  0  0  0  0  0  0  0  0
   34.7860   19.9460   34.9140 H   0  0  0  0  0  0  0  0  0  0  0  0
   37.2020   22.6210   37.7840 H   0  0  0  0  0  0  0  0  0  0  0  0
   37.5390   24.2030   36.9430 H   0  0  0  0  0  0  0  0  0  0  0  0
   39.5590   24.3640   38.0270 H   0  0  0  0  0  0  0  0  0  0  0  0
   38.9970   23.0960   39.1360 H   0  0  0  0  0  0  0  0  0  0  0  0
   40.1440   21.3610   38.0380 H   0  0  0  0  0  0  0  0  0  0  0  0
   41.1920   22.7850   37.5650 H   0  0  0  0  0  0  0  0  0  0  0  0
   39.9490   21.1740   35.7110 H   0  0  0  0  0  0  0  0  0  0  0  0
   40.3070   22.9470   35.4080 H   0  0  0  0  0  0  0  0  0  0  0  0
   34.7900   20.3950   32.2570 C   0  0  0  0  0  0  0  0  0  0  0  0
   34.1760   21.1210   31.7430 H   0  0  0  0  0  0  0  0  0  0  0  0
   34.8030   19.1500   32.0740 O   0  0  0  0  0  0  0  0  0  0  0  0
  1  2  2  0  0  0  0
  1  6  1  0  0  0  0
  2  3  1  0  0  0  0
  3 13  1  0  0  0  0
  3  4  2  0  0  0  0
  5  4  1  0  0  0  0
  5  7  1  0  0  0  0
  6  5  2  0  0  0  0
  7  8  1  0  0  0  0
  8 14  1  0  0  0  0
  8  9  1  0  0  0  0
  9 17  1  0  0  0  0
 10 19  1  0  0  0  0
 10 18  1  0  0  0  0
 10  9  1  0  0  0  0
 11  7  1  0  0  0  0
 11 10  1  0  0  0  0
 12  1  1  0  0  0  0
 15  8  1  0  0  0  0
 16  9  1  0  0  0  0
 20 11  1  0  0  0  0
 21 11  1  0  0  0  0
 22  2  1  0  0  0  0
 23 22  1  0  0  0  0
 24 22  2  0  0  0  0
M  END
>  <minimizedAffinity>
-4.1789093

$$$$

 OpenBabel03272510073D

 24 25  0  0  0  0  0  0  0  0999 V2000
   37.6170   23.5370   32.6150 C   0  0  0  0  0  0  0  0  0  0  0  0
   36.8390   22.3700   32.3930 C   0  0  0  0  0  0  0  0  0  0  0  0
   36.6820   21.4830   33.4590 C   0  0  0  0  0  0  0  0  0  0  0  0
   37.2760   21.7830   34.6370 N   0  0  0  0  0  0  0  0  0  0  0  0
   38.0070   22.8910   34.8290 C   0  0  0  0  0  0  0  0  0  0  0  0
   38.1680   23.7490   33.8200 N   0  0  0  0  0  0  0  0  0  0  0  0
   38.5990   23.1160   36.1140 N   0  0  0  0  0  0  0  0  0  0  0  0
   37.8350   23.2080   37.3350 C   0  0  0  0  0  0  0  0  0  0  0  0
   38.8720   23.2200   38.4180 C   0  0  0  0  0  0  0  0  0  0  0  0
   40.1780   22.8370   37.7560 C   0  0  0  0  0  0  0  0  0  0  0  0
   40.0370   23.2770   36.3380 C   0  0  0  0  0  0  0  0  0  0  0  0
   37.7790   24.2670   31.8310 H   0  0  0  0  0  0  0  0  0  0  0  0
   36.1000   20.6080   33.2960 H   0  0  0  0  0  0  0  0  0  0  0  0
   37.2490   22.2640   37.4390 H   0  0  0  0  0  0  0  0  0  0  0  0
   37.1680   24.0840   37.3700 H   0  0  0  0  0  0  0  0  0  0  0  0
   38.9110   24.2330   38.8590 H   0  0  0  0  0  0  0  0  0  0  0  0
   38.6550   22.5170   39.2380 H   0  0  0  0  0  0  0  0  0  0  0  0
   40.3930   21.7530   37.8500 H   0  0  0  0  0  0  0  0  0  0  0  0
   40.9920   23.4450   38.2110 H   0  0  0  0  0  0  0  0  0  0  0  0
   40.5140   22.5510   35.6500 H   0  0  0  0  0  0  0  0  0  0  0  0
   40.3360   24.3090   36.1410 H   0  0  0  0  0  0  0  0  0  0  0  0
   36.2490   22.1490   31.0900 C   0  0  0  0  0  0  0  0  0  0  0  0
   36.3360   22.9530   30.3740 H   0  0  0  0  0  0  0  0  0  0  0  0
   35.6870   21.0370   30.9150 O   0  0  0  0  0  0  0  0  0  0  0  0
  1  6  1  0  0  0  0
  2  1  2  0  0  0  0
  2  3  1  0  0  0  0
  3  4  2  0  0  0  0
  4  5  1  0  0  0  0
  5  7  1  0  0  0  0
  6  5  2  0  0  0  0
  7 11  1  0  0  0  0
  7  8  1  0  0  0  0
  8 15  1  0  0  0  0
  8 14  1  0  0  0  0
  8  9  1  0  0  0  0
  9 16  1  0  0  0  0
  9 17  1  0  0  0  0
 10 18  1  0  0  0  0
 10 19  1  0  0  0  0
 10  9  1  0  0  0  0
 11 10  1  0  0  0  0
 12  1  1  0  0  0  0
 13  3  1  0  0  0  0
 20 11  1  0  0  0  0
 21 11  1  0  0  0  0
 22  2  1  0  0  0  0
 23 22  1  0  0  0  0
 24 22  2  0  0  0  0
M  END
>  <minimizedAffinity>
-3.77262235

$$$$

 OpenBabel03272510073D

 24 25  0  0  0  0  0  0  0  0999 V2000
   37.6590   25.6170   33.1570 C   0  0  0  0  0  0  0  0  0  0  0  0
   38.5160   26.7370   32.9910 C   0  0  0  0  0  0  0  0  0  0  0  0
   39.5640   26.8900   33.9010 C   0  0  0  0  0  0  0  0  0  0  0  0
   39.7030   25.9700   34.8820 N   0  0  0  0  0  0  0  0  0  0  0  0
   38.8840   24.9180   35.0230 C   0  0  0  0  0  0  0  0  0  0  0  0
   37.8770   24.7560   34.1620 N   0  0  0  0  0  0  0  0  0  0  0  0
   39.1140   24.0000   36.0990 N   0  0  0  0  0  0  0  0  0  0  0  0
   40.3480   23.2730   36.2730 C   0  0  0  0  0  0  0  0  0  0  0  0
   40.2100   22.6300   37.6200 C   0  0  0  0  0  0  0  0  0  0  0  0
   39.0040   23.2720   38.2730 C   0  0  0  0  0  0  0  0  0  0  0  0
   38.1310   23.6940   37.1400 C   0  0  0  0  0  0  0  0  0  0  0  0
   36.8260   25.4370   32.4870 H   0  0  0  0  0  0  0  0  0  0  0  0
   40.2080   27.7280   33.7800 H   0  0  0  0  0  0  0  0  0  0  0  0
   41.1740   24.0200   36.3380 H   0  0  0  0  0  0  0  0  0  0  0  0
   40.5460   22.5460   35.4680 H   0  0  0  0  0  0  0  0  0  0  0  0
   40.0770   21.5410   37.4810 H   0  0  0  0  0  0  0  0  0  0  0  0
   41.0940   22.7690   38.2630 H   0  0  0  0  0  0  0  0  0  0  0  0
   39.2870   24.1150   38.9350 H   0  0  0  0  0  0  0  0  0  0  0  0
   38.4550   22.4880   38.8390 H   0  0  0  0  0  0  0  0  0  0  0  0
   37.6410   24.6630   37.3600 H   0  0  0  0  0  0  0  0  0  0  0  0
   37.4300   22.9340   36.7860 H   0  0  0  0  0  0  0  0  0  0  0  0
   38.2740   27.6600   31.9050 C   0  0  0  0  0  0  0  0  0  0  0  0
   39.0380   27.7280   31.1440 H   0  0  0  0  0  0  0  0  0  0  0  0
   37.1920   28.3020   31.9480 O   0  0  0  0  0  0  0  0  0  0  0  0
  1  6  1  0  0  0  0
  2  1  2  0  0  0  0
  2  3  1  0  0  0  0
  3  4  2  0  0  0  0
  4  5  1  0  0  0  0
  5  7  1  0  0  0  0
  6  5  2  0  0  0  0
  7  8  1  0  0  0  0
  7 11  1  0  0  0  0
  8 14  1  0  0  0  0
  8  9  1  0  0  0  0
  9 17  1  0  0  0  0
  9 10  1  0  0  0  0
 10 19  1  0  0  0  0
 10 18  1  0  0  0  0
 11 20  1  0  0  0  0
 11 10  1  0  0  0  0
 12  1  1  0  0  0  0
 13  3  1  0  0  0  0
 15  8  1  0  0  0  0
 16  9  1  0  0  0  0
 21 11  1  0  0  0  0
 22 24  2  0  0  0  0
 22  2  1  0  0  0  0
 23 22  1  0  0  0  0
M  END
>  <minimizedAffinity>
-3.72389603

$$$$

 OpenBabel03272510073D

 24 25  0  0  0  0  0  0  0  0999 V2000
   38.1170   25.0780   36.3330 C   0  0  0  0  0  0  0  0  0  0  0  0
   38.1960   23.8000   36.9470 C   0  0  0  0  0  0  0  0  0  0  0  0
   38.1600   22.6780   36.1170 C   0  0  0  0  0  0  0  0  0  0  0  0
   38.0520   22.8700   34.7820 N   0  0  0  0  0  0  0  0  0  0  0  0
   37.9790   24.0850   34.2190 C   0  0  0  0  0  0  0  0  0  0  0  0
   38.0120   25.1680   34.9980 N   0  0  0  0  0  0  0  0  0  0  0  0
   37.8630   24.1820   32.7940 N   0  0  0  0  0  0  0  0  0  0  0  0
   38.8340   23.6330   31.8790 C   0  0  0  0  0  0  0  0  0  0  0  0
   38.1920   23.7760   30.5320 C   0  0  0  0  0  0  0  0  0  0  0  0
   36.7460   24.1410   30.7900 C   0  0  0  0  0  0  0  0  0  0  0  0
   36.7530   24.8430   32.1050 C   0  0  0  0  0  0  0  0  0  0  0  0
   38.1390   25.9900   36.9170 H   0  0  0  0  0  0  0  0  0  0  0  0
   38.2190   21.7190   36.5740 H   0  0  0  0  0  0  0  0  0  0  0  0
   38.9240   22.5430   32.0960 H   0  0  0  0  0  0  0  0  0  0  0  0
   39.8190   24.1230   31.9390 H   0  0  0  0  0  0  0  0  0  0  0  0
   38.7250   24.5630   29.9670 H   0  0  0  0  0  0  0  0  0  0  0  0
   38.2370   22.8560   29.9260 H   0  0  0  0  0  0  0  0  0  0  0  0
   36.0820   23.2530   30.7810 H   0  0  0  0  0  0  0  0  0  0  0  0
   36.4300   24.8820   30.0220 H   0  0  0  0  0  0  0  0  0  0  0  0
   35.8550   24.5800   32.6980 H   0  0  0  0  0  0  0  0  0  0  0  0
   36.9290   25.9210   32.0550 H   0  0  0  0  0  0  0  0  0  0  0  0
   38.3090   23.7120   38.3870 C   0  0  0  0  0  0  0  0  0  0  0  0
   38.6130   22.7580   38.7930 H   0  0  0  0  0  0  0  0  0  0  0  0
   38.0410   24.7580   39.0320 O   0  0  0  0  0  0  0  0  0  0  0  0
  1 12  1  0  0  0  0
  1  2  1  0  0  0  0
  2 22  1  0  0  0  0
  3 13  1  0  0  0  0
  3  2  2  0  0  0  0
  4  3  1  0  0  0  0
  5  4  2  0  0  0  0
  5  6  1  0  0  0  0
  6  1  2  0  0  0  0
  7  5  1  0  0  0  0
  8 15  1  0  0  0  0
  8 14  1  0  0  0  0
  8  7  1  0  0  0  0
  9 10  1  0  0  0  0
  9  8  1  0  0  0  0
 10 11  1  0  0  0  0
 11 20  1  0  0  0  0
 11  7  1  0  0  0  0
 16  9  1  0  0  0  0
 17  9  1  0  0  0  0
 18 10  1  0  0  0  0
 19 10  1  0  0  0  0
 21 11  1  0  0  0  0
 22 23  1  0  0  0  0
 22 24  2  0  0  0  0
M  END
>  <minimizedAffinity>
-3.71957397

$$$$

 OpenBabel03272510073D

 24 25  0  0  0  0  0  0  0  0999 V2000
   38.4740   22.5340   36.4450 C   0  0  0  0  0  0  0  0  0  0  0  0
   39.8300   22.3910   36.0470 C   0  0  0  0  0  0  0  0  0  0  0  0
   40.0820   22.0240   34.7240 C   0  0  0  0  0  0  0  0  0  0  0  0
   39.0270   21.8250   33.9000 N   0  0  0  0  0  0  0  0  0  0  0  0
   37.7530   21.9650   34.2930 C   0  0  0  0  0  0  0  0  0  0  0  0
   37.4940   22.3160   35.5550 N   0  0  0  0  0  0  0  0  0  0  0  0
   36.7050   21.7280   33.3450 N   0  0  0  0  0  0  0  0  0  0  0  0
   36.5770   22.4550   32.1050 C   0  0  0  0  0  0  0  0  0  0  0  0
   35.4990   21.7260   31.3610 C   0  0  0  0  0  0  0  0  0  0  0  0
   35.2710   20.4300   32.1090 C   0  0  0  0  0  0  0  0  0  0  0  0
   35.6510   20.7270   33.5200 C   0  0  0  0  0  0  0  0  0  0  0  0
   38.2070   22.8170   37.4560 H   0  0  0  0  0  0  0  0  0  0  0  0
   41.0960   21.9160   34.4220 H   0  0  0  0  0  0  0  0  0  0  0  0
   37.5280   22.3240   31.5370 H   0  0  0  0  0  0  0  0  0  0  0  0
   36.3540   23.5250   32.2450 H   0  0  0  0  0  0  0  0  0  0  0  0
   34.5930   22.3590   31.3400 H   0  0  0  0  0  0  0  0  0  0  0  0
   35.7640   21.5050   30.3140 H   0  0  0  0  0  0  0  0  0  0  0  0
   35.8500   19.5900   31.6760 H   0  0  0  0  0  0  0  0  0  0  0  0
   34.1800   20.2090   32.1010 H   0  0  0  0  0  0  0  0  0  0  0  0
   36.1590   19.8580   33.9830 H   0  0  0  0  0  0  0  0  0  0  0  0
   34.8480   21.1310   34.1420 H   0  0  0  0  0  0  0  0  0  0  0  0
   40.8800   22.6290   37.0120 C   0  0  0  0  0  0  0  0  0  0  0  0
   41.2800   23.6320   37.0600 H   0  0  0  0  0  0  0  0  0  0  0  0
   41.2320   21.6410   37.7080 O   0  0  0  0  0  0  0  0  0  0  0  0
  1 12  1  0  0  0  0
  2  1  1  0  0  0  0
  2 22  1  0  0  0  0
  3  2  2  0  0  0  0
  4  5  2  0  0  0  0
  4  3  1  0  0  0  0
  5  6  1  0  0  0  0
  6  1  2  0  0  0  0
  7 11  1  0  0  0  0
  7  5  1  0  0  0  0
  8 15  1  0  0  0  0
  8  7  1  0  0  0  0
  9  8  1  0  0  0  0
  9 10  1  0  0  0  0
 10 11  1  0  0  0  0
 11 20  1  0  0  0  0
 11 21  1  0  0  0  0
 13  3  1  0  0  0  0
 14  8  1  0  0  0  0
 16  9  1  0  0  0  0
 17  9  1  0  0  0  0
 18 10  1  0  0  0  0
 19 10  1  0  0  0  0
 22 23  1  0  0  0  0
 22 24  2  0  0  0  0
M  END
>  <minimizedAffinity>
-3.71081662

$$$$

 OpenBabel03272510073D

 24 25  0  0  0  0  0  0  0  0999 V2000
   37.1750   25.4890   32.0480 C   0  0  0  0  0  0  0  0  0  0  0  0
   36.0990   26.2140   31.4700 C   0  0  0  0  0  0  0  0  0  0  0  0
   35.0280   25.4820   30.9540 C   0  0  0  0  0  0  0  0  0  0  0  0
   35.0750   24.1320   31.0320 N   0  0  0  0  0  0  0  0  0  0  0  0
   36.1000   23.4640   31.5820 C   0  0  0  0  0  0  0  0  0  0  0  0
   37.1320   24.1490   32.0800 N   0  0  0  0  0  0  0  0  0  0  0  0
   36.0560   22.0330   31.6140 N   0  0  0  0  0  0  0  0  0  0  0  0
   35.0050   21.2840   32.2590 C   0  0  0  0  0  0  0  0  0  0  0  0
   35.2570   19.8650   31.8460 C   0  0  0  0  0  0  0  0  0  0  0  0
   36.2850   19.9240   30.7370 C   0  0  0  0  0  0  0  0  0  0  0  0
   37.0650   21.1680   30.9980 C   0  0  0  0  0  0  0  0  0  0  0  0
   38.0370   25.9940   32.4670 H   0  0  0  0  0  0  0  0  0  0  0  0
   34.2200   26.0210   30.5200 H   0  0  0  0  0  0  0  0  0  0  0  0
   34.0370   21.6010   31.8050 H   0  0  0  0  0  0  0  0  0  0  0  0
   34.9810   21.4150   33.3530 H   0  0  0  0  0  0  0  0  0  0  0  0
   35.6250   19.3010   32.7240 H   0  0  0  0  0  0  0  0  0  0  0  0
   34.3540   19.3480   31.4840 H   0  0  0  0  0  0  0  0  0  0  0  0
   35.8170   19.9140   29.7320 H   0  0  0  0  0  0  0  0  0  0  0  0
   36.9830   19.0660   30.8610 H   0  0  0  0  0  0  0  0  0  0  0  0
   37.3310   21.6740   30.0490 H   0  0  0  0  0  0  0  0  0  0  0  0
   37.9190   21.0480   31.6700 H   0  0  0  0  0  0  0  0  0  0  0  0
   36.1530   27.6590   31.4390 C   0  0  0  0  0  0  0  0  0  0  0  0
   36.9030   28.1040   30.8010 H   0  0  0  0  0  0  0  0  0  0  0  0
   35.3190   28.2640   32.1620 O   0  0  0  0  0  0  0  0  0  0  0  0
  1  6  1  0  0  0  0
  1 12  1  0  0  0  0
  2  1  2  0  0  0  0
  3  4  2  0  0  0  0
  3  2  1  0  0  0  0
  4  5  1  0  0  0  0
  5  7  1  0  0  0  0
  5  6  2  0  0  0  0
  7  8  1  0  0  0  0
  8 15  1  0  0  0  0
  9  8  1  0  0  0  0
  9 16  1  0  0  0  0
 10 19  1  0  0  0  0
 10 11  1  0  0  0  0
 10  9  1  0  0  0  0
 11  7  1  0  0  0  0
 11 21  1  0  0  0  0
 13  3  1  0  0  0  0
 14  8  1  0  0  0  0
 17  9  1  0  0  0  0
 18 10  1  0  0  0  0
 20 11  1  0  0  0  0
 22  2  1  0  0  0  0
 22 24  2  0  0  0  0
 23 22  1  0  0  0  0
M  END
>  <minimizedAffinity>
-3.69520307

$$$$

 OpenBabel03272510073D

 24 25  0  0  0  0  0  0  0  0999 V2000
   36.9030   24.4730   32.3600 C   0  0  0  0  0  0  0  0  0  0  0  0
   35.9130   23.9360   31.4950 C   0  0  0  0  0  0  0  0  0  0  0  0
   35.0560   24.8320   30.8550 C   0  0  0  0  0  0  0  0  0  0  0  0
   35.2150   26.1540   31.0930 N   0  0  0  0  0  0  0  0  0  0  0  0
   36.1560   26.6440   31.9140 C   0  0  0  0  0  0  0  0  0  0  0  0
   36.9840   25.8010   32.5340 N   0  0  0  0  0  0  0  0  0  0  0  0
   36.2400   28.0620   32.1020 N   0  0  0  0  0  0  0  0  0  0  0  0
   36.4580   28.9960   31.0240 C   0  0  0  0  0  0  0  0  0  0  0  0
   36.2500   30.3400   31.6530 C   0  0  0  0  0  0  0  0  0  0  0  0
   35.6310   30.0800   33.0100 C   0  0  0  0  0  0  0  0  0  0  0  0
   36.1150   28.7250   33.4020 C   0  0  0  0  0  0  0  0  0  0  0  0
   37.6010   23.8340   32.8890 H   0  0  0  0  0  0  0  0  0  0  0  0
   34.3130   24.4330   30.2070 H   0  0  0  0  0  0  0  0  0  0  0  0
   35.6450   28.8430   30.2760 H   0  0  0  0  0  0  0  0  0  0  0  0
   37.4460   28.8920   30.5480 H   0  0  0  0  0  0  0  0  0  0  0  0
   37.2280   30.8490   31.7330 H   0  0  0  0  0  0  0  0  0  0  0  0
   35.5880   30.9990   31.0670 H   0  0  0  0  0  0  0  0  0  0  0  0
   34.5250   30.1520   32.9860 H   0  0  0  0  0  0  0  0  0  0  0  0
   36.0620   30.8070   33.7350 H   0  0  0  0  0  0  0  0  0  0  0  0
   35.3220   28.1620   33.9320 H   0  0  0  0  0  0  0  0  0  0  0  0
   37.0730   28.7080   33.9280 H   0  0  0  0  0  0  0  0  0  0  0  0
   35.8330   22.5030   31.3140 C   0  0  0  0  0  0  0  0  0  0  0  0
   36.2730   22.1010   30.4120 H   0  0  0  0  0  0  0  0  0  0  0  0
   35.2570   21.8560   32.2270 O   0  0  0  0  0  0  0  0  0  0  0  0
  1  6  1  0  0  0  0
  1 12  1  0  0  0  0
  2  1  2  0  0  0  0
  3  4  2  0  0  0  0
  3  2  1  0  0  0  0
  4  5  1  0  0  0  0
  5  7  1  0  0  0  0
  5  6  2  0  0  0  0
  7 11  1  0  0  0  0
  8  9  1  0  0  0  0
  8  7  1  0  0  0  0
  9 16  1  0  0  0  0
  9 10  1  0  0  0  0
 10 11  1  0  0  0  0
 10 19  1  0  0  0  0
 11 21  1  0  0  0  0
 11 20  1  0  0  0  0
 13  3  1  0  0  0  0
 14  8  1  0  0  0  0
 15  8  1  0  0  0  0
 17  9  1  0  0  0  0
 18 10  1  0  0  0  0
 22  2  1  0  0  0  0
 22 24  2  0  0  0  0
 23 22  1  0  0  0  0
M  END
>  <minimizedAffinity>
-3.67080832

$$$$

 OpenBabel03272510073D

 24 25  0  0  0  0  0  0  0  0999 V2000
   36.0750   23.8990   31.4390 C   0  0  0  0  0  0  0  0  0  0  0  0
   36.2860   22.5530   31.8410 C   0  0  0  0  0  0  0  0  0  0  0  0
   37.1600   22.3240   32.9040 C   0  0  0  0  0  0  0  0  0  0  0  0
   37.7540   23.3890   33.4890 N   0  0  0  0  0  0  0  0  0  0  0  0
   37.5430   24.6540   33.0970 C   0  0  0  0  0  0  0  0  0  0  0  0
   36.7100   24.8910   32.0820 N   0  0  0  0  0  0  0  0  0  0  0  0
   38.2230   25.7140   33.7800 N   0  0  0  0  0  0  0  0  0  0  0  0
   38.0970   25.9570   35.1960 C   0  0  0  0  0  0  0  0  0  0  0  0
   39.1380   26.9940   35.4870 C   0  0  0  0  0  0  0  0  0  0  0  0
   40.0090   27.0760   34.2510 C   0  0  0  0  0  0  0  0  0  0  0  0
   39.1220   26.6670   33.1250 C   0  0  0  0  0  0  0  0  0  0  0  0
   35.4090   24.1480   30.6210 H   0  0  0  0  0  0  0  0  0  0  0  0
   37.3210   21.3170   33.2080 H   0  0  0  0  0  0  0  0  0  0  0  0
   38.3950   25.0210   35.7270 H   0  0  0  0  0  0  0  0  0  0  0  0
   37.0840   26.2670   35.4990 H   0  0  0  0  0  0  0  0  0  0  0  0
   38.6320   27.9530   35.7030 H   0  0  0  0  0  0  0  0  0  0  0  0
   39.7630   26.7540   36.3620 H   0  0  0  0  0  0  0  0  0  0  0  0
   40.9150   26.4430   34.3360 H   0  0  0  0  0  0  0  0  0  0  0  0
   40.2820   28.1420   34.0860 H   0  0  0  0  0  0  0  0  0  0  0  0
   39.6800   26.0660   32.3810 H   0  0  0  0  0  0  0  0  0  0  0  0
   38.5450   27.4770   32.6710 H   0  0  0  0  0  0  0  0  0  0  0  0
   35.5970   21.4890   31.1430 C   0  0  0  0  0  0  0  0  0  0  0  0
   35.8400   21.3550   30.0980 H   0  0  0  0  0  0  0  0  0  0  0  0
   34.7760   20.8180   31.8200 O   0  0  0  0  0  0  0  0  0  0  0  0
  1  2  2  0  0  0  0
  1  6  1  0  0  0  0
  2  3  1  0  0  0  0
  3 13  1  0  0  0  0
  3  4  2  0  0  0  0
  5  4  1  0  0  0  0
  5  7  1  0  0  0  0
  6  5  2  0  0  0  0
  7  8  1  0  0  0  0
  8  9  1  0  0  0  0
  8 15  1  0  0  0  0
  8 14  1  0  0  0  0
  9 16  1  0  0  0  0
  9 17  1  0  0  0  0
 10 18  1  0  0  0  0
 10  9  1  0  0  0  0
 11  7  1  0  0  0  0
 11 10  1  0  0  0  0
 12  1  1  0  0  0  0
 19 10  1  0  0  0  0
 20 11  1  0  0  0  0
 21 11  1  0  0  0  0
 22 24  2  0  0  0  0
 22  2  1  0  0  0  0
 23 22  1  0  0  0  0
M  END
>  <minimizedAffinity>
-3.65357876

$$$$

 OpenBabel03272510073D

 24 25  0  0  0  0  0  0  0  0999 V2000
   37.0270   22.0610   33.0310 C   0  0  0  0  0  0  0  0  0  0  0  0
   36.2740   22.4760   31.9010 C   0  0  0  0  0  0  0  0  0  0  0  0
   36.3040   23.8300   31.5640 C   0  0  0  0  0  0  0  0  0  0  0  0
   37.0440   24.6660   32.3280 N   0  0  0  0  0  0  0  0  0  0  0  0
   37.7490   24.2560   33.3920 C   0  0  0  0  0  0  0  0  0  0  0  0
   37.7320   22.9650   33.7280 N   0  0  0  0  0  0  0  0  0  0  0  0
   38.4990   25.2220   34.1400 N   0  0  0  0  0  0  0  0  0  0  0  0
   39.5340   26.0450   33.5620 C   0  0  0  0  0  0  0  0  0  0  0  0
   39.8660   27.0310   34.6410 C   0  0  0  0  0  0  0  0  0  0  0  0
   38.7800   26.8930   35.6880 C   0  0  0  0  0  0  0  0  0  0  0  0
   38.3040   25.4850   35.5670 C   0  0  0  0  0  0  0  0  0  0  0  0
   37.0480   21.0250   33.3480 H   0  0  0  0  0  0  0  0  0  0  0  0
   35.7410   24.1450   30.7180 H   0  0  0  0  0  0  0  0  0  0  0  0
   39.0810   26.6120   32.7150 H   0  0  0  0  0  0  0  0  0  0  0  0
   40.4100   25.4710   33.2200 H   0  0  0  0  0  0  0  0  0  0  0  0
   40.8660   26.7890   35.0460 H   0  0  0  0  0  0  0  0  0  0  0  0
   39.9040   28.0730   34.2850 H   0  0  0  0  0  0  0  0  0  0  0  0
   37.9690   27.6350   35.5480 H   0  0  0  0  0  0  0  0  0  0  0  0
   39.2480   26.9980   36.6920 H   0  0  0  0  0  0  0  0  0  0  0  0
   37.2080   25.4260   35.7190 H   0  0  0  0  0  0  0  0  0  0  0  0
   38.8560   24.7550   36.1640 H   0  0  0  0  0  0  0  0  0  0  0  0
   35.5170   21.4950   31.1540 C   0  0  0  0  0  0  0  0  0  0  0  0
   35.6340   21.5050   30.0800 H   0  0  0  0  0  0  0  0  0  0  0  0
   34.7920   20.7190   31.8290 O   0  0  0  0  0  0  0  0  0  0  0  0
  1 12  1  0  0  0  0
  1  6  1  0  0  0  0
  2  1  2  0  0  0  0
  3  2  1  0  0  0  0
  3  4  2  0  0  0  0
  4  5  1  0  0  0  0
  5  6  2  0  0  0  0
  5  7  1  0  0  0  0
  7 11  1  0  0  0  0
  8  7  1  0  0  0  0
  8  9  1  0  0  0  0
  9 16  1  0  0  0  0
  9 10  1  0  0  0  0
 10 19  1  0  0  0  0
 11 10  1  0  0  0  0
 11 20  1  0  0  0  0
 11 21  1  0  0  0  0
 13  3  1  0  0  0  0
 14  8  1  0  0  0  0
 15  8  1  0  0  0  0
 17  9  1  0  0  0  0
 18 10  1  0  0  0  0
 22 24  2  0  0  0  0
 22  2  1  0  0  0  0
 23 22  1  0  0  0  0
M  END
>  <minimizedAffinity>
-3.59815812

$$$$
