
 OpenBabel03272505233D

 29 31  0  0  0  0  0  0  0  0999 V2000
   37.9680   30.8810   47.2780 Br  0  0  0  0  0  0  0  0  0  0  0  0
   36.3370   30.4090   46.3930 C   0  0  0  0  0  0  0  0  0  0  0  0
   35.2910   29.8890   47.1230 C   0  0  0  0  0  0  0  0  0  0  0  0
   34.1160   29.5670   46.4370 C   0  0  0  0  0  0  0  0  0  0  0  0
   34.0280   29.7720   45.0790 C   0  0  0  0  0  0  0  0  0  0  0  0
   35.0920   30.2980   44.3500 C   0  0  0  0  0  0  0  0  0  0  0  0
   36.2490   30.6130   45.0360 C   0  0  0  0  0  0  0  0  0  0  0  0
   33.3070   29.1610   47.0240 H   0  0  0  0  0  0  0  0  0  0  0  0
   33.1090   29.5160   44.5680 H   0  0  0  0  0  0  0  0  0  0  0  0
   35.0440   30.4660   43.2870 H   0  0  0  0  0  0  0  0  0  0  0  0
   36.8580   29.2200   50.4900 C   0  0  0  0  0  0  0  0  0  0  0  0
   36.6920   29.3790   49.1110 C   0  0  0  0  0  0  0  0  0  0  0  0
   35.4810   29.7120   48.5550 C   0  0  0  0  0  0  0  0  0  0  0  0
   34.4390   29.8790   49.4340 N   0  0  0  0  0  0  0  0  0  0  0  0
   34.5930   29.7260   50.7670 C   0  0  0  0  0  0  0  0  0  0  0  0
   35.7860   29.4010   51.2930 N   0  0  0  0  0  0  0  0  0  0  0  0
   37.8050   28.9590   50.9460 H   0  0  0  0  0  0  0  0  0  0  0  0
   37.5780   29.2050   48.5560 H   0  0  0  0  0  0  0  0  0  0  0  0
   33.7200   29.8750   51.3970 H   0  0  0  0  0  0  0  0  0  0  0  0
   37.3850   31.1610   44.3120 C   0  0  0  0  0  0  0  0  0  0  0  0
   37.6710   32.4810   44.1110 C   0  0  0  0  0  0  0  0  0  0  0  0
   38.7990   32.6150   43.3980 N   0  0  0  0  0  0  0  0  0  0  0  0
   39.2440   31.3780   43.1370 C   0  0  0  0  0  0  0  0  0  0  0  0
   38.4000   30.4790   43.6840 N   0  0  0  0  0  0  0  0  0  0  0  0
   37.0610   33.3110   44.4820 H   0  0  0  0  0  0  0  0  0  0  0  0
   39.2720   33.5010   43.0860 H   0  0  0  0  0  0  0  0  0  0  0  0
   40.4160   30.9650   42.4060 C   0  0  0  0  0  0  0  0  0  0  0  0
   40.8370   31.5060   41.5750 H   0  0  0  0  0  0  0  0  0  0  0  0
   41.0950   29.9260   42.6420 O   0  0  0  0  0  0  0  0  0  0  0  0
  2  3  1  0  0  0  0
  2  1  1  0  0  0  0
  3 13  1  0  0  0  0
  4  8  1  0  0  0  0
  4  3  2  0  0  0  0
  5  4  1  0  0  0  0
  6  7  1  0  0  0  0
  6  5  2  0  0  0  0
  7  2  2  0  0  0  0
  9  5  1  0  0  0  0
 10  6  1  0  0  0  0
 11 17  1  0  0  0  0
 11 16  1  0  0  0  0
 12 11  2  0  0  0  0
 13 12  1  0  0  0  0
 13 14  2  0  0  0  0
 14 15  1  0  0  0  0
 15 16  2  0  0  0  0
 15 19  1  0  0  0  0
 18 12  1  0  0  0  0
 20  7  1  0  0  0  0
 21 20  2  0  0  0  0
 21 25  1  0  0  0  0
 22 21  1  0  0  0  0
 23 22  1  0  0  0  0
 23 24  2  0  0  0  0
 24 20  1  0  0  0  0
 26 22  1  0  0  0  0
 27 29  2  0  0  0  0
 27 23  1  0  0  0  0
 28 27  1  0  0  0  0
M  END
>  <minimizedAffinity>
-4.75361252

>  <minimizedRMSD>
1.8392545

$$$$
