
 OpenBabel03272508413D

 36 38  0  0  1  0  0  0  0  0999 V2000
   36.3730   28.0460   32.2870 N   0  0  0  0  0  0  0  0  0  0  0  0
   35.8490   28.6750   33.4930 C   0  0  0  0  0  0  0  0  0  0  0  0
   34.9950   29.8380   33.2510 C   0  0  2  0  0  0  0  0  0  0  0  0
   35.5690   30.7490   32.2200 N   0  0  0  0  0  0  0  0  0  0  0  0
   35.8030   29.9290   31.0160 C   0  0  0  0  0  0  0  0  0  0  0  0
   36.9480   29.0310   31.4380 C   0  0  0  0  0  0  0  0  0  0  0  0
   36.8240   29.0720   33.9380 H   0  0  0  0  0  0  0  0  0  0  0  0
   35.3820   27.9060   34.1030 H   0  0  0  0  0  0  0  0  0  0  0  0
   34.0280   29.6240   32.7610 H   0  0  0  0  0  0  0  0  0  0  0  0
   36.4650   31.1490   32.5640 H   0  0  0  0  0  0  0  0  0  0  0  0
   34.8870   29.3100   30.9080 H   0  0  0  0  0  0  0  0  0  0  0  0
   36.0060   30.5490   30.1430 H   0  0  0  0  0  0  0  0  0  0  0  0
   37.7160   29.6550   31.9310 H   0  0  0  0  0  0  0  0  0  0  0  0
   37.4260   28.5200   30.5840 H   0  0  0  0  0  0  0  0  0  0  0  0
   32.3220   29.5270   34.5180 Cl  0  0  0  0  0  0  0  0  0  0  0  0
   33.6240   30.5070   35.1890 C   0  0  0  0  0  0  0  0  0  0  0  0
   34.7910   30.5860   34.4780 C   0  0  0  0  0  0  0  0  0  0  0  0
   35.9120   31.3280   34.8820 C   0  0  0  0  0  0  0  0  0  0  0  0
   35.7680   32.0140   36.0980 C   0  0  0  0  0  0  0  0  0  0  0  0
   34.5750   31.9400   36.8290 C   0  0  0  0  0  0  0  0  0  0  0  0
   33.5340   31.1940   36.3670 C   0  0  0  0  0  0  0  0  0  0  0  0
   36.8960   31.5470   34.5480 H   0  0  0  0  0  0  0  0  0  0  0  0
   36.4880   32.6440   36.6020 H   0  0  0  0  0  0  0  0  0  0  0  0
   34.4090   32.4510   37.7720 H   0  0  0  0  0  0  0  0  0  0  0  0
   32.2850   31.1000   37.1110 C   0  0  0  0  0  0  0  0  0  0  0  0
   32.1380   30.4040   37.9240 H   0  0  0  0  0  0  0  0  0  0  0  0
   31.2850   31.8040   36.8820 O   0  0  0  0  0  0  0  0  0  0  0  0
   36.3040   26.6480   32.0570 C   0  0  0  0  0  0  0  0  0  0  0  0
   37.1910   25.7560   32.6500 C   0  0  0  0  0  0  0  0  0  0  0  0
   37.0550   24.4010   32.3780 C   0  0  0  0  0  0  0  0  0  0  0  0
   36.0410   23.9960   31.5260 N   0  0  0  0  0  0  0  0  0  0  0  0
   35.2020   24.9160   30.9730 C   0  0  0  0  0  0  0  0  0  0  0  0
   35.3240   26.2030   31.2270 N   0  0  0  0  0  0  0  0  0  0  0  0
   37.9680   26.1160   33.3080 H   0  0  0  0  0  0  0  0  0  0  0  0
   37.7130   23.6610   32.8080 H   0  0  0  0  0  0  0  0  0  0  0  0
   34.4080   24.6020   30.3060 H   0  0  0  0  0  0  0  0  0  0  0  0
  1  2  1  0  0  0  0
  2  7  1  0  0  0  0
  2  8  1  0  0  0  0
  3  9  1  6  0  0  0
  3  2  1  0  0  0  0
  3 17  1  0  0  0  0
  4 10  1  0  0  0  0
  4  3  1  0  0  0  0
  5  6  1  0  0  0  0
  5  4  1  0  0  0  0
  6 13  1  0  0  0  0
  6  1  1  0  0  0  0
 11  5  1  0  0  0  0
 12  5  1  0  0  0  0
 14  6  1  0  0  0  0
 15 16  1  0  0  0  0
 16 21  1  0  0  0  0
 17 18  1  0  0  0  0
 17 16  2  0  0  0  0
 18 19  2  0  0  0  0
 19 23  1  0  0  0  0
 19 20  1  0  0  0  0
 20 24  1  0  0  0  0
 21 20  2  0  0  0  0
 21 25  1  0  0  0  0
 22 18  1  0  0  0  0
 25 26  1  0  0  0  0
 27 25  2  0  0  0  0
 28  1  1  0  0  0  0
 28 29  1  0  0  0  0
 29 34  1  0  0  0  0
 30 29  2  0  0  0  0
 30 35  1  0  0  0  0
 31 30  1  0  0  0  0
 32 33  1  0  0  0  0
 32 31  2  0  0  0  0
 33 28  2  0  0  0  0
 36 32  1  0  0  0  0
M  END
>  <minimizedAffinity>
-5.3102951

$$$$

 OpenBabel03272508413D

 36 38  0  0  1  0  0  0  0  0999 V2000
   36.9090   27.6040   33.5340 N   0  0  0  0  0  0  0  0  0  0  0  0
   36.3240   28.4980   34.5260 C   0  0  0  0  0  0  0  0  0  0  0  0
   35.0870   29.1530   34.1010 C   0  0  2  0  0  0  0  0  0  0  0  0
   35.1790   29.6720   32.7060 N   0  0  0  0  0  0  0  0  0  0  0  0
   35.5640   28.5310   31.8550 C   0  0  0  0  0  0  0  0  0  0  0  0
   36.9950   28.2640   32.2780 C   0  0  0  0  0  0  0  0  0  0  0  0
   37.1310   29.3080   34.5490 H   0  0  0  0  0  0  0  0  0  0  0  0
   36.2360   27.9560   35.4630 H   0  0  0  0  0  0  0  0  0  0  0  0
   34.2160   28.4840   33.9700 H   0  0  0  0  0  0  0  0  0  0  0  0
   35.9000   30.4190   32.6570 H   0  0  0  0  0  0  0  0  0  0  0  0
   34.9280   27.6880   32.2000 H   0  0  0  0  0  0  0  0  0  0  0  0
   35.4350   28.7590   30.7980 H   0  0  0  0  0  0  0  0  0  0  0  0
   37.5320   29.2290   32.3140 H   0  0  0  0  0  0  0  0  0  0  0  0
   37.5300   27.6050   31.5720 H   0  0  0  0  0  0  0  0  0  0  0  0
   32.2320   29.3420   34.9120 Cl  0  0  0  0  0  0  0  0  0  0  0  0
   33.4910   30.4360   35.4770 C   0  0  0  0  0  0  0  0  0  0  0  0
   34.7590   30.2500   34.9920 C   0  0  0  0  0  0  0  0  0  0  0  0
   35.8620   31.0420   35.3450 C   0  0  0  0  0  0  0  0  0  0  0  0
   35.5890   32.0770   36.2540 C   0  0  0  0  0  0  0  0  0  0  0  0
   34.2950   32.2740   36.7520 C   0  0  0  0  0  0  0  0  0  0  0  0
   33.2790   31.4570   36.3590 C   0  0  0  0  0  0  0  0  0  0  0  0
   36.9020   31.1130   35.1400 H   0  0  0  0  0  0  0  0  0  0  0  0
   36.2730   32.8070   36.6650 H   0  0  0  0  0  0  0  0  0  0  0  0
   34.0270   33.0570   37.4530 H   0  0  0  0  0  0  0  0  0  0  0  0
   31.9250   31.6410   36.8650 C   0  0  0  0  0  0  0  0  0  0  0  0
   31.3350   30.8320   37.2720 H   0  0  0  0  0  0  0  0  0  0  0  0
   31.3300   32.7350   36.8780 O   0  0  0  0  0  0  0  0  0  0  0  0
   37.3270   26.2840   33.8400 C   0  0  0  0  0  0  0  0  0  0  0  0
   37.7280   25.9130   35.1190 C   0  0  0  0  0  0  0  0  0  0  0  0
   38.1190   24.5980   35.3400 C   0  0  0  0  0  0  0  0  0  0  0  0
   38.0920   23.7130   34.2760 N   0  0  0  0  0  0  0  0  0  0  0  0
   37.6910   24.1330   33.0440 C   0  0  0  0  0  0  0  0  0  0  0  0
   37.3180   25.3780   32.8260 N   0  0  0  0  0  0  0  0  0  0  0  0
   37.7330   26.6360   35.9200 H   0  0  0  0  0  0  0  0  0  0  0  0
   38.4400   24.2520   36.3110 H   0  0  0  0  0  0  0  0  0  0  0  0
   37.6690   23.4420   32.2100 H   0  0  0  0  0  0  0  0  0  0  0  0
  1 28  1  0  0  0  0
  1  2  1  0  0  0  0
  2  7  1  0  0  0  0
  2  8  1  0  0  0  0
  3  9  1  1  0  0  0
  3  2  1  0  0  0  0
  3 17  1  0  0  0  0
  4  3  1  0  0  0  0
  5 11  1  0  0  0  0
  5  6  1  0  0  0  0
  5  4  1  0  0  0  0
  6 13  1  0  0  0  0
  6  1  1  0  0  0  0
 10  4  1  0  0  0  0
 12  5  1  0  0  0  0
 14  6  1  0  0  0  0
 15 16  1  0  0  0  0
 16 21  1  0  0  0  0
 17 18  1  0  0  0  0
 17 16  2  0  0  0  0
 18 19  2  0  0  0  0
 19 23  1  0  0  0  0
 19 20  1  0  0  0  0
 20 24  1  0  0  0  0
 21 20  2  0  0  0  0
 21 25  1  0  0  0  0
 22 18  1  0  0  0  0
 25 27  2  0  0  0  0
 25 26  1  0  0  0  0
 28 29  1  0  0  0  0
 29 30  2  0  0  0  0
 29 34  1  0  0  0  0
 30 35  1  0  0  0  0
 31 30  1  0  0  0  0
 32 31  2  0  0  0  0
 33 32  1  0  0  0  0
 33 28  2  0  0  0  0
 36 32  1  0  0  0  0
M  END
>  <minimizedAffinity>
-5.18761158

$$$$

 OpenBabel03272508413D

 36 38  0  0  1  0  0  0  0  0999 V2000
   36.8600   26.3750   33.1600 N   0  0  0  0  0  0  0  0  0  0  0  0
   37.3990   25.8890   34.4240 C   0  0  0  0  0  0  0  0  0  0  0  0
   38.5600   25.0070   34.2920 C   0  0  2  0  0  0  0  0  0  0  0  0
   38.3740   23.9950   33.2140 N   0  0  0  0  0  0  0  0  0  0  0  0
   38.0600   24.7430   31.9820 C   0  0  0  0  0  0  0  0  0  0  0  0
   36.6740   25.2880   32.2630 C   0  0  0  0  0  0  0  0  0  0  0  0
   36.5270   25.2320   34.7620 H   0  0  0  0  0  0  0  0  0  0  0  0
   37.5670   26.7440   35.0740 H   0  0  0  0  0  0  0  0  0  0  0  0
   39.4800   25.4860   33.9120 H   0  0  0  0  0  0  0  0  0  0  0  0
   37.5890   23.3600   33.4600 H   0  0  0  0  0  0  0  0  0  0  0  0
   38.7790   25.5910   31.9700 H   0  0  0  0  0  0  0  0  0  0  0  0
   38.1320   24.1100   31.1000 H   0  0  0  0  0  0  0  0  0  0  0  0
   36.0560   24.4680   32.6740 H   0  0  0  0  0  0  0  0  0  0  0  0
   36.1730   25.6650   31.3550 H   0  0  0  0  0  0  0  0  0  0  0  0
   41.1730   23.5990   34.4630 Cl  0  0  0  0  0  0  0  0  0  0  0  0
   40.0010   23.6630   35.7760 C   0  0  0  0  0  0  0  0  0  0  0  0
   38.8220   24.3200   35.5440 C   0  0  0  0  0  0  0  0  0  0  0  0
   37.7930   24.4510   36.4890 C   0  0  0  0  0  0  0  0  0  0  0  0
   38.0420   23.8480   37.7310 C   0  0  0  0  0  0  0  0  0  0  0  0
   39.2440   23.1720   37.9750 C   0  0  0  0  0  0  0  0  0  0  0  0
   40.1940   23.0930   37.0020 C   0  0  0  0  0  0  0  0  0  0  0  0
   36.8300   24.8900   36.5750 H   0  0  0  0  0  0  0  0  0  0  0  0
   37.4010   23.8170   38.6030 H   0  0  0  0  0  0  0  0  0  0  0  0
   39.4880   22.6860   38.9140 H   0  0  0  0  0  0  0  0  0  0  0  0
   41.4530   22.3970   37.2340 C   0  0  0  0  0  0  0  0  0  0  0  0
   42.4170   22.8580   37.0690 H   0  0  0  0  0  0  0  0  0  0  0  0
   41.5350   21.2220   37.6380 O   0  0  0  0  0  0  0  0  0  0  0  0
   36.5700   27.7430   32.9230 C   0  0  0  0  0  0  0  0  0  0  0  0
   36.8600   28.3620   31.7120 C   0  0  0  0  0  0  0  0  0  0  0  0
   36.5400   29.7040   31.5560 C   0  0  0  0  0  0  0  0  0  0  0  0
   35.9480   30.3700   32.6150 N   0  0  0  0  0  0  0  0  0  0  0  0
   35.6880   29.7120   33.7790 C   0  0  0  0  0  0  0  0  0  0  0  0
   35.9870   28.4380   33.9350 N   0  0  0  0  0  0  0  0  0  0  0  0
   37.3230   27.8040   30.9120 H   0  0  0  0  0  0  0  0  0  0  0  0
   36.7410   30.2380   30.6390 H   0  0  0  0  0  0  0  0  0  0  0  0
   35.2240   30.2310   34.6100 H   0  0  0  0  0  0  0  0  0  0  0  0
  1  2  1  0  0  0  0
  2  7  1  0  0  0  0
  2  8  1  0  0  0  0
  3  9  1  6  0  0  0
  3  2  1  0  0  0  0
  3 17  1  0  0  0  0
  4 10  1  0  0  0  0
  4  3  1  0  0  0  0
  5  6  1  0  0  0  0
  5  4  1  0  0  0  0
  6 13  1  0  0  0  0
  6  1  1  0  0  0  0
 11  5  1  0  0  0  0
 12  5  1  0  0  0  0
 14  6  1  0  0  0  0
 15 16  1  0  0  0  0
 16 21  1  0  0  0  0
 17 16  2  0  0  0  0
 17 18  1  0  0  0  0
 18 22  1  0  0  0  0
 18 19  2  0  0  0  0
 19 20  1  0  0  0  0
 19 23  1  0  0  0  0
 20 24  1  0  0  0  0
 21 25  1  0  0  0  0
 21 20  2  0  0  0  0
 25 27  2  0  0  0  0
 26 25  1  0  0  0  0
 28  1  1  0  0  0  0
 28 33  1  0  0  0  0
 29 28  2  0  0  0  0
 30 29  1  0  0  0  0
 30 31  2  0  0  0  0
 31 32  1  0  0  0  0
 32 33  2  0  0  0  0
 32 36  1  0  0  0  0
 34 29  1  0  0  0  0
 35 30  1  0  0  0  0
M  END
>  <minimizedAffinity>
-5.08772182

$$$$

 OpenBabel03272508413D

 36 38  0  0  1  0  0  0  0  0999 V2000
   35.5590   30.0900   32.5550 N   0  0  0  0  0  0  0  0  0  0  0  0
   35.7520   28.6510   32.6960 C   0  0  0  0  0  0  0  0  0  0  0  0
   36.6240   28.0530   31.6840 C   0  0  2  0  0  0  0  0  0  0  0  0
   36.3170   28.5540   30.3140 N   0  0  0  0  0  0  0  0  0  0  0  0
   36.4070   30.0250   30.3720 C   0  0  0  0  0  0  0  0  0  0  0  0
   35.2040   30.4020   31.2140 C   0  0  0  0  0  0  0  0  0  0  0  0
   34.6910   28.2950   32.4650 H   0  0  0  0  0  0  0  0  0  0  0  0
   36.0590   28.4470   33.7180 H   0  0  0  0  0  0  0  0  0  0  0  0
   37.6860   28.3520   31.7350 H   0  0  0  0  0  0  0  0  0  0  0  0
   35.3580   28.2610   30.0400 H   0  0  0  0  0  0  0  0  0  0  0  0
   37.3290   30.2330   30.9560 H   0  0  0  0  0  0  0  0  0  0  0  0
   36.4230   30.4650   29.3760 H   0  0  0  0  0  0  0  0  0  0  0  0
   34.3290   29.8410   30.8390 H   0  0  0  0  0  0  0  0  0  0  0  0
   34.9660   31.4780   31.1570 H   0  0  0  0  0  0  0  0  0  0  0  0
   38.7140   26.5950   33.2170 Cl  0  0  0  0  0  0  0  0  0  0  0  0
   37.3680   25.8100   32.3930 C   0  0  0  0  0  0  0  0  0  0  0  0
   36.4990   26.6070   31.6960 C   0  0  0  0  0  0  0  0  0  0  0  0
   35.3860   26.1280   30.9880 C   0  0  0  0  0  0  0  0  0  0  0  0
   35.2040   24.7370   31.0300 C   0  0  0  0  0  0  0  0  0  0  0  0
   36.0900   23.9160   31.7390 C   0  0  0  0  0  0  0  0  0  0  0  0
   37.1460   24.4630   32.4030 C   0  0  0  0  0  0  0  0  0  0  0  0
   34.5850   26.5010   30.3990 H   0  0  0  0  0  0  0  0  0  0  0  0
   34.4250   24.1480   30.5640 H   0  0  0  0  0  0  0  0  0  0  0  0
   35.9980   22.8370   31.8040 H   0  0  0  0  0  0  0  0  0  0  0  0
   38.0800   23.6290   33.1500 C   0  0  0  0  0  0  0  0  0  0  0  0
   38.9370   23.1550   32.6940 H   0  0  0  0  0  0  0  0  0  0  0  0
   37.9770   23.3910   34.3670 O   0  0  0  0  0  0  0  0  0  0  0  0
   35.7020   30.9940   33.6380 C   0  0  0  0  0  0  0  0  0  0  0  0
   35.6540   30.5750   34.9630 C   0  0  0  0  0  0  0  0  0  0  0  0
   35.8090   31.5220   35.9680 C   0  0  0  0  0  0  0  0  0  0  0  0
   36.0030   32.8440   35.6060 N   0  0  0  0  0  0  0  0  0  0  0  0
   36.0400   33.1970   34.2910 C   0  0  0  0  0  0  0  0  0  0  0  0
   35.8950   32.3040   33.3320 N   0  0  0  0  0  0  0  0  0  0  0  0
   35.5000   29.5330   35.2000 H   0  0  0  0  0  0  0  0  0  0  0  0
   35.7810   31.2570   37.0140 H   0  0  0  0  0  0  0  0  0  0  0  0
   36.1920   34.2300   34.0050 H   0  0  0  0  0  0  0  0  0  0  0  0
  1  2  1  0  0  0  0
  1 28  1  0  0  0  0
  2  8  1  0  0  0  0
  3 17  1  0  0  0  0
  3  9  1  1  0  0  0
  3  2  1  0  0  0  0
  4  5  1  0  0  0  0
  4  3  1  0  0  0  0
  5 11  1  0  0  0  0
  5  6  1  0  0  0  0
  6  1  1  0  0  0  0
  7  2  1  0  0  0  0
 10  4  1  0  0  0  0
 12  5  1  0  0  0  0
 13  6  1  0  0  0  0
 14  6  1  0  0  0  0
 16 21  1  0  0  0  0
 16 15  1  0  0  0  0
 17 16  2  0  0  0  0
 18 19  2  0  0  0  0
 18 17  1  0  0  0  0
 19 20  1  0  0  0  0
 20 24  1  0  0  0  0
 20 21  2  0  0  0  0
 21 25  1  0  0  0  0
 22 18  1  0  0  0  0
 23 19  1  0  0  0  0
 25 27  2  0  0  0  0
 26 25  1  0  0  0  0
 28 29  1  0  0  0  0
 29 34  1  0  0  0  0
 29 30  2  0  0  0  0
 30 35  1  0  0  0  0
 31 30  1  0  0  0  0
 32 31  2  0  0  0  0
 33 28  2  0  0  0  0
 33 32  1  0  0  0  0
 36 32  1  0  0  0  0
M  END
>  <minimizedAffinity>
-5.01874495

$$$$

 OpenBabel03272508413D

 36 38  0  0  1  0  0  0  0  0999 V2000
   37.0580   27.4090   31.8420 N   0  0  0  0  0  0  0  0  0  0  0  0
   37.0330   26.5120   32.9910 C   0  0  0  0  0  0  0  0  0  0  0  0
   38.3500   26.2030   33.5500 C   0  0  2  0  0  0  0  0  0  0  0  0
   39.3510   25.8990   32.4880 N   0  0  0  0  0  0  0  0  0  0  0  0
   39.3570   27.0540   31.5700 C   0  0  0  0  0  0  0  0  0  0  0  0
   38.0070   26.9500   30.8890 C   0  0  0  0  0  0  0  0  0  0  0  0
   36.6630   25.5590   32.4790 H   0  0  0  0  0  0  0  0  0  0  0  0
   36.3290   26.9080   33.7170 H   0  0  0  0  0  0  0  0  0  0  0  0
   38.8730   27.0490   34.0310 H   0  0  0  0  0  0  0  0  0  0  0  0
   39.0730   25.0350   31.9800 H   0  0  0  0  0  0  0  0  0  0  0  0
   39.3530   27.9460   32.2330 H   0  0  0  0  0  0  0  0  0  0  0  0
   40.2120   27.0250   30.8970 H   0  0  0  0  0  0  0  0  0  0  0  0
   37.8570   25.9000   30.5760 H   0  0  0  0  0  0  0  0  0  0  0  0
   37.9350   27.5850   29.9890 H   0  0  0  0  0  0  0  0  0  0  0  0
   38.3530   26.8720   36.4470 Cl  0  0  0  0  0  0  0  0  0  0  0  0
   38.2180   25.2340   35.8140 C   0  0  0  0  0  0  0  0  0  0  0  0
   38.2660   25.0720   34.4560 C   0  0  0  0  0  0  0  0  0  0  0  0
   38.1760   23.8310   33.8050 C   0  0  0  0  0  0  0  0  0  0  0  0
   38.0340   22.7210   34.6530 C   0  0  0  0  0  0  0  0  0  0  0  0
   37.9870   22.8800   36.0440 C   0  0  0  0  0  0  0  0  0  0  0  0
   38.0790   24.1210   36.5950 C   0  0  0  0  0  0  0  0  0  0  0  0
   38.1760   23.4360   32.8200 H   0  0  0  0  0  0  0  0  0  0  0  0
   37.9470   21.6770   34.3830 H   0  0  0  0  0  0  0  0  0  0  0  0
   37.8800   22.0580   36.7450 H   0  0  0  0  0  0  0  0  0  0  0  0
   38.0300   24.3110   38.0390 C   0  0  0  0  0  0  0  0  0  0  0  0
   37.4320   25.0780   38.5100 H   0  0  0  0  0  0  0  0  0  0  0  0
   38.6640   23.6140   38.8530 O   0  0  0  0  0  0  0  0  0  0  0  0
   36.2210   28.5500   31.7390 C   0  0  0  0  0  0  0  0  0  0  0  0
   36.4980   29.5940   30.8640 C   0  0  0  0  0  0  0  0  0  0  0  0
   35.6270   30.6750   30.8180 C   0  0  0  0  0  0  0  0  0  0  0  0
   34.5200   30.6670   31.6500 N   0  0  0  0  0  0  0  0  0  0  0  0
   34.2990   29.6160   32.4880 C   0  0  0  0  0  0  0  0  0  0  0  0
   35.1210   28.5870   32.5360 N   0  0  0  0  0  0  0  0  0  0  0  0
   37.3740   29.5590   30.2330 H   0  0  0  0  0  0  0  0  0  0  0  0
   35.7900   31.5140   30.1590 H   0  0  0  0  0  0  0  0  0  0  0  0
   33.4340   29.6070   33.1390 H   0  0  0  0  0  0  0  0  0  0  0  0
  1  2  1  0  0  0  0
  2  3  1  0  0  0  0
  2  8  1  0  0  0  0
  3  9  1  1  0  0  0
  3 17  1  0  0  0  0
  4  3  1  0  0  0  0
  5 11  1  0  0  0  0
  5  4  1  0  0  0  0
  6  5  1  0  0  0  0
  6  1  1  0  0  0  0
  7  2  1  0  0  0  0
 10  4  1  0  0  0  0
 12  5  1  0  0  0  0
 13  6  1  0  0  0  0
 14  6  1  0  0  0  0
 16 15  1  0  0  0  0
 16 21  1  0  0  0  0
 17 16  2  0  0  0  0
 18 17  1  0  0  0  0
 18 19  2  0  0  0  0
 19 20  1  0  0  0  0
 20 21  2  0  0  0  0
 20 24  1  0  0  0  0
 21 25  1  0  0  0  0
 22 18  1  0  0  0  0
 23 19  1  0  0  0  0
 25 26  1  0  0  0  0
 25 27  2  0  0  0  0
 28  1  1  0  0  0  0
 28 33  1  0  0  0  0
 29 28  2  0  0  0  0
 30 29  1  0  0  0  0
 30 31  2  0  0  0  0
 31 32  1  0  0  0  0
 32 33  2  0  0  0  0
 32 36  1  0  0  0  0
 34 29  1  0  0  0  0
 35 30  1  0  0  0  0
M  END
>  <minimizedAffinity>
-4.99354744

$$$$

 OpenBabel03272508413D

 36 38  0  0  1  0  0  0  0  0999 V2000
   37.4100   25.6870   32.5180 N   0  0  0  0  0  0  0  0  0  0  0  0
   37.5030   27.0730   32.0760 C   0  0  0  0  0  0  0  0  0  0  0  0
   36.3150   27.5700   31.3800 C   0  0  2  0  0  0  0  0  0  0  0  0
   35.7950   26.5870   30.3880 N   0  0  0  0  0  0  0  0  0  0  0  0
   35.5640   25.3280   31.1220 C   0  0  0  0  0  0  0  0  0  0  0  0
   36.9700   24.8650   31.4450 C   0  0  0  0  0  0  0  0  0  0  0  0
   38.3230   26.9660   31.2870 H   0  0  0  0  0  0  0  0  0  0  0  0
   37.8030   27.6820   32.9240 H   0  0  0  0  0  0  0  0  0  0  0  0
   35.4070   27.6720   32.0030 H   0  0  0  0  0  0  0  0  0  0  0  0
   36.4980   26.4430   29.6350 H   0  0  0  0  0  0  0  0  0  0  0  0
   35.0640   25.6350   32.0660 H   0  0  0  0  0  0  0  0  0  0  0  0
   34.9750   24.6260   30.5350 H   0  0  0  0  0  0  0  0  0  0  0  0
   37.5840   24.9540   30.5300 H   0  0  0  0  0  0  0  0  0  0  0  0
   37.0050   23.8120   31.7740 H   0  0  0  0  0  0  0  0  0  0  0  0
   35.5760   30.0460   32.8530 Cl  0  0  0  0  0  0  0  0  0  0  0  0
   36.3580   30.0350   31.2740 C   0  0  0  0  0  0  0  0  0  0  0  0
   36.6090   28.8180   30.6980 C   0  0  0  0  0  0  0  0  0  0  0  0
   37.2200   28.6480   29.4460 C   0  0  0  0  0  0  0  0  0  0  0  0
   37.5720   29.8360   28.7870 C   0  0  0  0  0  0  0  0  0  0  0  0
   37.3160   31.0850   29.3690 C   0  0  0  0  0  0  0  0  0  0  0  0
   36.7200   31.1610   30.5910 C   0  0  0  0  0  0  0  0  0  0  0  0
   37.5270   27.8640   28.7990 H   0  0  0  0  0  0  0  0  0  0  0  0
   38.0470   29.9530   27.8220 H   0  0  0  0  0  0  0  0  0  0  0  0
   37.5640   32.0330   28.9040 H   0  0  0  0  0  0  0  0  0  0  0  0
   36.4460   32.4480   31.2170 C   0  0  0  0  0  0  0  0  0  0  0  0
   35.5470   33.0160   31.0240 H   0  0  0  0  0  0  0  0  0  0  0  0
   37.2130   33.0050   32.0240 O   0  0  0  0  0  0  0  0  0  0  0  0
   37.7400   25.2770   33.8350 C   0  0  0  0  0  0  0  0  0  0  0  0
   37.8110   26.1750   34.8940 C   0  0  0  0  0  0  0  0  0  0  0  0
   38.1360   25.6940   36.1560 C   0  0  0  0  0  0  0  0  0  0  0  0
   38.3760   24.3390   36.3050 N   0  0  0  0  0  0  0  0  0  0  0  0
   38.2920   23.5050   35.2310 C   0  0  0  0  0  0  0  0  0  0  0  0
   37.9840   23.9540   34.0310 N   0  0  0  0  0  0  0  0  0  0  0  0
   37.6170   27.2250   34.7320 H   0  0  0  0  0  0  0  0  0  0  0  0
   38.2060   26.3430   37.0150 H   0  0  0  0  0  0  0  0  0  0  0  0
   38.4790   22.4450   35.3450 H   0  0  0  0  0  0  0  0  0  0  0  0
  1 28  1  0  0  0  0
  2  1  1  0  0  0  0
  2  8  1  0  0  0  0
  3  9  1  1  0  0  0
  3  2  1  0  0  0  0
  4  5  1  0  0  0  0
  4  3  1  0  0  0  0
  5  6  1  0  0  0  0
  5 11  1  0  0  0  0
  6 14  1  0  0  0  0
  6  1  1  0  0  0  0
  7  2  1  0  0  0  0
 10  4  1  0  0  0  0
 12  5  1  0  0  0  0
 13  6  1  0  0  0  0
 16 15  1  0  0  0  0
 17 16  1  0  0  0  0
 17  3  1  0  0  0  0
 18 17  2  0  0  0  0
 19 20  2  0  0  0  0
 19 18  1  0  0  0  0
 20 21  1  0  0  0  0
 21 25  1  0  0  0  0
 21 16  2  0  0  0  0
 22 18  1  0  0  0  0
 23 19  1  0  0  0  0
 24 20  1  0  0  0  0
 25 27  2  0  0  0  0
 26 25  1  0  0  0  0
 28 33  2  0  0  0  0
 28 29  1  0  0  0  0
 29 30  2  0  0  0  0
 30 31  1  0  0  0  0
 30 35  1  0  0  0  0
 32 36  1  0  0  0  0
 32 31  2  0  0  0  0
 33 32  1  0  0  0  0
 34 29  1  0  0  0  0
M  END
>  <minimizedAffinity>
-4.97270918

$$$$

 OpenBabel03272508413D

 36 38  0  0  1  0  0  0  0  0999 V2000
   37.0290   27.2650   32.1800 N   0  0  0  0  0  0  0  0  0  0  0  0
   37.0110   26.2690   33.2450 C   0  0  0  0  0  0  0  0  0  0  0  0
   38.3300   25.7660   33.6310 C   0  0  2  0  0  0  0  0  0  0  0  0
   39.1810   25.4600   32.4460 N   0  0  0  0  0  0  0  0  0  0  0  0
   39.2340   26.6900   31.6340 C   0  0  0  0  0  0  0  0  0  0  0  0
   37.8220   26.7990   31.0960 C   0  0  0  0  0  0  0  0  0  0  0  0
   36.4840   25.4160   32.6970 H   0  0  0  0  0  0  0  0  0  0  0  0
   36.4320   26.6670   34.0730 H   0  0  0  0  0  0  0  0  0  0  0  0
   38.9930   26.5010   34.1240 H   0  0  0  0  0  0  0  0  0  0  0  0
   38.7550   24.6850   31.8990 H   0  0  0  0  0  0  0  0  0  0  0  0
   39.3990   27.5100   32.3670 H   0  0  0  0  0  0  0  0  0  0  0  0
   40.0110   26.6340   30.8730 H   0  0  0  0  0  0  0  0  0  0  0  0
   37.5200   25.8070   30.7120 H   0  0  0  0  0  0  0  0  0  0  0  0
   37.7380   27.5220   30.2650 H   0  0  0  0  0  0  0  0  0  0  0  0
   38.2990   26.2020   36.5730 Cl  0  0  0  0  0  0  0  0  0  0  0  0
   38.1350   24.6230   35.8080 C   0  0  0  0  0  0  0  0  0  0  0  0
   38.2020   24.5690   34.4420 C   0  0  0  0  0  0  0  0  0  0  0  0
   38.0930   23.3870   33.6920 C   0  0  0  0  0  0  0  0  0  0  0  0
   37.9070   22.2180   34.4460 C   0  0  0  0  0  0  0  0  0  0  0  0
   37.8400   22.2650   35.8440 C   0  0  0  0  0  0  0  0  0  0  0  0
   37.9540   23.4560   36.4940 C   0  0  0  0  0  0  0  0  0  0  0  0
   38.1000   23.0730   32.6780 H   0  0  0  0  0  0  0  0  0  0  0  0
   37.8000   21.2010   34.0910 H   0  0  0  0  0  0  0  0  0  0  0  0
   37.7000   21.3930   36.4750 H   0  0  0  0  0  0  0  0  0  0  0  0
   37.8840   23.5310   37.9480 C   0  0  0  0  0  0  0  0  0  0  0  0
   36.9600   23.6950   38.4840 H   0  0  0  0  0  0  0  0  0  0  0  0
   38.8710   23.4120   38.6980 O   0  0  0  0  0  0  0  0  0  0  0  0
   36.3270   28.4940   32.2640 C   0  0  0  0  0  0  0  0  0  0  0  0
   35.8940   29.0160   33.4780 C   0  0  0  0  0  0  0  0  0  0  0  0
   35.2170   30.2290   33.4780 C   0  0  0  0  0  0  0  0  0  0  0  0
   35.0000   30.8650   32.2680 N   0  0  0  0  0  0  0  0  0  0  0  0
   35.4470   30.3050   31.1090 C   0  0  0  0  0  0  0  0  0  0  0  0
   36.0910   29.1560   31.1010 N   0  0  0  0  0  0  0  0  0  0  0  0
   36.0850   28.4860   34.3990 H   0  0  0  0  0  0  0  0  0  0  0  0
   34.8570   30.6840   34.3890 H   0  0  0  0  0  0  0  0  0  0  0  0
   35.2790   30.8010   30.1610 H   0  0  0  0  0  0  0  0  0  0  0  0
  1 28  1  0  0  0  0
  1  2  1  0  0  0  0
  2  3  1  0  0  0  0
  2  8  1  0  0  0  0
  3  9  1  1  0  0  0
  3 17  1  0  0  0  0
  4  3  1  0  0  0  0
  5 11  1  0  0  0  0
  5  4  1  0  0  0  0
  6  5  1  0  0  0  0
  6  1  1  0  0  0  0
  7  2  1  0  0  0  0
 10  4  1  0  0  0  0
 12  5  1  0  0  0  0
 13  6  1  0  0  0  0
 14  6  1  0  0  0  0
 16 21  1  0  0  0  0
 16 15  1  0  0  0  0
 17 16  2  0  0  0  0
 18 17  1  0  0  0  0
 18 19  2  0  0  0  0
 19 20  1  0  0  0  0
 20 24  1  0  0  0  0
 20 21  2  0  0  0  0
 21 25  1  0  0  0  0
 22 18  1  0  0  0  0
 23 19  1  0  0  0  0
 25 26  1  0  0  0  0
 25 27  2  0  0  0  0
 28 29  1  0  0  0  0
 29 34  1  0  0  0  0
 30 29  2  0  0  0  0
 30 35  1  0  0  0  0
 31 30  1  0  0  0  0
 32 31  2  0  0  0  0
 33 32  1  0  0  0  0
 33 28  2  0  0  0  0
 36 32  1  0  0  0  0
M  END
>  <minimizedAffinity>
-4.90358639

$$$$

 OpenBabel03272508413D

 36 38  0  0  1  0  0  0  0  0999 V2000
   35.2460   29.4360   33.9150 N   0  0  0  0  0  0  0  0  0  0  0  0
   35.9270   28.1780   34.1990 C   0  0  0  0  0  0  0  0  0  0  0  0
   37.0980   27.9180   33.3610 C   0  0  2  0  0  0  0  0  0  0  0  0
   36.8390   28.2270   31.9250 N   0  0  0  0  0  0  0  0  0  0  0  0
   36.3760   29.6260   31.8710 C   0  0  0  0  0  0  0  0  0  0  0  0
   35.0070   29.5530   32.5180 C   0  0  0  0  0  0  0  0  0  0  0  0
   35.1170   27.4440   33.8650 H   0  0  0  0  0  0  0  0  0  0  0  0
   36.1300   28.1340   35.2650 H   0  0  0  0  0  0  0  0  0  0  0  0
   37.9580   28.5940   33.5220 H   0  0  0  0  0  0  0  0  0  0  0  0
   36.1060   27.5890   31.5560 H   0  0  0  0  0  0  0  0  0  0  0  0
   37.0600   30.1810   32.5490 H   0  0  0  0  0  0  0  0  0  0  0  0
   36.3800   30.0100   30.8530 H   0  0  0  0  0  0  0  0  0  0  0  0
   34.4640   28.6940   32.0820 H   0  0  0  0  0  0  0  0  0  0  0  0
   34.4040   30.4600   32.3410 H   0  0  0  0  0  0  0  0  0  0  0  0
   38.9220   27.3030   35.6280 Cl  0  0  0  0  0  0  0  0  0  0  0  0
   38.3160   26.0970   34.4950 C   0  0  0  0  0  0  0  0  0  0  0  0
   37.5100   26.5310   33.4770 C   0  0  0  0  0  0  0  0  0  0  0  0
   36.9560   25.6910   32.4980 C   0  0  0  0  0  0  0  0  0  0  0  0
   37.2870   24.3330   32.6180 C   0  0  0  0  0  0  0  0  0  0  0  0
   38.1130   23.8830   33.6560 C   0  0  0  0  0  0  0  0  0  0  0  0
   38.6080   24.7650   34.5680 C   0  0  0  0  0  0  0  0  0  0  0  0
   36.3240   25.7550   31.6460 H   0  0  0  0  0  0  0  0  0  0  0  0
   36.9820   23.5090   31.9860 H   0  0  0  0  0  0  0  0  0  0  0  0
   38.4020   22.8460   33.7950 H   0  0  0  0  0  0  0  0  0  0  0  0
   39.4670   24.3200   35.6570 C   0  0  0  0  0  0  0  0  0  0  0  0
   40.4020   24.8040   35.9030 H   0  0  0  0  0  0  0  0  0  0  0  0
   39.2070   23.3530   36.3980 O   0  0  0  0  0  0  0  0  0  0  0  0
   34.8860   30.3600   34.9280 C   0  0  0  0  0  0  0  0  0  0  0  0
   35.8180   31.1980   35.5300 C   0  0  0  0  0  0  0  0  0  0  0  0
   35.3860   32.0800   36.5120 C   0  0  0  0  0  0  0  0  0  0  0  0
   34.0430   32.0870   36.8500 N   0  0  0  0  0  0  0  0  0  0  0  0
   33.1750   31.2430   36.2260 C   0  0  0  0  0  0  0  0  0  0  0  0
   33.5770   30.4030   35.2930 N   0  0  0  0  0  0  0  0  0  0  0  0
   36.8560   31.1590   35.2360 H   0  0  0  0  0  0  0  0  0  0  0  0
   36.0620   32.7540   37.0150 H   0  0  0  0  0  0  0  0  0  0  0  0
   32.1240   31.2460   36.4880 H   0  0  0  0  0  0  0  0  0  0  0  0
  1  2  1  0  0  0  0
  1 28  1  0  0  0  0
  2  8  1  0  0  0  0
  3 17  1  0  0  0  0
  3  9  1  1  0  0  0
  3  2  1  0  0  0  0
  4  3  1  0  0  0  0
  5  4  1  0  0  0  0
  5  6  1  0  0  0  0
  5 11  1  0  0  0  0
  6  1  1  0  0  0  0
  7  2  1  0  0  0  0
 10  4  1  0  0  0  0
 12  5  1  0  0  0  0
 13  6  1  0  0  0  0
 14  6  1  0  0  0  0
 16 21  1  0  0  0  0
 16 15  1  0  0  0  0
 17 16  2  0  0  0  0
 18 19  2  0  0  0  0
 18 17  1  0  0  0  0
 19 20  1  0  0  0  0
 20 24  1  0  0  0  0
 20 21  2  0  0  0  0
 21 25  1  0  0  0  0
 22 18  1  0  0  0  0
 23 19  1  0  0  0  0
 25 26  1  0  0  0  0
 25 27  2  0  0  0  0
 28 33  2  0  0  0  0
 28 29  1  0  0  0  0
 29 30  2  0  0  0  0
 30 31  1  0  0  0  0
 30 35  1  0  0  0  0
 32 36  1  0  0  0  0
 32 31  2  0  0  0  0
 33 32  1  0  0  0  0
 34 29  1  0  0  0  0
M  END
>  <minimizedAffinity>
-4.84511232

$$$$

 OpenBabel03272508413D

 36 38  0  0  1  0  0  0  0  0999 V2000
   36.1890   28.5800   32.9040 N   0  0  0  0  0  0  0  0  0  0  0  0
   35.4850   28.9800   34.1170 C   0  0  0  0  0  0  0  0  0  0  0  0
   34.2270   29.6910   33.8840 C   0  0  2  0  0  0  0  0  0  0  0  0
   34.3580   30.7250   32.8170 N   0  0  0  0  0  0  0  0  0  0  0  0
   34.8730   30.0330   31.6210 C   0  0  0  0  0  0  0  0  0  0  0  0
   36.2940   29.6870   32.0180 C   0  0  0  0  0  0  0  0  0  0  0  0
   36.2270   29.7510   34.5200 H   0  0  0  0  0  0  0  0  0  0  0  0
   35.3850   28.1080   34.7560 H   0  0  0  0  0  0  0  0  0  0  0  0
   33.4180   29.0900   33.4330 H   0  0  0  0  0  0  0  0  0  0  0  0
   35.0230   31.4630   33.1230 H   0  0  0  0  0  0  0  0  0  0  0  0
   34.2830   29.0930   31.5560 H   0  0  0  0  0  0  0  0  0  0  0  0
   34.7860   30.6550   30.7310 H   0  0  0  0  0  0  0  0  0  0  0  0
   36.7550   30.5830   32.4720 H   0  0  0  0  0  0  0  0  0  0  0  0
   36.9150   29.3870   31.1560 H   0  0  0  0  0  0  0  0  0  0  0  0
   35.9040   31.9440   34.8640 Cl  0  0  0  0  0  0  0  0  0  0  0  0
   34.4220   31.4040   35.6490 C   0  0  0  0  0  0  0  0  0  0  0  0
   33.7700   30.3300   35.1050 C   0  0  0  0  0  0  0  0  0  0  0  0
   32.5830   29.7840   35.6190 C   0  0  0  0  0  0  0  0  0  0  0  0
   32.0810   30.4190   36.7660 C   0  0  0  0  0  0  0  0  0  0  0  0
   32.7450   31.5170   37.3290 C   0  0  0  0  0  0  0  0  0  0  0  0
   33.8920   31.9860   36.7660 C   0  0  0  0  0  0  0  0  0  0  0  0
   31.8970   29.0030   35.4050 H   0  0  0  0  0  0  0  0  0  0  0  0
   31.1920   30.1760   37.3320 H   0  0  0  0  0  0  0  0  0  0  0  0
   32.4030   32.0430   38.2150 H   0  0  0  0  0  0  0  0  0  0  0  0
   34.5980   33.1280   37.3320 C   0  0  0  0  0  0  0  0  0  0  0  0
   35.4920   33.0270   37.9300 H   0  0  0  0  0  0  0  0  0  0  0  0
   34.2400   34.3110   37.1800 O   0  0  0  0  0  0  0  0  0  0  0  0
   36.6850   27.2680   32.7010 C   0  0  0  0  0  0  0  0  0  0  0  0
   37.2390   26.5180   33.7340 C   0  0  0  0  0  0  0  0  0  0  0  0
   37.6990   25.2380   33.4560 C   0  0  0  0  0  0  0  0  0  0  0  0
   37.5880   24.7620   32.1600 N   0  0  0  0  0  0  0  0  0  0  0  0
   37.0370   25.5420   31.1880 C   0  0  0  0  0  0  0  0  0  0  0  0
   36.5980   26.7570   31.4440 N   0  0  0  0  0  0  0  0  0  0  0  0
   37.3060   26.9290   34.7300 H   0  0  0  0  0  0  0  0  0  0  0  0
   38.1380   24.6090   34.2160 H   0  0  0  0  0  0  0  0  0  0  0  0
   36.9490   25.1720   30.1740 H   0  0  0  0  0  0  0  0  0  0  0  0
  1  2  1  0  0  0  0
  2  7  1  0  0  0  0
  2  8  1  0  0  0  0
  3  9  1  6  0  0  0
  3  2  1  0  0  0  0
  3 17  1  0  0  0  0
  4 10  1  0  0  0  0
  4  3  1  0  0  0  0
  5  6  1  0  0  0  0
  5  4  1  0  0  0  0
  6 13  1  0  0  0  0
  6  1  1  0  0  0  0
 11  5  1  0  0  0  0
 12  5  1  0  0  0  0
 14  6  1  0  0  0  0
 15 16  1  0  0  0  0
 16 21  1  0  0  0  0
 17 18  1  0  0  0  0
 17 16  2  0  0  0  0
 18 19  2  0  0  0  0
 19 20  1  0  0  0  0
 19 23  1  0  0  0  0
 20 24  1  0  0  0  0
 21 20  2  0  0  0  0
 21 25  1  0  0  0  0
 22 18  1  0  0  0  0
 25 26  1  0  0  0  0
 27 25  2  0  0  0  0
 28  1  1  0  0  0  0
 28 29  1  0  0  0  0
 29 34  1  0  0  0  0
 30 29  2  0  0  0  0
 30 35  1  0  0  0  0
 31 30  1  0  0  0  0
 32 33  1  0  0  0  0
 32 31  2  0  0  0  0
 33 28  2  0  0  0  0
 36 32  1  0  0  0  0
M  END
>  <minimizedAffinity>
-4.81288576

$$$$
