
 OpenBabel03272508383D

 26 27  0  0  1  0  0  0  0  0999 V2000
   36.6640   30.3720   47.7570 N   0  0  0  0  0  0  0  0  0  0  0  0
   36.4930   30.1470   49.1820 C   0  0  0  0  0  0  0  0  0  0  0  0
   37.1810   31.1310   50.0490 C   0  0  2  0  0  0  0  0  0  0  0  0
   38.3710   31.7220   49.5490 N   0  0  0  0  0  0  0  0  0  0  0  0
   38.2880   32.0390   48.1270 C   0  0  0  0  0  0  0  0  0  0  0  0
   38.0220   30.7020   47.4450 C   0  0  0  0  0  0  0  0  0  0  0  0
   35.4020   30.1500   49.3890 H   0  0  0  0  0  0  0  0  0  0  0  0
   36.8610   29.1190   49.4000 H   0  0  0  0  0  0  0  0  0  0  0  0
   36.4550   31.9120   50.3680 H   0  0  0  0  0  0  0  0  0  0  0  0
   38.5410   32.6120   50.0790 H   0  0  0  0  0  0  0  0  0  0  0  0
   39.2070   32.5180   47.7910 H   0  0  0  0  0  0  0  0  0  0  0  0
   37.3780   32.6630   47.9590 H   0  0  0  0  0  0  0  0  0  0  0  0
   38.2130   30.8760   46.3590 H   0  0  0  0  0  0  0  0  0  0  0  0
   38.7340   29.9280   47.7610 H   0  0  0  0  0  0  0  0  0  0  0  0
   35.5930   30.2680   46.8270 C   0  0  0  0  0  0  0  0  0  0  0  0
   35.7970   30.1690   45.4480 C   0  0  0  0  0  0  0  0  0  0  0  0
   34.6930   30.0700   44.6000 C   0  0  0  0  0  0  0  0  0  0  0  0
   33.4540   30.0730   45.1740 N   0  0  0  0  0  0  0  0  0  0  0  0
   33.2940   30.1710   46.5310 C   0  0  0  0  0  0  0  0  0  0  0  0
   34.3400   30.2660   47.3450 N   0  0  0  0  0  0  0  0  0  0  0  0
   36.7910   30.1730   45.0730 H   0  0  0  0  0  0  0  0  0  0  0  0
   34.8100   29.9920   43.5280 H   0  0  0  0  0  0  0  0  0  0  0  0
   32.2780   30.1690   46.9350 H   0  0  0  0  0  0  0  0  0  0  0  0
   37.5700   30.4170   51.3220 C   0  0  0  0  0  0  0  0  0  0  0  0
   38.5410   30.5770   51.7540 H   0  0  0  0  0  0  0  0  0  0  0  0
   36.7880   29.6440   51.8820 O   0  0  0  0  0  0  0  0  0  0  0  0
  1  2  1  0  0  0  0
  2  7  1  0  0  0  0
  2  8  1  0  0  0  0
  2  3  1  0  0  0  0
  3  9  1  1  0  0  0
  3 24  1  0  0  0  0
  4  3  1  0  0  0  0
  4 10  1  0  0  0  0
  5  4  1  0  0  0  0
  6  1  1  0  0  0  0
  6 14  1  0  0  0  0
  6  5  1  0  0  0  0
 11  5  1  0  0  0  0
 12  5  1  0  0  0  0
 13  6  1  0  0  0  0
 15 20  1  0  0  0  0
 15  1  1  0  0  0  0
 16 15  2  0  0  0  0
 17 18  2  0  0  0  0
 17 16  1  0  0  0  0
 18 19  1  0  0  0  0
 19 23  1  0  0  0  0
 19 20  2  0  0  0  0
 21 16  1  0  0  0  0
 22 17  1  0  0  0  0
 24 25  1  0  0  0  0
 24 26  2  0  0  0  0
M  END
>  <minimizedAffinity>
-3.91714168

>  <minimizedRMSD>
2.14366579

$$$$
