
 OpenBabel03262522473D

 19 20  0  0  0  0  0  0  0  0999 V2000
   36.0490   30.2140   48.6900 C   0  0  0  0  0  0  0  0  0  0  0  0
   35.9530   29.1610   49.5060 C   0  0  0  0  0  0  0  0  0  0  0  0
   34.8820   28.3160   49.4360 C   0  0  0  0  0  0  0  0  0  0  0  0
   33.9370   28.6180   48.4930 C   0  0  0  0  0  0  0  0  0  0  0  0
   34.6120   30.1200   47.7200 S   0  0  0  0  0  0  0  0  0  0  0  0
   36.7620   28.9910   50.2380 H   0  0  0  0  0  0  0  0  0  0  0  0
   34.7160   27.4410   50.0510 H   0  0  0  0  0  0  0  0  0  0  0  0
   38.0450   33.1510   49.4800 C   0  0  0  0  0  0  0  0  0  0  0  0
   38.9850   33.1840   48.4170 C   0  0  0  0  0  0  0  0  0  0  0  0
   38.9140   32.1930   47.4460 C   0  0  0  0  0  0  0  0  0  0  0  0
   37.9460   31.2380   47.5610 N   0  0  0  0  0  0  0  0  0  0  0  0
   37.0790   31.2420   48.5780 C   0  0  0  0  0  0  0  0  0  0  0  0
   37.1000   32.1760   49.5460 N   0  0  0  0  0  0  0  0  0  0  0  0
   38.1410   33.9450   50.2120 H   0  0  0  0  0  0  0  0  0  0  0  0
   39.7380   33.9430   48.3430 H   0  0  0  0  0  0  0  0  0  0  0  0
   39.6270   32.2140   46.6350 H   0  0  0  0  0  0  0  0  0  0  0  0
   32.6890   28.0080   48.0970 C   0  0  0  0  0  0  0  0  0  0  0  0
   32.6440   27.7970   47.0380 H   0  0  0  0  0  0  0  0  0  0  0  0
   31.8130   27.7860   48.9640 O   0  0  0  0  0  0  0  0  0  0  0  0
  1  2  2  0  0  0  0
  2  6  1  0  0  0  0
  3  2  1  0  0  0  0
  3  7  1  0  0  0  0
  4  3  2  0  0  0  0
  5  4  1  0  0  0  0
  5  1  1  0  0  0  0
  8 13  1  0  0  0  0
  8 14  1  0  0  0  0
  9  8  2  0  0  0  0
 10 11  2  0  0  0  0
 10  9  1  0  0  0  0
 11 12  1  0  0  0  0
 12  1  1  0  0  0  0
 12 13  2  0  0  0  0
 15  9  1  0  0  0  0
 16 10  1  0  0  0  0
 17  4  1  0  0  0  0
 17 19  2  0  0  0  0
 18 17  1  0  0  0  0
M  END
>  <minimizedAffinity>
-4.57764196

>  <minimizedRMSD>
0.0506137833

$$$$
