
 OpenBabel03272510333D

 22 23  0  0  0  0  0  0  0  0999 V2000
   36.0780   30.2550   48.6690 C   0  0  0  0  0  0  0  0  0  0  0  0
   35.0730   30.2680   47.7490 C   0  0  0  0  0  0  0  0  0  0  0  0
   34.0500   29.3370   47.7900 C   0  0  0  0  0  0  0  0  0  0  0  0
   34.0630   28.3900   48.7830 C   0  0  0  0  0  0  0  0  0  0  0  0
   35.0780   28.3490   49.7430 C   0  0  0  0  0  0  0  0  0  0  0  0
   36.0850   29.2960   49.6700 C   0  0  0  0  0  0  0  0  0  0  0  0
   35.0540   31.0170   46.9550 H   0  0  0  0  0  0  0  0  0  0  0  0
   33.2400   29.3110   47.0850 H   0  0  0  0  0  0  0  0  0  0  0  0
   33.3210   27.6100   48.9210 H   0  0  0  0  0  0  0  0  0  0  0  0
   35.1250   27.6140   50.5480 H   0  0  0  0  0  0  0  0  0  0  0  0
   38.0400   33.2330   49.3990 C   0  0  0  0  0  0  0  0  0  0  0  0
   39.0540   33.2250   48.4200 C   0  0  0  0  0  0  0  0  0  0  0  0
   39.0410   32.1600   47.4990 C   0  0  0  0  0  0  0  0  0  0  0  0
   38.0730   31.2150   47.5980 N   0  0  0  0  0  0  0  0  0  0  0  0
   37.1150   31.2630   48.5590 C   0  0  0  0  0  0  0  0  0  0  0  0
   37.1220   32.2750   49.4400 N   0  0  0  0  0  0  0  0  0  0  0  0
   37.9650   34.0100   50.1520 H   0  0  0  0  0  0  0  0  0  0  0  0
   39.7830   34.0200   48.4190 H   0  0  0  0  0  0  0  0  0  0  0  0
   39.8120   32.1400   46.7420 H   0  0  0  0  0  0  0  0  0  0  0  0
   37.1490   29.2640   50.6640 C   0  0  0  0  0  0  0  0  0  0  0  0
   38.0910   28.7680   50.4900 H   0  0  0  0  0  0  0  0  0  0  0  0
   37.0520   29.8080   51.7950 O   0  0  0  0  0  0  0  0  0  0  0  0
  1  6  1  0  0  0  0
  2  3  1  0  0  0  0
  2  1  2  0  0  0  0
  3  4  2  0  0  0  0
  4  9  1  0  0  0  0
  4  5  1  0  0  0  0
  5 10  1  0  0  0  0
  6  5  2  0  0  0  0
  6 20  1  0  0  0  0
  7  2  1  0  0  0  0
  8  3  1  0  0  0  0
 11 16  1  0  0  0  0
 11 17  1  0  0  0  0
 12 11  2  0  0  0  0
 13 14  2  0  0  0  0
 13 12  1  0  0  0  0
 14 15  1  0  0  0  0
 15  1  1  0  0  0  0
 15 16  2  0  0  0  0
 18 12  1  0  0  0  0
 19 13  1  0  0  0  0
 20 22  2  0  0  0  0
 21 20  1  0  0  0  0
M  END
>  <minimizedAffinity>
-5.47315359

>  <minimizedRMSD>
0.330289632

$$$$
