
 OpenBabel03272505233D

 29 31  0  0  0  0  0  0  0  0999 V2000
   38.1230   26.9550   33.5720 Br  0  0  0  0  0  0  0  0  0  0  0  0
   37.1110   25.6630   32.5850 C   0  0  0  0  0  0  0  0  0  0  0  0
   36.2010   26.0870   31.6410 C   0  0  0  0  0  0  0  0  0  0  0  0
   35.4910   25.1090   30.9380 C   0  0  0  0  0  0  0  0  0  0  0  0
   35.7080   23.7750   31.1950 C   0  0  0  0  0  0  0  0  0  0  0  0
   36.6300   23.3570   32.1530 C   0  0  0  0  0  0  0  0  0  0  0  0
   37.3270   24.3300   32.8430 C   0  0  0  0  0  0  0  0  0  0  0  0
   34.7840   25.4580   30.2020 H   0  0  0  0  0  0  0  0  0  0  0  0
   35.1480   23.0350   30.6390 H   0  0  0  0  0  0  0  0  0  0  0  0
   36.8150   22.3190   32.3700 H   0  0  0  0  0  0  0  0  0  0  0  0
   36.5380   29.5860   30.2710 C   0  0  0  0  0  0  0  0  0  0  0  0
   36.7050   28.2110   30.4540 C   0  0  0  0  0  0  0  0  0  0  0  0
   36.0450   27.5190   31.4400 C   0  0  0  0  0  0  0  0  0  0  0  0
   35.2090   28.2600   32.2390 N   0  0  0  0  0  0  0  0  0  0  0  0
   35.0440   29.5900   32.0680 C   0  0  0  0  0  0  0  0  0  0  0  0
   35.6970   30.2490   31.0970 N   0  0  0  0  0  0  0  0  0  0  0  0
   37.0490   30.1480   29.4980 H   0  0  0  0  0  0  0  0  0  0  0  0
   37.3910   27.7740   29.7740 H   0  0  0  0  0  0  0  0  0  0  0  0
   34.3640   30.1060   32.7420 H   0  0  0  0  0  0  0  0  0  0  0  0
   38.2960   23.9370   33.8530 C   0  0  0  0  0  0  0  0  0  0  0  0
   39.6260   23.6910   33.6640 C   0  0  0  0  0  0  0  0  0  0  0  0
   40.2120   23.3520   34.8220 N   0  0  0  0  0  0  0  0  0  0  0  0
   39.2570   23.3780   35.7630 C   0  0  0  0  0  0  0  0  0  0  0  0
   38.0850   23.7320   35.1960 N   0  0  0  0  0  0  0  0  0  0  0  0
   40.1390   23.7630   32.6990 H   0  0  0  0  0  0  0  0  0  0  0  0
   41.2190   23.1070   34.9970 H   0  0  0  0  0  0  0  0  0  0  0  0
   39.3580   23.0950   37.1730 C   0  0  0  0  0  0  0  0  0  0  0  0
   38.5500   23.2140   37.8770 H   0  0  0  0  0  0  0  0  0  0  0  0
   40.3940   22.6740   37.7610 O   0  0  0  0  0  0  0  0  0  0  0  0
  2  7  1  0  0  0  0
  2  1  1  0  0  0  0
  3  2  2  0  0  0  0
  4  5  2  0  0  0  0
  4  3  1  0  0  0  0
  5  6  1  0  0  0  0
  6 10  1  0  0  0  0
  6  7  2  0  0  0  0
  7 20  1  0  0  0  0
  8  4  1  0  0  0  0
  9  5  1  0  0  0  0
 11 12  2  0  0  0  0
 11 16  1  0  0  0  0
 12 13  1  0  0  0  0
 13  3  1  0  0  0  0
 13 14  2  0  0  0  0
 15 14  1  0  0  0  0
 15 19  1  0  0  0  0
 16 15  2  0  0  0  0
 17 11  1  0  0  0  0
 18 12  1  0  0  0  0
 20 24  1  0  0  0  0
 21 20  2  0  0  0  0
 21 22  1  0  0  0  0
 22 26  1  0  0  0  0
 22 23  1  0  0  0  0
 23 27  1  0  0  0  0
 24 23  2  0  0  0  0
 25 21  1  0  0  0  0
 27 29  2  0  0  0  0
 27 28  1  0  0  0  0
M  END
>  <minimizedAffinity>
-4.89536619

$$$$

 OpenBabel03272505233D

 29 31  0  0  0  0  0  0  0  0999 V2000
   38.1760   26.9110   33.5020 Br  0  0  0  0  0  0  0  0  0  0  0  0
   37.1220   25.6270   32.5490 C   0  0  0  0  0  0  0  0  0  0  0  0
   36.2060   26.0570   31.6140 C   0  0  0  0  0  0  0  0  0  0  0  0
   35.4650   25.0840   30.9350 C   0  0  0  0  0  0  0  0  0  0  0  0
   35.6610   23.7500   31.2070 C   0  0  0  0  0  0  0  0  0  0  0  0
   36.5900   23.3260   32.1540 C   0  0  0  0  0  0  0  0  0  0  0  0
   37.3170   24.2940   32.8200 C   0  0  0  0  0  0  0  0  0  0  0  0
   34.7530   25.4370   30.2070 H   0  0  0  0  0  0  0  0  0  0  0  0
   35.0770   23.0140   30.6700 H   0  0  0  0  0  0  0  0  0  0  0  0
   36.7580   22.2870   32.3820 H   0  0  0  0  0  0  0  0  0  0  0  0
   35.1720   29.6690   31.9610 C   0  0  0  0  0  0  0  0  0  0  0  0
   35.2820   28.2930   32.1790 C   0  0  0  0  0  0  0  0  0  0  0  0
   36.0740   27.4900   31.3970 C   0  0  0  0  0  0  0  0  0  0  0  0
   36.7530   28.1180   30.3820 N   0  0  0  0  0  0  0  0  0  0  0  0
   36.6520   29.4480   30.1650 C   0  0  0  0  0  0  0  0  0  0  0  0
   35.8730   30.2170   30.9430 N   0  0  0  0  0  0  0  0  0  0  0  0
   34.5530   30.3180   32.5690 H   0  0  0  0  0  0  0  0  0  0  0  0
   34.6900   27.9450   32.9870 H   0  0  0  0  0  0  0  0  0  0  0  0
   37.2210   29.8710   29.3410 H   0  0  0  0  0  0  0  0  0  0  0  0
   38.2950   23.8950   33.8190 C   0  0  0  0  0  0  0  0  0  0  0  0
   39.6140   23.6120   33.6110 C   0  0  0  0  0  0  0  0  0  0  0  0
   40.2130   23.2790   34.7640 N   0  0  0  0  0  0  0  0  0  0  0  0
   39.2770   23.3460   35.7220 C   0  0  0  0  0  0  0  0  0  0  0  0
   38.1040   23.7190   35.1700 N   0  0  0  0  0  0  0  0  0  0  0  0
   40.1100   23.6530   32.6360 H   0  0  0  0  0  0  0  0  0  0  0  0
   41.2170   23.0120   34.9250 H   0  0  0  0  0  0  0  0  0  0  0  0
   39.3970   23.0860   37.1340 C   0  0  0  0  0  0  0  0  0  0  0  0
   38.6050   23.2360   37.8500 H   0  0  0  0  0  0  0  0  0  0  0  0
   40.4330   22.6520   37.7120 O   0  0  0  0  0  0  0  0  0  0  0  0
  2  7  1  0  0  0  0
  2  1  1  0  0  0  0
  3  2  2  0  0  0  0
  4  5  2  0  0  0  0
  4  3  1  0  0  0  0
  5  6  1  0  0  0  0
  6 10  1  0  0  0  0
  6  7  2  0  0  0  0
  7 20  1  0  0  0  0
  8  4  1  0  0  0  0
  9  5  1  0  0  0  0
 11 12  1  0  0  0  0
 11 17  1  0  0  0  0
 12 18  1  0  0  0  0
 13  3  1  0  0  0  0
 13 12  2  0  0  0  0
 14 13  1  0  0  0  0
 15 14  2  0  0  0  0
 15 16  1  0  0  0  0
 16 11  2  0  0  0  0
 19 15  1  0  0  0  0
 20 24  1  0  0  0  0
 21 20  2  0  0  0  0
 21 22  1  0  0  0  0
 22 26  1  0  0  0  0
 22 23  1  0  0  0  0
 23 27  1  0  0  0  0
 24 23  2  0  0  0  0
 25 21  1  0  0  0  0
 27 29  2  0  0  0  0
 27 28  1  0  0  0  0
M  END
>  <minimizedAffinity>
-4.85104609

$$$$

 OpenBabel03272505233D

 29 31  0  0  0  0  0  0  0  0999 V2000
   38.0800   23.0720   33.4590 Br  0  0  0  0  0  0  0  0  0  0  0  0
   36.9370   24.2350   32.4540 C   0  0  0  0  0  0  0  0  0  0  0  0
   37.0970   25.6000   32.5540 C   0  0  0  0  0  0  0  0  0  0  0  0
   36.2470   26.4100   31.7960 C   0  0  0  0  0  0  0  0  0  0  0  0
   35.2910   25.8440   30.9850 C   0  0  0  0  0  0  0  0  0  0  0  0
   35.1370   24.4630   30.8920 C   0  0  0  0  0  0  0  0  0  0  0  0
   35.9810   23.6690   31.6450 C   0  0  0  0  0  0  0  0  0  0  0  0
   36.3860   27.4760   31.8850 H   0  0  0  0  0  0  0  0  0  0  0  0
   34.6430   26.4910   30.4070 H   0  0  0  0  0  0  0  0  0  0  0  0
   34.3950   23.9990   30.2640 H   0  0  0  0  0  0  0  0  0  0  0  0
   38.9100   26.9640   35.5690 C   0  0  0  0  0  0  0  0  0  0  0  0
   37.8960   26.4910   34.7310 C   0  0  0  0  0  0  0  0  0  0  0  0
   38.1390   26.1010   33.4370 C   0  0  0  0  0  0  0  0  0  0  0  0
   39.4400   26.2050   33.0110 N   0  0  0  0  0  0  0  0  0  0  0  0
   40.4250   26.6620   33.8150 C   0  0  0  0  0  0  0  0  0  0  0  0
   40.1680   27.0370   35.0780 N   0  0  0  0  0  0  0  0  0  0  0  0
   38.7370   27.2750   36.5920 H   0  0  0  0  0  0  0  0  0  0  0  0
   36.9400   26.4800   35.1900 H   0  0  0  0  0  0  0  0  0  0  0  0
   41.4300   26.7150   33.4030 H   0  0  0  0  0  0  0  0  0  0  0  0
   35.8520   22.2230   31.5800 C   0  0  0  0  0  0  0  0  0  0  0  0
   35.0360   21.4360   32.3410 C   0  0  0  0  0  0  0  0  0  0  0  0
   35.1800   20.1450   32.0060 N   0  0  0  0  0  0  0  0  0  0  0  0
   36.0920   20.0960   31.0250 C   0  0  0  0  0  0  0  0  0  0  0  0
   36.5140   21.3490   30.7500 N   0  0  0  0  0  0  0  0  0  0  0  0
   34.3600   21.8110   33.1160 H   0  0  0  0  0  0  0  0  0  0  0  0
   34.6900   19.3070   32.4110 H   0  0  0  0  0  0  0  0  0  0  0  0
   36.6080   18.9540   30.3130 C   0  0  0  0  0  0  0  0  0  0  0  0
   37.1490   18.1430   30.7730 H   0  0  0  0  0  0  0  0  0  0  0  0
   36.4930   18.7550   29.0710 O   0  0  0  0  0  0  0  0  0  0  0  0
  2  3  1  0  0  0  0
  2  1  1  0  0  0  0
  3 13  1  0  0  0  0
  4  8  1  0  0  0  0
  4  3  2  0  0  0  0
  5  4  1  0  0  0  0
  6  5  2  0  0  0  0
  6  7  1  0  0  0  0
  7  2  2  0  0  0  0
  9  5  1  0  0  0  0
 10  6  1  0  0  0  0
 11 17  1  0  0  0  0
 12 18  1  0  0  0  0
 12 11  2  0  0  0  0
 13 12  1  0  0  0  0
 14 13  2  0  0  0  0
 14 15  1  0  0  0  0
 15 16  2  0  0  0  0
 16 11  1  0  0  0  0
 19 15  1  0  0  0  0
 20  7  1  0  0  0  0
 20 21  2  0  0  0  0
 21 25  1  0  0  0  0
 22 21  1  0  0  0  0
 22 26  1  0  0  0  0
 23 22  1  0  0  0  0
 24 23  2  0  0  0  0
 24 20  1  0  0  0  0
 27 28  1  0  0  0  0
 27 23  1  0  0  0  0
 29 27  2  0  0  0  0
M  END
>  <minimizedAffinity>
-4.83267689

$$$$

 OpenBabel03272505233D

 29 31  0  0  0  0  0  0  0  0999 V2000
   40.1160   26.1090   31.8230 Br  0  0  0  0  0  0  0  0  0  0  0  0
   39.0940   26.7300   33.3180 C   0  0  0  0  0  0  0  0  0  0  0  0
   39.5330   26.4720   34.5990 C   0  0  0  0  0  0  0  0  0  0  0  0
   38.7600   26.9520   35.6600 C   0  0  0  0  0  0  0  0  0  0  0  0
   37.6050   27.6570   35.4130 C   0  0  0  0  0  0  0  0  0  0  0  0
   37.1690   27.9120   34.1140 C   0  0  0  0  0  0  0  0  0  0  0  0
   37.9390   27.4330   33.0710 C   0  0  0  0  0  0  0  0  0  0  0  0
   39.1180   26.7420   36.6550 H   0  0  0  0  0  0  0  0  0  0  0  0
   37.0220   28.0200   36.2490 H   0  0  0  0  0  0  0  0  0  0  0  0
   36.2680   28.4610   33.8980 H   0  0  0  0  0  0  0  0  0  0  0  0
   43.1890   25.5610   34.8100 C   0  0  0  0  0  0  0  0  0  0  0  0
   42.0110   26.2970   34.6480 C   0  0  0  0  0  0  0  0  0  0  0  0
   40.7690   25.7210   34.7560 C   0  0  0  0  0  0  0  0  0  0  0  0
   40.7510   24.3750   35.0310 N   0  0  0  0  0  0  0  0  0  0  0  0
   41.8850   23.6580   35.1880 C   0  0  0  0  0  0  0  0  0  0  0  0
   43.0910   24.2400   35.0800 N   0  0  0  0  0  0  0  0  0  0  0  0
   44.1760   25.9980   34.7290 H   0  0  0  0  0  0  0  0  0  0  0  0
   42.1790   27.3190   34.4250 H   0  0  0  0  0  0  0  0  0  0  0  0
   41.7870   22.5970   35.4040 H   0  0  0  0  0  0  0  0  0  0  0  0
   37.5180   27.6750   31.7010 C   0  0  0  0  0  0  0  0  0  0  0  0
   36.5200   27.0350   31.0230 C   0  0  0  0  0  0  0  0  0  0  0  0
   36.4120   27.5190   29.7760 N   0  0  0  0  0  0  0  0  0  0  0  0
   37.3440   28.4730   29.6470 C   0  0  0  0  0  0  0  0  0  0  0  0
   38.0280   28.5850   30.8050 N   0  0  0  0  0  0  0  0  0  0  0  0
   35.8960   26.2400   31.4440 H   0  0  0  0  0  0  0  0  0  0  0  0
   35.7400   27.2300   29.0210 H   0  0  0  0  0  0  0  0  0  0  0  0
   37.6490   29.3020   28.5080 C   0  0  0  0  0  0  0  0  0  0  0  0
   36.9690   29.4940   27.6940 H   0  0  0  0  0  0  0  0  0  0  0  0
   38.7430   29.9070   28.3170 O   0  0  0  0  0  0  0  0  0  0  0  0
  1  2  1  0  0  0  0
  2  3  1  0  0  0  0
  3 13  1  0  0  0  0
  3  4  2  0  0  0  0
  4  8  1  0  0  0  0
  5  4  1  0  0  0  0
  5  9  1  0  0  0  0
  6  5  2  0  0  0  0
  7  2  2  0  0  0  0
  7  6  1  0  0  0  0
 10  6  1  0  0  0  0
 11 16  1  0  0  0  0
 12 13  1  0  0  0  0
 12 11  2  0  0  0  0
 13 14  2  0  0  0  0
 14 15  1  0  0  0  0
 15 19  1  0  0  0  0
 16 15  2  0  0  0  0
 17 11  1  0  0  0  0
 18 12  1  0  0  0  0
 20  7  1  0  0  0  0
 21 25  1  0  0  0  0
 21 20  2  0  0  0  0
 22 21  1  0  0  0  0
 23 22  1  0  0  0  0
 23 24  2  0  0  0  0
 24 20  1  0  0  0  0
 26 22  1  0  0  0  0
 27 23  1  0  0  0  0
 28 27  1  0  0  0  0
 29 27  2  0  0  0  0
M  END
>  <minimizedAffinity>
-4.79297352

$$$$

 OpenBabel03272505233D

 29 31  0  0  0  0  0  0  0  0999 V2000
   38.5940   25.7300   33.9640 Br  0  0  0  0  0  0  0  0  0  0  0  0
   37.7410   24.2660   33.0730 C   0  0  0  0  0  0  0  0  0  0  0  0
   37.2300   24.4440   31.8050 C   0  0  0  0  0  0  0  0  0  0  0  0
   36.6240   23.3460   31.1890 C   0  0  0  0  0  0  0  0  0  0  0  0
   36.5510   22.1370   31.8420 C   0  0  0  0  0  0  0  0  0  0  0  0
   37.0700   21.9680   33.1240 C   0  0  0  0  0  0  0  0  0  0  0  0
   37.6670   23.0590   33.7260 C   0  0  0  0  0  0  0  0  0  0  0  0
   36.2290   23.5020   30.1970 H   0  0  0  0  0  0  0  0  0  0  0  0
   36.0770   21.3000   31.3460 H   0  0  0  0  0  0  0  0  0  0  0  0
   37.0230   21.0310   33.6530 H   0  0  0  0  0  0  0  0  0  0  0  0
   36.5010   27.9620   30.6520 C   0  0  0  0  0  0  0  0  0  0  0  0
   36.3580   26.7000   31.2350 C   0  0  0  0  0  0  0  0  0  0  0  0
   37.3580   25.7600   31.1980 C   0  0  0  0  0  0  0  0  0  0  0  0
   38.5110   26.1320   30.5500 N   0  0  0  0  0  0  0  0  0  0  0  0
   38.6560   27.3500   29.9840 C   0  0  0  0  0  0  0  0  0  0  0  0
   37.6660   28.2560   30.0320 N   0  0  0  0  0  0  0  0  0  0  0  0
   35.7230   28.7160   30.6720 H   0  0  0  0  0  0  0  0  0  0  0  0
   35.4100   26.5470   31.6850 H   0  0  0  0  0  0  0  0  0  0  0  0
   39.5990   27.5690   29.4890 H   0  0  0  0  0  0  0  0  0  0  0  0
   38.2190   22.9260   35.0640 C   0  0  0  0  0  0  0  0  0  0  0  0
   39.3080   22.1890   35.4350 C   0  0  0  0  0  0  0  0  0  0  0  0
   39.5260   22.3020   36.7540 N   0  0  0  0  0  0  0  0  0  0  0  0
   38.5750   23.1140   37.2380 C   0  0  0  0  0  0  0  0  0  0  0  0
   37.7700   23.5050   36.2280 N   0  0  0  0  0  0  0  0  0  0  0  0
   39.9140   21.5910   34.7470 H   0  0  0  0  0  0  0  0  0  0  0  0
   40.2840   21.8560   37.3300 H   0  0  0  0  0  0  0  0  0  0  0  0
   38.3580   23.5590   38.5910 C   0  0  0  0  0  0  0  0  0  0  0  0
   38.4470   22.9300   39.4610 H   0  0  0  0  0  0  0  0  0  0  0  0
   38.0390   24.7340   38.9300 O   0  0  0  0  0  0  0  0  0  0  0  0
  2  7  1  0  0  0  0
  2  1  1  0  0  0  0
  3  2  2  0  0  0  0
  4  3  1  0  0  0  0
  4  5  2  0  0  0  0
  5  6  1  0  0  0  0
  6 10  1  0  0  0  0
  6  7  2  0  0  0  0
  7 20  1  0  0  0  0
  8  4  1  0  0  0  0
  9  5  1  0  0  0  0
 11 17  1  0  0  0  0
 11 12  1  0  0  0  0
 12 18  1  0  0  0  0
 13 12  2  0  0  0  0
 13  3  1  0  0  0  0
 14 13  1  0  0  0  0
 15 16  1  0  0  0  0
 15 14  2  0  0  0  0
 16 11  2  0  0  0  0
 19 15  1  0  0  0  0
 20 21  2  0  0  0  0
 20 24  1  0  0  0  0
 21 22  1  0  0  0  0
 22 23  1  0  0  0  0
 22 26  1  0  0  0  0
 23 27  1  0  0  0  0
 24 23  2  0  0  0  0
 25 21  1  0  0  0  0
 27 29  2  0  0  0  0
 27 28  1  0  0  0  0
M  END
>  <minimizedAffinity>
-4.7879796

$$$$

 OpenBabel03272505233D

 29 31  0  0  0  0  0  0  0  0999 V2000
   40.7030   24.6430   34.0450 Br  0  0  0  0  0  0  0  0  0  0  0  0
   39.8080   24.1260   35.6570 C   0  0  0  0  0  0  0  0  0  0  0  0
   40.4040   23.2180   36.5060 C   0  0  0  0  0  0  0  0  0  0  0  0
   39.7200   22.8760   37.6760 C   0  0  0  0  0  0  0  0  0  0  0  0
   38.4940   23.4380   37.9510 C   0  0  0  0  0  0  0  0  0  0  0  0
   37.9000   24.3550   37.0860 C   0  0  0  0  0  0  0  0  0  0  0  0
   38.5840   24.6870   35.9320 C   0  0  0  0  0  0  0  0  0  0  0  0
   40.2000   22.1650   38.3290 H   0  0  0  0  0  0  0  0  0  0  0  0
   37.9820   23.1590   38.8630 H   0  0  0  0  0  0  0  0  0  0  0  0
   36.9430   24.8060   37.2820 H   0  0  0  0  0  0  0  0  0  0  0  0
   44.1270   22.7360   36.1280 C   0  0  0  0  0  0  0  0  0  0  0  0
   42.8880   23.2690   36.4950 C   0  0  0  0  0  0  0  0  0  0  0  0
   41.7030   22.6820   36.1270 C   0  0  0  0  0  0  0  0  0  0  0  0
   41.8050   21.5380   35.3730 N   0  0  0  0  0  0  0  0  0  0  0  0
   42.9990   21.0180   35.0150 C   0  0  0  0  0  0  0  0  0  0  0  0
   44.1480   21.6060   35.3860 N   0  0  0  0  0  0  0  0  0  0  0  0
   45.0720   23.1840   36.4100 H   0  0  0  0  0  0  0  0  0  0  0  0
   42.9630   24.1610   37.0630 H   0  0  0  0  0  0  0  0  0  0  0  0
   42.9960   20.1100   34.4170 H   0  0  0  0  0  0  0  0  0  0  0  0
   37.9980   25.6360   35.0000 C   0  0  0  0  0  0  0  0  0  0  0  0
   37.8760   26.9860   35.1710 C   0  0  0  0  0  0  0  0  0  0  0  0
   37.2850   27.5440   34.1030 N   0  0  0  0  0  0  0  0  0  0  0  0
   37.0230   26.5520   33.2400 C   0  0  0  0  0  0  0  0  0  0  0  0
   37.4490   25.3840   33.7650 N   0  0  0  0  0  0  0  0  0  0  0  0
   38.2160   27.5320   36.0570 H   0  0  0  0  0  0  0  0  0  0  0  0
   37.0560   28.5570   33.9400 H   0  0  0  0  0  0  0  0  0  0  0  0
   36.3980   26.6120   31.9440 C   0  0  0  0  0  0  0  0  0  0  0  0
   36.5530   27.4040   31.2290 H   0  0  0  0  0  0  0  0  0  0  0  0
   35.5950   25.7540   31.4800 O   0  0  0  0  0  0  0  0  0  0  0  0
  1  2  1  0  0  0  0
  2  7  2  0  0  0  0
  2  3  1  0  0  0  0
  3  4  2  0  0  0  0
  4  5  1  0  0  0  0
  4  8  1  0  0  0  0
  5  9  1  0  0  0  0
  6 10  1  0  0  0  0
  6  5  2  0  0  0  0
  7  6  1  0  0  0  0
 11 17  1  0  0  0  0
 11 12  1  0  0  0  0
 12 18  1  0  0  0  0
 13 12  2  0  0  0  0
 13  3  1  0  0  0  0
 14 13  1  0  0  0  0
 15 14  2  0  0  0  0
 15 16  1  0  0  0  0
 16 11  2  0  0  0  0
 19 15  1  0  0  0  0
 20 21  2  0  0  0  0
 20  7  1  0  0  0  0
 21 25  1  0  0  0  0
 22 21  1  0  0  0  0
 23 24  2  0  0  0  0
 23 22  1  0  0  0  0
 24 20  1  0  0  0  0
 26 22  1  0  0  0  0
 27 23  1  0  0  0  0
 28 27  1  0  0  0  0
 29 27  2  0  0  0  0
M  END
>  <minimizedAffinity>
-4.74666882

$$$$

 OpenBabel03272505233D

 29 31  0  0  0  0  0  0  0  0999 V2000
   38.8990   25.4330   34.2350 Br  0  0  0  0  0  0  0  0  0  0  0  0
   37.9510   23.8960   33.5990 C   0  0  0  0  0  0  0  0  0  0  0  0
   37.8950   22.7600   34.3770 C   0  0  0  0  0  0  0  0  0  0  0  0
   37.1840   21.6650   33.8770 C   0  0  0  0  0  0  0  0  0  0  0  0
   36.5680   21.7400   32.6490 C   0  0  0  0  0  0  0  0  0  0  0  0
   36.6320   22.8940   31.8700 C   0  0  0  0  0  0  0  0  0  0  0  0
   37.3360   23.9710   32.3710 C   0  0  0  0  0  0  0  0  0  0  0  0
   37.1490   20.7840   34.4980 H   0  0  0  0  0  0  0  0  0  0  0  0
   36.0230   20.8810   32.2810 H   0  0  0  0  0  0  0  0  0  0  0  0
   36.1580   22.9730   30.9060 H   0  0  0  0  0  0  0  0  0  0  0  0
   38.6820   23.3210   38.0240 C   0  0  0  0  0  0  0  0  0  0  0  0
   38.0160   23.3170   36.7950 C   0  0  0  0  0  0  0  0  0  0  0  0
   38.5760   22.7800   35.6620 C   0  0  0  0  0  0  0  0  0  0  0  0
   39.8340   22.2480   35.8060 N   0  0  0  0  0  0  0  0  0  0  0  0
   40.4840   22.2500   36.9900 C   0  0  0  0  0  0  0  0  0  0  0  0
   39.9190   22.7780   38.0880 N   0  0  0  0  0  0  0  0  0  0  0  0
   38.2560   23.7380   38.9280 H   0  0  0  0  0  0  0  0  0  0  0  0
   37.0600   23.7740   36.8310 H   0  0  0  0  0  0  0  0  0  0  0  0
   41.4780   21.8090   37.0220 H   0  0  0  0  0  0  0  0  0  0  0  0
   37.4300   25.1930   31.5890 C   0  0  0  0  0  0  0  0  0  0  0  0
   38.3300   25.4670   30.5990 C   0  0  0  0  0  0  0  0  0  0  0  0
   38.1180   26.6930   30.0970 N   0  0  0  0  0  0  0  0  0  0  0  0
   37.0790   27.2130   30.7650 C   0  0  0  0  0  0  0  0  0  0  0  0
   36.6450   26.3180   31.6770 N   0  0  0  0  0  0  0  0  0  0  0  0
   39.1120   24.7790   30.2640 H   0  0  0  0  0  0  0  0  0  0  0  0
   38.6440   27.1830   29.3300 H   0  0  0  0  0  0  0  0  0  0  0  0
   36.4500   28.5020   30.6150 C   0  0  0  0  0  0  0  0  0  0  0  0
   36.5910   29.1520   29.7670 H   0  0  0  0  0  0  0  0  0  0  0  0
   35.6610   29.0300   31.4480 O   0  0  0  0  0  0  0  0  0  0  0  0
  2  1  1  0  0  0  0
  2  3  1  0  0  0  0
  3 13  1  0  0  0  0
  4  3  2  0  0  0  0
  4  8  1  0  0  0  0
  5  4  1  0  0  0  0
  6  7  1  0  0  0  0
  6  5  2  0  0  0  0
  7  2  2  0  0  0  0
  9  5  1  0  0  0  0
 10  6  1  0  0  0  0
 11 16  1  0  0  0  0
 11 17  1  0  0  0  0
 12 18  1  0  0  0  0
 12 11  2  0  0  0  0
 13 14  2  0  0  0  0
 13 12  1  0  0  0  0
 14 15  1  0  0  0  0
 15 19  1  0  0  0  0
 15 16  2  0  0  0  0
 20 24  1  0  0  0  0
 20  7  1  0  0  0  0
 21 20  2  0  0  0  0
 22 21  1  0  0  0  0
 22 23  1  0  0  0  0
 23 24  2  0  0  0  0
 25 21  1  0  0  0  0
 26 22  1  0  0  0  0
 27 23  1  0  0  0  0
 27 29  2  0  0  0  0
 28 27  1  0  0  0  0
M  END
>  <minimizedAffinity>
-4.73268652

$$$$

 OpenBabel03272505233D

 29 31  0  0  0  0  0  0  0  0999 V2000
   38.4520   25.7610   34.1520 Br  0  0  0  0  0  0  0  0  0  0  0  0
   37.6230   24.5020   32.9710 C   0  0  0  0  0  0  0  0  0  0  0  0
   37.0000   24.9490   31.8260 C   0  0  0  0  0  0  0  0  0  0  0  0
   36.4160   23.9950   30.9880 C   0  0  0  0  0  0  0  0  0  0  0  0
   36.4730   22.6590   31.3140 C   0  0  0  0  0  0  0  0  0  0  0  0
   37.1050   22.2170   32.4740 C   0  0  0  0  0  0  0  0  0  0  0  0
   37.6790   23.1680   33.2960 C   0  0  0  0  0  0  0  0  0  0  0  0
   35.9330   24.3620   30.0970 H   0  0  0  0  0  0  0  0  0  0  0  0
   36.0140   21.9370   30.6510 H   0  0  0  0  0  0  0  0  0  0  0  0
   37.1600   21.1770   32.7480 H   0  0  0  0  0  0  0  0  0  0  0  0
   37.9640   28.3920   30.6190 C   0  0  0  0  0  0  0  0  0  0  0  0
   37.9880   27.0160   30.8640 C   0  0  0  0  0  0  0  0  0  0  0  0
   36.9950   26.3820   31.5680 C   0  0  0  0  0  0  0  0  0  0  0  0
   35.9740   27.1800   32.0230 N   0  0  0  0  0  0  0  0  0  0  0  0
   35.9450   28.5110   31.7910 C   0  0  0  0  0  0  0  0  0  0  0  0
   36.9250   29.1130   31.0980 N   0  0  0  0  0  0  0  0  0  0  0  0
   38.7380   28.9090   30.0640 H   0  0  0  0  0  0  0  0  0  0  0  0
   38.8430   26.5310   30.4660 H   0  0  0  0  0  0  0  0  0  0  0  0
   35.1030   29.0740   32.1840 H   0  0  0  0  0  0  0  0  0  0  0  0
   38.3460   22.7490   34.5190 C   0  0  0  0  0  0  0  0  0  0  0  0
   37.7570   22.4480   35.7140 C   0  0  0  0  0  0  0  0  0  0  0  0
   38.6830   22.1000   36.6200 N   0  0  0  0  0  0  0  0  0  0  0  0
   39.8740   22.1760   36.0100 C   0  0  0  0  0  0  0  0  0  0  0  0
   39.6920   22.5690   34.7310 N   0  0  0  0  0  0  0  0  0  0  0  0
   36.6790   22.4870   35.9010 H   0  0  0  0  0  0  0  0  0  0  0  0
   38.5390   21.8170   37.6220 H   0  0  0  0  0  0  0  0  0  0  0  0
   41.1880   21.9060   36.5360 C   0  0  0  0  0  0  0  0  0  0  0  0
   42.1080   22.1270   36.0200 H   0  0  0  0  0  0  0  0  0  0  0  0
   41.4310   21.3800   37.6590 O   0  0  0  0  0  0  0  0  0  0  0  0
  2  7  1  0  0  0  0
  2  1  1  0  0  0  0
  3  2  2  0  0  0  0
  4  5  2  0  0  0  0
  4  3  1  0  0  0  0
  5  6  1  0  0  0  0
  6 10  1  0  0  0  0
  6  7  2  0  0  0  0
  7 20  1  0  0  0  0
  8  4  1  0  0  0  0
  9  5  1  0  0  0  0
 11 12  2  0  0  0  0
 11 16  1  0  0  0  0
 12 13  1  0  0  0  0
 13  3  1  0  0  0  0
 13 14  2  0  0  0  0
 15 14  1  0  0  0  0
 15 19  1  0  0  0  0
 16 15  2  0  0  0  0
 17 11  1  0  0  0  0
 18 12  1  0  0  0  0
 20 24  1  0  0  0  0
 20 21  2  0  0  0  0
 21 25  1  0  0  0  0
 21 22  1  0  0  0  0
 22 26  1  0  0  0  0
 23 27  1  0  0  0  0
 23 22  1  0  0  0  0
 24 23  2  0  0  0  0
 27 29  2  0  0  0  0
 28 27  1  0  0  0  0
M  END
>  <minimizedAffinity>
-4.66218185

$$$$

 OpenBabel03272505233D

 29 31  0  0  0  0  0  0  0  0999 V2000
   38.2140   26.8930   33.4730 Br  0  0  0  0  0  0  0  0  0  0  0  0
   37.2120   25.5200   32.5910 C   0  0  0  0  0  0  0  0  0  0  0  0
   37.4460   24.1980   32.9030 C   0  0  0  0  0  0  0  0  0  0  0  0
   36.6850   23.2300   32.2410 C   0  0  0  0  0  0  0  0  0  0  0  0
   35.7410   23.6050   31.3140 C   0  0  0  0  0  0  0  0  0  0  0  0
   35.5130   24.9440   31.0040 C   0  0  0  0  0  0  0  0  0  0  0  0
   36.2700   25.8950   31.6630 C   0  0  0  0  0  0  0  0  0  0  0  0
   36.8800   22.2000   32.4980 H   0  0  0  0  0  0  0  0  0  0  0  0
   35.1630   22.8390   30.8130 H   0  0  0  0  0  0  0  0  0  0  0  0
   34.7800   25.2600   30.2820 H   0  0  0  0  0  0  0  0  0  0  0  0
   40.7420   23.3780   34.5470 C   0  0  0  0  0  0  0  0  0  0  0  0
   39.7750   23.6530   33.5760 C   0  0  0  0  0  0  0  0  0  0  0  0
   38.4640   23.9030   33.9000 C   0  0  0  0  0  0  0  0  0  0  0  0
   38.1570   23.8640   35.2380 N   0  0  0  0  0  0  0  0  0  0  0  0
   39.0860   23.5990   36.1810 C   0  0  0  0  0  0  0  0  0  0  0  0
   40.3640   23.3590   35.8450 N   0  0  0  0  0  0  0  0  0  0  0  0
   41.7800   23.1800   34.3100 H   0  0  0  0  0  0  0  0  0  0  0  0
   40.1530   23.6350   32.5850 H   0  0  0  0  0  0  0  0  0  0  0  0
   38.7630   23.5870   37.2200 H   0  0  0  0  0  0  0  0  0  0  0  0
   36.0660   27.3030   31.3680 C   0  0  0  0  0  0  0  0  0  0  0  0
   36.6170   28.0150   30.3410 C   0  0  0  0  0  0  0  0  0  0  0  0
   36.2050   29.2910   30.3780 N   0  0  0  0  0  0  0  0  0  0  0  0
   35.3860   29.4050   31.4330 C   0  0  0  0  0  0  0  0  0  0  0  0
   35.2870   28.2090   32.0490 N   0  0  0  0  0  0  0  0  0  0  0  0
   37.2990   27.5980   29.5940 H   0  0  0  0  0  0  0  0  0  0  0  0
   36.4550   30.0770   29.7260 H   0  0  0  0  0  0  0  0  0  0  0  0
   34.6770   30.5630   31.9170 C   0  0  0  0  0  0  0  0  0  0  0  0
   34.9800   31.1520   32.7670 H   0  0  0  0  0  0  0  0  0  0  0  0
   33.6180   31.0340   31.4130 O   0  0  0  0  0  0  0  0  0  0  0  0
  2  3  1  0  0  0  0
  2  1  1  0  0  0  0
  3 13  1  0  0  0  0
  4  8  1  0  0  0  0
  4  3  2  0  0  0  0
  5  4  1  0  0  0  0
  6  5  2  0  0  0  0
  6  7  1  0  0  0  0
  7  2  2  0  0  0  0
  9  5  1  0  0  0  0
 10  6  1  0  0  0  0
 11 16  1  0  0  0  0
 12 13  1  0  0  0  0
 12 11  2  0  0  0  0
 13 14  2  0  0  0  0
 14 15  1  0  0  0  0
 15 19  1  0  0  0  0
 16 15  2  0  0  0  0
 17 11  1  0  0  0  0
 18 12  1  0  0  0  0
 20  7  1  0  0  0  0
 20 24  1  0  0  0  0
 21 22  1  0  0  0  0
 21 20  2  0  0  0  0
 22 23  1  0  0  0  0
 23 27  1  0  0  0  0
 23 24  2  0  0  0  0
 25 21  1  0  0  0  0
 26 22  1  0  0  0  0
 27 28  1  0  0  0  0
 29 27  2  0  0  0  0
M  END
>  <minimizedAffinity>
-4.61279631

$$$$
