
 OpenBabel03272510063D

 24 25  0  0  0  0  0  0  0  0999 V2000
   37.3540   32.5080   49.8530 C   0  0  0  0  0  0  0  0  0  0  0  0
   38.2360   32.7260   48.7620 C   0  0  0  0  0  0  0  0  0  0  0  0
   38.0620   31.9400   47.6210 C   0  0  0  0  0  0  0  0  0  0  0  0
   37.0700   31.0210   47.6190 N   0  0  0  0  0  0  0  0  0  0  0  0
   36.2450   30.8300   48.6590 C   0  0  0  0  0  0  0  0  0  0  0  0
   36.3970   31.5730   49.7570 N   0  0  0  0  0  0  0  0  0  0  0  0
   35.2250   29.8280   48.5590 N   0  0  0  0  0  0  0  0  0  0  0  0
   34.2060   29.8300   47.5380 C   0  0  0  0  0  0  0  0  0  0  0  0
   33.5250   28.5050   47.6950 C   0  0  0  0  0  0  0  0  0  0  0  0
   34.3970   27.6890   48.6250 C   0  0  0  0  0  0  0  0  0  0  0  0
   35.1000   28.6920   49.4750 C   0  0  0  0  0  0  0  0  0  0  0  0
   37.4330   33.0830   50.7680 H   0  0  0  0  0  0  0  0  0  0  0  0
   38.7220   32.0990   46.8020 H   0  0  0  0  0  0  0  0  0  0  0  0
   34.7200   29.8310   46.5480 H   0  0  0  0  0  0  0  0  0  0  0  0
   33.5110   30.6820   47.6140 H   0  0  0  0  0  0  0  0  0  0  0  0
   32.5150   28.6730   48.1130 H   0  0  0  0  0  0  0  0  0  0  0  0
   33.3950   27.9640   46.7430 H   0  0  0  0  0  0  0  0  0  0  0  0
   35.0950   27.0290   48.0720 H   0  0  0  0  0  0  0  0  0  0  0  0
   33.7340   27.0960   49.2940 H   0  0  0  0  0  0  0  0  0  0  0  0
   36.1420   28.3760   49.6780 H   0  0  0  0  0  0  0  0  0  0  0  0
   34.5620   28.9930   50.3780 H   0  0  0  0  0  0  0  0  0  0  0  0
   39.2650   33.7370   48.8730 C   0  0  0  0  0  0  0  0  0  0  0  0
   39.6730   34.1190   47.9480 H   0  0  0  0  0  0  0  0  0  0  0  0
   39.5890   34.0760   50.0400 O   0  0  0  0  0  0  0  0  0  0  0  0
  1 12  1  0  0  0  0
  2 22  1  0  0  0  0
  2  1  2  0  0  0  0
  3  2  1  0  0  0  0
  4  3  2  0  0  0  0
  4  5  1  0  0  0  0
  5  6  2  0  0  0  0
  6  1  1  0  0  0  0
  7  5  1  0  0  0  0
  7 11  1  0  0  0  0
  8 15  1  0  0  0  0
  8  9  1  0  0  0  0
  8  7  1  0  0  0  0
  9 16  1  0  0  0  0
  9 10  1  0  0  0  0
 10 19  1  0  0  0  0
 10 11  1  0  0  0  0
 11 20  1  0  0  0  0
 11 21  1  0  0  0  0
 13  3  1  0  0  0  0
 14  8  1  0  0  0  0
 17  9  1  0  0  0  0
 18 10  1  0  0  0  0
 22 24  2  0  0  0  0
 23 22  1  0  0  0  0
M  END
>  <minimizedAffinity>
-4.65328646

>  <minimizedRMSD>
1.06661594

$$$$
