
 OpenBabel03272508403D

 36 38  0  0  1  0  0  0  0  0999 V2000
   32.1320   30.7440   45.6440 N   0  0  0  0  0  0  0  0  0  0  0  0
   33.1900   30.7590   46.6470 C   0  0  0  0  0  0  0  0  0  0  0  0
   33.9330   29.5030   46.7660 C   0  0  2  0  0  0  0  0  0  0  0  0
   33.0310   28.3160   46.7650 N   0  0  0  0  0  0  0  0  0  0  0  0
   32.2180   28.4050   45.5380 C   0  0  0  0  0  0  0  0  0  0  0  0
   31.3170   29.5920   45.8160 C   0  0  0  0  0  0  0  0  0  0  0  0
   32.5530   30.8520   47.5920 H   0  0  0  0  0  0  0  0  0  0  0  0
   33.8170   31.6260   46.4670 H   0  0  0  0  0  0  0  0  0  0  0  0
   34.5570   29.2360   45.8940 H   0  0  0  0  0  0  0  0  0  0  0  0
   32.4200   28.3400   47.6060 H   0  0  0  0  0  0  0  0  0  0  0  0
   32.9360   28.6840   44.7370 H   0  0  0  0  0  0  0  0  0  0  0  0
   31.6940   27.4720   45.3360 H   0  0  0  0  0  0  0  0  0  0  0  0
   30.9040   29.4820   46.8360 H   0  0  0  0  0  0  0  0  0  0  0  0
   30.4680   29.6550   45.1130 H   0  0  0  0  0  0  0  0  0  0  0  0
   36.6680   30.6480   46.5320 Cl  0  0  0  0  0  0  0  0  0  0  0  0
   35.9860   30.0230   48.0310 C   0  0  0  0  0  0  0  0  0  0  0  0
   34.7240   29.4930   47.9830 C   0  0  0  0  0  0  0  0  0  0  0  0
   34.0520   28.9550   49.0910 C   0  0  0  0  0  0  0  0  0  0  0  0
   34.7680   28.9850   50.2970 C   0  0  0  0  0  0  0  0  0  0  0  0
   36.0600   29.5230   50.3530 C   0  0  0  0  0  0  0  0  0  0  0  0
   36.6410   30.0290   49.2300 C   0  0  0  0  0  0  0  0  0  0  0  0
   33.1170   28.5090   49.3280 H   0  0  0  0  0  0  0  0  0  0  0  0
   34.4580   28.6300   51.2710 H   0  0  0  0  0  0  0  0  0  0  0  0
   36.6590   29.5710   51.2570 H   0  0  0  0  0  0  0  0  0  0  0  0
   37.9820   30.5960   49.2640 C   0  0  0  0  0  0  0  0  0  0  0  0
   38.6360   30.6110   48.4040 H   0  0  0  0  0  0  0  0  0  0  0  0
   38.4930   31.1120   50.2760 O   0  0  0  0  0  0  0  0  0  0  0  0
   31.9790   31.7660   44.6720 C   0  0  0  0  0  0  0  0  0  0  0  0
   32.1950   31.5380   43.3180 C   0  0  0  0  0  0  0  0  0  0  0  0
   32.0210   32.5900   42.4280 C   0  0  0  0  0  0  0  0  0  0  0  0
   31.6390   33.8230   42.9300 N   0  0  0  0  0  0  0  0  0  0  0  0
   31.4420   33.9880   44.2670 C   0  0  0  0  0  0  0  0  0  0  0  0
   31.6050   32.9950   45.1170 N   0  0  0  0  0  0  0  0  0  0  0  0
   32.4930   30.5590   42.9710 H   0  0  0  0  0  0  0  0  0  0  0  0
   32.1740   32.4730   41.3660 H   0  0  0  0  0  0  0  0  0  0  0  0
   31.1440   34.9510   44.6620 H   0  0  0  0  0  0  0  0  0  0  0  0
  1  6  1  0  0  0  0
  1  2  1  0  0  0  0
  2  3  1  0  0  0  0
  2  7  1  0  0  0  0
  3  9  1  6  0  0  0
  3 17  1  0  0  0  0
  4  3  1  0  0  0  0
  4 10  1  0  0  0  0
  5  6  1  0  0  0  0
  5  4  1  0  0  0  0
  6 13  1  0  0  0  0
  8  2  1  0  0  0  0
 11  5  1  0  0  0  0
 12  5  1  0  0  0  0
 14  6  1  0  0  0  0
 15 16  1  0  0  0  0
 16 21  1  0  0  0  0
 17 16  2  0  0  0  0
 17 18  1  0  0  0  0
 18 22  1  0  0  0  0
 18 19  2  0  0  0  0
 19 20  1  0  0  0  0
 19 23  1  0  0  0  0
 20 24  1  0  0  0  0
 21 25  1  0  0  0  0
 21 20  2  0  0  0  0
 25 27  2  0  0  0  0
 26 25  1  0  0  0  0
 28 33  1  0  0  0  0
 28  1  1  0  0  0  0
 29 28  2  0  0  0  0
 30 31  2  0  0  0  0
 30 29  1  0  0  0  0
 31 32  1  0  0  0  0
 32 36  1  0  0  0  0
 32 33  2  0  0  0  0
 34 29  1  0  0  0  0
 35 30  1  0  0  0  0
M  END
>  <minimizedAffinity>
-5.16894436

>  <minimizedRMSD>
2.97581291

$$$$
