
 OpenBabel03272508393D

 26 27  0  0  1  0  0  0  0  0999 V2000
   38.6270   24.6200   36.2730 N   0  0  0  0  0  0  0  0  0  0  0  0
   39.7830   23.7490   36.1660 C   0  0  0  0  0  0  0  0  0  0  0  0
   39.7040   22.5140   36.9800 C   0  0  2  0  0  0  0  0  0  0  0  0
   38.9530   22.5730   38.1840 N   0  0  0  0  0  0  0  0  0  0  0  0
   37.7290   23.3540   38.0470 C   0  0  0  0  0  0  0  0  0  0  0  0
   38.1970   24.7450   37.6340 C   0  0  0  0  0  0  0  0  0  0  0  0
   39.9060   23.4930   35.0930 H   0  0  0  0  0  0  0  0  0  0  0  0
   40.6750   24.3460   36.4610 H   0  0  0  0  0  0  0  0  0  0  0  0
   39.3570   21.6710   36.3400 H   0  0  0  0  0  0  0  0  0  0  0  0
   38.6950   21.5920   38.4560 H   0  0  0  0  0  0  0  0  0  0  0  0
   37.1680   23.3480   38.9810 H   0  0  0  0  0  0  0  0  0  0  0  0
   37.1500   22.9490   37.1830 H   0  0  0  0  0  0  0  0  0  0  0  0
   37.3140   25.4130   37.7770 H   0  0  0  0  0  0  0  0  0  0  0  0
   38.9830   25.1290   38.2970 H   0  0  0  0  0  0  0  0  0  0  0  0
   38.0290   25.2490   35.1460 C   0  0  0  0  0  0  0  0  0  0  0  0
   37.5340   26.5550   35.1840 C   0  0  0  0  0  0  0  0  0  0  0  0
   36.9610   27.1020   34.0350 C   0  0  0  0  0  0  0  0  0  0  0  0
   36.9160   26.3170   32.9190 N   0  0  0  0  0  0  0  0  0  0  0  0
   37.4110   25.0410   32.9200 C   0  0  0  0  0  0  0  0  0  0  0  0
   37.9580   24.5130   34.0100 N   0  0  0  0  0  0  0  0  0  0  0  0
   37.6040   27.1060   36.0900 H   0  0  0  0  0  0  0  0  0  0  0  0
   36.5670   28.1090   34.0250 H   0  0  0  0  0  0  0  0  0  0  0  0
   37.3480   24.4580   31.9970 H   0  0  0  0  0  0  0  0  0  0  0  0
   41.1120   22.1450   37.3810 C   0  0  0  0  0  0  0  0  0  0  0  0
   41.6840   22.8070   38.0070 H   0  0  0  0  0  0  0  0  0  0  0  0
   41.6270   21.0920   37.0000 O   0  0  0  0  0  0  0  0  0  0  0  0
  1  6  1  0  0  0  0
  2  1  1  0  0  0  0
  2  8  1  0  0  0  0
  2  3  1  0  0  0  0
  3  9  1  6  0  0  0
  3 24  1  0  0  0  0
  3  4  1  0  0  0  0
  4 10  1  0  0  0  0
  5  4  1  0  0  0  0
  5 11  1  0  0  0  0
  6 13  1  0  0  0  0
  6  5  1  0  0  0  0
  6 14  1  0  0  0  0
  7  2  1  0  0  0  0
 12  5  1  0  0  0  0
 15 16  1  0  0  0  0
 15  1  1  0  0  0  0
 16 21  1  0  0  0  0
 17 16  2  0  0  0  0
 18 19  2  0  0  0  0
 18 17  1  0  0  0  0
 19 20  1  0  0  0  0
 20 15  2  0  0  0  0
 22 17  1  0  0  0  0
 23 19  1  0  0  0  0
 24 25  1  0  0  0  0
 26 24  2  0  0  0  0
M  END
>  <minimizedAffinity>
-4.12921906

$$$$

 OpenBabel03272508393D

 26 27  0  0  1  0  0  0  0  0999 V2000
   38.6510   24.5220   36.1450 N   0  0  0  0  0  0  0  0  0  0  0  0
   39.8230   23.6650   36.1050 C   0  0  0  0  0  0  0  0  0  0  0  0
   39.7550   22.4850   36.9990 C   0  0  2  0  0  0  0  0  0  0  0  0
   38.9920   22.6110   38.1900 N   0  0  0  0  0  0  0  0  0  0  0  0
   37.7570   23.3610   37.9910 C   0  0  0  0  0  0  0  0  0  0  0  0
   38.2070   24.7290   37.4910 C   0  0  0  0  0  0  0  0  0  0  0  0
   39.9600   23.3410   35.0530 H   0  0  0  0  0  0  0  0  0  0  0  0
   40.7020   24.2950   36.3680 H   0  0  0  0  0  0  0  0  0  0  0  0
   39.4290   21.5970   36.4130 H   0  0  0  0  0  0  0  0  0  0  0  0
   38.7470   21.6460   38.5240 H   0  0  0  0  0  0  0  0  0  0  0  0
   37.1870   23.4070   38.9190 H   0  0  0  0  0  0  0  0  0  0  0  0
   37.1930   22.8900   37.1500 H   0  0  0  0  0  0  0  0  0  0  0  0
   37.3120   25.3900   37.5810 H   0  0  0  0  0  0  0  0  0  0  0  0
   38.9800   25.1690   38.1340 H   0  0  0  0  0  0  0  0  0  0  0  0
   38.0540   25.0650   34.9740 C   0  0  0  0  0  0  0  0  0  0  0  0
   37.9790   24.3620   33.7690 C   0  0  0  0  0  0  0  0  0  0  0  0
   37.3770   24.9630   32.6630 C   0  0  0  0  0  0  0  0  0  0  0  0
   36.8840   26.2270   32.8240 N   0  0  0  0  0  0  0  0  0  0  0  0
   36.9750   26.8840   34.0220 C   0  0  0  0  0  0  0  0  0  0  0  0
   37.5470   26.3180   35.0790 N   0  0  0  0  0  0  0  0  0  0  0  0
   38.3850   23.3810   33.7180 H   0  0  0  0  0  0  0  0  0  0  0  0
   37.3010   24.4520   31.7130 H   0  0  0  0  0  0  0  0  0  0  0  0
   36.5630   27.8940   34.0920 H   0  0  0  0  0  0  0  0  0  0  0  0
   41.1660   22.1680   37.4350 C   0  0  0  0  0  0  0  0  0  0  0  0
   41.7280   22.8870   38.0040 H   0  0  0  0  0  0  0  0  0  0  0  0
   41.6930   21.0900   37.1490 O   0  0  0  0  0  0  0  0  0  0  0  0
  1  6  1  0  0  0  0
  2  1  1  0  0  0  0
  2  8  1  0  0  0  0
  2  3  1  0  0  0  0
  3  9  1  6  0  0  0
  3 24  1  0  0  0  0
  3  4  1  0  0  0  0
  4 10  1  0  0  0  0
  5  4  1  0  0  0  0
  5 11  1  0  0  0  0
  6 13  1  0  0  0  0
  6  5  1  0  0  0  0
  6 14  1  0  0  0  0
  7  2  1  0  0  0  0
 12  5  1  0  0  0  0
 15 20  1  0  0  0  0
 15  1  1  0  0  0  0
 16 15  2  0  0  0  0
 17 18  2  0  0  0  0
 17 16  1  0  0  0  0
 18 19  1  0  0  0  0
 19 23  1  0  0  0  0
 19 20  2  0  0  0  0
 21 16  1  0  0  0  0
 22 17  1  0  0  0  0
 24 25  1  0  0  0  0
 26 24  2  0  0  0  0
M  END
>  <minimizedAffinity>
-4.03773451

$$$$

 OpenBabel03272508393D

 26 27  0  0  1  0  0  0  0  0999 V2000
   37.4560   25.8670   32.5090 N   0  0  0  0  0  0  0  0  0  0  0  0
   37.3830   27.2620   32.1120 C   0  0  0  0  0  0  0  0  0  0  0  0
   36.2300   27.5970   31.2450 C   0  0  2  0  0  0  0  0  0  0  0  0
   35.7370   26.5760   30.3900 N   0  0  0  0  0  0  0  0  0  0  0  0
   35.7240   25.2640   31.0290 C   0  0  0  0  0  0  0  0  0  0  0  0
   37.1770   24.9980   31.4050 C   0  0  0  0  0  0  0  0  0  0  0  0
   37.3540   27.8690   33.0400 H   0  0  0  0  0  0  0  0  0  0  0  0
   38.3370   27.5070   31.5930 H   0  0  0  0  0  0  0  0  0  0  0  0
   35.4110   28.0210   31.8680 H   0  0  0  0  0  0  0  0  0  0  0  0
   34.7530   26.8240   30.1180 H   0  0  0  0  0  0  0  0  0  0  0  0
   35.3100   24.5170   30.3530 H   0  0  0  0  0  0  0  0  0  0  0  0
   35.1620   25.3480   31.9900 H   0  0  0  0  0  0  0  0  0  0  0  0
   37.2280   23.9110   31.6520 H   0  0  0  0  0  0  0  0  0  0  0  0
   37.8570   25.1530   30.5570 H   0  0  0  0  0  0  0  0  0  0  0  0
   37.7670   25.4590   33.8360 C   0  0  0  0  0  0  0  0  0  0  0  0
   37.8290   26.3550   34.9070 C   0  0  0  0  0  0  0  0  0  0  0  0
   38.1410   25.8770   36.1800 C   0  0  0  0  0  0  0  0  0  0  0  0
   38.3720   24.5370   36.3110 N   0  0  0  0  0  0  0  0  0  0  0  0
   38.3010   23.6900   35.2380 C   0  0  0  0  0  0  0  0  0  0  0  0
   38.0050   24.1370   34.0220 N   0  0  0  0  0  0  0  0  0  0  0  0
   37.6380   27.3850   34.7290 H   0  0  0  0  0  0  0  0  0  0  0  0
   38.1990   26.5390   37.0330 H   0  0  0  0  0  0  0  0  0  0  0  0
   38.4950   22.6260   35.4020 H   0  0  0  0  0  0  0  0  0  0  0  0
   36.6580   28.7300   30.3420 C   0  0  0  0  0  0  0  0  0  0  0  0
   36.5760   29.7480   30.6790 H   0  0  0  0  0  0  0  0  0  0  0  0
   37.1050   28.5090   29.2140 O   0  0  0  0  0  0  0  0  0  0  0  0
  1 15  1  0  0  0  0
  2  1  1  0  0  0  0
  2  7  1  0  0  0  0
  3  9  1  1  0  0  0
  3  2  1  0  0  0  0
  4  5  1  0  0  0  0
  4  3  1  0  0  0  0
  5  6  1  0  0  0  0
  5 12  1  0  0  0  0
  6 13  1  0  0  0  0
  6  1  1  0  0  0  0
  8  2  1  0  0  0  0
 10  4  1  0  0  0  0
 11  5  1  0  0  0  0
 14  6  1  0  0  0  0
 15 20  2  0  0  0  0
 15 16  1  0  0  0  0
 16 17  2  0  0  0  0
 17 18  1  0  0  0  0
 17 22  1  0  0  0  0
 19 23  1  0  0  0  0
 19 18  2  0  0  0  0
 20 19  1  0  0  0  0
 21 16  1  0  0  0  0
 24 25  1  0  0  0  0
 24  3  1  0  0  0  0
 26 24  2  0  0  0  0
M  END
>  <minimizedAffinity>
-3.77440476

$$$$

 OpenBabel03272508393D

 26 27  0  0  1  0  0  0  0  0999 V2000
   38.1450   24.2750   34.8010 N   0  0  0  0  0  0  0  0  0  0  0  0
   38.1820   24.5290   36.2300 C   0  0  0  0  0  0  0  0  0  0  0  0
   38.9840   23.5570   37.0090 C   0  0  2  0  0  0  0  0  0  0  0  0
   39.0690   22.2300   36.5090 N   0  0  0  0  0  0  0  0  0  0  0  0
   39.2020   22.1840   35.0560 C   0  0  0  0  0  0  0  0  0  0  0  0
   37.9550   22.8820   34.5270 C   0  0  0  0  0  0  0  0  0  0  0  0
   38.5790   25.5550   36.3740 H   0  0  0  0  0  0  0  0  0  0  0  0
   37.1290   24.5350   36.5920 H   0  0  0  0  0  0  0  0  0  0  0  0
   39.9990   23.9760   37.1900 H   0  0  0  0  0  0  0  0  0  0  0  0
   39.9120   21.7740   36.9360 H   0  0  0  0  0  0  0  0  0  0  0  0
   39.2960   21.1530   34.7170 H   0  0  0  0  0  0  0  0  0  0  0  0
   40.0680   22.8250   34.7640 H   0  0  0  0  0  0  0  0  0  0  0  0
   37.9090   22.6300   33.4410 H   0  0  0  0  0  0  0  0  0  0  0  0
   37.0360   22.4800   34.9740 H   0  0  0  0  0  0  0  0  0  0  0  0
   38.2840   25.3060   33.8320 C   0  0  0  0  0  0  0  0  0  0  0  0
   39.4610   26.0430   33.6760 C   0  0  0  0  0  0  0  0  0  0  0  0
   39.5190   27.0400   32.7010 C   0  0  0  0  0  0  0  0  0  0  0  0
   38.4040   27.2420   31.9400 N   0  0  0  0  0  0  0  0  0  0  0  0
   37.2680   26.5000   32.1210 C   0  0  0  0  0  0  0  0  0  0  0  0
   37.2050   25.5490   33.0470 N   0  0  0  0  0  0  0  0  0  0  0  0
   40.2900   25.8300   34.3060 H   0  0  0  0  0  0  0  0  0  0  0  0
   40.4120   27.6320   32.5510 H   0  0  0  0  0  0  0  0  0  0  0  0
   36.4050   26.7060   31.4830 H   0  0  0  0  0  0  0  0  0  0  0  0
   38.3570   23.4490   38.3790 C   0  0  0  0  0  0  0  0  0  0  0  0
   38.3730   22.5120   38.9070 H   0  0  0  0  0  0  0  0  0  0  0  0
   37.8190   24.4230   38.9110 O   0  0  0  0  0  0  0  0  0  0  0  0
  1  2  1  0  0  0  0
  2  7  1  0  0  0  0
  2  8  1  0  0  0  0
  2  3  1  0  0  0  0
  3  9  1  1  0  0  0
  3 24  1  0  0  0  0
  4 10  1  0  0  0  0
  4  3  1  0  0  0  0
  5  4  1  0  0  0  0
  6  1  1  0  0  0  0
  6 14  1  0  0  0  0
  6  5  1  0  0  0  0
 11  5  1  0  0  0  0
 12  5  1  0  0  0  0
 13  6  1  0  0  0  0
 15  1  1  0  0  0  0
 16 15  1  0  0  0  0
 16 21  1  0  0  0  0
 17 16  2  0  0  0  0
 18 19  2  0  0  0  0
 18 17  1  0  0  0  0
 19 20  1  0  0  0  0
 20 15  2  0  0  0  0
 22 17  1  0  0  0  0
 23 19  1  0  0  0  0
 24 25  1  0  0  0  0
 24 26  2  0  0  0  0
M  END
>  <minimizedAffinity>
-3.74750614

$$$$

 OpenBabel03272508393D

 26 27  0  0  1  0  0  0  0  0999 V2000
   38.5620   24.8210   34.7650 N   0  0  0  0  0  0  0  0  0  0  0  0
   38.0620   26.1620   34.5190 C   0  0  0  0  0  0  0  0  0  0  0  0
   37.0930   26.2630   33.4040 C   0  0  2  0  0  0  0  0  0  0  0  0
   37.2240   25.3340   32.3380 N   0  0  0  0  0  0  0  0  0  0  0  0
   37.5610   23.9920   32.8000 C   0  0  0  0  0  0  0  0  0  0  0  0
   38.8840   24.1550   33.5390 C   0  0  0  0  0  0  0  0  0  0  0  0
   37.6000   26.5210   35.4620 H   0  0  0  0  0  0  0  0  0  0  0  0
   38.9440   26.8120   34.3220 H   0  0  0  0  0  0  0  0  0  0  0  0
   36.0570   26.2530   33.8130 H   0  0  0  0  0  0  0  0  0  0  0  0
   36.3060   25.2910   31.8280 H   0  0  0  0  0  0  0  0  0  0  0  0
   37.6210   23.3040   31.9570 H   0  0  0  0  0  0  0  0  0  0  0  0
   36.8100   23.6850   33.5660 H   0  0  0  0  0  0  0  0  0  0  0  0
   39.2830   23.1210   33.6700 H   0  0  0  0  0  0  0  0  0  0  0  0
   39.6270   24.6970   32.9400 H   0  0  0  0  0  0  0  0  0  0  0  0
   38.6990   24.2780   36.0730 C   0  0  0  0  0  0  0  0  0  0  0  0
   37.8720   24.6500   37.1360 C   0  0  0  0  0  0  0  0  0  0  0  0
   38.0690   24.0720   38.3900 C   0  0  0  0  0  0  0  0  0  0  0  0
   39.0760   23.1570   38.5110 N   0  0  0  0  0  0  0  0  0  0  0  0
   39.8660   22.8170   37.4460 C   0  0  0  0  0  0  0  0  0  0  0  0
   39.6850   23.3640   36.2480 N   0  0  0  0  0  0  0  0  0  0  0  0
   37.1080   25.3700   36.9670 H   0  0  0  0  0  0  0  0  0  0  0  0
   37.4500   24.3350   39.2370 H   0  0  0  0  0  0  0  0  0  0  0  0
   40.6580   22.0790   37.6010 H   0  0  0  0  0  0  0  0  0  0  0  0
   37.2550   27.6330   32.7890 C   0  0  0  0  0  0  0  0  0  0  0  0
   36.6850   28.4640   33.1660 H   0  0  0  0  0  0  0  0  0  0  0  0
   38.0340   27.8210   31.8520 O   0  0  0  0  0  0  0  0  0  0  0  0
  1 15  1  0  0  0  0
  2  1  1  0  0  0  0
  2  7  1  0  0  0  0
  3  9  1  1  0  0  0
  3  2  1  0  0  0  0
  4  5  1  0  0  0  0
  4  3  1  0  0  0  0
  5  6  1  0  0  0  0
  5 12  1  0  0  0  0
  6 13  1  0  0  0  0
  6  1  1  0  0  0  0
  8  2  1  0  0  0  0
 10  4  1  0  0  0  0
 11  5  1  0  0  0  0
 14  6  1  0  0  0  0
 15 20  2  0  0  0  0
 15 16  1  0  0  0  0
 16 17  2  0  0  0  0
 17 18  1  0  0  0  0
 17 22  1  0  0  0  0
 19 23  1  0  0  0  0
 19 18  2  0  0  0  0
 20 19  1  0  0  0  0
 21 16  1  0  0  0  0
 24 25  1  0  0  0  0
 24  3  1  0  0  0  0
 26 24  2  0  0  0  0
M  END
>  <minimizedAffinity>
-3.72963691

$$$$

 OpenBabel03272508393D

 26 27  0  0  1  0  0  0  0  0999 V2000
   37.9750   22.6650   34.6350 N   0  0  0  0  0  0  0  0  0  0  0  0
   37.9080   22.4270   36.0660 C   0  0  0  0  0  0  0  0  0  0  0  0
   37.7820   23.6510   36.8900 C   0  0  2  0  0  0  0  0  0  0  0  0
   38.3650   24.8430   36.3830 N   0  0  0  0  0  0  0  0  0  0  0  0
   38.1770   24.9930   34.9440 C   0  0  0  0  0  0  0  0  0  0  0  0
   38.8420   23.7650   34.3330 C   0  0  0  0  0  0  0  0  0  0  0  0
   37.0460   21.7520   36.2490 H   0  0  0  0  0  0  0  0  0  0  0  0
   38.8260   21.8650   36.3500 H   0  0  0  0  0  0  0  0  0  0  0  0
   36.7120   23.8140   37.1490 H   0  0  0  0  0  0  0  0  0  0  0  0
   37.9130   25.6580   36.8650 H   0  0  0  0  0  0  0  0  0  0  0  0
   38.6100   25.9320   34.6010 H   0  0  0  0  0  0  0  0  0  0  0  0
   37.0870   24.9020   34.7210 H   0  0  0  0  0  0  0  0  0  0  0  0
   38.9380   23.9870   33.2430 H   0  0  0  0  0  0  0  0  0  0  0  0
   39.8630   23.6190   34.7080 H   0  0  0  0  0  0  0  0  0  0  0  0
   37.2550   21.8840   33.6890 C   0  0  0  0  0  0  0  0  0  0  0  0
   37.5650   21.8710   32.3270 C   0  0  0  0  0  0  0  0  0  0  0  0
   36.8110   21.0770   31.4620 C   0  0  0  0  0  0  0  0  0  0  0  0
   35.7960   20.3420   32.0040 N   0  0  0  0  0  0  0  0  0  0  0  0
   35.5220   20.3800   33.3460 C   0  0  0  0  0  0  0  0  0  0  0  0
   36.2350   21.1340   34.1760 N   0  0  0  0  0  0  0  0  0  0  0  0
   38.3700   22.4700   31.9760 H   0  0  0  0  0  0  0  0  0  0  0  0
   37.0200   21.0410   30.4010 H   0  0  0  0  0  0  0  0  0  0  0  0
   34.6970   19.7710   33.7240 H   0  0  0  0  0  0  0  0  0  0  0  0
   38.4650   23.3790   38.2100 C   0  0  0  0  0  0  0  0  0  0  0  0
   37.9240   23.5020   39.1310 H   0  0  0  0  0  0  0  0  0  0  0  0
   39.6420   23.0150   38.2530 O   0  0  0  0  0  0  0  0  0  0  0  0
  1  2  1  0  0  0  0
  2  7  1  0  0  0  0
  2  8  1  0  0  0  0
  2  3  1  0  0  0  0
  3  9  1  1  0  0  0
  3 24  1  0  0  0  0
  4 10  1  0  0  0  0
  4  3  1  0  0  0  0
  5  4  1  0  0  0  0
  6  1  1  0  0  0  0
  6 14  1  0  0  0  0
  6  5  1  0  0  0  0
 11  5  1  0  0  0  0
 12  5  1  0  0  0  0
 13  6  1  0  0  0  0
 15 20  1  0  0  0  0
 15  1  1  0  0  0  0
 16 15  2  0  0  0  0
 17 18  2  0  0  0  0
 17 16  1  0  0  0  0
 18 19  1  0  0  0  0
 19 23  1  0  0  0  0
 19 20  2  0  0  0  0
 21 16  1  0  0  0  0
 22 17  1  0  0  0  0
 24 26  2  0  0  0  0
 24 25  1  0  0  0  0
M  END
>  <minimizedAffinity>
-3.67192197

$$$$

 OpenBabel03272508393D

 26 27  0  0  1  0  0  0  0  0999 V2000
   38.5480   25.7190   35.1370 N   0  0  0  0  0  0  0  0  0  0  0  0
   37.7520   25.4470   33.9530 C   0  0  0  0  0  0  0  0  0  0  0  0
   38.3600   25.9060   32.6820 C   0  0  2  0  0  0  0  0  0  0  0  0
   39.2070   27.0440   32.7370 N   0  0  0  0  0  0  0  0  0  0  0  0
   40.0620   27.0530   33.9200 C   0  0  0  0  0  0  0  0  0  0  0  0
   39.0960   27.0410   35.0990 C   0  0  0  0  0  0  0  0  0  0  0  0
   37.5740   24.3520   33.9180 H   0  0  0  0  0  0  0  0  0  0  0  0
   36.7620   25.9320   34.1020 H   0  0  0  0  0  0  0  0  0  0  0  0
   38.8770   25.0520   32.1910 H   0  0  0  0  0  0  0  0  0  0  0  0
   39.8190   27.0380   31.8840 H   0  0  0  0  0  0  0  0  0  0  0  0
   40.7170   27.9240   33.9080 H   0  0  0  0  0  0  0  0  0  0  0  0
   40.6160   26.0850   33.9590 H   0  0  0  0  0  0  0  0  0  0  0  0
   39.7110   27.3080   35.9920 H   0  0  0  0  0  0  0  0  0  0  0  0
   38.3290   27.8210   35.0110 H   0  0  0  0  0  0  0  0  0  0  0  0
   38.7320   24.7660   36.1760 C   0  0  0  0  0  0  0  0  0  0  0  0
   39.6470   23.7130   36.0830 C   0  0  0  0  0  0  0  0  0  0  0  0
   39.7700   22.8190   37.1470 C   0  0  0  0  0  0  0  0  0  0  0  0
   38.9770   23.0260   38.2390 N   0  0  0  0  0  0  0  0  0  0  0  0
   38.0930   24.0690   38.2950 C   0  0  0  0  0  0  0  0  0  0  0  0
   37.9690   24.9250   37.2860 N   0  0  0  0  0  0  0  0  0  0  0  0
   40.2310   23.6150   35.2010 H   0  0  0  0  0  0  0  0  0  0  0  0
   40.4670   21.9920   37.1120 H   0  0  0  0  0  0  0  0  0  0  0  0
   37.4830   24.1860   39.1940 H   0  0  0  0  0  0  0  0  0  0  0  0
   37.2310   26.2680   31.7470 C   0  0  0  0  0  0  0  0  0  0  0  0
   37.2370   25.9120   30.7320 H   0  0  0  0  0  0  0  0  0  0  0  0
   36.2910   26.9710   32.1260 O   0  0  0  0  0  0  0  0  0  0  0  0
  1 15  1  0  0  0  0
  2  8  1  0  0  0  0
  2  1  1  0  0  0  0
  3  9  1  6  0  0  0
  3  4  1  0  0  0  0
  3  2  1  0  0  0  0
  4  5  1  0  0  0  0
  5 12  1  0  0  0  0
  5  6  1  0  0  0  0
  6  1  1  0  0  0  0
  6 13  1  0  0  0  0
  7  2  1  0  0  0  0
 10  4  1  0  0  0  0
 11  5  1  0  0  0  0
 14  6  1  0  0  0  0
 15 20  1  0  0  0  0
 16 15  2  0  0  0  0
 16 17  1  0  0  0  0
 17 18  2  0  0  0  0
 18 19  1  0  0  0  0
 19 23  1  0  0  0  0
 20 19  2  0  0  0  0
 21 16  1  0  0  0  0
 22 17  1  0  0  0  0
 24 26  2  0  0  0  0
 24  3  1  0  0  0  0
 25 24  1  0  0  0  0
M  END
>  <minimizedAffinity>
-3.66077328

$$$$

 OpenBabel03272508393D

 26 27  0  0  1  0  0  0  0  0999 V2000
   37.9160   25.0180   33.2380 N   0  0  0  0  0  0  0  0  0  0  0  0
   37.1360   26.2190   33.0010 C   0  0  0  0  0  0  0  0  0  0  0  0
   36.2930   26.1770   31.7840 C   0  0  2  0  0  0  0  0  0  0  0  0
   36.7550   25.3890   30.6960 N   0  0  0  0  0  0  0  0  0  0  0  0
   37.3560   24.1320   31.1270 C   0  0  0  0  0  0  0  0  0  0  0  0
   38.5160   24.5420   32.0270 C   0  0  0  0  0  0  0  0  0  0  0  0
   36.5050   26.3860   33.8980 H   0  0  0  0  0  0  0  0  0  0  0  0
   37.8510   27.0710   32.9430 H   0  0  0  0  0  0  0  0  0  0  0  0
   35.2540   25.8930   32.0640 H   0  0  0  0  0  0  0  0  0  0  0  0
   35.9340   25.1720   30.0780 H   0  0  0  0  0  0  0  0  0  0  0  0
   37.6680   23.5450   30.2640 H   0  0  0  0  0  0  0  0  0  0  0  0
   36.6250   23.6000   31.7820 H   0  0  0  0  0  0  0  0  0  0  0  0
   39.1370   23.6230   32.1540 H   0  0  0  0  0  0  0  0  0  0  0  0
   39.1650   25.2880   31.5500 H   0  0  0  0  0  0  0  0  0  0  0  0
   38.0420   24.4230   34.5240 C   0  0  0  0  0  0  0  0  0  0  0  0
   38.0190   25.1670   35.7060 C   0  0  0  0  0  0  0  0  0  0  0  0
   38.1490   24.5090   36.9300 C   0  0  0  0  0  0  0  0  0  0  0  0
   38.2920   23.1510   36.9040 N   0  0  0  0  0  0  0  0  0  0  0  0
   38.3090   22.4560   35.7240 C   0  0  0  0  0  0  0  0  0  0  0  0
   38.1870   23.0750   34.5550 N   0  0  0  0  0  0  0  0  0  0  0  0
   37.9050   26.2220   35.6490 H   0  0  0  0  0  0  0  0  0  0  0  0
   38.1360   25.0500   37.8660 H   0  0  0  0  0  0  0  0  0  0  0  0
   38.4270   21.3700   35.7640 H   0  0  0  0  0  0  0  0  0  0  0  0
   36.1830   27.5900   31.2610 C   0  0  0  0  0  0  0  0  0  0  0  0
   35.6920   28.3450   31.8500 H   0  0  0  0  0  0  0  0  0  0  0  0
   36.6490   27.9000   30.1620 O   0  0  0  0  0  0  0  0  0  0  0  0
  1 15  1  0  0  0  0
  2  1  1  0  0  0  0
  2  7  1  0  0  0  0
  3  9  1  1  0  0  0
  3  2  1  0  0  0  0
  4  5  1  0  0  0  0
  4  3  1  0  0  0  0
  5 12  1  0  0  0  0
  5  6  1  0  0  0  0
  6 13  1  0  0  0  0
  6  1  1  0  0  0  0
  8  2  1  0  0  0  0
 10  4  1  0  0  0  0
 11  5  1  0  0  0  0
 14  6  1  0  0  0  0
 15 20  2  0  0  0  0
 15 16  1  0  0  0  0
 16 17  2  0  0  0  0
 17 22  1  0  0  0  0
 18 17  1  0  0  0  0
 19 23  1  0  0  0  0
 19 18  2  0  0  0  0
 20 19  1  0  0  0  0
 21 16  1  0  0  0  0
 24  3  1  0  0  0  0
 24 25  1  0  0  0  0
 26 24  2  0  0  0  0
M  END
>  <minimizedAffinity>
-3.63896704

$$$$

 OpenBabel03272508393D

 26 27  0  0  1  0  0  0  0  0999 V2000
   36.6080   22.2320   32.1160 N   0  0  0  0  0  0  0  0  0  0  0  0
   36.5970   21.2940   31.0070 C   0  0  0  0  0  0  0  0  0  0  0  0
   35.8550   20.0390   31.2690 C   0  0  2  0  0  0  0  0  0  0  0  0
   35.8110   19.5730   32.6100 N   0  0  0  0  0  0  0  0  0  0  0  0
   35.6420   20.6540   33.5760 C   0  0  0  0  0  0  0  0  0  0  0  0
   36.8470   21.5620   33.3590 C   0  0  0  0  0  0  0  0  0  0  0  0
   36.1620   21.8210   30.1330 H   0  0  0  0  0  0  0  0  0  0  0  0
   37.6580   21.0680   30.7560 H   0  0  0  0  0  0  0  0  0  0  0  0
   34.8290   20.1220   30.8450 H   0  0  0  0  0  0  0  0  0  0  0  0
   34.9980   18.9150   32.7000 H   0  0  0  0  0  0  0  0  0  0  0  0
   35.5810   20.2530   34.5870 H   0  0  0  0  0  0  0  0  0  0  0  0
   34.7450   21.2490   33.2820 H   0  0  0  0  0  0  0  0  0  0  0  0
   36.8750   22.2390   34.2460 H   0  0  0  0  0  0  0  0  0  0  0  0
   37.7920   21.0040   33.3690 H   0  0  0  0  0  0  0  0  0  0  0  0
   36.4030   23.6290   31.9440 C   0  0  0  0  0  0  0  0  0  0  0  0
   37.2010   24.5920   32.5670 C   0  0  0  0  0  0  0  0  0  0  0  0
   36.9360   25.9450   32.3490 C   0  0  0  0  0  0  0  0  0  0  0  0
   35.8950   26.2580   31.5230 N   0  0  0  0  0  0  0  0  0  0  0  0
   35.1340   25.2860   30.9290 C   0  0  0  0  0  0  0  0  0  0  0  0
   35.3800   23.9960   31.1330 N   0  0  0  0  0  0  0  0  0  0  0  0
   37.9950   24.2740   33.1980 H   0  0  0  0  0  0  0  0  0  0  0  0
   37.5310   26.7190   32.8130 H   0  0  0  0  0  0  0  0  0  0  0  0
   34.3130   25.5940   30.2780 H   0  0  0  0  0  0  0  0  0  0  0  0
   36.5210   18.9460   30.4660 C   0  0  0  0  0  0  0  0  0  0  0  0
   37.0360   18.1470   30.9690 H   0  0  0  0  0  0  0  0  0  0  0  0
   36.4860   18.9510   29.2340 O   0  0  0  0  0  0  0  0  0  0  0  0
  1  6  1  0  0  0  0
  2  3  1  0  0  0  0
  2  1  1  0  0  0  0
  3  9  1  6  0  0  0
  3  4  1  0  0  0  0
  4 10  1  0  0  0  0
  4  5  1  0  0  0  0
  5 11  1  0  0  0  0
  6 14  1  0  0  0  0
  6  5  1  0  0  0  0
  6 13  1  0  0  0  0
  7  2  1  0  0  0  0
  8  2  1  0  0  0  0
 12  5  1  0  0  0  0
 15  1  1  0  0  0  0
 15 16  1  0  0  0  0
 16 21  1  0  0  0  0
 17 16  2  0  0  0  0
 17 22  1  0  0  0  0
 18 17  1  0  0  0  0
 19 20  1  0  0  0  0
 19 18  2  0  0  0  0
 20 15  2  0  0  0  0
 23 19  1  0  0  0  0
 24 25  1  0  0  0  0
 24  3  1  0  0  0  0
 26 24  2  0  0  0  0
M  END
>  <minimizedAffinity>
-3.6369772

$$$$
