
 OpenBabel03272506593D

 22 23  0  0  0  0  0  0  0  0999 V2000
   40.2330   23.3430   35.9700 C   0  0  0  0  0  0  0  0  0  0  0  0
   39.6950   22.8420   37.1690 C   0  0  0  0  0  0  0  0  0  0  0  0
   38.4280   23.3650   37.5460 C   0  0  0  0  0  0  0  0  0  0  0  0
   37.8430   24.2780   36.7500 N   0  0  0  0  0  0  0  0  0  0  0  0
   38.3960   24.7210   35.6170 C   0  0  0  0  0  0  0  0  0  0  0  0
   39.6170   24.2630   35.1910 N   0  0  0  0  0  0  0  0  0  0  0  0
   41.2030   22.9880   35.6190 H   0  0  0  0  0  0  0  0  0  0  0  0
   38.0090   22.9870   38.4630 H   0  0  0  0  0  0  0  0  0  0  0  0
   37.7560   25.7060   34.7650 C   0  0  0  0  0  0  0  0  0  0  0  0
   37.4240   26.9520   35.2170 C   0  0  0  0  0  0  0  0  0  0  0  0
   36.8170   27.9570   34.4940 C   0  0  0  0  0  0  0  0  0  0  0  0
   36.5260   27.6490   33.1930 N   0  0  0  0  0  0  0  0  0  0  0  0
   36.8400   26.4250   32.7090 C   0  0  0  0  0  0  0  0  0  0  0  0
   37.4380   25.4740   33.4660 N   0  0  0  0  0  0  0  0  0  0  0  0
   37.6490   27.2040   36.2430 H   0  0  0  0  0  0  0  0  0  0  0  0
   36.5880   28.9120   34.9260 H   0  0  0  0  0  0  0  0  0  0  0  0
   36.5020   26.1670   31.3130 C   0  0  0  0  0  0  0  0  0  0  0  0
   37.1760   26.3570   30.4900 H   0  0  0  0  0  0  0  0  0  0  0  0
   35.3630   25.6960   31.0600 O   0  0  0  0  0  0  0  0  0  0  0  0
   40.4180   21.8790   37.9150 N   0  0  0  0  0  0  0  0  0  0  0  0
   40.6290   22.0590   38.9400 H   0  0  0  0  0  0  0  0  0  0  0  0
   40.7080   21.0160   37.3820 H   0  0  0  0  0  0  0  0  0  0  0  0
  1  2  1  0  0  0  0
  2  3  2  0  0  0  0
  2 20  1  0  0  0  0
  3  8  1  0  0  0  0
  4  3  1  0  0  0  0
  5  4  2  0  0  0  0
  6  5  1  0  0  0  0
  6  1  2  0  0  0  0
  7  1  1  0  0  0  0
  9 10  1  0  0  0  0
  9  5  1  0  0  0  0
 10 15  1  0  0  0  0
 11 16  1  0  0  0  0
 11 10  2  0  0  0  0
 12 11  1  0  0  0  0
 13 12  2  0  0  0  0
 13 14  1  0  0  0  0
 14  9  2  0  0  0  0
 17 13  1  0  0  0  0
 18 17  1  0  0  0  0
 19 17  2  0  0  0  0
 20 21  1  0  0  0  0
 22 20  1  0  0  0  0
M  END
>  <minimizedAffinity>
-4.5947938

$$$$

 OpenBabel03272506593D

 22 23  0  0  0  0  0  0  0  0999 V2000
   37.2980   25.8510   32.8920 C   0  0  0  0  0  0  0  0  0  0  0  0
   36.8720   27.1710   33.1220 C   0  0  0  0  0  0  0  0  0  0  0  0
   36.9650   27.6280   34.4640 C   0  0  0  0  0  0  0  0  0  0  0  0
   37.4420   26.7880   35.4000 N   0  0  0  0  0  0  0  0  0  0  0  0
   37.8370   25.5400   35.1300 C   0  0  0  0  0  0  0  0  0  0  0  0
   37.7750   25.0310   33.8580 N   0  0  0  0  0  0  0  0  0  0  0  0
   37.2550   25.4320   31.8850 H   0  0  0  0  0  0  0  0  0  0  0  0
   36.6400   28.6370   34.6490 H   0  0  0  0  0  0  0  0  0  0  0  0
   38.3510   24.6430   36.1480 C   0  0  0  0  0  0  0  0  0  0  0  0
   37.8900   24.6610   37.4340 C   0  0  0  0  0  0  0  0  0  0  0  0
   38.3090   23.8550   38.4710 C   0  0  0  0  0  0  0  0  0  0  0  0
   39.2880   22.9550   38.1560 N   0  0  0  0  0  0  0  0  0  0  0  0
   39.7710   22.9060   36.8920 C   0  0  0  0  0  0  0  0  0  0  0  0
   39.3210   23.7230   35.9090 N   0  0  0  0  0  0  0  0  0  0  0  0
   37.1170   25.3700   37.6930 H   0  0  0  0  0  0  0  0  0  0  0  0
   37.8930   23.9350   39.4580 H   0  0  0  0  0  0  0  0  0  0  0  0
   40.8140   21.9210   36.6270 C   0  0  0  0  0  0  0  0  0  0  0  0
   41.0540   21.5570   35.6370 H   0  0  0  0  0  0  0  0  0  0  0  0
   41.4660   21.4750   37.6060 O   0  0  0  0  0  0  0  0  0  0  0  0
   36.3880   27.9510   32.0430 N   0  0  0  0  0  0  0  0  0  0  0  0
   35.4320   28.4070   32.1120 H   0  0  0  0  0  0  0  0  0  0  0  0
   37.0350   28.0290   31.2130 H   0  0  0  0  0  0  0  0  0  0  0  0
  1  2  2  0  0  0  0
  1  6  1  0  0  0  0
  2  3  1  0  0  0  0
  3  8  1  0  0  0  0
  3  4  2  0  0  0  0
  5  4  1  0  0  0  0
  5  9  1  0  0  0  0
  6  5  2  0  0  0  0
  7  1  1  0  0  0  0
  9 10  1  0  0  0  0
 10 15  1  0  0  0  0
 10 11  2  0  0  0  0
 11 16  1  0  0  0  0
 12 11  1  0  0  0  0
 13 12  2  0  0  0  0
 14  9  2  0  0  0  0
 14 13  1  0  0  0  0
 17 13  1  0  0  0  0
 17 19  2  0  0  0  0
 18 17  1  0  0  0  0
 20 21  1  0  0  0  0
 20  2  1  0  0  0  0
 22 20  1  0  0  0  0
M  END
>  <minimizedAffinity>
-4.31131744

$$$$

 OpenBabel03272506593D

 22 23  0  0  0  0  0  0  0  0999 V2000
   40.1420   23.2720   35.9720 C   0  0  0  0  0  0  0  0  0  0  0  0
   39.5920   22.9160   37.2160 C   0  0  0  0  0  0  0  0  0  0  0  0
   38.3660   23.5500   37.5550 C   0  0  0  0  0  0  0  0  0  0  0  0
   37.8290   24.4240   36.6860 N   0  0  0  0  0  0  0  0  0  0  0  0
   38.3920   24.7270   35.5120 C   0  0  0  0  0  0  0  0  0  0  0  0
   39.5750   24.1560   35.1180 N   0  0  0  0  0  0  0  0  0  0  0  0
   41.0830   22.8250   35.6450 H   0  0  0  0  0  0  0  0  0  0  0  0
   37.9380   23.2840   38.5060 H   0  0  0  0  0  0  0  0  0  0  0  0
   37.8020   25.6720   34.5810 C   0  0  0  0  0  0  0  0  0  0  0  0
   37.8080   25.4620   33.2310 C   0  0  0  0  0  0  0  0  0  0  0  0
   37.2780   26.2910   32.2660 C   0  0  0  0  0  0  0  0  0  0  0  0
   36.6930   27.4360   32.7330 N   0  0  0  0  0  0  0  0  0  0  0  0
   36.6680   27.6800   34.0640 C   0  0  0  0  0  0  0  0  0  0  0  0
   37.2040   26.8270   34.9700 N   0  0  0  0  0  0  0  0  0  0  0  0
   38.2680   24.5610   32.8530 H   0  0  0  0  0  0  0  0  0  0  0  0
   37.3250   26.0520   31.2210 H   0  0  0  0  0  0  0  0  0  0  0  0
   36.0280   28.9190   34.4910 C   0  0  0  0  0  0  0  0  0  0  0  0
   36.4400   29.5760   35.2440 H   0  0  0  0  0  0  0  0  0  0  0  0
   34.9380   29.2370   33.9480 O   0  0  0  0  0  0  0  0  0  0  0  0
   40.2630   21.9790   38.0390 N   0  0  0  0  0  0  0  0  0  0  0  0
   40.5010   22.2360   39.0410 H   0  0  0  0  0  0  0  0  0  0  0  0
   40.4900   21.0540   37.5830 H   0  0  0  0  0  0  0  0  0  0  0  0
  1  2  1  0  0  0  0
  2  3  2  0  0  0  0
  2 20  1  0  0  0  0
  3  8  1  0  0  0  0
  4  3  1  0  0  0  0
  5  4  2  0  0  0  0
  6  5  1  0  0  0  0
  6  1  2  0  0  0  0
  7  1  1  0  0  0  0
  9 14  1  0  0  0  0
  9  5  1  0  0  0  0
 10  9  2  0  0  0  0
 11 12  2  0  0  0  0
 11 10  1  0  0  0  0
 12 13  1  0  0  0  0
 13 17  1  0  0  0  0
 13 14  2  0  0  0  0
 15 10  1  0  0  0  0
 16 11  1  0  0  0  0
 17 18  1  0  0  0  0
 19 17  2  0  0  0  0
 20 21  1  0  0  0  0
 22 20  1  0  0  0  0
M  END
>  <minimizedAffinity>
-4.27334404

$$$$

 OpenBabel03272506593D

 22 23  0  0  0  0  0  0  0  0999 V2000
   38.0730   24.6370   37.2170 C   0  0  0  0  0  0  0  0  0  0  0  0
   38.8080   23.4390   37.2550 C   0  0  0  0  0  0  0  0  0  0  0  0
   39.2940   22.9700   36.0050 C   0  0  0  0  0  0  0  0  0  0  0  0
   39.0270   23.6870   34.8980 N   0  0  0  0  0  0  0  0  0  0  0  0
   38.3230   24.8230   34.9150 C   0  0  0  0  0  0  0  0  0  0  0  0
   37.8210   25.3360   36.0840 N   0  0  0  0  0  0  0  0  0  0  0  0
   37.6680   25.0570   38.1400 H   0  0  0  0  0  0  0  0  0  0  0  0
   39.8580   22.0540   36.0250 H   0  0  0  0  0  0  0  0  0  0  0  0
   38.0410   25.5880   33.7140 C   0  0  0  0  0  0  0  0  0  0  0  0
   38.8930   26.5470   33.2460 C   0  0  0  0  0  0  0  0  0  0  0  0
   38.7200   27.3260   32.1220 C   0  0  0  0  0  0  0  0  0  0  0  0
   37.5680   27.0970   31.4210 N   0  0  0  0  0  0  0  0  0  0  0  0
   36.6980   26.1530   31.8540 C   0  0  0  0  0  0  0  0  0  0  0  0
   36.9200   25.4150   32.9670 N   0  0  0  0  0  0  0  0  0  0  0  0
   39.8050   26.7360   33.7940 H   0  0  0  0  0  0  0  0  0  0  0  0
   39.4410   28.0630   31.8220 H   0  0  0  0  0  0  0  0  0  0  0  0
   35.4920   25.9620   31.0570 C   0  0  0  0  0  0  0  0  0  0  0  0
   34.8990   26.7760   30.6640 H   0  0  0  0  0  0  0  0  0  0  0  0
   35.1260   24.7820   30.8150 O   0  0  0  0  0  0  0  0  0  0  0  0
   39.0180   22.7830   38.4930 N   0  0  0  0  0  0  0  0  0  0  0  0
   38.7440   21.7630   38.5990 H   0  0  0  0  0  0  0  0  0  0  0  0
   39.4480   23.3740   39.2530 H   0  0  0  0  0  0  0  0  0  0  0  0
  1  2  1  0  0  0  0
  1  7  1  0  0  0  0
  2 20  1  0  0  0  0
  3  8  1  0  0  0  0
  3  2  2  0  0  0  0
  4  5  2  0  0  0  0
  4  3  1  0  0  0  0
  5  6  1  0  0  0  0
  6  1  2  0  0  0  0
  9  5  1  0  0  0  0
 10  9  1  0  0  0  0
 10 15  1  0  0  0  0
 11 10  2  0  0  0  0
 12 13  2  0  0  0  0
 12 11  1  0  0  0  0
 13 14  1  0  0  0  0
 14  9  2  0  0  0  0
 16 11  1  0  0  0  0
 17 13  1  0  0  0  0
 18 17  1  0  0  0  0
 19 17  2  0  0  0  0
 20 21  1  0  0  0  0
 20 22  1  0  0  0  0
M  END
>  <minimizedAffinity>
-4.26089668

$$$$

 OpenBabel03272506593D

 22 23  0  0  0  0  0  0  0  0999 V2000
   38.4870   24.2050   36.8720 C   0  0  0  0  0  0  0  0  0  0  0  0
   39.1830   22.9900   37.0000 C   0  0  0  0  0  0  0  0  0  0  0  0
   39.3640   22.2500   35.8000 C   0  0  0  0  0  0  0  0  0  0  0  0
   38.8720   22.7500   34.6530 N   0  0  0  0  0  0  0  0  0  0  0  0
   38.2170   23.9120   34.5830 C   0  0  0  0  0  0  0  0  0  0  0  0
   38.0030   24.6810   35.7000 N   0  0  0  0  0  0  0  0  0  0  0  0
   38.3090   24.8260   37.7520 H   0  0  0  0  0  0  0  0  0  0  0  0
   39.8960   21.3180   35.8890 H   0  0  0  0  0  0  0  0  0  0  0  0
   37.6900   24.4430   33.3390 C   0  0  0  0  0  0  0  0  0  0  0  0
   37.7170   23.7290   32.1740 C   0  0  0  0  0  0  0  0  0  0  0  0
   37.2460   24.1380   30.9460 C   0  0  0  0  0  0  0  0  0  0  0  0
   36.7000   25.3910   30.9140 N   0  0  0  0  0  0  0  0  0  0  0  0
   36.6540   26.1300   32.0480 C   0  0  0  0  0  0  0  0  0  0  0  0
   37.1330   25.6760   33.2310 N   0  0  0  0  0  0  0  0  0  0  0  0
   38.1480   22.7380   32.1890 H   0  0  0  0  0  0  0  0  0  0  0  0
   37.3070   23.5120   30.0750 H   0  0  0  0  0  0  0  0  0  0  0  0
   36.0580   27.4560   31.9410 C   0  0  0  0  0  0  0  0  0  0  0  0
   35.5930   27.8320   31.0390 H   0  0  0  0  0  0  0  0  0  0  0  0
   36.0860   28.1990   32.9560 O   0  0  0  0  0  0  0  0  0  0  0  0
   39.6500   22.5780   38.2720 N   0  0  0  0  0  0  0  0  0  0  0  0
   39.3830   21.6210   38.6450 H   0  0  0  0  0  0  0  0  0  0  0  0
   40.2540   23.2770   38.7820 H   0  0  0  0  0  0  0  0  0  0  0  0
  1  2  1  0  0  0  0
  1  7  1  0  0  0  0
  2 20  1  0  0  0  0
  3  8  1  0  0  0  0
  3  2  2  0  0  0  0
  4  3  1  0  0  0  0
  5  4  2  0  0  0  0
  5  6  1  0  0  0  0
  6  1  2  0  0  0  0
  9  5  1  0  0  0  0
 10 15  1  0  0  0  0
 10  9  2  0  0  0  0
 11 10  1  0  0  0  0
 12 11  2  0  0  0  0
 12 13  1  0  0  0  0
 13 14  2  0  0  0  0
 14  9  1  0  0  0  0
 16 11  1  0  0  0  0
 17 13  1  0  0  0  0
 17 19  2  0  0  0  0
 18 17  1  0  0  0  0
 20 21  1  0  0  0  0
 20 22  1  0  0  0  0
M  END
>  <minimizedAffinity>
-4.07925224

$$$$

 OpenBabel03272506593D

 22 23  0  0  0  0  0  0  0  0999 V2000
   36.7160   25.5470   31.4720 C   0  0  0  0  0  0  0  0  0  0  0  0
   36.9640   26.9060   31.2080 C   0  0  0  0  0  0  0  0  0  0  0  0
   37.8120   27.5730   32.1330 C   0  0  0  0  0  0  0  0  0  0  0  0
   38.3100   26.8770   33.1700 N   0  0  0  0  0  0  0  0  0  0  0  0
   38.0450   25.5830   33.3770 C   0  0  0  0  0  0  0  0  0  0  0  0
   37.2330   24.8740   32.5270 N   0  0  0  0  0  0  0  0  0  0  0  0
   36.0720   24.9710   30.8050 H   0  0  0  0  0  0  0  0  0  0  0  0
   38.0060   28.6130   31.9380 H   0  0  0  0  0  0  0  0  0  0  0  0
   38.5880   24.8410   34.5010 C   0  0  0  0  0  0  0  0  0  0  0  0
   39.7960   24.2080   34.4380 C   0  0  0  0  0  0  0  0  0  0  0  0
   40.3990   23.4820   35.4430 C   0  0  0  0  0  0  0  0  0  0  0  0
   39.6940   23.3990   36.6120 N   0  0  0  0  0  0  0  0  0  0  0  0
   38.4920   24.0140   36.7120 C   0  0  0  0  0  0  0  0  0  0  0  0
   37.9460   24.7170   35.6910 N   0  0  0  0  0  0  0  0  0  0  0  0
   40.3610   24.2670   33.5190 H   0  0  0  0  0  0  0  0  0  0  0  0
   41.3560   23.0120   35.3110 H   0  0  0  0  0  0  0  0  0  0  0  0
   37.7960   23.8850   37.9880 C   0  0  0  0  0  0  0  0  0  0  0  0
   37.0980   23.0900   38.2100 H   0  0  0  0  0  0  0  0  0  0  0  0
   38.0250   24.7480   38.8740 O   0  0  0  0  0  0  0  0  0  0  0  0
   36.3740   27.5200   30.0760 N   0  0  0  0  0  0  0  0  0  0  0  0
   35.7980   28.4030   30.1980 H   0  0  0  0  0  0  0  0  0  0  0  0
   36.5550   27.0410   29.1530 H   0  0  0  0  0  0  0  0  0  0  0  0
  1  6  1  0  0  0  0
  2  1  2  0  0  0  0
  2  3  1  0  0  0  0
  3  4  2  0  0  0  0
  4  5  1  0  0  0  0
  5  9  1  0  0  0  0
  6  5  2  0  0  0  0
  7  1  1  0  0  0  0
  8  3  1  0  0  0  0
  9 14  1  0  0  0  0
 10  9  2  0  0  0  0
 10 11  1  0  0  0  0
 11 12  2  0  0  0  0
 12 13  1  0  0  0  0
 13 17  1  0  0  0  0
 14 13  2  0  0  0  0
 15 10  1  0  0  0  0
 16 11  1  0  0  0  0
 17 18  1  0  0  0  0
 17 19  2  0  0  0  0
 20 21  1  0  0  0  0
 20  2  1  0  0  0  0
 22 20  1  0  0  0  0
M  END
>  <minimizedAffinity>
-4.05929422

$$$$

 OpenBabel03272506593D

 22 23  0  0  0  0  0  0  0  0999 V2000
   37.8590   24.3570   37.5410 C   0  0  0  0  0  0  0  0  0  0  0  0
   38.6390   23.2710   37.9780 C   0  0  0  0  0  0  0  0  0  0  0  0
   39.7650   22.9540   37.1720 C   0  0  0  0  0  0  0  0  0  0  0  0
   40.0040   23.6940   36.0750 N   0  0  0  0  0  0  0  0  0  0  0  0
   39.2310   24.7190   35.7030 C   0  0  0  0  0  0  0  0  0  0  0  0
   38.1270   25.0830   36.4310 N   0  0  0  0  0  0  0  0  0  0  0  0
   36.9770   24.6580   38.1110 H   0  0  0  0  0  0  0  0  0  0  0  0
   40.3680   22.1240   37.4990 H   0  0  0  0  0  0  0  0  0  0  0  0
   39.4980   25.5120   34.5170 C   0  0  0  0  0  0  0  0  0  0  0  0
   40.4800   26.4610   34.4820 C   0  0  0  0  0  0  0  0  0  0  0  0
   40.8140   27.2640   33.4130 C   0  0  0  0  0  0  0  0  0  0  0  0
   40.0690   27.0730   32.2810 N   0  0  0  0  0  0  0  0  0  0  0  0
   39.0870   26.1410   32.2760 C   0  0  0  0  0  0  0  0  0  0  0  0
   38.8020   25.3780   33.3580 N   0  0  0  0  0  0  0  0  0  0  0  0
   41.0730   26.6200   35.3720 H   0  0  0  0  0  0  0  0  0  0  0  0
   41.6030   27.9900   33.4690 H   0  0  0  0  0  0  0  0  0  0  0  0
   38.3340   25.9900   31.0360 C   0  0  0  0  0  0  0  0  0  0  0  0
   37.4630   25.3580   30.9380 H   0  0  0  0  0  0  0  0  0  0  0  0
   38.7240   26.6350   30.0280 O   0  0  0  0  0  0  0  0  0  0  0  0
   38.2750   22.5730   39.1560 N   0  0  0  0  0  0  0  0  0  0  0  0
   38.1430   21.5200   39.1220 H   0  0  0  0  0  0  0  0  0  0  0  0
   38.1560   23.1690   40.0180 H   0  0  0  0  0  0  0  0  0  0  0  0
  1  2  1  0  0  0  0
  1  7  1  0  0  0  0
  2 20  1  0  0  0  0
  3  8  1  0  0  0  0
  3  2  2  0  0  0  0
  4  3  1  0  0  0  0
  5  4  2  0  0  0  0
  5  6  1  0  0  0  0
  6  1  2  0  0  0  0
  9  5  1  0  0  0  0
 10  9  1  0  0  0  0
 10 15  1  0  0  0  0
 11 16  1  0  0  0  0
 11 10  2  0  0  0  0
 12 11  1  0  0  0  0
 13 12  2  0  0  0  0
 13 14  1  0  0  0  0
 14  9  2  0  0  0  0
 17 13  1  0  0  0  0
 18 17  1  0  0  0  0
 19 17  2  0  0  0  0
 20 22  1  0  0  0  0
 21 20  1  0  0  0  0
M  END
>  <minimizedAffinity>
-4.04518366

$$$$

 OpenBabel03272506593D

 22 23  0  0  0  0  0  0  0  0999 V2000
   38.0200   24.5200   37.3510 C   0  0  0  0  0  0  0  0  0  0  0  0
   38.6720   23.2840   37.5040 C   0  0  0  0  0  0  0  0  0  0  0  0
   39.1100   22.6610   36.3040 C   0  0  0  0  0  0  0  0  0  0  0  0
   38.8780   23.2800   35.1330 N   0  0  0  0  0  0  0  0  0  0  0  0
   38.2540   24.4580   35.0410 C   0  0  0  0  0  0  0  0  0  0  0  0
   37.8030   25.1180   36.1560 N   0  0  0  0  0  0  0  0  0  0  0  0
   37.6560   25.0560   38.2290 H   0  0  0  0  0  0  0  0  0  0  0  0
   39.6090   21.7140   36.4130 H   0  0  0  0  0  0  0  0  0  0  0  0
   38.0090   25.1180   33.7710 C   0  0  0  0  0  0  0  0  0  0  0  0
   37.2210   26.2290   33.6690 C   0  0  0  0  0  0  0  0  0  0  0  0
   36.9260   26.9280   32.5180 C   0  0  0  0  0  0  0  0  0  0  0  0
   37.4930   26.4390   31.3730 N   0  0  0  0  0  0  0  0  0  0  0  0
   38.2810   25.3390   31.4340 C   0  0  0  0  0  0  0  0  0  0  0  0
   38.5380   24.6910   32.5950 N   0  0  0  0  0  0  0  0  0  0  0  0
   36.7680   26.6230   34.5680 H   0  0  0  0  0  0  0  0  0  0  0  0
   36.2940   27.7960   32.5240 H   0  0  0  0  0  0  0  0  0  0  0  0
   38.8520   24.8740   30.1750 C   0  0  0  0  0  0  0  0  0  0  0  0
   39.5920   25.4270   29.6140 H   0  0  0  0  0  0  0  0  0  0  0  0
   38.4590   23.7670   29.7230 O   0  0  0  0  0  0  0  0  0  0  0  0
   38.8520   22.7400   38.8000 N   0  0  0  0  0  0  0  0  0  0  0  0
   38.5110   21.7570   39.0090 H   0  0  0  0  0  0  0  0  0  0  0  0
   39.3310   23.3730   39.4950 H   0  0  0  0  0  0  0  0  0  0  0  0
  1  2  1  0  0  0  0
  1  7  1  0  0  0  0
  2 20  1  0  0  0  0
  3  8  1  0  0  0  0
  3  2  2  0  0  0  0
  4  3  1  0  0  0  0
  5  4  2  0  0  0  0
  5  6  1  0  0  0  0
  6  1  2  0  0  0  0
  9  5  1  0  0  0  0
 10  9  1  0  0  0  0
 10 15  1  0  0  0  0
 11 16  1  0  0  0  0
 11 10  2  0  0  0  0
 12 13  2  0  0  0  0
 12 11  1  0  0  0  0
 13 14  1  0  0  0  0
 14  9  2  0  0  0  0
 17 13  1  0  0  0  0
 18 17  1  0  0  0  0
 19 17  2  0  0  0  0
 20 21  1  0  0  0  0
 20 22  1  0  0  0  0
M  END
>  <minimizedAffinity>
-4.03994513

$$$$

 OpenBabel03272506593D

 22 23  0  0  0  0  0  0  0  0999 V2000
   34.7120   20.6270   32.3050 C   0  0  0  0  0  0  0  0  0  0  0  0
   35.2750   19.4670   31.7420 C   0  0  0  0  0  0  0  0  0  0  0  0
   36.4190   19.6690   30.9240 C   0  0  0  0  0  0  0  0  0  0  0  0
   36.8750   20.9220   30.7490 N   0  0  0  0  0  0  0  0  0  0  0  0
   36.3040   21.9930   31.3080 C   0  0  0  0  0  0  0  0  0  0  0  0
   35.1960   21.8760   32.1090 N   0  0  0  0  0  0  0  0  0  0  0  0
   33.8300   20.5490   32.9440 H   0  0  0  0  0  0  0  0  0  0  0  0
   36.8560   18.7870   30.4890 H   0  0  0  0  0  0  0  0  0  0  0  0
   36.8050   23.3410   31.1130 C   0  0  0  0  0  0  0  0  0  0  0  0
   38.0610   23.5880   30.6340 C   0  0  0  0  0  0  0  0  0  0  0  0
   38.6300   24.8230   30.4130 C   0  0  0  0  0  0  0  0  0  0  0  0
   37.8370   25.8970   30.7120 N   0  0  0  0  0  0  0  0  0  0  0  0
   36.5860   25.6930   31.1880 C   0  0  0  0  0  0  0  0  0  0  0  0
   36.0770   24.4530   31.3860 N   0  0  0  0  0  0  0  0  0  0  0  0
   38.6950   22.7460   30.3960 H   0  0  0  0  0  0  0  0  0  0  0  0
   39.6290   24.9310   30.0330 H   0  0  0  0  0  0  0  0  0  0  0  0
   35.7970   26.8830   31.4840 C   0  0  0  0  0  0  0  0  0  0  0  0
   34.8980   26.8690   32.0860 H   0  0  0  0  0  0  0  0  0  0  0  0
   36.1880   27.9820   31.0140 O   0  0  0  0  0  0  0  0  0  0  0  0
   34.6930   18.2040   32.0080 N   0  0  0  0  0  0  0  0  0  0  0  0
   34.4120   17.5750   31.2000 H   0  0  0  0  0  0  0  0  0  0  0  0
   34.5750   17.9640   33.0290 H   0  0  0  0  0  0  0  0  0  0  0  0
  1  7  1  0  0  0  0
  2 20  1  0  0  0  0
  2  1  2  0  0  0  0
  3  2  1  0  0  0  0
  4  3  2  0  0  0  0
  4  5  1  0  0  0  0
  5  6  2  0  0  0  0
  6  1  1  0  0  0  0
  8  3  1  0  0  0  0
  9  5  1  0  0  0  0
  9 14  1  0  0  0  0
 10  9  2  0  0  0  0
 11 10  1  0  0  0  0
 11 12  2  0  0  0  0
 12 13  1  0  0  0  0
 13 14  2  0  0  0  0
 13 17  1  0  0  0  0
 15 10  1  0  0  0  0
 16 11  1  0  0  0  0
 17 18  1  0  0  0  0
 19 17  2  0  0  0  0
 20 22  1  0  0  0  0
 21 20  1  0  0  0  0
M  END
>  <minimizedAffinity>
-4.00281811

$$$$
