
 OpenBabel03272510323D

 22 23  0  0  0  0  0  0  0  0999 V2000
   36.0980   30.2710   48.7310 C   0  0  0  0  0  0  0  0  0  0  0  0
   35.0890   30.2620   47.8160 C   0  0  0  0  0  0  0  0  0  0  0  0
   34.0700   29.3290   47.8800 C   0  0  0  0  0  0  0  0  0  0  0  0
   34.0910   28.4010   48.8910 C   0  0  0  0  0  0  0  0  0  0  0  0
   35.1110   28.3820   49.8470 C   0  0  0  0  0  0  0  0  0  0  0  0
   36.1140   29.3310   49.7500 C   0  0  0  0  0  0  0  0  0  0  0  0
   35.0640   30.9950   47.0080 H   0  0  0  0  0  0  0  0  0  0  0  0
   33.2570   29.2860   47.1800 H   0  0  0  0  0  0  0  0  0  0  0  0
   33.3520   27.6210   49.0490 H   0  0  0  0  0  0  0  0  0  0  0  0
   35.1650   27.6630   50.6650 H   0  0  0  0  0  0  0  0  0  0  0  0
   38.0590   33.2650   49.3980 C   0  0  0  0  0  0  0  0  0  0  0  0
   39.0630   33.2460   48.4090 C   0  0  0  0  0  0  0  0  0  0  0  0
   39.0440   32.1670   47.5040 C   0  0  0  0  0  0  0  0  0  0  0  0
   38.0800   31.2210   47.6260 N   0  0  0  0  0  0  0  0  0  0  0  0
   37.1320   31.2800   48.5960 C   0  0  0  0  0  0  0  0  0  0  0  0
   37.1440   32.3050   49.4630 N   0  0  0  0  0  0  0  0  0  0  0  0
   37.9890   34.0520   50.1410 H   0  0  0  0  0  0  0  0  0  0  0  0
   39.7890   34.0430   48.3900 H   0  0  0  0  0  0  0  0  0  0  0  0
   39.8080   32.1390   46.7400 H   0  0  0  0  0  0  0  0  0  0  0  0
   37.1840   29.3220   50.7400 C   0  0  0  0  0  0  0  0  0  0  0  0
   38.1250   28.8250   50.5720 H   0  0  0  0  0  0  0  0  0  0  0  0
   37.0890   29.8900   51.8590 O   0  0  0  0  0  0  0  0  0  0  0  0
  1  6  1  0  0  0  0
  2  3  1  0  0  0  0
  2  1  2  0  0  0  0
  3  4  2  0  0  0  0
  4  9  1  0  0  0  0
  4  5  1  0  0  0  0
  5 10  1  0  0  0  0
  6  5  2  0  0  0  0
  6 20  1  0  0  0  0
  7  2  1  0  0  0  0
  8  3  1  0  0  0  0
 11 16  1  0  0  0  0
 11 17  1  0  0  0  0
 12 11  2  0  0  0  0
 13 14  2  0  0  0  0
 13 12  1  0  0  0  0
 14 15  1  0  0  0  0
 15  1  1  0  0  0  0
 15 16  2  0  0  0  0
 18 12  1  0  0  0  0
 19 13  1  0  0  0  0
 20 22  2  0  0  0  0
 21 20  1  0  0  0  0
M  END
>  <minimizedAffinity>
-5.48402309

>  <minimizedRMSD>
0.365478933

$$$$
