
 OpenBabel03272508253D

 19 20  0  0  1  0  0  0  0  0999 V2000
   38.4120   25.7570   35.0880 C   0  0  1  0  0  0  0  0  0  0  0  0
   37.6300   26.9720   35.2950 C   0  0  1  0  0  0  0  0  0  0  0  0
   39.1250   27.0860   35.2850 C   0  0  0  0  0  0  0  0  0  0  0  0
   38.4540   25.3360   34.0430 H   0  0  0  0  0  0  0  0  0  0  0  0
   37.1870   27.1390   36.2980 H   0  0  0  0  0  0  0  0  0  0  0  0
   39.6900   27.2490   36.2000 H   0  0  0  0  0  0  0  0  0  0  0  0
   39.5580   27.5050   34.3690 H   0  0  0  0  0  0  0  0  0  0  0  0
   38.6460   24.7930   36.2180 C   0  0  0  0  0  0  0  0  0  0  0  0
   39.6150   23.7930   36.0180 C   0  0  0  0  0  0  0  0  0  0  0  0
   39.8010   22.8940   37.0670 C   0  0  0  0  0  0  0  0  0  0  0  0
   39.0520   23.0320   38.2010 N   0  0  0  0  0  0  0  0  0  0  0  0
   38.1250   24.0080   38.3600 C   0  0  0  0  0  0  0  0  0  0  0  0
   37.9260   24.8960   37.3530 N   0  0  0  0  0  0  0  0  0  0  0  0
   40.1700   23.7480   35.0930 H   0  0  0  0  0  0  0  0  0  0  0  0
   40.5340   22.1030   36.9690 H   0  0  0  0  0  0  0  0  0  0  0  0
   37.5750   24.0460   39.2890 H   0  0  0  0  0  0  0  0  0  0  0  0
   36.8940   27.6020   34.1710 C   0  0  0  0  0  0  0  0  0  0  0  0
   36.9310   27.3050   33.1270 H   0  0  0  0  0  0  0  0  0  0  0  0
   36.1840   28.5530   34.5270 O   0  0  0  0  0  0  0  0  0  0  0  0
  1  4  1  6  0  0  0
  1  3  1  0  0  0  0
  1  2  1  0  0  0  0
  1  8  1  0  0  0  0
  2  5  1  1  0  0  0
  3  2  1  0  0  0  0
  3  6  1  0  0  0  0
  7  3  1  0  0  0  0
  8 13  1  0  0  0  0
  9  8  2  0  0  0  0
  9 10  1  0  0  0  0
 10 11  2  0  0  0  0
 11 12  1  0  0  0  0
 12 16  1  0  0  0  0
 13 12  2  0  0  0  0
 14  9  1  0  0  0  0
 15 10  1  0  0  0  0
 17 19  2  0  0  0  0
 17  2  1  0  0  0  0
 18 17  1  0  0  0  0
M  END
>  <minimizedAffinity>
-3.62599659

$$$$

 OpenBabel03272508253D

 19 20  0  0  1  0  0  0  0  0999 V2000
   38.5460   25.6890   35.0070 C   0  0  1  0  0  0  0  0  0  0  0  0
   37.7840   26.9020   35.2860 C   0  0  1  0  0  0  0  0  0  0  0  0
   39.2790   27.0030   35.2290 C   0  0  0  0  0  0  0  0  0  0  0  0
   38.5480   25.3080   33.9460 H   0  0  0  0  0  0  0  0  0  0  0  0
   37.3770   27.0350   36.3090 H   0  0  0  0  0  0  0  0  0  0  0  0
   39.8770   27.1260   36.1300 H   0  0  0  0  0  0  0  0  0  0  0  0
   39.6850   27.4520   34.3150 H   0  0  0  0  0  0  0  0  0  0  0  0
   38.8080   24.6810   36.0900 C   0  0  0  0  0  0  0  0  0  0  0  0
   37.9560   24.7050   37.2090 C   0  0  0  0  0  0  0  0  0  0  0  0
   38.2300   23.7780   38.2140 C   0  0  0  0  0  0  0  0  0  0  0  0
   39.2820   22.9210   38.0590 N   0  0  0  0  0  0  0  0  0  0  0  0
   40.0840   22.9250   36.9670 C   0  0  0  0  0  0  0  0  0  0  0  0
   39.8380   23.8180   35.9750 N   0  0  0  0  0  0  0  0  0  0  0  0
   37.1420   25.4130   37.2610 H   0  0  0  0  0  0  0  0  0  0  0  0
   37.6060   23.7510   39.0990 H   0  0  0  0  0  0  0  0  0  0  0  0
   40.8960   22.2140   36.9240 H   0  0  0  0  0  0  0  0  0  0  0  0
   37.0170   27.5820   34.2120 C   0  0  0  0  0  0  0  0  0  0  0  0
   37.0500   27.3550   33.1520 H   0  0  0  0  0  0  0  0  0  0  0  0
   36.2830   28.4860   34.6370 O   0  0  0  0  0  0  0  0  0  0  0  0
  1  4  1  6  0  0  0
  1  3  1  0  0  0  0
  1  2  1  0  0  0  0
  1  8  1  0  0  0  0
  2  5  1  1  0  0  0
  3  2  1  0  0  0  0
  3  6  1  0  0  0  0
  7  3  1  0  0  0  0
  8  9  1  0  0  0  0
  9 14  1  0  0  0  0
  9 10  2  0  0  0  0
 10 15  1  0  0  0  0
 11 10  1  0  0  0  0
 12 11  2  0  0  0  0
 13  8  2  0  0  0  0
 13 12  1  0  0  0  0
 16 12  1  0  0  0  0
 17 19  2  0  0  0  0
 17  2  1  0  0  0  0
 18 17  1  0  0  0  0
M  END
>  <minimizedAffinity>
-3.5940361

$$$$

 OpenBabel03272508253D

 19 20  0  0  1  0  0  0  0  0999 V2000
   41.1690   21.9700   37.3680 C   0  0  1  0  0  0  0  0  0  0  0  0
   41.8790   21.4880   36.1870 C   0  0  1  0  0  0  0  0  0  0  0  0
   42.2380   22.8400   36.7260 C   0  0  0  0  0  0  0  0  0  0  0  0
   41.4460   21.5190   38.3620 H   0  0  0  0  0  0  0  0  0  0  0  0
   41.3540   21.5340   35.2110 H   0  0  0  0  0  0  0  0  0  0  0  0
   41.9370   23.7550   36.2180 H   0  0  0  0  0  0  0  0  0  0  0  0
   43.1780   22.8880   37.2880 H   0  0  0  0  0  0  0  0  0  0  0  0
   39.7880   22.5530   37.2480 C   0  0  0  0  0  0  0  0  0  0  0  0
   39.2880   23.2520   38.3620 C   0  0  0  0  0  0  0  0  0  0  0  0
   37.9970   23.7640   38.2410 C   0  0  0  0  0  0  0  0  0  0  0  0
   37.3090   23.5650   37.0780 N   0  0  0  0  0  0  0  0  0  0  0  0
   37.8220   22.8860   36.0230 C   0  0  0  0  0  0  0  0  0  0  0  0
   39.0770   22.3770   36.1160 N   0  0  0  0  0  0  0  0  0  0  0  0
   39.8920   23.3700   39.2490 H   0  0  0  0  0  0  0  0  0  0  0  0
   37.5600   24.3110   39.0670 H   0  0  0  0  0  0  0  0  0  0  0  0
   37.2100   22.7720   35.1400 H   0  0  0  0  0  0  0  0  0  0  0  0
   42.9030   20.4190   36.3000 C   0  0  0  0  0  0  0  0  0  0  0  0
   43.5500   20.0590   35.5070 H   0  0  0  0  0  0  0  0  0  0  0  0
   42.9750   19.9340   37.4370 O   0  0  0  0  0  0  0  0  0  0  0  0
  1  4  1  1  0  0  0
  2  5  1  6  0  0  0
  2 17  1  0  0  0  0
  2  3  1  0  0  0  0
  2  1  1  0  0  0  0
  3  7  1  0  0  0  0
  3  1  1  0  0  0  0
  6  3  1  0  0  0  0
  8  1  1  0  0  0  0
  8  9  1  0  0  0  0
  9 14  1  0  0  0  0
 10  9  2  0  0  0  0
 10 15  1  0  0  0  0
 11 10  1  0  0  0  0
 12 13  1  0  0  0  0
 12 11  2  0  0  0  0
 13  8  2  0  0  0  0
 16 12  1  0  0  0  0
 17 19  2  0  0  0  0
 18 17  1  0  0  0  0
M  END
>  <minimizedAffinity>
-3.44660163

$$$$

 OpenBabel03272508253D

 19 20  0  0  1  0  0  0  0  0999 V2000
   38.6730   24.1400   36.0120 C   0  0  1  0  0  0  0  0  0  0  0  0
   38.0740   23.8710   37.3160 C   0  0  1  0  0  0  0  0  0  0  0  0
   37.7920   22.9150   36.1960 C   0  0  0  0  0  0  0  0  0  0  0  0
   39.7740   23.9310   35.8910 H   0  0  0  0  0  0  0  0  0  0  0  0
   37.1880   24.4680   37.6120 H   0  0  0  0  0  0  0  0  0  0  0  0
   36.8230   22.8850   35.7030 H   0  0  0  0  0  0  0  0  0  0  0  0
   38.3410   21.9670   36.2380 H   0  0  0  0  0  0  0  0  0  0  0  0
   38.0720   25.1620   35.0870 C   0  0  0  0  0  0  0  0  0  0  0  0
   37.7600   26.4190   35.6350 C   0  0  0  0  0  0  0  0  0  0  0  0
   37.1810   27.3450   34.7680 C   0  0  0  0  0  0  0  0  0  0  0  0
   36.9560   26.9880   33.4690 N   0  0  0  0  0  0  0  0  0  0  0  0
   37.2690   25.7660   32.9730 C   0  0  0  0  0  0  0  0  0  0  0  0
   37.8330   24.8470   33.7980 N   0  0  0  0  0  0  0  0  0  0  0  0
   37.9690   26.6290   36.6740 H   0  0  0  0  0  0  0  0  0  0  0  0
   36.9200   28.3290   35.1350 H   0  0  0  0  0  0  0  0  0  0  0  0
   37.0560   25.5650   31.9340 H   0  0  0  0  0  0  0  0  0  0  0  0
   38.9010   23.3710   38.4430 C   0  0  0  0  0  0  0  0  0  0  0  0
   38.6700   23.4550   39.5000 H   0  0  0  0  0  0  0  0  0  0  0  0
   39.9420   22.8120   38.0710 O   0  0  0  0  0  0  0  0  0  0  0  0
  1  4  1  6  0  0  0
  1  3  1  0  0  0  0
  1  2  1  0  0  0  0
  2  5  1  1  0  0  0
  2 17  1  0  0  0  0
  3  7  1  0  0  0  0
  3  2  1  0  0  0  0
  6  3  1  0  0  0  0
  8  9  1  0  0  0  0
  8  1  1  0  0  0  0
  9 14  1  0  0  0  0
 10 15  1  0  0  0  0
 10  9  2  0  0  0  0
 11 10  1  0  0  0  0
 12 11  2  0  0  0  0
 12 13  1  0  0  0  0
 13  8  2  0  0  0  0
 16 12  1  0  0  0  0
 17 18  1  0  0  0  0
 19 17  2  0  0  0  0
M  END
>  <minimizedAffinity>
-3.35394979

$$$$

 OpenBabel03272508253D

 19 20  0  0  1  0  0  0  0  0999 V2000
   37.3110   26.8170   35.2000 C   0  0  1  0  0  0  0  0  0  0  0  0
   38.1910   25.6920   35.5000 C   0  0  1  0  0  0  0  0  0  0  0  0
   38.7930   27.0640   35.4280 C   0  0  0  0  0  0  0  0  0  0  0  0
   36.6290   27.1780   36.0210 H   0  0  0  0  0  0  0  0  0  0  0  0
   38.5000   25.0370   34.6610 H   0  0  0  0  0  0  0  0  0  0  0  0
   39.4110   27.3710   34.5860 H   0  0  0  0  0  0  0  0  0  0  0  0
   39.0300   27.5240   36.3940 H   0  0  0  0  0  0  0  0  0  0  0  0
   36.8800   27.0980   33.7880 C   0  0  0  0  0  0  0  0  0  0  0  0
   36.3440   28.3710   33.5210 C   0  0  0  0  0  0  0  0  0  0  0  0
   35.9280   28.6050   32.2110 C   0  0  0  0  0  0  0  0  0  0  0  0
   36.0610   27.6110   31.2850 N   0  0  0  0  0  0  0  0  0  0  0  0
   36.5810   26.3940   31.5750 C   0  0  0  0  0  0  0  0  0  0  0  0
   36.9940   26.1420   32.8440 N   0  0  0  0  0  0  0  0  0  0  0  0
   36.2710   29.1080   34.3070 H   0  0  0  0  0  0  0  0  0  0  0  0
   35.5070   29.5680   31.9490 H   0  0  0  0  0  0  0  0  0  0  0  0
   36.6510   25.6630   30.7830 H   0  0  0  0  0  0  0  0  0  0  0  0
   38.1580   25.0350   36.8310 C   0  0  0  0  0  0  0  0  0  0  0  0
   38.6630   25.3730   37.7310 H   0  0  0  0  0  0  0  0  0  0  0  0
   37.4670   24.0070   36.8480 O   0  0  0  0  0  0  0  0  0  0  0  0
  1  3  1  0  0  0  0
  1  2  1  0  0  0  0
  1  4  1  1  0  0  0
  2  5  1  6  0  0  0
  2 17  1  0  0  0  0
  3  2  1  0  0  0  0
  3  7  1  0  0  0  0
  6  3  1  0  0  0  0
  8  1  1  0  0  0  0
  9  8  1  0  0  0  0
  9 14  1  0  0  0  0
 10  9  2  0  0  0  0
 11 12  2  0  0  0  0
 11 10  1  0  0  0  0
 12 13  1  0  0  0  0
 13  8  2  0  0  0  0
 15 10  1  0  0  0  0
 16 12  1  0  0  0  0
 17 19  2  0  0  0  0
 17 18  1  0  0  0  0
M  END
>  <minimizedAffinity>
-3.32616925

$$$$

 OpenBabel03272508253D

 19 20  0  0  1  0  0  0  0  0999 V2000
   36.4790   22.4490   32.2180 C   0  0  1  0  0  0  0  0  0  0  0  0
   35.4260   21.5400   31.7760 C   0  0  1  0  0  0  0  0  0  0  0  0
   36.7450   21.4970   31.0630 C   0  0  0  0  0  0  0  0  0  0  0  0
   37.0100   22.2020   33.1810 H   0  0  0  0  0  0  0  0  0  0  0  0
   34.6080   21.9560   31.1540 H   0  0  0  0  0  0  0  0  0  0  0  0
   36.8650   21.9050   30.0610 H   0  0  0  0  0  0  0  0  0  0  0  0
   37.3890   20.6480   31.3190 H   0  0  0  0  0  0  0  0  0  0  0  0
   36.4720   23.8930   31.7980 C   0  0  0  0  0  0  0  0  0  0  0  0
   35.2490   24.4270   31.3540 C   0  0  0  0  0  0  0  0  0  0  0  0
   35.2680   25.7600   30.9460 C   0  0  0  0  0  0  0  0  0  0  0  0
   36.4430   26.4540   31.0000 N   0  0  0  0  0  0  0  0  0  0  0  0
   37.6050   25.9080   31.4330 C   0  0  0  0  0  0  0  0  0  0  0  0
   37.6120   24.6120   31.8360 N   0  0  0  0  0  0  0  0  0  0  0  0
   34.3590   23.8150   31.3400 H   0  0  0  0  0  0  0  0  0  0  0  0
   34.3550   26.2230   30.5950 H   0  0  0  0  0  0  0  0  0  0  0  0
   38.4900   26.5270   31.4430 H   0  0  0  0  0  0  0  0  0  0  0  0
   35.0550   20.3550   32.5890 C   0  0  0  0  0  0  0  0  0  0  0  0
   35.2700   20.2010   33.6420 H   0  0  0  0  0  0  0  0  0  0  0  0
   34.4410   19.4940   31.9420 O   0  0  0  0  0  0  0  0  0  0  0  0
  1  4  1  1  0  0  0
  2  5  1  6  0  0  0
  2  1  1  0  0  0  0
  2 17  1  0  0  0  0
  3  7  1  0  0  0  0
  3  2  1  0  0  0  0
  3  1  1  0  0  0  0
  6  3  1  0  0  0  0
  8 13  1  0  0  0  0
  8  1  1  0  0  0  0
  9  8  2  0  0  0  0
 10 11  2  0  0  0  0
 10  9  1  0  0  0  0
 11 12  1  0  0  0  0
 12 16  1  0  0  0  0
 12 13  2  0  0  0  0
 14  9  1  0  0  0  0
 15 10  1  0  0  0  0
 17 18  1  0  0  0  0
 19 17  2  0  0  0  0
M  END
>  <minimizedAffinity>
-3.17867517

$$$$

 OpenBabel03272508253D

 19 20  0  0  1  0  0  0  0  0999 V2000
   36.4050   22.3710   32.2150 C   0  0  1  0  0  0  0  0  0  0  0  0
   35.3630   21.4140   31.8550 C   0  0  1  0  0  0  0  0  0  0  0  0
   36.6320   21.4130   31.0560 C   0  0  0  0  0  0  0  0  0  0  0  0
   37.0080   22.1580   33.1430 H   0  0  0  0  0  0  0  0  0  0  0  0
   34.4890   21.7900   31.2840 H   0  0  0  0  0  0  0  0  0  0  0  0
   36.6680   21.8120   30.0440 H   0  0  0  0  0  0  0  0  0  0  0  0
   37.3260   20.5940   31.2770 H   0  0  0  0  0  0  0  0  0  0  0  0
   36.3120   23.8070   31.7800 C   0  0  0  0  0  0  0  0  0  0  0  0
   37.4450   24.6140   31.9860 C   0  0  0  0  0  0  0  0  0  0  0  0
   37.3320   25.9490   31.5980 C   0  0  0  0  0  0  0  0  0  0  0  0
   36.1570   26.3850   31.0540 N   0  0  0  0  0  0  0  0  0  0  0  0
   35.0830   25.5790   30.8710 C   0  0  0  0  0  0  0  0  0  0  0  0
   35.1690   24.2760   31.2400 N   0  0  0  0  0  0  0  0  0  0  0  0
   38.3410   24.1970   32.4210 H   0  0  0  0  0  0  0  0  0  0  0  0
   38.1730   26.6170   31.7330 H   0  0  0  0  0  0  0  0  0  0  0  0
   34.1920   26.0050   30.4340 H   0  0  0  0  0  0  0  0  0  0  0  0
   35.0950   20.2270   32.7040 C   0  0  0  0  0  0  0  0  0  0  0  0
   34.6020   19.3100   32.3960 H   0  0  0  0  0  0  0  0  0  0  0  0
   35.5000   20.3600   33.8680 O   0  0  0  0  0  0  0  0  0  0  0  0
  1  4  1  1  0  0  0
  2  5  1  6  0  0  0
  2  1  1  0  0  0  0
  2 17  1  0  0  0  0
  3  7  1  0  0  0  0
  3  2  1  0  0  0  0
  3  1  1  0  0  0  0
  6  3  1  0  0  0  0
  8  9  1  0  0  0  0
  8  1  1  0  0  0  0
  9 14  1  0  0  0  0
 10 15  1  0  0  0  0
 10  9  2  0  0  0  0
 11 10  1  0  0  0  0
 12 11  2  0  0  0  0
 12 13  1  0  0  0  0
 13  8  2  0  0  0  0
 16 12  1  0  0  0  0
 17 19  2  0  0  0  0
 18 17  1  0  0  0  0
M  END
>  <minimizedAffinity>
-3.17060161

$$$$

 OpenBabel03272508253D

 19 20  0  0  1  0  0  0  0  0999 V2000
   38.7310   24.6760   36.0770 C   0  0  1  0  0  0  0  0  0  0  0  0
   37.7430   24.2180   37.0490 C   0  0  1  0  0  0  0  0  0  0  0  0
   38.0490   23.3320   35.8790 C   0  0  0  0  0  0  0  0  0  0  0  0
   39.8170   24.6280   36.3760 H   0  0  0  0  0  0  0  0  0  0  0  0
   36.7280   24.6620   37.0060 H   0  0  0  0  0  0  0  0  0  0  0  0
   37.3470   23.2140   35.0540 H   0  0  0  0  0  0  0  0  0  0  0  0
   38.6850   22.4670   36.0970 H   0  0  0  0  0  0  0  0  0  0  0  0
   38.3620   25.6830   35.0230 C   0  0  0  0  0  0  0  0  0  0  0  0
   39.2490   25.8360   33.9430 C   0  0  0  0  0  0  0  0  0  0  0  0
   38.9010   26.7920   32.9890 C   0  0  0  0  0  0  0  0  0  0  0  0
   37.7480   27.5050   33.1530 N   0  0  0  0  0  0  0  0  0  0  0  0
   36.9150   27.3320   34.2070 C   0  0  0  0  0  0  0  0  0  0  0  0
   37.2310   26.4080   35.1500 N   0  0  0  0  0  0  0  0  0  0  0  0
   40.1430   25.2350   33.8810 H   0  0  0  0  0  0  0  0  0  0  0  0
   39.5470   26.9530   32.1350 H   0  0  0  0  0  0  0  0  0  0  0  0
   36.0230   27.9390   34.2610 H   0  0  0  0  0  0  0  0  0  0  0  0
   38.1630   23.7390   38.3900 C   0  0  0  0  0  0  0  0  0  0  0  0
   37.6130   23.8570   39.3190 H   0  0  0  0  0  0  0  0  0  0  0  0
   39.2550   23.1540   38.3780 O   0  0  0  0  0  0  0  0  0  0  0  0
  1  4  1  1  0  0  0
  1  2  1  0  0  0  0
  2  5  1  6  0  0  0
  2 17  1  0  0  0  0
  3  1  1  0  0  0  0
  3  7  1  0  0  0  0
  3  2  1  0  0  0  0
  6  3  1  0  0  0  0
  8 13  1  0  0  0  0
  8  1  1  0  0  0  0
  9  8  2  0  0  0  0
 10 11  2  0  0  0  0
 10  9  1  0  0  0  0
 11 12  1  0  0  0  0
 12 16  1  0  0  0  0
 12 13  2  0  0  0  0
 14  9  1  0  0  0  0
 15 10  1  0  0  0  0
 17 18  1  0  0  0  0
 19 17  2  0  0  0  0
M  END
>  <minimizedAffinity>
-3.16750026

$$$$

 OpenBabel03272508253D

 19 20  0  0  1  0  0  0  0  0999 V2000
   37.8180   26.7510   33.3300 C   0  0  1  0  0  0  0  0  0  0  0  0
   39.1300   26.3060   33.7880 C   0  0  1  0  0  0  0  0  0  0  0  0
   39.0660   27.2050   32.5900 C   0  0  0  0  0  0  0  0  0  0  0  0
   37.2970   27.5470   33.9330 H   0  0  0  0  0  0  0  0  0  0  0  0
   39.4430   25.2720   33.5410 H   0  0  0  0  0  0  0  0  0  0  0  0
   39.2480   26.8280   31.5850 H   0  0  0  0  0  0  0  0  0  0  0  0
   39.3420   28.2500   32.7700 H   0  0  0  0  0  0  0  0  0  0  0  0
   36.9450   25.8440   32.5070 C   0  0  0  0  0  0  0  0  0  0  0  0
   37.2020   24.4640   32.5820 C   0  0  0  0  0  0  0  0  0  0  0  0
   36.3980   23.6410   31.7930 C   0  0  0  0  0  0  0  0  0  0  0  0
   35.4300   24.2080   31.0140 N   0  0  0  0  0  0  0  0  0  0  0  0
   35.2090   25.5440   30.9660 C   0  0  0  0  0  0  0  0  0  0  0  0
   35.9780   26.3660   31.7240 N   0  0  0  0  0  0  0  0  0  0  0  0
   37.9860   24.0890   33.2230 H   0  0  0  0  0  0  0  0  0  0  0  0
   36.5520   22.5700   31.8110 H   0  0  0  0  0  0  0  0  0  0  0  0
   34.4230   25.9110   30.3220 H   0  0  0  0  0  0  0  0  0  0  0  0
   39.7320   26.8660   35.0240 C   0  0  0  0  0  0  0  0  0  0  0  0
   40.7810   26.8380   35.3010 H   0  0  0  0  0  0  0  0  0  0  0  0
   38.9020   27.4070   35.7680 O   0  0  0  0  0  0  0  0  0  0  0  0
  1  2  1  0  0  0  0
  1  4  1  1  0  0  0
  2  5  1  6  0  0  0
  2 17  1  0  0  0  0
  3  7  1  0  0  0  0
  3  1  1  0  0  0  0
  3  2  1  0  0  0  0
  6  3  1  0  0  0  0
  8  9  1  0  0  0  0
  8  1  1  0  0  0  0
  9 14  1  0  0  0  0
 10 15  1  0  0  0  0
 10  9  2  0  0  0  0
 11 10  1  0  0  0  0
 12 11  2  0  0  0  0
 12 13  1  0  0  0  0
 13  8  2  0  0  0  0
 16 12  1  0  0  0  0
 17 18  1  0  0  0  0
 17 19  2  0  0  0  0
M  END
>  <minimizedAffinity>
-3.14208651

$$$$
