
 OpenBabel03272503083D

 39 42  0  0  0  0  0  0  0  0999 V2000
   39.2660   31.9120   44.9390 C   0  0  0  0  0  0  0  0  0  0  0  0
   38.1760   32.5600   45.0610 O   0  0  0  0  0  0  0  0  0  0  0  0
   39.9570   31.6500   46.1530 N   0  0  0  0  0  0  0  0  0  0  0  0
   40.8460   31.1310   46.0970 H   0  0  0  0  0  0  0  0  0  0  0  0
   39.1420   32.1960   42.5540 C   0  0  0  0  0  0  0  0  0  0  0  0
   39.6940   31.5090   43.6220 C   0  0  0  0  0  0  0  0  0  0  0  0
   40.6100   30.4850   43.4630 C   0  0  0  0  0  0  0  0  0  0  0  0
   40.9960   30.1290   42.1900 C   0  0  0  0  0  0  0  0  0  0  0  0
   41.8450   29.2000   41.7170 N   0  0  0  0  0  0  0  0  0  0  0  0
   41.8420   29.2850   40.3910 C   0  0  0  0  0  0  0  0  0  0  0  0
   41.0050   30.2510   40.0170 N   0  0  0  0  0  0  0  0  0  0  0  0
   40.4420   30.8190   41.1200 C   0  0  0  0  0  0  0  0  0  0  0  0
   39.5320   31.8350   41.2710 C   0  0  0  0  0  0  0  0  0  0  0  0
   38.4350   32.9850   42.6810 H   0  0  0  0  0  0  0  0  0  0  0  0
   41.0160   29.9750   44.3320 H   0  0  0  0  0  0  0  0  0  0  0  0
   42.3770   28.5620   42.3390 H   0  0  0  0  0  0  0  0  0  0  0  0
   42.4550   28.6300   39.7860 H   0  0  0  0  0  0  0  0  0  0  0  0
   39.0040   32.5030   40.0860 C   0  0  0  0  0  0  0  0  0  0  0  0
   38.8920   31.9940   39.1420 H   0  0  0  0  0  0  0  0  0  0  0  0
   38.6810   33.7100   40.2020 O   0  0  0  0  0  0  0  0  0  0  0  0
   38.1120   30.1520   47.4930 F   0  0  0  0  0  0  0  0  0  0  0  0
   38.3670   31.3900   47.9860 C   0  0  0  0  0  0  0  0  0  0  0  0
   37.7130   31.8280   49.1000 C   0  0  0  0  0  0  0  0  0  0  0  0
   38.0210   33.0850   49.5400 C   0  0  0  0  0  0  0  0  0  0  0  0
   38.9350   33.8950   48.9210 C   0  0  0  0  0  0  0  0  0  0  0  0
   39.5840   33.4270   47.7920 C   0  0  0  0  0  0  0  0  0  0  0  0
   39.2980   32.1600   47.3190 C   0  0  0  0  0  0  0  0  0  0  0  0
   37.5130   33.4580   50.4270 H   0  0  0  0  0  0  0  0  0  0  0  0
   39.1530   34.8860   49.2970 H   0  0  0  0  0  0  0  0  0  0  0  0
   40.3170   34.0460   47.2760 H   0  0  0  0  0  0  0  0  0  0  0  0
   36.0780   29.3540   51.4490 C   0  0  0  0  0  0  0  0  0  0  0  0
   37.0350   30.2070   50.8660 C   0  0  0  0  0  0  0  0  0  0  0  0
   36.7440   30.9330   49.7330 C   0  0  0  0  0  0  0  0  0  0  0  0
   35.4930   30.7830   49.2130 N   0  0  0  0  0  0  0  0  0  0  0  0
   34.5850   29.9690   49.7730 C   0  0  0  0  0  0  0  0  0  0  0  0
   34.8730   29.2730   50.8640 N   0  0  0  0  0  0  0  0  0  0  0  0
   36.4660   28.8620   52.3270 H   0  0  0  0  0  0  0  0  0  0  0  0
   38.0370   30.3410   51.2660 H   0  0  0  0  0  0  0  0  0  0  0  0
   33.5790   29.8300   49.3790 H   0  0  0  0  0  0  0  0  0  0  0  0
  1  2  2  0  0  0  0
  1  3  1  0  0  0  0
  3 27  1  0  0  0  0
  4  3  1  0  0  0  0
  5 14  1  0  0  0  0
  5  6  1  0  0  0  0
  6  1  1  0  0  0  0
  7  6  2  0  0  0  0
  7 15  1  0  0  0  0
  8  7  1  0  0  0  0
  9  8  1  0  0  0  0
  9 16  1  0  0  0  0
 10  9  1  0  0  0  0
 11 10  2  0  0  0  0
 11 12  1  0  0  0  0
 12 13  1  0  0  0  0
 12  8  2  0  0  0  0
 13  5  2  0  0  0  0
 17 10  1  0  0  0  0
 18 20  2  0  0  0  0
 18 13  1  0  0  0  0
 19 18  1  0  0  0  0
 21 22  1  0  0  0  0
 22 23  1  0  0  0  0
 23 24  2  0  0  0  0
 23 33  1  0  0  0  0
 24 28  1  0  0  0  0
 25 29  1  0  0  0  0
 25 24  1  0  0  0  0
 26 25  2  0  0  0  0
 27 26  1  0  0  0  0
 27 22  2  0  0  0  0
 30 26  1  0  0  0  0
 31 37  1  0  0  0  0
 32 38  1  0  0  0  0
 32 31  1  0  0  0  0
 33 32  2  0  0  0  0
 34 33  1  0  0  0  0
 34 35  2  0  0  0  0
 35 36  1  0  0  0  0
 36 31  2  0  0  0  0
 39 35  1  0  0  0  0
M  END
>  <minimizedAffinity>
-7.27300787

>  <minimizedRMSD>
0.354485303

$$$$
