
 OpenBabel03272506003D

 38 40  0  0  1  0  0  0  0  0999 V2000
   37.7900   26.5490   33.1480 C   0  0  2  0  0  0  0  0  0  0  0  0
   38.9440   25.7410   33.6030 C   0  0  0  0  0  0  0  0  0  0  0  0
   38.8830   25.4260   35.1050 C   0  0  2  0  0  0  0  0  0  0  0  0
   38.7790   26.6110   35.9590 C   0  0  0  0  0  0  0  0  0  0  0  0
   37.8730   27.6940   35.3880 C   0  0  0  0  0  0  0  0  0  0  0  0
   36.9970   27.1540   34.2880 C   0  0  0  0  0  0  0  0  0  0  0  0
   38.0950   27.4450   32.5270 H   0  0  0  0  0  0  0  0  0  0  0  0
   39.2170   24.8220   33.1550 H   0  0  0  0  0  0  0  0  0  0  0  0
   39.8560   26.4260   33.5370 H   0  0  0  0  0  0  0  0  0  0  0  0
   38.0660   24.7150   35.2550 H   0  0  0  0  0  0  0  0  0  0  0  0
   38.4530   26.3010   36.9730 H   0  0  0  0  0  0  0  0  0  0  0  0
   39.7620   27.0980   36.1000 H   0  0  0  0  0  0  0  0  0  0  0  0
   37.1930   28.0010   36.2090 H   0  0  0  0  0  0  0  0  0  0  0  0
   38.4160   28.5780   35.0360 H   0  0  0  0  0  0  0  0  0  0  0  0
   36.3110   26.3680   34.6570 H   0  0  0  0  0  0  0  0  0  0  0  0
   36.3880   27.9730   33.9040 H   0  0  0  0  0  0  0  0  0  0  0  0
   38.6190   22.9540   36.6930 Cl  0  0  0  0  0  0  0  0  0  0  0  0
   40.1720   23.5650   36.1450 C   0  0  0  0  0  0  0  0  0  0  0  0
   40.1700   24.7150   35.3690 C   0  0  0  0  0  0  0  0  0  0  0  0
   41.4260   25.0930   34.9660 C   0  0  0  0  0  0  0  0  0  0  0  0
   42.5710   24.4010   35.2990 C   0  0  0  0  0  0  0  0  0  0  0  0
   42.4870   23.2580   36.0820 C   0  0  0  0  0  0  0  0  0  0  0  0
   41.2460   22.8270   36.5190 C   0  0  0  0  0  0  0  0  0  0  0  0
   41.5050   25.9790   34.3510 H   0  0  0  0  0  0  0  0  0  0  0  0
   43.5140   24.7950   34.9230 H   0  0  0  0  0  0  0  0  0  0  0  0
   43.3870   22.7190   36.3410 H   0  0  0  0  0  0  0  0  0  0  0  0
   41.1470   21.6280   37.3420 C   0  0  0  0  0  0  0  0  0  0  0  0
   40.1780   21.3120   37.7030 H   0  0  0  0  0  0  0  0  0  0  0  0
   42.1790   20.9720   37.6270 O   0  0  0  0  0  0  0  0  0  0  0  0
   36.8470   25.7970   32.3080 C   0  0  0  0  0  0  0  0  0  0  0  0
   37.0480   24.4160   32.2810 C   0  0  0  0  0  0  0  0  0  0  0  0
   36.1700   23.6440   31.5120 C   0  0  0  0  0  0  0  0  0  0  0  0
   35.1500   24.2840   30.8180 N   0  0  0  0  0  0  0  0  0  0  0  0
   34.9950   25.6230   30.8730 C   0  0  0  0  0  0  0  0  0  0  0  0
   35.8470   26.3380   31.6140 N   0  0  0  0  0  0  0  0  0  0  0  0
   37.7160   23.6770   32.6860 H   0  0  0  0  0  0  0  0  0  0  0  0
   36.0960   22.6030   31.3210 H   0  0  0  0  0  0  0  0  0  0  0  0
   34.2100   26.1310   30.3400 H   0  0  0  0  0  0  0  0  0  0  0  0
  1  7  1  6  0  0  0
  1  2  1  0  0  0  0
  1  6  1  0  0  0  0
  2  3  1  0  0  0  0
  3 10  1  1  0  0  0
  3 19  1  0  0  0  0
  3  4  1  0  0  0  0
  4 12  1  0  0  0  0
  4 11  1  0  0  0  0
  5  4  1  0  0  0  0
  5 13  1  0  0  0  0
  6 15  1  0  0  0  0
  6  5  1  0  0  0  0
  8  2  1  0  0  0  0
  9  2  1  0  0  0  0
 14  5  1  0  0  0  0
 16  6  1  0  0  0  0
 18 23  1  0  0  0  0
 18 17  1  0  0  0  0
 19 18  2  0  0  0  0
 20 21  2  0  0  0  0
 20 19  1  0  0  0  0
 21 22  1  0  0  0  0
 22 26  1  0  0  0  0
 22 23  2  0  0  0  0
 23 27  1  0  0  0  0
 24 20  1  0  0  0  0
 25 21  1  0  0  0  0
 27 29  2  0  0  0  0
 27 28  1  0  0  0  0
 30  1  1  0  0  0  0
 31 30  1  0  0  0  0
 31 36  1  0  0  0  0
 32 31  2  0  0  0  0
 33 34  2  0  0  0  0
 33 32  1  0  0  0  0
 34 35  1  0  0  0  0
 35 30  2  0  0  0  0
 37 32  1  0  0  0  0
 38 34  1  0  0  0  0
M  END
>  <minimizedAffinity>
-5.56648302

$$$$

 OpenBabel03272506003D

 38 40  0  0  1  0  0  0  0  0999 V2000
   38.5370   25.4280   32.5520 C   0  0  2  0  0  0  0  0  0  0  0  0
   38.6390   24.6800   33.8260 C   0  0  0  0  0  0  0  0  0  0  0  0
   38.7250   25.6080   35.0460 C   0  0  2  0  0  0  0  0  0  0  0  0
   39.8260   26.5730   34.9840 C   0  0  0  0  0  0  0  0  0  0  0  0
   40.0500   27.1490   33.5920 C   0  0  0  0  0  0  0  0  0  0  0  0
   38.8660   26.9000   32.6960 C   0  0  0  0  0  0  0  0  0  0  0  0
   39.2660   25.0640   31.7670 H   0  0  0  0  0  0  0  0  0  0  0  0
   37.9450   23.9350   34.1140 H   0  0  0  0  0  0  0  0  0  0  0  0
   39.6700   24.1880   33.8230 H   0  0  0  0  0  0  0  0  0  0  0  0
   37.7460   26.0810   35.1660 H   0  0  0  0  0  0  0  0  0  0  0  0
   39.6500   27.3730   35.7320 H   0  0  0  0  0  0  0  0  0  0  0  0
   40.7890   26.1100   35.2670 H   0  0  0  0  0  0  0  0  0  0  0  0
   40.1260   28.2490   33.7150 H   0  0  0  0  0  0  0  0  0  0  0  0
   40.9670   26.7900   33.1130 H   0  0  0  0  0  0  0  0  0  0  0  0
   37.9530   27.3990   33.0720 H   0  0  0  0  0  0  0  0  0  0  0  0
   39.0900   27.3130   31.7120 H   0  0  0  0  0  0  0  0  0  0  0  0
   41.0260   23.7880   34.7440 Cl  0  0  0  0  0  0  0  0  0  0  0  0
   39.9560   23.7370   36.1350 C   0  0  0  0  0  0  0  0  0  0  0  0
   38.9310   24.6700   36.1900 C   0  0  0  0  0  0  0  0  0  0  0  0
   38.1720   24.5680   37.3280 C   0  0  0  0  0  0  0  0  0  0  0  0
   38.4050   23.6350   38.3160 C   0  0  0  0  0  0  0  0  0  0  0  0
   39.4530   22.7340   38.1850 C   0  0  0  0  0  0  0  0  0  0  0  0
   40.2540   22.7880   37.0570 C   0  0  0  0  0  0  0  0  0  0  0  0
   37.3550   25.2670   37.4460 H   0  0  0  0  0  0  0  0  0  0  0  0
   37.7380   23.6470   39.1750 H   0  0  0  0  0  0  0  0  0  0  0  0
   39.6320   22.0030   38.9610 H   0  0  0  0  0  0  0  0  0  0  0  0
   41.3570   21.8470   36.9090 C   0  0  0  0  0  0  0  0  0  0  0  0
   41.8390   21.7420   35.9470 H   0  0  0  0  0  0  0  0  0  0  0  0
   41.7410   21.1660   37.8920 O   0  0  0  0  0  0  0  0  0  0  0  0
   37.2100   25.3340   31.9260 C   0  0  0  0  0  0  0  0  0  0  0  0
   36.6060   26.5560   31.6300 C   0  0  0  0  0  0  0  0  0  0  0  0
   35.3490   26.5300   31.0160 C   0  0  0  0  0  0  0  0  0  0  0  0
   34.7670   25.2990   30.7350 N   0  0  0  0  0  0  0  0  0  0  0  0
   35.3890   24.1420   31.0410 C   0  0  0  0  0  0  0  0  0  0  0  0
   36.5900   24.1930   31.6280 N   0  0  0  0  0  0  0  0  0  0  0  0
   36.7970   27.6100   31.7280 H   0  0  0  0  0  0  0  0  0  0  0  0
   34.6840   27.2900   30.6900 H   0  0  0  0  0  0  0  0  0  0  0  0
   34.9500   23.1820   30.8300 H   0  0  0  0  0  0  0  0  0  0  0  0
  1  7  1  6  0  0  0
  1  6  1  0  0  0  0
  1  2  1  0  0  0  0
  2  8  1  0  0  0  0
  2  3  1  0  0  0  0
  3 10  1  1  0  0  0
  3 19  1  0  0  0  0
  4  3  1  0  0  0  0
  4 12  1  0  0  0  0
  4 11  1  0  0  0  0
  5 13  1  0  0  0  0
  5  4  1  0  0  0  0
  6 15  1  0  0  0  0
  6  5  1  0  0  0  0
  9  2  1  0  0  0  0
 14  5  1  0  0  0  0
 16  6  1  0  0  0  0
 17 18  1  0  0  0  0
 18 19  2  0  0  0  0
 18 23  1  0  0  0  0
 19 20  1  0  0  0  0
 20 24  1  0  0  0  0
 20 21  2  0  0  0  0
 21 25  1  0  0  0  0
 22 21  1  0  0  0  0
 22 26  1  0  0  0  0
 23 22  2  0  0  0  0
 27 23  1  0  0  0  0
 27 29  2  0  0  0  0
 28 27  1  0  0  0  0
 30  1  1  0  0  0  0
 31 36  1  0  0  0  0
 31 30  1  0  0  0  0
 32 31  2  0  0  0  0
 33 32  1  0  0  0  0
 33 34  2  0  0  0  0
 34 35  1  0  0  0  0
 35 30  2  0  0  0  0
 37 32  1  0  0  0  0
 38 34  1  0  0  0  0
M  END
>  <minimizedAffinity>
-5.54025698

$$$$

 OpenBabel03272506003D

 38 40  0  0  1  0  0  0  0  0999 V2000
   37.5270   26.9170   33.1420 C   0  0  2  0  0  0  0  0  0  0  0  0
   38.9900   26.6910   33.1810 C   0  0  0  0  0  0  0  0  0  0  0  0
   39.4810   26.2730   34.5740 C   0  0  2  0  0  0  0  0  0  0  0  0
   39.1270   27.2150   35.6390 C   0  0  0  0  0  0  0  0  0  0  0  0
   37.7310   27.8050   35.4870 C   0  0  0  0  0  0  0  0  0  0  0  0
   36.8990   27.0090   34.5170 C   0  0  0  0  0  0  0  0  0  0  0  0
   37.2440   27.8960   32.6500 H   0  0  0  0  0  0  0  0  0  0  0  0
   39.4890   26.0330   32.5200 H   0  0  0  0  0  0  0  0  0  0  0  0
   39.4720   27.7190   33.0530 H   0  0  0  0  0  0  0  0  0  0  0  0
   39.1140   25.2590   34.7580 H   0  0  0  0  0  0  0  0  0  0  0  0
   39.2530   26.7160   36.6210 H   0  0  0  0  0  0  0  0  0  0  0  0
   39.8100   28.0830   35.6570 H   0  0  0  0  0  0  0  0  0  0  0  0
   37.2390   27.7090   36.4770 H   0  0  0  0  0  0  0  0  0  0  0  0
   37.7320   28.8630   35.2020 H   0  0  0  0  0  0  0  0  0  0  0  0
   36.7380   25.9720   34.8680 H   0  0  0  0  0  0  0  0  0  0  0  0
   35.9230   27.4870   34.4320 H   0  0  0  0  0  0  0  0  0  0  0  0
   40.7330   23.8630   35.7270 Cl  0  0  0  0  0  0  0  0  0  0  0  0
   41.6660   25.1420   34.9650 C   0  0  0  0  0  0  0  0  0  0  0  0
   40.9650   26.2080   34.4200 C   0  0  0  0  0  0  0  0  0  0  0  0
   41.7800   27.1360   33.8220 C   0  0  0  0  0  0  0  0  0  0  0  0
   43.1530   27.0200   33.7690 C   0  0  0  0  0  0  0  0  0  0  0  0
   43.7780   25.9210   34.3400 C   0  0  0  0  0  0  0  0  0  0  0  0
   43.0080   24.9500   34.9590 C   0  0  0  0  0  0  0  0  0  0  0  0
   41.3060   27.9960   33.3690 H   0  0  0  0  0  0  0  0  0  0  0  0
   43.6980   27.8180   33.2680 H   0  0  0  0  0  0  0  0  0  0  0  0
   44.8540   25.8340   34.2970 H   0  0  0  0  0  0  0  0  0  0  0  0
   43.6540   23.7910   35.5620 C   0  0  0  0  0  0  0  0  0  0  0  0
   43.8030   22.9000   34.9690 H   0  0  0  0  0  0  0  0  0  0  0  0
   44.0320   23.8320   36.7590 O   0  0  0  0  0  0  0  0  0  0  0  0
   36.7980   25.8810   32.3950 C   0  0  0  0  0  0  0  0  0  0  0  0
   35.7920   26.3550   31.5510 C   0  0  0  0  0  0  0  0  0  0  0  0
   35.0750   25.4170   30.8010 C   0  0  0  0  0  0  0  0  0  0  0  0
   35.3950   24.0710   30.9300 N   0  0  0  0  0  0  0  0  0  0  0  0
   36.3750   23.6580   31.7610 C   0  0  0  0  0  0  0  0  0  0  0  0
   37.0460   24.5740   32.4670 N   0  0  0  0  0  0  0  0  0  0  0  0
   35.3370   27.2850   31.2610 H   0  0  0  0  0  0  0  0  0  0  0  0
   34.2820   25.5010   30.1010 H   0  0  0  0  0  0  0  0  0  0  0  0
   36.6330   22.6190   31.8710 H   0  0  0  0  0  0  0  0  0  0  0  0
  1  7  1  6  0  0  0
  1  2  1  0  0  0  0
  1  6  1  0  0  0  0
  2  3  1  0  0  0  0
  3 10  1  1  0  0  0
  3  4  1  0  0  0  0
  4 12  1  0  0  0  0
  4 11  1  0  0  0  0
  5  4  1  0  0  0  0
  5 13  1  0  0  0  0
  6 15  1  0  0  0  0
  6  5  1  0  0  0  0
  8  2  1  0  0  0  0
  9  2  1  0  0  0  0
 14  5  1  0  0  0  0
 16  6  1  0  0  0  0
 18 17  1  0  0  0  0
 19  3  1  0  0  0  0
 19 18  2  0  0  0  0
 20 19  1  0  0  0  0
 21 20  2  0  0  0  0
 21 22  1  0  0  0  0
 22 23  2  0  0  0  0
 23 18  1  0  0  0  0
 23 27  1  0  0  0  0
 24 20  1  0  0  0  0
 25 21  1  0  0  0  0
 26 22  1  0  0  0  0
 27 29  2  0  0  0  0
 28 27  1  0  0  0  0
 30 35  1  0  0  0  0
 30  1  1  0  0  0  0
 31 30  2  0  0  0  0
 32 33  2  0  0  0  0
 32 31  1  0  0  0  0
 33 34  1  0  0  0  0
 34 38  1  0  0  0  0
 34 35  2  0  0  0  0
 36 31  1  0  0  0  0
 37 32  1  0  0  0  0
M  END
>  <minimizedAffinity>
-5.45939159

$$$$

 OpenBabel03272506003D

 38 40  0  0  1  0  0  0  0  0999 V2000
   36.9470   28.0980   32.1070 C   0  0  2  0  0  0  0  0  0  0  0  0
   36.3790   28.7490   33.3100 C   0  0  0  0  0  0  0  0  0  0  0  0
   35.3010   29.7850   32.9620 C   0  0  2  0  0  0  0  0  0  0  0  0
   35.7530   30.8280   32.0380 C   0  0  0  0  0  0  0  0  0  0  0  0
   36.6700   30.3100   30.9380 C   0  0  0  0  0  0  0  0  0  0  0  0
   36.5920   28.8110   30.8180 C   0  0  0  0  0  0  0  0  0  0  0  0
   38.0780   28.0850   32.1040 H   0  0  0  0  0  0  0  0  0  0  0  0
   35.9670   28.2060   34.1190 H   0  0  0  0  0  0  0  0  0  0  0  0
   37.2120   29.4020   33.7390 H   0  0  0  0  0  0  0  0  0  0  0  0
   34.4280   29.2370   32.5960 H   0  0  0  0  0  0  0  0  0  0  0  0
   34.8680   31.3490   31.6180 H   0  0  0  0  0  0  0  0  0  0  0  0
   36.3360   31.6090   32.5600 H   0  0  0  0  0  0  0  0  0  0  0  0
   36.2830   30.7220   29.9840 H   0  0  0  0  0  0  0  0  0  0  0  0
   37.7130   30.6240   31.0540 H   0  0  0  0  0  0  0  0  0  0  0  0
   35.5780   28.4730   30.5320 H   0  0  0  0  0  0  0  0  0  0  0  0
   37.2820   28.4950   30.0350 H   0  0  0  0  0  0  0  0  0  0  0  0
   32.5220   29.3110   33.8310 Cl  0  0  0  0  0  0  0  0  0  0  0  0
   33.6570   30.2670   34.7700 C   0  0  0  0  0  0  0  0  0  0  0  0
   34.9510   30.3880   34.2820 C   0  0  0  0  0  0  0  0  0  0  0  0
   35.7670   31.1260   35.1020 C   0  0  0  0  0  0  0  0  0  0  0  0
   35.3450   31.6900   36.2870 C   0  0  0  0  0  0  0  0  0  0  0  0
   34.0320   31.5240   36.7050 C   0  0  0  0  0  0  0  0  0  0  0  0
   33.1600   30.7880   35.9190 C   0  0  0  0  0  0  0  0  0  0  0  0
   36.7940   31.2600   34.7910 H   0  0  0  0  0  0  0  0  0  0  0  0
   36.0800   32.2560   36.8550 H   0  0  0  0  0  0  0  0  0  0  0  0
   33.7040   31.9680   37.6340 H   0  0  0  0  0  0  0  0  0  0  0  0
   31.7790   30.6070   36.3490 C   0  0  0  0  0  0  0  0  0  0  0  0
   31.0220   31.2990   36.0050 H   0  0  0  0  0  0  0  0  0  0  0  0
   31.4760   29.6560   37.1110 O   0  0  0  0  0  0  0  0  0  0  0  0
   36.5410   26.6930   31.9580 C   0  0  0  0  0  0  0  0  0  0  0  0
   35.4260   26.4810   31.1460 C   0  0  0  0  0  0  0  0  0  0  0  0
   35.0030   25.1610   30.9530 C   0  0  0  0  0  0  0  0  0  0  0  0
   35.7050   24.1350   31.5740 N   0  0  0  0  0  0  0  0  0  0  0  0
   36.7780   24.3890   32.3530 C   0  0  0  0  0  0  0  0  0  0  0  0
   37.1630   25.6580   32.5220 N   0  0  0  0  0  0  0  0  0  0  0  0
   34.7140   27.0420   30.5690 H   0  0  0  0  0  0  0  0  0  0  0  0
   34.2080   24.7270   30.4000 H   0  0  0  0  0  0  0  0  0  0  0  0
   37.3300   23.6040   32.8400 H   0  0  0  0  0  0  0  0  0  0  0  0
  1  7  1  1  0  0  0
  1  2  1  0  0  0  0
  2  9  1  0  0  0  0
  2  8  1  0  0  0  0
  3 10  1  6  0  0  0
  3  2  1  0  0  0  0
  3 19  1  0  0  0  0
  4 12  1  0  0  0  0
  4  3  1  0  0  0  0
  5 14  1  0  0  0  0
  5  4  1  0  0  0  0
  6  5  1  0  0  0  0
  6  1  1  0  0  0  0
 11  4  1  0  0  0  0
 13  5  1  0  0  0  0
 15  6  1  0  0  0  0
 16  6  1  0  0  0  0
 17 18  1  0  0  0  0
 18 23  1  0  0  0  0
 19 18  2  0  0  0  0
 19 20  1  0  0  0  0
 20 21  2  0  0  0  0
 21 22  1  0  0  0  0
 21 25  1  0  0  0  0
 22 26  1  0  0  0  0
 23 27  1  0  0  0  0
 23 22  2  0  0  0  0
 24 20  1  0  0  0  0
 27 29  2  0  0  0  0
 28 27  1  0  0  0  0
 30  1  1  0  0  0  0
 30 35  1  0  0  0  0
 31 30  2  0  0  0  0
 32 31  1  0  0  0  0
 32 33  2  0  0  0  0
 33 34  1  0  0  0  0
 34 35  2  0  0  0  0
 34 38  1  0  0  0  0
 36 31  1  0  0  0  0
 37 32  1  0  0  0  0
M  END
>  <minimizedAffinity>
-5.45913839

$$$$

 OpenBabel03272506003D

 38 40  0  0  1  0  0  0  0  0999 V2000
   37.4910   27.0640   33.1370 C   0  0  2  0  0  0  0  0  0  0  0  0
   38.9520   26.8220   33.1570 C   0  0  0  0  0  0  0  0  0  0  0  0
   39.4460   26.3340   34.5270 C   0  0  2  0  0  0  0  0  0  0  0  0
   39.1070   27.2300   35.6360 C   0  0  0  0  0  0  0  0  0  0  0  0
   37.7170   27.8410   35.5200 C   0  0  0  0  0  0  0  0  0  0  0  0
   36.8720   27.0990   34.5190 C   0  0  0  0  0  0  0  0  0  0  0  0
   37.2160   28.0680   32.6930 H   0  0  0  0  0  0  0  0  0  0  0  0
   39.4410   26.1900   32.4640 H   0  0  0  0  0  0  0  0  0  0  0  0
   39.4440   27.8500   33.0740 H   0  0  0  0  0  0  0  0  0  0  0  0
   39.0700   25.3170   34.6660 H   0  0  0  0  0  0  0  0  0  0  0  0
   39.2330   26.6850   36.5940 H   0  0  0  0  0  0  0  0  0  0  0  0
   39.8000   28.0890   35.6900 H   0  0  0  0  0  0  0  0  0  0  0  0
   37.2290   27.7030   36.5070 H   0  0  0  0  0  0  0  0  0  0  0  0
   37.7280   28.9110   35.2840 H   0  0  0  0  0  0  0  0  0  0  0  0
   36.7010   26.0490   34.8220 H   0  0  0  0  0  0  0  0  0  0  0  0
   35.9000   27.5900   34.4610 H   0  0  0  0  0  0  0  0  0  0  0  0
   40.6890   23.9000   35.6360 Cl  0  0  0  0  0  0  0  0  0  0  0  0
   41.6250   25.1830   34.8860 C   0  0  0  0  0  0  0  0  0  0  0  0
   40.9290   26.2620   34.3620 C   0  0  0  0  0  0  0  0  0  0  0  0
   41.7460   27.1920   33.7720 C   0  0  0  0  0  0  0  0  0  0  0  0
   43.1170   27.0680   33.7070 C   0  0  0  0  0  0  0  0  0  0  0  0
   43.7390   25.9560   34.2580 C   0  0  0  0  0  0  0  0  0  0  0  0
   42.9660   24.9820   34.8680 C   0  0  0  0  0  0  0  0  0  0  0  0
   41.2750   28.0620   33.3340 H   0  0  0  0  0  0  0  0  0  0  0  0
   43.6640   27.8700   33.2140 H   0  0  0  0  0  0  0  0  0  0  0  0
   44.8140   25.8620   34.2060 H   0  0  0  0  0  0  0  0  0  0  0  0
   43.6080   23.8100   35.4490 C   0  0  0  0  0  0  0  0  0  0  0  0
   43.6650   23.7160   36.5250 H   0  0  0  0  0  0  0  0  0  0  0  0
   44.0910   22.9220   34.7050 O   0  0  0  0  0  0  0  0  0  0  0  0
   36.7480   26.0720   32.3470 C   0  0  0  0  0  0  0  0  0  0  0  0
   37.1530   24.7490   32.5230 C   0  0  0  0  0  0  0  0  0  0  0  0
   36.4690   23.7580   31.8100 C   0  0  0  0  0  0  0  0  0  0  0  0
   35.4300   24.1350   30.9680 N   0  0  0  0  0  0  0  0  0  0  0  0
   35.0740   25.4290   30.8270 C   0  0  0  0  0  0  0  0  0  0  0  0
   35.7420   26.3580   31.5190 N   0  0  0  0  0  0  0  0  0  0  0  0
   37.8850   24.1820   33.0700 H   0  0  0  0  0  0  0  0  0  0  0  0
   36.5670   22.7020   31.7590 H   0  0  0  0  0  0  0  0  0  0  0  0
   34.2720   25.7350   30.1780 H   0  0  0  0  0  0  0  0  0  0  0  0
  1  7  1  6  0  0  0
  1  2  1  0  0  0  0
  1  6  1  0  0  0  0
  2  3  1  0  0  0  0
  3 10  1  1  0  0  0
  3  4  1  0  0  0  0
  4 12  1  0  0  0  0
  4 11  1  0  0  0  0
  5  4  1  0  0  0  0
  5 13  1  0  0  0  0
  6 15  1  0  0  0  0
  6  5  1  0  0  0  0
  8  2  1  0  0  0  0
  9  2  1  0  0  0  0
 14  5  1  0  0  0  0
 16  6  1  0  0  0  0
 18 17  1  0  0  0  0
 19  3  1  0  0  0  0
 19 18  2  0  0  0  0
 20 19  1  0  0  0  0
 21 20  2  0  0  0  0
 21 22  1  0  0  0  0
 22 23  2  0  0  0  0
 23 18  1  0  0  0  0
 23 27  1  0  0  0  0
 24 20  1  0  0  0  0
 25 21  1  0  0  0  0
 26 22  1  0  0  0  0
 27 28  1  0  0  0  0
 29 27  2  0  0  0  0
 30 31  1  0  0  0  0
 30  1  1  0  0  0  0
 31 36  1  0  0  0  0
 32 31  2  0  0  0  0
 33 32  1  0  0  0  0
 34 33  2  0  0  0  0
 34 35  1  0  0  0  0
 35 30  2  0  0  0  0
 37 32  1  0  0  0  0
 38 34  1  0  0  0  0
M  END
>  <minimizedAffinity>
-5.3479023

$$$$

 OpenBabel03272506003D

 38 40  0  0  1  0  0  0  0  0999 V2000
   36.1560   28.4200   31.5880 C   0  0  2  0  0  0  0  0  0  0  0  0
   35.1660   29.0780   32.4710 C   0  0  0  0  0  0  0  0  0  0  0  0
   35.7500   29.4290   33.8470 C   0  0  2  0  0  0  0  0  0  0  0  0
   36.3240   28.2850   34.5610 C   0  0  0  0  0  0  0  0  0  0  0  0
   37.0780   27.3210   33.6550 C   0  0  0  0  0  0  0  0  0  0  0  0
   37.3930   27.9490   32.3240 C   0  0  0  0  0  0  0  0  0  0  0  0
   35.7570   27.4800   31.1010 H   0  0  0  0  0  0  0  0  0  0  0  0
   34.6270   29.9430   32.1890 H   0  0  0  0  0  0  0  0  0  0  0  0
   34.3940   28.2770   32.7340 H   0  0  0  0  0  0  0  0  0  0  0  0
   36.4640   30.2440   33.7000 H   0  0  0  0  0  0  0  0  0  0  0  0
   36.9660   28.6560   35.3850 H   0  0  0  0  0  0  0  0  0  0  0  0
   35.5400   27.6760   35.0470 H   0  0  0  0  0  0  0  0  0  0  0  0
   38.0520   27.1220   34.1480 H   0  0  0  0  0  0  0  0  0  0  0  0
   36.5620   26.3650   33.5080 H   0  0  0  0  0  0  0  0  0  0  0  0
   38.0590   28.8260   32.4300 H   0  0  0  0  0  0  0  0  0  0  0  0
   37.9120   27.2100   31.7120 H   0  0  0  0  0  0  0  0  0  0  0  0
   36.3740   31.6950   35.6300 Cl  0  0  0  0  0  0  0  0  0  0  0  0
   34.7640   31.0050   35.5040 C   0  0  0  0  0  0  0  0  0  0  0  0
   34.5790   29.9680   34.6010 C   0  0  0  0  0  0  0  0  0  0  0  0
   33.2830   29.5210   34.5550 C   0  0  0  0  0  0  0  0  0  0  0  0
   32.2690   30.0470   35.3260 C   0  0  0  0  0  0  0  0  0  0  0  0
   32.5370   31.0850   36.2080 C   0  0  0  0  0  0  0  0  0  0  0  0
   33.8270   31.5790   36.2990 C   0  0  0  0  0  0  0  0  0  0  0  0
   33.0590   28.7150   33.8680 H   0  0  0  0  0  0  0  0  0  0  0  0
   31.2790   29.6120   35.2060 H   0  0  0  0  0  0  0  0  0  0  0  0
   31.7390   31.4940   36.8120 H   0  0  0  0  0  0  0  0  0  0  0  0
   34.1190   32.6690   37.2220 C   0  0  0  0  0  0  0  0  0  0  0  0
   35.1260   32.7910   37.5970 H   0  0  0  0  0  0  0  0  0  0  0  0
   33.2070   33.4560   37.5760 O   0  0  0  0  0  0  0  0  0  0  0  0
   36.6030   29.2740   30.4780 C   0  0  0  0  0  0  0  0  0  0  0  0
   36.2930   30.6280   30.6080 C   0  0  0  0  0  0  0  0  0  0  0  0
   36.7090   31.4930   29.5900 C   0  0  0  0  0  0  0  0  0  0  0  0
   37.4040   30.9680   28.5080 N   0  0  0  0  0  0  0  0  0  0  0  0
   37.6810   29.6490   28.4240 C   0  0  0  0  0  0  0  0  0  0  0  0
   37.2730   28.8430   29.4090 N   0  0  0  0  0  0  0  0  0  0  0  0
   35.7900   31.2920   31.2890 H   0  0  0  0  0  0  0  0  0  0  0  0
   36.6090   32.5390   29.4410 H   0  0  0  0  0  0  0  0  0  0  0  0
   38.2180   29.2290   27.5910 H   0  0  0  0  0  0  0  0  0  0  0  0
  1  7  1  6  0  0  0
  1  6  1  0  0  0  0
  1  2  1  0  0  0  0
  2  9  1  0  0  0  0
  2  3  1  0  0  0  0
  3 10  1  6  0  0  0
  3  4  1  0  0  0  0
  3 19  1  0  0  0  0
  4 12  1  0  0  0  0
  4 11  1  0  0  0  0
  5 13  1  0  0  0  0
  5  4  1  0  0  0  0
  6 15  1  0  0  0  0
  6  5  1  0  0  0  0
  8  2  1  0  0  0  0
 14  5  1  0  0  0  0
 16  6  1  0  0  0  0
 18 17  1  0  0  0  0
 18 23  1  0  0  0  0
 19 18  2  0  0  0  0
 20 19  1  0  0  0  0
 20 21  2  0  0  0  0
 21 22  1  0  0  0  0
 22 23  2  0  0  0  0
 22 26  1  0  0  0  0
 23 27  1  0  0  0  0
 24 20  1  0  0  0  0
 25 21  1  0  0  0  0
 27 29  2  0  0  0  0
 27 28  1  0  0  0  0
 30 31  1  0  0  0  0
 30  1  1  0  0  0  0
 31 36  1  0  0  0  0
 32 31  2  0  0  0  0
 33 32  1  0  0  0  0
 34 33  2  0  0  0  0
 34 35  1  0  0  0  0
 35 30  2  0  0  0  0
 37 32  1  0  0  0  0
 38 34  1  0  0  0  0
M  END
>  <minimizedAffinity>
-5.32427311

$$$$

 OpenBabel03272506003D

 38 40  0  0  1  0  0  0  0  0999 V2000
   36.4400   28.6120   32.5470 C   0  0  2  0  0  0  0  0  0  0  0  0
   35.6430   29.0550   33.7140 C   0  0  0  0  0  0  0  0  0  0  0  0
   34.2750   29.6230   33.3070 C   0  0  2  0  0  0  0  0  0  0  0  0
   34.3510   30.7280   32.3480 C   0  0  0  0  0  0  0  0  0  0  0  0
   35.4240   30.5370   31.2850 C   0  0  0  0  0  0  0  0  0  0  0  0
   35.8910   29.1070   31.2250 C   0  0  0  0  0  0  0  0  0  0  0  0
   37.5010   29.0050   32.5630 H   0  0  0  0  0  0  0  0  0  0  0  0
   35.4290   28.4260   34.5380 H   0  0  0  0  0  0  0  0  0  0  0  0
   36.1740   29.9770   34.1290 H   0  0  0  0  0  0  0  0  0  0  0  0
   33.6680   28.7860   32.9510 H   0  0  0  0  0  0  0  0  0  0  0  0
   33.3510   30.8830   31.8940 H   0  0  0  0  0  0  0  0  0  0  0  0
   34.6000   31.6820   32.8470 H   0  0  0  0  0  0  0  0  0  0  0  0
   34.9420   30.7520   30.3090 H   0  0  0  0  0  0  0  0  0  0  0  0
   36.2820   31.2080   31.4040 H   0  0  0  0  0  0  0  0  0  0  0  0
   35.0740   28.4190   30.9380 H   0  0  0  0  0  0  0  0  0  0  0  0
   36.6710   29.0340   30.4660 H   0  0  0  0  0  0  0  0  0  0  0  0
   35.7710   31.8210   34.5850 Cl  0  0  0  0  0  0  0  0  0  0  0  0
   34.3410   31.1030   35.3090 C   0  0  0  0  0  0  0  0  0  0  0  0
   33.6950   30.1030   34.5970 C   0  0  0  0  0  0  0  0  0  0  0  0
   32.5740   29.6300   35.2310 C   0  0  0  0  0  0  0  0  0  0  0  0
   32.1350   30.1000   36.4500 C   0  0  0  0  0  0  0  0  0  0  0  0
   32.8400   31.1040   37.1010 C   0  0  0  0  0  0  0  0  0  0  0  0
   33.9810   31.6210   36.5090 C   0  0  0  0  0  0  0  0  0  0  0  0
   32.0120   28.8510   34.7330 H   0  0  0  0  0  0  0  0  0  0  0  0
   31.2330   29.6500   36.8590 H   0  0  0  0  0  0  0  0  0  0  0  0
   32.4940   31.4690   38.0570 H   0  0  0  0  0  0  0  0  0  0  0  0
   34.7280   32.6750   37.1830 C   0  0  0  0  0  0  0  0  0  0  0  0
   35.7740   32.5210   37.4100 H   0  0  0  0  0  0  0  0  0  0  0  0
   34.1590   33.7500   37.4970 O   0  0  0  0  0  0  0  0  0  0  0  0
   36.5680   27.1510   32.4500 C   0  0  0  0  0  0  0  0  0  0  0  0
   35.8280   26.5570   31.4280 C   0  0  0  0  0  0  0  0  0  0  0  0
   35.9230   25.1690   31.2750 C   0  0  0  0  0  0  0  0  0  0  0  0
   36.7430   24.4550   32.1410 N   0  0  0  0  0  0  0  0  0  0  0  0
   37.4400   25.0730   33.1180 C   0  0  0  0  0  0  0  0  0  0  0  0
   37.3320   26.4000   33.2430 N   0  0  0  0  0  0  0  0  0  0  0  0
   35.1400   26.8320   30.6480 H   0  0  0  0  0  0  0  0  0  0  0  0
   35.4810   24.4810   30.5990 H   0  0  0  0  0  0  0  0  0  0  0  0
   38.0780   24.5330   33.7960 H   0  0  0  0  0  0  0  0  0  0  0  0
  1  7  1  1  0  0  0
  1  2  1  0  0  0  0
  2  9  1  0  0  0  0
  2  8  1  0  0  0  0
  3 10  1  6  0  0  0
  3  2  1  0  0  0  0
  3 19  1  0  0  0  0
  4 12  1  0  0  0  0
  4  3  1  0  0  0  0
  5 14  1  0  0  0  0
  5  4  1  0  0  0  0
  6  5  1  0  0  0  0
  6  1  1  0  0  0  0
 11  4  1  0  0  0  0
 13  5  1  0  0  0  0
 15  6  1  0  0  0  0
 16  6  1  0  0  0  0
 17 18  1  0  0  0  0
 18 23  1  0  0  0  0
 19 20  1  0  0  0  0
 19 18  2  0  0  0  0
 20 21  2  0  0  0  0
 21 25  1  0  0  0  0
 21 22  1  0  0  0  0
 22 26  1  0  0  0  0
 23 22  2  0  0  0  0
 23 27  1  0  0  0  0
 24 20  1  0  0  0  0
 27 28  1  0  0  0  0
 27 29  2  0  0  0  0
 30  1  1  0  0  0  0
 30 35  1  0  0  0  0
 31 30  2  0  0  0  0
 32 31  1  0  0  0  0
 32 33  2  0  0  0  0
 33 34  1  0  0  0  0
 34 35  2  0  0  0  0
 34 38  1  0  0  0  0
 36 31  1  0  0  0  0
 37 32  1  0  0  0  0
M  END
>  <minimizedAffinity>
-5.29229593

$$$$

 OpenBabel03272506003D

 38 40  0  0  1  0  0  0  0  0999 V2000
   36.9480   27.4350   32.0460 C   0  0  2  0  0  0  0  0  0  0  0  0
   36.9810   26.3490   33.0520 C   0  0  0  0  0  0  0  0  0  0  0  0
   38.4100   26.0010   33.4920 C   0  0  2  0  0  0  0  0  0  0  0  0
   39.3020   25.6390   32.3870 C   0  0  0  0  0  0  0  0  0  0  0  0
   39.0920   26.4820   31.1360 C   0  0  0  0  0  0  0  0  0  0  0  0
   38.3050   27.7290   31.4390 C   0  0  0  0  0  0  0  0  0  0  0  0
   36.3000   27.1890   31.1510 H   0  0  0  0  0  0  0  0  0  0  0  0
   36.4310   26.3840   33.9550 H   0  0  0  0  0  0  0  0  0  0  0  0
   36.6580   25.4000   32.5040 H   0  0  0  0  0  0  0  0  0  0  0  0
   38.7820   26.8400   34.0860 H   0  0  0  0  0  0  0  0  0  0  0  0
   40.3530   25.6870   32.7390 H   0  0  0  0  0  0  0  0  0  0  0  0
   39.1450   24.5940   32.0640 H   0  0  0  0  0  0  0  0  0  0  0  0
   40.0980   26.8170   30.8100 H   0  0  0  0  0  0  0  0  0  0  0  0
   38.6240   25.9330   30.3120 H   0  0  0  0  0  0  0  0  0  0  0  0
   38.8380   28.3910   32.1480 H   0  0  0  0  0  0  0  0  0  0  0  0
   38.1670   28.2810   30.5080 H   0  0  0  0  0  0  0  0  0  0  0  0
   38.3040   26.6830   36.3600 Cl  0  0  0  0  0  0  0  0  0  0  0  0
   38.2050   25.0300   35.7760 C   0  0  0  0  0  0  0  0  0  0  0  0
   38.2240   24.8320   34.4030 C   0  0  0  0  0  0  0  0  0  0  0  0
   38.1100   23.5120   34.0490 C   0  0  0  0  0  0  0  0  0  0  0  0
   37.9900   22.4870   34.9640 C   0  0  0  0  0  0  0  0  0  0  0  0
   37.9810   22.7690   36.3230 C   0  0  0  0  0  0  0  0  0  0  0  0
   38.0930   24.0840   36.7420 C   0  0  0  0  0  0  0  0  0  0  0  0
   38.1110   23.2780   32.9930 H   0  0  0  0  0  0  0  0  0  0  0  0
   37.9070   21.4770   34.5670 H   0  0  0  0  0  0  0  0  0  0  0  0
   37.8880   21.9630   37.0370 H   0  0  0  0  0  0  0  0  0  0  0  0
   38.0840   24.3910   38.1660 C   0  0  0  0  0  0  0  0  0  0  0  0
   37.5220   25.2440   38.5210 H   0  0  0  0  0  0  0  0  0  0  0  0
   38.7260   23.6710   38.9700 O   0  0  0  0  0  0  0  0  0  0  0  0
   36.4190   28.7010   32.5730 C   0  0  0  0  0  0  0  0  0  0  0  0
   36.0270   28.6690   33.9120 C   0  0  0  0  0  0  0  0  0  0  0  0
   35.5320   29.8510   34.4740 C   0  0  0  0  0  0  0  0  0  0  0  0
   35.4530   30.9890   33.6800 N   0  0  0  0  0  0  0  0  0  0  0  0
   35.8420   30.9720   32.3880 C   0  0  0  0  0  0  0  0  0  0  0  0
   36.3120   29.8310   31.8730 N   0  0  0  0  0  0  0  0  0  0  0  0
   35.9680   27.9770   34.7320 H   0  0  0  0  0  0  0  0  0  0  0  0
   35.1740   30.1000   35.4420 H   0  0  0  0  0  0  0  0  0  0  0  0
   35.7860   31.8450   31.7610 H   0  0  0  0  0  0  0  0  0  0  0  0
  1  7  1  6  0  0  0
  1 30  1  0  0  0  0
  1  2  1  0  0  0  0
  2  3  1  0  0  0  0
  2  8  1  0  0  0  0
  3 10  1  1  0  0  0
  3 19  1  0  0  0  0
  4 11  1  0  0  0  0
  4  3  1  0  0  0  0
  5  6  1  0  0  0  0
  5  4  1  0  0  0  0
  6  1  1  0  0  0  0
  6 15  1  0  0  0  0
  9  2  1  0  0  0  0
 12  4  1  0  0  0  0
 13  5  1  0  0  0  0
 14  5  1  0  0  0  0
 16  6  1  0  0  0  0
 18 17  1  0  0  0  0
 18 23  1  0  0  0  0
 19 18  2  0  0  0  0
 20 19  1  0  0  0  0
 20 21  2  0  0  0  0
 21 22  1  0  0  0  0
 22 23  2  0  0  0  0
 22 26  1  0  0  0  0
 23 27  1  0  0  0  0
 24 20  1  0  0  0  0
 25 21  1  0  0  0  0
 27 28  1  0  0  0  0
 27 29  2  0  0  0  0
 30 31  1  0  0  0  0
 31 32  2  0  0  0  0
 31 36  1  0  0  0  0
 32 37  1  0  0  0  0
 33 32  1  0  0  0  0
 34 33  2  0  0  0  0
 35 34  1  0  0  0  0
 35 30  2  0  0  0  0
 38 34  1  0  0  0  0
M  END
>  <minimizedAffinity>
-5.23205042

$$$$

 OpenBabel03272506003D

 38 40  0  0  1  0  0  0  0  0999 V2000
   34.7330   30.3700   32.8550 C   0  0  2  0  0  0  0  0  0  0  0  0
   34.9650   28.9120   32.7320 C   0  0  0  0  0  0  0  0  0  0  0  0
   36.4000   28.5830   32.2940 C   0  0  2  0  0  0  0  0  0  0  0  0
   36.8020   29.2260   31.0410 C   0  0  0  0  0  0  0  0  0  0  0  0
   36.2890   30.6530   30.8980 C   0  0  0  0  0  0  0  0  0  0  0  0
   35.8250   31.2050   32.2200 C   0  0  0  0  0  0  0  0  0  0  0  0
   33.7910   30.7130   32.3300 H   0  0  0  0  0  0  0  0  0  0  0  0
   34.7690   28.2300   33.5160 H   0  0  0  0  0  0  0  0  0  0  0  0
   34.3520   28.5690   31.8310 H   0  0  0  0  0  0  0  0  0  0  0  0
   37.0600   28.8240   33.1320 H   0  0  0  0  0  0  0  0  0  0  0  0
   37.9070   29.1800   30.9480 H   0  0  0  0  0  0  0  0  0  0  0  0
   36.4080   28.6850   30.1610 H   0  0  0  0  0  0  0  0  0  0  0  0
   37.1570   31.2700   30.5870 H   0  0  0  0  0  0  0  0  0  0  0  0
   35.4990   30.7600   30.1470 H   0  0  0  0  0  0  0  0  0  0  0  0
   36.6510   31.2670   32.9530 H   0  0  0  0  0  0  0  0  0  0  0  0
   35.4500   32.2160   32.0550 H   0  0  0  0  0  0  0  0  0  0  0  0
   38.2610   27.1290   34.0610 Cl  0  0  0  0  0  0  0  0  0  0  0  0
   37.2540   26.3160   32.8740 C   0  0  0  0  0  0  0  0  0  0  0  0
   36.3850   27.0990   32.1270 C   0  0  0  0  0  0  0  0  0  0  0  0
   35.6220   26.3690   31.2520 C   0  0  0  0  0  0  0  0  0  0  0  0
   35.7090   24.9980   31.1280 C   0  0  0  0  0  0  0  0  0  0  0  0
   36.6060   24.2870   31.9130 C   0  0  0  0  0  0  0  0  0  0  0  0
   37.4050   24.9700   32.8150 C   0  0  0  0  0  0  0  0  0  0  0  0
   34.9150   26.9090   30.6370 H   0  0  0  0  0  0  0  0  0  0  0  0
   35.0530   24.5240   30.4000 H   0  0  0  0  0  0  0  0  0  0  0  0
   36.6720   23.2130   31.8120 H   0  0  0  0  0  0  0  0  0  0  0  0
   38.3490   24.2330   33.6440 C   0  0  0  0  0  0  0  0  0  0  0  0
   39.3480   24.0470   33.2730 H   0  0  0  0  0  0  0  0  0  0  0  0
   38.0030   23.8180   34.7780 O   0  0  0  0  0  0  0  0  0  0  0  0
   34.5880   30.8210   34.2470 C   0  0  0  0  0  0  0  0  0  0  0  0
   35.7520   31.3210   34.8320 C   0  0  0  0  0  0  0  0  0  0  0  0
   35.6710   31.7820   36.1510 C   0  0  0  0  0  0  0  0  0  0  0  0
   34.4490   31.7200   36.8080 N   0  0  0  0  0  0  0  0  0  0  0  0
   33.3490   31.2270   36.2020 C   0  0  0  0  0  0  0  0  0  0  0  0
   33.4510   30.7920   34.9410 N   0  0  0  0  0  0  0  0  0  0  0  0
   36.7870   31.4810   34.5900 H   0  0  0  0  0  0  0  0  0  0  0  0
   36.3820   32.2010   36.8180 H   0  0  0  0  0  0  0  0  0  0  0  0
   32.3960   31.1720   36.6990 H   0  0  0  0  0  0  0  0  0  0  0  0
  1  7  1  6  0  0  0
  1 30  1  0  0  0  0
  2  1  1  0  0  0  0
  2  8  1  0  0  0  0
  3  2  1  0  0  0  0
  3 10  1  1  0  0  0
  4  3  1  0  0  0  0
  5  4  1  0  0  0  0
  5  6  1  0  0  0  0
  6  1  1  0  0  0  0
  6 15  1  0  0  0  0
  9  2  1  0  0  0  0
 11  4  1  0  0  0  0
 12  4  1  0  0  0  0
 13  5  1  0  0  0  0
 14  5  1  0  0  0  0
 16  6  1  0  0  0  0
 18 17  1  0  0  0  0
 19  3  1  0  0  0  0
 19 18  2  0  0  0  0
 20 19  1  0  0  0  0
 21 20  2  0  0  0  0
 21 22  1  0  0  0  0
 22 23  2  0  0  0  0
 23 18  1  0  0  0  0
 23 27  1  0  0  0  0
 24 20  1  0  0  0  0
 25 21  1  0  0  0  0
 26 22  1  0  0  0  0
 27 29  2  0  0  0  0
 28 27  1  0  0  0  0
 30 31  2  0  0  0  0
 30 35  1  0  0  0  0
 31 32  1  0  0  0  0
 32 33  2  0  0  0  0
 32 37  1  0  0  0  0
 34 38  1  0  0  0  0
 34 33  1  0  0  0  0
 35 34  2  0  0  0  0
 36 31  1  0  0  0  0
M  END
>  <minimizedAffinity>
-5.14341497

$$$$
