
 OpenBabel03262521593D

 30 31  0  0  1  0  0  0  0  0999 V2000
   35.8910   29.9250   48.6530 N   0  0  0  0  0  0  0  0  0  0  0  0
   36.6320   28.9750   49.4280 C   0  0  0  0  0  0  0  0  0  0  0  0
   37.0420   29.3650   50.7840 C   0  0  0  0  0  0  0  0  0  0  0  0
   37.1470   30.8100   51.1110 C   0  0  0  0  0  0  0  0  0  0  0  0
   36.4450   31.7330   50.1450 C   0  0  0  0  0  0  0  0  0  0  0  0
   36.5260   31.1870   48.7290 C   0  0  1  0  0  0  0  0  0  0  0  0
   35.9300   28.0900   49.5100 H   0  0  0  0  0  0  0  0  0  0  0  0
   37.4710   28.4940   48.8400 H   0  0  0  0  0  0  0  0  0  0  0  0
   36.4650   28.7970   51.5760 H   0  0  0  0  0  0  0  0  0  0  0  0
   38.0860   28.9580   50.9570 H   0  0  0  0  0  0  0  0  0  0  0  0
   38.1600   31.1610   51.4230 H   0  0  0  0  0  0  0  0  0  0  0  0
   36.5690   30.9910   52.0620 H   0  0  0  0  0  0  0  0  0  0  0  0
   36.9530   32.7270   50.2000 H   0  0  0  0  0  0  0  0  0  0  0  0
   35.3730   31.8920   50.3780 H   0  0  0  0  0  0  0  0  0  0  0  0
   35.8760   31.8800   48.1480 H   0  0  0  0  0  0  0  0  0  0  0  0
   34.6910   29.6270   47.9190 C   0  0  0  0  0  0  0  0  0  0  0  0
   34.3430   30.2160   46.7060 C   0  0  0  0  0  0  0  0  0  0  0  0
   33.1520   29.8310   46.1110 C   0  0  0  0  0  0  0  0  0  0  0  0
   32.3860   28.8960   46.7470 N   0  0  0  0  0  0  0  0  0  0  0  0
   32.7480   28.3470   47.9160 C   0  0  0  0  0  0  0  0  0  0  0  0
   33.8920   28.7190   48.4850 N   0  0  0  0  0  0  0  0  0  0  0  0
   35.0180   30.9350   46.3000 H   0  0  0  0  0  0  0  0  0  0  0  0
   32.8690   30.2800   45.1670 H   0  0  0  0  0  0  0  0  0  0  0  0
   31.9000   27.3490   48.5670 C   0  0  0  0  0  0  0  0  0  0  0  0
   32.1260   26.3000   48.4330 H   0  0  0  0  0  0  0  0  0  0  0  0
   30.9170   27.7180   49.2780 O   0  0  0  0  0  0  0  0  0  0  0  0
   37.9660   31.2270   48.2900 C   0  0  0  0  0  0  0  0  0  0  0  0
   38.0770   32.3220   47.4210 F   0  0  0  0  0  0  0  0  0  0  0  0
   38.2550   30.1500   47.4870 F   0  0  0  0  0  0  0  0  0  0  0  0
   38.8800   31.4390   49.2600 F   0  0  0  0  0  0  0  0  0  0  0  0
  1  6  1  0  0  0  0
  1  2  1  0  0  0  0
  2  7  1  0  0  0  0
  2  3  1  0  0  0  0
  3 10  1  0  0  0  0
  3  4  1  0  0  0  0
  3  9  1  0  0  0  0
  4 11  1  0  0  0  0
  4 12  1  0  0  0  0
  5 13  1  0  0  0  0
  5 14  1  0  0  0  0
  5  4  1  0  0  0  0
  6 15  1  6  0  0  0
  6  5  1  0  0  0  0
  8  2  1  0  0  0  0
 16 21  1  0  0  0  0
 16  1  1  0  0  0  0
 17 16  2  0  0  0  0
 18 17  1  0  0  0  0
 18 19  2  0  0  0  0
 19 20  1  0  0  0  0
 20 21  2  0  0  0  0
 20 24  1  0  0  0  0
 22 17  1  0  0  0  0
 23 18  1  0  0  0  0
 24 26  2  0  0  0  0
 25 24  1  0  0  0  0
 27  6  1  0  0  0  0
 27 30  1  0  0  0  0
 28 27  1  0  0  0  0
 29 27  1  0  0  0  0
M  END
>  <minimizedAffinity>
-5.12460375

>  <minimizedRMSD>
0.721217453

$$$$
