
 OpenBabel03272510103D

 21 22  0  0  0  0  0  0  0  0999 V2000
   38.2630   25.4260   35.3240 C   0  0  0  0  0  0  0  0  0  0  0  0
   38.0560   26.7210   35.7680 C   0  0  0  0  0  0  0  0  0  0  0  0
   37.4220   27.7050   35.0280 C   0  0  0  0  0  0  0  0  0  0  0  0
   36.9590   27.3840   33.7580 C   0  0  0  0  0  0  0  0  0  0  0  0
   37.1790   26.0950   33.3470 C   0  0  0  0  0  0  0  0  0  0  0  0
   37.7980   25.1660   34.0900 N   0  0  0  0  0  0  0  0  0  0  0  0
   38.3980   27.0270   36.7530 H   0  0  0  0  0  0  0  0  0  0  0  0
   37.2750   28.7090   35.4020 H   0  0  0  0  0  0  0  0  0  0  0  0
   36.8690   25.7170   32.3820 H   0  0  0  0  0  0  0  0  0  0  0  0
   38.4840   23.9710   37.3730 C   0  0  0  0  0  0  0  0  0  0  0  0
   38.9350   24.4260   36.1400 C   0  0  0  0  0  0  0  0  0  0  0  0
   40.1270   23.8950   35.6260 C   0  0  0  0  0  0  0  0  0  0  0  0
   40.7640   22.9500   36.3940 N   0  0  0  0  0  0  0  0  0  0  0  0
   40.2920   22.5390   37.5800 C   0  0  0  0  0  0  0  0  0  0  0  0
   39.1580   23.0430   38.0730 N   0  0  0  0  0  0  0  0  0  0  0  0
   37.5510   24.4110   37.7390 H   0  0  0  0  0  0  0  0  0  0  0  0
   40.5630   24.1770   34.6830 H   0  0  0  0  0  0  0  0  0  0  0  0
   40.8230   21.7910   38.1580 H   0  0  0  0  0  0  0  0  0  0  0  0
   36.2800   28.3320   32.8890 C   0  0  0  0  0  0  0  0  0  0  0  0
   36.4500   29.3960   32.9900 H   0  0  0  0  0  0  0  0  0  0  0  0
   35.4750   27.9110   31.9990 O   0  0  0  0  0  0  0  0  0  0  0  0
  1  2  1  0  0  0  0
  1 11  1  0  0  0  0
  2  7  1  0  0  0  0
  3  8  1  0  0  0  0
  3  2  2  0  0  0  0
  4  3  1  0  0  0  0
  5  4  2  0  0  0  0
  5  6  1  0  0  0  0
  6  1  2  0  0  0  0
  9  5  1  0  0  0  0
 10 16  1  0  0  0  0
 10 15  1  0  0  0  0
 11 10  2  0  0  0  0
 12 11  1  0  0  0  0
 12 13  2  0  0  0  0
 13 14  1  0  0  0  0
 14 15  2  0  0  0  0
 14 18  1  0  0  0  0
 17 12  1  0  0  0  0
 19 20  1  0  0  0  0
 19  4  1  0  0  0  0
 21 19  2  0  0  0  0
M  END
>  <minimizedAffinity>
-4.15652561

$$$$

 OpenBabel03272510103D

 21 22  0  0  0  0  0  0  0  0999 V2000
   38.3460   25.4350   35.3180 C   0  0  0  0  0  0  0  0  0  0  0  0
   38.1540   26.7110   35.8190 C   0  0  0  0  0  0  0  0  0  0  0  0
   37.4830   27.7180   35.1460 C   0  0  0  0  0  0  0  0  0  0  0  0
   36.9640   27.4430   33.8870 C   0  0  0  0  0  0  0  0  0  0  0  0
   37.1700   26.1710   33.4180 C   0  0  0  0  0  0  0  0  0  0  0  0
   37.8250   25.2180   34.0980 N   0  0  0  0  0  0  0  0  0  0  0  0
   38.5380   26.9820   36.7990 H   0  0  0  0  0  0  0  0  0  0  0  0
   37.3490   28.7070   35.5630 H   0  0  0  0  0  0  0  0  0  0  0  0
   36.8180   25.8270   32.4550 H   0  0  0  0  0  0  0  0  0  0  0  0
   40.2380   23.8010   35.6540 C   0  0  0  0  0  0  0  0  0  0  0  0
   39.0580   24.4090   36.0650 C   0  0  0  0  0  0  0  0  0  0  0  0
   38.4940   24.0190   37.2880 C   0  0  0  0  0  0  0  0  0  0  0  0
   39.1640   23.0510   37.9960 N   0  0  0  0  0  0  0  0  0  0  0  0
   40.3020   22.4890   37.5630 C   0  0  0  0  0  0  0  0  0  0  0  0
   40.8410   22.8580   36.3980 N   0  0  0  0  0  0  0  0  0  0  0  0
   40.6450   24.1330   34.6950 H   0  0  0  0  0  0  0  0  0  0  0  0
   37.5860   24.4260   37.6980 H   0  0  0  0  0  0  0  0  0  0  0  0
   40.8020   21.7270   38.1490 H   0  0  0  0  0  0  0  0  0  0  0  0
   36.2430   28.4180   33.0860 C   0  0  0  0  0  0  0  0  0  0  0  0
   36.3710   29.4790   33.2570 H   0  0  0  0  0  0  0  0  0  0  0  0
   35.4510   28.0260   32.1710 O   0  0  0  0  0  0  0  0  0  0  0  0
  1  2  1  0  0  0  0
  1 11  1  0  0  0  0
  2  7  1  0  0  0  0
  3  8  1  0  0  0  0
  3  2  2  0  0  0  0
  4  3  1  0  0  0  0
  5  4  2  0  0  0  0
  5  6  1  0  0  0  0
  6  1  2  0  0  0  0
  9  5  1  0  0  0  0
 10 11  2  0  0  0  0
 10 15  1  0  0  0  0
 11 12  1  0  0  0  0
 12 17  1  0  0  0  0
 12 13  2  0  0  0  0
 14 13  1  0  0  0  0
 14 18  1  0  0  0  0
 15 14  2  0  0  0  0
 16 10  1  0  0  0  0
 19 20  1  0  0  0  0
 19  4  1  0  0  0  0
 21 19  2  0  0  0  0
M  END
>  <minimizedAffinity>
-4.14487219

$$$$

 OpenBabel03272510103D

 21 22  0  0  0  0  0  0  0  0999 V2000
   37.6650   25.4650   34.0760 C   0  0  0  0  0  0  0  0  0  0  0  0
   37.7080   26.0070   35.3490 C   0  0  0  0  0  0  0  0  0  0  0  0
   38.1440   25.3230   36.4710 C   0  0  0  0  0  0  0  0  0  0  0  0
   38.5690   24.0090   36.3230 C   0  0  0  0  0  0  0  0  0  0  0  0
   38.5150   23.5010   35.0510 C   0  0  0  0  0  0  0  0  0  0  0  0
   38.0860   24.1910   33.9840 N   0  0  0  0  0  0  0  0  0  0  0  0
   37.3880   27.0310   35.5230 H   0  0  0  0  0  0  0  0  0  0  0  0
   38.1660   25.7740   37.4540 H   0  0  0  0  0  0  0  0  0  0  0  0
   38.8160   22.4920   34.7990 H   0  0  0  0  0  0  0  0  0  0  0  0
   36.3230   25.7460   31.9580 C   0  0  0  0  0  0  0  0  0  0  0  0
   37.1980   26.2250   32.9260 C   0  0  0  0  0  0  0  0  0  0  0  0
   37.6790   27.5360   32.8040 C   0  0  0  0  0  0  0  0  0  0  0  0
   37.2400   28.2570   31.7200 N   0  0  0  0  0  0  0  0  0  0  0  0
   36.3940   27.7560   30.8080 C   0  0  0  0  0  0  0  0  0  0  0  0
   35.9340   26.5080   30.9210 N   0  0  0  0  0  0  0  0  0  0  0  0
   35.9710   24.7190   32.0890 H   0  0  0  0  0  0  0  0  0  0  0  0
   38.3580   28.0030   33.4970 H   0  0  0  0  0  0  0  0  0  0  0  0
   36.0700   28.3550   29.9650 H   0  0  0  0  0  0  0  0  0  0  0  0
   39.0470   23.1910   37.4260 C   0  0  0  0  0  0  0  0  0  0  0  0
   39.6430   22.3070   37.2420 H   0  0  0  0  0  0  0  0  0  0  0  0
   38.7650   23.5150   38.6230 O   0  0  0  0  0  0  0  0  0  0  0  0
  1  2  1  0  0  0  0
  2  7  1  0  0  0  0
  2  3  2  0  0  0  0
  3  8  1  0  0  0  0
  4  3  1  0  0  0  0
  4 19  1  0  0  0  0
  5  4  2  0  0  0  0
  6  1  2  0  0  0  0
  6  5  1  0  0  0  0
  9  5  1  0  0  0  0
 10 16  1  0  0  0  0
 10 11  1  0  0  0  0
 11  1  1  0  0  0  0
 12 11  2  0  0  0  0
 12 17  1  0  0  0  0
 13 12  1  0  0  0  0
 14 15  1  0  0  0  0
 14 13  2  0  0  0  0
 15 10  2  0  0  0  0
 18 14  1  0  0  0  0
 19 21  2  0  0  0  0
 20 19  1  0  0  0  0
M  END
>  <minimizedAffinity>
-3.90583014

$$$$

 OpenBabel03272510103D

 21 22  0  0  0  0  0  0  0  0999 V2000
   37.9130   25.6000   34.9970 C   0  0  0  0  0  0  0  0  0  0  0  0
   37.7530   25.3530   33.6440 C   0  0  0  0  0  0  0  0  0  0  0  0
   37.1640   26.2370   32.7560 C   0  0  0  0  0  0  0  0  0  0  0  0
   36.7010   27.4540   33.2410 C   0  0  0  0  0  0  0  0  0  0  0  0
   36.8750   27.6690   34.5840 C   0  0  0  0  0  0  0  0  0  0  0  0
   37.4500   26.7900   35.4170 N   0  0  0  0  0  0  0  0  0  0  0  0
   38.0960   24.4170   33.2100 H   0  0  0  0  0  0  0  0  0  0  0  0
   37.0520   26.0150   31.7030 H   0  0  0  0  0  0  0  0  0  0  0  0
   36.5600   28.5740   35.0870 H   0  0  0  0  0  0  0  0  0  0  0  0
   39.6540   23.8680   35.5770 C   0  0  0  0  0  0  0  0  0  0  0  0
   38.5400   24.6380   35.8910 C   0  0  0  0  0  0  0  0  0  0  0  0
   37.9610   24.4900   37.1590 C   0  0  0  0  0  0  0  0  0  0  0  0
   38.5500   23.5830   38.0060 N   0  0  0  0  0  0  0  0  0  0  0  0
   39.6260   22.8600   37.6620 C   0  0  0  0  0  0  0  0  0  0  0  0
   40.1800   22.9980   36.4550 N   0  0  0  0  0  0  0  0  0  0  0  0
   40.0760   24.0130   34.5780 H   0  0  0  0  0  0  0  0  0  0  0  0
   37.0990   25.0370   37.5020 H   0  0  0  0  0  0  0  0  0  0  0  0
   40.0640   22.1530   38.3580 H   0  0  0  0  0  0  0  0  0  0  0  0
   36.0660   28.4610   32.4060 C   0  0  0  0  0  0  0  0  0  0  0  0
   35.6490   29.3580   32.8430 H   0  0  0  0  0  0  0  0  0  0  0  0
   35.9990   28.2890   31.1480 O   0  0  0  0  0  0  0  0  0  0  0  0
  1  6  1  0  0  0  0
  1 11  1  0  0  0  0
  2  1  2  0  0  0  0
  3  4  2  0  0  0  0
  3  2  1  0  0  0  0
  4  5  1  0  0  0  0
  5  9  1  0  0  0  0
  5  6  2  0  0  0  0
  7  2  1  0  0  0  0
  8  3  1  0  0  0  0
 10 11  2  0  0  0  0
 10 15  1  0  0  0  0
 11 12  1  0  0  0  0
 12 17  1  0  0  0  0
 12 13  2  0  0  0  0
 14 13  1  0  0  0  0
 14 18  1  0  0  0  0
 15 14  2  0  0  0  0
 16 10  1  0  0  0  0
 19 20  1  0  0  0  0
 19  4  1  0  0  0  0
 21 19  2  0  0  0  0
M  END
>  <minimizedAffinity>
-3.82830787

$$$$

 OpenBabel03272510103D

 21 22  0  0  0  0  0  0  0  0999 V2000
   36.2080   22.8780   31.9730 C   0  0  0  0  0  0  0  0  0  0  0  0
   35.3950   23.7310   31.2470 C   0  0  0  0  0  0  0  0  0  0  0  0
   35.5410   25.1070   31.2160 C   0  0  0  0  0  0  0  0  0  0  0  0
   36.5670   25.6810   31.9560 C   0  0  0  0  0  0  0  0  0  0  0  0
   37.3550   24.8110   32.6640 C   0  0  0  0  0  0  0  0  0  0  0  0
   37.1850   23.4810   32.6720 N   0  0  0  0  0  0  0  0  0  0  0  0
   34.5770   23.3360   30.6500 H   0  0  0  0  0  0  0  0  0  0  0  0
   34.8890   25.7480   30.6380 H   0  0  0  0  0  0  0  0  0  0  0  0
   38.1870   25.1280   33.2800 H   0  0  0  0  0  0  0  0  0  0  0  0
   36.1620   20.6130   30.8630 C   0  0  0  0  0  0  0  0  0  0  0  0
   36.0140   21.4360   31.9730 C   0  0  0  0  0  0  0  0  0  0  0  0
   35.6500   20.8520   33.1950 C   0  0  0  0  0  0  0  0  0  0  0  0
   35.4660   19.4900   33.1990 N   0  0  0  0  0  0  0  0  0  0  0  0
   35.6200   18.7330   32.1030 C   0  0  0  0  0  0  0  0  0  0  0  0
   35.9670   19.2850   30.9380 N   0  0  0  0  0  0  0  0  0  0  0  0
   36.4470   21.1070   29.9290 H   0  0  0  0  0  0  0  0  0  0  0  0
   35.5100   21.3970   34.1130 H   0  0  0  0  0  0  0  0  0  0  0  0
   35.4660   17.6610   32.1440 H   0  0  0  0  0  0  0  0  0  0  0  0
   36.8190   27.1120   32.0020 C   0  0  0  0  0  0  0  0  0  0  0  0
   37.1360   27.6470   31.1160 H   0  0  0  0  0  0  0  0  0  0  0  0
   36.6670   27.7480   33.0940 O   0  0  0  0  0  0  0  0  0  0  0  0
  1  6  1  0  0  0  0
  2  1  2  0  0  0  0
  3  2  1  0  0  0  0
  3  4  2  0  0  0  0
  4 19  1  0  0  0  0
  4  5  1  0  0  0  0
  5  6  2  0  0  0  0
  5  9  1  0  0  0  0
  7  2  1  0  0  0  0
  8  3  1  0  0  0  0
 10 15  2  0  0  0  0
 10 11  1  0  0  0  0
 11  1  1  0  0  0  0
 11 12  2  0  0  0  0
 12 13  1  0  0  0  0
 12 17  1  0  0  0  0
 14 18  1  0  0  0  0
 14 13  2  0  0  0  0
 15 14  1  0  0  0  0
 16 10  1  0  0  0  0
 19 21  2  0  0  0  0
 20 19  1  0  0  0  0
M  END
>  <minimizedAffinity>
-3.82823324

$$$$

 OpenBabel03272510103D

 21 22  0  0  0  0  0  0  0  0999 V2000
   35.3690   29.9320   33.7750 C   0  0  0  0  0  0  0  0  0  0  0  0
   36.0700   28.7420   33.8700 C   0  0  0  0  0  0  0  0  0  0  0  0
   36.5950   28.0600   32.7850 C   0  0  0  0  0  0  0  0  0  0  0  0
   36.4130   28.5930   31.5150 C   0  0  0  0  0  0  0  0  0  0  0  0
   35.7150   29.7720   31.4540 C   0  0  0  0  0  0  0  0  0  0  0  0
   35.2190   30.4070   32.5260 N   0  0  0  0  0  0  0  0  0  0  0  0
   36.2420   28.2800   34.8380 H   0  0  0  0  0  0  0  0  0  0  0  0
   37.1390   27.1310   32.8900 H   0  0  0  0  0  0  0  0  0  0  0  0
   35.5040   30.2910   30.5290 H   0  0  0  0  0  0  0  0  0  0  0  0
   35.5720   31.4380   35.7890 C   0  0  0  0  0  0  0  0  0  0  0  0
   34.8370   30.6130   34.9460 C   0  0  0  0  0  0  0  0  0  0  0  0
   33.4790   30.4070   35.2290 C   0  0  0  0  0  0  0  0  0  0  0  0
   32.9740   31.0480   36.3330 N   0  0  0  0  0  0  0  0  0  0  0  0
   33.7190   31.8370   37.1200 C   0  0  0  0  0  0  0  0  0  0  0  0
   35.0120   32.0360   36.8550 N   0  0  0  0  0  0  0  0  0  0  0  0
   36.6270   31.5740   35.5340 H   0  0  0  0  0  0  0  0  0  0  0  0
   32.8220   29.7880   34.6410 H   0  0  0  0  0  0  0  0  0  0  0  0
   33.2850   32.3270   37.9850 H   0  0  0  0  0  0  0  0  0  0  0  0
   36.9160   27.9680   30.3030 C   0  0  0  0  0  0  0  0  0  0  0  0
   37.1550   26.9130   30.2830 H   0  0  0  0  0  0  0  0  0  0  0  0
   37.0790   28.6650   29.2510 O   0  0  0  0  0  0  0  0  0  0  0  0
  1  2  1  0  0  0  0
  1 11  1  0  0  0  0
  2  7  1  0  0  0  0
  3  8  1  0  0  0  0
  3  2  2  0  0  0  0
  4  3  1  0  0  0  0
  5  4  2  0  0  0  0
  5  6  1  0  0  0  0
  6  1  2  0  0  0  0
  9  5  1  0  0  0  0
 10 15  1  0  0  0  0
 11 12  1  0  0  0  0
 11 10  2  0  0  0  0
 12 13  2  0  0  0  0
 13 14  1  0  0  0  0
 14 18  1  0  0  0  0
 15 14  2  0  0  0  0
 16 10  1  0  0  0  0
 17 12  1  0  0  0  0
 19  4  1  0  0  0  0
 20 19  1  0  0  0  0
 21 19  2  0  0  0  0
M  END
>  <minimizedAffinity>
-3.7979672

$$$$

 OpenBabel03272510103D

 21 22  0  0  0  0  0  0  0  0999 V2000
   37.1800   27.1770   33.8620 C   0  0  0  0  0  0  0  0  0  0  0  0
   37.6470   27.4720   35.1320 C   0  0  0  0  0  0  0  0  0  0  0  0
   38.2490   26.5510   35.9720 C   0  0  0  0  0  0  0  0  0  0  0  0
   38.4010   25.2450   35.5250 C   0  0  0  0  0  0  0  0  0  0  0  0
   37.9300   24.9840   34.2640 C   0  0  0  0  0  0  0  0  0  0  0  0
   37.3510   25.9010   33.4740 N   0  0  0  0  0  0  0  0  0  0  0  0
   37.5540   28.4780   35.5330 H   0  0  0  0  0  0  0  0  0  0  0  0
   38.6030   26.8110   36.9600 H   0  0  0  0  0  0  0  0  0  0  0  0
   37.9860   24.0100   33.7970 H   0  0  0  0  0  0  0  0  0  0  0  0
   36.6960   28.2570   31.6340 C   0  0  0  0  0  0  0  0  0  0  0  0
   36.5550   28.1810   33.0150 C   0  0  0  0  0  0  0  0  0  0  0  0
   35.7530   29.1340   33.6590 C   0  0  0  0  0  0  0  0  0  0  0  0
   35.1600   30.0830   32.8620 N   0  0  0  0  0  0  0  0  0  0  0  0
   35.3230   30.1200   31.5310 C   0  0  0  0  0  0  0  0  0  0  0  0
   36.0860   29.2140   30.9140 N   0  0  0  0  0  0  0  0  0  0  0  0
   37.3300   27.4960   31.1700 H   0  0  0  0  0  0  0  0  0  0  0  0
   35.5760   29.1640   34.7200 H   0  0  0  0  0  0  0  0  0  0  0  0
   34.8390   30.8850   30.9350 H   0  0  0  0  0  0  0  0  0  0  0  0
   39.0160   24.1920   36.3160 C   0  0  0  0  0  0  0  0  0  0  0  0
   39.9720   23.7720   36.0320 H   0  0  0  0  0  0  0  0  0  0  0  0
   38.4280   23.7560   37.3560 O   0  0  0  0  0  0  0  0  0  0  0  0
  1  2  1  0  0  0  0
  2  7  1  0  0  0  0
  2  3  2  0  0  0  0
  3  8  1  0  0  0  0
  4  3  1  0  0  0  0
  4 19  1  0  0  0  0
  5  4  2  0  0  0  0
  6  1  2  0  0  0  0
  6  5  1  0  0  0  0
  9  5  1  0  0  0  0
 10 11  1  0  0  0  0
 11 12  2  0  0  0  0
 11  1  1  0  0  0  0
 12 17  1  0  0  0  0
 13 12  1  0  0  0  0
 14 13  2  0  0  0  0
 15 14  1  0  0  0  0
 15 10  2  0  0  0  0
 16 10  1  0  0  0  0
 18 14  1  0  0  0  0
 19 21  2  0  0  0  0
 20 19  1  0  0  0  0
M  END
>  <minimizedAffinity>
-3.7631526

$$$$

 OpenBabel03272510103D

 21 22  0  0  0  0  0  0  0  0999 V2000
   37.8330   25.2630   34.4500 C   0  0  0  0  0  0  0  0  0  0  0  0
   38.5100   24.0690   34.2720 C   0  0  0  0  0  0  0  0  0  0  0  0
   39.0090   23.2960   35.3070 C   0  0  0  0  0  0  0  0  0  0  0  0
   38.8230   23.7360   36.6120 C   0  0  0  0  0  0  0  0  0  0  0  0
   38.1490   24.9210   36.7550 C   0  0  0  0  0  0  0  0  0  0  0  0
   37.6780   25.6460   35.7290 N   0  0  0  0  0  0  0  0  0  0  0  0
   38.6840   23.6780   33.2730 H   0  0  0  0  0  0  0  0  0  0  0  0
   39.5350   22.3670   35.1370 H   0  0  0  0  0  0  0  0  0  0  0  0
   37.9370   25.3730   37.7150 H   0  0  0  0  0  0  0  0  0  0  0  0
   37.4130   27.4230   33.2160 C   0  0  0  0  0  0  0  0  0  0  0  0
   37.3270   26.0410   33.3280 C   0  0  0  0  0  0  0  0  0  0  0  0
   36.7090   25.3220   32.2950 C   0  0  0  0  0  0  0  0  0  0  0  0
   36.2300   26.0520   31.2350 N   0  0  0  0  0  0  0  0  0  0  0  0
   36.3340   27.3870   31.1660 C   0  0  0  0  0  0  0  0  0  0  0  0
   36.9220   28.0750   32.1480 N   0  0  0  0  0  0  0  0  0  0  0  0
   37.9020   27.9470   34.0420 H   0  0  0  0  0  0  0  0  0  0  0  0
   36.5910   24.2520   32.2830 H   0  0  0  0  0  0  0  0  0  0  0  0
   35.9440   27.9300   30.3120 H   0  0  0  0  0  0  0  0  0  0  0  0
   39.3010   23.0110   37.7780 C   0  0  0  0  0  0  0  0  0  0  0  0
   38.7050   22.9590   38.6800 H   0  0  0  0  0  0  0  0  0  0  0  0
   40.4320   22.4300   37.7430 O   0  0  0  0  0  0  0  0  0  0  0  0
  1  6  1  0  0  0  0
  2  1  2  0  0  0  0
  2  3  1  0  0  0  0
  3  4  2  0  0  0  0
  4  5  1  0  0  0  0
  4 19  1  0  0  0  0
  5  9  1  0  0  0  0
  6  5  2  0  0  0  0
  7  2  1  0  0  0  0
  8  3  1  0  0  0  0
 10 11  1  0  0  0  0
 10 16  1  0  0  0  0
 11  1  1  0  0  0  0
 12 11  2  0  0  0  0
 13 12  1  0  0  0  0
 14 13  2  0  0  0  0
 14 15  1  0  0  0  0
 15 10  2  0  0  0  0
 17 12  1  0  0  0  0
 18 14  1  0  0  0  0
 19 20  1  0  0  0  0
 21 19  2  0  0  0  0
M  END
>  <minimizedAffinity>
-3.75725079

$$$$

 OpenBabel03272510103D

 21 22  0  0  0  0  0  0  0  0999 V2000
   37.7390   25.5910   34.4340 C   0  0  0  0  0  0  0  0  0  0  0  0
   37.4540   26.7350   35.1590 C   0  0  0  0  0  0  0  0  0  0  0  0
   36.8640   27.8680   34.6250 C   0  0  0  0  0  0  0  0  0  0  0  0
   36.5310   27.8690   33.2770 C   0  0  0  0  0  0  0  0  0  0  0  0
   36.8250   26.7230   32.5850 C   0  0  0  0  0  0  0  0  0  0  0  0
   37.3980   25.6410   33.1340 N   0  0  0  0  0  0  0  0  0  0  0  0
   37.6930   26.7900   36.2180 H   0  0  0  0  0  0  0  0  0  0  0  0
   36.6540   28.7490   35.2180 H   0  0  0  0  0  0  0  0  0  0  0  0
   36.6180   26.5930   31.5310 H   0  0  0  0  0  0  0  0  0  0  0  0
   38.8580   23.3320   34.3400 C   0  0  0  0  0  0  0  0  0  0  0  0
   38.3600   24.4240   35.0420 C   0  0  0  0  0  0  0  0  0  0  0  0
   38.4520   24.4190   36.4410 C   0  0  0  0  0  0  0  0  0  0  0  0
   39.0390   23.3190   37.0170 N   0  0  0  0  0  0  0  0  0  0  0  0
   39.5070   22.2860   36.3020 C   0  0  0  0  0  0  0  0  0  0  0  0
   39.4210   22.2870   34.9700 N   0  0  0  0  0  0  0  0  0  0  0  0
   38.7670   23.3740   33.2510 H   0  0  0  0  0  0  0  0  0  0  0  0
   38.0990   25.2130   37.0770 H   0  0  0  0  0  0  0  0  0  0  0  0
   39.9640   21.4340   36.7930 H   0  0  0  0  0  0  0  0  0  0  0  0
   35.9090   28.9990   32.6050 C   0  0  0  0  0  0  0  0  0  0  0  0
   36.5100   29.8060   32.2070 H   0  0  0  0  0  0  0  0  0  0  0  0
   34.6440   29.0430   32.4800 O   0  0  0  0  0  0  0  0  0  0  0  0
  1 11  1  0  0  0  0
  1  2  1  0  0  0  0
  2  7  1  0  0  0  0
  3  2  2  0  0  0  0
  3  8  1  0  0  0  0
  4  3  1  0  0  0  0
  5  6  1  0  0  0  0
  5  4  2  0  0  0  0
  6  1  2  0  0  0  0
  9  5  1  0  0  0  0
 10 15  2  0  0  0  0
 10 11  1  0  0  0  0
 11 12  2  0  0  0  0
 12 13  1  0  0  0  0
 12 17  1  0  0  0  0
 14 18  1  0  0  0  0
 14 13  2  0  0  0  0
 15 14  1  0  0  0  0
 16 10  1  0  0  0  0
 19  4  1  0  0  0  0
 20 19  1  0  0  0  0
 21 19  2  0  0  0  0
M  END
>  <minimizedAffinity>
-3.75604391

$$$$
