
 OpenBabel03272510323D

 22 23  0  0  0  0  0  0  0  0999 V2000
   35.9970   30.1800   48.6360 C   0  0  0  0  0  0  0  0  0  0  0  0
   35.1530   30.0560   47.5730 C   0  0  0  0  0  0  0  0  0  0  0  0
   34.1360   29.1180   47.5700 C   0  0  0  0  0  0  0  0  0  0  0  0
   33.9880   28.3050   48.6660 C   0  0  0  0  0  0  0  0  0  0  0  0
   34.8350   28.4060   49.7730 C   0  0  0  0  0  0  0  0  0  0  0  0
   35.8430   29.3560   49.7400 C   0  0  0  0  0  0  0  0  0  0  0  0
   35.2630   30.6980   46.6980 H   0  0  0  0  0  0  0  0  0  0  0  0
   33.4500   28.9870   46.7550 H   0  0  0  0  0  0  0  0  0  0  0  0
   33.2320   27.5350   48.7830 H   0  0  0  0  0  0  0  0  0  0  0  0
   34.7520   27.7790   50.6620 H   0  0  0  0  0  0  0  0  0  0  0  0
   37.9460   33.1460   49.4470 C   0  0  0  0  0  0  0  0  0  0  0  0
   38.9880   33.1430   48.4970 C   0  0  0  0  0  0  0  0  0  0  0  0
   38.9980   32.0850   47.5670 C   0  0  0  0  0  0  0  0  0  0  0  0
   38.0250   31.1430   47.6300 N   0  0  0  0  0  0  0  0  0  0  0  0
   37.0400   31.1860   48.5640 C   0  0  0  0  0  0  0  0  0  0  0  0
   37.0250   32.1900   49.4540 N   0  0  0  0  0  0  0  0  0  0  0  0
   37.8520   33.9160   50.2040 H   0  0  0  0  0  0  0  0  0  0  0  0
   39.7180   33.9360   48.5240 H   0  0  0  0  0  0  0  0  0  0  0  0
   39.7900   32.0700   46.8320 H   0  0  0  0  0  0  0  0  0  0  0  0
   36.7340   29.4700   50.8870 C   0  0  0  0  0  0  0  0  0  0  0  0
   36.5440   30.1500   51.7030 H   0  0  0  0  0  0  0  0  0  0  0  0
   37.7850   28.7900   51.0130 O   0  0  0  0  0  0  0  0  0  0  0  0
  1  6  1  0  0  0  0
  2  1  2  0  0  0  0
  3  2  1  0  0  0  0
  3  4  2  0  0  0  0
  4  9  1  0  0  0  0
  4  5  1  0  0  0  0
  5 10  1  0  0  0  0
  6  5  2  0  0  0  0
  6 20  1  0  0  0  0
  7  2  1  0  0  0  0
  8  3  1  0  0  0  0
 11 16  1  0  0  0  0
 11 17  1  0  0  0  0
 12 18  1  0  0  0  0
 12 11  2  0  0  0  0
 13 14  2  0  0  0  0
 13 12  1  0  0  0  0
 14 15  1  0  0  0  0
 15  1  1  0  0  0  0
 15 16  2  0  0  0  0
 19 13  1  0  0  0  0
 20 22  2  0  0  0  0
 20 21  1  0  0  0  0
M  END
>  <minimizedAffinity>
-5.31555414

>  <minimizedRMSD>
0.345716774

$$$$
