
 OpenBabel03272510323D

 22 23  0  0  0  0  0  0  0  0999 V2000
   35.9970   30.1800   48.6390 C   0  0  0  0  0  0  0  0  0  0  0  0
   35.1520   30.0560   47.5770 C   0  0  0  0  0  0  0  0  0  0  0  0
   34.1350   29.1190   47.5740 C   0  0  0  0  0  0  0  0  0  0  0  0
   33.9890   28.3050   48.6700 C   0  0  0  0  0  0  0  0  0  0  0  0
   34.8370   28.4060   49.7760 C   0  0  0  0  0  0  0  0  0  0  0  0
   35.8440   29.3560   49.7420 C   0  0  0  0  0  0  0  0  0  0  0  0
   35.2610   30.6980   46.7010 H   0  0  0  0  0  0  0  0  0  0  0  0
   33.4480   28.9870   46.7600 H   0  0  0  0  0  0  0  0  0  0  0  0
   33.2320   27.5350   48.7890 H   0  0  0  0  0  0  0  0  0  0  0  0
   34.7540   27.7800   50.6660 H   0  0  0  0  0  0  0  0  0  0  0  0
   37.9470   33.1460   49.4470 C   0  0  0  0  0  0  0  0  0  0  0  0
   38.9880   33.1430   48.4960 C   0  0  0  0  0  0  0  0  0  0  0  0
   38.9970   32.0850   47.5660 C   0  0  0  0  0  0  0  0  0  0  0  0
   38.0250   31.1430   47.6310 N   0  0  0  0  0  0  0  0  0  0  0  0
   37.0400   31.1860   48.5650 C   0  0  0  0  0  0  0  0  0  0  0  0
   37.0260   32.1910   49.4550 N   0  0  0  0  0  0  0  0  0  0  0  0
   37.8530   33.9170   50.2040 H   0  0  0  0  0  0  0  0  0  0  0  0
   39.7180   33.9360   48.5220 H   0  0  0  0  0  0  0  0  0  0  0  0
   39.7890   32.0700   46.8310 H   0  0  0  0  0  0  0  0  0  0  0  0
   36.7360   29.4710   50.8890 C   0  0  0  0  0  0  0  0  0  0  0  0
   36.5490   30.1520   51.7030 H   0  0  0  0  0  0  0  0  0  0  0  0
   37.7850   28.7870   51.0150 O   0  0  0  0  0  0  0  0  0  0  0  0
  1  6  1  0  0  0  0
  2  1  2  0  0  0  0
  3  2  1  0  0  0  0
  3  4  2  0  0  0  0
  4  9  1  0  0  0  0
  4  5  1  0  0  0  0
  5 10  1  0  0  0  0
  6  5  2  0  0  0  0
  6 20  1  0  0  0  0
  7  2  1  0  0  0  0
  8  3  1  0  0  0  0
 11 16  1  0  0  0  0
 11 17  1  0  0  0  0
 12 18  1  0  0  0  0
 12 11  2  0  0  0  0
 13 14  2  0  0  0  0
 13 12  1  0  0  0  0
 14 15  1  0  0  0  0
 15  1  1  0  0  0  0
 15 16  2  0  0  0  0
 19 13  1  0  0  0  0
 20 22  2  0  0  0  0
 20 21  1  0  0  0  0
M  END
>  <minimizedAffinity>
-5.31431389

>  <minimizedRMSD>
0.143848702

$$$$
