
 OpenBabel03272506033D

 32 34  0  0  0  0  0  0  0  0999 V2000
   37.1270   30.7370   45.1180 Cl  0  0  0  0  0  0  0  0  0  0  0  0
   38.3840   31.8910   45.4520 C   0  0  0  0  0  0  0  0  0  0  0  0
   38.7400   32.0930   46.7370 C   0  0  0  0  0  0  0  0  0  0  0  0
   39.7610   33.0400   46.9300 C   0  0  0  0  0  0  0  0  0  0  0  0
   40.3500   33.7070   45.8650 C   0  0  0  0  0  0  0  0  0  0  0  0
   39.9310   33.4470   44.5640 C   0  0  0  0  0  0  0  0  0  0  0  0
   38.9210   32.5130   44.3660 C   0  0  0  0  0  0  0  0  0  0  0  0
   40.1330   33.2870   47.9240 H   0  0  0  0  0  0  0  0  0  0  0  0
   41.1360   34.4310   46.0480 H   0  0  0  0  0  0  0  0  0  0  0  0
   40.4040   33.9800   43.7490 H   0  0  0  0  0  0  0  0  0  0  0  0
   40.5460   30.4850   42.9970 Cl  0  0  0  0  0  0  0  0  0  0  0  0
   39.2530   31.3700   42.2420 C   0  0  0  0  0  0  0  0  0  0  0  0
   38.5520   32.3060   42.9880 C   0  0  0  0  0  0  0  0  0  0  0  0
   37.5230   33.0110   42.3910 C   0  0  0  0  0  0  0  0  0  0  0  0
   37.2210   32.7580   41.0500 C   0  0  0  0  0  0  0  0  0  0  0  0
   37.9400   31.8150   40.3280 C   0  0  0  0  0  0  0  0  0  0  0  0
   37.5300   31.5240   38.6390 Cl  0  0  0  0  0  0  0  0  0  0  0  0
   38.9610   31.1130   40.9150 C   0  0  0  0  0  0  0  0  0  0  0  0
   36.9560   33.7530   42.9520 H   0  0  0  0  0  0  0  0  0  0  0  0
   36.4180   33.3070   40.5770 H   0  0  0  0  0  0  0  0  0  0  0  0
   39.5270   30.3730   40.3530 H   0  0  0  0  0  0  0  0  0  0  0  0
   38.4200   31.8490   49.1960 C   0  0  0  0  0  0  0  0  0  0  0  0
   38.1610   31.4260   47.8950 C   0  0  0  0  0  0  0  0  0  0  0  0
   37.3200   30.3270   47.7430 C   0  0  0  0  0  0  0  0  0  0  0  0
   36.8040   29.7350   48.8480 N   0  0  0  0  0  0  0  0  0  0  0  0
   37.0750   30.1710   50.0840 C   0  0  0  0  0  0  0  0  0  0  0  0
   37.8840   31.2290   50.2530 N   0  0  0  0  0  0  0  0  0  0  0  0
   39.0800   32.7100   49.3060 H   0  0  0  0  0  0  0  0  0  0  0  0
   37.0690   29.9360   46.7820 H   0  0  0  0  0  0  0  0  0  0  0  0
   36.5510   29.5760   51.3030 C   0  0  0  0  0  0  0  0  0  0  0  0
   37.0580   29.3720   52.2290 H   0  0  0  0  0  0  0  0  0  0  0  0
   35.3630   29.1930   51.4610 O   0  0  0  0  0  0  0  0  0  0  0  0
  1  2  1  0  0  0  0
  2  3  1  0  0  0  0
  3  4  2  0  0  0  0
  3 23  1  0  0  0  0
  4  8  1  0  0  0  0
  5  9  1  0  0  0  0
  5  4  1  0  0  0  0
  6  5  2  0  0  0  0
  7  6  1  0  0  0  0
  7  2  2  0  0  0  0
 10  6  1  0  0  0  0
 12 13  1  0  0  0  0
 12 11  1  0  0  0  0
 13  7  1  0  0  0  0
 14 19  1  0  0  0  0
 14 13  2  0  0  0  0
 15 14  1  0  0  0  0
 16 18  1  0  0  0  0
 16 15  2  0  0  0  0
 17 16  1  0  0  0  0
 18 12  2  0  0  0  0
 20 15  1  0  0  0  0
 21 18  1  0  0  0  0
 22 28  1  0  0  0  0
 22 27  1  0  0  0  0
 23 22  2  0  0  0  0
 24 23  1  0  0  0  0
 24 25  2  0  0  0  0
 25 26  1  0  0  0  0
 26 27  2  0  0  0  0
 26 30  1  0  0  0  0
 29 24  1  0  0  0  0
 30 32  2  0  0  0  0
 30 31  1  0  0  0  0
M  END
>  <minimizedAffinity>
-5.84892702

>  <minimizedRMSD>
2.30614734

$$$$
