
 OpenBabel03262523233D

 27 28  0  0  1  0  0  0  0  0999 V2000
   36.5330   21.4010   33.2620 C   0  0  0  0  0  0  0  0  0  0  0  0
   35.5430   20.8090   34.0740 C   0  0  0  0  0  0  0  0  0  0  0  0
   35.7600   20.7870   35.4480 C   0  0  0  0  0  0  0  0  0  0  0  0
   36.9080   21.3320   35.9330 N   0  0  0  0  0  0  0  0  0  0  0  0
   37.8370   21.8910   35.1260 C   0  0  0  0  0  0  0  0  0  0  0  0
   37.6430   21.9200   33.8030 N   0  0  0  0  0  0  0  0  0  0  0  0
   39.0350   22.4550   35.6880 N   0  0  0  0  0  0  0  0  0  0  0  0
   40.3240   22.1880   35.0730 C   0  0  0  0  0  0  0  0  0  0  0  0
   41.4590   22.0880   36.0640 C   0  0  0  0  0  0  0  0  0  0  0  0
   40.8760   21.8720   37.4340 C   0  0  0  0  0  0  0  0  0  0  0  0
   40.1180   23.1210   37.8070 C   0  0  0  0  0  0  0  0  0  0  0  0
   38.9570   23.2830   36.8620 C   0  0  2  0  0  0  0  0  0  0  0  0
   36.3260   21.3970   32.2030 H   0  0  0  0  0  0  0  0  0  0  0  0
   34.6230   20.3650   33.7480 H   0  0  0  0  0  0  0  0  0  0  0  0
   35.1280   20.3850   36.2170 H   0  0  0  0  0  0  0  0  0  0  0  0
   40.5510   23.1020   34.4510 H   0  0  0  0  0  0  0  0  0  0  0  0
   40.2770   21.3170   34.3870 H   0  0  0  0  0  0  0  0  0  0  0  0
   42.0620   21.1830   35.7690 H   0  0  0  0  0  0  0  0  0  0  0  0
   42.1660   22.9300   36.0260 H   0  0  0  0  0  0  0  0  0  0  0  0
   41.6420   21.6030   38.1770 H   0  0  0  0  0  0  0  0  0  0  0  0
   40.1030   21.0690   37.3450 H   0  0  0  0  0  0  0  0  0  0  0  0
   40.8380   23.9640   37.7440 H   0  0  0  0  0  0  0  0  0  0  0  0
   39.8000   23.0630   38.8550 H   0  0  0  0  0  0  0  0  0  0  0  0
   38.9630   24.3460   36.5230 H   0  0  0  0  0  0  0  0  0  0  0  0
   37.6560   23.0700   37.5540 C   0  0  0  0  0  2  0  0  0  0  0  0
   36.6080   23.0260   37.8170 H   0  0  0  0  0  0  0  0  0  0  0  0
   37.2280   22.6420   38.5920 O   0  0  0  0  0  0  0  0  0  0  0  0
  1  6  2  0  0  0  0
  1  2  1  0  0  0  0
  2  3  2  0  0  0  0
  3  4  1  0  0  0  0
  3 15  1  0  0  0  0
  5  7  1  0  0  0  0
  5  4  2  0  0  0  0
  6  5  1  0  0  0  0
  7 12  1  0  0  0  0
  8  7  1  0  0  0  0
  8  9  1  0  0  0  0
  9 10  1  0  0  0  0
 10 11  1  0  0  0  0
 10 20  1  0  0  0  0
 11 23  1  0  0  0  0
 12 24  1  6  0  0  0
 12 25  1  0  0  0  0
 12 11  1  0  0  0  0
 13  1  1  0  0  0  0
 14  2  1  0  0  0  0
 16  8  1  0  0  0  0
 17  8  1  0  0  0  0
 18  9  1  0  0  0  0
 19  9  1  0  0  0  0
 21 10  1  0  0  0  0
 22 11  1  0  0  0  0
 25 27  1  0  0  0  0
 26 27  1  0  0  0  0
M  END
>  <minimizedAffinity>
-4.29315901

$$$$

 OpenBabel03262523233D

 27 28  0  0  1  0  0  0  0  0999 V2000
   42.0830   21.8540   35.4750 C   0  0  0  0  0  0  0  0  0  0  0  0
   41.9100   21.3630   36.7860 C   0  0  0  0  0  0  0  0  0  0  0  0
   40.9330   21.9580   37.5780 C   0  0  0  0  0  0  0  0  0  0  0  0
   40.2010   22.9770   37.0510 N   0  0  0  0  0  0  0  0  0  0  0  0
   40.3940   23.4240   35.7900 C   0  0  0  0  0  0  0  0  0  0  0  0
   41.3290   22.8620   35.0160 N   0  0  0  0  0  0  0  0  0  0  0  0
   39.5940   24.5050   35.2790 N   0  0  0  0  0  0  0  0  0  0  0  0
   40.2190   25.5840   34.5320 C   0  0  0  0  0  0  0  0  0  0  0  0
   39.5690   26.9290   34.7530 C   0  0  0  0  0  0  0  0  0  0  0  0
   38.7320   26.8530   36.0010 C   0  0  0  0  0  0  0  0  0  0  0  0
   37.6010   25.8930   35.7320 C   0  0  0  0  0  0  0  0  0  0  0  0
   38.1740   24.5200   35.5090 C   0  0  2  0  0  0  0  0  0  0  0  0
   42.8500   21.3660   34.8950 H   0  0  0  0  0  0  0  0  0  0  0  0
   42.4550   20.5660   37.2520 H   0  0  0  0  0  0  0  0  0  0  0  0
   40.6590   21.7220   38.5880 H   0  0  0  0  0  0  0  0  0  0  0  0
   40.0340   25.3380   33.4460 H   0  0  0  0  0  0  0  0  0  0  0  0
   41.3170   25.6070   34.6900 H   0  0  0  0  0  0  0  0  0  0  0  0
   40.4070   27.6660   34.9110 H   0  0  0  0  0  0  0  0  0  0  0  0
   39.0110   27.3090   33.8840 H   0  0  0  0  0  0  0  0  0  0  0  0
   38.3800   27.8430   36.3300 H   0  0  0  0  0  0  0  0  0  0  0  0
   39.3550   26.3660   36.7910 H   0  0  0  0  0  0  0  0  0  0  0  0
   37.0600   26.2780   34.8400 H   0  0  0  0  0  0  0  0  0  0  0  0
   36.8860   25.9200   36.5630 H   0  0  0  0  0  0  0  0  0  0  0  0
   37.6830   24.1090   34.5960 H   0  0  0  0  0  0  0  0  0  0  0  0
   37.8270   23.5960   36.6250 C   0  0  0  0  0  2  0  0  0  0  0  0
   37.7190   23.1160   37.5870 H   0  0  0  0  0  0  0  0  0  0  0  0
   37.2370   22.5670   36.8140 O   0  0  0  0  0  0  0  0  0  0  0  0
  1  2  1  0  0  0  0
  2 14  1  0  0  0  0
  2  3  2  0  0  0  0
  3 15  1  0  0  0  0
  4  3  1  0  0  0  0
  5  4  2  0  0  0  0
  6  1  2  0  0  0  0
  6  5  1  0  0  0  0
  7 12  1  0  0  0  0
  7  5  1  0  0  0  0
  8 17  1  0  0  0  0
  8  9  1  0  0  0  0
  8  7  1  0  0  0  0
  9 18  1  0  0  0  0
  9 10  1  0  0  0  0
 10 20  1  0  0  0  0
 10 21  1  0  0  0  0
 11 10  1  0  0  0  0
 11 23  1  0  0  0  0
 12 24  1  6  0  0  0
 12 11  1  0  0  0  0
 12 25  1  0  0  0  0
 13  1  1  0  0  0  0
 16  8  1  0  0  0  0
 19  9  1  0  0  0  0
 22 11  1  0  0  0  0
 25 27  1  0  0  0  0
 27 26  1  0  0  0  0
M  END
>  <minimizedAffinity>
-4.28635311

$$$$

 OpenBabel03262523233D

 27 28  0  0  1  0  0  0  0  0999 V2000
   37.4480   23.9310   32.7210 C   0  0  0  0  0  0  0  0  0  0  0  0
   36.6210   23.4890   31.6670 C   0  0  0  0  0  0  0  0  0  0  0  0
   35.8380   24.4360   31.0160 C   0  0  0  0  0  0  0  0  0  0  0  0
   35.9090   25.7310   31.4260 N   0  0  0  0  0  0  0  0  0  0  0  0
   36.7120   26.1220   32.4410 C   0  0  0  0  0  0  0  0  0  0  0  0
   37.4710   25.2230   33.0780 N   0  0  0  0  0  0  0  0  0  0  0  0
   36.7510   27.5040   32.8380 N   0  0  0  0  0  0  0  0  0  0  0  0
   36.7220   27.8580   34.2470 C   0  0  0  0  0  0  0  0  0  0  0  0
   35.9820   29.1430   34.5330 C   0  0  0  0  0  0  0  0  0  0  0  0
   35.1250   29.4730   33.3410 C   0  0  0  0  0  0  0  0  0  0  0  0
   36.0480   29.7820   32.1890 C   0  0  0  0  0  0  0  0  0  0  0  0
   36.8180   28.5370   31.8390 C   0  0  2  0  0  0  0  0  0  0  0  0
   38.0390   23.1660   33.2000 H   0  0  0  0  0  0  0  0  0  0  0  0
   36.5260   22.4850   31.3030 H   0  0  0  0  0  0  0  0  0  0  0  0
   35.1550   24.2900   30.2000 H   0  0  0  0  0  0  0  0  0  0  0  0
   37.7970   28.0650   34.5230 H   0  0  0  0  0  0  0  0  0  0  0  0
   36.3700   27.0130   34.8730 H   0  0  0  0  0  0  0  0  0  0  0  0
   35.3220   28.9400   35.4220 H   0  0  0  0  0  0  0  0  0  0  0  0
   36.6300   29.9780   34.8400 H   0  0  0  0  0  0  0  0  0  0  0  0
   34.4170   30.2900   33.5490 H   0  0  0  0  0  0  0  0  0  0  0  0
   34.5850   28.5390   33.0500 H   0  0  0  0  0  0  0  0  0  0  0  0
   36.7090   30.6110   32.5210 H   0  0  0  0  0  0  0  0  0  0  0  0
   35.4680   30.1690   31.3430 H   0  0  0  0  0  0  0  0  0  0  0  0
   37.8870   28.8370   31.7370 H   0  0  0  0  0  0  0  0  0  0  0  0
   36.4050   27.9950   30.5150 C   0  0  0  0  0  2  0  0  0  0  0  0
   35.8940   27.4930   29.7050 H   0  0  0  0  0  0  0  0  0  0  0  0
   36.7650   28.0010   29.3680 O   0  0  0  0  0  0  0  0  0  0  0  0
  1  6  1  0  0  0  0
  1 13  1  0  0  0  0
  2  1  2  0  0  0  0
  3  4  2  0  0  0  0
  3  2  1  0  0  0  0
  4  5  1  0  0  0  0
  5  7  1  0  0  0  0
  5  6  2  0  0  0  0
  7  8  1  0  0  0  0
  8 16  1  0  0  0  0
  8  9  1  0  0  0  0
  8 17  1  0  0  0  0
  9 19  1  0  0  0  0
  9 18  1  0  0  0  0
 10 20  1  0  0  0  0
 10  9  1  0  0  0  0
 11 22  1  0  0  0  0
 11 10  1  0  0  0  0
 12 24  1  6  0  0  0
 12 11  1  0  0  0  0
 12  7  1  0  0  0  0
 14  2  1  0  0  0  0
 15  3  1  0  0  0  0
 21 10  1  0  0  0  0
 23 11  1  0  0  0  0
 25 12  1  0  0  0  0
 27 26  1  0  0  0  0
 27 25  1  0  0  0  0
M  END
>  <minimizedAffinity>
-4.16493368

$$$$

 OpenBabel03262523233D

 27 28  0  0  1  0  0  0  0  0999 V2000
   35.6890   23.8390   31.4430 C   0  0  0  0  0  0  0  0  0  0  0  0
   35.0840   24.9490   30.8160 C   0  0  0  0  0  0  0  0  0  0  0  0
   35.5250   26.2170   31.1800 C   0  0  0  0  0  0  0  0  0  0  0  0
   36.5080   26.3210   32.1150 N   0  0  0  0  0  0  0  0  0  0  0  0
   37.0650   25.2350   32.6970 C   0  0  0  0  0  0  0  0  0  0  0  0
   36.6530   24.0090   32.3580 N   0  0  0  0  0  0  0  0  0  0  0  0
   38.1020   25.3990   33.6800 N   0  0  0  0  0  0  0  0  0  0  0  0
   38.0730   24.6170   34.9050 C   0  0  0  0  0  0  0  0  0  0  0  0
   38.6110   25.3550   36.1070 C   0  0  0  0  0  0  0  0  0  0  0  0
   38.6320   26.8260   35.7910 C   0  0  0  0  0  0  0  0  0  0  0  0
   39.6430   27.0410   34.6950 C   0  0  0  0  0  0  0  0  0  0  0  0
   39.1680   26.3370   33.4520 C   0  0  2  0  0  0  0  0  0  0  0  0
   35.3190   22.8730   31.1340 H   0  0  0  0  0  0  0  0  0  0  0  0
   34.3090   24.9260   30.0770 H   0  0  0  0  0  0  0  0  0  0  0  0
   35.1890   27.1690   30.8160 H   0  0  0  0  0  0  0  0  0  0  0  0
   38.7940   23.7660   34.7310 H   0  0  0  0  0  0  0  0  0  0  0  0
   37.0710   24.1770   35.0850 H   0  0  0  0  0  0  0  0  0  0  0  0
   37.8870   25.1650   36.9490 H   0  0  0  0  0  0  0  0  0  0  0  0
   39.5800   24.9810   36.4710 H   0  0  0  0  0  0  0  0  0  0  0  0
   38.8320   27.4420   36.6810 H   0  0  0  0  0  0  0  0  0  0  0  0
   37.6420   27.0840   35.3400 H   0  0  0  0  0  0  0  0  0  0  0  0
   40.6110   26.6400   35.0670 H   0  0  0  0  0  0  0  0  0  0  0  0
   39.7960   28.1160   34.5360 H   0  0  0  0  0  0  0  0  0  0  0  0
   40.0390   25.7650   33.0520 H   0  0  0  0  0  0  0  0  0  0  0  0
   38.7780   27.3060   32.3910 C   0  0  0  0  0  2  0  0  0  0  0  0
   38.2910   28.0740   31.8060 H   0  0  0  0  0  0  0  0  0  0  0  0
   39.1310   27.6630   31.2990 O   0  0  0  0  0  0  0  0  0  0  0  0
  1  6  1  0  0  0  0
  2  3  1  0  0  0  0
  2  1  2  0  0  0  0
  3  4  2  0  0  0  0
  4  5  1  0  0  0  0
  5  7  1  0  0  0  0
  6  5  2  0  0  0  0
  7  8  1  0  0  0  0
  8 17  1  0  0  0  0
  8  9  1  0  0  0  0
  9 19  1  0  0  0  0
  9 18  1  0  0  0  0
 10  9  1  0  0  0  0
 10 20  1  0  0  0  0
 11 22  1  0  0  0  0
 11 10  1  0  0  0  0
 12 24  1  6  0  0  0
 12  7  1  0  0  0  0
 12 11  1  0  0  0  0
 13  1  1  0  0  0  0
 14  2  1  0  0  0  0
 15  3  1  0  0  0  0
 16  8  1  0  0  0  0
 21 10  1  0  0  0  0
 23 11  1  0  0  0  0
 25 12  1  0  0  0  0
 27 26  1  0  0  0  0
 27 25  1  0  0  0  0
M  END
>  <minimizedAffinity>
-4.1420784

$$$$

 OpenBabel03262523233D

 27 28  0  0  1  0  0  0  0  0999 V2000
   35.9720   27.8290   31.7070 C   0  0  0  0  0  0  0  0  0  0  0  0
   35.5310   28.7960   32.6350 C   0  0  0  0  0  0  0  0  0  0  0  0
   35.9510   28.6660   33.9540 C   0  0  0  0  0  0  0  0  0  0  0  0
   36.7590   27.6210   34.2800 N   0  0  0  0  0  0  0  0  0  0  0  0
   37.1630   26.7110   33.3650 C   0  0  0  0  0  0  0  0  0  0  0  0
   36.7670   26.8220   32.0920 N   0  0  0  0  0  0  0  0  0  0  0  0
   38.0170   25.6240   33.7600 N   0  0  0  0  0  0  0  0  0  0  0  0
   37.7440   24.2760   33.2910 C   0  0  0  0  0  0  0  0  0  0  0  0
   38.0920   23.2030   34.2950 C   0  0  0  0  0  0  0  0  0  0  0  0
   38.2270   23.8460   35.6490 C   0  0  0  0  0  0  0  0  0  0  0  0
   39.4220   24.7620   35.6000 C   0  0  0  0  0  0  0  0  0  0  0  0
   39.1440   25.8700   34.6200 C   0  0  2  0  0  0  0  0  0  0  0  0
   35.6230   27.9650   30.6950 H   0  0  0  0  0  0  0  0  0  0  0  0
   34.8970   29.6370   32.4360 H   0  0  0  0  0  0  0  0  0  0  0  0
   35.7230   29.2980   34.7920 H   0  0  0  0  0  0  0  0  0  0  0  0
   38.4490   24.1140   32.4250 H   0  0  0  0  0  0  0  0  0  0  0  0
   36.7080   24.1800   32.9040 H   0  0  0  0  0  0  0  0  0  0  0  0
   37.2250   22.4840   34.3080 H   0  0  0  0  0  0  0  0  0  0  0  0
   38.9670   22.5950   34.0200 H   0  0  0  0  0  0  0  0  0  0  0  0
   38.2930   23.1030   36.4590 H   0  0  0  0  0  0  0  0  0  0  0  0
   37.3420   24.5150   35.7900 H   0  0  0  0  0  0  0  0  0  0  0  0
   40.2920   24.1390   35.3010 H   0  0  0  0  0  0  0  0  0  0  0  0
   39.6430   25.1380   36.6070 H   0  0  0  0  0  0  0  0  0  0  0  0
   40.0470   25.9620   33.9720 H   0  0  0  0  0  0  0  0  0  0  0  0
   38.9840   27.1810   35.3090 C   0  0  0  0  0  2  0  0  0  0  0  0
   38.9150   28.2330   35.5480 H   0  0  0  0  0  0  0  0  0  0  0  0
   38.7680   27.6210   36.4060 O   0  0  0  0  0  0  0  0  0  0  0  0
  1  6  2  0  0  0  0
  1  2  1  0  0  0  0
  2  3  2  0  0  0  0
  3  4  1  0  0  0  0
  3 15  1  0  0  0  0
  5  7  1  0  0  0  0
  5  4  2  0  0  0  0
  6  5  1  0  0  0  0
  7 12  1  0  0  0  0
  8  7  1  0  0  0  0
  8  9  1  0  0  0  0
  9 18  1  0  0  0  0
  9 10  1  0  0  0  0
 10 21  1  0  0  0  0
 10 20  1  0  0  0  0
 11 10  1  0  0  0  0
 11 23  1  0  0  0  0
 12 24  1  6  0  0  0
 12 25  1  0  0  0  0
 12 11  1  0  0  0  0
 13  1  1  0  0  0  0
 14  2  1  0  0  0  0
 16  8  1  0  0  0  0
 17  8  1  0  0  0  0
 19  9  1  0  0  0  0
 22 11  1  0  0  0  0
 25 27  1  0  0  0  0
 26 27  1  0  0  0  0
M  END
>  <minimizedAffinity>
-4.11696959

$$$$

 OpenBabel03262523233D

 27 28  0  0  1  0  0  0  0  0999 V2000
   38.1710   24.0420   38.0760 C   0  0  0  0  0  0  0  0  0  0  0  0
   39.1370   23.0360   37.8650 C   0  0  0  0  0  0  0  0  0  0  0  0
   39.8950   23.0990   36.7010 C   0  0  0  0  0  0  0  0  0  0  0  0
   39.6680   24.1200   35.8320 N   0  0  0  0  0  0  0  0  0  0  0  0
   38.7330   25.0690   36.0640 C   0  0  0  0  0  0  0  0  0  0  0  0
   37.9950   25.0220   37.1790 N   0  0  0  0  0  0  0  0  0  0  0  0
   38.5310   26.1290   35.1140 N   0  0  0  0  0  0  0  0  0  0  0  0
   37.1840   26.5220   34.7370 C   0  0  0  0  0  0  0  0  0  0  0  0
   37.0610   26.9630   33.2980 C   0  0  0  0  0  0  0  0  0  0  0  0
   38.2690   26.4730   32.5460 C   0  0  0  0  0  0  0  0  0  0  0  0
   39.4710   27.1990   33.0950 C   0  0  0  0  0  0  0  0  0  0  0  0
   39.6630   26.8000   34.5330 C   0  0  2  0  0  0  0  0  0  0  0  0
   37.6040   23.9570   38.9900 H   0  0  0  0  0  0  0  0  0  0  0  0
   39.3580   22.2110   38.5130 H   0  0  0  0  0  0  0  0  0  0  0  0
   40.6690   22.4310   36.3720 H   0  0  0  0  0  0  0  0  0  0  0  0
   36.9600   27.4430   35.3510 H   0  0  0  0  0  0  0  0  0  0  0  0
   36.4400   25.7460   35.0120 H   0  0  0  0  0  0  0  0  0  0  0  0
   36.1390   26.4630   32.8880 H   0  0  0  0  0  0  0  0  0  0  0  0
   36.8850   28.0420   33.1700 H   0  0  0  0  0  0  0  0  0  0  0  0
   38.1610   26.5920   31.4570 H   0  0  0  0  0  0  0  0  0  0  0  0
   38.4180   25.3990   32.8200 H   0  0  0  0  0  0  0  0  0  0  0  0
   39.2690   28.2860   32.9780 H   0  0  0  0  0  0  0  0  0  0  0  0
   40.3500   26.9790   32.4770 H   0  0  0  0  0  0  0  0  0  0  0  0
   39.8270   27.7410   35.1100 H   0  0  0  0  0  0  0  0  0  0  0  0
   40.8920   25.9780   34.7120 C   0  0  0  0  0  2  0  0  0  0  0  0
   41.6190   25.1780   34.7330 H   0  0  0  0  0  0  0  0  0  0  0  0
   42.0210   26.0890   35.1080 O   0  0  0  0  0  0  0  0  0  0  0  0
  1 13  1  0  0  0  0
  2  1  1  0  0  0  0
  2 14  1  0  0  0  0
  3  2  2  0  0  0  0
  4  5  2  0  0  0  0
  4  3  1  0  0  0  0
  5  6  1  0  0  0  0
  6  1  2  0  0  0  0
  7  5  1  0  0  0  0
  8 17  1  0  0  0  0
  8  7  1  0  0  0  0
  8 16  1  0  0  0  0
  9  8  1  0  0  0  0
 10 21  1  0  0  0  0
 10 11  1  0  0  0  0
 10  9  1  0  0  0  0
 11 12  1  0  0  0  0
 12 25  1  0  0  0  0
 12 24  1  1  0  0  0
 12  7  1  0  0  0  0
 15  3  1  0  0  0  0
 18  9  1  0  0  0  0
 19  9  1  0  0  0  0
 20 10  1  0  0  0  0
 22 11  1  0  0  0  0
 23 11  1  0  0  0  0
 25 27  1  0  0  0  0
 26 27  1  0  0  0  0
M  END
>  <minimizedAffinity>
-4.11563396

$$$$

 OpenBabel03262523233D

 27 28  0  0  1  0  0  0  0  0999 V2000
   38.8240   22.2400   34.9080 C   0  0  0  0  0  0  0  0  0  0  0  0
   40.0000   22.5950   35.6020 C   0  0  0  0  0  0  0  0  0  0  0  0
   40.2990   23.9480   35.7210 C   0  0  0  0  0  0  0  0  0  0  0  0
   39.4490   24.8530   35.1650 N   0  0  0  0  0  0  0  0  0  0  0  0
   38.3300   24.4790   34.5050 C   0  0  0  0  0  0  0  0  0  0  0  0
   38.0280   23.1810   34.3820 N   0  0  0  0  0  0  0  0  0  0  0  0
   37.4630   25.4750   33.9350 N   0  0  0  0  0  0  0  0  0  0  0  0
   36.9330   25.2970   32.5940 C   0  0  0  0  0  0  0  0  0  0  0  0
   36.7750   26.5890   31.8290 C   0  0  0  0  0  0  0  0  0  0  0  0
   37.6010   27.6480   32.5080 C   0  0  0  0  0  0  0  0  0  0  0  0
   36.9920   27.8990   33.8640 C   0  0  0  0  0  0  0  0  0  0  0  0
   37.1210   26.6490   34.6920 C   0  0  2  0  0  0  0  0  0  0  0  0
   38.6280   21.1810   34.8380 H   0  0  0  0  0  0  0  0  0  0  0  0
   40.7040   21.9270   36.0580 H   0  0  0  0  0  0  0  0  0  0  0  0
   41.1390   24.4050   36.2080 H   0  0  0  0  0  0  0  0  0  0  0  0
   35.8840   24.9060   32.7390 H   0  0  0  0  0  0  0  0  0  0  0  0
   37.5020   24.5310   32.0280 H   0  0  0  0  0  0  0  0  0  0  0  0
   37.1840   26.4020   30.7970 H   0  0  0  0  0  0  0  0  0  0  0  0
   35.7290   26.8960   31.6720 H   0  0  0  0  0  0  0  0  0  0  0  0
   37.6860   28.5640   31.9040 H   0  0  0  0  0  0  0  0  0  0  0  0
   38.6080   27.2050   32.7100 H   0  0  0  0  0  0  0  0  0  0  0  0
   35.9320   28.1870   33.6910 H   0  0  0  0  0  0  0  0  0  0  0  0
   37.4750   28.7650   34.3330 H   0  0  0  0  0  0  0  0  0  0  0  0
   36.1250   26.4680   35.1610 H   0  0  0  0  0  0  0  0  0  0  0  0
   38.0850   26.8340   35.8120 C   0  0  0  0  0  2  0  0  0  0  0  0
   38.6940   26.7110   36.6970 H   0  0  0  0  0  0  0  0  0  0  0  0
   38.8660   27.6490   36.2260 O   0  0  0  0  0  0  0  0  0  0  0  0
  1  2  1  0  0  0  0
  2  3  2  0  0  0  0
  2 14  1  0  0  0  0
  3 15  1  0  0  0  0
  4  3  1  0  0  0  0
  5  4  2  0  0  0  0
  6  5  1  0  0  0  0
  6  1  2  0  0  0  0
  7  5  1  0  0  0  0
  7 12  1  0  0  0  0
  8 16  1  0  0  0  0
  8  7  1  0  0  0  0
  9 10  1  0  0  0  0
  9  8  1  0  0  0  0
 10 21  1  0  0  0  0
 10 11  1  0  0  0  0
 11 23  1  0  0  0  0
 11 12  1  0  0  0  0
 12 24  1  1  0  0  0
 12 25  1  0  0  0  0
 13  1  1  0  0  0  0
 17  8  1  0  0  0  0
 18  9  1  0  0  0  0
 19  9  1  0  0  0  0
 20 10  1  0  0  0  0
 22 11  1  0  0  0  0
 25 27  1  0  0  0  0
 27 26  1  0  0  0  0
M  END
>  <minimizedAffinity>
-4.1139679

$$$$

 OpenBabel03262523233D

 27 28  0  0  1  0  0  0  0  0999 V2000
   37.6150   22.3920   35.9660 C   0  0  0  0  0  0  0  0  0  0  0  0
   37.3300   22.9200   37.2430 C   0  0  0  0  0  0  0  0  0  0  0  0
   37.8410   24.1760   37.5520 C   0  0  0  0  0  0  0  0  0  0  0  0
   38.5830   24.8260   36.6160 N   0  0  0  0  0  0  0  0  0  0  0  0
   38.8380   24.2890   35.4010 C   0  0  0  0  0  0  0  0  0  0  0  0
   38.3550   23.0820   35.0870 N   0  0  0  0  0  0  0  0  0  0  0  0
   39.6290   25.0170   34.4450 N   0  0  0  0  0  0  0  0  0  0  0  0
   40.6690   24.3350   33.6910 C   0  0  0  0  0  0  0  0  0  0  0  0
   41.8710   25.2010   33.3990 C   0  0  0  0  0  0  0  0  0  0  0  0
   41.8400   26.3860   34.3260 C   0  0  0  0  0  0  0  0  0  0  0  0
   40.6390   27.2190   33.9590 C   0  0  0  0  0  0  0  0  0  0  0  0
   39.3930   26.4200   34.2340 C   0  0  2  0  0  0  0  0  0  0  0  0
   37.2010   21.4160   35.7650 H   0  0  0  0  0  0  0  0  0  0  0  0
   36.7530   22.4550   38.0170 H   0  0  0  0  0  0  0  0  0  0  0  0
   37.7300   24.7350   38.4630 H   0  0  0  0  0  0  0  0  0  0  0  0
   40.2090   24.1130   32.6850 H   0  0  0  0  0  0  0  0  0  0  0  0
   40.9420   23.3660   34.1570 H   0  0  0  0  0  0  0  0  0  0  0  0
   42.7790   24.5740   33.6250 H   0  0  0  0  0  0  0  0  0  0  0  0
   41.9740   25.4860   32.3410 H   0  0  0  0  0  0  0  0  0  0  0  0
   42.7790   26.9600   34.3010 H   0  0  0  0  0  0  0  0  0  0  0  0
   41.6330   25.9990   35.3540 H   0  0  0  0  0  0  0  0  0  0  0  0
   40.7460   27.4810   32.8850 H   0  0  0  0  0  0  0  0  0  0  0  0
   40.6610   28.1660   34.5130 H   0  0  0  0  0  0  0  0  0  0  0  0
   38.7410   26.5190   33.3350 H   0  0  0  0  0  0  0  0  0  0  0  0
   38.6230   26.9860   35.3770 C   0  0  0  0  0  2  0  0  0  0  0  0
   37.8610   27.2280   36.1040 H   0  0  0  0  0  0  0  0  0  0  0  0
   38.7640   27.7610   36.2830 O   0  0  0  0  0  0  0  0  0  0  0  0
  1  2  1  0  0  0  0
  2  3  2  0  0  0  0
  2 14  1  0  0  0  0
  3 15  1  0  0  0  0
  4  3  1  0  0  0  0
  5  4  2  0  0  0  0
  6  5  1  0  0  0  0
  6  1  2  0  0  0  0
  7  5  1  0  0  0  0
  8 17  1  0  0  0  0
  8  7  1  0  0  0  0
  9 18  1  0  0  0  0
  9  8  1  0  0  0  0
  9 10  1  0  0  0  0
 10 21  1  0  0  0  0
 11 12  1  0  0  0  0
 11 10  1  0  0  0  0
 11 23  1  0  0  0  0
 12 24  1  6  0  0  0
 12  7  1  0  0  0  0
 12 25  1  0  0  0  0
 13  1  1  0  0  0  0
 16  8  1  0  0  0  0
 19  9  1  0  0  0  0
 20 10  1  0  0  0  0
 22 11  1  0  0  0  0
 25 27  1  0  0  0  0
 26 27  1  0  0  0  0
M  END
>  <minimizedAffinity>
-4.07370186

$$$$

 OpenBabel03262523233D

 27 28  0  0  1  0  0  0  0  0999 V2000
   38.3740   23.1700   32.0690 C   0  0  0  0  0  0  0  0  0  0  0  0
   37.2940   22.2660   32.1390 C   0  0  0  0  0  0  0  0  0  0  0  0
   37.0120   21.6880   33.3720 C   0  0  0  0  0  0  0  0  0  0  0  0
   37.7860   22.0210   34.4400 N   0  0  0  0  0  0  0  0  0  0  0  0
   38.8160   22.8920   34.3380 C   0  0  0  0  0  0  0  0  0  0  0  0
   39.1000   23.4560   33.1590 N   0  0  0  0  0  0  0  0  0  0  0  0
   39.6050   23.2120   35.4960 N   0  0  0  0  0  0  0  0  0  0  0  0
   41.0540   23.2620   35.3990 C   0  0  0  0  0  0  0  0  0  0  0  0
   41.7620   22.7990   36.6500 C   0  0  0  0  0  0  0  0  0  0  0  0
   40.7850   22.0210   37.4880 C   0  0  0  0  0  0  0  0  0  0  0  0
   39.7200   22.9810   37.9540 C   0  0  0  0  0  0  0  0  0  0  0  0
   38.9610   23.4810   36.7540 C   0  0  2  0  0  0  0  0  0  0  0  0
   38.5600   23.5960   31.0960 H   0  0  0  0  0  0  0  0  0  0  0  0
   36.6520   21.9670   31.3350 H   0  0  0  0  0  0  0  0  0  0  0  0
   36.2370   20.9850   33.6180 H   0  0  0  0  0  0  0  0  0  0  0  0
   41.3070   24.3580   35.3010 H   0  0  0  0  0  0  0  0  0  0  0  0
   41.4200   22.7490   34.4850 H   0  0  0  0  0  0  0  0  0  0  0  0
   42.5920   22.1150   36.3130 H   0  0  0  0  0  0  0  0  0  0  0  0
   42.2620   23.6040   37.2100 H   0  0  0  0  0  0  0  0  0  0  0  0
   41.2750   21.4940   38.3210 H   0  0  0  0  0  0  0  0  0  0  0  0
   40.2630   21.3010   36.8100 H   0  0  0  0  0  0  0  0  0  0  0  0
   40.2410   23.7980   38.4980 H   0  0  0  0  0  0  0  0  0  0  0  0
   39.0690   22.4870   38.6860 H   0  0  0  0  0  0  0  0  0  0  0  0
   38.8830   24.5890   36.8600 H   0  0  0  0  0  0  0  0  0  0  0  0
   37.5660   22.9610   36.7360 C   0  0  0  0  0  2  0  0  0  0  0  0
   36.5240   22.7720   36.5130 H   0  0  0  0  0  0  0  0  0  0  0  0
   36.8800   22.1530   37.3020 O   0  0  0  0  0  0  0  0  0  0  0  0
  1  2  2  0  0  0  0
  1  6  1  0  0  0  0
  2  3  1  0  0  0  0
  3 15  1  0  0  0  0
  3  4  2  0  0  0  0
  5  4  1  0  0  0  0
  5  7  1  0  0  0  0
  6  5  2  0  0  0  0
  7 12  1  0  0  0  0
  8  7  1  0  0  0  0
  8  9  1  0  0  0  0
  9 19  1  0  0  0  0
  9 10  1  0  0  0  0
 10 11  1  0  0  0  0
 10 20  1  0  0  0  0
 11 22  1  0  0  0  0
 11 23  1  0  0  0  0
 12 24  1  1  0  0  0
 12 11  1  0  0  0  0
 13  1  1  0  0  0  0
 14  2  1  0  0  0  0
 16  8  1  0  0  0  0
 17  8  1  0  0  0  0
 18  9  1  0  0  0  0
 21 10  1  0  0  0  0
 25 12  1  0  0  0  0
 25 27  1  0  0  0  0
 26 27  1  0  0  0  0
M  END
>  <minimizedAffinity>
-4.04338932

$$$$
