
 OpenBabel03272500433D

 27 28  0  0  1  0  0  0  0  0999 V2000
   38.8250   32.7730   48.1750 C   0  0  0  0  0  0  0  0  0  0  0  0
   39.4430   32.1930   47.0590 C   0  0  0  0  0  0  0  0  0  0  0  0
   38.8640   31.0560   46.5030 C   0  0  0  0  0  0  0  0  0  0  0  0
   37.7300   30.5800   47.0810 N   0  0  0  0  0  0  0  0  0  0  0  0
   37.1570   31.1600   48.1550 C   0  0  0  0  0  0  0  0  0  0  0  0
   37.6940   32.2580   48.7140 N   0  0  0  0  0  0  0  0  0  0  0  0
   35.9570   30.6100   48.7230 N   0  0  0  0  0  0  0  0  0  0  0  0
   35.8340   30.4350   50.1580 C   0  0  1  0  0  0  0  0  0  0  0  0
   34.9910   29.2510   50.5390 C   0  0  0  0  0  0  0  0  0  0  0  0
   34.9240   28.3090   49.3750 C   0  0  0  0  0  0  0  0  0  0  0  0
   34.1400   28.9930   48.2910 C   0  0  0  0  0  0  0  0  0  0  0  0
   34.8590   30.2290   47.8490 C   0  0  0  0  0  0  0  0  0  0  0  0
   39.3190   33.6520   48.5640 H   0  0  0  0  0  0  0  0  0  0  0  0
   40.3460   32.6150   46.6400 H   0  0  0  0  0  0  0  0  0  0  0  0
   39.3050   30.5810   45.6480 H   0  0  0  0  0  0  0  0  0  0  0  0
   35.2990   31.3410   50.5240 H   0  0  0  0  0  0  0  0  0  0  0  0
   35.5230   28.7030   51.3630 H   0  0  0  0  0  0  0  0  0  0  0  0
   33.9530   29.5140   50.8350 H   0  0  0  0  0  0  0  0  0  0  0  0
   34.3610   27.3860   49.6420 H   0  0  0  0  0  0  0  0  0  0  0  0
   35.9240   28.0580   48.9810 H   0  0  0  0  0  0  0  0  0  0  0  0
   34.0960   28.2940   47.4220 H   0  0  0  0  0  0  0  0  0  0  0  0
   33.0920   29.1660   48.5950 H   0  0  0  0  0  0  0  0  0  0  0  0
   35.1990   30.1840   46.7960 H   0  0  0  0  0  0  0  0  0  0  0  0
   34.1360   31.0700   47.9070 H   0  0  0  0  0  0  0  0  0  0  0  0
   37.1480   30.4200   50.8380 C   0  0  0  0  0  0  0  0  0  0  0  0
   38.0570   30.7510   50.3560 H   0  0  0  0  0  0  0  0  0  0  0  0
   37.5360   30.0950   51.9320 O   0  0  0  0  0  0  0  0  0  0  0  0
  1 13  1  0  0  0  0
  1  6  1  0  0  0  0
  2  1  2  0  0  0  0
  3  2  1  0  0  0  0
  3  4  2  0  0  0  0
  4  5  1  0  0  0  0
  5  6  2  0  0  0  0
  5  7  1  0  0  0  0
  7  8  1  0  0  0  0
  8 16  1  1  0  0  0
  8  9  1  0  0  0  0
  8 25  1  0  0  0  0
  9 18  1  0  0  0  0
  9 17  1  0  0  0  0
 10 19  1  0  0  0  0
 10  9  1  0  0  0  0
 11 22  1  0  0  0  0
 11 10  1  0  0  0  0
 12 24  1  0  0  0  0
 12 11  1  0  0  0  0
 12  7  1  0  0  0  0
 14  2  1  0  0  0  0
 15  3  1  0  0  0  0
 20 10  1  0  0  0  0
 21 11  1  0  0  0  0
 23 12  1  0  0  0  0
 25 27  2  0  0  0  0
 26 25  1  0  0  0  0
M  END
>  <minimizedAffinity>
-5.3089819

>  <minimizedRMSD>
0.175398976

$$$$
