
 OpenBabel03272509493D

 27 28  0  0  0  0  0  0  0  0999 V2000
   33.8590   28.6440   48.7980 C   0  0  0  0  0  0  0  0  0  0  0  0
   33.2910   29.4100   49.3600 H   0  0  0  0  0  0  0  0  0  0  0  0
   34.3350   29.1830   47.9340 H   0  0  0  0  0  0  0  0  0  0  0  0
   33.0170   27.5110   48.2940 C   0  0  0  0  0  0  0  0  0  0  0  0
   33.3720   27.1410   47.2910 H   0  0  0  0  0  0  0  0  0  0  0  0
   33.0880   26.6280   48.9640 H   0  0  0  0  0  0  0  0  0  0  0  0
   31.5800   27.8910   48.1450 C   0  0  0  0  0  0  0  0  0  0  0  0
   30.7580   27.6340   49.2130 C   0  0  0  0  0  0  0  0  0  0  0  0
   29.4140   27.9410   49.1940 C   0  0  0  0  0  0  0  0  0  0  0  0
   28.9020   28.5080   48.0870 N   0  0  0  0  0  0  0  0  0  0  0  0
   29.7160   28.7570   47.0400 C   0  0  0  0  0  0  0  0  0  0  0  0
   31.0290   28.4600   47.0570 N   0  0  0  0  0  0  0  0  0  0  0  0
   31.1130   27.1770   50.1360 H   0  0  0  0  0  0  0  0  0  0  0  0
   28.7500   27.7460   50.0250 H   0  0  0  0  0  0  0  0  0  0  0  0
   29.2670   29.2160   46.1660 H   0  0  0  0  0  0  0  0  0  0  0  0
   34.9290   28.1620   49.5990 O   0  0  0  0  0  0  0  0  0  0  0  0
   37.2830   30.2350   51.4080 C   0  0  0  0  0  0  0  0  0  0  0  0
   37.9640   30.8140   50.3170 C   0  0  0  0  0  0  0  0  0  0  0  0
   37.5770   30.4620   49.0370 C   0  0  0  0  0  0  0  0  0  0  0  0
   36.5490   29.5650   48.9420 N   0  0  0  0  0  0  0  0  0  0  0  0
   35.9190   29.0290   49.9800 C   0  0  0  0  0  0  0  0  0  0  0  0
   36.2950   29.3720   51.2210 N   0  0  0  0  0  0  0  0  0  0  0  0
   37.5900   30.5150   52.4190 H   0  0  0  0  0  0  0  0  0  0  0  0
   38.7620   31.5110   50.4240 H   0  0  0  0  0  0  0  0  0  0  0  0
   38.2330   31.0190   47.8430 C   0  0  0  0  0  0  0  0  0  0  0  0
   38.9060   31.8500   48.0100 H   0  0  0  0  0  0  0  0  0  0  0  0
   37.9590   30.4830   46.7380 O   0  0  0  0  0  0  0  0  0  0  0  0
  1  2  1  0  0  0  0
  1 16  1  0  0  0  0
  3  1  1  0  0  0  0
  4  1  1  0  0  0  0
  4  6  1  0  0  0  0
  5  4  1  0  0  0  0
  7  4  1  0  0  0  0
  7  8  1  0  0  0  0
  8 13  1  0  0  0  0
  9  8  2  0  0  0  0
  9 14  1  0  0  0  0
 10  9  1  0  0  0  0
 11 12  1  0  0  0  0
 11 10  2  0  0  0  0
 12  7  2  0  0  0  0
 15 11  1  0  0  0  0
 16 21  1  0  0  0  0
 17 23  1  0  0  0  0
 18 24  1  0  0  0  0
 18 17  2  0  0  0  0
 19 18  1  0  0  0  0
 20 19  2  0  0  0  0
 20 21  1  0  0  0  0
 21 22  2  0  0  0  0
 22 17  1  0  0  0  0
 25 26  1  0  0  0  0
 25 19  1  0  0  0  0
 27 25  2  0  0  0  0
M  END
>  <minimizedAffinity>
-4.62408829

>  <minimizedRMSD>
0.366604894

$$$$
