
 OpenBabel03272504353D

 37 39  0  0  0  0  0  0  0  0999 V2000
   33.4610   28.2600   47.5880 C   0  0  0  0  0  0  0  0  0  0  0  0
   33.5710   27.8320   46.2720 C   0  0  0  0  0  0  0  0  0  0  0  0
   32.4410   27.4330   45.5750 C   0  0  0  0  0  0  0  0  0  0  0  0
   31.2500   27.4840   46.2370 N   0  0  0  0  0  0  0  0  0  0  0  0
   31.1660   27.9060   47.5250 C   0  0  0  0  0  0  0  0  0  0  0  0
   32.2640   28.2960   48.2110 N   0  0  0  0  0  0  0  0  0  0  0  0
   34.5300   27.8180   45.8190 H   0  0  0  0  0  0  0  0  0  0  0  0
   32.4870   27.0980   44.5600 H   0  0  0  0  0  0  0  0  0  0  0  0
   34.5890   28.6800   48.3480 N   0  0  0  0  0  0  0  0  0  0  0  0
   34.8350   28.2070   49.7050 C   0  0  0  0  0  0  0  0  0  0  0  0
   35.2540   29.2690   50.6670 C   0  0  0  0  0  0  0  0  0  0  0  0
   35.9760   30.3570   50.1560 N   0  0  0  0  0  0  0  0  0  0  0  0
   35.4880   30.7990   48.8580 C   0  0  0  0  0  0  0  0  0  0  0  0
   35.6140   29.5740   47.9540 C   0  0  0  0  0  0  0  0  0  0  0  0
   33.8960   27.6940   50.0370 H   0  0  0  0  0  0  0  0  0  0  0  0
   35.6150   27.4180   49.6320 H   0  0  0  0  0  0  0  0  0  0  0  0
   35.8000   28.7910   51.5020 H   0  0  0  0  0  0  0  0  0  0  0  0
   34.3050   29.6610   51.1370 H   0  0  0  0  0  0  0  0  0  0  0  0
   36.9820   30.1080   50.0300 H   0  0  0  0  0  0  0  0  0  0  0  0
   34.4210   31.0870   49.0130 H   0  0  0  0  0  0  0  0  0  0  0  0
   36.1090   31.6420   48.5210 H   0  0  0  0  0  0  0  0  0  0  0  0
   36.6370   29.2070   48.0890 H   0  0  0  0  0  0  0  0  0  0  0  0
   35.4680   29.9300   46.9170 H   0  0  0  0  0  0  0  0  0  0  0  0
   29.8640   27.9410   48.1910 C   0  0  0  0  0  0  0  0  0  0  0  0
   29.7340   27.4840   49.4840 C   0  0  0  0  0  0  0  0  0  0  0  0
   28.5260   27.5010   50.1420 C   0  0  0  0  0  0  0  0  0  0  0  0
   27.4620   28.0010   49.4370 N   0  0  0  0  0  0  0  0  0  0  0  0
   27.6110   28.4380   48.1850 C   0  0  0  0  0  0  0  0  0  0  0  0
   28.8040   28.4290   47.5140 N   0  0  0  0  0  0  0  0  0  0  0  0
   30.6030   27.1040   49.9890 H   0  0  0  0  0  0  0  0  0  0  0  0
   26.4330   28.9680   47.4650 C   0  0  0  0  0  0  0  0  0  0  0  0
   26.5770   30.3100   47.1710 F   0  0  0  0  0  0  0  0  0  0  0  0
   25.3070   28.8160   48.2970 F   0  0  0  0  0  0  0  0  0  0  0  0
   26.1790   28.2070   46.3530 F   0  0  0  0  0  0  0  0  0  0  0  0
   28.3590   27.0300   51.4960 C   0  0  0  0  0  0  0  0  0  0  0  0
   29.2200   26.9500   52.1350 H   0  0  0  0  0  0  0  0  0  0  0  0
   27.2460   26.7110   51.9490 O   0  0  0  0  0  0  0  0  0  0  0  0
  1  6  1  0  0  0  0
  1  9  1  0  0  0  0
  2  1  2  0  0  0  0
  3  4  2  0  0  0  0
  3  2  1  0  0  0  0
  4  5  1  0  0  0  0
  5 24  1  0  0  0  0
  5  6  2  0  0  0  0
  7  2  1  0  0  0  0
  8  3  1  0  0  0  0
  9 10  1  0  0  0  0
 10 15  1  0  0  0  0
 10 11  1  0  0  0  0
 11 18  1  0  0  0  0
 11 17  1  0  0  0  0
 12 11  1  0  0  0  0
 13 20  1  0  0  0  0
 13 12  1  0  0  0  0
 14 22  1  0  0  0  0
 14  9  1  0  0  0  0
 14 13  1  0  0  0  0
 16 10  1  0  0  0  0
 19 12  1  0  0  0  0
 21 13  1  0  0  0  0
 23 14  1  0  0  0  0
 24 25  1  0  0  0  0
 25 30  1  0  0  0  0
 25 26  2  0  0  0  0
 26 35  1  0  0  0  0
 27 26  1  0  0  0  0
 28 27  2  0  0  0  0
 29 28  1  0  0  0  0
 29 24  2  0  0  0  0
 31 28  1  0  0  0  0
 31 33  1  0  0  0  0
 32 31  1  0  0  0  0
 34 31  1  0  0  0  0
 35 37  2  0  0  0  0
 35 36  1  0  0  0  0
M  END
>  <minimizedAffinity>
-5.57515717

>  <minimizedRMSD>
2.12207055

$$$$
