
 OpenBabel03272509493D

 27 28  0  0  0  0  0  0  0  0999 V2000
   33.7170   28.5930   48.7050 C   0  0  0  0  0  0  0  0  0  0  0  0
   33.1880   29.5200   48.9970 H   0  0  0  0  0  0  0  0  0  0  0  0
   34.3550   28.8640   47.8200 H   0  0  0  0  0  0  0  0  0  0  0  0
   32.8050   27.4580   48.3500 C   0  0  0  0  0  0  0  0  0  0  0  0
   33.0350   27.0400   47.3300 H   0  0  0  0  0  0  0  0  0  0  0  0
   32.9390   26.6000   49.0450 H   0  0  0  0  0  0  0  0  0  0  0  0
   31.3660   27.8600   48.3530 C   0  0  0  0  0  0  0  0  0  0  0  0
   30.6900   27.7320   49.5400 C   0  0  0  0  0  0  0  0  0  0  0  0
   29.3600   28.0730   49.6650 C   0  0  0  0  0  0  0  0  0  0  0  0
   28.7140   28.5420   48.5830 N   0  0  0  0  0  0  0  0  0  0  0  0
   29.3850   28.6650   47.4190 C   0  0  0  0  0  0  0  0  0  0  0  0
   30.6840   28.3350   47.2940 N   0  0  0  0  0  0  0  0  0  0  0  0
   31.1580   27.3580   50.4490 H   0  0  0  0  0  0  0  0  0  0  0  0
   28.8090   27.9790   50.5910 H   0  0  0  0  0  0  0  0  0  0  0  0
   28.8310   29.0490   46.5690 H   0  0  0  0  0  0  0  0  0  0  0  0
   34.6180   28.2140   49.7370 O   0  0  0  0  0  0  0  0  0  0  0  0
   37.2400   30.1830   51.2730 C   0  0  0  0  0  0  0  0  0  0  0  0
   37.9010   30.6310   50.1110 C   0  0  0  0  0  0  0  0  0  0  0  0
   37.4110   30.2340   48.8800 C   0  0  0  0  0  0  0  0  0  0  0  0
   36.3070   29.4260   48.9000 N   0  0  0  0  0  0  0  0  0  0  0  0
   35.6970   29.0130   50.0050 C   0  0  0  0  0  0  0  0  0  0  0  0
   36.1740   29.3990   51.1980 N   0  0  0  0  0  0  0  0  0  0  0  0
   37.6280   30.4980   52.2450 H   0  0  0  0  0  0  0  0  0  0  0  0
   38.7590   31.2610   50.1280 H   0  0  0  0  0  0  0  0  0  0  0  0
   38.0400   30.6560   47.6180 C   0  0  0  0  0  0  0  0  0  0  0  0
   39.1200   30.6000   47.5790 H   0  0  0  0  0  0  0  0  0  0  0  0
   37.2740   31.0420   46.6990 O   0  0  0  0  0  0  0  0  0  0  0  0
  1  2  1  0  0  0  0
  1 16  1  0  0  0  0
  3  1  1  0  0  0  0
  4  7  1  0  0  0  0
  4  1  1  0  0  0  0
  4  6  1  0  0  0  0
  5  4  1  0  0  0  0
  7  8  1  0  0  0  0
  8  9  2  0  0  0  0
  8 13  1  0  0  0  0
  9 14  1  0  0  0  0
 10  9  1  0  0  0  0
 11 10  2  0  0  0  0
 12 11  1  0  0  0  0
 12  7  2  0  0  0  0
 15 11  1  0  0  0  0
 16 21  1  0  0  0  0
 17 23  1  0  0  0  0
 18 24  1  0  0  0  0
 18 17  2  0  0  0  0
 19 20  2  0  0  0  0
 19 18  1  0  0  0  0
 20 21  1  0  0  0  0
 21 22  2  0  0  0  0
 22 17  1  0  0  0  0
 25 19  1  0  0  0  0
 26 25  1  0  0  0  0
 27 25  2  0  0  0  0
M  END
>  <minimizedAffinity>
-4.67728567

>  <minimizedRMSD>
0.143648058

$$$$
