
 OpenBabel03262523403D

 26 27  0  0  1  0  0  0  0  0999 V2000
   37.1860   30.2430   50.7260 C   0  0  0  0  0  0  0  0  0  0  0  0
   38.0350   30.7430   49.7360 C   0  0  0  0  0  0  0  0  0  0  0  0
   37.5460   30.9610   48.4470 C   0  0  0  0  0  0  0  0  0  0  0  0
   36.2420   30.6680   48.2230 N   0  0  0  0  0  0  0  0  0  0  0  0
   35.4220   30.1850   49.1780 C   0  0  0  0  0  0  0  0  0  0  0  0
   35.8900   29.9720   50.4300 N   0  0  0  0  0  0  0  0  0  0  0  0
   38.4040   31.4710   47.4310 N   0  0  0  0  0  0  0  0  0  0  0  0
   38.8680   30.5100   46.4600 C   0  0  0  0  0  0  0  0  0  0  0  0
   39.6250   31.1010   45.3260 C   0  0  0  0  0  0  0  0  0  0  0  0
   39.8080   32.4760   45.2850 N   0  0  0  0  0  0  0  0  0  0  0  0
   39.8470   33.2120   46.4810 C   0  0  0  0  0  0  0  0  0  0  0  0
   38.7380   32.8600   47.4430 C   0  0  2  0  0  0  0  0  0  0  0  0
   37.6070   30.0890   51.7110 H   0  0  0  0  0  0  0  0  0  0  0  0
   39.0620   30.9490   50.0050 H   0  0  0  0  0  0  0  0  0  0  0  0
   34.3730   29.9550   48.9770 H   0  0  0  0  0  0  0  0  0  0  0  0
   39.5340   29.8060   47.0410 H   0  0  0  0  0  0  0  0  0  0  0  0
   38.0020   29.8780   46.1690 H   0  0  0  0  0  0  0  0  0  0  0  0
   39.0700   30.7840   44.3930 H   0  0  0  0  0  0  0  0  0  0  0  0
   40.6120   30.5950   45.2110 H   0  0  0  0  0  0  0  0  0  0  0  0
   39.1660   32.9430   44.6000 H   0  0  0  0  0  0  0  0  0  0  0  0
   39.8030   34.2930   46.2600 H   0  0  0  0  0  0  0  0  0  0  0  0
   40.8230   33.0110   46.9880 H   0  0  0  0  0  0  0  0  0  0  0  0
   37.8420   33.4180   47.0810 H   0  0  0  0  0  0  0  0  0  0  0  0
   39.0840   33.3740   48.7890 C   0  0  0  0  0  0  0  0  0  0  0  0
   38.8920   32.6540   49.5960 H   0  0  0  0  0  0  0  0  0  0  0  0
   39.4010   33.9040   49.8410 O   0  0  0  0  0  0  0  0  0  0  0  0
  1 13  1  0  0  0  0
  2 14  1  0  0  0  0
  2  1  2  0  0  0  0
  3  2  1  0  0  0  0
  4  3  2  0  0  0  0
  4  5  1  0  0  0  0
  5  6  2  0  0  0  0
  6  1  1  0  0  0  0
  7 12  1  0  0  0  0
  7  3  1  0  0  0  0
  8 16  1  0  0  0  0
  8  7  1  0  0  0  0
  9  8  1  0  0  0  0
 10  9  1  0  0  0  0
 10 11  1  0  0  0  0
 11 22  1  0  0  0  0
 11 12  1  0  0  0  0
 12 23  1  6  0  0  0
 12 24  1  0  0  0  0
 15  5  1  0  0  0  0
 17  8  1  0  0  0  0
 18  9  1  0  0  0  0
 19  9  1  0  0  0  0
 20 10  1  0  0  0  0
 21 11  1  0  0  0  0
 24 25  1  0  0  0  0
 24 26  2  0  0  0  0
M  END
>  <minimizedAffinity>
-4.50787783

>  <minimizedRMSD>
1.54767907

$$$$
