
 OpenBabel03272509493D

 27 28  0  0  0  0  0  0  0  0999 V2000
   33.7030   28.5790   48.6760 C   0  0  0  0  0  0  0  0  0  0  0  0
   33.1830   29.5250   48.9180 H   0  0  0  0  0  0  0  0  0  0  0  0
   34.3660   28.8040   47.7970 H   0  0  0  0  0  0  0  0  0  0  0  0
   32.7810   27.4440   48.3450 C   0  0  0  0  0  0  0  0  0  0  0  0
   33.0000   27.0100   47.3290 H   0  0  0  0  0  0  0  0  0  0  0  0
   32.9160   26.5960   49.0510 H   0  0  0  0  0  0  0  0  0  0  0  0
   31.3450   27.8560   48.3540 C   0  0  0  0  0  0  0  0  0  0  0  0
   30.6740   27.7340   49.5440 C   0  0  0  0  0  0  0  0  0  0  0  0
   29.3460   28.0830   49.6750 C   0  0  0  0  0  0  0  0  0  0  0  0
   28.6980   28.5550   48.5950 N   0  0  0  0  0  0  0  0  0  0  0  0
   29.3640   28.6710   47.4280 C   0  0  0  0  0  0  0  0  0  0  0  0
   30.6610   28.3330   47.2970 N   0  0  0  0  0  0  0  0  0  0  0  0
   31.1440   27.3590   50.4530 H   0  0  0  0  0  0  0  0  0  0  0  0
   28.7990   27.9940   50.6050 H   0  0  0  0  0  0  0  0  0  0  0  0
   28.8090   29.0560   46.5810 H   0  0  0  0  0  0  0  0  0  0  0  0
   34.5740   28.2280   49.7440 O   0  0  0  0  0  0  0  0  0  0  0  0
   37.1580   30.1560   51.3920 C   0  0  0  0  0  0  0  0  0  0  0  0
   37.6850   30.8350   50.2750 C   0  0  0  0  0  0  0  0  0  0  0  0
   37.1260   30.5930   49.0330 C   0  0  0  0  0  0  0  0  0  0  0  0
   36.0920   29.6990   48.9990 N   0  0  0  0  0  0  0  0  0  0  0  0
   35.6080   29.0670   50.0620 C   0  0  0  0  0  0  0  0  0  0  0  0
   36.1510   29.3030   51.2650 N   0  0  0  0  0  0  0  0  0  0  0  0
   37.6010   30.3480   52.3730 H   0  0  0  0  0  0  0  0  0  0  0  0
   38.4920   31.5270   50.3330 H   0  0  0  0  0  0  0  0  0  0  0  0
   37.6140   31.2600   47.8150 C   0  0  0  0  0  0  0  0  0  0  0  0
   37.1720   32.2190   47.5840 H   0  0  0  0  0  0  0  0  0  0  0  0
   38.5000   30.6600   47.1530 O   0  0  0  0  0  0  0  0  0  0  0  0
  1  2  1  0  0  0  0
  1 16  1  0  0  0  0
  3  1  1  0  0  0  0
  4  7  1  0  0  0  0
  4  1  1  0  0  0  0
  4  6  1  0  0  0  0
  5  4  1  0  0  0  0
  7  8  1  0  0  0  0
  8  9  2  0  0  0  0
  8 13  1  0  0  0  0
  9 14  1  0  0  0  0
 10  9  1  0  0  0  0
 11 10  2  0  0  0  0
 12 11  1  0  0  0  0
 12  7  2  0  0  0  0
 15 11  1  0  0  0  0
 16 21  1  0  0  0  0
 17 23  1  0  0  0  0
 18 24  1  0  0  0  0
 18 17  2  0  0  0  0
 19 18  1  0  0  0  0
 20 19  2  0  0  0  0
 20 21  1  0  0  0  0
 21 22  2  0  0  0  0
 22 17  1  0  0  0  0
 25 19  1  0  0  0  0
 26 25  1  0  0  0  0
 27 25  2  0  0  0  0
M  END
>  <minimizedAffinity>
-4.56342506

>  <minimizedRMSD>
0.337123662

$$$$
