
 OpenBabel03262523223D

 27 28  0  0  1  0  0  0  0  0999 V2000
   38.8610   32.7140   48.1020 C   0  0  0  0  0  0  0  0  0  0  0  0
   39.4070   32.1490   46.9290 C   0  0  0  0  0  0  0  0  0  0  0  0
   38.7600   31.0480   46.3790 C   0  0  0  0  0  0  0  0  0  0  0  0
   37.6440   30.5730   46.9950 N   0  0  0  0  0  0  0  0  0  0  0  0
   37.1480   31.1380   48.1190 C   0  0  0  0  0  0  0  0  0  0  0  0
   37.7580   32.1980   48.6610 N   0  0  0  0  0  0  0  0  0  0  0  0
   35.9640   30.5990   48.7330 N   0  0  0  0  0  0  0  0  0  0  0  0
   35.9090   30.4190   50.1740 C   0  0  0  0  0  0  0  0  0  0  0  0
   35.1090   29.2120   50.6030 C   0  0  0  0  0  0  0  0  0  0  0  0
   34.9500   28.3010   49.4160 C   0  0  0  0  0  0  0  0  0  0  0  0
   34.0940   29.0180   48.4040 C   0  0  0  0  0  0  0  0  0  0  0  0
   34.8340   30.2370   47.9210 C   0  0  2  0  0  0  0  0  0  0  0  0
   39.3920   33.5660   48.4970 H   0  0  0  0  0  0  0  0  0  0  0  0
   40.2800   32.4800   46.4030 H   0  0  0  0  0  0  0  0  0  0  0  0
   39.0240   30.4900   45.5000 H   0  0  0  0  0  0  0  0  0  0  0  0
   35.3350   31.3100   50.5630 H   0  0  0  0  0  0  0  0  0  0  0  0
   36.9210   30.4460   50.6280 H   0  0  0  0  0  0  0  0  0  0  0  0
   35.7180   28.6900   51.3950 H   0  0  0  0  0  0  0  0  0  0  0  0
   34.1520   29.4550   51.0900 H   0  0  0  0  0  0  0  0  0  0  0  0
   34.5430   27.3170   49.6960 H   0  0  0  0  0  0  0  0  0  0  0  0
   35.9550   28.1980   48.9380 H   0  0  0  0  0  0  0  0  0  0  0  0
   33.1410   29.2750   48.9150 H   0  0  0  0  0  0  0  0  0  0  0  0
   33.8320   28.3340   47.5880 H   0  0  0  0  0  0  0  0  0  0  0  0
   34.1120   31.0870   47.9520 H   0  0  0  0  0  0  0  0  0  0  0  0
   35.2510   30.0920   46.4990 C   0  0  0  0  0  0  0  0  0  0  0  0
   35.7200   29.7840   45.5740 H   0  0  0  0  0  0  0  0  0  0  0  0
   35.0230   30.5730   45.4210 O   0  0  0  0  0  0  0  0  0  0  0  0
  1 13  1  0  0  0  0
  1  6  1  0  0  0  0
  2  1  2  0  0  0  0
  3  2  1  0  0  0  0
  3  4  2  0  0  0  0
  4  5  1  0  0  0  0
  5  6  2  0  0  0  0
  5  7  1  0  0  0  0
  7  8  1  0  0  0  0
  8 16  1  0  0  0  0
  8  9  1  0  0  0  0
  8 17  1  0  0  0  0
  9 19  1  0  0  0  0
  9 18  1  0  0  0  0
 10 20  1  0  0  0  0
 10  9  1  0  0  0  0
 11 22  1  0  0  0  0
 11 10  1  0  0  0  0
 12 24  1  1  0  0  0
 12 11  1  0  0  0  0
 12  7  1  0  0  0  0
 14  2  1  0  0  0  0
 15  3  1  0  0  0  0
 21 10  1  0  0  0  0
 23 11  1  0  0  0  0
 25 12  1  0  0  0  0
 27 26  1  0  0  0  0
 27 25  1  0  0  0  0
M  END
>  <minimizedAffinity>
-4.95132589

>  <minimizedRMSD>
0.160841003

$$$$
