
 OpenBabel03272500323D

 38 40  0  0  1  0  0  0  0  0999 V2000
   36.6670   30.3810   46.4310 Cl  0  0  0  0  0  0  0  0  0  0  0  0
   37.2160   31.3290   47.7900 C   0  0  0  0  0  0  0  0  0  0  0  0
   38.3560   32.0450   47.5460 C   0  0  0  0  0  0  0  0  0  0  0  0
   38.8260   32.8730   48.5580 C   0  0  0  0  0  0  0  0  0  0  0  0
   38.1130   32.9220   49.7450 C   0  0  0  0  0  0  0  0  0  0  0  0
   36.9680   32.1610   49.9000 C   0  0  0  0  0  0  0  0  0  0  0  0
   36.4750   31.3370   48.9340 C   0  0  0  0  0  0  0  0  0  0  0  0
   39.7230   33.4610   48.4230 H   0  0  0  0  0  0  0  0  0  0  0  0
   38.4800   33.5680   50.5340 H   0  0  0  0  0  0  0  0  0  0  0  0
   36.4530   32.2460   50.8600 H   0  0  0  0  0  0  0  0  0  0  0  0
   35.2850   30.4680   49.1150 C   0  0  1  0  0  0  0  0  0  0  0  0
   34.5980   30.2550   47.8550 C   0  0  0  0  0  0  0  0  0  0  0  0
   33.4580   29.3090   48.2630 C   0  0  0  0  0  0  0  0  0  0  0  0
   34.1720   27.9580   48.3790 C   0  0  0  0  0  0  0  0  0  0  0  0
   35.2680   27.9600   49.3510 C   0  0  0  0  0  0  0  0  0  0  0  0
   35.6180   29.2550   49.9570 C   0  0  1  0  0  0  0  0  0  0  0  0
   34.6570   31.0620   49.8360 H   0  0  0  0  0  0  0  0  0  0  0  0
   34.1070   31.1780   47.4770 H   0  0  0  0  0  0  0  0  0  0  0  0
   34.8780   29.5520   47.0910 H   0  0  0  0  0  0  0  0  0  0  0  0
   32.6980   29.2700   47.4800 H   0  0  0  0  0  0  0  0  0  0  0  0
   33.0500   29.6000   49.2560 H   0  0  0  0  0  0  0  0  0  0  0  0
   34.5490   27.7830   47.3280 H   0  0  0  0  0  0  0  0  0  0  0  0
   33.3790   27.2280   48.5090 H   0  0  0  0  0  0  0  0  0  0  0  0
   36.2030   27.5770   48.8430 H   0  0  0  0  0  0  0  0  0  0  0  0
   35.0850   27.1870   50.1400 H   0  0  0  0  0  0  0  0  0  0  0  0
   35.1140   29.2910   50.9410 H   0  0  0  0  0  0  0  0  0  0  0  0
   37.0740   29.3200   50.2880 C   0  0  0  0  0  0  0  0  0  0  0  0
   38.0550   29.5420   49.9060 H   0  0  0  0  0  0  0  0  0  0  0  0
   37.5270   29.0430   51.3910 O   0  0  0  0  0  0  0  0  0  0  0  0
   39.1600   32.6960   44.0380 C   0  0  0  0  0  0  0  0  0  0  0  0
   40.2610   31.8900   43.7700 C   0  0  0  0  0  0  0  0  0  0  0  0
   40.7300   31.1190   44.8270 C   0  0  0  0  0  0  0  0  0  0  0  0
   40.1050   31.1870   46.0450 N   0  0  0  0  0  0  0  0  0  0  0  0
   39.0460   31.9840   46.2420 C   0  0  0  0  0  0  0  0  0  0  0  0
   38.5630   32.7490   45.2350 N   0  0  0  0  0  0  0  0  0  0  0  0
   38.7590   33.3150   43.2460 H   0  0  0  0  0  0  0  0  0  0  0  0
   40.6950   31.8940   42.7800 H   0  0  0  0  0  0  0  0  0  0  0  0
   41.5790   30.4850   44.6550 H   0  0  0  0  0  0  0  0  0  0  0  0
  1  2  1  0  0  0  0
  2  7  1  0  0  0  0
  3  2  2  0  0  0  0
  3  4  1  0  0  0  0
  4  5  2  0  0  0  0
  5  6  1  0  0  0  0
  5  9  1  0  0  0  0
  6 10  1  0  0  0  0
  7 11  1  0  0  0  0
  7  6  2  0  0  0  0
  8  4  1  0  0  0  0
 11 17  1  1  0  0  0
 11 16  1  0  0  0  0
 12 13  1  0  0  0  0
 12 11  1  0  0  0  0
 13 14  1  0  0  0  0
 13 21  1  0  0  0  0
 14 23  1  0  0  0  0
 14 15  1  0  0  0  0
 15 16  1  0  0  0  0
 15 25  1  0  0  0  0
 16 27  1  0  0  0  0
 16 26  1  1  0  0  0
 18 12  1  0  0  0  0
 19 12  1  0  0  0  0
 20 13  1  0  0  0  0
 22 14  1  0  0  0  0
 24 15  1  0  0  0  0
 27 29  2  0  0  0  0
 28 27  1  0  0  0  0
 30 35  1  0  0  0  0
 31 30  2  0  0  0  0
 31 32  1  0  0  0  0
 32 33  2  0  0  0  0
 33 34  1  0  0  0  0
 34  3  1  0  0  0  0
 35 34  2  0  0  0  0
 36 30  1  0  0  0  0
 37 31  1  0  0  0  0
 38 32  1  0  0  0  0
M  END
>  <minimizedAffinity>
-6.7361269

>  <minimizedRMSD>
1.66698384

$$$$
