
 OpenBabel03272500493D

 33 36  0  0  1  0  0  0  0  0999 V2000
   38.5200   25.9160   34.9870 C   0  0  1  0  0  0  0  0  0  0  0  0
   38.3850   26.6960   36.3420 C   0  0  0  0  0  0  0  0  0  0  0  0
   37.9220   25.2940   36.1830 C   0  0  2  0  0  0  0  0  0  0  0  0
   39.5450   25.5780   34.7320 H   0  0  0  0  0  0  0  0  0  0  0  0
   37.6820   27.5330   36.3060 H   0  0  0  0  0  0  0  0  0  0  0  0
   39.3280   26.8000   36.9210 H   0  0  0  0  0  0  0  0  0  0  0  0
   36.8360   25.1460   36.1490 H   0  0  0  0  0  0  0  0  0  0  0  0
   36.3870   27.7370   32.7130 C   0  0  0  0  0  0  0  0  0  0  0  0
   36.3950   26.5000   32.1090 C   0  0  0  0  0  0  0  0  0  0  0  0
   37.1980   25.6400   32.8780 C   0  0  0  0  0  0  0  0  0  0  0  0
   37.6490   26.3690   33.9140 N   0  0  0  0  0  0  0  0  0  0  0  0
   37.1600   27.5770   33.7850 N   0  0  0  0  0  0  0  0  0  0  0  0
   35.8770   26.2020   31.1870 H   0  0  0  0  0  0  0  0  0  0  0  0
   37.4060   24.5890   32.6630 H   0  0  0  0  0  0  0  0  0  0  0  0
   34.3890   29.2470   32.6600 C   0  0  0  0  0  0  0  0  0  0  0  0
   35.6730   28.8740   32.2140 C   0  0  0  0  0  0  0  0  0  0  0  0
   36.2400   29.6790   31.2370 C   0  0  0  0  0  0  0  0  0  0  0  0
   35.5430   30.7520   30.7800 N   0  0  0  0  0  0  0  0  0  0  0  0
   34.3280   31.0630   31.2370 C   0  0  0  0  0  0  0  0  0  0  0  0
   33.7290   30.3080   32.1910 N   0  0  0  0  0  0  0  0  0  0  0  0
   33.9380   28.6170   33.4290 H   0  0  0  0  0  0  0  0  0  0  0  0
   37.2380   29.4540   30.8380 H   0  0  0  0  0  0  0  0  0  0  0  0
   33.8020   31.9240   30.8510 H   0  0  0  0  0  0  0  0  0  0  0  0
   38.6540   24.1880   36.8760 C   0  0  0  0  0  0  0  0  0  0  0  0
   38.2910   23.6880   38.1390 C   0  0  0  0  0  0  0  0  0  0  0  0
   39.1720   22.7020   38.4520 N   0  0  0  0  0  0  0  0  0  0  0  0
   40.0560   22.5880   37.4240 C   0  0  0  0  0  0  0  0  0  0  0  0
   39.7410   23.4940   36.4600 N   0  0  0  0  0  0  0  0  0  0  0  0
   37.4650   24.0040   38.7800 H   0  0  0  0  0  0  0  0  0  0  0  0
   39.1880   22.1230   39.3220 H   0  0  0  0  0  0  0  0  0  0  0  0
   41.1920   21.6510   37.3160 C   0  0  0  0  0  0  0  0  0  0  0  0
   41.5260   21.1680   38.2240 H   0  0  0  0  0  0  0  0  0  0  0  0
   41.7500   21.4200   36.2100 O   0  0  0  0  0  0  0  0  0  0  0  0
  1  4  1  6  0  0  0
  1  3  1  0  0  0  0
  1  2  1  0  0  0  0
  2  6  1  0  0  0  0
  3  7  1  6  0  0  0
  3  2  1  0  0  0  0
  3 24  1  0  0  0  0
  5  2  1  0  0  0  0
  8 12  2  0  0  0  0
  9  8  1  0  0  0  0
  9 10  2  0  0  0  0
 10 11  1  0  0  0  0
 11  1  1  0  0  0  0
 12 11  1  0  0  0  0
 13  9  1  0  0  0  0
 14 10  1  0  0  0  0
 15 21  1  0  0  0  0
 16 15  1  0  0  0  0
 16  8  1  0  0  0  0
 17 16  2  0  0  0  0
 18 19  2  0  0  0  0
 18 17  1  0  0  0  0
 19 20  1  0  0  0  0
 20 15  2  0  0  0  0
 22 17  1  0  0  0  0
 23 19  1  0  0  0  0
 24 25  2  0  0  0  0
 25 26  1  0  0  0  0
 25 29  1  0  0  0  0
 26 30  1  0  0  0  0
 27 26  1  0  0  0  0
 28 24  1  0  0  0  0
 28 27  2  0  0  0  0
 31 27  1  0  0  0  0
 31 32  1  0  0  0  0
 33 31  2  0  0  0  0
M  END
>  <minimizedAffinity>
-5.47494841

$$$$

 OpenBabel03272500493D

 33 36  0  0  1  0  0  0  0  0999 V2000
   38.1960   26.5360   34.3910 C   0  0  1  0  0  0  0  0  0  0  0  0
   39.2360   27.1310   35.4050 C   0  0  0  0  0  0  0  0  0  0  0  0
   38.1440   26.2180   35.8310 C   0  0  2  0  0  0  0  0  0  0  0  0
   38.5790   25.7280   33.7350 H   0  0  0  0  0  0  0  0  0  0  0  0
   39.1550   28.2130   35.5410 H   0  0  0  0  0  0  0  0  0  0  0  0
   40.2410   26.6560   35.3800 H   0  0  0  0  0  0  0  0  0  0  0  0
   37.3210   26.6800   36.3900 H   0  0  0  0  0  0  0  0  0  0  0  0
   35.5730   28.9420   33.7810 C   0  0  0  0  0  0  0  0  0  0  0  0
   36.0810   28.8000   32.5100 C   0  0  0  0  0  0  0  0  0  0  0  0
   37.1380   27.8760   32.5580 C   0  0  0  0  0  0  0  0  0  0  0  0
   37.2420   27.4870   33.8410 N   0  0  0  0  0  0  0  0  0  0  0  0
   36.3220   28.1240   34.5190 N   0  0  0  0  0  0  0  0  0  0  0  0
   35.7430   29.3050   31.5940 H   0  0  0  0  0  0  0  0  0  0  0  0
   37.7470   27.5480   31.7120 H   0  0  0  0  0  0  0  0  0  0  0  0
   33.1970   29.7000   33.5550 C   0  0  0  0  0  0  0  0  0  0  0  0
   34.4820   29.8040   34.1230 C   0  0  0  0  0  0  0  0  0  0  0  0
   34.6580   30.8110   35.0610 C   0  0  0  0  0  0  0  0  0  0  0  0
   33.6080   31.6170   35.3690 N   0  0  0  0  0  0  0  0  0  0  0  0
   32.4080   31.4760   34.8010 C   0  0  0  0  0  0  0  0  0  0  0  0
   32.1840   30.5070   33.8780 N   0  0  0  0  0  0  0  0  0  0  0  0
   33.0530   28.9100   32.8170 H   0  0  0  0  0  0  0  0  0  0  0  0
   35.6310   30.9570   35.5490 H   0  0  0  0  0  0  0  0  0  0  0  0
   31.5950   32.1340   35.0700 H   0  0  0  0  0  0  0  0  0  0  0  0
   38.4730   24.8320   36.2860 C   0  0  0  0  0  0  0  0  0  0  0  0
   37.6000   24.0380   37.0510 C   0  0  0  0  0  0  0  0  0  0  0  0
   38.2260   22.8540   37.2800 N   0  0  0  0  0  0  0  0  0  0  0  0
   39.4470   22.9030   36.6810 C   0  0  0  0  0  0  0  0  0  0  0  0
   39.5990   24.1090   36.0730 N   0  0  0  0  0  0  0  0  0  0  0  0
   36.6010   24.2880   37.4140 H   0  0  0  0  0  0  0  0  0  0  0  0
   37.8560   22.0390   37.8180 H   0  0  0  0  0  0  0  0  0  0  0  0
   40.4800   21.8480   36.6600 C   0  0  0  0  0  0  0  0  0  0  0  0
   40.6440   21.3310   35.7250 H   0  0  0  0  0  0  0  0  0  0  0  0
   41.1470   21.5610   37.6900 O   0  0  0  0  0  0  0  0  0  0  0  0
  1  4  1  6  0  0  0
  1  2  1  0  0  0  0
  1  3  1  0  0  0  0
  2  5  1  0  0  0  0
  2  3  1  0  0  0  0
  3 24  1  0  0  0  0
  3  7  1  1  0  0  0
  6  2  1  0  0  0  0
  8 16  1  0  0  0  0
  8 12  2  0  0  0  0
  9 10  2  0  0  0  0
  9  8  1  0  0  0  0
 10 11  1  0  0  0  0
 11  1  1  0  0  0  0
 11 12  1  0  0  0  0
 13  9  1  0  0  0  0
 14 10  1  0  0  0  0
 15 20  2  0  0  0  0
 15 16  1  0  0  0  0
 16 17  2  0  0  0  0
 17 18  1  0  0  0  0
 17 22  1  0  0  0  0
 19 23  1  0  0  0  0
 19 18  2  0  0  0  0
 20 19  1  0  0  0  0
 21 15  1  0  0  0  0
 24 25  2  0  0  0  0
 25 26  1  0  0  0  0
 25 29  1  0  0  0  0
 26 30  1  0  0  0  0
 27 26  1  0  0  0  0
 28 24  1  0  0  0  0
 28 27  2  0  0  0  0
 31 27  1  0  0  0  0
 31 33  2  0  0  0  0
 32 31  1  0  0  0  0
M  END
>  <minimizedAffinity>
-5.25746679

$$$$

 OpenBabel03272500493D

 33 36  0  0  1  0  0  0  0  0999 V2000
   38.8490   25.8430   34.7350 C   0  0  1  0  0  0  0  0  0  0  0  0
   38.4260   26.6090   36.0370 C   0  0  0  0  0  0  0  0  0  0  0  0
   38.1030   25.1760   35.8190 C   0  0  2  0  0  0  0  0  0  0  0  0
   39.9250   25.5840   34.6630 H   0  0  0  0  0  0  0  0  0  0  0  0
   37.6780   27.3900   35.8700 H   0  0  0  0  0  0  0  0  0  0  0  0
   39.2450   26.7850   36.7670 H   0  0  0  0  0  0  0  0  0  0  0  0
   37.0530   24.9460   35.6020 H   0  0  0  0  0  0  0  0  0  0  0  0
   37.6670   27.3550   31.6760 C   0  0  0  0  0  0  0  0  0  0  0  0
   36.7250   26.3660   31.8440 C   0  0  0  0  0  0  0  0  0  0  0  0
   37.0350   25.6580   33.0180 C   0  0  0  0  0  0  0  0  0  0  0  0
   38.1430   26.2280   33.5230 N   0  0  0  0  0  0  0  0  0  0  0  0
   38.4800   27.2060   32.7200 N   0  0  0  0  0  0  0  0  0  0  0  0
   35.8670   26.1410   31.1950 H   0  0  0  0  0  0  0  0  0  0  0  0
   36.4760   24.8120   33.4260 H   0  0  0  0  0  0  0  0  0  0  0  0
   38.4700   28.1220   29.4310 C   0  0  0  0  0  0  0  0  0  0  0  0
   37.6780   28.2830   30.5850 C   0  0  0  0  0  0  0  0  0  0  0  0
   36.8800   29.4170   30.6270 C   0  0  0  0  0  0  0  0  0  0  0  0
   36.9080   30.2830   29.5800 N   0  0  0  0  0  0  0  0  0  0  0  0
   37.6770   30.0820   28.5080 C   0  0  0  0  0  0  0  0  0  0  0  0
   38.4760   28.9900   28.4170 N   0  0  0  0  0  0  0  0  0  0  0  0
   39.0990   27.2310   29.3920 H   0  0  0  0  0  0  0  0  0  0  0  0
   36.2350   29.6150   31.4940 H   0  0  0  0  0  0  0  0  0  0  0  0
   37.6740   30.7920   27.6920 H   0  0  0  0  0  0  0  0  0  0  0  0
   38.7870   24.1300   36.6410 C   0  0  0  0  0  0  0  0  0  0  0  0
   38.3300   23.7120   37.9030 C   0  0  0  0  0  0  0  0  0  0  0  0
   39.1910   22.7610   38.3510 N   0  0  0  0  0  0  0  0  0  0  0  0
   40.1540   22.5880   37.4040 C   0  0  0  0  0  0  0  0  0  0  0  0
   39.9090   23.4230   36.3590 N   0  0  0  0  0  0  0  0  0  0  0  0
   37.4540   24.0600   38.4550 H   0  0  0  0  0  0  0  0  0  0  0  0
   39.1440   22.2430   39.2560 H   0  0  0  0  0  0  0  0  0  0  0  0
   41.3010   21.6610   37.4490 C   0  0  0  0  0  0  0  0  0  0  0  0
   41.1670   20.7290   37.9810 H   0  0  0  0  0  0  0  0  0  0  0  0
   42.3950   21.9410   36.8890 O   0  0  0  0  0  0  0  0  0  0  0  0
  1  4  1  6  0  0  0
  1  3  1  0  0  0  0
  1  2  1  0  0  0  0
  2  6  1  0  0  0  0
  3  7  1  6  0  0  0
  3  2  1  0  0  0  0
  3 24  1  0  0  0  0
  5  2  1  0  0  0  0
  8  9  1  0  0  0  0
  8 12  2  0  0  0  0
  9 10  2  0  0  0  0
 10 14  1  0  0  0  0
 10 11  1  0  0  0  0
 11  1  1  0  0  0  0
 12 11  1  0  0  0  0
 13  9  1  0  0  0  0
 15 16  1  0  0  0  0
 16 17  2  0  0  0  0
 16  8  1  0  0  0  0
 17 22  1  0  0  0  0
 18 17  1  0  0  0  0
 19 18  2  0  0  0  0
 20 19  1  0  0  0  0
 20 15  2  0  0  0  0
 21 15  1  0  0  0  0
 23 19  1  0  0  0  0
 24 25  2  0  0  0  0
 25 26  1  0  0  0  0
 25 29  1  0  0  0  0
 26 30  1  0  0  0  0
 27 31  1  0  0  0  0
 27 26  1  0  0  0  0
 28 24  1  0  0  0  0
 28 27  2  0  0  0  0
 31 32  1  0  0  0  0
 33 31  2  0  0  0  0
M  END
>  <minimizedAffinity>
-5.23712492

$$$$

 OpenBabel03272500493D

 33 36  0  0  1  0  0  0  0  0999 V2000
   37.7360   25.7930   35.8830 C   0  0  1  0  0  0  0  0  0  0  0  0
   38.4760   27.1760   35.9290 C   0  0  0  0  0  0  0  0  0  0  0  0
   38.2770   26.4230   34.6640 C   0  0  2  0  0  0  0  0  0  0  0  0
   36.6330   25.8390   35.9990 H   0  0  0  0  0  0  0  0  0  0  0  0
   39.4340   27.1500   36.4590 H   0  0  0  0  0  0  0  0  0  0  0  0
   37.8140   28.0610   36.0410 H   0  0  0  0  0  0  0  0  0  0  0  0
   39.1700   25.9480   34.2400 H   0  0  0  0  0  0  0  0  0  0  0  0
   39.9290   23.0380   36.6850 C   0  0  0  0  0  0  0  0  0  0  0  0
   39.1650   23.0890   37.8290 C   0  0  0  0  0  0  0  0  0  0  0  0
   38.2330   24.1310   37.6900 C   0  0  0  0  0  0  0  0  0  0  0  0
   38.4530   24.6770   36.4810 N   0  0  0  0  0  0  0  0  0  0  0  0
   39.4410   24.0200   35.9290 N   0  0  0  0  0  0  0  0  0  0  0  0
   39.2440   22.4430   38.7150 H   0  0  0  0  0  0  0  0  0  0  0  0
   37.4820   24.4270   38.4280 H   0  0  0  0  0  0  0  0  0  0  0  0
   41.5100   21.8010   35.1870 C   0  0  0  0  0  0  0  0  0  0  0  0
   40.9870   22.1000   36.4610 C   0  0  0  0  0  0  0  0  0  0  0  0
   41.5570   21.4240   37.5310 C   0  0  0  0  0  0  0  0  0  0  0  0
   42.5590   20.5390   37.2940 N   0  0  0  0  0  0  0  0  0  0  0  0
   43.0190   20.2920   36.0650 C   0  0  0  0  0  0  0  0  0  0  0  0
   42.4960   20.9250   34.9860 N   0  0  0  0  0  0  0  0  0  0  0  0
   41.0650   22.3300   34.3420 H   0  0  0  0  0  0  0  0  0  0  0  0
   41.2040   21.6020   38.5560 H   0  0  0  0  0  0  0  0  0  0  0  0
   43.8180   19.5810   35.9130 H   0  0  0  0  0  0  0  0  0  0  0  0
   37.3310   26.9490   33.6310 C   0  0  0  0  0  0  0  0  0  0  0  0
   37.0110   26.2590   32.4490 C   0  0  0  0  0  0  0  0  0  0  0  0
   36.1330   27.0310   31.7550 N   0  0  0  0  0  0  0  0  0  0  0  0
   35.9110   28.1640   32.4760 C   0  0  0  0  0  0  0  0  0  0  0  0
   36.6410   28.1150   33.6220 N   0  0  0  0  0  0  0  0  0  0  0  0
   37.3760   25.2860   32.1130 H   0  0  0  0  0  0  0  0  0  0  0  0
   35.6960   26.8150   30.8320 H   0  0  0  0  0  0  0  0  0  0  0  0
   35.0310   29.2950   32.1230 C   0  0  0  0  0  0  0  0  0  0  0  0
   35.3170   29.9020   31.2760 H   0  0  0  0  0  0  0  0  0  0  0  0
   33.9840   29.5430   32.7800 O   0  0  0  0  0  0  0  0  0  0  0  0
  1  2  1  0  0  0  0
  1  4  1  1  0  0  0
  1 11  1  0  0  0  0
  2  6  1  0  0  0  0
  2  5  1  0  0  0  0
  3  7  1  6  0  0  0
  3  1  1  0  0  0  0
  3  2  1  0  0  0  0
  8  9  1  0  0  0  0
  9 13  1  0  0  0  0
 10  9  2  0  0  0  0
 10 14  1  0  0  0  0
 11 10  1  0  0  0  0
 12 11  1  0  0  0  0
 12  8  2  0  0  0  0
 15 16  1  0  0  0  0
 16  8  1  0  0  0  0
 16 17  2  0  0  0  0
 17 22  1  0  0  0  0
 18 17  1  0  0  0  0
 19 18  2  0  0  0  0
 20 15  2  0  0  0  0
 20 19  1  0  0  0  0
 21 15  1  0  0  0  0
 23 19  1  0  0  0  0
 24  3  1  0  0  0  0
 25 24  2  0  0  0  0
 26 25  1  0  0  0  0
 26 27  1  0  0  0  0
 27 28  2  0  0  0  0
 28 24  1  0  0  0  0
 29 25  1  0  0  0  0
 30 26  1  0  0  0  0
 31 27  1  0  0  0  0
 31 33  2  0  0  0  0
 32 31  1  0  0  0  0
M  END
>  <minimizedAffinity>
-4.9965744

$$$$

 OpenBabel03272500493D

 33 36  0  0  1  0  0  0  0  0999 V2000
   37.5840   26.1240   35.4100 C   0  0  1  0  0  0  0  0  0  0  0  0
   38.2790   27.4960   35.7200 C   0  0  0  0  0  0  0  0  0  0  0  0
   38.3470   26.8570   34.3820 C   0  0  2  0  0  0  0  0  0  0  0  0
   36.4800   26.1620   35.3060 H   0  0  0  0  0  0  0  0  0  0  0  0
   39.1120   27.4230   36.4260 H   0  0  0  0  0  0  0  0  0  0  0  0
   37.5940   28.3700   35.7730 H   0  0  0  0  0  0  0  0  0  0  0  0
   39.3140   26.4190   34.1050 H   0  0  0  0  0  0  0  0  0  0  0  0
   39.6070   23.2980   36.3870 C   0  0  0  0  0  0  0  0  0  0  0  0
   38.6440   23.2650   37.3700 C   0  0  0  0  0  0  0  0  0  0  0  0
   37.7470   24.3220   37.1420 C   0  0  0  0  0  0  0  0  0  0  0  0
   38.1840   24.9600   36.0420 N   0  0  0  0  0  0  0  0  0  0  0  0
   39.2620   24.3390   35.6330 N   0  0  0  0  0  0  0  0  0  0  0  0
   38.5600   22.5520   38.2020 H   0  0  0  0  0  0  0  0  0  0  0  0
   36.8700   24.5660   37.7480 H   0  0  0  0  0  0  0  0  0  0  0  0
   41.3190   22.0220   35.0780 C   0  0  0  0  0  0  0  0  0  0  0  0
   40.6940   22.3700   36.2920 C   0  0  0  0  0  0  0  0  0  0  0  0
   41.1890   21.7570   37.4340 C   0  0  0  0  0  0  0  0  0  0  0  0
   42.2210   20.8810   37.3180 N   0  0  0  0  0  0  0  0  0  0  0  0
   42.7790   20.5860   36.1410 C   0  0  0  0  0  0  0  0  0  0  0  0
   42.3320   21.1570   34.9950 N   0  0  0  0  0  0  0  0  0  0  0  0
   40.9340   22.5020   34.1760 H   0  0  0  0  0  0  0  0  0  0  0  0
   40.7540   21.9750   38.4180 H   0  0  0  0  0  0  0  0  0  0  0  0
   43.5990   19.8840   36.0850 H   0  0  0  0  0  0  0  0  0  0  0  0
   37.6190   27.4720   33.2290 C   0  0  0  0  0  0  0  0  0  0  0  0
   36.3780   28.1220   33.3510 C   0  0  0  0  0  0  0  0  0  0  0  0
   36.0200   28.5480   32.1120 N   0  0  0  0  0  0  0  0  0  0  0  0
   37.0010   28.1790   31.2430 C   0  0  0  0  0  0  0  0  0  0  0  0
   37.9780   27.5220   31.9230 N   0  0  0  0  0  0  0  0  0  0  0  0
   35.7820   28.2760   34.2530 H   0  0  0  0  0  0  0  0  0  0  0  0
   35.1530   29.0670   31.8490 H   0  0  0  0  0  0  0  0  0  0  0  0
   37.0500   28.4240   29.7880 C   0  0  0  0  0  0  0  0  0  0  0  0
   36.1320   28.7270   29.3030 H   0  0  0  0  0  0  0  0  0  0  0  0
   38.1190   28.2890   29.1350 O   0  0  0  0  0  0  0  0  0  0  0  0
  1  4  1  6  0  0  0
  1  2  1  0  0  0  0
  1 11  1  0  0  0  0
  2  6  1  0  0  0  0
  2  5  1  0  0  0  0
  3  7  1  6  0  0  0
  3  1  1  0  0  0  0
  3  2  1  0  0  0  0
  8  9  1  0  0  0  0
  9 13  1  0  0  0  0
 10  9  2  0  0  0  0
 10 14  1  0  0  0  0
 11 10  1  0  0  0  0
 12 11  1  0  0  0  0
 12  8  2  0  0  0  0
 15 16  1  0  0  0  0
 16  8  1  0  0  0  0
 16 17  2  0  0  0  0
 17 22  1  0  0  0  0
 18 17  1  0  0  0  0
 19 18  2  0  0  0  0
 20 15  2  0  0  0  0
 20 19  1  0  0  0  0
 21 15  1  0  0  0  0
 23 19  1  0  0  0  0
 24 25  2  0  0  0  0
 24  3  1  0  0  0  0
 25 29  1  0  0  0  0
 26 25  1  0  0  0  0
 27 28  2  0  0  0  0
 27 26  1  0  0  0  0
 28 24  1  0  0  0  0
 30 26  1  0  0  0  0
 31 27  1  0  0  0  0
 32 31  1  0  0  0  0
 33 31  2  0  0  0  0
M  END
>  <minimizedAffinity>
-4.92386436

$$$$

 OpenBabel03272500493D

 33 36  0  0  1  0  0  0  0  0999 V2000
   37.0290   26.9610   33.5120 C   0  0  1  0  0  0  0  0  0  0  0  0
   38.5530   27.1150   33.1710 C   0  0  0  0  0  0  0  0  0  0  0  0
   38.0740   26.7860   34.5380 C   0  0  2  0  0  0  0  0  0  0  0  0
   36.5520   26.0270   33.1500 H   0  0  0  0  0  0  0  0  0  0  0  0
   38.8470   28.1350   32.9040 H   0  0  0  0  0  0  0  0  0  0  0  0
   39.0030   26.2560   32.6280 H   0  0  0  0  0  0  0  0  0  0  0  0
   38.1500   27.5890   35.2820 H   0  0  0  0  0  0  0  0  0  0  0  0
   35.2750   30.0300   34.2450 C   0  0  0  0  0  0  0  0  0  0  0  0
   35.0330   29.9230   32.8940 C   0  0  0  0  0  0  0  0  0  0  0  0
   35.6570   28.7540   32.4270 C   0  0  0  0  0  0  0  0  0  0  0  0
   36.2540   28.1910   33.4930 N   0  0  0  0  0  0  0  0  0  0  0  0
   36.0110   28.9570   34.5270 N   0  0  0  0  0  0  0  0  0  0  0  0
   34.4570   30.6110   32.2600 H   0  0  0  0  0  0  0  0  0  0  0  0
   35.6510   28.3870   31.3980 H   0  0  0  0  0  0  0  0  0  0  0  0
   33.5490   31.7300   34.8810 C   0  0  0  0  0  0  0  0  0  0  0  0
   34.7950   31.1000   35.0680 C   0  0  0  0  0  0  0  0  0  0  0  0
   35.5690   31.5710   36.1190 C   0  0  0  0  0  0  0  0  0  0  0  0
   35.0920   32.5860   36.8860 N   0  0  0  0  0  0  0  0  0  0  0  0
   33.9020   33.1500   36.6660 C   0  0  0  0  0  0  0  0  0  0  0  0
   33.1070   32.7260   35.6520 N   0  0  0  0  0  0  0  0  0  0  0  0
   32.9360   31.3630   34.0560 H   0  0  0  0  0  0  0  0  0  0  0  0
   36.5530   31.1320   36.3290 H   0  0  0  0  0  0  0  0  0  0  0  0
   33.5530   33.9550   37.2960 H   0  0  0  0  0  0  0  0  0  0  0  0
   38.3250   25.4230   35.1030 C   0  0  0  0  0  0  0  0  0  0  0  0
   38.2180   24.2400   34.3520 C   0  0  0  0  0  0  0  0  0  0  0  0
   38.5110   23.2050   35.1840 N   0  0  0  0  0  0  0  0  0  0  0  0
   38.7910   23.7220   36.4120 C   0  0  0  0  0  0  0  0  0  0  0  0
   38.6790   25.0760   36.3640 N   0  0  0  0  0  0  0  0  0  0  0  0
   37.9530   24.1280   33.2990 H   0  0  0  0  0  0  0  0  0  0  0  0
   38.5230   22.1880   34.9460 H   0  0  0  0  0  0  0  0  0  0  0  0
   39.1630   22.9810   37.6330 C   0  0  0  0  0  0  0  0  0  0  0  0
   38.3810   22.7840   38.3530 H   0  0  0  0  0  0  0  0  0  0  0  0
   40.3460   22.5920   37.8310 O   0  0  0  0  0  0  0  0  0  0  0  0
  1  4  1  6  0  0  0
  1  3  1  0  0  0  0
  2  1  1  0  0  0  0
  2  3  1  0  0  0  0
  3 24  1  0  0  0  0
  3  7  1  1  0  0  0
  5  2  1  0  0  0  0
  6  2  1  0  0  0  0
  8 12  2  0  0  0  0
  8 16  1  0  0  0  0
  9  8  1  0  0  0  0
 10  9  2  0  0  0  0
 10 11  1  0  0  0  0
 11  1  1  0  0  0  0
 11 12  1  0  0  0  0
 13  9  1  0  0  0  0
 14 10  1  0  0  0  0
 15 16  2  0  0  0  0
 15 20  1  0  0  0  0
 16 17  1  0  0  0  0
 17 22  1  0  0  0  0
 17 18  2  0  0  0  0
 19 18  1  0  0  0  0
 19 23  1  0  0  0  0
 20 19  2  0  0  0  0
 21 15  1  0  0  0  0
 24 28  1  0  0  0  0
 25 24  2  0  0  0  0
 25 26  1  0  0  0  0
 26 27  1  0  0  0  0
 27 31  1  0  0  0  0
 28 27  2  0  0  0  0
 29 25  1  0  0  0  0
 30 26  1  0  0  0  0
 31 33  2  0  0  0  0
 31 32  1  0  0  0  0
M  END
>  <minimizedAffinity>
-4.74229145

$$$$

 OpenBabel03272500493D

 33 36  0  0  1  0  0  0  0  0999 V2000
   36.9360   27.3330   31.9940 C   0  0  1  0  0  0  0  0  0  0  0  0
   38.4540   27.0860   32.3060 C   0  0  0  0  0  0  0  0  0  0  0  0
   37.3710   26.3180   32.9720 C   0  0  2  0  0  0  0  0  0  0  0  0
   36.5790   26.9390   31.0210 H   0  0  0  0  0  0  0  0  0  0  0  0
   38.9470   27.9240   32.8080 H   0  0  0  0  0  0  0  0  0  0  0  0
   39.0060   26.5130   31.5300 H   0  0  0  0  0  0  0  0  0  0  0  0
   37.1850   26.5630   34.0250 H   0  0  0  0  0  0  0  0  0  0  0  0
   35.4720   30.0530   33.8640 C   0  0  0  0  0  0  0  0  0  0  0  0
   35.7150   30.6800   32.6630 C   0  0  0  0  0  0  0  0  0  0  0  0
   36.2990   29.7470   31.7900 C   0  0  0  0  0  0  0  0  0  0  0  0
   36.3940   28.5940   32.4760 N   0  0  0  0  0  0  0  0  0  0  0  0
   35.9070   28.8090   33.6710 N   0  0  0  0  0  0  0  0  0  0  0  0
   35.5020   31.7250   32.3980 H   0  0  0  0  0  0  0  0  0  0  0  0
   36.6090   29.9350   30.7590 H   0  0  0  0  0  0  0  0  0  0  0  0
   35.6000   31.5010   35.9040 C   0  0  0  0  0  0  0  0  0  0  0  0
   34.8810   30.6910   35.0030 C   0  0  0  0  0  0  0  0  0  0  0  0
   33.5300   30.5260   35.2690 C   0  0  0  0  0  0  0  0  0  0  0  0
   32.9920   31.1400   36.3550 N   0  0  0  0  0  0  0  0  0  0  0  0
   33.7180   31.9000   37.1790 C   0  0  0  0  0  0  0  0  0  0  0  0
   35.0430   32.0920   36.9630 N   0  0  0  0  0  0  0  0  0  0  0  0
   36.6630   31.6350   35.6980 H   0  0  0  0  0  0  0  0  0  0  0  0
   32.9020   29.9080   34.6140 H   0  0  0  0  0  0  0  0  0  0  0  0
   33.2570   32.3740   38.0340 H   0  0  0  0  0  0  0  0  0  0  0  0
   37.1870   24.8680   32.6540 C   0  0  0  0  0  0  0  0  0  0  0  0
   38.0340   23.8540   33.1330 C   0  0  0  0  0  0  0  0  0  0  0  0
   37.5690   22.6740   32.6430 N   0  0  0  0  0  0  0  0  0  0  0  0
   36.4710   22.9390   31.8840 C   0  0  0  0  0  0  0  0  0  0  0  0
   36.2350   24.2780   31.8900 N   0  0  0  0  0  0  0  0  0  0  0  0
   38.9100   23.9520   33.7770 H   0  0  0  0  0  0  0  0  0  0  0  0
   37.9690   21.7230   32.8060 H   0  0  0  0  0  0  0  0  0  0  0  0
   35.6310   21.9710   31.1510 C   0  0  0  0  0  0  0  0  0  0  0  0
   35.0590   22.3430   30.3130 H   0  0  0  0  0  0  0  0  0  0  0  0
   35.5840   20.7570   31.4870 O   0  0  0  0  0  0  0  0  0  0  0  0
  1  4  1  6  0  0  0
  1  2  1  0  0  0  0
  1 11  1  0  0  0  0
  1  3  1  0  0  0  0
  2  5  1  0  0  0  0
  2  3  1  0  0  0  0
  3  7  1  1  0  0  0
  6  2  1  0  0  0  0
  8 16  1  0  0  0  0
  9  8  1  0  0  0  0
 10 11  1  0  0  0  0
 10  9  2  0  0  0  0
 11 12  1  0  0  0  0
 12  8  2  0  0  0  0
 13  9  1  0  0  0  0
 14 10  1  0  0  0  0
 15 20  1  0  0  0  0
 16 17  1  0  0  0  0
 16 15  2  0  0  0  0
 17 18  2  0  0  0  0
 18 19  1  0  0  0  0
 19 23  1  0  0  0  0
 20 19  2  0  0  0  0
 21 15  1  0  0  0  0
 22 17  1  0  0  0  0
 24  3  1  0  0  0  0
 24 25  2  0  0  0  0
 25 29  1  0  0  0  0
 26 30  1  0  0  0  0
 26 25  1  0  0  0  0
 27 28  2  0  0  0  0
 27 26  1  0  0  0  0
 28 24  1  0  0  0  0
 31 33  2  0  0  0  0
 31 27  1  0  0  0  0
 32 31  1  0  0  0  0
M  END
>  <minimizedAffinity>
-4.72169542

$$$$

 OpenBabel03272500493D

 33 36  0  0  1  0  0  0  0  0999 V2000
   37.4060   27.4480   32.2490 C   0  0  1  0  0  0  0  0  0  0  0  0
   36.0350   26.9810   31.6450 C   0  0  0  0  0  0  0  0  0  0  0  0
   36.2890   28.3890   32.0400 C   0  0  2  0  0  0  0  0  0  0  0  0
   38.2430   27.5290   31.5240 H   0  0  0  0  0  0  0  0  0  0  0  0
   35.4720   26.3030   32.2940 H   0  0  0  0  0  0  0  0  0  0  0  0
   36.0380   26.8090   30.5470 H   0  0  0  0  0  0  0  0  0  0  0  0
   35.7820   28.7340   32.9500 H   0  0  0  0  0  0  0  0  0  0  0  0
   38.4340   25.6500   35.2060 C   0  0  0  0  0  0  0  0  0  0  0  0
   37.8670   26.7660   35.7790 C   0  0  0  0  0  0  0  0  0  0  0  0
   37.4000   27.6000   34.7490 C   0  0  0  0  0  0  0  0  0  0  0  0
   37.6930   26.9760   33.5940 N   0  0  0  0  0  0  0  0  0  0  0  0
   38.2900   25.8510   33.8980 N   0  0  0  0  0  0  0  0  0  0  0  0
   37.7780   26.9970   36.8490 H   0  0  0  0  0  0  0  0  0  0  0  0
   36.9000   28.5640   34.8760 H   0  0  0  0  0  0  0  0  0  0  0  0
   38.4900   24.0760   37.1540 C   0  0  0  0  0  0  0  0  0  0  0  0
   39.0190   24.5720   35.9460 C   0  0  0  0  0  0  0  0  0  0  0  0
   40.1720   23.9550   35.4820 C   0  0  0  0  0  0  0  0  0  0  0  0
   40.7090   22.9350   36.2010 N   0  0  0  0  0  0  0  0  0  0  0  0
   40.1670   22.5020   37.3420 C   0  0  0  0  0  0  0  0  0  0  0  0
   39.0410   23.0720   37.8390 N   0  0  0  0  0  0  0  0  0  0  0  0
   37.5830   24.5580   37.5230 H   0  0  0  0  0  0  0  0  0  0  0  0
   40.6460   24.2850   34.5480 H   0  0  0  0  0  0  0  0  0  0  0  0
   40.6210   21.6880   37.8890 H   0  0  0  0  0  0  0  0  0  0  0  0
   36.4080   29.4450   30.9870 C   0  0  0  0  0  0  0  0  0  0  0  0
   35.6150   30.6050   30.9560 C   0  0  0  0  0  0  0  0  0  0  0  0
   35.9940   31.3250   29.8680 N   0  0  0  0  0  0  0  0  0  0  0  0
   36.9880   30.6420   29.2390 C   0  0  0  0  0  0  0  0  0  0  0  0
   37.2430   29.4930   29.9200 N   0  0  0  0  0  0  0  0  0  0  0  0
   34.8320   30.9080   31.6550 H   0  0  0  0  0  0  0  0  0  0  0  0
   35.6040   32.2410   29.5510 H   0  0  0  0  0  0  0  0  0  0  0  0
   37.7110   31.0340   28.0120 C   0  0  0  0  0  0  0  0  0  0  0  0
   37.6100   32.0580   27.6820 H   0  0  0  0  0  0  0  0  0  0  0  0
   38.4190   30.2100   27.3750 O   0  0  0  0  0  0  0  0  0  0  0  0
  1  4  1  6  0  0  0
  1 11  1  0  0  0  0
  2  3  1  0  0  0  0
  2  1  1  0  0  0  0
  2  5  1  0  0  0  0
  3  1  1  0  0  0  0
  3  7  1  1  0  0  0
  6  2  1  0  0  0  0
  8  9  1  0  0  0  0
  8 16  1  0  0  0  0
  9 13  1  0  0  0  0
 10 14  1  0  0  0  0
 10  9  2  0  0  0  0
 11 12  1  0  0  0  0
 11 10  1  0  0  0  0
 12  8  2  0  0  0  0
 15 21  1  0  0  0  0
 15 20  1  0  0  0  0
 16 15  2  0  0  0  0
 17 16  1  0  0  0  0
 17 18  2  0  0  0  0
 18 19  1  0  0  0  0
 19 20  2  0  0  0  0
 19 23  1  0  0  0  0
 22 17  1  0  0  0  0
 24  3  1  0  0  0  0
 25 24  2  0  0  0  0
 25 29  1  0  0  0  0
 26 25  1  0  0  0  0
 27 26  1  0  0  0  0
 27 28  2  0  0  0  0
 28 24  1  0  0  0  0
 30 26  1  0  0  0  0
 31 27  1  0  0  0  0
 32 31  1  0  0  0  0
 33 31  2  0  0  0  0
M  END
>  <minimizedAffinity>
-4.62540722

$$$$

 OpenBabel03272500493D

 33 36  0  0  1  0  0  0  0  0999 V2000
   36.5070   28.1520   33.2970 C   0  0  1  0  0  0  0  0  0  0  0  0
   36.9640   28.7420   31.9170 C   0  0  0  0  0  0  0  0  0  0  0  0
   35.5710   28.2900   32.1650 C   0  0  2  0  0  0  0  0  0  0  0  0
   36.3830   28.8920   34.1140 H   0  0  0  0  0  0  0  0  0  0  0  0
   37.6780   28.1110   31.3780 H   0  0  0  0  0  0  0  0  0  0  0  0
   37.0860   29.8470   31.8950 H   0  0  0  0  0  0  0  0  0  0  0  0
   35.2750   27.3530   31.6770 H   0  0  0  0  0  0  0  0  0  0  0  0
   37.9370   25.2100   34.8260 C   0  0  0  0  0  0  0  0  0  0  0  0
   37.6980   24.7380   33.5550 C   0  0  0  0  0  0  0  0  0  0  0  0
   37.1270   25.7760   32.8000 C   0  0  0  0  0  0  0  0  0  0  0  0
   37.0360   26.8360   33.6230 N   0  0  0  0  0  0  0  0  0  0  0  0
   37.5140   26.4720   34.7860 N   0  0  0  0  0  0  0  0  0  0  0  0
   37.9040   23.7310   33.1650 H   0  0  0  0  0  0  0  0  0  0  0  0
   36.8210   25.7190   31.7520 H   0  0  0  0  0  0  0  0  0  0  0  0
   39.7040   23.6880   35.7400 C   0  0  0  0  0  0  0  0  0  0  0  0
   38.5150   24.4320   35.8800 C   0  0  0  0  0  0  0  0  0  0  0  0
   37.9030   24.3810   37.1240 C   0  0  0  0  0  0  0  0  0  0  0  0
   38.4710   23.6360   38.1090 N   0  0  0  0  0  0  0  0  0  0  0  0
   39.6010   22.9490   37.9240 C   0  0  0  0  0  0  0  0  0  0  0  0
   40.2380   22.9650   36.7270 N   0  0  0  0  0  0  0  0  0  0  0  0
   40.1890   23.7250   34.7630 H   0  0  0  0  0  0  0  0  0  0  0  0
   36.9730   24.9330   37.3130 H   0  0  0  0  0  0  0  0  0  0  0  0
   40.0250   22.3660   38.7290 H   0  0  0  0  0  0  0  0  0  0  0  0
   34.4680   29.2970   32.2460 C   0  0  0  0  0  0  0  0  0  0  0  0
   34.5090   30.5460   31.6020 C   0  0  0  0  0  0  0  0  0  0  0  0
   33.3500   31.1910   31.8970 N   0  0  0  0  0  0  0  0  0  0  0  0
   32.6090   30.3760   32.6970 C   0  0  0  0  0  0  0  0  0  0  0  0
   33.2900   29.2190   32.9110 N   0  0  0  0  0  0  0  0  0  0  0  0
   35.3020   30.9590   30.9750 H   0  0  0  0  0  0  0  0  0  0  0  0
   33.0590   32.1430   31.5790 H   0  0  0  0  0  0  0  0  0  0  0  0
   31.2760   30.6500   33.2690 C   0  0  0  0  0  0  0  0  0  0  0  0
   31.0390   31.6770   33.5090 H   0  0  0  0  0  0  0  0  0  0  0  0
   30.4440   29.7250   33.4690 O   0  0  0  0  0  0  0  0  0  0  0  0
  1 11  1  0  0  0  0
  1  4  1  1  0  0  0
  2  3  1  0  0  0  0
  2  1  1  0  0  0  0
  3  7  1  6  0  0  0
  3 24  1  0  0  0  0
  3  1  1  0  0  0  0
  5  2  1  0  0  0  0
  6  2  1  0  0  0  0
  8 16  1  0  0  0  0
  9  8  1  0  0  0  0
 10  9  2  0  0  0  0
 10 11  1  0  0  0  0
 11 12  1  0  0  0  0
 12  8  2  0  0  0  0
 13  9  1  0  0  0  0
 14 10  1  0  0  0  0
 15 16  2  0  0  0  0
 15 20  1  0  0  0  0
 16 17  1  0  0  0  0
 17 22  1  0  0  0  0
 17 18  2  0  0  0  0
 19 18  1  0  0  0  0
 19 23  1  0  0  0  0
 20 19  2  0  0  0  0
 21 15  1  0  0  0  0
 24 28  1  0  0  0  0
 25 26  1  0  0  0  0
 25 24  2  0  0  0  0
 26 27  1  0  0  0  0
 27 28  2  0  0  0  0
 27 31  1  0  0  0  0
 29 25  1  0  0  0  0
 30 26  1  0  0  0  0
 31 33  2  0  0  0  0
 31 32  1  0  0  0  0
M  END
>  <minimizedAffinity>
-4.60473251

$$$$
