
 OpenBabel03272504313D

 26 27  0  0  0  0  0  0  0  0999 V2000
   38.3040   24.1060   36.4390 N   0  0  0  0  0  0  0  0  0  0  0  0
   37.8490   23.9600   37.8140 C   0  0  0  0  0  0  0  0  0  0  0  0
   38.8620   23.3660   38.7290 C   0  0  0  0  0  0  0  0  0  0  0  0
   39.7770   22.4450   38.1750 N   0  0  0  0  0  0  0  0  0  0  0  0
   40.2500   22.8470   36.8440 C   0  0  0  0  0  0  0  0  0  0  0  0
   39.0000   22.9420   36.0040 C   0  0  0  0  0  0  0  0  0  0  0  0
   37.5470   24.9750   38.1410 H   0  0  0  0  0  0  0  0  0  0  0  0
   36.9460   23.3160   37.7740 H   0  0  0  0  0  0  0  0  0  0  0  0
   39.3690   24.2080   39.2480 H   0  0  0  0  0  0  0  0  0  0  0  0
   38.2870   22.8350   39.5390 H   0  0  0  0  0  0  0  0  0  0  0  0
   40.6290   22.4110   38.7810 H   0  0  0  0  0  0  0  0  0  0  0  0
   40.7870   23.7970   36.8520 H   0  0  0  0  0  0  0  0  0  0  0  0
   40.8600   22.0450   36.4140 H   0  0  0  0  0  0  0  0  0  0  0  0
   39.2310   23.0150   34.9240 H   0  0  0  0  0  0  0  0  0  0  0  0
   38.4160   22.0060   36.1520 H   0  0  0  0  0  0  0  0  0  0  0  0
   38.0590   25.2870   35.6700 C   0  0  0  0  0  0  0  0  0  0  0  0
   38.2400   26.5750   36.1970 C   0  0  0  0  0  0  0  0  0  0  0  0
   37.9730   27.6650   35.3620 C   0  0  0  0  0  0  0  0  0  0  0  0
   37.5530   27.4340   34.0850 N   0  0  0  0  0  0  0  0  0  0  0  0
   37.3940   26.1610   33.6280 C   0  0  0  0  0  0  0  0  0  0  0  0
   37.6400   25.0990   34.3960 N   0  0  0  0  0  0  0  0  0  0  0  0
   38.5720   26.6750   37.2080 H   0  0  0  0  0  0  0  0  0  0  0  0
   38.0990   28.6590   35.7290 H   0  0  0  0  0  0  0  0  0  0  0  0
   36.9460   25.9080   32.2660 C   0  0  0  0  0  0  0  0  0  0  0  0
   37.3070   26.4170   31.3850 H   0  0  0  0  0  0  0  0  0  0  0  0
   36.0750   25.0520   31.9670 O   0  0  0  0  0  0  0  0  0  0  0  0
  1  2  1  0  0  0  0
  2  7  1  0  0  0  0
  2  3  1  0  0  0  0
  3  9  1  0  0  0  0
  3 10  1  0  0  0  0
  4  3  1  0  0  0  0
  4 11  1  0  0  0  0
  5 12  1  0  0  0  0
  5  4  1  0  0  0  0
  6 15  1  0  0  0  0
  6  1  1  0  0  0  0
  6  5  1  0  0  0  0
  8  2  1  0  0  0  0
 13  5  1  0  0  0  0
 14  6  1  0  0  0  0
 16 17  1  0  0  0  0
 16  1  1  0  0  0  0
 17 22  1  0  0  0  0
 18 23  1  0  0  0  0
 18 17  2  0  0  0  0
 19 18  1  0  0  0  0
 20 19  2  0  0  0  0
 20 21  1  0  0  0  0
 21 16  2  0  0  0  0
 24 20  1  0  0  0  0
 25 24  1  0  0  0  0
 26 24  2  0  0  0  0
M  END
>  <minimizedAffinity>
-4.46091795

$$$$

 OpenBabel03272504313D

 26 27  0  0  0  0  0  0  0  0999 V2000
   38.7550   24.0970   36.2050 N   0  0  0  0  0  0  0  0  0  0  0  0
   37.7740   24.2530   37.2700 C   0  0  0  0  0  0  0  0  0  0  0  0
   38.2240   23.7320   38.5910 C   0  0  0  0  0  0  0  0  0  0  0  0
   39.1120   22.6340   38.5880 N   0  0  0  0  0  0  0  0  0  0  0  0
   40.1350   22.7360   37.5390 C   0  0  0  0  0  0  0  0  0  0  0  0
   39.3560   22.8070   36.2480 C   0  0  0  0  0  0  0  0  0  0  0  0
   37.5440   25.3360   37.3130 H   0  0  0  0  0  0  0  0  0  0  0  0
   36.8650   23.7100   36.9340 H   0  0  0  0  0  0  0  0  0  0  0  0
   38.6190   24.5960   39.1660 H   0  0  0  0  0  0  0  0  0  0  0  0
   37.2930   23.4200   39.1430 H   0  0  0  0  0  0  0  0  0  0  0  0
   39.6350   22.6220   39.4940 H   0  0  0  0  0  0  0  0  0  0  0  0
   40.7770   23.6100   37.6550 H   0  0  0  0  0  0  0  0  0  0  0  0
   40.7190   21.8100   37.5060 H   0  0  0  0  0  0  0  0  0  0  0  0
   40.0060   22.6580   35.3640 H   0  0  0  0  0  0  0  0  0  0  0  0
   38.6120   21.9800   36.2510 H   0  0  0  0  0  0  0  0  0  0  0  0
   39.0390   25.1370   35.2660 C   0  0  0  0  0  0  0  0  0  0  0  0
   40.3520   25.4990   34.9230 C   0  0  0  0  0  0  0  0  0  0  0  0
   40.5230   26.5290   33.9930 C   0  0  0  0  0  0  0  0  0  0  0  0
   39.4200   27.1340   33.4640 N   0  0  0  0  0  0  0  0  0  0  0  0
   38.1710   26.7420   33.8360 C   0  0  0  0  0  0  0  0  0  0  0  0
   37.9710   25.7630   34.7190 N   0  0  0  0  0  0  0  0  0  0  0  0
   41.1640   24.9770   35.3800 H   0  0  0  0  0  0  0  0  0  0  0  0
   41.5060   26.8300   33.7080 H   0  0  0  0  0  0  0  0  0  0  0  0
   36.9900   27.3830   33.2750 C   0  0  0  0  0  0  0  0  0  0  0  0
   36.5720   27.1800   32.3000 H   0  0  0  0  0  0  0  0  0  0  0  0
   36.3200   28.2590   33.8790 O   0  0  0  0  0  0  0  0  0  0  0  0
  1  6  1  0  0  0  0
  1  2  1  0  0  0  0
  2  7  1  0  0  0  0
  2  3  1  0  0  0  0
  3 10  1  0  0  0  0
  3  9  1  0  0  0  0
  4  3  1  0  0  0  0
  4 11  1  0  0  0  0
  5 12  1  0  0  0  0
  5  4  1  0  0  0  0
  6 15  1  0  0  0  0
  6  5  1  0  0  0  0
  8  2  1  0  0  0  0
 13  5  1  0  0  0  0
 14  6  1  0  0  0  0
 16  1  1  0  0  0  0
 17 16  1  0  0  0  0
 17 22  1  0  0  0  0
 18 17  2  0  0  0  0
 19 20  2  0  0  0  0
 19 18  1  0  0  0  0
 20 21  1  0  0  0  0
 21 16  2  0  0  0  0
 23 18  1  0  0  0  0
 24 20  1  0  0  0  0
 24 26  2  0  0  0  0
 25 24  1  0  0  0  0
M  END
>  <minimizedAffinity>
-4.1766572

$$$$

 OpenBabel03272504313D

 26 27  0  0  0  0  0  0  0  0999 V2000
   38.7270   24.0470   36.0250 N   0  0  0  0  0  0  0  0  0  0  0  0
   40.0210   23.4330   36.2890 C   0  0  0  0  0  0  0  0  0  0  0  0
   40.0420   22.5540   37.4910 C   0  0  0  0  0  0  0  0  0  0  0  0
   39.1750   22.8870   38.5540 N   0  0  0  0  0  0  0  0  0  0  0  0
   37.8550   23.3340   38.0910 C   0  0  0  0  0  0  0  0  0  0  0  0
   38.1390   24.5370   37.2250 C   0  0  0  0  0  0  0  0  0  0  0  0
   40.2840   22.8760   35.3690 H   0  0  0  0  0  0  0  0  0  0  0  0
   40.7400   24.2700   36.4150 H   0  0  0  0  0  0  0  0  0  0  0  0
   39.8970   21.5110   37.1360 H   0  0  0  0  0  0  0  0  0  0  0  0
   41.0970   22.5800   37.8860 H   0  0  0  0  0  0  0  0  0  0  0  0
   38.9990   22.0290   39.1260 H   0  0  0  0  0  0  0  0  0  0  0  0
   37.3200   22.5680   37.5280 H   0  0  0  0  0  0  0  0  0  0  0  0
   37.2680   23.6900   38.9450 H   0  0  0  0  0  0  0  0  0  0  0  0
   37.2190   25.1090   36.9950 H   0  0  0  0  0  0  0  0  0  0  0  0
   38.8130   25.2170   37.7940 H   0  0  0  0  0  0  0  0  0  0  0  0
   38.1660   24.1200   34.7120 C   0  0  0  0  0  0  0  0  0  0  0  0
   38.0080   22.9850   33.9000 C   0  0  0  0  0  0  0  0  0  0  0  0
   37.4480   23.1630   32.6310 C   0  0  0  0  0  0  0  0  0  0  0  0
   37.0830   24.4170   32.2380 N   0  0  0  0  0  0  0  0  0  0  0  0
   37.2610   25.4810   33.0690 C   0  0  0  0  0  0  0  0  0  0  0  0
   37.7910   25.3480   34.2840 N   0  0  0  0  0  0  0  0  0  0  0  0
   38.3190   22.0350   34.2790 H   0  0  0  0  0  0  0  0  0  0  0  0
   37.3130   22.3230   31.9880 H   0  0  0  0  0  0  0  0  0  0  0  0
   36.8730   26.8230   32.6550 C   0  0  0  0  0  0  0  0  0  0  0  0
   37.3700   27.7350   32.9490 H   0  0  0  0  0  0  0  0  0  0  0  0
   35.8980   27.0640   31.8980 O   0  0  0  0  0  0  0  0  0  0  0  0
  1  2  1  0  0  0  0
  1  6  1  0  0  0  0
  2  8  1  0  0  0  0
  2  3  1  0  0  0  0
  3 10  1  0  0  0  0
  3  4  1  0  0  0  0
  4 11  1  0  0  0  0
  5  4  1  0  0  0  0
  5 13  1  0  0  0  0
  6 15  1  0  0  0  0
  6  5  1  0  0  0  0
  7  2  1  0  0  0  0
  9  3  1  0  0  0  0
 12  5  1  0  0  0  0
 14  6  1  0  0  0  0
 16  1  1  0  0  0  0
 17 22  1  0  0  0  0
 17 16  2  0  0  0  0
 18 17  1  0  0  0  0
 19 18  2  0  0  0  0
 19 20  1  0  0  0  0
 20 21  2  0  0  0  0
 21 16  1  0  0  0  0
 23 18  1  0  0  0  0
 24 25  1  0  0  0  0
 24 20  1  0  0  0  0
 26 24  2  0  0  0  0
M  END
>  <minimizedAffinity>
-4.0887394

$$$$

 OpenBabel03272504313D

 26 27  0  0  0  0  0  0  0  0999 V2000
   38.6630   24.1090   36.2140 N   0  0  0  0  0  0  0  0  0  0  0  0
   37.8000   24.2410   37.3800 C   0  0  0  0  0  0  0  0  0  0  0  0
   38.3880   23.6980   38.6350 C   0  0  0  0  0  0  0  0  0  0  0  0
   39.2740   22.6050   38.5180 N   0  0  0  0  0  0  0  0  0  0  0  0
   40.1800   22.7290   37.3700 C   0  0  0  0  0  0  0  0  0  0  0  0
   39.2690   22.8210   36.1700 C   0  0  0  0  0  0  0  0  0  0  0  0
   37.5740   25.3220   37.4660 H   0  0  0  0  0  0  0  0  0  0  0  0
   36.8620   23.7000   37.1320 H   0  0  0  0  0  0  0  0  0  0  0  0
   38.8400   24.5540   39.1820 H   0  0  0  0  0  0  0  0  0  0  0  0
   37.5220   23.3720   39.2770 H   0  0  0  0  0  0  0  0  0  0  0  0
   39.8890   22.5790   39.3640 H   0  0  0  0  0  0  0  0  0  0  0  0
   40.8290   23.6040   37.4330 H   0  0  0  0  0  0  0  0  0  0  0  0
   40.7600   21.8060   37.2580 H   0  0  0  0  0  0  0  0  0  0  0  0
   39.8220   22.6900   35.2200 H   0  0  0  0  0  0  0  0  0  0  0  0
   38.5310   21.9900   36.2360 H   0  0  0  0  0  0  0  0  0  0  0  0
   38.8450   25.1670   35.2700 C   0  0  0  0  0  0  0  0  0  0  0  0
   37.7660   25.7700   34.6030 C   0  0  0  0  0  0  0  0  0  0  0  0
   38.0500   26.7970   33.6980 C   0  0  0  0  0  0  0  0  0  0  0  0
   39.3480   27.1670   33.5030 N   0  0  0  0  0  0  0  0  0  0  0  0
   40.3540   26.5460   34.1770 C   0  0  0  0  0  0  0  0  0  0  0  0
   40.1200   25.5630   35.0470 N   0  0  0  0  0  0  0  0  0  0  0  0
   36.7760   25.4240   34.8110 H   0  0  0  0  0  0  0  0  0  0  0  0
   37.2550   27.2780   33.1740 H   0  0  0  0  0  0  0  0  0  0  0  0
   41.7430   26.9360   33.9730 C   0  0  0  0  0  0  0  0  0  0  0  0
   42.0720   27.8130   33.4370 H   0  0  0  0  0  0  0  0  0  0  0  0
   42.7220   26.2790   34.4080 O   0  0  0  0  0  0  0  0  0  0  0  0
  1  2  1  0  0  0  0
  2  7  1  0  0  0  0
  2  3  1  0  0  0  0
  3  9  1  0  0  0  0
  3 10  1  0  0  0  0
  4  3  1  0  0  0  0
  4 11  1  0  0  0  0
  5 12  1  0  0  0  0
  5  4  1  0  0  0  0
  6  1  1  0  0  0  0
  6 15  1  0  0  0  0
  6  5  1  0  0  0  0
  8  2  1  0  0  0  0
 13  5  1  0  0  0  0
 14  6  1  0  0  0  0
 16  1  1  0  0  0  0
 17 22  1  0  0  0  0
 17 16  2  0  0  0  0
 18 17  1  0  0  0  0
 19 18  2  0  0  0  0
 19 20  1  0  0  0  0
 20 21  2  0  0  0  0
 21 16  1  0  0  0  0
 23 18  1  0  0  0  0
 24 20  1  0  0  0  0
 24 26  2  0  0  0  0
 25 24  1  0  0  0  0
M  END
>  <minimizedAffinity>
-4.0842042

$$$$

 OpenBabel03272504313D

 26 27  0  0  0  0  0  0  0  0999 V2000
   38.7730   23.6080   35.9710 N   0  0  0  0  0  0  0  0  0  0  0  0
   40.1020   23.0960   36.2770 C   0  0  0  0  0  0  0  0  0  0  0  0
   40.2140   22.4660   37.6220 C   0  0  0  0  0  0  0  0  0  0  0  0
   39.3860   22.9710   38.6480 N   0  0  0  0  0  0  0  0  0  0  0  0
   38.0290   23.2810   38.1800 C   0  0  0  0  0  0  0  0  0  0  0  0
   38.2230   24.3020   37.0860 C   0  0  0  0  0  0  0  0  0  0  0  0
   40.3420   22.3800   35.4670 H   0  0  0  0  0  0  0  0  0  0  0  0
   40.7910   23.9630   36.2020 H   0  0  0  0  0  0  0  0  0  0  0  0
   40.0950   21.3700   37.4810 H   0  0  0  0  0  0  0  0  0  0  0  0
   41.2850   22.6000   37.9460 H   0  0  0  0  0  0  0  0  0  0  0  0
   39.2730   22.2350   39.3810 H   0  0  0  0  0  0  0  0  0  0  0  0
   37.4990   22.4040   37.8040 H   0  0  0  0  0  0  0  0  0  0  0  0
   37.4690   23.7760   38.9810 H   0  0  0  0  0  0  0  0  0  0  0  0
   37.2710   24.7910   36.8020 H   0  0  0  0  0  0  0  0  0  0  0  0
   38.8960   25.0990   37.4770 H   0  0  0  0  0  0  0  0  0  0  0  0
   38.1470   23.4090   34.7010 C   0  0  0  0  0  0  0  0  0  0  0  0
   38.0950   24.4170   33.7250 C   0  0  0  0  0  0  0  0  0  0  0  0
   37.4600   24.1220   32.5140 C   0  0  0  0  0  0  0  0  0  0  0  0
   36.9250   22.8800   32.3340 N   0  0  0  0  0  0  0  0  0  0  0  0
   37.0060   21.9410   33.3160 C   0  0  0  0  0  0  0  0  0  0  0  0
   37.6030   22.1890   34.4820 N   0  0  0  0  0  0  0  0  0  0  0  0
   38.5380   25.3650   33.9420 H   0  0  0  0  0  0  0  0  0  0  0  0
   37.4020   24.8640   31.7510 H   0  0  0  0  0  0  0  0  0  0  0  0
   36.4360   20.6140   33.1290 C   0  0  0  0  0  0  0  0  0  0  0  0
   36.7890   19.8770   32.4240 H   0  0  0  0  0  0  0  0  0  0  0  0
   35.4540   20.1800   33.7820 O   0  0  0  0  0  0  0  0  0  0  0  0
  1  2  1  0  0  0  0
  1  6  1  0  0  0  0
  2  3  1  0  0  0  0
  3 10  1  0  0  0  0
  3  4  1  0  0  0  0
  4 11  1  0  0  0  0
  5  4  1  0  0  0  0
  5 13  1  0  0  0  0
  6 15  1  0  0  0  0
  6  5  1  0  0  0  0
  7  2  1  0  0  0  0
  8  2  1  0  0  0  0
  9  3  1  0  0  0  0
 12  5  1  0  0  0  0
 14  6  1  0  0  0  0
 16  1  1  0  0  0  0
 17 22  1  0  0  0  0
 17 16  2  0  0  0  0
 18 17  1  0  0  0  0
 19 18  2  0  0  0  0
 19 20  1  0  0  0  0
 20 21  2  0  0  0  0
 21 16  1  0  0  0  0
 23 18  1  0  0  0  0
 24 20  1  0  0  0  0
 24 26  2  0  0  0  0
 25 24  1  0  0  0  0
M  END
>  <minimizedAffinity>
-4.06829739

$$$$

 OpenBabel03272504313D

 26 27  0  0  0  0  0  0  0  0999 V2000
   38.3580   24.7300   35.4530 N   0  0  0  0  0  0  0  0  0  0  0  0
   39.3600   23.8020   34.9470 C   0  0  0  0  0  0  0  0  0  0  0  0
   39.1930   22.4050   35.4340 C   0  0  0  0  0  0  0  0  0  0  0  0
   38.6330   22.2270   36.7180 N   0  0  0  0  0  0  0  0  0  0  0  0
   37.5250   23.1520   36.9870 C   0  0  0  0  0  0  0  0  0  0  0  0
   38.1290   24.5270   36.8440 C   0  0  0  0  0  0  0  0  0  0  0  0
   39.2950   23.8610   33.8430 H   0  0  0  0  0  0  0  0  0  0  0  0
   40.3430   24.2040   35.2680 H   0  0  0  0  0  0  0  0  0  0  0  0
   38.6380   21.8480   34.6490 H   0  0  0  0  0  0  0  0  0  0  0  0
   40.2220   21.9450   35.4400 H   0  0  0  0  0  0  0  0  0  0  0  0
   38.2220   21.2670   36.7760 H   0  0  0  0  0  0  0  0  0  0  0  0
   36.6870   23.0220   36.3000 H   0  0  0  0  0  0  0  0  0  0  0  0
   37.2090   23.0520   38.0310 H   0  0  0  0  0  0  0  0  0  0  0  0
   37.4620   25.3160   37.2410 H   0  0  0  0  0  0  0  0  0  0  0  0
   39.0650   24.5550   37.4470 H   0  0  0  0  0  0  0  0  0  0  0  0
   37.7180   25.6990   34.6190 C   0  0  0  0  0  0  0  0  0  0  0  0
   37.4220   26.9960   35.0670 C   0  0  0  0  0  0  0  0  0  0  0  0
   36.7950   27.8690   34.1720 C   0  0  0  0  0  0  0  0  0  0  0  0
   36.5000   27.4290   32.9150 N   0  0  0  0  0  0  0  0  0  0  0  0
   36.8110   26.1590   32.5350 C   0  0  0  0  0  0  0  0  0  0  0  0
   37.4090   25.3010   33.3620 N   0  0  0  0  0  0  0  0  0  0  0  0
   37.6850   27.2660   36.0670 H   0  0  0  0  0  0  0  0  0  0  0  0
   36.5550   28.8620   34.4790 H   0  0  0  0  0  0  0  0  0  0  0  0
   36.4990   25.6830   31.1950 C   0  0  0  0  0  0  0  0  0  0  0  0
   37.2040   25.6030   30.3810 H   0  0  0  0  0  0  0  0  0  0  0  0
   35.3530   25.3100   30.8370 O   0  0  0  0  0  0  0  0  0  0  0  0
  1  6  1  0  0  0  0
  2  8  1  0  0  0  0
  2  3  1  0  0  0  0
  2  1  1  0  0  0  0
  3 10  1  0  0  0  0
  3  4  1  0  0  0  0
  4 11  1  0  0  0  0
  4  5  1  0  0  0  0
  5 13  1  0  0  0  0
  6  5  1  0  0  0  0
  6 14  1  0  0  0  0
  6 15  1  0  0  0  0
  7  2  1  0  0  0  0
  9  3  1  0  0  0  0
 12  5  1  0  0  0  0
 16 17  1  0  0  0  0
 16  1  1  0  0  0  0
 17 22  1  0  0  0  0
 18 23  1  0  0  0  0
 18 17  2  0  0  0  0
 19 18  1  0  0  0  0
 20 19  2  0  0  0  0
 20 21  1  0  0  0  0
 21 16  2  0  0  0  0
 24 20  1  0  0  0  0
 25 24  1  0  0  0  0
 26 24  2  0  0  0  0
M  END
>  <minimizedAffinity>
-3.95343614

$$$$

 OpenBabel03272504313D

 26 27  0  0  0  0  0  0  0  0999 V2000
   37.3880   25.9130   32.5780 N   0  0  0  0  0  0  0  0  0  0  0  0
   37.3630   27.0830   31.7120 C   0  0  0  0  0  0  0  0  0  0  0  0
   36.1820   27.1420   30.8060 C   0  0  0  0  0  0  0  0  0  0  0  0
   35.6340   25.9160   30.3730 N   0  0  0  0  0  0  0  0  0  0  0  0
   35.5950   24.9040   31.4360 C   0  0  0  0  0  0  0  0  0  0  0  0
   37.0340   24.7360   31.8590 C   0  0  0  0  0  0  0  0  0  0  0  0
   37.4060   27.9600   32.3880 H   0  0  0  0  0  0  0  0  0  0  0  0
   38.2990   27.0470   31.1170 H   0  0  0  0  0  0  0  0  0  0  0  0
   35.4270   27.7960   31.2960 H   0  0  0  0  0  0  0  0  0  0  0  0
   36.5100   27.7150   29.8940 H   0  0  0  0  0  0  0  0  0  0  0  0
   34.6380   26.0730   30.0940 H   0  0  0  0  0  0  0  0  0  0  0  0
   34.9730   25.2010   32.2820 H   0  0  0  0  0  0  0  0  0  0  0  0
   35.2740   23.9440   31.0180 H   0  0  0  0  0  0  0  0  0  0  0  0
   37.1770   23.8410   32.4950 H   0  0  0  0  0  0  0  0  0  0  0  0
   37.6460   24.5870   30.9410 H   0  0  0  0  0  0  0  0  0  0  0  0
   37.7300   25.9920   33.9640 C   0  0  0  0  0  0  0  0  0  0  0  0
   37.9450   27.2170   34.6150 C   0  0  0  0  0  0  0  0  0  0  0  0
   38.2740   27.1860   35.9740 C   0  0  0  0  0  0  0  0  0  0  0  0
   38.3720   25.9800   36.6040 N   0  0  0  0  0  0  0  0  0  0  0  0
   38.1530   24.8230   35.9210 C   0  0  0  0  0  0  0  0  0  0  0  0
   37.8370   24.8160   34.6260 N   0  0  0  0  0  0  0  0  0  0  0  0
   37.8490   28.1210   34.0530 H   0  0  0  0  0  0  0  0  0  0  0  0
   38.4440   28.0980   36.5000 H   0  0  0  0  0  0  0  0  0  0  0  0
   38.2550   23.5320   36.5880 C   0  0  0  0  0  0  0  0  0  0  0  0
   39.0660   22.8300   36.4690 H   0  0  0  0  0  0  0  0  0  0  0  0
   37.3920   23.0920   37.3890 O   0  0  0  0  0  0  0  0  0  0  0  0
  1 16  1  0  0  0  0
  2  7  1  0  0  0  0
  2  1  1  0  0  0  0
  3  9  1  0  0  0  0
  3  2  1  0  0  0  0
  4  3  1  0  0  0  0
  4  5  1  0  0  0  0
  5  6  1  0  0  0  0
  5 12  1  0  0  0  0
  6 14  1  0  0  0  0
  6  1  1  0  0  0  0
  8  2  1  0  0  0  0
 10  3  1  0  0  0  0
 11  4  1  0  0  0  0
 13  5  1  0  0  0  0
 15  6  1  0  0  0  0
 16 17  2  0  0  0  0
 16 21  1  0  0  0  0
 17 18  1  0  0  0  0
 18 23  1  0  0  0  0
 18 19  2  0  0  0  0
 20 24  1  0  0  0  0
 20 19  1  0  0  0  0
 21 20  2  0  0  0  0
 22 17  1  0  0  0  0
 24 26  2  0  0  0  0
 25 24  1  0  0  0  0
M  END
>  <minimizedAffinity>
-3.90337348

$$$$

 OpenBabel03272504313D

 26 27  0  0  0  0  0  0  0  0999 V2000
   38.4080   25.7220   35.1590 N   0  0  0  0  0  0  0  0  0  0  0  0
   37.9690   27.0880   35.4080 C   0  0  0  0  0  0  0  0  0  0  0  0
   36.9070   27.5630   34.4800 C   0  0  0  0  0  0  0  0  0  0  0  0
   36.9040   27.0370   33.1700 N   0  0  0  0  0  0  0  0  0  0  0  0
   37.2120   25.6020   33.1360 C   0  0  0  0  0  0  0  0  0  0  0  0
   38.5790   25.4860   33.7650 C   0  0  0  0  0  0  0  0  0  0  0  0
   37.6320   27.1090   36.4630 H   0  0  0  0  0  0  0  0  0  0  0  0
   38.8740   27.7250   35.3110 H   0  0  0  0  0  0  0  0  0  0  0  0
   35.9330   27.4200   34.9970 H   0  0  0  0  0  0  0  0  0  0  0  0
   37.0290   28.6810   34.4020 H   0  0  0  0  0  0  0  0  0  0  0  0
   35.9420   27.1310   32.7720 H   0  0  0  0  0  0  0  0  0  0  0  0
   36.4820   24.9970   33.6770 H   0  0  0  0  0  0  0  0  0  0  0  0
   37.3130   25.2730   32.0950 H   0  0  0  0  0  0  0  0  0  0  0  0
   39.0290   24.4890   33.5980 H   0  0  0  0  0  0  0  0  0  0  0  0
   39.2450   26.2320   33.2760 H   0  0  0  0  0  0  0  0  0  0  0  0
   38.6220   24.7800   36.2130 C   0  0  0  0  0  0  0  0  0  0  0  0
   37.9090   24.8330   37.4210 C   0  0  0  0  0  0  0  0  0  0  0  0
   38.1930   23.8640   38.3900 C   0  0  0  0  0  0  0  0  0  0  0  0
   39.1400   22.9190   38.1220 N   0  0  0  0  0  0  0  0  0  0  0  0
   39.8000   22.9170   36.9310 C   0  0  0  0  0  0  0  0  0  0  0  0
   39.5540   23.8250   35.9860 N   0  0  0  0  0  0  0  0  0  0  0  0
   37.1830   25.6050   37.5560 H   0  0  0  0  0  0  0  0  0  0  0  0
   37.6710   23.8730   39.3190 H   0  0  0  0  0  0  0  0  0  0  0  0
   40.8110   21.9100   36.6400 C   0  0  0  0  0  0  0  0  0  0  0  0
   40.6680   21.0450   36.0110 H   0  0  0  0  0  0  0  0  0  0  0  0
   41.9800   21.9440   37.1020 O   0  0  0  0  0  0  0  0  0  0  0  0
  1  2  1  0  0  0  0
  1 16  1  0  0  0  0
  2  7  1  0  0  0  0
  3  9  1  0  0  0  0
  3  2  1  0  0  0  0
  4  3  1  0  0  0  0
  5  4  1  0  0  0  0
  5 12  1  0  0  0  0
  5  6  1  0  0  0  0
  6  1  1  0  0  0  0
  8  2  1  0  0  0  0
 10  3  1  0  0  0  0
 11  4  1  0  0  0  0
 13  5  1  0  0  0  0
 14  6  1  0  0  0  0
 15  6  1  0  0  0  0
 16 17  1  0  0  0  0
 17 22  1  0  0  0  0
 17 18  2  0  0  0  0
 18 23  1  0  0  0  0
 19 18  1  0  0  0  0
 20 19  2  0  0  0  0
 21 16  2  0  0  0  0
 21 20  1  0  0  0  0
 24 20  1  0  0  0  0
 24 26  2  0  0  0  0
 25 24  1  0  0  0  0
M  END
>  <minimizedAffinity>
-3.83911467

$$$$

 OpenBabel03272504313D

 26 27  0  0  0  0  0  0  0  0999 V2000
   37.8810   26.1540   34.3100 N   0  0  0  0  0  0  0  0  0  0  0  0
   37.4060   27.3000   35.0730 C   0  0  0  0  0  0  0  0  0  0  0  0
   36.4550   28.1720   34.3290 C   0  0  0  0  0  0  0  0  0  0  0  0
   36.6100   28.2570   32.9290 N   0  0  0  0  0  0  0  0  0  0  0  0
   36.9310   26.9620   32.3150 C   0  0  0  0  0  0  0  0  0  0  0  0
   38.2150   26.5300   32.9780 C   0  0  0  0  0  0  0  0  0  0  0  0
   36.9470   26.8820   35.9900 H   0  0  0  0  0  0  0  0  0  0  0  0
   38.3100   27.8770   35.3580 H   0  0  0  0  0  0  0  0  0  0  0  0
   35.4280   27.8630   34.6250 H   0  0  0  0  0  0  0  0  0  0  0  0
   36.5760   29.2090   34.7530 H   0  0  0  0  0  0  0  0  0  0  0  0
   35.7000   28.5530   32.5070 H   0  0  0  0  0  0  0  0  0  0  0  0
   36.1480   26.2170   32.4600 H   0  0  0  0  0  0  0  0  0  0  0  0
   37.1560   27.1060   31.2520 H   0  0  0  0  0  0  0  0  0  0  0  0
   38.6900   25.6820   32.4480 H   0  0  0  0  0  0  0  0  0  0  0  0
   38.9280   27.3840   32.9320 H   0  0  0  0  0  0  0  0  0  0  0  0
   37.9780   24.8440   34.8730 C   0  0  0  0  0  0  0  0  0  0  0  0
   38.1400   23.6970   34.0800 C   0  0  0  0  0  0  0  0  0  0  0  0
   38.2250   22.4610   34.7290 C   0  0  0  0  0  0  0  0  0  0  0  0
   38.1480   22.4220   36.0910 N   0  0  0  0  0  0  0  0  0  0  0  0
   37.9910   23.5680   36.8090 C   0  0  0  0  0  0  0  0  0  0  0  0
   37.9060   24.7620   36.2230 N   0  0  0  0  0  0  0  0  0  0  0  0
   38.1910   23.8100   33.0190 H   0  0  0  0  0  0  0  0  0  0  0  0
   38.3480   21.5690   34.1580 H   0  0  0  0  0  0  0  0  0  0  0  0
   37.9090   23.5320   38.2620 C   0  0  0  0  0  0  0  0  0  0  0  0
   36.9970   23.4520   38.8350 H   0  0  0  0  0  0  0  0  0  0  0  0
   38.9120   23.5920   39.0180 O   0  0  0  0  0  0  0  0  0  0  0  0
  1 16  1  0  0  0  0
  1  2  1  0  0  0  0
  2  8  1  0  0  0  0
  2  7  1  0  0  0  0
  3  9  1  0  0  0  0
  3 10  1  0  0  0  0
  3  2  1  0  0  0  0
  4  3  1  0  0  0  0
  5 12  1  0  0  0  0
  5  4  1  0  0  0  0
  5  6  1  0  0  0  0
  6  1  1  0  0  0  0
 11  4  1  0  0  0  0
 13  5  1  0  0  0  0
 14  6  1  0  0  0  0
 15  6  1  0  0  0  0
 16 21  1  0  0  0  0
 17 18  1  0  0  0  0
 17 16  2  0  0  0  0
 18 19  2  0  0  0  0
 19 20  1  0  0  0  0
 20 24  1  0  0  0  0
 21 20  2  0  0  0  0
 22 17  1  0  0  0  0
 23 18  1  0  0  0  0
 24 25  1  0  0  0  0
 24 26  2  0  0  0  0
M  END
>  <minimizedAffinity>
-3.75516105

$$$$
