
 OpenBabel03272509493D

 27 28  0  0  0  0  0  0  0  0999 V2000
   33.7250   28.5970   48.7090 C   0  0  0  0  0  0  0  0  0  0  0  0
   33.1940   29.5150   49.0250 H   0  0  0  0  0  0  0  0  0  0  0  0
   34.3490   28.8890   47.8220 H   0  0  0  0  0  0  0  0  0  0  0  0
   32.8150   27.4630   48.3440 C   0  0  0  0  0  0  0  0  0  0  0  0
   33.0470   27.0530   47.3210 H   0  0  0  0  0  0  0  0  0  0  0  0
   32.9500   26.6010   49.0330 H   0  0  0  0  0  0  0  0  0  0  0  0
   31.3750   27.8630   48.3490 C   0  0  0  0  0  0  0  0  0  0  0  0
   30.7000   27.7310   49.5350 C   0  0  0  0  0  0  0  0  0  0  0  0
   29.3690   28.0680   49.6610 C   0  0  0  0  0  0  0  0  0  0  0  0
   28.7220   28.5400   48.5800 N   0  0  0  0  0  0  0  0  0  0  0  0
   29.3920   28.6670   47.4170 C   0  0  0  0  0  0  0  0  0  0  0  0
   30.6930   28.3390   47.2910 N   0  0  0  0  0  0  0  0  0  0  0  0
   31.1680   27.3550   50.4440 H   0  0  0  0  0  0  0  0  0  0  0  0
   28.8180   27.9710   50.5870 H   0  0  0  0  0  0  0  0  0  0  0  0
   28.8380   29.0510   46.5680 H   0  0  0  0  0  0  0  0  0  0  0  0
   34.6410   28.2050   49.7220 O   0  0  0  0  0  0  0  0  0  0  0  0
   37.2380   30.1900   51.2800 C   0  0  0  0  0  0  0  0  0  0  0  0
   37.9030   30.6450   50.1230 C   0  0  0  0  0  0  0  0  0  0  0  0
   37.4240   30.2480   48.8880 C   0  0  0  0  0  0  0  0  0  0  0  0
   36.3270   29.4320   48.9000 N   0  0  0  0  0  0  0  0  0  0  0  0
   35.7120   29.0110   50.0000 C   0  0  0  0  0  0  0  0  0  0  0  0
   36.1780   29.3980   51.1960 N   0  0  0  0  0  0  0  0  0  0  0  0
   37.6180   30.5050   52.2550 H   0  0  0  0  0  0  0  0  0  0  0  0
   38.7570   31.2820   50.1470 H   0  0  0  0  0  0  0  0  0  0  0  0
   38.0580   30.6780   47.6310 C   0  0  0  0  0  0  0  0  0  0  0  0
   37.7750   30.1320   46.7410 H   0  0  0  0  0  0  0  0  0  0  0  0
   38.8690   31.6370   47.7010 O   0  0  0  0  0  0  0  0  0  0  0  0
  1  2  1  0  0  0  0
  1 16  1  0  0  0  0
  3  1  1  0  0  0  0
  4  7  1  0  0  0  0
  4  1  1  0  0  0  0
  4  6  1  0  0  0  0
  5  4  1  0  0  0  0
  7  8  1  0  0  0  0
  8  9  2  0  0  0  0
  8 13  1  0  0  0  0
  9 14  1  0  0  0  0
 10  9  1  0  0  0  0
 11 10  2  0  0  0  0
 12 11  1  0  0  0  0
 12  7  2  0  0  0  0
 15 11  1  0  0  0  0
 16 21  1  0  0  0  0
 17 23  1  0  0  0  0
 18 24  1  0  0  0  0
 18 17  2  0  0  0  0
 19 20  2  0  0  0  0
 19 18  1  0  0  0  0
 20 21  1  0  0  0  0
 21 22  2  0  0  0  0
 22 17  1  0  0  0  0
 25 27  2  0  0  0  0
 25 19  1  0  0  0  0
 26 25  1  0  0  0  0
M  END
>  <minimizedAffinity>
-4.73941135

>  <minimizedRMSD>
0.148979262

$$$$
