
 OpenBabel03272509493D

 27 28  0  0  0  0  0  0  0  0999 V2000
   33.6640   28.5770   49.1720 C   0  0  0  0  0  0  0  0  0  0  0  0
   33.1930   28.9020   50.1200 H   0  0  0  0  0  0  0  0  0  0  0  0
   33.7820   29.5060   48.5500 H   0  0  0  0  0  0  0  0  0  0  0  0
   32.8700   27.5530   48.4180 C   0  0  0  0  0  0  0  0  0  0  0  0
   33.2220   27.4530   47.3520 H   0  0  0  0  0  0  0  0  0  0  0  0
   33.0010   26.5400   48.8560 H   0  0  0  0  0  0  0  0  0  0  0  0
   31.4120   27.8770   48.3780 C   0  0  0  0  0  0  0  0  0  0  0  0
   30.7130   27.7290   49.5480 C   0  0  0  0  0  0  0  0  0  0  0  0
   29.3630   27.9980   49.6330 C   0  0  0  0  0  0  0  0  0  0  0  0
   28.7220   28.4180   48.5280 N   0  0  0  0  0  0  0  0  0  0  0  0
   29.4160   28.5620   47.3810 C   0  0  0  0  0  0  0  0  0  0  0  0
   30.7350   28.3010   47.2940 N   0  0  0  0  0  0  0  0  0  0  0  0
   31.1750   27.3930   50.4750 H   0  0  0  0  0  0  0  0  0  0  0  0
   28.7930   27.8870   50.5460 H   0  0  0  0  0  0  0  0  0  0  0  0
   28.8660   28.9030   46.5110 H   0  0  0  0  0  0  0  0  0  0  0  0
   34.9800   28.1070   49.4310 O   0  0  0  0  0  0  0  0  0  0  0  0
   37.2010   30.1860   51.3960 C   0  0  0  0  0  0  0  0  0  0  0  0
   37.8980   30.8270   50.3510 C   0  0  0  0  0  0  0  0  0  0  0  0
   37.5660   30.5110   49.0460 C   0  0  0  0  0  0  0  0  0  0  0  0
   36.5720   29.5860   48.8820 N   0  0  0  0  0  0  0  0  0  0  0  0
   35.9260   28.9910   49.8780 C   0  0  0  0  0  0  0  0  0  0  0  0
   36.2490   29.2980   51.1420 N   0  0  0  0  0  0  0  0  0  0  0  0
   37.4640   30.4360   52.4260 H   0  0  0  0  0  0  0  0  0  0  0  0
   38.6680   31.5450   50.5120 H   0  0  0  0  0  0  0  0  0  0  0  0
   38.2430   31.1340   47.8970 C   0  0  0  0  0  0  0  0  0  0  0  0
   38.6730   32.1120   48.0680 H   0  0  0  0  0  0  0  0  0  0  0  0
   38.2640   30.4810   46.8230 O   0  0  0  0  0  0  0  0  0  0  0  0
  1 16  1  0  0  0  0
  1  2  1  0  0  0  0
  3  1  1  0  0  0  0
  4  6  1  0  0  0  0
  4  1  1  0  0  0  0
  5  4  1  0  0  0  0
  7  4  1  0  0  0  0
  7  8  1  0  0  0  0
  8  9  2  0  0  0  0
  8 13  1  0  0  0  0
  9 14  1  0  0  0  0
 10  9  1  0  0  0  0
 11 10  2  0  0  0  0
 12 11  1  0  0  0  0
 12  7  2  0  0  0  0
 15 11  1  0  0  0  0
 16 21  1  0  0  0  0
 17 23  1  0  0  0  0
 18 24  1  0  0  0  0
 18 17  2  0  0  0  0
 19 18  1  0  0  0  0
 20 19  2  0  0  0  0
 20 21  1  0  0  0  0
 21 22  2  0  0  0  0
 22 17  1  0  0  0  0
 25 26  1  0  0  0  0
 25 19  1  0  0  0  0
 27 25  2  0  0  0  0
M  END
>  <minimizedAffinity>
-4.65049124

>  <minimizedRMSD>
0.325520813

$$$$
