
 OpenBabel03272505053D

 27 28  0  0  1  0  0  0  0  0999 V2000
   37.6140   30.1540   51.1570 C   0  0  0  0  0  0  0  0  0  0  0  0
   38.2440   30.9050   50.1650 C   0  0  0  0  0  0  0  0  0  0  0  0
   37.7530   30.7680   48.8790 C   0  0  0  0  0  0  0  0  0  0  0  0
   36.7030   29.9280   48.6430 N   0  0  0  0  0  0  0  0  0  0  0  0
   36.1350   29.2280   49.6370 C   0  0  0  0  0  0  0  0  0  0  0  0
   36.5910   29.3370   50.9150 N   0  0  0  0  0  0  0  0  0  0  0  0
   38.2350   31.4360   47.7090 N   0  0  0  0  0  0  0  0  0  0  0  0
   38.5380   32.8370   47.6350 C   0  0  0  0  0  0  0  0  0  0  0  0
   39.8140   33.2020   46.9760 C   0  0  0  0  0  0  0  0  0  0  0  0
   40.2040   32.3880   45.7840 C   0  0  0  0  0  0  0  0  0  0  0  0
   39.9750   30.9240   46.0990 C   0  0  0  0  0  0  0  0  0  0  0  0
   38.4890   30.8220   46.4340 C   0  0  2  0  0  0  0  0  0  0  0  0
   38.0080   30.2700   52.1560 H   0  0  0  0  0  0  0  0  0  0  0  0
   39.0660   31.5770   50.2820 H   0  0  0  0  0  0  0  0  0  0  0  0
   35.3070   28.5790   49.3870 H   0  0  0  0  0  0  0  0  0  0  0  0
   37.6940   33.4400   47.2410 H   0  0  0  0  0  0  0  0  0  0  0  0
   38.6230   33.1680   48.7120 H   0  0  0  0  0  0  0  0  0  0  0  0
   39.7320   34.2580   46.6240 H   0  0  0  0  0  0  0  0  0  0  0  0
   40.6810   33.1950   47.6690 H   0  0  0  0  0  0  0  0  0  0  0  0
   39.6640   32.6310   44.8600 H   0  0  0  0  0  0  0  0  0  0  0  0
   41.2970   32.5010   45.6130 H   0  0  0  0  0  0  0  0  0  0  0  0
   40.2090   30.3210   45.2060 H   0  0  0  0  0  0  0  0  0  0  0  0
   40.6070   30.5540   46.9100 H   0  0  0  0  0  0  0  0  0  0  0  0
   38.1890   29.7570   46.3980 H   0  0  0  0  0  0  0  0  0  0  0  0
   37.7180   31.5500   45.3850 C   0  0  0  0  0  0  0  0  0  0  0  0
   37.8020   32.6390   45.2980 H   0  0  0  0  0  0  0  0  0  0  0  0
   36.9170   31.3600   44.4580 O   0  0  0  0  0  0  0  0  0  0  0  0
  1 13  1  0  0  0  0
  2 14  1  0  0  0  0
  2  1  2  0  0  0  0
  3  2  1  0  0  0  0
  4  3  2  0  0  0  0
  4  5  1  0  0  0  0
  5  6  2  0  0  0  0
  6  1  1  0  0  0  0
  7  3  1  0  0  0  0
  8  7  1  0  0  0  0
  8 17  1  0  0  0  0
  9  8  1  0  0  0  0
  9 19  1  0  0  0  0
 10 11  1  0  0  0  0
 10  9  1  0  0  0  0
 11 12  1  0  0  0  0
 11 23  1  0  0  0  0
 12 24  1  1  0  0  0
 12  7  1  0  0  0  0
 15  5  1  0  0  0  0
 16  8  1  0  0  0  0
 18  9  1  0  0  0  0
 20 10  1  0  0  0  0
 21 10  1  0  0  0  0
 22 11  1  0  0  0  0
 25 12  1  0  0  0  0
 26 25  1  0  0  0  0
 27 25  2  0  0  0  0
M  END
>  <minimizedAffinity>
-4.74455118

>  <minimizedRMSD>
1.10088193

$$$$
