
 OpenBabel03272509493D

 27 28  0  0  0  0  0  0  0  0999 V2000
   33.7210   28.5920   48.7030 C   0  0  0  0  0  0  0  0  0  0  0  0
   33.1920   29.5200   48.9950 H   0  0  0  0  0  0  0  0  0  0  0  0
   34.3570   28.8630   47.8170 H   0  0  0  0  0  0  0  0  0  0  0  0
   32.8080   27.4570   48.3490 C   0  0  0  0  0  0  0  0  0  0  0  0
   33.0380   27.0370   47.3300 H   0  0  0  0  0  0  0  0  0  0  0  0
   32.9420   26.6010   49.0450 H   0  0  0  0  0  0  0  0  0  0  0  0
   31.3690   27.8600   48.3510 C   0  0  0  0  0  0  0  0  0  0  0  0
   30.6910   27.7270   49.5360 C   0  0  0  0  0  0  0  0  0  0  0  0
   29.3600   28.0680   49.6600 C   0  0  0  0  0  0  0  0  0  0  0  0
   28.7170   28.5430   48.5780 N   0  0  0  0  0  0  0  0  0  0  0  0
   29.3900   28.6710   47.4170 C   0  0  0  0  0  0  0  0  0  0  0  0
   30.6900   28.3400   47.2930 N   0  0  0  0  0  0  0  0  0  0  0  0
   31.1560   27.3490   50.4450 H   0  0  0  0  0  0  0  0  0  0  0  0
   28.8070   27.9700   50.5850 H   0  0  0  0  0  0  0  0  0  0  0  0
   28.8390   29.0580   46.5680 H   0  0  0  0  0  0  0  0  0  0  0  0
   34.6230   28.2140   49.7340 O   0  0  0  0  0  0  0  0  0  0  0  0
   37.2420   30.1870   51.2700 C   0  0  0  0  0  0  0  0  0  0  0  0
   37.9020   30.6350   50.1080 C   0  0  0  0  0  0  0  0  0  0  0  0
   37.4130   30.2380   48.8770 C   0  0  0  0  0  0  0  0  0  0  0  0
   36.3100   29.4290   48.8980 N   0  0  0  0  0  0  0  0  0  0  0  0
   35.7010   29.0150   50.0030 C   0  0  0  0  0  0  0  0  0  0  0  0
   36.1760   29.4010   51.1950 N   0  0  0  0  0  0  0  0  0  0  0  0
   37.6300   30.5020   52.2420 H   0  0  0  0  0  0  0  0  0  0  0  0
   38.7600   31.2670   50.1250 H   0  0  0  0  0  0  0  0  0  0  0  0
   38.0410   30.6610   47.6150 C   0  0  0  0  0  0  0  0  0  0  0  0
   38.6860   29.9370   47.1350 H   0  0  0  0  0  0  0  0  0  0  0  0
   37.7770   31.8210   47.2070 O   0  0  0  0  0  0  0  0  0  0  0  0
  1  2  1  0  0  0  0
  1 16  1  0  0  0  0
  3  1  1  0  0  0  0
  4  7  1  0  0  0  0
  4  1  1  0  0  0  0
  4  6  1  0  0  0  0
  5  4  1  0  0  0  0
  7  8  1  0  0  0  0
  8  9  2  0  0  0  0
  8 13  1  0  0  0  0
  9 14  1  0  0  0  0
 10  9  1  0  0  0  0
 11 10  2  0  0  0  0
 12 11  1  0  0  0  0
 12  7  2  0  0  0  0
 15 11  1  0  0  0  0
 16 21  1  0  0  0  0
 17 23  1  0  0  0  0
 18 24  1  0  0  0  0
 18 17  2  0  0  0  0
 19 20  2  0  0  0  0
 19 18  1  0  0  0  0
 20 21  1  0  0  0  0
 21 22  2  0  0  0  0
 22 17  1  0  0  0  0
 25 19  1  0  0  0  0
 26 25  1  0  0  0  0
 27 25  2  0  0  0  0
M  END
>  <minimizedAffinity>
-4.70204401

>  <minimizedRMSD>
0.11834459

$$$$
