
 OpenBabel03272510163D

 22 23  0  0  0  0  0  0  0  0999 V2000
   37.2780   29.3270   51.0370 Br  0  0  0  0  0  0  0  0  0  0  0  0
   35.9540   29.3180   49.6710 C   0  0  0  0  0  0  0  0  0  0  0  0
   35.9880   30.2320   48.6390 C   0  0  0  0  0  0  0  0  0  0  0  0
   34.9860   30.1590   47.6820 C   0  0  0  0  0  0  0  0  0  0  0  0
   33.9700   29.2250   47.7160 C   0  0  0  0  0  0  0  0  0  0  0  0
   33.9680   28.3270   48.7640 C   0  0  0  0  0  0  0  0  0  0  0  0
   34.9550   28.3840   49.7230 C   0  0  0  0  0  0  0  0  0  0  0  0
   35.0580   30.8930   46.8990 H   0  0  0  0  0  0  0  0  0  0  0  0
   33.1840   27.5840   48.8160 H   0  0  0  0  0  0  0  0  0  0  0  0
   34.9450   27.6740   50.5430 H   0  0  0  0  0  0  0  0  0  0  0  0
   37.9780   33.1750   49.4480 C   0  0  0  0  0  0  0  0  0  0  0  0
   39.0170   33.1710   48.4810 C   0  0  0  0  0  0  0  0  0  0  0  0
   39.0020   32.1330   47.5590 C   0  0  0  0  0  0  0  0  0  0  0  0
   38.0160   31.1830   47.6150 N   0  0  0  0  0  0  0  0  0  0  0  0
   37.0390   31.2310   48.5650 C   0  0  0  0  0  0  0  0  0  0  0  0
   37.0380   32.2260   49.4640 N   0  0  0  0  0  0  0  0  0  0  0  0
   37.9010   33.9530   50.2220 H   0  0  0  0  0  0  0  0  0  0  0  0
   39.7420   33.9580   48.5180 H   0  0  0  0  0  0  0  0  0  0  0  0
   39.7810   32.1070   46.8110 H   0  0  0  0  0  0  0  0  0  0  0  0
   32.9450   29.2090   46.6690 C   0  0  0  0  0  0  0  0  0  0  0  0
   32.5650   28.2390   46.3690 H   0  0  0  0  0  0  0  0  0  0  0  0
   32.6190   30.3560   46.2300 O   0  0  0  0  0  0  0  0  0  0  0  0
  2  7  1  0  0  0  0
  2  1  1  0  0  0  0
  3  2  2  0  0  0  0
  4  5  2  0  0  0  0
  4  3  1  0  0  0  0
  5  6  1  0  0  0  0
  6  9  1  0  0  0  0
  6  7  2  0  0  0  0
  7 10  1  0  0  0  0
  8  4  1  0  0  0  0
 11 16  1  0  0  0  0
 11 17  1  0  0  0  0
 12 18  1  0  0  0  0
 12 11  2  0  0  0  0
 13 14  2  0  0  0  0
 13 12  1  0  0  0  0
 14 15  1  0  0  0  0
 15  3  1  0  0  0  0
 15 16  2  0  0  0  0
 19 13  1  0  0  0  0
 20  5  1  0  0  0  0
 21 20  1  0  0  0  0
 22 20  2  0  0  0  0
M  END
>  <minimizedAffinity>
-5.4824214

>  <minimizedRMSD>
0.192580089

$$$$
