
 OpenBabel03262522053D

 34 36  0  0  1  0  0  0  0  0999 V2000
   34.5020   29.0680   48.7260 C   0  0  2  0  0  0  0  0  0  0  0  0
   35.1660   28.3270   49.8340 C   0  0  0  0  0  0  0  0  0  0  0  0
   36.2980   29.1110   50.3240 N   0  0  0  0  0  0  0  0  0  0  0  0
   37.2510   29.8470   51.1160 C   0  0  0  0  0  0  0  0  0  0  0  0
   37.4780   30.0110   52.3250 O   0  0  0  0  0  0  0  0  0  0  0  0
   37.9440   30.4020   49.9910 C   0  0  1  0  0  0  0  0  0  0  0  0
   37.1240   29.3930   49.1900 C   0  0  2  0  0  0  0  0  0  0  0  0
   35.8890   30.1040   48.0780 S   0  0  0  0  0  0  0  0  0  0  0  0
   34.4310   28.2940   50.6880 H   0  0  0  0  0  0  0  0  0  0  0  0
   35.4210   27.2830   49.6340 H   0  0  0  0  0  0  0  0  0  0  0  0
   39.0080   30.0970   49.8880 H   0  0  0  0  0  0  0  0  0  0  0  0
   37.6810   28.5380   48.7770 H   0  0  0  0  0  0  0  0  0  0  0  0
   33.2890   29.8520   49.0820 C   0  0  0  0  0  0  0  0  0  0  0  0
   32.7400   30.1130   48.1780 H   0  0  0  0  0  0  0  0  0  0  0  0
   32.7180   29.3170   49.8410 H   0  0  0  0  0  0  0  0  0  0  0  0
   33.6360   30.8180   49.5520 H   0  0  0  0  0  0  0  0  0  0  0  0
   34.2230   28.0710   47.5810 C   0  0  0  0  0  0  0  0  0  0  0  0
   34.9880   27.2860   47.5570 H   0  0  0  0  0  0  0  0  0  0  0  0
   33.1970   27.6910   47.7030 H   0  0  0  0  0  0  0  0  0  0  0  0
   34.2620   28.7620   46.3730 O   0  0  0  0  0  0  0  0  0  0  0  0
   33.5540   29.4370   46.3170 H   0  0  0  0  0  0  0  0  0  0  0  0
   37.7050   31.8180   49.6780 C   0  0  0  0  0  0  0  0  0  0  0  0
   36.6480   32.2770   50.2250 O   0  0  0  0  0  0  0  0  0  0  0  0
   38.5540   32.6230   48.8550 C   0  0  0  0  0  0  0  0  0  0  0  0
   39.0830   33.7770   49.3820 C   0  0  0  0  0  0  0  0  0  0  0  0
   39.9200   34.5630   48.5510 C   0  0  0  0  0  0  0  0  0  0  0  0
   40.1550   34.1340   47.2820 N   0  0  0  0  0  0  0  0  0  0  0  0
   39.6290   33.0130   46.8030 C   0  0  0  0  0  0  0  0  0  0  0  0
   38.8260   32.2490   47.5820 N   0  0  0  0  0  0  0  0  0  0  0  0
   38.9120   34.1400   50.3900 H   0  0  0  0  0  0  0  0  0  0  0  0
   40.3540   35.4710   48.9220 H   0  0  0  0  0  0  0  0  0  0  0  0
   39.9020   32.5780   45.4260 C   0  0  0  0  0  0  0  0  0  0  0  0
   39.0700   32.4150   44.7540 H   0  0  0  0  0  0  0  0  0  0  0  0
   41.1090   32.4000   45.0430 O   0  0  0  0  0  0  0  0  0  0  0  0
  1 17  1  6  0  0  0
  1 13  1  0  0  0  0
  1  2  1  0  0  0  0
  2  3  1  0  0  0  0
  2  9  1  0  0  0  0
  3  4  1  0  0  0  0
  4  5  2  0  0  0  0
  6 11  1  1  0  0  0
  6  4  1  0  0  0  0
  7 12  1  6  0  0  0
  7  6  1  0  0  0  0
  7  3  1  0  0  0  0
  8  1  1  0  0  0  0
  8  7  1  0  0  0  0
 10  2  1  0  0  0  0
 13 16  1  0  0  0  0
 13 15  1  0  0  0  0
 14 13  1  0  0  0  0
 17 19  1  0  0  0  0
 18 17  1  0  0  0  0
 20 17  1  0  0  0  0
 21 20  1  0  0  0  0
 22  6  1  0  0  0  0
 22 23  2  0  0  0  0
 24 25  1  0  0  0  0
 24 22  1  0  0  0  0
 25 30  1  0  0  0  0
 26 31  1  0  0  0  0
 26 25  2  0  0  0  0
 27 26  1  0  0  0  0
 28 27  2  0  0  0  0
 28 29  1  0  0  0  0
 29 24  2  0  0  0  0
 32 28  1  0  0  0  0
 33 32  1  0  0  0  0
 34 32  2  0  0  0  0
M  END
>  <minimizedAffinity>
-4.95067978

>  <minimizedRMSD>
0.218867034

$$$$
