
 OpenBabel03272510163D

 22 23  0  0  0  0  0  0  0  0999 V2000
   37.2800   29.3590   51.0690 Br  0  0  0  0  0  0  0  0  0  0  0  0
   35.9660   29.3220   49.6940 C   0  0  0  0  0  0  0  0  0  0  0  0
   36.0040   30.2200   48.6470 C   0  0  0  0  0  0  0  0  0  0  0  0
   35.0090   30.1270   47.6840 C   0  0  0  0  0  0  0  0  0  0  0  0
   33.9970   29.1890   47.7260 C   0  0  0  0  0  0  0  0  0  0  0  0
   33.9910   28.3070   48.7880 C   0  0  0  0  0  0  0  0  0  0  0  0
   34.9710   28.3850   49.7530 C   0  0  0  0  0  0  0  0  0  0  0  0
   35.0830   30.8490   46.8900 H   0  0  0  0  0  0  0  0  0  0  0  0
   33.2100   27.5620   48.8460 H   0  0  0  0  0  0  0  0  0  0  0  0
   34.9580   27.6870   50.5840 H   0  0  0  0  0  0  0  0  0  0  0  0
   37.9820   33.1760   49.4330 C   0  0  0  0  0  0  0  0  0  0  0  0
   39.0200   33.1700   48.4650 C   0  0  0  0  0  0  0  0  0  0  0  0
   39.0080   32.1260   47.5510 C   0  0  0  0  0  0  0  0  0  0  0  0
   38.0260   31.1720   47.6150 N   0  0  0  0  0  0  0  0  0  0  0  0
   37.0500   31.2230   48.5650 C   0  0  0  0  0  0  0  0  0  0  0  0
   37.0460   32.2250   49.4570 N   0  0  0  0  0  0  0  0  0  0  0  0
   37.9030   33.9600   50.2020 H   0  0  0  0  0  0  0  0  0  0  0  0
   39.7420   33.9600   48.4950 H   0  0  0  0  0  0  0  0  0  0  0  0
   39.7860   32.0970   46.8020 H   0  0  0  0  0  0  0  0  0  0  0  0
   32.9790   29.1510   46.6720 C   0  0  0  0  0  0  0  0  0  0  0  0
   32.0460   29.6640   46.8730 H   0  0  0  0  0  0  0  0  0  0  0  0
   33.3210   28.5100   45.6310 O   0  0  0  0  0  0  0  0  0  0  0  0
  2  7  1  0  0  0  0
  2  1  1  0  0  0  0
  3  2  2  0  0  0  0
  4  5  2  0  0  0  0
  4  3  1  0  0  0  0
  5  6  1  0  0  0  0
  6  9  1  0  0  0  0
  6  7  2  0  0  0  0
  7 10  1  0  0  0  0
  8  4  1  0  0  0  0
 11 16  1  0  0  0  0
 11 17  1  0  0  0  0
 12 18  1  0  0  0  0
 12 11  2  0  0  0  0
 13 14  2  0  0  0  0
 13 12  1  0  0  0  0
 14 15  1  0  0  0  0
 15  3  1  0  0  0  0
 15 16  2  0  0  0  0
 19 13  1  0  0  0  0
 20 21  1  0  0  0  0
 20  5  1  0  0  0  0
 22 20  2  0  0  0  0
M  END
>  <minimizedAffinity>
-5.37659311

>  <minimizedRMSD>
0.0399774611

$$$$
