
 OpenBabel03272507083D

 33 36  0  0  0  0  0  0  0  0999 V2000
   38.0450   24.2610   32.1190 C   0  0  0  0  0  0  0  0  0  0  0  0
   38.4070   23.7170   33.3570 C   0  0  0  0  0  0  0  0  0  0  0  0
   38.1580   24.4930   34.4870 C   0  0  0  0  0  0  0  0  0  0  0  0
   37.5910   25.7170   34.3360 N   0  0  0  0  0  0  0  0  0  0  0  0
   37.2560   26.2100   33.1290 C   0  0  0  0  0  0  0  0  0  0  0  0
   37.4860   25.4770   32.0200 N   0  0  0  0  0  0  0  0  0  0  0  0
   38.2480   23.6370   31.2480 H   0  0  0  0  0  0  0  0  0  0  0  0
   38.8600   22.7460   33.5030 H   0  0  0  0  0  0  0  0  0  0  0  0
   36.3050   28.1920   34.2140 C   0  0  0  0  0  0  0  0  0  0  0  0
   36.6480   27.5350   33.0460 C   0  0  0  0  0  0  0  0  0  0  0  0
   36.4190   28.1240   31.8340 C   0  0  0  0  0  0  0  0  0  0  0  0
   35.8480   29.3680   31.7470 C   0  0  0  0  0  0  0  0  0  0  0  0
   35.5240   30.1530   30.6860 N   0  0  0  0  0  0  0  0  0  0  0  0
   34.9880   31.2710   31.2700 C   0  0  0  0  0  0  0  0  0  0  0  0
   34.9880   31.1700   32.6020 N   0  0  0  0  0  0  0  0  0  0  0  0
   35.5240   29.9840   32.9380 C   0  0  0  0  0  0  0  0  0  0  0  0
   35.7280   29.4460   34.1720 C   0  0  0  0  0  0  0  0  0  0  0  0
   36.5040   27.6880   35.1490 H   0  0  0  0  0  0  0  0  0  0  0  0
   36.6800   27.6260   30.9180 H   0  0  0  0  0  0  0  0  0  0  0  0
   35.6470   29.9610   29.6670 H   0  0  0  0  0  0  0  0  0  0  0  0
   34.6040   32.1450   30.7420 H   0  0  0  0  0  0  0  0  0  0  0  0
   35.4530   29.9720   35.0980 H   0  0  0  0  0  0  0  0  0  0  0  0
   38.4690   24.0860   35.8490 C   0  0  0  0  0  0  0  0  0  0  0  0
   37.7740   24.5310   36.9560 C   0  0  0  0  0  0  0  0  0  0  0  0
   38.0560   24.1530   38.2550 C   0  0  0  0  0  0  0  0  0  0  0  0
   39.0750   23.2970   38.4390 N   0  0  0  0  0  0  0  0  0  0  0  0
   39.7540   22.8570   37.3910 C   0  0  0  0  0  0  0  0  0  0  0  0
   39.4620   23.2360   36.1610 N   0  0  0  0  0  0  0  0  0  0  0  0
   36.9430   25.2270   36.8170 H   0  0  0  0  0  0  0  0  0  0  0  0
   37.5010   24.5110   39.1110 H   0  0  0  0  0  0  0  0  0  0  0  0
   40.8680   21.9270   37.5450 C   0  0  0  0  0  0  0  0  0  0  0  0
   41.2570   21.5280   38.4730 H   0  0  0  0  0  0  0  0  0  0  0  0
   41.5350   21.4590   36.5800 O   0  0  0  0  0  0  0  0  0  0  0  0
  1  2  1  0  0  0  0
  2  8  1  0  0  0  0
  2  3  2  0  0  0  0
  3 23  1  0  0  0  0
  4  3  1  0  0  0  0
  5  4  2  0  0  0  0
  6  1  2  0  0  0  0
  6  5  1  0  0  0  0
  7  1  1  0  0  0  0
  9 18  1  0  0  0  0
 10  5  1  0  0  0  0
 10  9  2  0  0  0  0
 11 10  1  0  0  0  0
 12 11  2  0  0  0  0
 12 16  1  0  0  0  0
 13 14  1  0  0  0  0
 13 12  1  0  0  0  0
 14 15  2  0  0  0  0
 15 16  1  0  0  0  0
 16 17  2  0  0  0  0
 17  9  1  0  0  0  0
 17 22  1  0  0  0  0
 19 11  1  0  0  0  0
 20 13  1  0  0  0  0
 21 14  1  0  0  0  0
 23 28  2  0  0  0  0
 23 24  1  0  0  0  0
 24 25  2  0  0  0  0
 25 26  1  0  0  0  0
 25 30  1  0  0  0  0
 27 31  1  0  0  0  0
 27 26  2  0  0  0  0
 28 27  1  0  0  0  0
 29 24  1  0  0  0  0
 31 32  1  0  0  0  0
 33 31  2  0  0  0  0
M  END
>  <minimizedAffinity>
-5.84039021

$$$$

 OpenBabel03272507083D

 33 36  0  0  0  0  0  0  0  0999 V2000
   36.9720   28.3880   31.7250 C   0  0  0  0  0  0  0  0  0  0  0  0
   37.7070   27.3490   32.3090 C   0  0  0  0  0  0  0  0  0  0  0  0
   37.5470   27.1520   33.6790 C   0  0  0  0  0  0  0  0  0  0  0  0
   36.7040   27.9620   34.3690 N   0  0  0  0  0  0  0  0  0  0  0  0
   36.0130   28.9520   33.7750 C   0  0  0  0  0  0  0  0  0  0  0  0
   36.1500   29.1630   32.4500 N   0  0  0  0  0  0  0  0  0  0  0  0
   37.1120   28.5240   30.6520 H   0  0  0  0  0  0  0  0  0  0  0  0
   38.3840   26.6920   31.7820 H   0  0  0  0  0  0  0  0  0  0  0  0
   33.7550   29.6320   34.4510 C   0  0  0  0  0  0  0  0  0  0  0  0
   35.1240   29.7830   34.5840 C   0  0  0  0  0  0  0  0  0  0  0  0
   35.6320   30.6970   35.4630 C   0  0  0  0  0  0  0  0  0  0  0  0
   34.8050   31.4810   36.2260 C   0  0  0  0  0  0  0  0  0  0  0  0
   35.0550   32.4430   37.1530 N   0  0  0  0  0  0  0  0  0  0  0  0
   33.8030   32.8390   37.5470 C   0  0  0  0  0  0  0  0  0  0  0  0
   32.8540   32.1600   36.8990 N   0  0  0  0  0  0  0  0  0  0  0  0
   33.4480   31.2940   36.0600 C   0  0  0  0  0  0  0  0  0  0  0  0
   32.8870   30.4000   35.2010 C   0  0  0  0  0  0  0  0  0  0  0  0
   33.4000   28.8960   33.7440 H   0  0  0  0  0  0  0  0  0  0  0  0
   36.6920   30.8270   35.5780 H   0  0  0  0  0  0  0  0  0  0  0  0
   35.9750   32.8030   37.4910 H   0  0  0  0  0  0  0  0  0  0  0  0
   33.5820   33.6070   38.2900 H   0  0  0  0  0  0  0  0  0  0  0  0
   31.7980   30.2830   35.0980 H   0  0  0  0  0  0  0  0  0  0  0  0
   38.2310   26.1230   34.4470 C   0  0  0  0  0  0  0  0  0  0  0  0
   39.4560   25.5930   34.0930 C   0  0  0  0  0  0  0  0  0  0  0  0
   40.1190   24.6160   34.8110 C   0  0  0  0  0  0  0  0  0  0  0  0
   39.5210   24.1610   35.9250 N   0  0  0  0  0  0  0  0  0  0  0  0
   38.3470   24.6550   36.2840 C   0  0  0  0  0  0  0  0  0  0  0  0
   37.7370   25.5890   35.5770 N   0  0  0  0  0  0  0  0  0  0  0  0
   39.9500   25.9570   33.1880 H   0  0  0  0  0  0  0  0  0  0  0  0
   41.0780   24.2130   34.5190 H   0  0  0  0  0  0  0  0  0  0  0  0
   37.6630   24.1900   37.4860 C   0  0  0  0  0  0  0  0  0  0  0  0
   36.8410   23.4870   37.5340 H   0  0  0  0  0  0  0  0  0  0  0  0
   37.9570   24.5650   38.6550 O   0  0  0  0  0  0  0  0  0  0  0  0
  1  2  2  0  0  0  0
  1  6  1  0  0  0  0
  2  3  1  0  0  0  0
  3  4  2  0  0  0  0
  3 23  1  0  0  0  0
  5  4  1  0  0  0  0
  5 10  1  0  0  0  0
  6  5  2  0  0  0  0
  7  1  1  0  0  0  0
  8  2  1  0  0  0  0
  9 10  2  0  0  0  0
  9 17  1  0  0  0  0
 10 11  1  0  0  0  0
 11 19  1  0  0  0  0
 11 12  2  0  0  0  0
 12 13  1  0  0  0  0
 13 20  1  0  0  0  0
 13 14  1  0  0  0  0
 14 21  1  0  0  0  0
 15 14  2  0  0  0  0
 16 12  1  0  0  0  0
 16 15  1  0  0  0  0
 17 16  2  0  0  0  0
 18  9  1  0  0  0  0
 22 17  1  0  0  0  0
 23 28  1  0  0  0  0
 24 23  2  0  0  0  0
 24 25  1  0  0  0  0
 25 26  2  0  0  0  0
 26 27  1  0  0  0  0
 27 31  1  0  0  0  0
 28 27  2  0  0  0  0
 29 24  1  0  0  0  0
 30 25  1  0  0  0  0
 31 32  1  0  0  0  0
 31 33  2  0  0  0  0
M  END
>  <minimizedAffinity>
-5.8276515

$$$$

 OpenBabel03272507083D

 33 36  0  0  0  0  0  0  0  0999 V2000
   37.6020   27.5890   31.6990 C   0  0  0  0  0  0  0  0  0  0  0  0
   36.6740   28.5490   32.1210 C   0  0  0  0  0  0  0  0  0  0  0  0
   36.2680   28.4970   33.4520 C   0  0  0  0  0  0  0  0  0  0  0  0
   36.7790   27.5340   34.2610 N   0  0  0  0  0  0  0  0  0  0  0  0
   37.6700   26.6250   33.8220 C   0  0  0  0  0  0  0  0  0  0  0  0
   38.0790   26.6550   32.5380 N   0  0  0  0  0  0  0  0  0  0  0  0
   37.9070   27.6480   30.6540 H   0  0  0  0  0  0  0  0  0  0  0  0
   36.2540   29.3250   31.4960 H   0  0  0  0  0  0  0  0  0  0  0  0
   39.1070   24.6980   34.3090 C   0  0  0  0  0  0  0  0  0  0  0  0
   38.1750   25.6190   34.7530 C   0  0  0  0  0  0  0  0  0  0  0  0
   37.7380   25.5830   36.0480 C   0  0  0  0  0  0  0  0  0  0  0  0
   38.2070   24.6430   36.9280 C   0  0  0  0  0  0  0  0  0  0  0  0
   37.9360   24.4010   38.2380 N   0  0  0  0  0  0  0  0  0  0  0  0
   38.7310   23.3240   38.5340 C   0  0  0  0  0  0  0  0  0  0  0  0
   39.4390   22.9380   37.4700 N   0  0  0  0  0  0  0  0  0  0  0  0
   39.1350   23.7460   36.4400 C   0  0  0  0  0  0  0  0  0  0  0  0
   39.6060   23.7340   35.1630 C   0  0  0  0  0  0  0  0  0  0  0  0
   39.4230   24.7640   33.2780 H   0  0  0  0  0  0  0  0  0  0  0  0
   37.0150   26.2910   36.4080 H   0  0  0  0  0  0  0  0  0  0  0  0
   37.2820   24.9060   38.8760 H   0  0  0  0  0  0  0  0  0  0  0  0
   38.7970   22.8270   39.5030 H   0  0  0  0  0  0  0  0  0  0  0  0
   40.3460   23.0000   34.8130 H   0  0  0  0  0  0  0  0  0  0  0  0
   35.3140   29.4130   34.0570 C   0  0  0  0  0  0  0  0  0  0  0  0
   33.9590   29.3890   33.7930 C   0  0  0  0  0  0  0  0  0  0  0  0
   33.0410   30.2530   34.3600 C   0  0  0  0  0  0  0  0  0  0  0  0
   33.5090   31.1690   35.2230 N   0  0  0  0  0  0  0  0  0  0  0  0
   34.8050   31.2090   35.4920 C   0  0  0  0  0  0  0  0  0  0  0  0
   35.6600   30.3710   34.9340 N   0  0  0  0  0  0  0  0  0  0  0  0
   33.5680   28.6470   33.0920 H   0  0  0  0  0  0  0  0  0  0  0  0
   31.9830   30.2200   34.1410 H   0  0  0  0  0  0  0  0  0  0  0  0
   35.3570   32.1880   36.4230 C   0  0  0  0  0  0  0  0  0  0  0  0
   36.3750   32.5540   36.4510 H   0  0  0  0  0  0  0  0  0  0  0  0
   34.6900   32.7440   37.3400 O   0  0  0  0  0  0  0  0  0  0  0  0
  1  2  2  0  0  0  0
  1  6  1  0  0  0  0
  2  3  1  0  0  0  0
  3 23  1  0  0  0  0
  3  4  2  0  0  0  0
  5  4  1  0  0  0  0
  5 10  1  0  0  0  0
  6  5  2  0  0  0  0
  7  1  1  0  0  0  0
  8  2  1  0  0  0  0
  9 10  2  0  0  0  0
  9 17  1  0  0  0  0
 10 11  1  0  0  0  0
 11 19  1  0  0  0  0
 11 12  2  0  0  0  0
 12 13  1  0  0  0  0
 13 14  1  0  0  0  0
 13 20  1  0  0  0  0
 14 21  1  0  0  0  0
 15 14  2  0  0  0  0
 16 12  1  0  0  0  0
 16 15  1  0  0  0  0
 17 16  2  0  0  0  0
 18  9  1  0  0  0  0
 22 17  1  0  0  0  0
 23 28  1  0  0  0  0
 24 23  2  0  0  0  0
 24 25  1  0  0  0  0
 25 26  2  0  0  0  0
 26 27  1  0  0  0  0
 27 31  1  0  0  0  0
 28 27  2  0  0  0  0
 29 24  1  0  0  0  0
 30 25  1  0  0  0  0
 31 32  1  0  0  0  0
 31 33  2  0  0  0  0
M  END
>  <minimizedAffinity>
-5.74026489

$$$$

 OpenBabel03272507083D

 33 36  0  0  0  0  0  0  0  0999 V2000
   37.8420   24.3750   32.1870 C   0  0  0  0  0  0  0  0  0  0  0  0
   38.2110   23.8060   33.4120 C   0  0  0  0  0  0  0  0  0  0  0  0
   38.0550   24.5950   34.5500 C   0  0  0  0  0  0  0  0  0  0  0  0
   37.5640   25.8540   34.4190 N   0  0  0  0  0  0  0  0  0  0  0  0
   37.2200   26.3700   33.2240 C   0  0  0  0  0  0  0  0  0  0  0  0
   37.3610   25.6260   32.1080 N   0  0  0  0  0  0  0  0  0  0  0  0
   37.9720   23.7410   31.3090 H   0  0  0  0  0  0  0  0  0  0  0  0
   38.6040   22.8080   33.5420 H   0  0  0  0  0  0  0  0  0  0  0  0
   36.6580   28.3850   31.9440 C   0  0  0  0  0  0  0  0  0  0  0  0
   36.6980   27.7330   33.1630 C   0  0  0  0  0  0  0  0  0  0  0  0
   36.2520   28.3610   34.2920 C   0  0  0  0  0  0  0  0  0  0  0  0
   35.7610   29.6400   34.2440 C   0  0  0  0  0  0  0  0  0  0  0  0
   35.2680   30.4670   35.2040 N   0  0  0  0  0  0  0  0  0  0  0  0
   34.9460   31.6040   34.5090 C   0  0  0  0  0  0  0  0  0  0  0  0
   35.2270   31.4740   33.2100 N   0  0  0  0  0  0  0  0  0  0  0  0
   35.7410   30.2490   33.0060 C   0  0  0  0  0  0  0  0  0  0  0  0
   36.1710   29.6730   31.8500 C   0  0  0  0  0  0  0  0  0  0  0  0
   37.0210   27.8490   31.0780 H   0  0  0  0  0  0  0  0  0  0  0  0
   36.2770   27.8680   35.2460 H   0  0  0  0  0  0  0  0  0  0  0  0
   35.1570   30.2900   36.2270 H   0  0  0  0  0  0  0  0  0  0  0  0
   34.5160   32.5110   34.9360 H   0  0  0  0  0  0  0  0  0  0  0  0
   36.1380   30.1950   30.8830 H   0  0  0  0  0  0  0  0  0  0  0  0
   38.3860   24.1650   35.8990 C   0  0  0  0  0  0  0  0  0  0  0  0
   37.7110   24.5950   37.0250 C   0  0  0  0  0  0  0  0  0  0  0  0
   38.0130   24.1950   38.3130 C   0  0  0  0  0  0  0  0  0  0  0  0
   39.0320   23.3340   38.4660 N   0  0  0  0  0  0  0  0  0  0  0  0
   39.6930   22.9090   37.4010 C   0  0  0  0  0  0  0  0  0  0  0  0
   39.3810   23.3080   36.1810 N   0  0  0  0  0  0  0  0  0  0  0  0
   36.8800   25.2950   36.9100 H   0  0  0  0  0  0  0  0  0  0  0  0
   37.4730   24.5420   39.1830 H   0  0  0  0  0  0  0  0  0  0  0  0
   40.8060   21.9730   37.5220 C   0  0  0  0  0  0  0  0  0  0  0  0
   41.1020   21.4280   38.4090 H   0  0  0  0  0  0  0  0  0  0  0  0
   41.5850   21.6770   36.5730 O   0  0  0  0  0  0  0  0  0  0  0  0
  1  2  1  0  0  0  0
  2  8  1  0  0  0  0
  2  3  2  0  0  0  0
  3 23  1  0  0  0  0
  4  3  1  0  0  0  0
  5  4  2  0  0  0  0
  6  1  2  0  0  0  0
  6  5  1  0  0  0  0
  7  1  1  0  0  0  0
  9 10  1  0  0  0  0
 10  5  1  0  0  0  0
 10 11  2  0  0  0  0
 11 19  1  0  0  0  0
 12 11  1  0  0  0  0
 12 13  1  0  0  0  0
 13 20  1  0  0  0  0
 14 21  1  0  0  0  0
 14 13  1  0  0  0  0
 15 14  2  0  0  0  0
 16 15  1  0  0  0  0
 16 12  2  0  0  0  0
 17  9  2  0  0  0  0
 17 16  1  0  0  0  0
 18  9  1  0  0  0  0
 22 17  1  0  0  0  0
 23 28  2  0  0  0  0
 23 24  1  0  0  0  0
 24 25  2  0  0  0  0
 25 26  1  0  0  0  0
 25 30  1  0  0  0  0
 27 31  1  0  0  0  0
 27 26  2  0  0  0  0
 28 27  1  0  0  0  0
 29 24  1  0  0  0  0
 31 32  1  0  0  0  0
 33 31  2  0  0  0  0
M  END
>  <minimizedAffinity>
-5.6908145

$$$$

 OpenBabel03272507083D

 33 36  0  0  0  0  0  0  0  0999 V2000
   36.5410   28.8110   31.7700 C   0  0  0  0  0  0  0  0  0  0  0  0
   35.9060   29.7670   32.5730 C   0  0  0  0  0  0  0  0  0  0  0  0
   35.7910   29.4780   33.9310 C   0  0  0  0  0  0  0  0  0  0  0  0
   36.2880   28.3060   34.4020 N   0  0  0  0  0  0  0  0  0  0  0  0
   36.8920   27.4080   33.6000 C   0  0  0  0  0  0  0  0  0  0  0  0
   37.0160   27.6650   32.2820 N   0  0  0  0  0  0  0  0  0  0  0  0
   36.6200   29.0580   30.7110 H   0  0  0  0  0  0  0  0  0  0  0  0
   35.5030   30.7070   32.2230 H   0  0  0  0  0  0  0  0  0  0  0  0
   37.7780   25.1370   33.3390 C   0  0  0  0  0  0  0  0  0  0  0  0
   37.4020   26.1680   34.1800 C   0  0  0  0  0  0  0  0  0  0  0  0
   37.5100   26.0250   35.5350 C   0  0  0  0  0  0  0  0  0  0  0  0
   37.9880   24.8640   36.0880 C   0  0  0  0  0  0  0  0  0  0  0  0
   38.1880   24.4800   37.3760 N   0  0  0  0  0  0  0  0  0  0  0  0
   38.6850   23.2080   37.2550 C   0  0  0  0  0  0  0  0  0  0  0  0
   38.7800   22.8450   35.9740 N   0  0  0  0  0  0  0  0  0  0  0  0
   38.3500   23.8640   35.2100 C   0  0  0  0  0  0  0  0  0  0  0  0
   38.2640   23.9520   33.8540 C   0  0  0  0  0  0  0  0  0  0  0  0
   37.6750   25.2960   32.2750 H   0  0  0  0  0  0  0  0  0  0  0  0
   37.2230   26.8170   36.2010 H   0  0  0  0  0  0  0  0  0  0  0  0
   38.0090   25.0150   38.2550 H   0  0  0  0  0  0  0  0  0  0  0  0
   38.9730   22.5550   38.0800 H   0  0  0  0  0  0  0  0  0  0  0  0
   38.5640   23.1280   33.1890 H   0  0  0  0  0  0  0  0  0  0  0  0
   35.1630   30.3540   34.9080 C   0  0  0  0  0  0  0  0  0  0  0  0
   35.8540   31.3000   35.6410 C   0  0  0  0  0  0  0  0  0  0  0  0
   35.2720   32.1400   36.5720 C   0  0  0  0  0  0  0  0  0  0  0  0
   33.9480   32.0190   36.7650 N   0  0  0  0  0  0  0  0  0  0  0  0
   33.2660   31.1200   36.0730 C   0  0  0  0  0  0  0  0  0  0  0  0
   33.8500   30.3310   35.1900 N   0  0  0  0  0  0  0  0  0  0  0  0
   36.9310   31.4050   35.4900 H   0  0  0  0  0  0  0  0  0  0  0  0
   35.8280   32.8740   37.1370 H   0  0  0  0  0  0  0  0  0  0  0  0
   31.8270   30.9560   36.2520 C   0  0  0  0  0  0  0  0  0  0  0  0
   31.0530   31.6530   35.9580 H   0  0  0  0  0  0  0  0  0  0  0  0
   31.2940   29.9460   36.7910 O   0  0  0  0  0  0  0  0  0  0  0  0
  1  6  2  0  0  0  0
  1  2  1  0  0  0  0
  2  3  2  0  0  0  0
  3  4  1  0  0  0  0
  3 23  1  0  0  0  0
  5 10  1  0  0  0  0
  5  4  2  0  0  0  0
  6  5  1  0  0  0  0
  7  1  1  0  0  0  0
  8  2  1  0  0  0  0
  9 17  2  0  0  0  0
  9 10  1  0  0  0  0
 10 11  2  0  0  0  0
 11 12  1  0  0  0  0
 11 19  1  0  0  0  0
 12 13  1  0  0  0  0
 13 20  1  0  0  0  0
 14 13  1  0  0  0  0
 14 21  1  0  0  0  0
 15 14  2  0  0  0  0
 16 15  1  0  0  0  0
 16 12  2  0  0  0  0
 17 16  1  0  0  0  0
 18  9  1  0  0  0  0
 22 17  1  0  0  0  0
 23 28  2  0  0  0  0
 23 24  1  0  0  0  0
 24 25  2  0  0  0  0
 25 26  1  0  0  0  0
 25 30  1  0  0  0  0
 27 31  1  0  0  0  0
 27 26  2  0  0  0  0
 28 27  1  0  0  0  0
 29 24  1  0  0  0  0
 31 33  2  0  0  0  0
 32 31  1  0  0  0  0
M  END
>  <minimizedAffinity>
-5.67461729

$$$$

 OpenBabel03272507083D

 33 36  0  0  0  0  0  0  0  0999 V2000
   35.8230   26.7040   31.4610 C   0  0  0  0  0  0  0  0  0  0  0  0
   36.6090   25.8070   32.1950 C   0  0  0  0  0  0  0  0  0  0  0  0
   37.1350   26.2640   33.4010 C   0  0  0  0  0  0  0  0  0  0  0  0
   36.8690   27.5350   33.7980 N   0  0  0  0  0  0  0  0  0  0  0  0
   36.1100   28.3720   33.0660 C   0  0  0  0  0  0  0  0  0  0  0  0
   35.5880   27.9520   31.8960 N   0  0  0  0  0  0  0  0  0  0  0  0
   35.4210   26.3260   30.5210 H   0  0  0  0  0  0  0  0  0  0  0  0
   36.8350   24.7920   31.9000 H   0  0  0  0  0  0  0  0  0  0  0  0
   35.7220   30.7580   32.6520 C   0  0  0  0  0  0  0  0  0  0  0  0
   35.8670   29.7250   33.5600 C   0  0  0  0  0  0  0  0  0  0  0  0
   35.7830   29.9740   34.9020 C   0  0  0  0  0  0  0  0  0  0  0  0
   35.5560   31.2410   35.3740 C   0  0  0  0  0  0  0  0  0  0  0  0
   35.4330   31.7400   36.6330 N   0  0  0  0  0  0  0  0  0  0  0  0
   35.2150   33.0770   36.4250 C   0  0  0  0  0  0  0  0  0  0  0  0
   35.2060   33.3700   35.1230 N   0  0  0  0  0  0  0  0  0  0  0  0
   35.4170   32.2380   34.4300 C   0  0  0  0  0  0  0  0  0  0  0  0
   35.4910   32.0480   33.0840 C   0  0  0  0  0  0  0  0  0  0  0  0
   35.7960   30.5140   31.6010 H   0  0  0  0  0  0  0  0  0  0  0  0
   35.8950   29.1830   35.6200 H   0  0  0  0  0  0  0  0  0  0  0  0
   35.4900   31.2350   37.5450 H   0  0  0  0  0  0  0  0  0  0  0  0
   35.0650   33.8260   37.2040 H   0  0  0  0  0  0  0  0  0  0  0  0
   35.3750   32.8720   32.3650 H   0  0  0  0  0  0  0  0  0  0  0  0
   37.9700   25.4690   34.2880 C   0  0  0  0  0  0  0  0  0  0  0  0
   39.1430   24.8580   33.8890 C   0  0  0  0  0  0  0  0  0  0  0  0
   39.9460   24.1000   34.7190 C   0  0  0  0  0  0  0  0  0  0  0  0
   39.5510   23.9570   35.9940 N   0  0  0  0  0  0  0  0  0  0  0  0
   38.4300   24.5340   36.3990 C   0  0  0  0  0  0  0  0  0  0  0  0
   37.6810   25.2530   35.5820 N   0  0  0  0  0  0  0  0  0  0  0  0
   39.4730   24.9690   32.8530 H   0  0  0  0  0  0  0  0  0  0  0  0
   40.8610   23.6290   34.3900 H   0  0  0  0  0  0  0  0  0  0  0  0
   37.9630   24.4040   37.7750 C   0  0  0  0  0  0  0  0  0  0  0  0
   37.5510   25.1880   38.3970 H   0  0  0  0  0  0  0  0  0  0  0  0
   37.9850   23.3240   38.4290 O   0  0  0  0  0  0  0  0  0  0  0  0
  1  6  2  0  0  0  0
  1  2  1  0  0  0  0
  2  3  2  0  0  0  0
  3  4  1  0  0  0  0
  3 23  1  0  0  0  0
  5 10  1  0  0  0  0
  5  4  2  0  0  0  0
  6  5  1  0  0  0  0
  7  1  1  0  0  0  0
  8  2  1  0  0  0  0
  9 17  2  0  0  0  0
  9 10  1  0  0  0  0
 10 11  2  0  0  0  0
 11 12  1  0  0  0  0
 11 19  1  0  0  0  0
 12 13  1  0  0  0  0
 13 20  1  0  0  0  0
 14 13  1  0  0  0  0
 14 21  1  0  0  0  0
 15 14  2  0  0  0  0
 16 15  1  0  0  0  0
 16 12  2  0  0  0  0
 17 16  1  0  0  0  0
 18  9  1  0  0  0  0
 22 17  1  0  0  0  0
 23 28  1  0  0  0  0
 24 23  2  0  0  0  0
 24 25  1  0  0  0  0
 25 26  2  0  0  0  0
 26 27  1  0  0  0  0
 27 31  1  0  0  0  0
 28 27  2  0  0  0  0
 29 24  1  0  0  0  0
 30 25  1  0  0  0  0
 31 32  1  0  0  0  0
 31 33  2  0  0  0  0
M  END
>  <minimizedAffinity>
-5.60439587

$$$$

 OpenBabel03272507083D

 33 36  0  0  0  0  0  0  0  0999 V2000
   37.1040   28.4500   31.6840 C   0  0  0  0  0  0  0  0  0  0  0  0
   37.5950   27.2940   32.3030 C   0  0  0  0  0  0  0  0  0  0  0  0
   37.2320   27.0820   33.6320 C   0  0  0  0  0  0  0  0  0  0  0  0
   36.4360   27.9910   34.2510 N   0  0  0  0  0  0  0  0  0  0  0  0
   35.9820   29.0930   33.6250 C   0  0  0  0  0  0  0  0  0  0  0  0
   36.3190   29.3200   32.3400 N   0  0  0  0  0  0  0  0  0  0  0  0
   37.4000   28.5960   30.6450 H   0  0  0  0  0  0  0  0  0  0  0  0
   38.2290   26.5560   31.8320 H   0  0  0  0  0  0  0  0  0  0  0  0
   33.8310   30.2310   33.9290 C   0  0  0  0  0  0  0  0  0  0  0  0
   35.1290   30.0250   34.3590 C   0  0  0  0  0  0  0  0  0  0  0  0
   35.6020   30.6880   35.4570 C   0  0  0  0  0  0  0  0  0  0  0  0
   34.8080   31.5650   36.1510 C   0  0  0  0  0  0  0  0  0  0  0  0
   35.0360   32.3320   37.2500 N   0  0  0  0  0  0  0  0  0  0  0  0
   33.8430   32.9790   37.4390 C   0  0  0  0  0  0  0  0  0  0  0  0
   32.9480   32.6260   36.5130 N   0  0  0  0  0  0  0  0  0  0  0  0
   33.5210   31.7370   35.6850 C   0  0  0  0  0  0  0  0  0  0  0  0
   32.9980   31.1040   34.5990 C   0  0  0  0  0  0  0  0  0  0  0  0
   33.5010   29.6850   33.0560 H   0  0  0  0  0  0  0  0  0  0  0  0
   36.6080   30.5400   35.8030 H   0  0  0  0  0  0  0  0  0  0  0  0
   35.9060   32.4160   37.8210 H   0  0  0  0  0  0  0  0  0  0  0  0
   33.6240   33.6940   38.2340 H   0  0  0  0  0  0  0  0  0  0  0  0
   31.9650   31.2710   34.2600 H   0  0  0  0  0  0  0  0  0  0  0  0
   37.6500   25.9380   34.4260 C   0  0  0  0  0  0  0  0  0  0  0  0
   37.8340   25.9850   35.7940 C   0  0  0  0  0  0  0  0  0  0  0  0
   38.2300   24.9060   36.5630 C   0  0  0  0  0  0  0  0  0  0  0  0
   38.4470   23.7440   35.9260 N   0  0  0  0  0  0  0  0  0  0  0  0
   38.2760   23.6760   34.6150 C   0  0  0  0  0  0  0  0  0  0  0  0
   37.8960   24.7240   33.9060 N   0  0  0  0  0  0  0  0  0  0  0  0
   37.6600   26.9260   36.3210 H   0  0  0  0  0  0  0  0  0  0  0  0
   38.3690   24.9610   37.6330 H   0  0  0  0  0  0  0  0  0  0  0  0
   38.4990   22.4340   33.8830 C   0  0  0  0  0  0  0  0  0  0  0  0
   39.4310   22.0960   33.4470 H   0  0  0  0  0  0  0  0  0  0  0  0
   37.6010   21.5740   33.6610 O   0  0  0  0  0  0  0  0  0  0  0  0
  1  2  2  0  0  0  0
  1  6  1  0  0  0  0
  2  3  1  0  0  0  0
  3  4  2  0  0  0  0
  3 23  1  0  0  0  0
  5  4  1  0  0  0  0
  5 10  1  0  0  0  0
  6  5  2  0  0  0  0
  7  1  1  0  0  0  0
  8  2  1  0  0  0  0
  9 10  2  0  0  0  0
  9 17  1  0  0  0  0
 10 11  1  0  0  0  0
 11 19  1  0  0  0  0
 11 12  2  0  0  0  0
 12 13  1  0  0  0  0
 13 14  1  0  0  0  0
 13 20  1  0  0  0  0
 14 21  1  0  0  0  0
 15 14  2  0  0  0  0
 16 12  1  0  0  0  0
 16 15  1  0  0  0  0
 17 16  2  0  0  0  0
 18  9  1  0  0  0  0
 22 17  1  0  0  0  0
 23 24  1  0  0  0  0
 24 29  1  0  0  0  0
 24 25  2  0  0  0  0
 25 30  1  0  0  0  0
 26 25  1  0  0  0  0
 27 26  2  0  0  0  0
 28 23  2  0  0  0  0
 28 27  1  0  0  0  0
 31 27  1  0  0  0  0
 32 31  1  0  0  0  0
 33 31  2  0  0  0  0
M  END
>  <minimizedAffinity>
-5.57423973

$$$$

 OpenBabel03272507083D

 33 36  0  0  0  0  0  0  0  0999 V2000
   36.6660   28.7920   31.7940 C   0  0  0  0  0  0  0  0  0  0  0  0
   37.2010   27.5910   32.2740 C   0  0  0  0  0  0  0  0  0  0  0  0
   37.0340   27.3190   33.6300 C   0  0  0  0  0  0  0  0  0  0  0  0
   36.3760   28.2160   34.4070 N   0  0  0  0  0  0  0  0  0  0  0  0
   35.8750   29.3640   33.9120 C   0  0  0  0  0  0  0  0  0  0  0  0
   36.0230   29.6490   32.6020 N   0  0  0  0  0  0  0  0  0  0  0  0
   36.8080   28.9850   30.7300 H   0  0  0  0  0  0  0  0  0  0  0  0
   37.7280   26.8610   31.6760 H   0  0  0  0  0  0  0  0  0  0  0  0
   35.9180   31.1030   35.6400 C   0  0  0  0  0  0  0  0  0  0  0  0
   35.1770   30.2810   34.8110 C   0  0  0  0  0  0  0  0  0  0  0  0
   33.8120   30.3300   34.8350 C   0  0  0  0  0  0  0  0  0  0  0  0
   33.1490   31.1870   35.6760 C   0  0  0  0  0  0  0  0  0  0  0  0
   31.8270   31.4210   35.8860 N   0  0  0  0  0  0  0  0  0  0  0  0
   31.8260   32.3940   36.8520 C   0  0  0  0  0  0  0  0  0  0  0  0
   33.0700   32.7270   37.2050 N   0  0  0  0  0  0  0  0  0  0  0  0
   33.9300   31.9880   36.4840 C   0  0  0  0  0  0  0  0  0  0  0  0
   35.2910   31.9810   36.5020 C   0  0  0  0  0  0  0  0  0  0  0  0
   36.9940   31.0300   35.5860 H   0  0  0  0  0  0  0  0  0  0  0  0
   33.2230   29.6970   34.1980 H   0  0  0  0  0  0  0  0  0  0  0  0
   31.0010   30.9740   35.4290 H   0  0  0  0  0  0  0  0  0  0  0  0
   30.9400   32.8530   37.2940 H   0  0  0  0  0  0  0  0  0  0  0  0
   35.8750   32.6370   37.1630 H   0  0  0  0  0  0  0  0  0  0  0  0
   37.5230   26.1220   34.2950 C   0  0  0  0  0  0  0  0  0  0  0  0
   37.8260   26.0660   35.6420 C   0  0  0  0  0  0  0  0  0  0  0  0
   38.2910   24.9360   36.2880 C   0  0  0  0  0  0  0  0  0  0  0  0
   38.4540   23.8270   35.5470 N   0  0  0  0  0  0  0  0  0  0  0  0
   38.1690   23.8580   34.2550 C   0  0  0  0  0  0  0  0  0  0  0  0
   37.7260   24.9530   33.6640 N   0  0  0  0  0  0  0  0  0  0  0  0
   37.6960   26.9620   36.2520 H   0  0  0  0  0  0  0  0  0  0  0  0
   38.5230   24.9100   37.3430 H   0  0  0  0  0  0  0  0  0  0  0  0
   38.3320   22.6770   33.4130 C   0  0  0  0  0  0  0  0  0  0  0  0
   37.8180   22.4670   32.4840 H   0  0  0  0  0  0  0  0  0  0  0  0
   39.1180   21.7250   33.6780 O   0  0  0  0  0  0  0  0  0  0  0  0
  1  2  2  0  0  0  0
  1  6  1  0  0  0  0
  2  3  1  0  0  0  0
  3 23  1  0  0  0  0
  3  4  2  0  0  0  0
  5  4  1  0  0  0  0
  5 10  1  0  0  0  0
  6  5  2  0  0  0  0
  7  1  1  0  0  0  0
  8  2  1  0  0  0  0
  9 17  1  0  0  0  0
 10 11  1  0  0  0  0
 10  9  2  0  0  0  0
 11 12  2  0  0  0  0
 12 13  1  0  0  0  0
 12 16  1  0  0  0  0
 13 14  1  0  0  0  0
 14 15  2  0  0  0  0
 14 21  1  0  0  0  0
 16 17  2  0  0  0  0
 16 15  1  0  0  0  0
 17 22  1  0  0  0  0
 18  9  1  0  0  0  0
 19 11  1  0  0  0  0
 20 13  1  0  0  0  0
 23 24  1  0  0  0  0
 24 29  1  0  0  0  0
 24 25  2  0  0  0  0
 25 30  1  0  0  0  0
 26 25  1  0  0  0  0
 27 26  2  0  0  0  0
 28 27  1  0  0  0  0
 28 23  2  0  0  0  0
 31 33  2  0  0  0  0
 31 27  1  0  0  0  0
 32 31  1  0  0  0  0
M  END
>  <minimizedAffinity>
-5.54680729

$$$$

 OpenBabel03272507083D

 33 36  0  0  0  0  0  0  0  0999 V2000
   38.5630   27.2970   31.7170 C   0  0  0  0  0  0  0  0  0  0  0  0
   38.7880   26.1500   32.4870 C   0  0  0  0  0  0  0  0  0  0  0  0
   37.9330   25.9320   33.5660 C   0  0  0  0  0  0  0  0  0  0  0  0
   36.9430   26.8270   33.8150 N   0  0  0  0  0  0  0  0  0  0  0  0
   36.7550   27.9210   33.0520 C   0  0  0  0  0  0  0  0  0  0  0  0
   37.5690   28.1530   32.0020 N   0  0  0  0  0  0  0  0  0  0  0  0
   39.2430   27.4470   30.8780 H   0  0  0  0  0  0  0  0  0  0  0  0
   39.5690   25.4230   32.3100 H   0  0  0  0  0  0  0  0  0  0  0  0
   35.7770   29.6360   34.5060 C   0  0  0  0  0  0  0  0  0  0  0  0
   35.6670   28.8380   33.3820 C   0  0  0  0  0  0  0  0  0  0  0  0
   34.5530   28.9110   32.5940 C   0  0  0  0  0  0  0  0  0  0  0  0
   33.5260   29.7680   32.8960 C   0  0  0  0  0  0  0  0  0  0  0  0
   32.3380   30.0240   32.2870 N   0  0  0  0  0  0  0  0  0  0  0  0
   31.7720   30.9830   33.0850 C   0  0  0  0  0  0  0  0  0  0  0  0
   32.5660   31.2900   34.1130 N   0  0  0  0  0  0  0  0  0  0  0  0
   33.6810   30.5450   34.0260 C   0  0  0  0  0  0  0  0  0  0  0  0
   34.7670   30.5140   34.8470 C   0  0  0  0  0  0  0  0  0  0  0  0
   36.6750   29.5440   35.1000 H   0  0  0  0  0  0  0  0  0  0  0  0
   34.4530   28.2970   31.7180 H   0  0  0  0  0  0  0  0  0  0  0  0
   31.9420   29.5980   31.4200 H   0  0  0  0  0  0  0  0  0  0  0  0
   30.8000   31.4530   32.9250 H   0  0  0  0  0  0  0  0  0  0  0  0
   34.8490   31.1500   35.7400 H   0  0  0  0  0  0  0  0  0  0  0  0
   38.0220   24.7960   34.4690 C   0  0  0  0  0  0  0  0  0  0  0  0
   38.1620   23.4900   34.0420 C   0  0  0  0  0  0  0  0  0  0  0  0
   38.2490   22.4000   34.8870 C   0  0  0  0  0  0  0  0  0  0  0  0
   38.1920   22.6400   36.2070 N   0  0  0  0  0  0  0  0  0  0  0  0
   38.0590   23.8840   36.6390 C   0  0  0  0  0  0  0  0  0  0  0  0
   37.9790   24.9060   35.8070 N   0  0  0  0  0  0  0  0  0  0  0  0
   38.2100   23.2850   32.9690 H   0  0  0  0  0  0  0  0  0  0  0  0
   38.3580   21.3840   34.5350 H   0  0  0  0  0  0  0  0  0  0  0  0
   37.9930   24.1900   38.0650 C   0  0  0  0  0  0  0  0  0  0  0  0
   37.3170   24.8820   38.5490 H   0  0  0  0  0  0  0  0  0  0  0  0
   38.7450   23.6660   38.9340 O   0  0  0  0  0  0  0  0  0  0  0  0
  1  6  2  0  0  0  0
  1  2  1  0  0  0  0
  2  3  2  0  0  0  0
  3  4  1  0  0  0  0
  3 23  1  0  0  0  0
  5 10  1  0  0  0  0
  5  4  2  0  0  0  0
  6  5  1  0  0  0  0
  7  1  1  0  0  0  0
  8  2  1  0  0  0  0
  9 17  1  0  0  0  0
  9 18  1  0  0  0  0
 10  9  2  0  0  0  0
 11 12  2  0  0  0  0
 11 10  1  0  0  0  0
 12 16  1  0  0  0  0
 13 12  1  0  0  0  0
 13 14  1  0  0  0  0
 14 15  2  0  0  0  0
 16 15  1  0  0  0  0
 16 17  2  0  0  0  0
 17 22  1  0  0  0  0
 19 11  1  0  0  0  0
 20 13  1  0  0  0  0
 21 14  1  0  0  0  0
 23 28  1  0  0  0  0
 24 23  2  0  0  0  0
 24 25  1  0  0  0  0
 25 26  2  0  0  0  0
 26 27  1  0  0  0  0
 27 31  1  0  0  0  0
 28 27  2  0  0  0  0
 29 24  1  0  0  0  0
 30 25  1  0  0  0  0
 31 32  1  0  0  0  0
 31 33  2  0  0  0  0
M  END
>  <minimizedAffinity>
-5.49722528

$$$$
