
 OpenBabel03272510163D

 22 23  0  0  0  0  0  0  0  0999 V2000
   37.2750   29.3370   51.0500 Br  0  0  0  0  0  0  0  0  0  0  0  0
   35.9570   29.3130   49.6800 C   0  0  0  0  0  0  0  0  0  0  0  0
   35.9930   30.2190   48.6400 C   0  0  0  0  0  0  0  0  0  0  0  0
   34.9940   30.1350   47.6790 C   0  0  0  0  0  0  0  0  0  0  0  0
   33.9800   29.1990   47.7180 C   0  0  0  0  0  0  0  0  0  0  0  0
   33.9760   28.3100   48.7730 C   0  0  0  0  0  0  0  0  0  0  0  0
   34.9600   28.3780   49.7350 C   0  0  0  0  0  0  0  0  0  0  0  0
   35.0670   30.8630   46.8910 H   0  0  0  0  0  0  0  0  0  0  0  0
   33.1940   27.5660   48.8290 H   0  0  0  0  0  0  0  0  0  0  0  0
   34.9480   27.6740   50.5620 H   0  0  0  0  0  0  0  0  0  0  0  0
   37.9770   33.1690   49.4350 C   0  0  0  0  0  0  0  0  0  0  0  0
   39.0150   33.1630   48.4680 C   0  0  0  0  0  0  0  0  0  0  0  0
   39.0020   32.1210   47.5510 C   0  0  0  0  0  0  0  0  0  0  0  0
   38.0180   31.1690   47.6110 N   0  0  0  0  0  0  0  0  0  0  0  0
   37.0410   31.2190   48.5610 C   0  0  0  0  0  0  0  0  0  0  0  0
   37.0390   32.2190   49.4550 N   0  0  0  0  0  0  0  0  0  0  0  0
   37.8980   33.9510   50.2050 H   0  0  0  0  0  0  0  0  0  0  0  0
   39.7380   33.9510   48.5010 H   0  0  0  0  0  0  0  0  0  0  0  0
   39.7810   32.0920   46.8030 H   0  0  0  0  0  0  0  0  0  0  0  0
   32.9590   29.1720   46.6680 C   0  0  0  0  0  0  0  0  0  0  0  0
   32.2660   30.0050   46.6350 H   0  0  0  0  0  0  0  0  0  0  0  0
   33.0100   28.1560   45.9070 O   0  0  0  0  0  0  0  0  0  0  0  0
  2  7  1  0  0  0  0
  2  1  1  0  0  0  0
  3  2  2  0  0  0  0
  4  5  2  0  0  0  0
  4  3  1  0  0  0  0
  5  6  1  0  0  0  0
  6  9  1  0  0  0  0
  6  7  2  0  0  0  0
  7 10  1  0  0  0  0
  8  4  1  0  0  0  0
 11 16  1  0  0  0  0
 11 17  1  0  0  0  0
 12 18  1  0  0  0  0
 12 11  2  0  0  0  0
 13 14  2  0  0  0  0
 13 12  1  0  0  0  0
 14 15  1  0  0  0  0
 15  3  1  0  0  0  0
 15 16  2  0  0  0  0
 19 13  1  0  0  0  0
 20  5  1  0  0  0  0
 21 20  1  0  0  0  0
 22 20  2  0  0  0  0
M  END
>  <minimizedAffinity>
-5.37009144

>  <minimizedRMSD>
0.0507382005

$$$$
