
 OpenBabel03272510163D

 22 23  0  0  0  0  0  0  0  0999 V2000
   37.2720   29.3510   51.0600 Br  0  0  0  0  0  0  0  0  0  0  0  0
   35.9610   29.3170   49.6820 C   0  0  0  0  0  0  0  0  0  0  0  0
   36.0010   30.2160   48.6380 C   0  0  0  0  0  0  0  0  0  0  0  0
   35.0080   30.1250   47.6720 C   0  0  0  0  0  0  0  0  0  0  0  0
   33.9960   29.1870   47.7110 C   0  0  0  0  0  0  0  0  0  0  0  0
   33.9880   28.3030   48.7700 C   0  0  0  0  0  0  0  0  0  0  0  0
   34.9660   28.3790   49.7380 C   0  0  0  0  0  0  0  0  0  0  0  0
   35.0840   30.8480   46.8800 H   0  0  0  0  0  0  0  0  0  0  0  0
   33.2070   27.5580   48.8260 H   0  0  0  0  0  0  0  0  0  0  0  0
   34.9510   27.6800   50.5680 H   0  0  0  0  0  0  0  0  0  0  0  0
   37.9790   33.1700   49.4330 C   0  0  0  0  0  0  0  0  0  0  0  0
   39.0180   33.1660   48.4670 C   0  0  0  0  0  0  0  0  0  0  0  0
   39.0070   32.1240   47.5500 C   0  0  0  0  0  0  0  0  0  0  0  0
   38.0250   31.1700   47.6100 N   0  0  0  0  0  0  0  0  0  0  0  0
   37.0470   31.2190   48.5590 C   0  0  0  0  0  0  0  0  0  0  0  0
   37.0430   32.2180   49.4540 N   0  0  0  0  0  0  0  0  0  0  0  0
   37.8990   33.9530   50.2040 H   0  0  0  0  0  0  0  0  0  0  0  0
   39.7400   33.9560   48.5000 H   0  0  0  0  0  0  0  0  0  0  0  0
   39.7870   32.0960   46.8020 H   0  0  0  0  0  0  0  0  0  0  0  0
   32.9810   29.1510   46.6540 C   0  0  0  0  0  0  0  0  0  0  0  0
   31.9600   29.3720   46.9470 H   0  0  0  0  0  0  0  0  0  0  0  0
   33.4280   28.8600   45.5010 O   0  0  0  0  0  0  0  0  0  0  0  0
  2  7  1  0  0  0  0
  2  1  1  0  0  0  0
  3  2  2  0  0  0  0
  4  5  2  0  0  0  0
  4  3  1  0  0  0  0
  5  6  1  0  0  0  0
  6  9  1  0  0  0  0
  6  7  2  0  0  0  0
  7 10  1  0  0  0  0
  8  4  1  0  0  0  0
 11 16  1  0  0  0  0
 11 17  1  0  0  0  0
 12 18  1  0  0  0  0
 12 11  2  0  0  0  0
 13 14  2  0  0  0  0
 13 12  1  0  0  0  0
 14 15  1  0  0  0  0
 15  3  1  0  0  0  0
 15 16  2  0  0  0  0
 19 13  1  0  0  0  0
 20 21  1  0  0  0  0
 20  5  1  0  0  0  0
 22 20  2  0  0  0  0
M  END
>  <minimizedAffinity>
-5.37943029

>  <minimizedRMSD>
0.0561885312

$$$$
