
 OpenBabel03272510163D

 22 23  0  0  0  0  0  0  0  0999 V2000
   37.2770   29.3360   51.0500 Br  0  0  0  0  0  0  0  0  0  0  0  0
   35.9570   29.3140   49.6820 C   0  0  0  0  0  0  0  0  0  0  0  0
   35.9920   30.2200   48.6420 C   0  0  0  0  0  0  0  0  0  0  0  0
   34.9920   30.1380   47.6830 C   0  0  0  0  0  0  0  0  0  0  0  0
   33.9770   29.2030   47.7230 C   0  0  0  0  0  0  0  0  0  0  0  0
   33.9750   28.3120   48.7770 C   0  0  0  0  0  0  0  0  0  0  0  0
   34.9590   28.3790   49.7380 C   0  0  0  0  0  0  0  0  0  0  0  0
   35.0650   30.8660   46.8950 H   0  0  0  0  0  0  0  0  0  0  0  0
   33.1920   27.5690   48.8340 H   0  0  0  0  0  0  0  0  0  0  0  0
   34.9490   27.6750   50.5640 H   0  0  0  0  0  0  0  0  0  0  0  0
   37.9770   33.1700   49.4350 C   0  0  0  0  0  0  0  0  0  0  0  0
   39.0160   33.1630   48.4690 C   0  0  0  0  0  0  0  0  0  0  0  0
   39.0030   32.1200   47.5520 C   0  0  0  0  0  0  0  0  0  0  0  0
   38.0180   31.1690   47.6140 N   0  0  0  0  0  0  0  0  0  0  0  0
   37.0410   31.2200   48.5630 C   0  0  0  0  0  0  0  0  0  0  0  0
   37.0390   32.2210   49.4560 N   0  0  0  0  0  0  0  0  0  0  0  0
   37.8990   33.9530   50.2050 H   0  0  0  0  0  0  0  0  0  0  0  0
   39.7400   33.9510   48.5010 H   0  0  0  0  0  0  0  0  0  0  0  0
   39.7820   32.0900   46.8050 H   0  0  0  0  0  0  0  0  0  0  0  0
   32.9550   29.1760   46.6740 C   0  0  0  0  0  0  0  0  0  0  0  0
   32.3610   30.0740   46.5450 H   0  0  0  0  0  0  0  0  0  0  0  0
   32.8870   28.0850   46.0280 O   0  0  0  0  0  0  0  0  0  0  0  0
  2  7  1  0  0  0  0
  2  1  1  0  0  0  0
  3  2  2  0  0  0  0
  4  5  2  0  0  0  0
  4  3  1  0  0  0  0
  5  6  1  0  0  0  0
  6  9  1  0  0  0  0
  6  7  2  0  0  0  0
  7 10  1  0  0  0  0
  8  4  1  0  0  0  0
 11 16  1  0  0  0  0
 11 17  1  0  0  0  0
 12 18  1  0  0  0  0
 12 11  2  0  0  0  0
 13 14  2  0  0  0  0
 13 12  1  0  0  0  0
 14 15  1  0  0  0  0
 15  3  1  0  0  0  0
 15 16  2  0  0  0  0
 19 13  1  0  0  0  0
 20  5  1  0  0  0  0
 21 20  1  0  0  0  0
 22 20  2  0  0  0  0
M  END
>  <minimizedAffinity>
-5.37462616

>  <minimizedRMSD>
0.0355486013

$$$$
