
 OpenBabel03272505213D

 22 23  0  0  0  0  0  0  0  0999 V2000
   36.6770   32.1320   50.1580 Br  0  0  0  0  0  0  0  0  0  0  0  0
   37.6100   31.8270   48.5080 C   0  0  0  0  0  0  0  0  0  0  0  0
   37.1900   30.8240   47.6660 C   0  0  0  0  0  0  0  0  0  0  0  0
   37.8960   30.6400   46.4840 C   0  0  0  0  0  0  0  0  0  0  0  0
   38.9730   31.4430   46.1840 C   0  0  0  0  0  0  0  0  0  0  0  0
   39.3970   32.4630   47.0450 C   0  0  0  0  0  0  0  0  0  0  0  0
   38.6860   32.6350   48.2180 C   0  0  0  0  0  0  0  0  0  0  0  0
   37.5710   29.8530   45.8160 H   0  0  0  0  0  0  0  0  0  0  0  0
   39.5030   31.2780   45.2580 H   0  0  0  0  0  0  0  0  0  0  0  0
   40.2440   33.1070   46.8260 H   0  0  0  0  0  0  0  0  0  0  0  0
   34.9870   28.3510   49.4940 C   0  0  0  0  0  0  0  0  0  0  0  0
   36.0900   29.1140   49.1080 C   0  0  0  0  0  0  0  0  0  0  0  0
   36.0450   30.0310   48.0690 C   0  0  0  0  0  0  0  0  0  0  0  0
   34.8360   30.1380   47.4430 N   0  0  0  0  0  0  0  0  0  0  0  0
   33.7710   29.3980   47.8200 C   0  0  0  0  0  0  0  0  0  0  0  0
   33.8400   28.5200   48.8240 N   0  0  0  0  0  0  0  0  0  0  0  0
   35.0270   27.6380   50.3040 H   0  0  0  0  0  0  0  0  0  0  0  0
   37.0370   28.9870   49.6450 H   0  0  0  0  0  0  0  0  0  0  0  0
   32.8840   29.6060   47.2160 H   0  0  0  0  0  0  0  0  0  0  0  0
   39.0860   33.6830   49.1510 C   0  0  0  0  0  0  0  0  0  0  0  0
   38.7040   33.6820   50.1630 H   0  0  0  0  0  0  0  0  0  0  0  0
   39.8760   34.5940   48.7860 O   0  0  0  0  0  0  0  0  0  0  0  0
  2  1  1  0  0  0  0
  3 13  1  0  0  0  0
  3  2  2  0  0  0  0
  4  3  1  0  0  0  0
  5  4  2  0  0  0  0
  5  6  1  0  0  0  0
  6  7  2  0  0  0  0
  7  2  1  0  0  0  0
  7 20  1  0  0  0  0
  8  4  1  0  0  0  0
  9  5  1  0  0  0  0
 10  6  1  0  0  0  0
 11 17  1  0  0  0  0
 12 11  1  0  0  0  0
 12 18  1  0  0  0  0
 13 12  2  0  0  0  0
 14 15  2  0  0  0  0
 14 13  1  0  0  0  0
 15 16  1  0  0  0  0
 16 11  2  0  0  0  0
 19 15  1  0  0  0  0
 20 21  1  0  0  0  0
 22 20  2  0  0  0  0
M  END
>  <minimizedAffinity>
-5.1418128

>  <minimizedRMSD>
1.93714535

$$$$
