
 OpenBabel03262522233D

 25 26  0  0  0  0  0  0  0  0999 V2000
   39.0150   24.5090   35.9530 C   0  0  0  0  0  0  0  0  0  0  0  0
   38.0780   24.7850   36.8980 C   0  0  0  0  0  0  0  0  0  0  0  0
   38.0750   24.0990   38.0800 C   0  0  0  0  0  0  0  0  0  0  0  0
   39.0440   23.1320   38.2720 C   0  0  0  0  0  0  0  0  0  0  0  0
   39.9980   22.8580   37.2960 C   0  0  0  0  0  0  0  0  0  0  0  0
   39.9390   23.5760   36.1540 N   0  0  0  0  0  0  0  0  0  0  0  0
   37.3730   25.5630   36.6330 H   0  0  0  0  0  0  0  0  0  0  0  0
   37.3200   24.3370   38.8160 H   0  0  0  0  0  0  0  0  0  0  0  0
   39.0110   22.6040   39.2270 H   0  0  0  0  0  0  0  0  0  0  0  0
   41.0250   21.8080   37.5410 C   0  0  0  0  0  0  0  0  0  0  0  0
   41.2310   21.7530   38.6210 H   0  0  0  0  0  0  0  0  0  0  0  0
   40.5350   20.8460   37.2210 H   0  0  0  0  0  0  0  0  0  0  0  0
   41.9230   21.9470   36.9260 H   0  0  0  0  0  0  0  0  0  0  0  0
   39.1710   25.1070   34.6890 O   0  0  0  0  0  0  0  0  0  0  0  0
   37.5190   25.9220   33.2780 C   0  0  0  0  0  0  0  0  0  0  0  0
   38.2380   24.8160   33.7470 C   0  0  0  0  0  0  0  0  0  0  0  0
   37.9100   23.5900   33.1990 C   0  0  0  0  0  0  0  0  0  0  0  0
   36.9390   23.5200   32.2650 N   0  0  0  0  0  0  0  0  0  0  0  0
   36.2840   24.5910   31.8500 C   0  0  0  0  0  0  0  0  0  0  0  0
   36.5520   25.8280   32.3430 N   0  0  0  0  0  0  0  0  0  0  0  0
   37.6620   26.9570   33.6150 H   0  0  0  0  0  0  0  0  0  0  0  0
   38.4790   22.7600   33.5790 H   0  0  0  0  0  0  0  0  0  0  0  0
   35.2510   24.4130   30.8350 C   0  0  0  0  0  0  0  0  0  0  0  0
   35.0650   23.5130   30.2660 H   0  0  0  0  0  0  0  0  0  0  0  0
   34.4930   25.3840   30.5820 O   0  0  0  0  0  0  0  0  0  0  0  0
  1  6  2  0  0  0  0
  1  2  1  0  0  0  0
  2  3  2  0  0  0  0
  3  4  1  0  0  0  0
  3  8  1  0  0  0  0
  4  9  1  0  0  0  0
  5 10  1  0  0  0  0
  5  4  2  0  0  0  0
  6  5  1  0  0  0  0
  7  2  1  0  0  0  0
 10 11  1  0  0  0  0
 12 10  1  0  0  0  0
 13 10  1  0  0  0  0
 14  1  1  0  0  0  0
 15 21  1  0  0  0  0
 15 16  1  0  0  0  0
 16 14  1  0  0  0  0
 17 22  1  0  0  0  0
 17 16  2  0  0  0  0
 18 17  1  0  0  0  0
 19 18  2  0  0  0  0
 19 20  1  0  0  0  0
 20 15  2  0  0  0  0
 23 19  1  0  0  0  0
 24 23  1  0  0  0  0
 25 23  2  0  0  0  0
M  END
>  <minimizedAffinity>
-4.61502218

$$$$

 OpenBabel03262522233D

 25 26  0  0  0  0  0  0  0  0999 V2000
   38.6210   23.9860   35.7900 C   0  0  0  0  0  0  0  0  0  0  0  0
   37.8260   24.4410   36.7950 C   0  0  0  0  0  0  0  0  0  0  0  0
   38.0740   24.0680   38.0860 C   0  0  0  0  0  0  0  0  0  0  0  0
   39.1440   23.2260   38.3240 C   0  0  0  0  0  0  0  0  0  0  0  0
   39.9500   22.7660   37.2860 C   0  0  0  0  0  0  0  0  0  0  0  0
   39.6450   23.1770   36.0370 N   0  0  0  0  0  0  0  0  0  0  0  0
   37.0210   25.0950   36.4840 H   0  0  0  0  0  0  0  0  0  0  0  0
   37.4290   24.4440   38.8670 H   0  0  0  0  0  0  0  0  0  0  0  0
   39.3120   22.9480   39.3670 H   0  0  0  0  0  0  0  0  0  0  0  0
   41.0930   21.8590   37.5850 C   0  0  0  0  0  0  0  0  0  0  0  0
   41.4730   22.0820   38.5940 H   0  0  0  0  0  0  0  0  0  0  0  0
   40.6460   20.8250   37.5910 H   0  0  0  0  0  0  0  0  0  0  0  0
   41.8640   21.8860   36.8060 H   0  0  0  0  0  0  0  0  0  0  0  0
   38.5180   24.2610   34.4140 O   0  0  0  0  0  0  0  0  0  0  0  0
   37.3480   23.8900   32.4450 C   0  0  0  0  0  0  0  0  0  0  0  0
   37.8250   23.3730   33.6550 C   0  0  0  0  0  0  0  0  0  0  0  0
   37.5350   22.0470   33.9180 C   0  0  0  0  0  0  0  0  0  0  0  0
   36.8240   21.3350   33.0190 N   0  0  0  0  0  0  0  0  0  0  0  0
   36.3920   21.8630   31.8860 C   0  0  0  0  0  0  0  0  0  0  0  0
   36.6390   23.1580   31.5610 N   0  0  0  0  0  0  0  0  0  0  0  0
   37.4960   24.9200   32.0960 H   0  0  0  0  0  0  0  0  0  0  0  0
   37.9150   21.6800   34.8540 H   0  0  0  0  0  0  0  0  0  0  0  0
   35.6310   21.0110   30.9790 C   0  0  0  0  0  0  0  0  0  0  0  0
   34.5630   21.0500   30.8110 H   0  0  0  0  0  0  0  0  0  0  0  0
   36.2540   20.1410   30.3170 O   0  0  0  0  0  0  0  0  0  0  0  0
  1  6  2  0  0  0  0
  1  2  1  0  0  0  0
  2  3  2  0  0  0  0
  3  4  1  0  0  0  0
  3  8  1  0  0  0  0
  4  9  1  0  0  0  0
  5 10  1  0  0  0  0
  5  4  2  0  0  0  0
  6  5  1  0  0  0  0
  7  2  1  0  0  0  0
 10 12  1  0  0  0  0
 10 11  1  0  0  0  0
 13 10  1  0  0  0  0
 14  1  1  0  0  0  0
 15 16  1  0  0  0  0
 16 17  2  0  0  0  0
 16 14  1  0  0  0  0
 17 22  1  0  0  0  0
 18 17  1  0  0  0  0
 19 18  2  0  0  0  0
 20 19  1  0  0  0  0
 20 15  2  0  0  0  0
 21 15  1  0  0  0  0
 23 19  1  0  0  0  0
 24 23  1  0  0  0  0
 25 23  2  0  0  0  0
M  END
>  <minimizedAffinity>
-4.38635683

$$$$

 OpenBabel03262522233D

 25 26  0  0  0  0  0  0  0  0999 V2000
   37.2880   24.5720   32.1530 C   0  0  0  0  0  0  0  0  0  0  0  0
   36.2140   23.8080   31.8210 C   0  0  0  0  0  0  0  0  0  0  0  0
   35.1700   24.3580   31.1310 C   0  0  0  0  0  0  0  0  0  0  0  0
   35.2500   25.6950   30.7910 C   0  0  0  0  0  0  0  0  0  0  0  0
   36.3560   26.4660   31.1370 C   0  0  0  0  0  0  0  0  0  0  0  0
   37.3480   25.8560   31.8180 N   0  0  0  0  0  0  0  0  0  0  0  0
   36.2670   22.7760   32.1420 H   0  0  0  0  0  0  0  0  0  0  0  0
   34.3280   23.7300   30.8780 H   0  0  0  0  0  0  0  0  0  0  0  0
   34.3990   26.1010   30.2390 H   0  0  0  0  0  0  0  0  0  0  0  0
   36.4030   27.9050   30.7510 C   0  0  0  0  0  0  0  0  0  0  0  0
   35.8350   28.0450   29.8190 H   0  0  0  0  0  0  0  0  0  0  0  0
   35.8660   28.4430   31.5820 H   0  0  0  0  0  0  0  0  0  0  0  0
   37.4270   28.2940   30.7080 H   0  0  0  0  0  0  0  0  0  0  0  0
   38.4430   24.1810   32.8560 O   0  0  0  0  0  0  0  0  0  0  0  0
   38.3480   25.0820   34.9920 C   0  0  0  0  0  0  0  0  0  0  0  0
   38.3060   23.9380   34.1850 C   0  0  0  0  0  0  0  0  0  0  0  0
   38.1330   22.7300   34.8340 C   0  0  0  0  0  0  0  0  0  0  0  0
   38.0180   22.7120   36.1780 N   0  0  0  0  0  0  0  0  0  0  0  0
   38.0630   23.8170   36.9040 C   0  0  0  0  0  0  0  0  0  0  0  0
   38.2300   25.0380   36.3350 N   0  0  0  0  0  0  0  0  0  0  0  0
   38.4790   26.1080   34.6270 H   0  0  0  0  0  0  0  0  0  0  0  0
   38.1050   21.8720   34.1880 H   0  0  0  0  0  0  0  0  0  0  0  0
   37.9280   23.6930   38.3510 C   0  0  0  0  0  0  0  0  0  0  0  0
   37.7330   22.7800   38.8980 H   0  0  0  0  0  0  0  0  0  0  0  0
   38.0440   24.7320   39.0510 O   0  0  0  0  0  0  0  0  0  0  0  0
  1 14  1  0  0  0  0
  2  7  1  0  0  0  0
  2  1  1  0  0  0  0
  3  2  2  0  0  0  0
  4  3  1  0  0  0  0
  4  5  2  0  0  0  0
  5  6  1  0  0  0  0
  6  1  2  0  0  0  0
  8  3  1  0  0  0  0
  9  4  1  0  0  0  0
 10  5  1  0  0  0  0
 10 12  1  0  0  0  0
 11 10  1  0  0  0  0
 13 10  1  0  0  0  0
 14 16  1  0  0  0  0
 15 20  1  0  0  0  0
 16 17  1  0  0  0  0
 16 15  2  0  0  0  0
 17 18  2  0  0  0  0
 18 19  1  0  0  0  0
 19 23  1  0  0  0  0
 20 19  2  0  0  0  0
 21 15  1  0  0  0  0
 22 17  1  0  0  0  0
 23 24  1  0  0  0  0
 23 25  2  0  0  0  0
M  END
>  <minimizedAffinity>
-4.31421041

$$$$

 OpenBabel03262522233D

 25 26  0  0  0  0  0  0  0  0999 V2000
   37.9930   26.0950   32.4140 C   0  0  0  0  0  0  0  0  0  0  0  0
   38.0980   27.4350   32.2110 C   0  0  0  0  0  0  0  0  0  0  0  0
   37.1070   28.1070   31.5520 C   0  0  0  0  0  0  0  0  0  0  0  0
   36.0150   27.3830   31.1100 C   0  0  0  0  0  0  0  0  0  0  0  0
   35.9200   26.0110   31.3240 C   0  0  0  0  0  0  0  0  0  0  0  0
   36.9370   25.4150   31.9820 N   0  0  0  0  0  0  0  0  0  0  0  0
   38.9980   27.8900   32.6030 H   0  0  0  0  0  0  0  0  0  0  0  0
   37.2130   29.1720   31.4040 H   0  0  0  0  0  0  0  0  0  0  0  0
   35.2430   27.9530   30.5880 H   0  0  0  0  0  0  0  0  0  0  0  0
   34.7270   25.2680   30.8320 C   0  0  0  0  0  0  0  0  0  0  0  0
   33.8570   25.9430   30.8340 H   0  0  0  0  0  0  0  0  0  0  0  0
   34.9720   25.0050   29.7640 H   0  0  0  0  0  0  0  0  0  0  0  0
   34.5610   24.3310   31.3770 H   0  0  0  0  0  0  0  0  0  0  0  0
   38.9060   25.2450   33.0640 O   0  0  0  0  0  0  0  0  0  0  0  0
   38.5690   23.5610   34.6250 C   0  0  0  0  0  0  0  0  0  0  0  0
   38.6470   24.9330   34.3610 C   0  0  0  0  0  0  0  0  0  0  0  0
   38.4520   25.7810   35.4350 C   0  0  0  0  0  0  0  0  0  0  0  0
   38.2030   25.2590   36.6530 N   0  0  0  0  0  0  0  0  0  0  0  0
   38.1380   23.9540   36.8600 C   0  0  0  0  0  0  0  0  0  0  0  0
   38.3190   23.0620   35.8530 N   0  0  0  0  0  0  0  0  0  0  0  0
   38.7000   22.7660   33.8800 H   0  0  0  0  0  0  0  0  0  0  0  0
   38.5170   26.8280   35.2000 H   0  0  0  0  0  0  0  0  0  0  0  0
   37.8640   23.4870   38.2140 C   0  0  0  0  0  0  0  0  0  0  0  0
   36.9570   23.0030   38.5510 H   0  0  0  0  0  0  0  0  0  0  0  0
   38.7510   23.6500   39.0910 O   0  0  0  0  0  0  0  0  0  0  0  0
  1 14  1  0  0  0  0
  2  1  1  0  0  0  0
  2  7  1  0  0  0  0
  3  2  2  0  0  0  0
  4  5  2  0  0  0  0
  4  3  1  0  0  0  0
  5  6  1  0  0  0  0
  6  1  2  0  0  0  0
  8  3  1  0  0  0  0
  9  4  1  0  0  0  0
 10 11  1  0  0  0  0
 10  5  1  0  0  0  0
 10 13  1  0  0  0  0
 12 10  1  0  0  0  0
 14 16  1  0  0  0  0
 15 20  1  0  0  0  0
 16 15  2  0  0  0  0
 16 17  1  0  0  0  0
 17 18  2  0  0  0  0
 18 19  1  0  0  0  0
 19 23  1  0  0  0  0
 20 19  2  0  0  0  0
 21 15  1  0  0  0  0
 22 17  1  0  0  0  0
 23 24  1  0  0  0  0
 23 25  2  0  0  0  0
M  END
>  <minimizedAffinity>
-4.25074816

$$$$

 OpenBabel03262522233D

 25 26  0  0  0  0  0  0  0  0999 V2000
   37.4120   25.2900   32.3540 C   0  0  0  0  0  0  0  0  0  0  0  0
   36.6320   26.3010   31.8860 C   0  0  0  0  0  0  0  0  0  0  0  0
   35.4910   26.0180   31.1900 C   0  0  0  0  0  0  0  0  0  0  0  0
   35.1680   24.6910   30.9840 C   0  0  0  0  0  0  0  0  0  0  0  0
   35.9750   23.6650   31.4690 C   0  0  0  0  0  0  0  0  0  0  0  0
   37.0860   24.0190   32.1480 N   0  0  0  0  0  0  0  0  0  0  0  0
   36.9890   27.2980   32.1100 H   0  0  0  0  0  0  0  0  0  0  0  0
   34.8880   26.8400   30.8290 H   0  0  0  0  0  0  0  0  0  0  0  0
   34.2490   24.5020   30.4240 H   0  0  0  0  0  0  0  0  0  0  0  0
   35.5910   22.2460   31.2260 C   0  0  0  0  0  0  0  0  0  0  0  0
   34.4940   22.1770   31.1650 H   0  0  0  0  0  0  0  0  0  0  0  0
   36.0210   22.0010   30.2140 H   0  0  0  0  0  0  0  0  0  0  0  0
   36.0390   21.5600   31.9540 H   0  0  0  0  0  0  0  0  0  0  0  0
   38.6110   25.3900   33.0840 O   0  0  0  0  0  0  0  0  0  0  0  0
   39.4860   23.9230   34.6550 C   0  0  0  0  0  0  0  0  0  0  0  0
   38.5880   24.9600   34.3720 C   0  0  0  0  0  0  0  0  0  0  0  0
   37.8080   25.4040   35.4230 C   0  0  0  0  0  0  0  0  0  0  0  0
   37.9450   24.8320   36.6370 N   0  0  0  0  0  0  0  0  0  0  0  0
   38.8070   23.8540   36.8620 C   0  0  0  0  0  0  0  0  0  0  0  0
   39.6060   23.3670   35.8770 N   0  0  0  0  0  0  0  0  0  0  0  0
   40.1700   23.4650   33.9280 H   0  0  0  0  0  0  0  0  0  0  0  0
   37.1290   26.2000   35.1750 H   0  0  0  0  0  0  0  0  0  0  0  0
   38.8820   23.3010   38.2090 C   0  0  0  0  0  0  0  0  0  0  0  0
   39.7860   23.0480   38.7460 H   0  0  0  0  0  0  0  0  0  0  0  0
   37.8060   23.0900   38.8260 O   0  0  0  0  0  0  0  0  0  0  0  0
  1 14  1  0  0  0  0
  2  7  1  0  0  0  0
  2  1  2  0  0  0  0
  3  2  1  0  0  0  0
  4  3  2  0  0  0  0
  4  5  1  0  0  0  0
  5  6  2  0  0  0  0
  6  1  1  0  0  0  0
  8  3  1  0  0  0  0
  9  4  1  0  0  0  0
 10  5  1  0  0  0  0
 10 13  1  0  0  0  0
 11 10  1  0  0  0  0
 12 10  1  0  0  0  0
 14 16  1  0  0  0  0
 15 20  1  0  0  0  0
 16 15  2  0  0  0  0
 16 17  1  0  0  0  0
 17 18  2  0  0  0  0
 18 19  1  0  0  0  0
 19 23  1  0  0  0  0
 20 19  2  0  0  0  0
 21 15  1  0  0  0  0
 22 17  1  0  0  0  0
 23 24  1  0  0  0  0
 23 25  2  0  0  0  0
M  END
>  <minimizedAffinity>
-4.23378515

$$$$

 OpenBabel03262522233D

 25 26  0  0  0  0  0  0  0  0999 V2000
   38.4680   23.6540   35.5630 C   0  0  0  0  0  0  0  0  0  0  0  0
   37.7350   24.2640   36.5310 C   0  0  0  0  0  0  0  0  0  0  0  0
   38.0600   24.0910   37.8470 C   0  0  0  0  0  0  0  0  0  0  0  0
   39.1430   23.2860   38.1470 C   0  0  0  0  0  0  0  0  0  0  0  0
   39.8850   22.6660   37.1460 C   0  0  0  0  0  0  0  0  0  0  0  0
   39.5050   22.8830   35.8690 N   0  0  0  0  0  0  0  0  0  0  0  0
   36.9120   24.8690   36.1730 H   0  0  0  0  0  0  0  0  0  0  0  0
   37.4620   24.5880   38.5980 H   0  0  0  0  0  0  0  0  0  0  0  0
   39.3740   23.1700   39.2090 H   0  0  0  0  0  0  0  0  0  0  0  0
   41.0450   21.8060   37.5120 C   0  0  0  0  0  0  0  0  0  0  0  0
   41.4850   22.1780   38.4510 H   0  0  0  0  0  0  0  0  0  0  0  0
   40.6000   20.7890   37.7030 H   0  0  0  0  0  0  0  0  0  0  0  0
   41.7680   21.7070   36.6940 H   0  0  0  0  0  0  0  0  0  0  0  0
   38.2820   23.7160   34.1690 O   0  0  0  0  0  0  0  0  0  0  0  0
   36.9870   25.0470   32.7780 C   0  0  0  0  0  0  0  0  0  0  0  0
   38.0980   24.9460   33.6240 C   0  0  0  0  0  0  0  0  0  0  0  0
   38.8520   26.0930   33.7930 C   0  0  0  0  0  0  0  0  0  0  0  0
   38.4900   27.2230   33.1500 N   0  0  0  0  0  0  0  0  0  0  0  0
   37.4310   27.2750   32.3600 C   0  0  0  0  0  0  0  0  0  0  0  0
   36.6450   26.1890   32.1470 N   0  0  0  0  0  0  0  0  0  0  0  0
   36.2940   24.2280   32.5450 H   0  0  0  0  0  0  0  0  0  0  0  0
   39.6980   25.9840   34.4470 H   0  0  0  0  0  0  0  0  0  0  0  0
   37.1220   28.5440   31.7100 C   0  0  0  0  0  0  0  0  0  0  0  0
   37.7780   29.4020   31.6410 H   0  0  0  0  0  0  0  0  0  0  0  0
   35.9930   28.6770   31.1720 O   0  0  0  0  0  0  0  0  0  0  0  0
  1  6  2  0  0  0  0
  1  2  1  0  0  0  0
  2  3  2  0  0  0  0
  3  4  1  0  0  0  0
  3  8  1  0  0  0  0
  4  9  1  0  0  0  0
  5 10  1  0  0  0  0
  5  4  2  0  0  0  0
  6  5  1  0  0  0  0
  7  2  1  0  0  0  0
 10 12  1  0  0  0  0
 10 11  1  0  0  0  0
 13 10  1  0  0  0  0
 14  1  1  0  0  0  0
 15 16  1  0  0  0  0
 16 17  2  0  0  0  0
 16 14  1  0  0  0  0
 17 22  1  0  0  0  0
 18 17  1  0  0  0  0
 19 18  2  0  0  0  0
 20 19  1  0  0  0  0
 20 15  2  0  0  0  0
 21 15  1  0  0  0  0
 23 19  1  0  0  0  0
 24 23  1  0  0  0  0
 25 23  2  0  0  0  0
M  END
>  <minimizedAffinity>
-4.19078159

$$$$

 OpenBabel03262522233D

 25 26  0  0  0  0  0  0  0  0999 V2000
   39.1180   24.4530   35.7190 C   0  0  0  0  0  0  0  0  0  0  0  0
   38.1580   25.2340   36.2790 C   0  0  0  0  0  0  0  0  0  0  0  0
   38.2100   26.5920   36.1330 C   0  0  0  0  0  0  0  0  0  0  0  0
   39.2570   27.1270   35.4070 C   0  0  0  0  0  0  0  0  0  0  0  0
   40.2340   26.3160   34.8380 C   0  0  0  0  0  0  0  0  0  0  0  0
   40.1180   24.9830   35.0240 N   0  0  0  0  0  0  0  0  0  0  0  0
   37.3890   24.7010   36.8230 H   0  0  0  0  0  0  0  0  0  0  0  0
   37.4340   27.1920   36.5870 H   0  0  0  0  0  0  0  0  0  0  0  0
   39.2660   28.2150   35.3100 H   0  0  0  0  0  0  0  0  0  0  0  0
   41.3470   26.9320   34.0630 C   0  0  0  0  0  0  0  0  0  0  0  0
   40.9880   27.8630   33.5980 H   0  0  0  0  0  0  0  0  0  0  0  0
   42.1250   27.1940   34.8350 H   0  0  0  0  0  0  0  0  0  0  0  0
   41.8030   26.2310   33.3540 H   0  0  0  0  0  0  0  0  0  0  0  0
   39.2270   23.0500   35.7650 O   0  0  0  0  0  0  0  0  0  0  0  0
   38.4690   22.1150   33.7810 C   0  0  0  0  0  0  0  0  0  0  0  0
   38.2530   22.3330   35.1470 C   0  0  0  0  0  0  0  0  0  0  0  0
   37.0960   21.8000   35.6820 C   0  0  0  0  0  0  0  0  0  0  0  0
   36.2520   21.1140   34.8830 N   0  0  0  0  0  0  0  0  0  0  0  0
   36.4950   20.9300   33.5960 C   0  0  0  0  0  0  0  0  0  0  0  0
   37.6110   21.4260   33.0020 N   0  0  0  0  0  0  0  0  0  0  0  0
   39.3370   22.4750   33.2140 H   0  0  0  0  0  0  0  0  0  0  0  0
   36.9580   21.9840   36.7320 H   0  0  0  0  0  0  0  0  0  0  0  0
   35.5220   20.1740   32.8160 C   0  0  0  0  0  0  0  0  0  0  0  0
   35.5370   19.1070   32.6380 H   0  0  0  0  0  0  0  0  0  0  0  0
   34.5660   20.7990   32.2900 O   0  0  0  0  0  0  0  0  0  0  0  0
  1 14  1  0  0  0  0
  1  2  1  0  0  0  0
  2  7  1  0  0  0  0
  3  2  2  0  0  0  0
  3  8  1  0  0  0  0
  4  3  1  0  0  0  0
  5  6  1  0  0  0  0
  5  4  2  0  0  0  0
  6  1  2  0  0  0  0
  9  4  1  0  0  0  0
 10 12  1  0  0  0  0
 10  5  1  0  0  0  0
 11 10  1  0  0  0  0
 13 10  1  0  0  0  0
 15 16  1  0  0  0  0
 16 17  2  0  0  0  0
 16 14  1  0  0  0  0
 17 22  1  0  0  0  0
 18 17  1  0  0  0  0
 19 18  2  0  0  0  0
 20 19  1  0  0  0  0
 20 15  2  0  0  0  0
 21 15  1  0  0  0  0
 23 19  1  0  0  0  0
 24 23  1  0  0  0  0
 25 23  2  0  0  0  0
M  END
>  <minimizedAffinity>
-4.16908932

$$$$

 OpenBabel03262522233D

 25 26  0  0  0  0  0  0  0  0999 V2000
   36.5720   21.6830   31.7810 C   0  0  0  0  0  0  0  0  0  0  0  0
   35.9230   20.7170   31.0800 C   0  0  0  0  0  0  0  0  0  0  0  0
   35.2140   19.7520   31.7410 C   0  0  0  0  0  0  0  0  0  0  0  0
   35.1850   19.7990   33.1210 C   0  0  0  0  0  0  0  0  0  0  0  0
   35.8550   20.7940   33.8280 C   0  0  0  0  0  0  0  0  0  0  0  0
   36.5340   21.7130   33.1090 N   0  0  0  0  0  0  0  0  0  0  0  0
   36.0180   20.7850   30.0050 H   0  0  0  0  0  0  0  0  0  0  0  0
   34.7060   18.9950   31.1610 H   0  0  0  0  0  0  0  0  0  0  0  0
   34.6100   19.0130   33.6160 H   0  0  0  0  0  0  0  0  0  0  0  0
   35.8000   20.8090   35.3160 C   0  0  0  0  0  0  0  0  0  0  0  0
   34.8430   20.3740   35.6430 H   0  0  0  0  0  0  0  0  0  0  0  0
   36.6340   20.1260   35.6420 H   0  0  0  0  0  0  0  0  0  0  0  0
   35.9990   21.8030   35.7330 H   0  0  0  0  0  0  0  0  0  0  0  0
   37.3440   22.7460   31.2760 O   0  0  0  0  0  0  0  0  0  0  0  0
   37.6710   24.9430   31.9480 C   0  0  0  0  0  0  0  0  0  0  0  0
   36.8170   23.9940   31.3740 C   0  0  0  0  0  0  0  0  0  0  0  0
   35.5680   24.4420   30.9860 C   0  0  0  0  0  0  0  0  0  0  0  0
   35.2410   25.7370   31.1750 N   0  0  0  0  0  0  0  0  0  0  0  0
   36.0790   26.6020   31.7220 C   0  0  0  0  0  0  0  0  0  0  0  0
   37.3220   26.2330   32.1270 N   0  0  0  0  0  0  0  0  0  0  0  0
   38.6890   24.7420   32.3050 H   0  0  0  0  0  0  0  0  0  0  0  0
   34.9360   23.6910   30.5480 H   0  0  0  0  0  0  0  0  0  0  0  0
   35.6330   27.9810   31.8840 C   0  0  0  0  0  0  0  0  0  0  0  0
   34.7990   28.4460   31.3750 H   0  0  0  0  0  0  0  0  0  0  0  0
   36.2610   28.7190   32.6860 O   0  0  0  0  0  0  0  0  0  0  0  0
  1  6  1  0  0  0  0
  2  3  1  0  0  0  0
  2  1  2  0  0  0  0
  3  4  2  0  0  0  0
  4  9  1  0  0  0  0
  4  5  1  0  0  0  0
  5 10  1  0  0  0  0
  6  5  2  0  0  0  0
  7  2  1  0  0  0  0
  8  3  1  0  0  0  0
 10 12  1  0  0  0  0
 10 11  1  0  0  0  0
 10 13  1  0  0  0  0
 14 16  1  0  0  0  0
 14  1  1  0  0  0  0
 15 20  1  0  0  0  0
 15 21  1  0  0  0  0
 16 15  2  0  0  0  0
 17 18  2  0  0  0  0
 17 16  1  0  0  0  0
 18 19  1  0  0  0  0
 19 23  1  0  0  0  0
 19 20  2  0  0  0  0
 22 17  1  0  0  0  0
 23 25  2  0  0  0  0
 24 23  1  0  0  0  0
M  END
>  <minimizedAffinity>
-4.16073656

$$$$

 OpenBabel03262522233D

 25 26  0  0  0  0  0  0  0  0999 V2000
   39.2080   24.0880   35.7230 C   0  0  0  0  0  0  0  0  0  0  0  0
   40.4650   24.2110   35.2200 C   0  0  0  0  0  0  0  0  0  0  0  0
   40.9250   25.4350   34.8220 C   0  0  0  0  0  0  0  0  0  0  0  0
   40.0790   26.5200   34.9490 C   0  0  0  0  0  0  0  0  0  0  0  0
   38.7940   26.3810   35.4660 C   0  0  0  0  0  0  0  0  0  0  0  0
   38.4070   25.1420   35.8390 N   0  0  0  0  0  0  0  0  0  0  0  0
   41.0320   23.2910   35.1700 H   0  0  0  0  0  0  0  0  0  0  0  0
   41.9280   25.5070   34.4250 H   0  0  0  0  0  0  0  0  0  0  0  0
   40.4800   27.4820   34.6210 H   0  0  0  0  0  0  0  0  0  0  0  0
   37.9120   27.5750   35.5870 C   0  0  0  0  0  0  0  0  0  0  0  0
   38.5370   28.4670   35.7500 H   0  0  0  0  0  0  0  0  0  0  0  0
   37.4130   27.6670   34.5810 H   0  0  0  0  0  0  0  0  0  0  0  0
   37.1260   27.4420   36.3390 H   0  0  0  0  0  0  0  0  0  0  0  0
   38.5700   22.9200   36.1790 O   0  0  0  0  0  0  0  0  0  0  0  0
   36.7080   21.5720   35.8600 C   0  0  0  0  0  0  0  0  0  0  0  0
   37.7890   22.2540   35.2890 C   0  0  0  0  0  0  0  0  0  0  0  0
   37.9210   22.1630   33.9160 C   0  0  0  0  0  0  0  0  0  0  0  0
   37.0260   21.4400   33.2120 N   0  0  0  0  0  0  0  0  0  0  0  0
   36.0170   20.8110   33.7910 C   0  0  0  0  0  0  0  0  0  0  0  0
   35.8250   20.8560   35.1350 N   0  0  0  0  0  0  0  0  0  0  0  0
   36.4710   21.5490   36.9320 H   0  0  0  0  0  0  0  0  0  0  0  0
   38.7600   22.6960   33.5080 H   0  0  0  0  0  0  0  0  0  0  0  0
   35.1020   20.0550   32.9430 C   0  0  0  0  0  0  0  0  0  0  0  0
   34.7040   19.0710   33.1520 H   0  0  0  0  0  0  0  0  0  0  0  0
   34.7250   20.5760   31.8630 O   0  0  0  0  0  0  0  0  0  0  0  0
  1  6  1  0  0  0  0
  1 14  1  0  0  0  0
  2  1  2  0  0  0  0
  3  4  2  0  0  0  0
  3  2  1  0  0  0  0
  4  5  1  0  0  0  0
  5 10  1  0  0  0  0
  5  6  2  0  0  0  0
  7  2  1  0  0  0  0
  8  3  1  0  0  0  0
  9  4  1  0  0  0  0
 10 11  1  0  0  0  0
 10 13  1  0  0  0  0
 12 10  1  0  0  0  0
 15 21  1  0  0  0  0
 16 15  1  0  0  0  0
 16 14  1  0  0  0  0
 17 16  2  0  0  0  0
 18 19  2  0  0  0  0
 18 17  1  0  0  0  0
 19 20  1  0  0  0  0
 20 15  2  0  0  0  0
 22 17  1  0  0  0  0
 23 24  1  0  0  0  0
 23 19  1  0  0  0  0
 25 23  2  0  0  0  0
M  END
>  <minimizedAffinity>
-4.11057806

$$$$
