
 OpenBabel03272506463D

 36 38  0  0  1  0  0  0  0  0999 V2000
   32.2110   28.6350   47.3930 C   0  0  2  0  0  0  0  0  0  0  0  0
   33.4580   28.3790   48.1870 C   0  0  1  0  0  0  0  0  0  0  0  0
   33.7910   27.0670   48.0350 O   0  0  0  0  0  0  0  0  0  0  0  0
   33.0400   26.5190   47.0020 C   0  0  0  0  0  0  0  0  0  0  0  0
   32.4770   27.6650   46.1990 C   0  0  1  0  0  0  0  0  0  0  0  0
   31.2790   28.3190   47.8490 H   0  0  0  0  0  0  0  0  0  0  0  0
   33.3590   28.6150   49.2650 H   0  0  0  0  0  0  0  0  0  0  0  0
   32.3220   25.8510   47.4560 H   0  0  0  0  0  0  0  0  0  0  0  0
   33.6930   25.8800   46.3540 H   0  0  0  0  0  0  0  0  0  0  0  0
   33.2160   28.1500   45.5550 H   0  0  0  0  0  0  0  0  0  0  0  0
   32.1940   29.9610   46.9080 O   0  0  0  0  0  0  0  0  0  0  0  0
   31.6980   30.4670   47.5930 H   0  0  0  0  0  0  0  0  0  0  0  0
   34.8050   29.3890   47.4420 S   0  0  0  0  0  0  0  0  0  0  0  0
   37.1360   29.3070   50.6490 C   0  0  0  0  0  0  0  0  0  0  0  0
   37.6420   30.6050   50.7550 C   0  0  0  0  0  0  0  0  0  0  0  0
   37.2460   31.5470   49.7920 C   0  0  0  0  0  0  0  0  0  0  0  0
   36.3980   31.1460   48.8170 N   0  0  0  0  0  0  0  0  0  0  0  0
   35.9280   29.8830   48.7440 C   0  0  0  0  0  0  0  0  0  0  0  0
   36.2900   28.9460   49.6590 N   0  0  0  0  0  0  0  0  0  0  0  0
   37.4640   28.6080   51.4080 H   0  0  0  0  0  0  0  0  0  0  0  0
   38.3210   30.8950   51.5490 H   0  0  0  0  0  0  0  0  0  0  0  0
   37.6170   32.5600   49.8420 H   0  0  0  0  0  0  0  0  0  0  0  0
   31.2980   27.2710   45.6150 O   0  0  0  0  0  0  0  0  0  0  0  0
   29.7700   29.5380   44.5280 Cl  0  0  0  0  0  0  0  0  0  0  0  0
   29.2820   28.3760   45.7370 C   0  0  0  0  0  0  0  0  0  0  0  0
   30.0870   27.3430   46.1580 C   0  0  0  0  0  0  0  0  0  0  0  0
   29.5740   26.4580   47.1090 C   0  0  0  0  0  0  0  0  0  0  0  0
   28.2990   26.6230   47.6060 C   0  0  0  0  0  0  0  0  0  0  0  0
   27.4810   27.6590   47.1900 C   0  0  0  0  0  0  0  0  0  0  0  0
   27.9980   28.5350   46.2430 C   0  0  0  0  0  0  0  0  0  0  0  0
   30.1230   25.6180   47.4950 H   0  0  0  0  0  0  0  0  0  0  0  0
   27.8360   25.9810   48.3420 H   0  0  0  0  0  0  0  0  0  0  0  0
   26.4890   27.8170   47.5530 H   0  0  0  0  0  0  0  0  0  0  0  0
   27.1520   29.6370   45.7900 C   0  0  0  0  0  0  0  0  0  0  0  0
   26.7240   29.6350   44.7960 H   0  0  0  0  0  0  0  0  0  0  0  0
   26.9040   30.6090   46.5460 O   0  0  0  0  0  0  0  0  0  0  0  0
  1  6  1  1  0  0  0
  1  2  1  0  0  0  0
  2  7  1  1  0  0  0
  3  2  1  0  0  0  0
  4  8  1  0  0  0  0
  4  3  1  0  0  0  0
  5 10  1  6  0  0  0
  5  4  1  0  0  0  0
  5  1  1  0  0  0  0
  9  4  1  0  0  0  0
 11  1  1  0  0  0  0
 11 12  1  0  0  0  0
 13  2  1  0  0  0  0
 13 18  1  0  0  0  0
 14 15  1  0  0  0  0
 14 20  1  0  0  0  0
 15 21  1  0  0  0  0
 16 22  1  0  0  0  0
 16 15  2  0  0  0  0
 17 16  1  0  0  0  0
 18 17  2  0  0  0  0
 18 19  1  0  0  0  0
 19 14  2  0  0  0  0
 23 26  1  0  0  0  0
 23  5  1  0  0  0  0
 24 25  1  0  0  0  0
 25 26  2  0  0  0  0
 25 30  1  0  0  0  0
 26 27  1  0  0  0  0
 27 31  1  0  0  0  0
 27 28  2  0  0  0  0
 28 32  1  0  0  0  0
 29 33  1  0  0  0  0
 29 28  1  0  0  0  0
 30 29  2  0  0  0  0
 34 30  1  0  0  0  0
 34 36  2  0  0  0  0
 35 34  1  0  0  0  0
M  END
>  <minimizedAffinity>
-4.64331579

>  <minimizedRMSD>
0.539472401

$$$$
