
 OpenBabel03272506463D

 36 38  0  0  1  0  0  0  0  0999 V2000
   32.1690   28.5310   47.4370 C   0  0  2  0  0  0  0  0  0  0  0  0
   33.4180   28.3450   48.2470 C   0  0  1  0  0  0  0  0  0  0  0  0
   33.8010   27.0420   48.1360 O   0  0  0  0  0  0  0  0  0  0  0  0
   33.0780   26.4370   47.1140 C   0  0  0  0  0  0  0  0  0  0  0  0
   32.4790   27.5370   46.2750 C   0  0  1  0  0  0  0  0  0  0  0  0
   31.2450   28.1940   47.8970 H   0  0  0  0  0  0  0  0  0  0  0  0
   33.3030   28.6080   49.3170 H   0  0  0  0  0  0  0  0  0  0  0  0
   32.3820   25.7560   47.5830 H   0  0  0  0  0  0  0  0  0  0  0  0
   33.7590   25.8030   46.4900 H   0  0  0  0  0  0  0  0  0  0  0  0
   33.2040   28.0300   45.6210 H   0  0  0  0  0  0  0  0  0  0  0  0
   32.1060   29.8400   46.9130 O   0  0  0  0  0  0  0  0  0  0  0  0
   31.5870   30.3470   47.5800 H   0  0  0  0  0  0  0  0  0  0  0  0
   34.7330   29.3820   47.4810 S   0  0  0  0  0  0  0  0  0  0  0  0
   37.1320   29.3000   50.6360 C   0  0  0  0  0  0  0  0  0  0  0  0
   37.6330   30.6000   50.7370 C   0  0  0  0  0  0  0  0  0  0  0  0
   37.2110   31.5440   49.7870 C   0  0  0  0  0  0  0  0  0  0  0  0
   36.3450   31.1420   48.8290 N   0  0  0  0  0  0  0  0  0  0  0  0
   35.8800   29.8770   48.7610 C   0  0  0  0  0  0  0  0  0  0  0  0
   36.2670   28.9380   49.6640 N   0  0  0  0  0  0  0  0  0  0  0  0
   37.4790   28.6000   51.3860 H   0  0  0  0  0  0  0  0  0  0  0  0
   38.3270   30.8910   51.5180 H   0  0  0  0  0  0  0  0  0  0  0  0
   37.5780   32.5580   49.8330 H   0  0  0  0  0  0  0  0  0  0  0  0
   31.3200   27.0820   45.6940 O   0  0  0  0  0  0  0  0  0  0  0  0
   29.8410   29.2230   44.3180 Cl  0  0  0  0  0  0  0  0  0  0  0  0
   29.3060   28.1960   45.6270 C   0  0  0  0  0  0  0  0  0  0  0  0
   30.0900   27.2130   46.1830 C   0  0  0  0  0  0  0  0  0  0  0  0
   29.5400   26.4350   47.2040 C   0  0  0  0  0  0  0  0  0  0  0  0
   28.2490   26.6530   47.6350 C   0  0  0  0  0  0  0  0  0  0  0  0
   27.4520   27.6400   47.0820 C   0  0  0  0  0  0  0  0  0  0  0  0
   28.0060   28.4090   46.0670 C   0  0  0  0  0  0  0  0  0  0  0  0
   30.0710   25.6400   47.6970 H   0  0  0  0  0  0  0  0  0  0  0  0
   27.7580   26.0930   48.4180 H   0  0  0  0  0  0  0  0  0  0  0  0
   26.4470   27.8370   47.3910 H   0  0  0  0  0  0  0  0  0  0  0  0
   27.1810   29.4570   45.4690 C   0  0  0  0  0  0  0  0  0  0  0  0
   27.2800   30.4880   45.7840 H   0  0  0  0  0  0  0  0  0  0  0  0
   26.3400   29.1830   44.5770 O   0  0  0  0  0  0  0  0  0  0  0  0
  1  6  1  1  0  0  0
  1  2  1  0  0  0  0
  2  7  1  1  0  0  0
  3  2  1  0  0  0  0
  4  8  1  0  0  0  0
  4  3  1  0  0  0  0
  5 10  1  6  0  0  0
  5  4  1  0  0  0  0
  5  1  1  0  0  0  0
  9  4  1  0  0  0  0
 11  1  1  0  0  0  0
 11 12  1  0  0  0  0
 13  2  1  0  0  0  0
 13 18  1  0  0  0  0
 14 15  1  0  0  0  0
 14 20  1  0  0  0  0
 15 21  1  0  0  0  0
 16 22  1  0  0  0  0
 16 15  2  0  0  0  0
 17 16  1  0  0  0  0
 18 17  2  0  0  0  0
 18 19  1  0  0  0  0
 19 14  2  0  0  0  0
 23 26  1  0  0  0  0
 23  5  1  0  0  0  0
 24 25  1  0  0  0  0
 25 30  2  0  0  0  0
 25 26  1  0  0  0  0
 26 27  2  0  0  0  0
 27 28  1  0  0  0  0
 27 31  1  0  0  0  0
 28 32  1  0  0  0  0
 29 33  1  0  0  0  0
 29 28  2  0  0  0  0
 30 29  1  0  0  0  0
 34 35  1  0  0  0  0
 34 30  1  0  0  0  0
 36 34  2  0  0  0  0
M  END
>  <minimizedAffinity>
-4.59711313

>  <minimizedRMSD>
0.095975548

$$$$
