
 OpenBabel03262520093D

 22 23  0  0  0  0  0  0  0  0999 V2000
   38.3440   31.8720   49.0440 Br  0  0  0  0  0  0  0  0  0  0  0  0
   37.0590   31.0610   47.8850 C   0  0  0  0  0  0  0  0  0  0  0  0
   37.2640   30.9680   46.5170 C   0  0  0  0  0  0  0  0  0  0  0  0
   36.2950   30.3730   45.7560 C   0  0  0  0  0  0  0  0  0  0  0  0
   35.1190   29.8600   46.2800 C   0  0  0  0  0  0  0  0  0  0  0  0
   34.9400   29.9650   47.6350 C   0  0  0  0  0  0  0  0  0  0  0  0
   35.9010   30.5590   48.4240 C   0  0  0  0  0  0  0  0  0  0  0  0
   36.4430   30.2930   44.6750 H   0  0  0  0  0  0  0  0  0  0  0  0
   34.3980   29.4020   45.6120 H   0  0  0  0  0  0  0  0  0  0  0  0
   34.0170   29.5660   48.0810 H   0  0  0  0  0  0  0  0  0  0  0  0
   39.5600   33.2040   44.7650 C   0  0  0  0  0  0  0  0  0  0  0  0
   40.7950   32.5260   44.8140 C   0  0  0  0  0  0  0  0  0  0  0  0
   40.8250   31.2970   45.4530 C   0  0  0  0  0  0  0  0  0  0  0  0
   39.6710   30.8030   46.0020 N   0  0  0  0  0  0  0  0  0  0  0  0
   38.4930   31.4990   45.9300 C   0  0  0  0  0  0  0  0  0  0  0  0
   38.4520   32.6900   45.3130 N   0  0  0  0  0  0  0  0  0  0  0  0
   39.6090   34.1490   44.2550 H   0  0  0  0  0  0  0  0  0  0  0  0
   41.7250   32.8420   44.4150 H   0  0  0  0  0  0  0  0  0  0  0  0
   41.6570   30.6290   45.5970 H   0  0  0  0  0  0  0  0  0  0  0  0
   35.6890   30.6600   49.8660 C   0  0  0  0  0  0  0  0  0  0  0  0
   35.4140   31.5940   50.3350 H   0  0  0  0  0  0  0  0  0  0  0  0
   35.8270   29.6410   50.5950 O   0  0  0  0  0  0  0  0  0  0  0  0
  2  7  1  0  0  0  0
  2  1  1  0  0  0  0
  3  2  2  0  0  0  0
  4  5  2  0  0  0  0
  4  3  1  0  0  0  0
  5  6  1  0  0  0  0
  6 10  1  0  0  0  0
  6  7  2  0  0  0  0
  7 20  1  0  0  0  0
  8  4  1  0  0  0  0
  9  5  1  0  0  0  0
 11 12  2  0  0  0  0
 11 16  1  0  0  0  0
 12 13  1  0  0  0  0
 13 19  1  0  0  0  0
 13 14  2  0  0  0  0
 15 14  1  0  0  0  0
 15  3  1  0  0  0  0
 16 15  2  0  0  0  0
 17 11  1  0  0  0  0
 18 12  1  0  0  0  0
 20 21  1  0  0  0  0
 20 22  2  0  0  0  0
M  END
>  <minimizedAffinity>
-5.05421829

>  <minimizedRMSD>
3.14486647

$$$$
