
 OpenBabel03272506463D

 36 38  0  0  1  0  0  0  0  0999 V2000
   31.9860   28.4200   47.4550 C   0  0  2  0  0  0  0  0  0  0  0  0
   33.2370   28.2170   48.2580 C   0  0  1  0  0  0  0  0  0  0  0  0
   33.5950   26.9070   48.1560 O   0  0  0  0  0  0  0  0  0  0  0  0
   32.8540   26.3060   47.1440 C   0  0  0  0  0  0  0  0  0  0  0  0
   32.2700   27.4100   46.2990 C   0  0  1  0  0  0  0  0  0  0  0  0
   31.0590   28.1030   47.9240 H   0  0  0  0  0  0  0  0  0  0  0  0
   33.1340   28.4920   49.3260 H   0  0  0  0  0  0  0  0  0  0  0  0
   32.1490   25.6430   47.6240 H   0  0  0  0  0  0  0  0  0  0  0  0
   33.5190   25.6550   46.5210 H   0  0  0  0  0  0  0  0  0  0  0  0
   32.9990   27.8840   45.6360 H   0  0  0  0  0  0  0  0  0  0  0  0
   31.9430   29.7250   46.9200 O   0  0  0  0  0  0  0  0  0  0  0  0
   31.4380   30.2470   47.5860 H   0  0  0  0  0  0  0  0  0  0  0  0
   34.5650   29.2240   47.4730 S   0  0  0  0  0  0  0  0  0  0  0  0
   37.0020   29.2390   50.6020 C   0  0  0  0  0  0  0  0  0  0  0  0
   37.4130   30.5680   50.7260 C   0  0  0  0  0  0  0  0  0  0  0  0
   36.9160   31.5010   49.8020 C   0  0  0  0  0  0  0  0  0  0  0  0
   36.0680   31.0620   48.8440 N   0  0  0  0  0  0  0  0  0  0  0  0
   35.6910   29.7690   48.7520 C   0  0  0  0  0  0  0  0  0  0  0  0
   36.1520   28.8400   49.6300 N   0  0  0  0  0  0  0  0  0  0  0  0
   37.4050   28.5490   51.3320 H   0  0  0  0  0  0  0  0  0  0  0  0
   38.0940   30.8900   51.5060 H   0  0  0  0  0  0  0  0  0  0  0  0
   37.2130   32.5370   49.8670 H   0  0  0  0  0  0  0  0  0  0  0  0
   31.0980   26.9710   45.7300 O   0  0  0  0  0  0  0  0  0  0  0  0
   29.7190   29.1170   44.2620 Cl  0  0  0  0  0  0  0  0  0  0  0  0
   29.1320   28.1620   45.6020 C   0  0  0  0  0  0  0  0  0  0  0  0
   29.8710   27.1700   46.2020 C   0  0  0  0  0  0  0  0  0  0  0  0
   29.2820   26.4530   47.2460 C   0  0  0  0  0  0  0  0  0  0  0  0
   27.9970   26.7390   47.6560 C   0  0  0  0  0  0  0  0  0  0  0  0
   27.2450   27.7360   47.0590 C   0  0  0  0  0  0  0  0  0  0  0  0
   27.8380   28.4440   46.0210 C   0  0  0  0  0  0  0  0  0  0  0  0
   29.7760   25.6560   47.7730 H   0  0  0  0  0  0  0  0  0  0  0  0
   27.4770   26.2290   48.4540 H   0  0  0  0  0  0  0  0  0  0  0  0
   26.2470   27.9840   47.3510 H   0  0  0  0  0  0  0  0  0  0  0  0
   27.0620   29.5010   45.3770 C   0  0  0  0  0  0  0  0  0  0  0  0
   27.1610   30.5320   45.6930 H   0  0  0  0  0  0  0  0  0  0  0  0
   26.2630   29.2350   44.4450 O   0  0  0  0  0  0  0  0  0  0  0  0
  1  6  1  1  0  0  0
  1  2  1  0  0  0  0
  2  7  1  1  0  0  0
  3  2  1  0  0  0  0
  4  8  1  0  0  0  0
  4  3  1  0  0  0  0
  5 10  1  6  0  0  0
  5  4  1  0  0  0  0
  5  1  1  0  0  0  0
  9  4  1  0  0  0  0
 11  1  1  0  0  0  0
 11 12  1  0  0  0  0
 13  2  1  0  0  0  0
 13 18  1  0  0  0  0
 14 15  1  0  0  0  0
 14 20  1  0  0  0  0
 15 21  1  0  0  0  0
 16 22  1  0  0  0  0
 16 15  2  0  0  0  0
 17 16  1  0  0  0  0
 18 17  2  0  0  0  0
 18 19  1  0  0  0  0
 19 14  2  0  0  0  0
 23 26  1  0  0  0  0
 23  5  1  0  0  0  0
 24 25  1  0  0  0  0
 25 30  2  0  0  0  0
 25 26  1  0  0  0  0
 26 27  2  0  0  0  0
 27 28  1  0  0  0  0
 27 31  1  0  0  0  0
 28 32  1  0  0  0  0
 29 33  1  0  0  0  0
 29 28  2  0  0  0  0
 30 29  1  0  0  0  0
 34 35  1  0  0  0  0
 34 30  1  0  0  0  0
 36 34  2  0  0  0  0
M  END
>  <minimizedAffinity>
-4.60894394

>  <minimizedRMSD>
0.316122741

$$$$
