
 OpenBabel03272510103D

 22 23  0  0  0  0  0  0  0  0999 V2000
   37.3560   31.2250   48.4520 C   0  0  0  0  0  0  0  0  0  0  0  0
   38.3010   32.1430   48.8560 C   0  0  0  0  0  0  0  0  0  0  0  0
   39.1280   32.8230   47.9880 C   0  0  0  0  0  0  0  0  0  0  0  0
   39.0230   32.5880   46.6290 C   0  0  0  0  0  0  0  0  0  0  0  0
   38.0720   31.6660   46.2480 C   0  0  0  0  0  0  0  0  0  0  0  0
   37.2850   31.0240   47.1270 N   0  0  0  0  0  0  0  0  0  0  0  0
   38.4180   32.3590   49.9110 H   0  0  0  0  0  0  0  0  0  0  0  0
   39.8740   33.5460   48.2910 H   0  0  0  0  0  0  0  0  0  0  0  0
   37.8660   31.3710   45.2260 H   0  0  0  0  0  0  0  0  0  0  0  0
   36.8930   30.0310   50.6310 C   0  0  0  0  0  0  0  0  0  0  0  0
   36.4970   30.5260   49.3900 C   0  0  0  0  0  0  0  0  0  0  0  0
   35.1670   30.3380   49.0100 C   0  0  0  0  0  0  0  0  0  0  0  0
   34.3470   29.6760   49.8980 N   0  0  0  0  0  0  0  0  0  0  0  0
   34.7750   29.2200   51.0780 C   0  0  0  0  0  0  0  0  0  0  0  0
   36.0490   29.3930   51.4530 N   0  0  0  0  0  0  0  0  0  0  0  0
   37.9570   30.2330   50.8270 H   0  0  0  0  0  0  0  0  0  0  0  0
   34.7220   30.6690   48.0780 H   0  0  0  0  0  0  0  0  0  0  0  0
   34.0690   28.7050   51.7290 H   0  0  0  0  0  0  0  0  0  0  0  0
   39.7820   33.1900   45.6280 O   0  0  0  0  0  0  0  0  0  0  0  0
   40.8050   32.4400   45.0360 C   0  0  0  0  0  0  0  0  0  0  0  0
   41.7800   32.4260   45.4960 H   0  0  0  0  0  0  0  0  0  0  0  0
   40.6340   31.7670   43.9700 O   0  0  0  0  0  0  0  0  0  0  0  0
  1  2  1  0  0  0  0
  1 11  1  0  0  0  0
  2  7  1  0  0  0  0
  3  8  1  0  0  0  0
  3  2  2  0  0  0  0
  4  3  1  0  0  0  0
  5  4  2  0  0  0  0
  5  6  1  0  0  0  0
  6  1  2  0  0  0  0
  9  5  1  0  0  0  0
 10 16  1  0  0  0  0
 10 15  1  0  0  0  0
 11 10  2  0  0  0  0
 12 11  1  0  0  0  0
 12 13  2  0  0  0  0
 13 14  1  0  0  0  0
 14 15  2  0  0  0  0
 14 18  1  0  0  0  0
 17 12  1  0  0  0  0
 19  4  1  0  0  0  0
 20 21  1  0  0  0  0
 20 19  1  0  0  0  0
 22 20  2  0  0  0  0
M  END
>  <minimizedAffinity>
-4.68587208

>  <minimizedRMSD>
1.14090872

$$$$
