
 OpenBabel03272504403D

 39 40  0  0  0  0  0  0  0  0999 V2000
   37.6250   30.4810   48.5280 Cl  0  0  0  0  0  0  0  0  0  0  0  0
   36.4680   30.3200   47.2060 C   0  0  0  0  0  0  0  0  0  0  0  0
   36.8360   30.6920   45.9620 C   0  0  0  0  0  0  0  0  0  0  0  0
   35.9420   30.5720   44.9190 C   0  0  0  0  0  0  0  0  0  0  0  0
   34.6720   30.0670   45.1750 C   0  0  0  0  0  0  0  0  0  0  0  0
   34.3630   29.7010   46.4990 C   0  0  0  0  0  0  0  0  0  0  0  0
   35.2270   29.8130   47.5250 C   0  0  0  0  0  0  0  0  0  0  0  0
   36.2610   30.8810   43.9150 H   0  0  0  0  0  0  0  0  0  0  0  0
   34.0580   30.0150   44.3010 H   0  0  0  0  0  0  0  0  0  0  0  0
   33.3900   29.3580   46.4800 H   0  0  0  0  0  0  0  0  0  0  0  0
   39.8270   32.8460   45.9860 C   0  0  0  0  0  0  0  0  0  0  0  0
   40.6900   32.1100   45.0990 C   0  0  0  0  0  0  0  0  0  0  0  0
   40.2030   30.9200   44.5430 C   0  0  0  0  0  0  0  0  0  0  0  0
   38.9490   30.5090   44.8580 N   0  0  0  0  0  0  0  0  0  0  0  0
   38.1620   31.2230   45.6950 C   0  0  0  0  0  0  0  0  0  0  0  0
   38.6030   32.3690   46.2420 N   0  0  0  0  0  0  0  0  0  0  0  0
   40.1750   33.7620   46.4270 H   0  0  0  0  0  0  0  0  0  0  0  0
   41.6640   32.5440   44.9310 H   0  0  0  0  0  0  0  0  0  0  0  0
   41.0750   30.2350   43.6860 N   0  0  0  0  0  0  0  0  0  0  0  0
   42.0100   29.9510   44.0290 H   0  0  0  0  0  0  0  0  0  0  0  0
   40.7720   30.0140   42.6980 H   0  0  0  0  0  0  0  0  0  0  0  0
   34.8590   29.4260   48.8540 C   0  0  0  0  0  0  0  0  0  0  0  0
   35.7590   29.4840   49.5050 H   0  0  0  0  0  0  0  0  0  0  0  0
   34.1960   30.2430   49.2680 H   0  0  0  0  0  0  0  0  0  0  0  0
   34.2240   28.1260   49.0920 C   0  0  0  0  0  0  0  0  0  0  0  0
   34.7010   27.5350   49.9230 H   0  0  0  0  0  0  0  0  0  0  0  0
   34.3770   27.4810   48.1810 H   0  0  0  0  0  0  0  0  0  0  0  0
   32.8860   28.2660   49.3500 O   0  0  0  0  0  0  0  0  0  0  0  0
   32.8500   26.5460   47.3730 O   0  0  0  0  0  0  0  0  0  0  0  0
   31.9810   27.4220   48.2390 P   0  0  2  0  0  0  0  0  0  0  0  0
   31.1930   28.6090   47.2520 O   0  0  0  0  0  0  0  0  0  0  0  0
   30.6850   28.2140   46.0120 C   0  0  0  0  0  0  0  0  0  0  0  0
   31.1880   28.2980   45.0560 H   0  0  0  0  0  0  0  0  0  0  0  0
   29.5980   27.6940   45.6790 O   0  0  0  0  0  0  0  0  0  0  0  0
   30.7780   26.5140   48.9190 O   0  0  0  0  0  0  0  0  0  0  0  0
   29.9250   27.3080   49.6600 C   0  0  0  0  0  0  0  0  0  0  0  0
   29.3490   26.6140   50.7220 F   0  0  0  0  0  0  0  0  0  0  0  0
   30.5950   28.3720   50.2350 F   0  0  0  0  0  0  0  0  0  0  0  0
   28.9040   27.7830   48.8480 F   0  0  0  0  0  0  0  0  0  0  0  0
  2  7  1  0  0  0  0
  2  1  1  0  0  0  0
  3  2  2  0  0  0  0
  4  5  2  0  0  0  0
  4  3  1  0  0  0  0
  5  6  1  0  0  0  0
  6  7  2  0  0  0  0
  7 22  1  0  0  0  0
  8  4  1  0  0  0  0
  9  5  1  0  0  0  0
 10  6  1  0  0  0  0
 11 16  1  0  0  0  0
 11 17  1  0  0  0  0
 12 11  2  0  0  0  0
 13 14  2  0  0  0  0
 13 12  1  0  0  0  0
 14 15  1  0  0  0  0
 15  3  1  0  0  0  0
 15 16  2  0  0  0  0
 18 12  1  0  0  0  0
 19 20  1  0  0  0  0
 19 13  1  0  0  0  0
 21 19  1  0  0  0  0
 22 25  1  0  0  0  0
 22 24  1  0  0  0  0
 22 23  1  0  0  0  0
 25 28  1  0  0  0  0
 25 26  1  0  0  0  0
 27 25  1  0  0  0  0
 30 29  2  6  0  0  0
 30 35  1  0  0  0  0
 30 28  1  0  0  0  0
 31 30  1  0  0  0  0
 32 31  1  0  0  0  0
 33 32  1  0  0  0  0
 34 32  2  0  0  0  0
 35 36  1  0  0  0  0
 36 38  1  0  0  0  0
 36 37  1  0  0  0  0
 39 36  1  0  0  0  0
M  END
>  <minimizedAffinity>
-5.49459362

>  <minimizedRMSD>
0.175761104

$$$$
