
 OpenBabel03272503433D

 35 37  0  0  1  0  0  0  0  0999 V2000
   36.8870   27.7170   33.9730 C   0  0  0  0  0  0  0  0  0  0  0  0
   36.3940   27.7150   32.6960 C   0  0  0  0  0  0  0  0  0  0  0  0
   35.5560   28.8280   32.6510 C   0  0  0  0  0  0  0  0  0  0  0  0
   35.5580   29.4440   33.8330 N   0  0  0  0  0  0  0  0  0  0  0  0
   36.3720   28.7660   34.6430 N   0  0  0  0  0  0  0  0  0  0  0  0
   36.6540   26.9670   31.9400 H   0  0  0  0  0  0  0  0  0  0  0  0
   35.0140   29.0770   31.7250 H   0  0  0  0  0  0  0  0  0  0  0  0
   33.3080   30.2970   34.2430 C   0  0  2  0  0  0  0  0  0  0  0  0
   34.7860   30.6280   34.0960 C   0  0  1  0  0  0  0  0  0  0  0  0
   35.0240   31.1770   35.4880 C   0  0  0  0  0  0  0  0  0  0  0  0
   33.8840   31.8430   35.8710 O   0  0  0  0  0  0  0  0  0  0  0  0
   32.8660   31.5500   35.0140 C   0  0  0  0  0  0  0  0  0  0  0  0
   32.7740   30.2010   33.2950 H   0  0  0  0  0  0  0  0  0  0  0  0
   34.9820   31.4120   33.3650 H   0  0  0  0  0  0  0  0  0  0  0  0
   35.2670   30.3870   36.2160 H   0  0  0  0  0  0  0  0  0  0  0  0
   35.9100   31.8560   35.4200 H   0  0  0  0  0  0  0  0  0  0  0  0
   32.7460   32.3430   34.2460 H   0  0  0  0  0  0  0  0  0  0  0  0
   31.8820   31.3920   35.4960 H   0  0  0  0  0  0  0  0  0  0  0  0
   33.2100   29.1970   35.0910 O   0  0  0  0  0  0  0  0  0  0  0  0
   31.9600   28.8300   35.6150 C   0  0  0  0  0  0  0  0  0  0  0  0
   31.0870   29.3340   35.2350 H   0  0  0  0  0  0  0  0  0  0  0  0
   31.8810   27.9300   36.5090 O   0  0  0  0  0  0  0  0  0  0  0  0
   38.3680   24.8560   35.8860 C   0  0  0  0  0  0  0  0  0  0  0  0
   37.4510   25.7550   35.3910 C   0  0  0  0  0  0  0  0  0  0  0  0
   37.8120   26.7490   34.5200 C   0  0  0  0  0  0  0  0  0  0  0  0
   39.1190   26.8010   34.1710 N   0  0  0  0  0  0  0  0  0  0  0  0
   40.0230   25.9040   34.6670 C   0  0  0  0  0  0  0  0  0  0  0  0
   39.6590   24.9510   35.5060 N   0  0  0  0  0  0  0  0  0  0  0  0
   36.3810   25.7430   35.6530 H   0  0  0  0  0  0  0  0  0  0  0  0
   41.0710   25.9670   34.3710 H   0  0  0  0  0  0  0  0  0  0  0  0
   37.8130   23.9160   36.7590 O   0  0  0  0  0  0  0  0  0  0  0  0
   38.1520   23.8350   38.1230 C   0  0  0  0  0  0  0  0  0  0  0  0
   38.0440   25.0720   38.7510 F   0  0  0  0  0  0  0  0  0  0  0  0
   39.4150   23.3260   38.2460 F   0  0  0  0  0  0  0  0  0  0  0  0
   37.2840   22.9440   38.7400 F   0  0  0  0  0  0  0  0  0  0  0  0
  1 25  1  0  0  0  0
  1  5  2  0  0  0  0
  2  1  1  0  0  0  0
  3  2  2  0  0  0  0
  3  4  1  0  0  0  0
  4  9  1  0  0  0  0
  4  5  1  0  0  0  0
  6  2  1  0  0  0  0
  7  3  1  0  0  0  0
  8 13  1  6  0  0  0
  8 12  1  0  0  0  0
  8 19  1  0  0  0  0
  9 14  1  6  0  0  0
  9  8  1  0  0  0  0
  9 10  1  0  0  0  0
 10 11  1  0  0  0  0
 10 15  1  0  0  0  0
 12 18  1  0  0  0  0
 12 11  1  0  0  0  0
 16 10  1  0  0  0  0
 17 12  1  0  0  0  0
 19 20  1  0  0  0  0
 20 22  2  0  0  0  0
 21 20  1  0  0  0  0
 23 31  1  0  0  0  0
 24 29  1  0  0  0  0
 24 23  2  0  0  0  0
 25 24  1  0  0  0  0
 26 25  2  0  0  0  0
 26 27  1  0  0  0  0
 27 28  2  0  0  0  0
 28 23  1  0  0  0  0
 30 27  1  0  0  0  0
 31 32  1  0  0  0  0
 32 34  1  0  0  0  0
 32 35  1  0  0  0  0
 32 33  1  0  0  0  0
M  END
>  <minimizedAffinity>
-5.20612717

$$$$

 OpenBabel03272503433D

 35 37  0  0  1  0  0  0  0  0999 V2000
   37.1760   27.4890   33.8830 C   0  0  0  0  0  0  0  0  0  0  0  0
   37.2020   27.8920   32.5760 C   0  0  0  0  0  0  0  0  0  0  0  0
   36.1420   28.7910   32.4730 C   0  0  0  0  0  0  0  0  0  0  0  0
   35.5300   28.9060   33.6530 N   0  0  0  0  0  0  0  0  0  0  0  0
   36.1630   28.1100   34.5170 N   0  0  0  0  0  0  0  0  0  0  0  0
   37.9300   27.5370   31.8390 H   0  0  0  0  0  0  0  0  0  0  0  0
   35.9210   29.2830   31.5130 H   0  0  0  0  0  0  0  0  0  0  0  0
   34.6110   30.6720   35.0650 C   0  0  2  0  0  0  0  0  0  0  0  0
   34.3960   29.7650   33.8620 C   0  0  1  0  0  0  0  0  0  0  0  0
   34.2800   30.8380   32.8000 C   0  0  0  0  0  0  0  0  0  0  0  0
   33.6390   31.9150   33.3670 O   0  0  0  0  0  0  0  0  0  0  0  0
   33.5840   31.7600   34.7190 C   0  0  0  0  0  0  0  0  0  0  0  0
   34.3900   30.2020   36.0260 H   0  0  0  0  0  0  0  0  0  0  0  0
   33.4630   29.2040   33.9070 H   0  0  0  0  0  0  0  0  0  0  0  0
   35.2600   31.1450   32.4020 H   0  0  0  0  0  0  0  0  0  0  0  0
   33.6970   30.3940   31.9540 H   0  0  0  0  0  0  0  0  0  0  0  0
   32.6020   31.3520   35.0390 H   0  0  0  0  0  0  0  0  0  0  0  0
   33.7740   32.6830   35.3020 H   0  0  0  0  0  0  0  0  0  0  0  0
   35.8880   31.2160   34.9540 O   0  0  0  0  0  0  0  0  0  0  0  0
   36.2630   32.2910   35.7770 C   0  0  0  0  0  0  0  0  0  0  0  0
   35.9840   32.2480   36.8160 H   0  0  0  0  0  0  0  0  0  0  0  0
   36.9080   33.2710   35.2920 O   0  0  0  0  0  0  0  0  0  0  0  0
   38.6040   24.6800   35.9100 C   0  0  0  0  0  0  0  0  0  0  0  0
   37.6990   25.5540   35.3550 C   0  0  0  0  0  0  0  0  0  0  0  0
   38.0880   26.5460   34.4920 C   0  0  0  0  0  0  0  0  0  0  0  0
   39.4110   26.6200   34.2150 N   0  0  0  0  0  0  0  0  0  0  0  0
   40.3030   25.7470   34.7700 C   0  0  0  0  0  0  0  0  0  0  0  0
   39.9120   24.7960   35.6000 N   0  0  0  0  0  0  0  0  0  0  0  0
   36.6160   25.5240   35.5570 H   0  0  0  0  0  0  0  0  0  0  0  0
   41.3650   25.8270   34.5310 H   0  0  0  0  0  0  0  0  0  0  0  0
   38.0200   23.7390   36.7630 O   0  0  0  0  0  0  0  0  0  0  0  0
   38.2360   23.7200   38.1540 C   0  0  0  0  0  0  0  0  0  0  0  0
   39.5230   23.2930   38.4660 F   0  0  0  0  0  0  0  0  0  0  0  0
   37.2930   22.9280   38.7470 F   0  0  0  0  0  0  0  0  0  0  0  0
   38.0630   25.0080   38.6440 F   0  0  0  0  0  0  0  0  0  0  0  0
  1 25  1  0  0  0  0
  1  5  2  0  0  0  0
  2  1  1  0  0  0  0
  3  2  2  0  0  0  0
  3  4  1  0  0  0  0
  4  9  1  0  0  0  0
  4  5  1  0  0  0  0
  6  2  1  0  0  0  0
  7  3  1  0  0  0  0
  8 13  1  1  0  0  0
  9 14  1  1  0  0  0
  9  8  1  0  0  0  0
 10 11  1  0  0  0  0
 10  9  1  0  0  0  0
 11 12  1  0  0  0  0
 12 17  1  0  0  0  0
 12  8  1  0  0  0  0
 12 18  1  0  0  0  0
 15 10  1  0  0  0  0
 16 10  1  0  0  0  0
 19  8  1  0  0  0  0
 19 20  1  0  0  0  0
 20 21  1  0  0  0  0
 22 20  2  0  0  0  0
 23 31  1  0  0  0  0
 24 29  1  0  0  0  0
 24 23  2  0  0  0  0
 25 24  1  0  0  0  0
 26 25  2  0  0  0  0
 26 27  1  0  0  0  0
 27 28  2  0  0  0  0
 28 23  1  0  0  0  0
 30 27  1  0  0  0  0
 31 32  1  0  0  0  0
 32 33  1  0  0  0  0
 32 35  1  0  0  0  0
 32 34  1  0  0  0  0
M  END
>  <minimizedAffinity>
-5.14942312

$$$$

 OpenBabel03272503433D

 35 37  0  0  1  0  0  0  0  0999 V2000
   36.5510   27.7700   33.6400 C   0  0  0  0  0  0  0  0  0  0  0  0
   36.0880   28.1860   32.4220 C   0  0  0  0  0  0  0  0  0  0  0  0
   35.6350   29.4830   32.6530 C   0  0  0  0  0  0  0  0  0  0  0  0
   35.8220   29.8060   33.9340 N   0  0  0  0  0  0  0  0  0  0  0  0
   36.3830   28.7590   34.5390 N   0  0  0  0  0  0  0  0  0  0  0  0
   36.1070   27.5710   31.5160 H   0  0  0  0  0  0  0  0  0  0  0  0
   35.2000   30.0750   31.8320 H   0  0  0  0  0  0  0  0  0  0  0  0
   33.9530   31.1660   34.7180 C   0  0  2  0  0  0  0  0  0  0  0  0
   35.4530   31.0860   34.4760 C   0  0  1  0  0  0  0  0  0  0  0  0
   35.9120   31.2610   35.9090 C   0  0  0  0  0  0  0  0  0  0  0  0
   35.0440   32.1350   36.5190 O   0  0  0  0  0  0  0  0  0  0  0  0
   33.9440   32.3160   35.7360 C   0  0  0  0  0  0  0  0  0  0  0  0
   33.3680   31.4120   33.8290 H   0  0  0  0  0  0  0  0  0  0  0  0
   35.8370   31.9090   33.8750 H   0  0  0  0  0  0  0  0  0  0  0  0
   35.9440   30.3080   36.4600 H   0  0  0  0  0  0  0  0  0  0  0  0
   36.9570   31.6600   35.8670 H   0  0  0  0  0  0  0  0  0  0  0  0
   34.0280   33.2450   35.1330 H   0  0  0  0  0  0  0  0  0  0  0  0
   32.9830   32.3530   36.2840 H   0  0  0  0  0  0  0  0  0  0  0  0
   33.5730   29.9950   35.3690 O   0  0  0  0  0  0  0  0  0  0  0  0
   32.4360   29.2940   34.9360 C   0  0  0  0  0  0  0  0  0  0  0  0
   31.7450   28.9440   35.6840 H   0  0  0  0  0  0  0  0  0  0  0  0
   32.2460   29.0880   33.6970 O   0  0  0  0  0  0  0  0  0  0  0  0
   38.2450   24.8940   35.3450 C   0  0  0  0  0  0  0  0  0  0  0  0
   37.7060   26.1400   35.1220 C   0  0  0  0  0  0  0  0  0  0  0  0
   37.1300   26.4750   33.9230 C   0  0  0  0  0  0  0  0  0  0  0  0
   37.1190   25.5130   32.9710 N   0  0  0  0  0  0  0  0  0  0  0  0
   37.6550   24.2780   33.2010 C   0  0  0  0  0  0  0  0  0  0  0  0
   38.2070   23.9710   34.3620 N   0  0  0  0  0  0  0  0  0  0  0  0
   37.6980   26.9460   35.8730 H   0  0  0  0  0  0  0  0  0  0  0  0
   37.6340   23.5200   32.4160 H   0  0  0  0  0  0  0  0  0  0  0  0
   38.7850   24.7410   36.6250 O   0  0  0  0  0  0  0  0  0  0  0  0
   38.1380   24.0370   37.6570 C   0  0  0  0  0  0  0  0  0  0  0  0
   36.9750   23.4210   37.2040 F   0  0  0  0  0  0  0  0  0  0  0  0
   37.8760   24.8900   38.6920 F   0  0  0  0  0  0  0  0  0  0  0  0
   39.0030   23.0600   38.1330 F   0  0  0  0  0  0  0  0  0  0  0  0
  1 25  1  0  0  0  0
  1  5  2  0  0  0  0
  2  3  2  0  0  0  0
  2  1  1  0  0  0  0
  3  4  1  0  0  0  0
  4  9  1  0  0  0  0
  4  5  1  0  0  0  0
  6  2  1  0  0  0  0
  7  3  1  0  0  0  0
  8 13  1  6  0  0  0
  8 19  1  0  0  0  0
  8 12  1  0  0  0  0
  9 14  1  6  0  0  0
  9  8  1  0  0  0  0
  9 10  1  0  0  0  0
 10 15  1  0  0  0  0
 10 11  1  0  0  0  0
 12 18  1  0  0  0  0
 12 11  1  0  0  0  0
 16 10  1  0  0  0  0
 17 12  1  0  0  0  0
 20 19  1  0  0  0  0
 20 21  1  0  0  0  0
 22 20  2  0  0  0  0
 23 31  1  0  0  0  0
 24 23  1  0  0  0  0
 24 29  1  0  0  0  0
 25 24  2  0  0  0  0
 26 27  2  0  0  0  0
 26 25  1  0  0  0  0
 27 28  1  0  0  0  0
 28 23  2  0  0  0  0
 30 27  1  0  0  0  0
 31 32  1  0  0  0  0
 32 35  1  0  0  0  0
 32 34  1  0  0  0  0
 33 32  1  0  0  0  0
M  END
>  <minimizedAffinity>
-5.12946415

$$$$

 OpenBabel03272503433D

 35 37  0  0  1  0  0  0  0  0999 V2000
   38.0590   25.8980   35.6220 C   0  0  0  0  0  0  0  0  0  0  0  0
   38.1730   27.2190   35.9610 C   0  0  0  0  0  0  0  0  0  0  0  0
   37.5810   27.8980   34.8980 C   0  0  0  0  0  0  0  0  0  0  0  0
   37.1470   27.0240   33.9880 N   0  0  0  0  0  0  0  0  0  0  0  0
   37.4390   25.8000   34.4300 N   0  0  0  0  0  0  0  0  0  0  0  0
   38.6400   27.5760   36.8850 H   0  0  0  0  0  0  0  0  0  0  0  0
   37.5290   28.9980   34.9010 H   0  0  0  0  0  0  0  0  0  0  0  0
   37.4550   28.1380   31.8380 C   0  0  2  0  0  0  0  0  0  0  0  0
   36.4900   27.4260   32.7740 C   0  0  1  0  0  0  0  0  0  0  0  0
   36.1540   26.2480   31.8820 C   0  0  0  0  0  0  0  0  0  0  0  0
   36.1360   26.7030   30.5850 O   0  0  0  0  0  0  0  0  0  0  0  0
   36.6850   27.9480   30.5230 C   0  0  0  0  0  0  0  0  0  0  0  0
   37.6030   29.1960   32.0680 H   0  0  0  0  0  0  0  0  0  0  0  0
   35.5820   27.9950   32.9710 H   0  0  0  0  0  0  0  0  0  0  0  0
   36.8740   25.4220   31.9860 H   0  0  0  0  0  0  0  0  0  0  0  0
   35.1550   25.8670   32.2130 H   0  0  0  0  0  0  0  0  0  0  0  0
   35.9010   28.7350   30.5240 H   0  0  0  0  0  0  0  0  0  0  0  0
   37.3420   28.1250   29.6500 H   0  0  0  0  0  0  0  0  0  0  0  0
   38.6200   27.3770   31.7840 O   0  0  0  0  0  0  0  0  0  0  0  0
   39.5480   27.5950   30.7520 C   0  0  0  0  0  0  0  0  0  0  0  0
   39.8990   28.6010   30.5960 H   0  0  0  0  0  0  0  0  0  0  0  0
   39.9480   26.6250   30.0360 O   0  0  0  0  0  0  0  0  0  0  0  0
   39.8720   22.8240   36.7630 C   0  0  0  0  0  0  0  0  0  0  0  0
   39.4550   23.8710   35.9740 C   0  0  0  0  0  0  0  0  0  0  0  0
   38.5290   24.7820   36.4120 C   0  0  0  0  0  0  0  0  0  0  0  0
   38.0460   24.5970   37.6630 N   0  0  0  0  0  0  0  0  0  0  0  0
   38.4650   23.5540   38.4400 C   0  0  0  0  0  0  0  0  0  0  0  0
   39.3590   22.6850   38.0030 N   0  0  0  0  0  0  0  0  0  0  0  0
   39.8260   24.0530   34.9530 H   0  0  0  0  0  0  0  0  0  0  0  0
   38.0600   23.4260   39.4450 H   0  0  0  0  0  0  0  0  0  0  0  0
   40.8190   22.0030   36.1460 O   0  0  0  0  0  0  0  0  0  0  0  0
   42.1220   21.8170   36.6450 C   0  0  0  0  0  0  0  0  0  0  0  0
   42.9590   21.2470   35.6900 F   0  0  0  0  0  0  0  0  0  0  0  0
   42.0690   21.0530   37.7770 F   0  0  0  0  0  0  0  0  0  0  0  0
   42.6370   23.0560   37.0050 F   0  0  0  0  0  0  0  0  0  0  0  0
  1  2  1  0  0  0  0
  1 25  1  0  0  0  0
  2  6  1  0  0  0  0
  3  7  1  0  0  0  0
  3  2  2  0  0  0  0
  4  5  1  0  0  0  0
  4  3  1  0  0  0  0
  5  1  2  0  0  0  0
  8 13  1  1  0  0  0
  8  9  1  0  0  0  0
  9 14  1  1  0  0  0
  9  4  1  0  0  0  0
 10 15  1  0  0  0  0
 10 16  1  0  0  0  0
 10  9  1  0  0  0  0
 11 10  1  0  0  0  0
 12 17  1  0  0  0  0
 12 11  1  0  0  0  0
 12  8  1  0  0  0  0
 18 12  1  0  0  0  0
 19  8  1  0  0  0  0
 20 19  1  0  0  0  0
 21 20  1  0  0  0  0
 22 20  2  0  0  0  0
 23 28  1  0  0  0  0
 24 25  1  0  0  0  0
 24 23  2  0  0  0  0
 25 26  2  0  0  0  0
 26 27  1  0  0  0  0
 27 30  1  0  0  0  0
 28 27  2  0  0  0  0
 29 24  1  0  0  0  0
 31 32  1  0  0  0  0
 31 23  1  0  0  0  0
 32 35  1  0  0  0  0
 32 34  1  0  0  0  0
 33 32  1  0  0  0  0
M  END
>  <minimizedAffinity>
-5.04102993

$$$$

 OpenBabel03272503433D

 35 37  0  0  1  0  0  0  0  0999 V2000
   37.0410   26.9000   33.1100 C   0  0  0  0  0  0  0  0  0  0  0  0
   36.5690   25.8160   32.4200 C   0  0  0  0  0  0  0  0  0  0  0  0
   37.4150   24.7750   32.7970 C   0  0  0  0  0  0  0  0  0  0  0  0
   38.3310   25.2250   33.6560 N   0  0  0  0  0  0  0  0  0  0  0  0
   38.1030   26.5240   33.8490 N   0  0  0  0  0  0  0  0  0  0  0  0
   35.7090   25.8480   31.7430 H   0  0  0  0  0  0  0  0  0  0  0  0
   37.2680   23.7630   32.3870 H   0  0  0  0  0  0  0  0  0  0  0  0
   39.3120   24.4300   35.7450 C   0  0  2  0  0  0  0  0  0  0  0  0
   39.3460   24.3800   34.2250 C   0  0  1  0  0  0  0  0  0  0  0  0
   39.0390   22.9070   34.0500 C   0  0  0  0  0  0  0  0  0  0  0  0
   39.6400   22.2330   35.0860 O   0  0  0  0  0  0  0  0  0  0  0  0
   40.0530   23.1170   36.0360 C   0  0  0  0  0  0  0  0  0  0  0  0
   39.8310   25.2880   36.1770 H   0  0  0  0  0  0  0  0  0  0  0  0
   40.3310   24.5910   33.8090 H   0  0  0  0  0  0  0  0  0  0  0  0
   37.9570   22.7010   34.0380 H   0  0  0  0  0  0  0  0  0  0  0  0
   39.4490   22.6080   33.0530 H   0  0  0  0  0  0  0  0  0  0  0  0
   41.1320   23.3550   35.9230 H   0  0  0  0  0  0  0  0  0  0  0  0
   39.8850   22.7900   37.0810 H   0  0  0  0  0  0  0  0  0  0  0  0
   37.9830   24.2850   36.1360 O   0  0  0  0  0  0  0  0  0  0  0  0
   37.6830   23.8310   37.4310 C   0  0  0  0  0  0  0  0  0  0  0  0
   37.2380   22.8550   37.5310 H   0  0  0  0  0  0  0  0  0  0  0  0
   37.9350   24.5620   38.4390 O   0  0  0  0  0  0  0  0  0  0  0  0
   35.4040   30.1430   34.0280 C   0  0  0  0  0  0  0  0  0  0  0  0
   35.9140   28.8690   34.1260 C   0  0  0  0  0  0  0  0  0  0  0  0
   36.4920   28.2360   33.0560 C   0  0  0  0  0  0  0  0  0  0  0  0
   36.5350   28.9320   31.8960 N   0  0  0  0  0  0  0  0  0  0  0  0
   36.0270   30.1970   31.8060 C   0  0  0  0  0  0  0  0  0  0  0  0
   35.4730   30.7930   32.8470 N   0  0  0  0  0  0  0  0  0  0  0  0
   35.8960   28.2730   35.0540 H   0  0  0  0  0  0  0  0  0  0  0  0
   36.0740   30.7380   30.8590 H   0  0  0  0  0  0  0  0  0  0  0  0
   34.8560   30.6190   35.2210 O   0  0  0  0  0  0  0  0  0  0  0  0
   35.3980   31.6990   35.9430 C   0  0  0  0  0  0  0  0  0  0  0  0
   35.1430   32.9140   35.3130 F   0  0  0  0  0  0  0  0  0  0  0  0
   36.7400   31.5020   36.1150 F   0  0  0  0  0  0  0  0  0  0  0  0
   34.8180   31.7210   37.2050 F   0  0  0  0  0  0  0  0  0  0  0  0
  1  5  2  0  0  0  0
  2  3  2  0  0  0  0
  2  1  1  0  0  0  0
  3  4  1  0  0  0  0
  4  5  1  0  0  0  0
  4  9  1  0  0  0  0
  6  2  1  0  0  0  0
  7  3  1  0  0  0  0
  8 12  1  0  0  0  0
  8 19  1  0  0  0  0
  8 13  1  1  0  0  0
  9 14  1  6  0  0  0
  9  8  1  0  0  0  0
 10  9  1  0  0  0  0
 10 11  1  0  0  0  0
 11 12  1  0  0  0  0
 12 18  1  0  0  0  0
 15 10  1  0  0  0  0
 16 10  1  0  0  0  0
 17 12  1  0  0  0  0
 19 20  1  0  0  0  0
 20 21  1  0  0  0  0
 20 22  2  0  0  0  0
 23 24  1  0  0  0  0
 23 31  1  0  0  0  0
 24 29  1  0  0  0  0
 25  1  1  0  0  0  0
 25 24  2  0  0  0  0
 26 25  1  0  0  0  0
 27 26  2  0  0  0  0
 27 28  1  0  0  0  0
 28 23  2  0  0  0  0
 30 27  1  0  0  0  0
 31 32  1  0  0  0  0
 32 34  1  0  0  0  0
 32 35  1  0  0  0  0
 33 32  1  0  0  0  0
M  END
>  <minimizedAffinity>
-5.01897192

$$$$

 OpenBabel03272503433D

 35 37  0  0  1  0  0  0  0  0999 V2000
   36.9580   27.1090   33.2230 C   0  0  0  0  0  0  0  0  0  0  0  0
   37.3850   26.3770   32.1480 C   0  0  0  0  0  0  0  0  0  0  0  0
   37.8990   25.2110   32.7110 C   0  0  0  0  0  0  0  0  0  0  0  0
   37.7810   25.2590   34.0380 N   0  0  0  0  0  0  0  0  0  0  0  0
   37.2040   26.4190   34.3530 N   0  0  0  0  0  0  0  0  0  0  0  0
   37.3020   26.7100   31.1080 H   0  0  0  0  0  0  0  0  0  0  0  0
   38.3220   24.4230   32.0670 H   0  0  0  0  0  0  0  0  0  0  0  0
   39.7400   24.1940   35.0320 C   0  0  2  0  0  0  0  0  0  0  0  0
   38.2240   24.1950   34.8990 C   0  0  1  0  0  0  0  0  0  0  0  0
   37.8800   24.4470   36.3530 C   0  0  0  0  0  0  0  0  0  0  0  0
   38.8160   23.7920   37.1190 O   0  0  0  0  0  0  0  0  0  0  0  0
   39.8570   23.3930   36.3360 C   0  0  0  0  0  0  0  0  0  0  0  0
   40.2610   23.7000   34.2090 H   0  0  0  0  0  0  0  0  0  0  0  0
   37.8180   23.2310   34.5970 H   0  0  0  0  0  0  0  0  0  0  0  0
   37.8650   25.5190   36.6030 H   0  0  0  0  0  0  0  0  0  0  0  0
   36.8470   24.0490   36.5130 H   0  0  0  0  0  0  0  0  0  0  0  0
   39.7530   22.3280   36.0400 H   0  0  0  0  0  0  0  0  0  0  0  0
   40.8580   23.5220   36.7920 H   0  0  0  0  0  0  0  0  0  0  0  0
   40.1370   25.5060   35.2800 O   0  0  0  0  0  0  0  0  0  0  0  0
   41.1290   26.0980   34.4800 C   0  0  0  0  0  0  0  0  0  0  0  0
   42.0650   25.5760   34.3730 H   0  0  0  0  0  0  0  0  0  0  0  0
   40.9100   27.2120   33.9110 O   0  0  0  0  0  0  0  0  0  0  0  0
   35.2200   30.3010   34.1350 C   0  0  0  0  0  0  0  0  0  0  0  0
   35.7980   29.0570   34.2430 C   0  0  0  0  0  0  0  0  0  0  0  0
   36.3400   28.4150   33.1600 C   0  0  0  0  0  0  0  0  0  0  0  0
   36.2760   29.0690   31.9770 N   0  0  0  0  0  0  0  0  0  0  0  0
   35.7000   30.3050   31.8780 C   0  0  0  0  0  0  0  0  0  0  0  0
   35.1820   30.9100   32.9320 N   0  0  0  0  0  0  0  0  0  0  0  0
   35.8680   28.4960   35.1890 H   0  0  0  0  0  0  0  0  0  0  0  0
   35.6600   30.8110   30.9120 H   0  0  0  0  0  0  0  0  0  0  0  0
   34.7240   30.7940   35.3450 O   0  0  0  0  0  0  0  0  0  0  0  0
   35.3540   31.8160   36.0780 C   0  0  0  0  0  0  0  0  0  0  0  0
   36.7380   31.6680   36.0770 F   0  0  0  0  0  0  0  0  0  0  0  0
   34.8590   31.8320   37.3520 F   0  0  0  0  0  0  0  0  0  0  0  0
   35.0360   33.0360   35.4950 F   0  0  0  0  0  0  0  0  0  0  0  0
  1  5  2  0  0  0  0
  2  3  2  0  0  0  0
  2  1  1  0  0  0  0
  3  4  1  0  0  0  0
  4  5  1  0  0  0  0
  4  9  1  0  0  0  0
  6  2  1  0  0  0  0
  7  3  1  0  0  0  0
  8 13  1  6  0  0  0
  8 19  1  0  0  0  0
  8 12  1  0  0  0  0
  9 14  1  6  0  0  0
  9  8  1  0  0  0  0
  9 10  1  0  0  0  0
 10 16  1  0  0  0  0
 10 15  1  0  0  0  0
 10 11  1  0  0  0  0
 12 18  1  0  0  0  0
 12 11  1  0  0  0  0
 17 12  1  0  0  0  0
 20 19  1  0  0  0  0
 21 20  1  0  0  0  0
 22 20  2  0  0  0  0
 23 24  1  0  0  0  0
 23 31  1  0  0  0  0
 24 29  1  0  0  0  0
 25  1  1  0  0  0  0
 25 24  2  0  0  0  0
 26 25  1  0  0  0  0
 27 26  2  0  0  0  0
 27 28  1  0  0  0  0
 28 23  2  0  0  0  0
 30 27  1  0  0  0  0
 31 32  1  0  0  0  0
 32 34  1  0  0  0  0
 33 32  1  0  0  0  0
 35 32  1  0  0  0  0
M  END
>  <minimizedAffinity>
-4.9713707

$$$$

 OpenBabel03272503433D

 35 37  0  0  1  0  0  0  0  0999 V2000
   37.6570   25.4580   34.2300 C   0  0  0  0  0  0  0  0  0  0  0  0
   37.6670   26.0280   35.4740 C   0  0  0  0  0  0  0  0  0  0  0  0
   38.2600   25.0640   36.2870 C   0  0  0  0  0  0  0  0  0  0  0  0
   38.5760   23.9910   35.5610 N   0  0  0  0  0  0  0  0  0  0  0  0
   38.2090   24.2320   34.3010 N   0  0  0  0  0  0  0  0  0  0  0  0
   37.2760   27.0270   35.6940 H   0  0  0  0  0  0  0  0  0  0  0  0
   38.4010   25.2540   37.3630 H   0  0  0  0  0  0  0  0  0  0  0  0
   40.6340   22.6790   35.6220 C   0  0  2  0  0  0  0  0  0  0  0  0
   39.2050   22.8270   36.1230 C   0  0  1  0  0  0  0  0  0  0  0  0
   39.5080   22.9890   37.5980 C   0  0  0  0  0  0  0  0  0  0  0  0
   40.5920   22.1940   37.8880 O   0  0  0  0  0  0  0  0  0  0  0  0
   41.1750   21.7680   36.7330 C   0  0  0  0  0  0  0  0  0  0  0  0
   40.7180   22.2090   34.6400 H   0  0  0  0  0  0  0  0  0  0  0  0
   38.6030   21.9300   35.9790 H   0  0  0  0  0  0  0  0  0  0  0  0
   39.7180   24.0350   37.8730 H   0  0  0  0  0  0  0  0  0  0  0  0
   38.5900   22.6740   38.1540 H   0  0  0  0  0  0  0  0  0  0  0  0
   40.8380   20.7440   36.4660 H   0  0  0  0  0  0  0  0  0  0  0  0
   42.2830   21.7700   36.7420 H   0  0  0  0  0  0  0  0  0  0  0  0
   41.2450   23.9260   35.7350 O   0  0  0  0  0  0  0  0  0  0  0  0
   42.4940   24.1470   35.1330 C   0  0  0  0  0  0  0  0  0  0  0  0
   42.8360   23.4300   34.4060 H   0  0  0  0  0  0  0  0  0  0  0  0
   43.1840   25.1670   35.4480 O   0  0  0  0  0  0  0  0  0  0  0  0
   36.8420   27.9180   31.5240 C   0  0  0  0  0  0  0  0  0  0  0  0
   37.3580   27.3780   32.6790 C   0  0  0  0  0  0  0  0  0  0  0  0
   37.1370   26.0710   33.0280 C   0  0  0  0  0  0  0  0  0  0  0  0
   36.3830   25.3390   32.1750 N   0  0  0  0  0  0  0  0  0  0  0  0
   35.8740   25.8830   31.0300 C   0  0  0  0  0  0  0  0  0  0  0  0
   36.0970   27.1440   30.7070 N   0  0  0  0  0  0  0  0  0  0  0  0
   37.9760   27.9440   33.3960 H   0  0  0  0  0  0  0  0  0  0  0  0
   35.2680   25.2710   30.3580 H   0  0  0  0  0  0  0  0  0  0  0  0
   37.1750   29.2620   31.3380 O   0  0  0  0  0  0  0  0  0  0  0  0
   36.2910   30.3220   31.6150 C   0  0  0  0  0  0  0  0  0  0  0  0
   36.0010   30.4050   32.9730 F   0  0  0  0  0  0  0  0  0  0  0  0
   35.1530   30.1670   30.8740 F   0  0  0  0  0  0  0  0  0  0  0  0
   36.8880   31.5100   31.2140 F   0  0  0  0  0  0  0  0  0  0  0  0
  1  5  2  0  0  0  0
  1  2  1  0  0  0  0
  2  6  1  0  0  0  0
  2  3  2  0  0  0  0
  3  7  1  0  0  0  0
  4  9  1  0  0  0  0
  4  3  1  0  0  0  0
  5  4  1  0  0  0  0
  8 13  1  6  0  0  0
  8 19  1  0  0  0  0
  8  9  1  0  0  0  0
  8 12  1  0  0  0  0
  9 14  1  6  0  0  0
  9 10  1  0  0  0  0
 10 15  1  0  0  0  0
 10 11  1  0  0  0  0
 10 16  1  0  0  0  0
 12 18  1  0  0  0  0
 12 11  1  0  0  0  0
 17 12  1  0  0  0  0
 20 22  2  0  0  0  0
 20 19  1  0  0  0  0
 21 20  1  0  0  0  0
 23 24  1  0  0  0  0
 24 25  2  0  0  0  0
 24 29  1  0  0  0  0
 25  1  1  0  0  0  0
 26 25  1  0  0  0  0
 27 26  2  0  0  0  0
 28 27  1  0  0  0  0
 28 23  2  0  0  0  0
 30 27  1  0  0  0  0
 31 23  1  0  0  0  0
 31 32  1  0  0  0  0
 32 33  1  0  0  0  0
 34 32  1  0  0  0  0
 35 32  1  0  0  0  0
M  END
>  <minimizedAffinity>
-4.90416431

$$$$

 OpenBabel03272503433D

 35 37  0  0  1  0  0  0  0  0999 V2000
   38.7340   25.6160   34.7340 C   0  0  0  0  0  0  0  0  0  0  0  0
   39.7770   26.3620   34.2580 C   0  0  0  0  0  0  0  0  0  0  0  0
   39.2500   27.0210   33.1490 C   0  0  0  0  0  0  0  0  0  0  0  0
   37.9710   26.6780   32.9850 N   0  0  0  0  0  0  0  0  0  0  0  0
   37.6540   25.8190   33.9550 N   0  0  0  0  0  0  0  0  0  0  0  0
   40.7750   26.3790   34.7100 H   0  0  0  0  0  0  0  0  0  0  0  0
   39.8790   27.7040   32.5570 H   0  0  0  0  0  0  0  0  0  0  0  0
   35.9610   27.9640   32.4710 C   0  0  2  0  0  0  0  0  0  0  0  0
   37.1560   27.1980   31.9210 C   0  0  1  0  0  0  0  0  0  0  0  0
   37.8250   28.3400   31.1850 C   0  0  0  0  0  0  0  0  0  0  0  0
   36.8310   29.1420   30.6750 O   0  0  0  0  0  0  0  0  0  0  0  0
   35.6330   28.8030   31.2270 C   0  0  0  0  0  0  0  0  0  0  0  0
   35.1200   27.3310   32.7620 H   0  0  0  0  0  0  0  0  0  0  0  0
   36.8790   26.4250   31.2050 H   0  0  0  0  0  0  0  0  0  0  0  0
   38.4920   28.9270   31.8350 H   0  0  0  0  0  0  0  0  0  0  0  0
   38.4550   27.8820   30.3820 H   0  0  0  0  0  0  0  0  0  0  0  0
   35.0580   28.1280   30.5590 H   0  0  0  0  0  0  0  0  0  0  0  0
   34.9810   29.6590   31.4890 H   0  0  0  0  0  0  0  0  0  0  0  0
   36.4350   28.8140   33.4670 O   0  0  0  0  0  0  0  0  0  0  0  0
   35.5610   29.7320   34.0730 C   0  0  0  0  0  0  0  0  0  0  0  0
   35.8660   30.7640   34.1130 H   0  0  0  0  0  0  0  0  0  0  0  0
   34.4530   29.3380   34.5530 O   0  0  0  0  0  0  0  0  0  0  0  0
   39.5250   22.7930   37.0680 C   0  0  0  0  0  0  0  0  0  0  0  0
   39.5140   23.5900   35.9470 C   0  0  0  0  0  0  0  0  0  0  0  0
   38.7780   24.7460   35.8880 C   0  0  0  0  0  0  0  0  0  0  0  0
   38.0630   25.0610   36.9930 N   0  0  0  0  0  0  0  0  0  0  0  0
   38.0800   24.2650   38.1030 C   0  0  0  0  0  0  0  0  0  0  0  0
   38.7950   23.1540   38.1430 N   0  0  0  0  0  0  0  0  0  0  0  0
   40.0830   23.3640   35.0300 H   0  0  0  0  0  0  0  0  0  0  0  0
   37.4940   24.5410   38.9810 H   0  0  0  0  0  0  0  0  0  0  0  0
   40.3320   21.6600   36.9390 O   0  0  0  0  0  0  0  0  0  0  0  0
   41.7380   21.7020   37.0010 C   0  0  0  0  0  0  0  0  0  0  0  0
   42.1990   22.9840   37.2840 F   0  0  0  0  0  0  0  0  0  0  0  0
   42.2570   21.2370   35.8250 F   0  0  0  0  0  0  0  0  0  0  0  0
   42.1600   20.8440   38.0090 F   0  0  0  0  0  0  0  0  0  0  0  0
  1 25  1  0  0  0  0
  2  6  1  0  0  0  0
  2  1  1  0  0  0  0
  3  2  2  0  0  0  0
  4  3  1  0  0  0  0
  4  5  1  0  0  0  0
  5  1  2  0  0  0  0
  7  3  1  0  0  0  0
  8 13  1  1  0  0  0
  8 19  1  0  0  0  0
  9 14  1  6  0  0  0
  9  8  1  0  0  0  0
  9  4  1  0  0  0  0
 10 15  1  0  0  0  0
 10  9  1  0  0  0  0
 11 10  1  0  0  0  0
 11 12  1  0  0  0  0
 12 18  1  0  0  0  0
 12  8  1  0  0  0  0
 16 10  1  0  0  0  0
 17 12  1  0  0  0  0
 19 20  1  0  0  0  0
 20 21  1  0  0  0  0
 20 22  2  0  0  0  0
 23 28  1  0  0  0  0
 24 23  2  0  0  0  0
 25 24  1  0  0  0  0
 25 26  2  0  0  0  0
 26 27  1  0  0  0  0
 27 28  2  0  0  0  0
 27 30  1  0  0  0  0
 29 24  1  0  0  0  0
 31 32  1  0  0  0  0
 31 23  1  0  0  0  0
 32 33  1  0  0  0  0
 32 35  1  0  0  0  0
 34 32  1  0  0  0  0
M  END
>  <minimizedAffinity>
-4.85411596

$$$$

 OpenBabel03272503433D

 35 37  0  0  1  0  0  0  0  0999 V2000
   39.0720   24.9240   32.9390 C   0  0  0  0  0  0  0  0  0  0  0  0
   40.3060   25.5040   32.8390 C   0  0  0  0  0  0  0  0  0  0  0  0
   40.1850   26.3830   31.7640 C   0  0  0  0  0  0  0  0  0  0  0  0
   38.9500   26.3180   31.2640 N   0  0  0  0  0  0  0  0  0  0  0  0
   38.2680   25.4260   31.9830 N   0  0  0  0  0  0  0  0  0  0  0  0
   41.1490   25.2720   33.4990 H   0  0  0  0  0  0  0  0  0  0  0  0
   41.0430   26.9970   31.4490 H   0  0  0  0  0  0  0  0  0  0  0  0
   37.2270   27.8500   30.4610 C   0  0  2  0  0  0  0  0  0  0  0  0
   38.5200   27.1120   30.1450 C   0  0  1  0  0  0  0  0  0  0  0  0
   39.4070   28.3190   29.9170 C   0  0  0  0  0  0  0  0  0  0  0  0
   38.6390   29.2900   29.3200 O   0  0  0  0  0  0  0  0  0  0  0  0
   37.3230   28.9500   29.3940 C   0  0  0  0  0  0  0  0  0  0  0  0
   36.3260   27.2460   30.3360 H   0  0  0  0  0  0  0  0  0  0  0  0
   38.4700   26.5280   29.2270 H   0  0  0  0  0  0  0  0  0  0  0  0
   39.8470   28.7010   30.8510 H   0  0  0  0  0  0  0  0  0  0  0  0
   40.2500   27.9810   29.2620 H   0  0  0  0  0  0  0  0  0  0  0  0
   36.9750   28.4780   28.4510 H   0  0  0  0  0  0  0  0  0  0  0  0
   36.6370   29.7880   29.6270 H   0  0  0  0  0  0  0  0  0  0  0  0
   37.3780   28.4350   31.7160 O   0  0  0  0  0  0  0  0  0  0  0  0
   36.2740   28.5260   32.5790 C   0  0  0  0  0  0  0  0  0  0  0  0
   36.4510   28.8650   33.5860 H   0  0  0  0  0  0  0  0  0  0  0  0
   35.1140   28.2160   32.1670 O   0  0  0  0  0  0  0  0  0  0  0  0
   38.6900   22.9810   36.1210 C   0  0  0  0  0  0  0  0  0  0  0  0
   39.0820   23.9510   35.2280 C   0  0  0  0  0  0  0  0  0  0  0  0
   38.6860   23.9280   33.9150 C   0  0  0  0  0  0  0  0  0  0  0  0
   37.8890   22.9000   33.5440 N   0  0  0  0  0  0  0  0  0  0  0  0
   37.5040   21.9400   34.4370 C   0  0  0  0  0  0  0  0  0  0  0  0
   37.8940   21.9760   35.6990 N   0  0  0  0  0  0  0  0  0  0  0  0
   39.7300   24.8010   35.4950 H   0  0  0  0  0  0  0  0  0  0  0  0
   36.8610   21.1200   34.1130 H   0  0  0  0  0  0  0  0  0  0  0  0
   39.1930   23.1730   37.4100 O   0  0  0  0  0  0  0  0  0  0  0  0
   38.4270   23.7000   38.4670 C   0  0  0  0  0  0  0  0  0  0  0  0
   39.1980   23.9010   39.6070 F   0  0  0  0  0  0  0  0  0  0  0  0
   37.3730   22.8670   38.7220 F   0  0  0  0  0  0  0  0  0  0  0  0
   37.9010   24.9210   38.0640 F   0  0  0  0  0  0  0  0  0  0  0  0
  1 25  1  0  0  0  0
  2  1  1  0  0  0  0
  2  6  1  0  0  0  0
  3  2  2  0  0  0  0
  4  3  1  0  0  0  0
  4  5  1  0  0  0  0
  5  1  2  0  0  0  0
  7  3  1  0  0  0  0
  8 13  1  6  0  0  0
  8 19  1  0  0  0  0
  9 14  1  6  0  0  0
  9  8  1  0  0  0  0
  9  4  1  0  0  0  0
 10  9  1  0  0  0  0
 10 15  1  0  0  0  0
 11 12  1  0  0  0  0
 11 10  1  0  0  0  0
 12 18  1  0  0  0  0
 12  8  1  0  0  0  0
 16 10  1  0  0  0  0
 17 12  1  0  0  0  0
 19 20  1  0  0  0  0
 20 21  1  0  0  0  0
 22 20  2  0  0  0  0
 23 31  1  0  0  0  0
 24 29  1  0  0  0  0
 24 23  2  0  0  0  0
 25 24  1  0  0  0  0
 26 25  2  0  0  0  0
 26 27  1  0  0  0  0
 27 28  2  0  0  0  0
 28 23  1  0  0  0  0
 30 27  1  0  0  0  0
 31 32  1  0  0  0  0
 32 34  1  0  0  0  0
 32 33  1  0  0  0  0
 35 32  1  0  0  0  0
M  END
>  <minimizedAffinity>
-4.84894228

$$$$
