
 OpenBabel03272510103D

 22 23  0  0  0  0  0  0  0  0999 V2000
   37.2650   31.1530   48.3230 C   0  0  0  0  0  0  0  0  0  0  0  0
   38.2730   32.0380   48.6390 C   0  0  0  0  0  0  0  0  0  0  0  0
   39.0430   32.6890   47.6980 C   0  0  0  0  0  0  0  0  0  0  0  0
   38.8090   32.4570   46.3550 C   0  0  0  0  0  0  0  0  0  0  0  0
   37.7970   31.5690   46.0630 C   0  0  0  0  0  0  0  0  0  0  0  0
   37.0690   30.9540   47.0100 N   0  0  0  0  0  0  0  0  0  0  0  0
   38.4910   32.2510   49.6780 H   0  0  0  0  0  0  0  0  0  0  0  0
   39.8360   33.3870   47.9310 H   0  0  0  0  0  0  0  0  0  0  0  0
   37.4910   31.2800   45.0640 H   0  0  0  0  0  0  0  0  0  0  0  0
   36.9480   30.0220   50.5610 C   0  0  0  0  0  0  0  0  0  0  0  0
   36.4700   30.4840   49.3370 C   0  0  0  0  0  0  0  0  0  0  0  0
   35.1170   30.2930   49.0530 C   0  0  0  0  0  0  0  0  0  0  0  0
   34.3570   29.6600   50.0130 N   0  0  0  0  0  0  0  0  0  0  0  0
   34.8620   29.2350   51.1730 C   0  0  0  0  0  0  0  0  0  0  0  0
   36.1590   29.4110   51.4560 N   0  0  0  0  0  0  0  0  0  0  0  0
   38.0240   30.2230   50.6790 H   0  0  0  0  0  0  0  0  0  0  0  0
   34.6100   30.6010   48.1450 H   0  0  0  0  0  0  0  0  0  0  0  0
   34.2010   28.7410   51.8840 H   0  0  0  0  0  0  0  0  0  0  0  0
   39.4960   33.0330   45.2880 O   0  0  0  0  0  0  0  0  0  0  0  0
   40.7840   32.5630   45.0040 C   0  0  0  0  0  0  0  0  0  0  0  0
   41.5050   33.2390   44.5700 H   0  0  0  0  0  0  0  0  0  0  0  0
   41.1460   31.3660   45.2360 O   0  0  0  0  0  0  0  0  0  0  0  0
  1  2  1  0  0  0  0
  1 11  1  0  0  0  0
  2  7  1  0  0  0  0
  3  8  1  0  0  0  0
  3  2  2  0  0  0  0
  4  3  1  0  0  0  0
  5  4  2  0  0  0  0
  5  6  1  0  0  0  0
  6  1  2  0  0  0  0
  9  5  1  0  0  0  0
 10 16  1  0  0  0  0
 10 15  1  0  0  0  0
 11 10  2  0  0  0  0
 12 11  1  0  0  0  0
 12 13  2  0  0  0  0
 13 14  1  0  0  0  0
 14 15  2  0  0  0  0
 14 18  1  0  0  0  0
 17 12  1  0  0  0  0
 19  4  1  0  0  0  0
 20 22  2  0  0  0  0
 20 19  1  0  0  0  0
 21 20  1  0  0  0  0
M  END
>  <minimizedAffinity>
-4.69884396

>  <minimizedRMSD>
1.22512054

$$$$
