
 OpenBabel03262521063D

 36 37  0  0  1  0  0  0  0  0999 V2000
   37.3130   31.3780   45.3090 C   0  0  2  0  0  0  0  0  0  0  0  0
   38.4090   31.1300   44.3490 C   0  0  0  0  0  0  0  0  0  0  0  0
   39.6890   30.6930   45.0260 C   0  0  0  0  0  0  0  0  0  0  0  0
   40.1570   31.6410   46.0960 C   0  0  0  0  0  0  0  0  0  0  0  0
   39.0370   32.2540   46.8850 C   0  0  0  0  0  0  0  0  0  0  0  0
   37.7490   31.4580   46.7360 C   0  0  2  0  0  0  0  0  0  0  0  0
   36.8310   32.3790   45.0860 H   0  0  0  0  0  0  0  0  0  0  0  0
   38.2900   30.3820   43.5670 H   0  0  0  0  0  0  0  0  0  0  0  0
   38.6530   32.0850   43.7710 H   0  0  0  0  0  0  0  0  0  0  0  0
   39.5780   29.6480   45.3600 H   0  0  0  0  0  0  0  0  0  0  0  0
   40.4700   30.7010   44.2370 H   0  0  0  0  0  0  0  0  0  0  0  0
   40.8330   32.4270   45.6950 H   0  0  0  0  0  0  0  0  0  0  0  0
   40.7550   31.0350   46.8080 H   0  0  0  0  0  0  0  0  0  0  0  0
   38.8310   33.2520   46.4010 H   0  0  0  0  0  0  0  0  0  0  0  0
   39.2910   32.4780   47.9130 H   0  0  0  0  0  0  0  0  0  0  0  0
   36.9680   32.0660   47.2810 H   0  0  0  0  0  0  0  0  0  0  0  0
   36.2200   30.3960   45.2220 C   0  0  0  0  0  0  0  0  0  0  0  0
   36.2100   29.6150   44.0490 C   0  0  0  0  0  0  0  0  0  0  0  0
   35.2050   28.6550   43.9550 C   0  0  0  0  0  0  0  0  0  0  0  0
   34.3030   28.5200   44.9690 N   0  0  0  0  0  0  0  0  0  0  0  0
   34.3530   29.2960   46.0790 C   0  0  0  0  0  0  0  0  0  0  0  0
   35.2960   30.1960   46.1680 N   0  0  0  0  0  0  0  0  0  0  0  0
   36.7480   29.5020   43.1270 H   0  0  0  0  0  0  0  0  0  0  0  0
   34.9620   27.9340   43.1920 H   0  0  0  0  0  0  0  0  0  0  0  0
   33.6440   29.1990   46.8890 H   0  0  0  0  0  0  0  0  0  0  0  0
   37.9170   30.2740   47.4600 N   0  0  0  0  0  0  0  0  0  0  0  0
   37.6890   29.4270   46.8920 H   0  0  0  0  0  0  0  0  0  0  0  0
   37.0550   30.1430   48.9240 S   0  0  0  0  0  0  0  0  0  0  0  0
   36.1700   31.3750   49.0170 O   0  0  0  0  0  0  0  0  0  0  0  0
   35.2270   31.4280   48.6670 H   0  0  0  0  0  0  0  0  0  0  0  0
   36.1890   28.9210   48.9890 O   0  0  0  0  0  0  0  0  0  0  0  0
   36.5980   28.0260   49.0460 H   0  0  0  0  0  0  0  0  0  0  0  0
   38.0480   30.1820   50.2660 O   0  0  0  0  0  0  0  0  0  0  0  0
   37.5420   30.0310   51.5330 C   0  0  0  0  0  0  0  0  0  0  0  0
   38.2160   30.2690   52.3550 H   0  0  0  0  0  0  0  0  0  0  0  0
   36.3650   29.6410   51.7630 O   0  0  0  0  0  0  0  0  0  0  0  0
  1  7  1  6  0  0  0
  1  6  1  0  0  0  0
  2  3  1  0  0  0  0
  2  1  1  0  0  0  0
  3 10  1  0  0  0  0
  3  4  1  0  0  0  0
  4 13  1  0  0  0  0
  4  5  1  0  0  0  0
  5 15  1  0  0  0  0
  6  5  1  0  0  0  0
  6 16  1  1  0  0  0
  6 26  1  0  0  0  0
  8  2  1  0  0  0  0
  9  2  1  0  0  0  0
 11  3  1  0  0  0  0
 12  4  1  0  0  0  0
 14  5  1  0  0  0  0
 17  1  1  0  0  0  0
 17 22  1  0  0  0  0
 18 17  2  0  0  0  0
 19 18  1  0  0  0  0
 19 20  2  0  0  0  0
 20 21  1  0  0  0  0
 21 22  2  0  0  0  0
 21 25  1  0  0  0  0
 23 18  1  0  0  0  0
 24 19  1  0  0  0  0
 26 28  1  0  0  0  0
 27 26  1  0  0  0  0
 28 31  1  0  0  0  0
 28 29  1  0  0  0  0
 28 33  1  0  0  0  0
 30 29  1  0  0  0  0
 31 32  1  0  0  0  0
 33 34  1  0  0  0  0
 34 36  2  0  0  0  0
 34 35  1  0  0  0  0
M  END
>  <minimizedAffinity>
-4.26049566

>  <minimizedRMSD>
2.78291726

$$$$
