
 OpenBabel03262521453D

 24 24  0  0  0  0  0  0  0  0999 V2000
   37.7440   30.5260   50.8390 C   0  0  0  0  0  0  0  0  0  0  0  0
   37.2880   31.2280   51.5680 H   0  0  0  0  0  0  0  0  0  0  0  0
   38.7090   30.2180   51.3410 H   0  0  0  0  0  0  0  0  0  0  0  0
   38.1140   31.2060   49.6080 C   0  0  0  0  0  0  0  0  0  0  0  0
   38.5480   32.5330   49.5810 C   0  0  0  0  0  0  0  0  0  0  0  0
   38.8820   33.0950   48.3470 C   0  0  0  0  0  0  0  0  0  0  0  0
   38.7590   32.2980   47.2230 N   0  0  0  0  0  0  0  0  0  0  0  0
   38.3330   31.0130   47.2980 C   0  0  0  0  0  0  0  0  0  0  0  0
   38.0120   30.4720   48.4980 N   0  0  0  0  0  0  0  0  0  0  0  0
   38.6240   33.1010   50.4760 H   0  0  0  0  0  0  0  0  0  0  0  0
   39.2250   34.1200   48.2520 H   0  0  0  0  0  0  0  0  0  0  0  0
   38.2680   30.4640   46.3700 H   0  0  0  0  0  0  0  0  0  0  0  0
   36.9630   29.2600   50.6350 C   0  0  0  0  0  0  0  0  0  0  0  0
   36.7930   29.1830   49.5280 H   0  0  0  0  0  0  0  0  0  0  0  0
   37.5030   28.3520   50.9350 H   0  0  0  0  0  0  0  0  0  0  0  0
   35.7340   29.4080   51.2600 O   0  0  0  0  0  0  0  0  0  0  0  0
   34.6920   30.5180   49.1250 O   0  0  0  0  0  0  0  0  0  0  0  0
   34.4680   29.3920   50.1290 P   0  0  2  0  0  0  0  0  0  0  0  0
   32.9800   29.6880   50.8360 O   0  0  0  0  0  0  0  0  0  0  0  0
   33.0220   30.2220   51.6470 H   0  0  0  0  0  0  0  0  0  0  0  0
   34.3990   27.9160   49.3400 O   0  0  0  0  0  0  0  0  0  0  0  0
   33.4670   27.7680   48.3030 C   0  0  0  0  0  0  0  0  0  0  0  0
   33.7850   27.6570   47.2610 H   0  0  0  0  0  0  0  0  0  0  0  0
   32.3160   27.7910   48.8100 O   0  0  0  0  0  0  0  0  0  0  0  0
  1  3  1  0  0  0  0
  1  2  1  0  0  0  0
  4  1  1  0  0  0  0
  5  4  1  0  0  0  0
  5 10  1  0  0  0  0
  6  5  2  0  0  0  0
  7  8  2  0  0  0  0
  7  6  1  0  0  0  0
  8  9  1  0  0  0  0
  9  4  2  0  0  0  0
 11  6  1  0  0  0  0
 12  8  1  0  0  0  0
 13  1  1  0  0  0  0
 13 15  1  0  0  0  0
 13 16  1  0  0  0  0
 14 13  1  0  0  0  0
 18 17  2  6  0  0  0
 18 19  1  0  0  0  0
 18 16  1  0  0  0  0
 19 20  1  0  0  0  0
 21 18  1  0  0  0  0
 22 24  2  0  0  0  0
 22 21  1  0  0  0  0
 23 22  1  0  0  0  0
M  END
>  <minimizedAffinity>
-4.68364334

>  <minimizedRMSD>
1.05551219

$$$$
