
 OpenBabel03272503403D

 35 37  0  0  1  0  0  0  0  0999 V2000
   38.5400   31.0720   46.0000 C   0  0  0  0  0  0  0  0  0  0  0  0
   39.8190   31.3670   46.3870 C   0  0  0  0  0  0  0  0  0  0  0  0
   40.5080   31.5410   45.1880 C   0  0  0  0  0  0  0  0  0  0  0  0
   39.6800   31.3560   44.1600 N   0  0  0  0  0  0  0  0  0  0  0  0
   38.4750   31.0700   44.6550 N   0  0  0  0  0  0  0  0  0  0  0  0
   40.1440   31.4330   47.4310 H   0  0  0  0  0  0  0  0  0  0  0  0
   41.5810   31.7910   45.1950 H   0  0  0  0  0  0  0  0  0  0  0  0
   40.7850   30.1940   42.3200 C   0  0  2  0  0  0  0  0  0  0  0  0
   40.1010   31.4690   42.7890 C   0  0  1  0  0  0  0  0  0  0  0  0
   38.9350   31.4570   41.8230 C   0  0  0  0  0  0  0  0  0  0  0  0
   39.3910   30.9490   40.6290 O   0  0  0  0  0  0  0  0  0  0  0  0
   40.6200   30.3870   40.8060 C   0  0  0  0  0  0  0  0  0  0  0  0
   41.8380   30.1200   42.6020 H   0  0  0  0  0  0  0  0  0  0  0  0
   40.6970   32.3650   42.6190 H   0  0  0  0  0  0  0  0  0  0  0  0
   38.0870   30.8590   42.1930 H   0  0  0  0  0  0  0  0  0  0  0  0
   38.5840   32.5150   41.7270 H   0  0  0  0  0  0  0  0  0  0  0  0
   41.4290   31.0850   40.5060 H   0  0  0  0  0  0  0  0  0  0  0  0
   40.7770   29.4330   40.2650 H   0  0  0  0  0  0  0  0  0  0  0  0
   39.9900   29.1230   42.7210 O   0  0  0  0  0  0  0  0  0  0  0  0
   40.1900   27.8540   42.1520 C   0  0  0  0  0  0  0  0  0  0  0  0
   40.7600   27.7970   41.2400 H   0  0  0  0  0  0  0  0  0  0  0  0
   39.7060   26.8210   42.7100 O   0  0  0  0  0  0  0  0  0  0  0  0
   36.4270   30.6330   49.0630 C   0  0  0  0  0  0  0  0  0  0  0  0
   37.5090   30.8980   48.2560 C   0  0  0  0  0  0  0  0  0  0  0  0
   37.4320   30.8040   46.8900 C   0  0  0  0  0  0  0  0  0  0  0  0
   36.2360   30.4350   46.3780 N   0  0  0  0  0  0  0  0  0  0  0  0
   35.1660   30.1730   47.1860 C   0  0  0  0  0  0  0  0  0  0  0  0
   35.2560   30.2690   48.5010 N   0  0  0  0  0  0  0  0  0  0  0  0
   38.4970   31.2010   48.6380 H   0  0  0  0  0  0  0  0  0  0  0  0
   34.2110   29.8760   46.7480 H   0  0  0  0  0  0  0  0  0  0  0  0
   36.6970   30.7830   50.4260 O   0  0  0  0  0  0  0  0  0  0  0  0
   36.7810   29.7000   51.3200 C   0  0  0  0  0  0  0  0  0  0  0  0
   35.5220   29.1940   51.6300 F   0  0  0  0  0  0  0  0  0  0  0  0
   37.4470   30.0930   52.4470 F   0  0  0  0  0  0  0  0  0  0  0  0
   37.5310   28.6940   50.7250 F   0  0  0  0  0  0  0  0  0  0  0  0
  1  2  1  0  0  0  0
  1 25  1  0  0  0  0
  2  6  1  0  0  0  0
  3  7  1  0  0  0  0
  3  2  2  0  0  0  0
  4  5  1  0  0  0  0
  4  3  1  0  0  0  0
  5  1  2  0  0  0  0
  8 13  1  1  0  0  0
  8 19  1  0  0  0  0
  8  9  1  0  0  0  0
  9 14  1  6  0  0  0
  9  4  1  0  0  0  0
 10 15  1  0  0  0  0
 10  9  1  0  0  0  0
 11 12  1  0  0  0  0
 11 10  1  0  0  0  0
 12  8  1  0  0  0  0
 16 10  1  0  0  0  0
 17 12  1  0  0  0  0
 18 12  1  0  0  0  0
 20 22  2  0  0  0  0
 20 19  1  0  0  0  0
 21 20  1  0  0  0  0
 23 31  1  0  0  0  0
 24 29  1  0  0  0  0
 24 23  2  0  0  0  0
 25 24  1  0  0  0  0
 26 25  2  0  0  0  0
 26 27  1  0  0  0  0
 27 28  2  0  0  0  0
 28 23  1  0  0  0  0
 30 27  1  0  0  0  0
 31 32  1  0  0  0  0
 32 33  1  0  0  0  0
 32 34  1  0  0  0  0
 35 32  1  0  0  0  0
M  END
>  <minimizedAffinity>
-5.99497175

>  <minimizedRMSD>
0.89053762

$$$$
