
 OpenBabel03272508163D

 25 26  0  0  0  0  0  0  0  0999 V2000
   36.9760   32.1880   49.7220 Cl  0  0  0  0  0  0  0  0  0  0  0  0
   37.6630   31.7650   48.1740 C   0  0  0  0  0  0  0  0  0  0  0  0
   37.0170   30.7390   47.5630 C   0  0  0  0  0  0  0  0  0  0  0  0
   37.4910   30.3210   46.3090 C   0  0  0  0  0  0  0  0  0  0  0  0
   38.5620   30.9140   45.7140 C   0  0  0  0  0  0  0  0  0  0  0  0
   39.1930   31.9490   46.3630 C   0  0  0  0  0  0  0  0  0  0  0  0
   40.5660   32.7440   45.6410 Cl  0  0  0  0  0  0  0  0  0  0  0  0
   38.7430   32.3650   47.5770 C   0  0  0  0  0  0  0  0  0  0  0  0
   37.0500   29.5190   45.7450 H   0  0  0  0  0  0  0  0  0  0  0  0
   38.9590   30.6160   44.7420 H   0  0  0  0  0  0  0  0  0  0  0  0
   36.0030   29.0990   49.1000 C   0  0  0  0  0  0  0  0  0  0  0  0
   35.8520   29.9560   48.0070 C   0  0  0  0  0  0  0  0  0  0  0  0
   34.6020   30.0160   47.4010 C   0  0  0  0  0  0  0  0  0  0  0  0
   33.6100   29.2350   47.9130 N   0  0  0  0  0  0  0  0  0  0  0  0
   33.7950   28.4300   48.9590 C   0  0  0  0  0  0  0  0  0  0  0  0
   35.0090   28.3610   49.5600 N   0  0  0  0  0  0  0  0  0  0  0  0
   36.9920   29.0560   49.5730 H   0  0  0  0  0  0  0  0  0  0  0  0
   34.4890   30.6650   46.5740 H   0  0  0  0  0  0  0  0  0  0  0  0
   33.0230   27.8040   49.3800 H   0  0  0  0  0  0  0  0  0  0  0  0
   39.3610   33.4660   48.3420 C   0  0  0  0  0  0  0  0  0  0  0  0
   39.9780   34.4530   47.8860 O   0  0  0  0  0  0  0  0  0  0  0  0
   39.3600   33.5920   49.7380 O   0  0  0  0  0  0  0  0  0  0  0  0
   39.7900   34.6450   50.4750 C   0  0  0  0  0  0  0  0  0  0  0  0
   39.2410   35.6000   50.4340 H   0  0  0  0  0  0  0  0  0  0  0  0
   40.8160   34.4660   51.1780 O   0  0  0  0  0  0  0  0  0  0  0  0
  2  1  1  0  0  0  0
  3 12  1  0  0  0  0
  3  2  2  0  0  0  0
  4  3  1  0  0  0  0
  5  4  2  0  0  0  0
  5  6  1  0  0  0  0
  6  8  2  0  0  0  0
  7  6  1  0  0  0  0
  8  2  1  0  0  0  0
  8 20  1  0  0  0  0
  9  4  1  0  0  0  0
 10  5  1  0  0  0  0
 11 16  1  0  0  0  0
 11 17  1  0  0  0  0
 12 11  2  0  0  0  0
 13 14  2  0  0  0  0
 13 12  1  0  0  0  0
 14 15  1  0  0  0  0
 15 19  1  0  0  0  0
 15 16  2  0  0  0  0
 18 13  1  0  0  0  0
 20 22  1  0  0  0  0
 21 20  2  0  0  0  0
 22 23  1  0  0  0  0
 23 25  2  0  0  0  0
 24 23  1  0  0  0  0
M  END
>  <minimizedAffinity>
-3.96891737

>  <minimizedRMSD>
0.541199625

$$$$
