
 OpenBabel03272504433D

 39 40  0  0  0  0  0  0  0  0999 V2000
   38.3700   26.9710   36.2220 Cl  0  0  0  0  0  0  0  0  0  0  0  0
   37.8730   26.1540   34.7400 C   0  0  0  0  0  0  0  0  0  0  0  0
   38.2560   24.8760   34.5340 C   0  0  0  0  0  0  0  0  0  0  0  0
   37.8760   24.2240   33.3800 C   0  0  0  0  0  0  0  0  0  0  0  0
   37.1000   24.9050   32.4470 C   0  0  0  0  0  0  0  0  0  0  0  0
   36.7410   26.2350   32.7340 C   0  0  0  0  0  0  0  0  0  0  0  0
   37.1060   26.8810   33.8560 C   0  0  0  0  0  0  0  0  0  0  0  0
   38.1980   23.1860   33.2310 H   0  0  0  0  0  0  0  0  0  0  0  0
   36.8590   24.3120   31.5900 H   0  0  0  0  0  0  0  0  0  0  0  0
   36.1780   26.5580   31.9320 H   0  0  0  0  0  0  0  0  0  0  0  0
   41.1070   23.2420   36.2050 C   0  0  0  0  0  0  0  0  0  0  0  0
   40.4860   22.8140   37.4310 C   0  0  0  0  0  0  0  0  0  0  0  0
   39.1290   23.1090   37.6190 C   0  0  0  0  0  0  0  0  0  0  0  0
   38.4580   23.7780   36.6480 N   0  0  0  0  0  0  0  0  0  0  0  0
   39.0700   24.1660   35.5060 C   0  0  0  0  0  0  0  0  0  0  0  0
   40.3710   23.8970   35.2990 N   0  0  0  0  0  0  0  0  0  0  0  0
   42.1470   23.0310   36.0340 H   0  0  0  0  0  0  0  0  0  0  0  0
   41.1290   22.2910   38.1210 H   0  0  0  0  0  0  0  0  0  0  0  0
   38.5630   22.6750   38.8260 N   0  0  0  0  0  0  0  0  0  0  0  0
   38.9810   22.9790   39.7230 H   0  0  0  0  0  0  0  0  0  0  0  0
   37.7170   22.0420   38.8090 H   0  0  0  0  0  0  0  0  0  0  0  0
   36.7120   28.2370   34.0970 C   0  0  0  0  0  0  0  0  0  0  0  0
   36.3040   28.3130   35.1290 H   0  0  0  0  0  0  0  0  0  0  0  0
   37.6590   28.8540   34.1540 H   0  0  0  0  0  0  0  0  0  0  0  0
   35.7630   28.8980   33.1970 C   0  0  0  0  0  0  0  0  0  0  0  0
   34.7460   28.4160   33.1780 H   0  0  0  0  0  0  0  0  0  0  0  0
   36.1340   28.7850   32.1390 H   0  0  0  0  0  0  0  0  0  0  0  0
   35.6250   30.2260   33.5060 O   0  0  0  0  0  0  0  0  0  0  0  0
   33.1990   29.3570   33.9850 O   0  0  0  0  0  0  0  0  0  0  0  0
   34.1360   30.5210   34.1860 P   0  0  2  0  0  0  0  0  0  0  0  0
   33.5020   31.9180   33.3790 O   0  0  0  0  0  0  0  0  0  0  0  0
   33.5030   31.9380   31.9820 C   0  0  0  0  0  0  0  0  0  0  0  0
   33.5890   32.8160   31.3520 H   0  0  0  0  0  0  0  0  0  0  0  0
   33.4120   31.0260   31.1310 O   0  0  0  0  0  0  0  0  0  0  0  0
   34.2070   30.9070   35.7920 O   0  0  0  0  0  0  0  0  0  0  0  0
   35.3400   31.6480   36.0670 C   0  0  0  0  0  0  0  0  0  0  0  0
   36.4900   30.8620   36.0900 F   0  0  0  0  0  0  0  0  0  0  0  0
   35.5670   32.6070   35.0970 F   0  0  0  0  0  0  0  0  0  0  0  0
   35.2090   32.2600   37.3060 F   0  0  0  0  0  0  0  0  0  0  0  0
  2  1  1  0  0  0  0
  3  2  1  0  0  0  0
  3 15  1  0  0  0  0
  4  3  2  0  0  0  0
  5  6  2  0  0  0  0
  5  4  1  0  0  0  0
  6  7  1  0  0  0  0
  7 22  1  0  0  0  0
  7  2  2  0  0  0  0
  8  4  1  0  0  0  0
  9  5  1  0  0  0  0
 10  6  1  0  0  0  0
 11 12  1  0  0  0  0
 12 13  2  0  0  0  0
 12 18  1  0  0  0  0
 13 19  1  0  0  0  0
 14 13  1  0  0  0  0
 15 14  2  0  0  0  0
 16 15  1  0  0  0  0
 16 11  2  0  0  0  0
 17 11  1  0  0  0  0
 19 20  1  0  0  0  0
 21 19  1  0  0  0  0
 22 24  1  0  0  0  0
 22 23  1  0  0  0  0
 25 28  1  0  0  0  0
 25 22  1  0  0  0  0
 26 25  1  0  0  0  0
 27 25  1  0  0  0  0
 28 30  1  0  0  0  0
 30 29  2  6  0  0  0
 30 35  1  0  0  0  0
 31 30  1  0  0  0  0
 32 31  1  0  0  0  0
 33 32  1  0  0  0  0
 34 32  2  0  0  0  0
 35 36  1  0  0  0  0
 36 37  1  0  0  0  0
 36 39  1  0  0  0  0
 38 36  1  0  0  0  0
M  END
>  <minimizedAffinity>
-5.54633617

$$$$

 OpenBabel03272504433D

 39 40  0  0  0  0  0  0  0  0999 V2000
   38.6160   26.8950   32.7820 Cl  0  0  0  0  0  0  0  0  0  0  0  0
   37.3070   25.9380   32.0880 C   0  0  0  0  0  0  0  0  0  0  0  0
   36.2080   26.5680   31.6210 C   0  0  0  0  0  0  0  0  0  0  0  0
   35.1770   25.8330   31.0760 C   0  0  0  0  0  0  0  0  0  0  0  0
   35.2940   24.4480   31.0210 C   0  0  0  0  0  0  0  0  0  0  0  0
   36.4690   23.8650   31.5290 C   0  0  0  0  0  0  0  0  0  0  0  0
   37.4830   24.5710   32.0630 C   0  0  0  0  0  0  0  0  0  0  0  0
   34.2930   26.3640   30.7020 H   0  0  0  0  0  0  0  0  0  0  0  0
   34.4410   23.9730   30.5820 H   0  0  0  0  0  0  0  0  0  0  0  0
   36.3610   22.8470   31.4000 H   0  0  0  0  0  0  0  0  0  0  0  0
   36.2940   30.1410   30.7190 C   0  0  0  0  0  0  0  0  0  0  0  0
   35.8060   30.7330   31.9380 C   0  0  0  0  0  0  0  0  0  0  0  0
   35.4740   29.8790   32.9970 C   0  0  0  0  0  0  0  0  0  0  0  0
   35.6240   28.5400   32.8390 N   0  0  0  0  0  0  0  0  0  0  0  0
   36.0850   28.0140   31.6810 C   0  0  0  0  0  0  0  0  0  0  0  0
   36.4120   28.8100   30.6480 N   0  0  0  0  0  0  0  0  0  0  0  0
   36.5560   30.7720   29.8890 H   0  0  0  0  0  0  0  0  0  0  0  0
   35.7330   31.8100   31.9350 H   0  0  0  0  0  0  0  0  0  0  0  0
   35.0020   30.4960   34.1640 N   0  0  0  0  0  0  0  0  0  0  0  0
   34.1750   31.1180   34.1140 H   0  0  0  0  0  0  0  0  0  0  0  0
   35.4940   30.3230   35.0830 H   0  0  0  0  0  0  0  0  0  0  0  0
   38.6570   23.9250   32.5660 C   0  0  0  0  0  0  0  0  0  0  0  0
   39.1550   23.3850   31.7300 H   0  0  0  0  0  0  0  0  0  0  0  0
   39.4020   24.7380   32.8190 H   0  0  0  0  0  0  0  0  0  0  0  0
   38.5590   22.9950   33.6950 C   0  0  0  0  0  0  0  0  0  0  0  0
   39.5530   22.5980   34.0420 H   0  0  0  0  0  0  0  0  0  0  0  0
   38.0050   22.0750   33.3530 H   0  0  0  0  0  0  0  0  0  0  0  0
   37.9080   23.5680   34.7560 O   0  0  0  0  0  0  0  0  0  0  0  0
   39.2440   21.9450   36.3220 O   0  0  0  0  0  0  0  0  0  0  0  0
   37.8820   22.5330   36.0580 P   0  0  2  0  0  0  0  0  0  0  0  0
   36.7740   21.2650   35.6470 O   0  0  0  0  0  0  0  0  0  0  0  0
   35.5390   21.2220   36.3000 C   0  0  0  0  0  0  0  0  0  0  0  0
   34.5940   21.5820   35.9090 H   0  0  0  0  0  0  0  0  0  0  0  0
   35.1990   20.7930   37.4240 O   0  0  0  0  0  0  0  0  0  0  0  0
   37.2980   23.2270   37.4420 O   0  0  0  0  0  0  0  0  0  0  0  0
   38.2300   24.0840   37.9900 C   0  0  0  0  0  0  0  0  0  0  0  0
   37.6840   24.8900   38.9860 F   0  0  0  0  0  0  0  0  0  0  0  0
   39.2600   23.3910   38.6010 F   0  0  0  0  0  0  0  0  0  0  0  0
   38.7480   24.9090   37.0010 F   0  0  0  0  0  0  0  0  0  0  0  0
  2  1  1  0  0  0  0
  3 15  1  0  0  0  0
  3  2  2  0  0  0  0
  4  3  1  0  0  0  0
  5  4  2  0  0  0  0
  5  6  1  0  0  0  0
  6  7  2  0  0  0  0
  7  2  1  0  0  0  0
  7 22  1  0  0  0  0
  8  4  1  0  0  0  0
  9  5  1  0  0  0  0
 10  6  1  0  0  0  0
 11 12  1  0  0  0  0
 12 13  2  0  0  0  0
 13 19  1  0  0  0  0
 14 13  1  0  0  0  0
 15 14  2  0  0  0  0
 16 11  2  0  0  0  0
 16 15  1  0  0  0  0
 17 11  1  0  0  0  0
 18 12  1  0  0  0  0
 19 21  1  0  0  0  0
 20 19  1  0  0  0  0
 22 24  1  0  0  0  0
 22 25  1  0  0  0  0
 23 22  1  0  0  0  0
 25 26  1  0  0  0  0
 25 28  1  0  0  0  0
 27 25  1  0  0  0  0
 28 30  1  0  0  0  0
 30 29  2  1  0  0  0
 30 35  1  0  0  0  0
 31 30  1  0  0  0  0
 31 32  1  0  0  0  0
 32 34  2  0  0  0  0
 33 32  1  0  0  0  0
 35 36  1  0  0  0  0
 36 38  1  0  0  0  0
 36 37  1  0  0  0  0
 39 36  1  0  0  0  0
M  END
>  <minimizedAffinity>
-5.49886608

$$$$

 OpenBabel03272504433D

 39 40  0  0  0  0  0  0  0  0999 V2000
   38.9440   26.6990   31.9720 Cl  0  0  0  0  0  0  0  0  0  0  0  0
   37.4770   25.7930   31.6000 C   0  0  0  0  0  0  0  0  0  0  0  0
   36.3500   26.4670   31.2870 C   0  0  0  0  0  0  0  0  0  0  0  0
   35.1950   25.7730   30.9940 C   0  0  0  0  0  0  0  0  0  0  0  0
   35.2190   24.3830   31.0290 C   0  0  0  0  0  0  0  0  0  0  0  0
   36.4320   23.7520   31.3650 C   0  0  0  0  0  0  0  0  0  0  0  0
   37.5650   24.4190   31.6520 C   0  0  0  0  0  0  0  0  0  0  0  0
   34.2900   26.3400   30.7420 H   0  0  0  0  0  0  0  0  0  0  0  0
   34.2750   23.9420   30.7880 H   0  0  0  0  0  0  0  0  0  0  0  0
   36.2430   22.7390   31.3380 H   0  0  0  0  0  0  0  0  0  0  0  0
   36.6170   29.9590   30.1370 C   0  0  0  0  0  0  0  0  0  0  0  0
   36.2370   30.6620   31.3340 C   0  0  0  0  0  0  0  0  0  0  0  0
   35.9100   29.9050   32.4660 C   0  0  0  0  0  0  0  0  0  0  0  0
   35.9630   28.5510   32.3930 N   0  0  0  0  0  0  0  0  0  0  0  0
   36.3250   27.9200   31.2530 C   0  0  0  0  0  0  0  0  0  0  0  0
   36.6450   28.6210   30.1510 N   0  0  0  0  0  0  0  0  0  0  0  0
   36.8730   30.5150   29.2530 H   0  0  0  0  0  0  0  0  0  0  0  0
   36.2340   31.7390   31.2610 H   0  0  0  0  0  0  0  0  0  0  0  0
   35.5440   30.6280   33.6100 N   0  0  0  0  0  0  0  0  0  0  0  0
   34.7580   31.3000   33.5600 H   0  0  0  0  0  0  0  0  0  0  0  0
   36.0740   30.4820   34.5130 H   0  0  0  0  0  0  0  0  0  0  0  0
   38.7720   23.7260   31.9880 C   0  0  0  0  0  0  0  0  0  0  0  0
   38.7150   22.6910   31.5830 H   0  0  0  0  0  0  0  0  0  0  0  0
   39.6040   24.1900   31.3780 H   0  0  0  0  0  0  0  0  0  0  0  0
   39.2000   23.6290   33.3870 C   0  0  0  0  0  0  0  0  0  0  0  0
   39.8640   24.4750   33.7170 H   0  0  0  0  0  0  0  0  0  0  0  0
   39.8510   22.7160   33.5000 H   0  0  0  0  0  0  0  0  0  0  0  0
   38.1240   23.5460   34.2320 O   0  0  0  0  0  0  0  0  0  0  0  0
   39.6670   24.9710   35.8000 O   0  0  0  0  0  0  0  0  0  0  0  0
   38.2320   24.6890   35.4360 P   0  0  2  0  0  0  0  0  0  0  0  0
   37.4060   24.0270   36.8080 O   0  0  0  0  0  0  0  0  0  0  0  0
   38.1070   23.9040   38.0110 C   0  0  0  0  0  0  0  0  0  0  0  0
   38.7700   23.0920   38.2880 H   0  0  0  0  0  0  0  0  0  0  0  0
   38.1660   24.6330   39.0250 O   0  0  0  0  0  0  0  0  0  0  0  0
   37.4610   26.1070   35.0720 O   0  0  0  0  0  0  0  0  0  0  0  0
   38.1250   27.1810   35.6290 C   0  0  0  0  0  0  0  0  0  0  0  0
   39.3870   27.3690   35.0690 F   0  0  0  0  0  0  0  0  0  0  0  0
   37.4450   28.3660   35.4120 F   0  0  0  0  0  0  0  0  0  0  0  0
   38.2830   26.9780   36.9930 F   0  0  0  0  0  0  0  0  0  0  0  0
  2  7  1  0  0  0  0
  2  1  1  0  0  0  0
  3  2  2  0  0  0  0
  4  5  2  0  0  0  0
  4  3  1  0  0  0  0
  5  6  1  0  0  0  0
  6  7  2  0  0  0  0
  7 22  1  0  0  0  0
  8  4  1  0  0  0  0
  9  5  1  0  0  0  0
 10  6  1  0  0  0  0
 11 16  2  0  0  0  0
 11 12  1  0  0  0  0
 12 13  2  0  0  0  0
 13 19  1  0  0  0  0
 14 13  1  0  0  0  0
 15  3  1  0  0  0  0
 15 14  2  0  0  0  0
 16 15  1  0  0  0  0
 17 11  1  0  0  0  0
 18 12  1  0  0  0  0
 19 21  1  0  0  0  0
 20 19  1  0  0  0  0
 22 25  1  0  0  0  0
 23 22  1  0  0  0  0
 24 22  1  0  0  0  0
 25 27  1  0  0  0  0
 25 26  1  0  0  0  0
 25 28  1  0  0  0  0
 28 30  1  0  0  0  0
 30 29  2  1  0  0  0
 30 31  1  0  0  0  0
 31 32  1  0  0  0  0
 32 33  1  0  0  0  0
 32 34  2  0  0  0  0
 35 30  1  0  0  0  0
 35 36  1  0  0  0  0
 36 39  1  0  0  0  0
 37 36  1  0  0  0  0
 38 36  1  0  0  0  0
M  END
>  <minimizedAffinity>
-5.3751235

$$$$

 OpenBabel03272504433D

 39 40  0  0  0  0  0  0  0  0999 V2000
   38.8550   26.8250   32.1970 Cl  0  0  0  0  0  0  0  0  0  0  0  0
   37.4250   25.9030   31.7320 C   0  0  0  0  0  0  0  0  0  0  0  0
   36.2990   26.5640   31.3890 C   0  0  0  0  0  0  0  0  0  0  0  0
   35.1730   25.8570   31.0240 C   0  0  0  0  0  0  0  0  0  0  0  0
   35.2250   24.4660   31.0170 C   0  0  0  0  0  0  0  0  0  0  0  0
   36.4350   23.8500   31.3880 C   0  0  0  0  0  0  0  0  0  0  0  0
   37.5400   24.5300   31.7460 C   0  0  0  0  0  0  0  0  0  0  0  0
   34.2680   26.4130   30.7490 H   0  0  0  0  0  0  0  0  0  0  0  0
   34.3020   24.0150   30.7200 H   0  0  0  0  0  0  0  0  0  0  0  0
   36.2690   22.8340   31.3220 H   0  0  0  0  0  0  0  0  0  0  0  0
   35.8190   30.0540   32.4750 C   0  0  0  0  0  0  0  0  0  0  0  0
   36.1850   30.7580   31.2740 C   0  0  0  0  0  0  0  0  0  0  0  0
   36.5760   30.0020   30.1610 C   0  0  0  0  0  0  0  0  0  0  0  0
   36.5940   28.6480   30.2550 N   0  0  0  0  0  0  0  0  0  0  0  0
   36.2450   28.0160   31.3990 C   0  0  0  0  0  0  0  0  0  0  0  0
   35.8650   28.7160   32.4820 N   0  0  0  0  0  0  0  0  0  0  0  0
   35.5160   30.6080   33.3450 H   0  0  0  0  0  0  0  0  0  0  0  0
   36.1290   31.8340   31.3290 H   0  0  0  0  0  0  0  0  0  0  0  0
   36.9250   30.7260   29.0130 N   0  0  0  0  0  0  0  0  0  0  0  0
   37.6730   31.4400   29.0670 H   0  0  0  0  0  0  0  0  0  0  0  0
   36.4220   30.5370   28.1020 H   0  0  0  0  0  0  0  0  0  0  0  0
   38.7450   23.8510   32.1150 C   0  0  0  0  0  0  0  0  0  0  0  0
   39.0340   23.1610   31.2910 H   0  0  0  0  0  0  0  0  0  0  0  0
   39.5770   24.6170   32.1040 H   0  0  0  0  0  0  0  0  0  0  0  0
   38.8080   23.0920   33.3680 C   0  0  0  0  0  0  0  0  0  0  0  0
   39.8400   23.0400   33.8140 H   0  0  0  0  0  0  0  0  0  0  0  0
   38.5560   22.0160   33.1470 H   0  0  0  0  0  0  0  0  0  0  0  0
   37.9390   23.5970   34.3000 O   0  0  0  0  0  0  0  0  0  0  0  0
   39.7770   22.9020   36.0350 O   0  0  0  0  0  0  0  0  0  0  0  0
   38.7350   23.9450   35.7180 P   0  0  2  0  0  0  0  0  0  0  0  0
   37.5290   23.9530   36.9620 O   0  0  0  0  0  0  0  0  0  0  0  0
   37.8850   23.5100   38.2390 C   0  0  0  0  0  0  0  0  0  0  0  0
   37.3500   22.7830   38.8390 H   0  0  0  0  0  0  0  0  0  0  0  0
   38.8420   23.8010   38.9900 O   0  0  0  0  0  0  0  0  0  0  0  0
   39.4280   25.4470   35.7350 O   0  0  0  0  0  0  0  0  0  0  0  0
   38.4640   26.4280   35.8560 C   0  0  0  0  0  0  0  0  0  0  0  0
   38.8710   27.6380   35.2960 F   0  0  0  0  0  0  0  0  0  0  0  0
   37.3030   26.0850   35.1880 F   0  0  0  0  0  0  0  0  0  0  0  0
   38.1830   26.6450   37.1980 F   0  0  0  0  0  0  0  0  0  0  0  0
  2  7  1  0  0  0  0
  2  1  1  0  0  0  0
  3 15  1  0  0  0  0
  3  2  2  0  0  0  0
  4  3  1  0  0  0  0
  5  4  2  0  0  0  0
  5  6  1  0  0  0  0
  6  7  2  0  0  0  0
  7 22  1  0  0  0  0
  8  4  1  0  0  0  0
  9  5  1  0  0  0  0
 10  6  1  0  0  0  0
 11 16  1  0  0  0  0
 11 17  1  0  0  0  0
 12 18  1  0  0  0  0
 12 11  2  0  0  0  0
 13 14  2  0  0  0  0
 13 12  1  0  0  0  0
 14 15  1  0  0  0  0
 15 16  2  0  0  0  0
 19 20  1  0  0  0  0
 19 13  1  0  0  0  0
 21 19  1  0  0  0  0
 22 25  1  0  0  0  0
 23 22  1  0  0  0  0
 24 22  1  0  0  0  0
 25 26  1  0  0  0  0
 25 28  1  0  0  0  0
 27 25  1  0  0  0  0
 28 30  1  0  0  0  0
 30 35  1  0  0  0  0
 30 29  2  1  0  0  0
 30 31  1  0  0  0  0
 31 32  1  0  0  0  0
 32 33  1  0  0  0  0
 32 34  2  0  0  0  0
 35 36  1  0  0  0  0
 36 39  1  0  0  0  0
 37 36  1  0  0  0  0
 38 36  1  0  0  0  0
M  END
>  <minimizedAffinity>
-5.29713535

$$$$

 OpenBabel03272504433D

 39 40  0  0  0  0  0  0  0  0999 V2000
   38.5020   26.9480   36.3020 Cl  0  0  0  0  0  0  0  0  0  0  0  0
   37.9720   26.1550   34.8180 C   0  0  0  0  0  0  0  0  0  0  0  0
   38.3260   24.8720   34.5950 C   0  0  0  0  0  0  0  0  0  0  0  0
   37.9200   24.2400   33.4400 C   0  0  0  0  0  0  0  0  0  0  0  0
   37.1470   24.9450   32.5230 C   0  0  0  0  0  0  0  0  0  0  0  0
   36.8180   26.2790   32.8270 C   0  0  0  0  0  0  0  0  0  0  0  0
   37.2090   26.9070   33.9510 C   0  0  0  0  0  0  0  0  0  0  0  0
   38.2190   23.1960   33.2780 H   0  0  0  0  0  0  0  0  0  0  0  0
   36.8840   24.3650   31.6630 H   0  0  0  0  0  0  0  0  0  0  0  0
   36.2530   26.6210   32.0340 H   0  0  0  0  0  0  0  0  0  0  0  0
   41.1580   23.1490   36.2090 C   0  0  0  0  0  0  0  0  0  0  0  0
   40.5470   22.7390   37.4470 C   0  0  0  0  0  0  0  0  0  0  0  0
   39.2040   23.0750   37.6620 C   0  0  0  0  0  0  0  0  0  0  0  0
   38.5350   23.7660   36.7050 N   0  0  0  0  0  0  0  0  0  0  0  0
   39.1370   24.1370   35.5520 C   0  0  0  0  0  0  0  0  0  0  0  0
   40.4240   23.8280   35.3190 N   0  0  0  0  0  0  0  0  0  0  0  0
   42.1870   22.9060   36.0180 H   0  0  0  0  0  0  0  0  0  0  0  0
   41.1880   22.1960   38.1250 H   0  0  0  0  0  0  0  0  0  0  0  0
   38.6490   22.6580   38.8800 N   0  0  0  0  0  0  0  0  0  0  0  0
   39.0940   22.9480   39.7690 H   0  0  0  0  0  0  0  0  0  0  0  0
   37.7830   22.0520   38.8800 H   0  0  0  0  0  0  0  0  0  0  0  0
   36.8460   28.2680   34.2090 C   0  0  0  0  0  0  0  0  0  0  0  0
   36.6000   28.3740   35.2890 H   0  0  0  0  0  0  0  0  0  0  0  0
   37.7850   28.8890   34.1030 H   0  0  0  0  0  0  0  0  0  0  0  0
   35.7640   28.8980   33.4460 C   0  0  0  0  0  0  0  0  0  0  0  0
   35.5190   28.3670   32.4850 H   0  0  0  0  0  0  0  0  0  0  0  0
   36.1100   29.9170   33.1110 H   0  0  0  0  0  0  0  0  0  0  0  0
   34.6250   29.0130   34.2000 O   0  0  0  0  0  0  0  0  0  0  0  0
   34.7710   31.4610   33.2740 O   0  0  0  0  0  0  0  0  0  0  0  0
   34.1960   30.6100   34.3770 P   0  0  2  0  0  0  0  0  0  0  0  0
   34.8480   31.1210   35.9000 O   0  0  0  0  0  0  0  0  0  0  0  0
   34.0760   31.9620   36.7060 C   0  0  0  0  0  0  0  0  0  0  0  0
   34.0930   33.0460   36.7040 H   0  0  0  0  0  0  0  0  0  0  0  0
   33.2180   31.7260   37.5840 O   0  0  0  0  0  0  0  0  0  0  0  0
   32.5620   30.8480   34.4700 O   0  0  0  0  0  0  0  0  0  0  0  0
   31.9150   29.6750   34.8010 C   0  0  0  0  0  0  0  0  0  0  0  0
   32.4990   29.0420   35.8970 F   0  0  0  0  0  0  0  0  0  0  0  0
   30.6010   29.9050   35.1670 F   0  0  0  0  0  0  0  0  0  0  0  0
   31.9520   28.8000   33.7250 F   0  0  0  0  0  0  0  0  0  0  0  0
  2  1  1  0  0  0  0
  3  2  1  0  0  0  0
  3 15  1  0  0  0  0
  4  3  2  0  0  0  0
  5  6  2  0  0  0  0
  5  4  1  0  0  0  0
  6  7  1  0  0  0  0
  7 22  1  0  0  0  0
  7  2  2  0  0  0  0
  8  4  1  0  0  0  0
  9  5  1  0  0  0  0
 10  6  1  0  0  0  0
 11 12  1  0  0  0  0
 12 13  2  0  0  0  0
 12 18  1  0  0  0  0
 13 19  1  0  0  0  0
 14 13  1  0  0  0  0
 15 14  2  0  0  0  0
 16 15  1  0  0  0  0
 16 11  2  0  0  0  0
 17 11  1  0  0  0  0
 19 20  1  0  0  0  0
 21 19  1  0  0  0  0
 22 23  1  0  0  0  0
 24 22  1  0  0  0  0
 25 28  1  0  0  0  0
 25 22  1  0  0  0  0
 26 25  1  0  0  0  0
 27 25  1  0  0  0  0
 28 30  1  0  0  0  0
 30 29  2  6  0  0  0
 30 35  1  0  0  0  0
 30 31  1  0  0  0  0
 31 32  1  0  0  0  0
 32 34  2  0  0  0  0
 33 32  1  0  0  0  0
 35 36  1  0  0  0  0
 36 38  1  0  0  0  0
 36 37  1  0  0  0  0
 39 36  1  0  0  0  0
M  END
>  <minimizedAffinity>
-5.29203892

$$$$

 OpenBabel03272504433D

 39 40  0  0  0  0  0  0  0  0999 V2000
   38.6600   26.5370   32.3990 Cl  0  0  0  0  0  0  0  0  0  0  0  0
   37.2150   25.6700   31.8770 C   0  0  0  0  0  0  0  0  0  0  0  0
   36.2130   26.3560   31.2880 C   0  0  0  0  0  0  0  0  0  0  0  0
   35.0770   25.6930   30.8760 C   0  0  0  0  0  0  0  0  0  0  0  0
   34.9900   24.3190   31.0780 C   0  0  0  0  0  0  0  0  0  0  0  0
   36.0760   23.6740   31.6980 C   0  0  0  0  0  0  0  0  0  0  0  0
   37.1900   24.3110   32.1050 C   0  0  0  0  0  0  0  0  0  0  0  0
   34.2740   26.2690   30.4000 H   0  0  0  0  0  0  0  0  0  0  0  0
   34.0720   23.9010   30.7230 H   0  0  0  0  0  0  0  0  0  0  0  0
   35.8190   22.6770   31.7580 H   0  0  0  0  0  0  0  0  0  0  0  0
   36.9650   29.6530   29.8190 C   0  0  0  0  0  0  0  0  0  0  0  0
   36.4050   30.5230   30.8200 C   0  0  0  0  0  0  0  0  0  0  0  0
   35.8010   29.9360   31.9390 C   0  0  0  0  0  0  0  0  0  0  0  0
   35.7680   28.5830   32.0380 N   0  0  0  0  0  0  0  0  0  0  0  0
   36.3030   27.7920   31.0810 C   0  0  0  0  0  0  0  0  0  0  0  0
   36.8890   28.3280   29.9960 N   0  0  0  0  0  0  0  0  0  0  0  0
   37.4340   30.0760   28.9490 H   0  0  0  0  0  0  0  0  0  0  0  0
   36.4960   31.5800   30.6220 H   0  0  0  0  0  0  0  0  0  0  0  0
   35.2680   30.8180   32.8890 N   0  0  0  0  0  0  0  0  0  0  0  0
   34.5590   31.5150   32.5970 H   0  0  0  0  0  0  0  0  0  0  0  0
   35.5930   30.7650   33.8930 H   0  0  0  0  0  0  0  0  0  0  0  0
   38.2660   23.6040   32.7330 C   0  0  0  0  0  0  0  0  0  0  0  0
   38.7920   22.9970   31.9630 H   0  0  0  0  0  0  0  0  0  0  0  0
   39.0440   24.3710   33.0230 H   0  0  0  0  0  0  0  0  0  0  0  0
   38.0010   22.7300   33.8800 C   0  0  0  0  0  0  0  0  0  0  0  0
   37.9590   21.6370   33.6160 H   0  0  0  0  0  0  0  0  0  0  0  0
   36.9670   22.9540   34.2690 H   0  0  0  0  0  0  0  0  0  0  0  0
   38.9280   22.9170   34.8720 O   0  0  0  0  0  0  0  0  0  0  0  0
   37.0040   22.6540   36.6330 O   0  0  0  0  0  0  0  0  0  0  0  0
   38.2010   23.4880   36.2550 P   0  0  2  0  0  0  0  0  0  0  0  0
   37.6900   25.1060   35.9020 O   0  0  0  0  0  0  0  0  0  0  0  0
   38.5940   26.1510   36.1110 C   0  0  0  0  0  0  0  0  0  0  0  0
   39.4290   26.1480   36.8020 H   0  0  0  0  0  0  0  0  0  0  0  0
   38.6910   27.2900   35.6040 O   0  0  0  0  0  0  0  0  0  0  0  0
   39.2310   23.6000   37.5440 O   0  0  0  0  0  0  0  0  0  0  0  0
   38.5260   23.6810   38.7280 C   0  0  0  0  0  0  0  0  0  0  0  0
   39.3300   24.0780   39.7950 F   0  0  0  0  0  0  0  0  0  0  0  0
   37.5190   24.6260   38.6560 F   0  0  0  0  0  0  0  0  0  0  0  0
   37.9810   22.4420   39.0350 F   0  0  0  0  0  0  0  0  0  0  0  0
  2  7  1  0  0  0  0
  2  1  1  0  0  0  0
  3  2  2  0  0  0  0
  4  5  2  0  0  0  0
  4  3  1  0  0  0  0
  5  6  1  0  0  0  0
  6 10  1  0  0  0  0
  6  7  2  0  0  0  0
  7 22  1  0  0  0  0
  8  4  1  0  0  0  0
  9  5  1  0  0  0  0
 11 16  2  0  0  0  0
 11 12  1  0  0  0  0
 12 13  2  0  0  0  0
 13 14  1  0  0  0  0
 13 19  1  0  0  0  0
 15  3  1  0  0  0  0
 15 14  2  0  0  0  0
 16 15  1  0  0  0  0
 17 11  1  0  0  0  0
 18 12  1  0  0  0  0
 19 21  1  0  0  0  0
 20 19  1  0  0  0  0
 22 24  1  0  0  0  0
 22 25  1  0  0  0  0
 23 22  1  0  0  0  0
 25 27  1  0  0  0  0
 25 28  1  0  0  0  0
 26 25  1  0  0  0  0
 28 30  1  0  0  0  0
 30 29  2  1  0  0  0
 30 35  1  0  0  0  0
 31 32  1  0  0  0  0
 31 30  1  0  0  0  0
 32 33  1  0  0  0  0
 34 32  2  0  0  0  0
 35 36  1  0  0  0  0
 36 39  1  0  0  0  0
 36 37  1  0  0  0  0
 38 36  1  0  0  0  0
M  END
>  <minimizedAffinity>
-5.26571798

$$$$

 OpenBabel03272504433D

 39 40  0  0  0  0  0  0  0  0999 V2000
   39.7240   26.6440   34.8040 Cl  0  0  0  0  0  0  0  0  0  0  0  0
   39.3610   25.3580   33.6530 C   0  0  0  0  0  0  0  0  0  0  0  0
   39.0080   24.1400   34.1170 C   0  0  0  0  0  0  0  0  0  0  0  0
   38.7220   23.1250   33.2300 C   0  0  0  0  0  0  0  0  0  0  0  0
   38.8040   23.3810   31.8650 C   0  0  0  0  0  0  0  0  0  0  0  0
   39.1790   24.6750   31.4590 C   0  0  0  0  0  0  0  0  0  0  0  0
   39.4610   25.6740   32.3150 C   0  0  0  0  0  0  0  0  0  0  0  0
   38.4370   22.1430   33.6280 H   0  0  0  0  0  0  0  0  0  0  0  0
   38.5630   22.5290   31.2640 H   0  0  0  0  0  0  0  0  0  0  0  0
   39.1840   24.6600   30.4270 H   0  0  0  0  0  0  0  0  0  0  0  0
   37.9650   24.2230   37.6520 C   0  0  0  0  0  0  0  0  0  0  0  0
   38.8830   23.2710   38.2210 C   0  0  0  0  0  0  0  0  0  0  0  0
   39.8050   22.6540   37.3660 C   0  0  0  0  0  0  0  0  0  0  0  0
   39.8000   22.9730   36.0480 N   0  0  0  0  0  0  0  0  0  0  0  0
   38.9250   23.8720   35.5430 C   0  0  0  0  0  0  0  0  0  0  0  0
   38.0290   24.4800   36.3400 N   0  0  0  0  0  0  0  0  0  0  0  0
   37.2460   24.7120   38.2840 H   0  0  0  0  0  0  0  0  0  0  0  0
   38.7840   23.1060   39.2830 H   0  0  0  0  0  0  0  0  0  0  0  0
   40.6800   21.7340   37.9600 N   0  0  0  0  0  0  0  0  0  0  0  0
   40.2940   20.9290   38.4860 H   0  0  0  0  0  0  0  0  0  0  0  0
   41.7240   21.8690   37.8680 H   0  0  0  0  0  0  0  0  0  0  0  0
   39.8380   26.9730   31.8470 C   0  0  0  0  0  0  0  0  0  0  0  0
   40.2650   27.5500   32.6970 H   0  0  0  0  0  0  0  0  0  0  0  0
   40.7290   26.8360   31.1630 H   0  0  0  0  0  0  0  0  0  0  0  0
   38.8520   27.8310   31.1830 C   0  0  0  0  0  0  0  0  0  0  0  0
   38.4700   27.4140   30.2100 H   0  0  0  0  0  0  0  0  0  0  0  0
   39.3590   28.7930   30.8830 H   0  0  0  0  0  0  0  0  0  0  0  0
   37.7890   28.0970   32.0060 O   0  0  0  0  0  0  0  0  0  0  0  0
   36.3190   29.2950   30.1960 O   0  0  0  0  0  0  0  0  0  0  0  0
   36.3680   28.1220   31.1420 P   0  0  2  0  0  0  0  0  0  0  0  0
   35.0940   28.2660   32.3070 O   0  0  0  0  0  0  0  0  0  0  0  0
   35.1990   29.2530   33.2910 C   0  0  0  0  0  0  0  0  0  0  0  0
   35.5230   30.2760   33.1420 H   0  0  0  0  0  0  0  0  0  0  0  0
   34.9690   29.2380   34.5200 O   0  0  0  0  0  0  0  0  0  0  0  0
   36.0770   26.7230   30.3090 O   0  0  0  0  0  0  0  0  0  0  0  0
   35.6180   25.7350   31.1570 C   0  0  0  0  0  0  0  0  0  0  0  0
   35.9670   24.4600   30.7190 F   0  0  0  0  0  0  0  0  0  0  0  0
   36.1680   25.8540   32.4200 F   0  0  0  0  0  0  0  0  0  0  0  0
   34.2340   25.8000   31.2440 F   0  0  0  0  0  0  0  0  0  0  0  0
  2  3  1  0  0  0  0
  2  1  1  0  0  0  0
  3 15  1  0  0  0  0
  4  8  1  0  0  0  0
  4  3  2  0  0  0  0
  5  4  1  0  0  0  0
  6  5  2  0  0  0  0
  6  7  1  0  0  0  0
  7  2  2  0  0  0  0
  9  5  1  0  0  0  0
 10  6  1  0  0  0  0
 11 12  1  0  0  0  0
 11 17  1  0  0  0  0
 12 18  1  0  0  0  0
 13 19  1  0  0  0  0
 13 12  2  0  0  0  0
 14 13  1  0  0  0  0
 15 14  2  0  0  0  0
 15 16  1  0  0  0  0
 16 11  2  0  0  0  0
 19 20  1  0  0  0  0
 21 19  1  0  0  0  0
 22  7  1  0  0  0  0
 22 23  1  0  0  0  0
 24 22  1  0  0  0  0
 25 22  1  0  0  0  0
 25 28  1  0  0  0  0
 26 25  1  0  0  0  0
 27 25  1  0  0  0  0
 30 29  2  6  0  0  0
 30 28  1  0  0  0  0
 30 31  1  0  0  0  0
 31 32  1  0  0  0  0
 32 34  2  0  0  0  0
 33 32  1  0  0  0  0
 35 30  1  0  0  0  0
 35 36  1  0  0  0  0
 36 39  1  0  0  0  0
 36 38  1  0  0  0  0
 37 36  1  0  0  0  0
M  END
>  <minimizedAffinity>
-5.12621117

$$$$

 OpenBabel03272504433D

 39 40  0  0  0  0  0  0  0  0999 V2000
   36.7200   27.6790   34.7170 Cl  0  0  0  0  0  0  0  0  0  0  0  0
   37.2000   27.9150   33.0360 C   0  0  0  0  0  0  0  0  0  0  0  0
   36.4660   28.7310   32.2510 C   0  0  0  0  0  0  0  0  0  0  0  0
   36.8280   28.9240   30.9350 C   0  0  0  0  0  0  0  0  0  0  0  0
   37.9520   28.2680   30.4430 C   0  0  0  0  0  0  0  0  0  0  0  0
   38.6650   27.4330   31.3230 C   0  0  0  0  0  0  0  0  0  0  0  0
   38.3210   27.2370   32.6090 C   0  0  0  0  0  0  0  0  0  0  0  0
   36.2180   29.5920   30.3130 H   0  0  0  0  0  0  0  0  0  0  0  0
   38.1460   28.4840   29.4130 H   0  0  0  0  0  0  0  0  0  0  0  0
   39.4480   27.0440   30.7750 H   0  0  0  0  0  0  0  0  0  0  0  0
   34.2760   31.1980   33.8960 C   0  0  0  0  0  0  0  0  0  0  0  0
   32.9870   30.5930   33.6820 C   0  0  0  0  0  0  0  0  0  0  0  0
   32.9380   29.3770   32.9860 C   0  0  0  0  0  0  0  0  0  0  0  0
   34.0950   28.8210   32.5470 N   0  0  0  0  0  0  0  0  0  0  0  0
   35.2910   29.4150   32.7640 C   0  0  0  0  0  0  0  0  0  0  0  0
   35.3680   30.5810   33.4280 N   0  0  0  0  0  0  0  0  0  0  0  0
   34.3430   32.1310   34.4250 H   0  0  0  0  0  0  0  0  0  0  0  0
   32.1450   31.1360   34.0810 H   0  0  0  0  0  0  0  0  0  0  0  0
   31.6650   28.8220   32.7990 N   0  0  0  0  0  0  0  0  0  0  0  0
   30.9310   29.3780   32.3230 H   0  0  0  0  0  0  0  0  0  0  0  0
   31.4640   27.8440   33.1440 H   0  0  0  0  0  0  0  0  0  0  0  0
   39.0840   26.3740   33.4610 C   0  0  0  0  0  0  0  0  0  0  0  0
   40.1660   26.5660   33.2880 H   0  0  0  0  0  0  0  0  0  0  0  0
   38.9320   26.7340   34.5220 H   0  0  0  0  0  0  0  0  0  0  0  0
   38.8800   24.9240   33.4120 C   0  0  0  0  0  0  0  0  0  0  0  0
   39.8370   24.3320   33.3890 H   0  0  0  0  0  0  0  0  0  0  0  0
   38.3800   24.6650   32.4350 H   0  0  0  0  0  0  0  0  0  0  0  0
   38.1100   24.4930   34.4620 O   0  0  0  0  0  0  0  0  0  0  0  0
   40.2230   22.9600   34.6940 O   0  0  0  0  0  0  0  0  0  0  0  0
   38.9000   23.3110   35.3240 P   0  0  2  0  0  0  0  0  0  0  0  0
   37.8640   21.9220   35.3040 O   0  0  0  0  0  0  0  0  0  0  0  0
   37.1840   21.6150   34.1220 C   0  0  0  0  0  0  0  0  0  0  0  0
   36.1100   21.5240   34.0050 H   0  0  0  0  0  0  0  0  0  0  0  0
   37.5840   21.3800   32.9620 O   0  0  0  0  0  0  0  0  0  0  0  0
   39.1270   23.6950   36.9170 O   0  0  0  0  0  0  0  0  0  0  0  0
   38.1290   24.5380   37.3640 C   0  0  0  0  0  0  0  0  0  0  0  0
   38.1490   24.6910   38.7480 F   0  0  0  0  0  0  0  0  0  0  0  0
   38.2730   25.8140   36.8500 F   0  0  0  0  0  0  0  0  0  0  0  0
   36.8890   24.0280   37.0030 F   0  0  0  0  0  0  0  0  0  0  0  0
  2  1  1  0  0  0  0
  3 15  1  0  0  0  0
  3  2  2  0  0  0  0
  4  3  1  0  0  0  0
  5  4  2  0  0  0  0
  5  6  1  0  0  0  0
  6  7  2  0  0  0  0
  7  2  1  0  0  0  0
  7 22  1  0  0  0  0
  8  4  1  0  0  0  0
  9  5  1  0  0  0  0
 10  6  1  0  0  0  0
 11 17  1  0  0  0  0
 12 11  1  0  0  0  0
 12 18  1  0  0  0  0
 13 12  2  0  0  0  0
 14 15  2  0  0  0  0
 14 13  1  0  0  0  0
 15 16  1  0  0  0  0
 16 11  2  0  0  0  0
 19 13  1  0  0  0  0
 19 21  1  0  0  0  0
 20 19  1  0  0  0  0
 22 24  1  0  0  0  0
 23 22  1  0  0  0  0
 25 22  1  0  0  0  0
 25 28  1  0  0  0  0
 26 25  1  0  0  0  0
 27 25  1  0  0  0  0
 28 30  1  0  0  0  0
 30 29  2  6  0  0  0
 30 35  1  0  0  0  0
 31 30  1  0  0  0  0
 32 31  1  0  0  0  0
 33 32  1  0  0  0  0
 34 32  2  0  0  0  0
 35 36  1  0  0  0  0
 36 37  1  0  0  0  0
 38 36  1  0  0  0  0
 39 36  1  0  0  0  0
M  END
>  <minimizedAffinity>
-5.09785795

$$$$

 OpenBabel03272504433D

 39 40  0  0  0  0  0  0  0  0999 V2000
   38.7870   26.3070   32.5130 Cl  0  0  0  0  0  0  0  0  0  0  0  0
   37.3930   25.3710   31.9730 C   0  0  0  0  0  0  0  0  0  0  0  0
   36.3010   26.0210   31.5180 C   0  0  0  0  0  0  0  0  0  0  0  0
   35.2040   25.3030   31.0930 C   0  0  0  0  0  0  0  0  0  0  0  0
   35.2480   23.9130   31.1440 C   0  0  0  0  0  0  0  0  0  0  0  0
   36.4220   23.3090   31.6320 C   0  0  0  0  0  0  0  0  0  0  0  0
   37.4990   23.9990   32.0490 C   0  0  0  0  0  0  0  0  0  0  0  0
   34.3260   25.8500   30.7260 H   0  0  0  0  0  0  0  0  0  0  0  0
   34.3490   23.4520   30.7930 H   0  0  0  0  0  0  0  0  0  0  0  0
   36.2560   22.2910   31.5920 H   0  0  0  0  0  0  0  0  0  0  0  0
   36.5200   29.5030   30.3290 C   0  0  0  0  0  0  0  0  0  0  0  0
   36.1240   30.2140   31.5160 C   0  0  0  0  0  0  0  0  0  0  0  0
   35.8030   29.4650   32.6560 C   0  0  0  0  0  0  0  0  0  0  0  0
   35.8780   28.1110   32.5990 N   0  0  0  0  0  0  0  0  0  0  0  0
   36.2540   27.4720   31.4670 C   0  0  0  0  0  0  0  0  0  0  0  0
   36.5680   28.1660   30.3590 N   0  0  0  0  0  0  0  0  0  0  0  0
   36.7710   30.0530   29.4390 H   0  0  0  0  0  0  0  0  0  0  0  0
   36.1050   31.2900   31.4310 H   0  0  0  0  0  0  0  0  0  0  0  0
   35.4220   30.1950   33.7900 N   0  0  0  0  0  0  0  0  0  0  0  0
   34.6250   30.8540   33.7280 H   0  0  0  0  0  0  0  0  0  0  0  0
   35.9500   30.0680   34.6960 H   0  0  0  0  0  0  0  0  0  0  0  0
   38.6690   23.3320   32.5370 C   0  0  0  0  0  0  0  0  0  0  0  0
   39.1200   22.7470   31.7050 H   0  0  0  0  0  0  0  0  0  0  0  0
   39.4470   24.1270   32.7370 H   0  0  0  0  0  0  0  0  0  0  0  0
   38.5780   22.4460   33.7010 C   0  0  0  0  0  0  0  0  0  0  0  0
   39.5210   21.8660   33.9040 H   0  0  0  0  0  0  0  0  0  0  0  0
   37.8130   21.6460   33.4830 H   0  0  0  0  0  0  0  0  0  0  0  0
   38.2240   23.1390   34.8290 O   0  0  0  0  0  0  0  0  0  0  0  0
   40.2800   24.6890   35.3210 O   0  0  0  0  0  0  0  0  0  0  0  0
   39.5590   23.4450   35.7730 P   0  0  2  0  0  0  0  0  0  0  0  0
   40.6040   22.0740   35.5960 O   0  0  0  0  0  0  0  0  0  0  0  0
   41.6010   21.8680   36.5530 C   0  0  0  0  0  0  0  0  0  0  0  0
   42.6100   22.2630   36.5240 H   0  0  0  0  0  0  0  0  0  0  0  0
   41.6130   21.2250   37.6250 O   0  0  0  0  0  0  0  0  0  0  0  0
   39.2140   23.5570   37.3870 O   0  0  0  0  0  0  0  0  0  0  0  0
   38.0310   24.2390   37.5880 C   0  0  0  0  0  0  0  0  0  0  0  0
   37.8860   25.3130   36.7130 F   0  0  0  0  0  0  0  0  0  0  0  0
   36.9330   23.4290   37.3620 F   0  0  0  0  0  0  0  0  0  0  0  0
   37.9870   24.7290   38.8860 F   0  0  0  0  0  0  0  0  0  0  0  0
  2  7  1  0  0  0  0
  2  1  1  0  0  0  0
  3  2  2  0  0  0  0
  4  5  2  0  0  0  0
  4  3  1  0  0  0  0
  5  6  1  0  0  0  0
  6  7  2  0  0  0  0
  7 22  1  0  0  0  0
  8  4  1  0  0  0  0
  9  5  1  0  0  0  0
 10  6  1  0  0  0  0
 11 16  2  0  0  0  0
 11 12  1  0  0  0  0
 12 13  2  0  0  0  0
 13 19  1  0  0  0  0
 14 13  1  0  0  0  0
 15  3  1  0  0  0  0
 15 14  2  0  0  0  0
 16 15  1  0  0  0  0
 17 11  1  0  0  0  0
 18 12  1  0  0  0  0
 19 21  1  0  0  0  0
 20 19  1  0  0  0  0
 22 24  1  0  0  0  0
 22 25  1  0  0  0  0
 23 22  1  0  0  0  0
 25 26  1  0  0  0  0
 25 28  1  0  0  0  0
 27 25  1  0  0  0  0
 28 30  1  0  0  0  0
 30 29  2  6  0  0  0
 30 35  1  0  0  0  0
 31 30  1  0  0  0  0
 31 32  1  0  0  0  0
 32 34  2  0  0  0  0
 33 32  1  0  0  0  0
 35 36  1  0  0  0  0
 36 39  1  0  0  0  0
 37 36  1  0  0  0  0
 38 36  1  0  0  0  0
M  END
>  <minimizedAffinity>
-5.09153461

$$$$
