
 OpenBabel03272510103D

 22 23  0  0  0  0  0  0  0  0999 V2000
   36.9720   30.9660   47.9510 C   0  0  0  0  0  0  0  0  0  0  0  0
   37.8960   31.6870   48.6780 C   0  0  0  0  0  0  0  0  0  0  0  0
   38.9100   32.4270   48.1060 C   0  0  0  0  0  0  0  0  0  0  0  0
   39.0280   32.4630   46.7290 C   0  0  0  0  0  0  0  0  0  0  0  0
   38.0940   31.7340   46.0240 C   0  0  0  0  0  0  0  0  0  0  0  0
   37.1200   31.0260   46.6190 N   0  0  0  0  0  0  0  0  0  0  0  0
   37.8420   31.6890   49.7590 H   0  0  0  0  0  0  0  0  0  0  0  0
   39.6420   32.9970   48.6630 H   0  0  0  0  0  0  0  0  0  0  0  0
   38.0490   31.6600   44.9440 H   0  0  0  0  0  0  0  0  0  0  0  0
   35.8640   29.8510   49.9300 C   0  0  0  0  0  0  0  0  0  0  0  0
   35.9140   30.1990   48.5820 C   0  0  0  0  0  0  0  0  0  0  0  0
   34.8650   29.7790   47.7630 C   0  0  0  0  0  0  0  0  0  0  0  0
   33.8570   29.0500   48.3570 N   0  0  0  0  0  0  0  0  0  0  0  0
   33.8540   28.7420   49.6550 C   0  0  0  0  0  0  0  0  0  0  0  0
   34.8560   29.1380   50.4510 N   0  0  0  0  0  0  0  0  0  0  0  0
   36.7380   30.2310   50.4800 H   0  0  0  0  0  0  0  0  0  0  0  0
   34.7720   29.9770   46.7000 H   0  0  0  0  0  0  0  0  0  0  0  0
   33.0230   28.1620   50.0550 H   0  0  0  0  0  0  0  0  0  0  0  0
   39.9920   33.1580   46.0020 O   0  0  0  0  0  0  0  0  0  0  0  0
   40.8190   32.4290   45.1390 C   0  0  0  0  0  0  0  0  0  0  0  0
   40.9790   32.7900   44.1340 H   0  0  0  0  0  0  0  0  0  0  0  0
   41.3960   31.3510   45.4880 O   0  0  0  0  0  0  0  0  0  0  0  0
  1 11  1  0  0  0  0
  1  2  1  0  0  0  0
  2  7  1  0  0  0  0
  3  8  1  0  0  0  0
  3  2  2  0  0  0  0
  4  3  1  0  0  0  0
  5  6  1  0  0  0  0
  5  4  2  0  0  0  0
  6  1  2  0  0  0  0
  9  5  1  0  0  0  0
 10 15  1  0  0  0  0
 10 16  1  0  0  0  0
 11 10  2  0  0  0  0
 12 13  2  0  0  0  0
 12 11  1  0  0  0  0
 13 14  1  0  0  0  0
 14 18  1  0  0  0  0
 14 15  2  0  0  0  0
 17 12  1  0  0  0  0
 19  4  1  0  0  0  0
 20 22  2  0  0  0  0
 20 19  1  0  0  0  0
 21 20  1  0  0  0  0
M  END
>  <minimizedAffinity>
-4.72523546

>  <minimizedRMSD>
1.71086097

$$$$
