
 OpenBabel03272510103D

 22 23  0  0  0  0  0  0  0  0999 V2000
   37.3290   31.2170   48.3170 C   0  0  0  0  0  0  0  0  0  0  0  0
   38.3350   32.0860   48.6830 C   0  0  0  0  0  0  0  0  0  0  0  0
   39.1310   32.7590   47.7810 C   0  0  0  0  0  0  0  0  0  0  0  0
   38.9290   32.5670   46.4260 C   0  0  0  0  0  0  0  0  0  0  0  0
   37.9190   31.6940   46.0840 C   0  0  0  0  0  0  0  0  0  0  0  0
   37.1650   31.0580   46.9950 N   0  0  0  0  0  0  0  0  0  0  0  0
   38.5280   32.2670   49.7330 H   0  0  0  0  0  0  0  0  0  0  0  0
   39.9230   33.4430   48.0530 H   0  0  0  0  0  0  0  0  0  0  0  0
   37.6360   31.4380   45.0700 H   0  0  0  0  0  0  0  0  0  0  0  0
   36.9380   30.0670   50.5330 C   0  0  0  0  0  0  0  0  0  0  0  0
   36.5050   30.5250   49.2910 C   0  0  0  0  0  0  0  0  0  0  0  0
   35.1710   30.3030   48.9460 C   0  0  0  0  0  0  0  0  0  0  0  0
   34.3840   29.6470   49.8670 N   0  0  0  0  0  0  0  0  0  0  0  0
   34.8460   29.2280   51.0470 C   0  0  0  0  0  0  0  0  0  0  0  0
   36.1250   29.4340   51.3890 N   0  0  0  0  0  0  0  0  0  0  0  0
   38.0020   30.2930   50.7010 H   0  0  0  0  0  0  0  0  0  0  0  0
   34.6980   30.6030   48.0160 H   0  0  0  0  0  0  0  0  0  0  0  0
   34.1660   28.7160   51.7260 H   0  0  0  0  0  0  0  0  0  0  0  0
   39.6450   33.1690   45.3930 O   0  0  0  0  0  0  0  0  0  0  0  0
   40.6320   32.4120   44.7490 C   0  0  0  0  0  0  0  0  0  0  0  0
   40.8530   32.6140   43.7120 H   0  0  0  0  0  0  0  0  0  0  0  0
   41.2840   31.4910   45.3350 O   0  0  0  0  0  0  0  0  0  0  0  0
  1  2  1  0  0  0  0
  1 11  1  0  0  0  0
  2  7  1  0  0  0  0
  3  8  1  0  0  0  0
  3  2  2  0  0  0  0
  4  3  1  0  0  0  0
  5  4  2  0  0  0  0
  5  6  1  0  0  0  0
  6  1  2  0  0  0  0
  9  5  1  0  0  0  0
 10 16  1  0  0  0  0
 10 15  1  0  0  0  0
 11 10  2  0  0  0  0
 12 11  1  0  0  0  0
 12 13  2  0  0  0  0
 13 14  1  0  0  0  0
 14 15  2  0  0  0  0
 14 18  1  0  0  0  0
 17 12  1  0  0  0  0
 19  4  1  0  0  0  0
 20 22  2  0  0  0  0
 20 19  1  0  0  0  0
 21 20  1  0  0  0  0
M  END
>  <minimizedAffinity>
-4.7214179

>  <minimizedRMSD>
1.34915662

$$$$
