
 OpenBabel03262521483D

 24 24  0  0  0  0  0  0  0  0999 V2000
   38.0850   26.9430   35.8000 C   0  0  0  0  0  0  0  0  0  0  0  0
   37.5970   27.3330   36.7170 H   0  0  0  0  0  0  0  0  0  0  0  0
   39.0410   27.5430   35.7360 H   0  0  0  0  0  0  0  0  0  0  0  0
   37.3120   27.2660   34.6110 C   0  0  0  0  0  0  0  0  0  0  0  0
   36.5580   28.4360   34.4970 C   0  0  0  0  0  0  0  0  0  0  0  0
   35.8500   28.6540   33.3120 C   0  0  0  0  0  0  0  0  0  0  0  0
   35.9410   27.6910   32.3220 N   0  0  0  0  0  0  0  0  0  0  0  0
   36.6870   26.5690   32.4790 C   0  0  0  0  0  0  0  0  0  0  0  0
   37.3720   26.3640   33.6290 N   0  0  0  0  0  0  0  0  0  0  0  0
   36.5230   29.1430   35.2880 H   0  0  0  0  0  0  0  0  0  0  0  0
   35.2440   29.5400   33.1550 H   0  0  0  0  0  0  0  0  0  0  0  0
   36.7010   25.8720   31.6540 H   0  0  0  0  0  0  0  0  0  0  0  0
   38.5060   25.5050   35.8920 C   0  0  0  0  0  0  0  0  0  0  0  0
   37.9220   24.9660   35.0990 H   0  0  0  0  0  0  0  0  0  0  0  0
   39.5680   25.3390   35.6690 H   0  0  0  0  0  0  0  0  0  0  0  0
   38.1160   25.0210   37.1310 O   0  0  0  0  0  0  0  0  0  0  0  0
   37.1820   22.5970   36.7700 O   0  0  0  0  0  0  0  0  0  0  0  0
   38.4130   23.3550   37.2580 P   0  0  2  0  0  0  0  0  0  0  0  0
   38.6590   22.8710   38.8410 O   0  0  0  0  0  0  0  0  0  0  0  0
   38.2190   23.4300   39.5040 H   0  0  0  0  0  0  0  0  0  0  0  0
   39.7550   22.9240   36.3540 O   0  0  0  0  0  0  0  0  0  0  0  0
   40.9750   22.7550   37.0260 C   0  0  0  0  0  0  0  0  0  0  0  0
   41.7690   23.5070   36.9650 H   0  0  0  0  0  0  0  0  0  0  0  0
   40.9300   21.6580   37.6410 O   0  0  0  0  0  0  0  0  0  0  0  0
  1 13  1  0  0  0  0
  1  2  1  0  0  0  0
  3  1  1  0  0  0  0
  4  1  1  0  0  0  0
  5  4  1  0  0  0  0
  5 10  1  0  0  0  0
  6  5  2  0  0  0  0
  7  8  2  0  0  0  0
  7  6  1  0  0  0  0
  8  9  1  0  0  0  0
  9  4  2  0  0  0  0
 11  6  1  0  0  0  0
 12  8  1  0  0  0  0
 13 16  1  0  0  0  0
 14 13  1  0  0  0  0
 15 13  1  0  0  0  0
 16 18  1  0  0  0  0
 18 17  2  6  0  0  0
 18 19  1  0  0  0  0
 19 20  1  0  0  0  0
 21 22  1  0  0  0  0
 21 18  1  0  0  0  0
 22 24  2  0  0  0  0
 23 22  1  0  0  0  0
M  END
>  <minimizedAffinity>
-4.00267601

$$$$

 OpenBabel03262521483D

 24 24  0  0  0  0  0  0  0  0999 V2000
   38.5030   26.8430   35.8620 C   0  0  0  0  0  0  0  0  0  0  0  0
   37.8380   27.7190   36.0160 H   0  0  0  0  0  0  0  0  0  0  0  0
   39.2520   26.9320   36.7040 H   0  0  0  0  0  0  0  0  0  0  0  0
   39.2550   26.9620   34.6230 C   0  0  0  0  0  0  0  0  0  0  0  0
   40.6500   26.9060   34.5800 C   0  0  0  0  0  0  0  0  0  0  0  0
   41.2790   27.0290   33.3380 C   0  0  0  0  0  0  0  0  0  0  0  0
   40.4760   27.2000   32.2250 N   0  0  0  0  0  0  0  0  0  0  0  0
   39.1240   27.2470   32.3160 C   0  0  0  0  0  0  0  0  0  0  0  0
   38.5190   27.1260   33.5220 N   0  0  0  0  0  0  0  0  0  0  0  0
   41.2190   26.7740   35.4670 H   0  0  0  0  0  0  0  0  0  0  0  0
   42.3580   26.9960   33.2310 H   0  0  0  0  0  0  0  0  0  0  0  0
   38.5760   27.3820   31.3950 H   0  0  0  0  0  0  0  0  0  0  0  0
   37.8260   25.5170   36.0500 C   0  0  0  0  0  0  0  0  0  0  0  0
   36.7240   25.7290   36.0050 H   0  0  0  0  0  0  0  0  0  0  0  0
   38.0400   24.7920   35.2540 H   0  0  0  0  0  0  0  0  0  0  0  0
   38.1330   25.0540   37.3200 O   0  0  0  0  0  0  0  0  0  0  0  0
   37.3410   22.6360   36.6850 O   0  0  0  0  0  0  0  0  0  0  0  0
   38.5130   23.4000   37.2930 P   0  0  2  0  0  0  0  0  0  0  0  0
   38.7310   22.7710   38.8290 O   0  0  0  0  0  0  0  0  0  0  0  0
   38.2390   23.2390   39.5260 H   0  0  0  0  0  0  0  0  0  0  0  0
   39.9060   23.1290   36.4030 O   0  0  0  0  0  0  0  0  0  0  0  0
   41.0670   22.7600   37.0970 C   0  0  0  0  0  0  0  0  0  0  0  0
   41.8870   23.4690   37.2570 H   0  0  0  0  0  0  0  0  0  0  0  0
   40.9450   21.5570   37.4460 O   0  0  0  0  0  0  0  0  0  0  0  0
  1  2  1  0  0  0  0
  1 13  1  0  0  0  0
  1  3  1  0  0  0  0
  4  1  1  0  0  0  0
  5  4  1  0  0  0  0
  5 10  1  0  0  0  0
  6  5  2  0  0  0  0
  7  8  2  0  0  0  0
  7  6  1  0  0  0  0
  8  9  1  0  0  0  0
  9  4  2  0  0  0  0
 11  6  1  0  0  0  0
 12  8  1  0  0  0  0
 13 16  1  0  0  0  0
 14 13  1  0  0  0  0
 15 13  1  0  0  0  0
 18 17  2  6  0  0  0
 18 16  1  0  0  0  0
 18 19  1  0  0  0  0
 19 20  1  0  0  0  0
 21 22  1  0  0  0  0
 21 18  1  0  0  0  0
 22 23  1  0  0  0  0
 22 24  2  0  0  0  0
M  END
>  <minimizedAffinity>
-3.91721821

$$$$

 OpenBabel03262521483D

 24 24  0  0  0  0  0  0  0  0999 V2000
   38.8570   26.9330   35.6760 C   0  0  0  0  0  0  0  0  0  0  0  0
   38.9500   27.8700   36.2640 H   0  0  0  0  0  0  0  0  0  0  0  0
   39.9230   26.5680   35.5950 H   0  0  0  0  0  0  0  0  0  0  0  0
   38.4050   27.2020   34.3190 C   0  0  0  0  0  0  0  0  0  0  0  0
   37.1000   27.6040   34.0250 C   0  0  0  0  0  0  0  0  0  0  0  0
   36.7660   27.8390   32.6890 C   0  0  0  0  0  0  0  0  0  0  0  0
   37.7540   27.6560   31.7370 N   0  0  0  0  0  0  0  0  0  0  0  0
   39.0080   27.2640   32.0720 C   0  0  0  0  0  0  0  0  0  0  0  0
   39.3270   27.0400   33.3690 N   0  0  0  0  0  0  0  0  0  0  0  0
   36.3800   27.7290   34.7960 H   0  0  0  0  0  0  0  0  0  0  0  0
   35.7720   28.1520   32.3880 H   0  0  0  0  0  0  0  0  0  0  0  0
   39.7160   27.1480   31.2630 H   0  0  0  0  0  0  0  0  0  0  0  0
   38.0990   25.8420   36.3740 C   0  0  0  0  0  0  0  0  0  0  0  0
   37.9080   26.2220   37.4140 H   0  0  0  0  0  0  0  0  0  0  0  0
   37.1170   25.6300   35.9310 H   0  0  0  0  0  0  0  0  0  0  0  0
   38.9240   24.7310   36.4570 O   0  0  0  0  0  0  0  0  0  0  0  0
   37.6710   24.3490   38.7290 O   0  0  0  0  0  0  0  0  0  0  0  0
   38.3160   23.6000   37.5680 P   0  0  2  0  0  0  0  0  0  0  0  0
   39.5230   22.6540   38.2380 O   0  0  0  0  0  0  0  0  0  0  0  0
   40.3960   23.0820   38.2700 H   0  0  0  0  0  0  0  0  0  0  0  0
   37.1970   22.5940   36.8330 O   0  0  0  0  0  0  0  0  0  0  0  0
   37.5050   22.0830   35.5640 C   0  0  0  0  0  0  0  0  0  0  0  0
   36.7400   21.9860   34.7860 H   0  0  0  0  0  0  0  0  0  0  0  0
   38.7310   21.7990   35.5470 O   0  0  0  0  0  0  0  0  0  0  0  0
  1  2  1  0  0  0  0
  1 13  1  0  0  0  0
  3  1  1  0  0  0  0
  4  1  1  0  0  0  0
  5  4  1  0  0  0  0
  5 10  1  0  0  0  0
  6  5  2  0  0  0  0
  7  8  2  0  0  0  0
  7  6  1  0  0  0  0
  8  9  1  0  0  0  0
  9  4  2  0  0  0  0
 11  6  1  0  0  0  0
 12  8  1  0  0  0  0
 13 16  1  0  0  0  0
 13 14  1  0  0  0  0
 15 13  1  0  0  0  0
 16 18  1  0  0  0  0
 18 19  1  0  0  0  0
 18 17  2  1  0  0  0
 19 20  1  0  0  0  0
 21 18  1  0  0  0  0
 22 21  1  0  0  0  0
 23 22  1  0  0  0  0
 24 22  2  0  0  0  0
M  END
>  <minimizedAffinity>
-3.89866376

$$$$

 OpenBabel03262521483D

 24 24  0  0  0  0  0  0  0  0999 V2000
   37.8240   25.7340   35.4660 C   0  0  0  0  0  0  0  0  0  0  0  0
   37.1610   25.6670   36.3530 H   0  0  0  0  0  0  0  0  0  0  0  0
   38.7030   26.3390   35.8400 H   0  0  0  0  0  0  0  0  0  0  0  0
   37.2080   26.5120   34.4010 C   0  0  0  0  0  0  0  0  0  0  0  0
   37.0950   26.0390   33.0920 C   0  0  0  0  0  0  0  0  0  0  0  0
   36.4860   26.8630   32.1420 C   0  0  0  0  0  0  0  0  0  0  0  0
   36.0320   28.1010   32.5610 N   0  0  0  0  0  0  0  0  0  0  0  0
   36.1640   28.5160   33.8450 C   0  0  0  0  0  0  0  0  0  0  0  0
   36.7550   27.7130   34.7620 N   0  0  0  0  0  0  0  0  0  0  0  0
   37.4610   25.0790   32.8240 H   0  0  0  0  0  0  0  0  0  0  0  0
   36.3650   26.5610   31.1070 H   0  0  0  0  0  0  0  0  0  0  0  0
   35.7800   29.4980   34.0830 H   0  0  0  0  0  0  0  0  0  0  0  0
   38.3900   24.4170   35.0210 C   0  0  0  0  0  0  0  0  0  0  0  0
   37.6550   23.6400   35.3630 H   0  0  0  0  0  0  0  0  0  0  0  0
   38.4730   24.3150   33.9310 H   0  0  0  0  0  0  0  0  0  0  0  0
   39.5860   24.2150   35.6910 O   0  0  0  0  0  0  0  0  0  0  0  0
   40.8260   21.9160   35.9290 O   0  0  0  0  0  0  0  0  0  0  0  0
   39.6170   22.6930   36.4420 P   0  0  2  0  0  0  0  0  0  0  0  0
   38.2750   21.7680   36.0640 O   0  0  0  0  0  0  0  0  0  0  0  0
   37.8750   21.9780   35.2030 H   0  0  0  0  0  0  0  0  0  0  0  0
   39.6990   22.8580   38.1070 O   0  0  0  0  0  0  0  0  0  0  0  0
   38.7200   23.6390   38.7390 C   0  0  0  0  0  0  0  0  0  0  0  0
   38.9880   24.4040   39.4770 H   0  0  0  0  0  0  0  0  0  0  0  0
   37.5960   23.2850   38.2980 O   0  0  0  0  0  0  0  0  0  0  0  0
  1  3  1  0  0  0  0
  1  2  1  0  0  0  0
  4  9  1  0  0  0  0
  4  1  1  0  0  0  0
  5  4  2  0  0  0  0
  6  7  2  0  0  0  0
  6  5  1  0  0  0  0
  7  8  1  0  0  0  0
  8 12  1  0  0  0  0
  8  9  2  0  0  0  0
 10  5  1  0  0  0  0
 11  6  1  0  0  0  0
 13 14  1  0  0  0  0
 13  1  1  0  0  0  0
 13 16  1  0  0  0  0
 15 13  1  0  0  0  0
 16 18  1  0  0  0  0
 18 17  2  6  0  0  0
 18 21  1  0  0  0  0
 19 18  1  0  0  0  0
 20 19  1  0  0  0  0
 21 22  1  0  0  0  0
 22 23  1  0  0  0  0
 24 22  2  0  0  0  0
M  END
>  <minimizedAffinity>
-3.67495823

$$$$

 OpenBabel03262521483D

 24 24  0  0  0  0  0  0  0  0999 V2000
   35.8090   29.4960   34.2490 C   0  0  0  0  0  0  0  0  0  0  0  0
   35.3460   28.5980   34.7080 H   0  0  0  0  0  0  0  0  0  0  0  0
   36.8930   29.4200   34.5610 H   0  0  0  0  0  0  0  0  0  0  0  0
   35.2920   30.7200   34.8410 C   0  0  0  0  0  0  0  0  0  0  0  0
   35.9420   31.3880   35.8810 C   0  0  0  0  0  0  0  0  0  0  0  0
   35.3630   32.5570   36.3800 C   0  0  0  0  0  0  0  0  0  0  0  0
   34.1760   32.9810   35.8100 N   0  0  0  0  0  0  0  0  0  0  0  0
   33.5810   32.2980   34.8010 C   0  0  0  0  0  0  0  0  0  0  0  0
   34.1470   31.1660   34.3200 N   0  0  0  0  0  0  0  0  0  0  0  0
   36.8530   31.0180   36.2820 H   0  0  0  0  0  0  0  0  0  0  0  0
   35.8130   33.1260   37.1860 H   0  0  0  0  0  0  0  0  0  0  0  0
   32.6560   32.7030   34.4150 H   0  0  0  0  0  0  0  0  0  0  0  0
   35.8110   29.4880   32.7480 C   0  0  0  0  0  0  0  0  0  0  0  0
   35.1300   30.3250   32.4390 H   0  0  0  0  0  0  0  0  0  0  0  0
   36.7920   29.6980   32.3040 H   0  0  0  0  0  0  0  0  0  0  0  0
   35.2540   28.2910   32.3240 O   0  0  0  0  0  0  0  0  0  0  0  0
   37.8000   27.8310   31.8930 O   0  0  0  0  0  0  0  0  0  0  0  0
   36.4060   27.3270   31.5330 P   0  0  2  0  0  0  0  0  0  0  0  0
   36.2890   27.4330   29.8670 O   0  0  0  0  0  0  0  0  0  0  0  0
   35.9210   28.2740   29.5440 H   0  0  0  0  0  0  0  0  0  0  0  0
   36.2380   25.7210   31.9780 O   0  0  0  0  0  0  0  0  0  0  0  0
   35.7110   24.8290   31.0330 C   0  0  0  0  0  0  0  0  0  0  0  0
   36.2620   23.9340   30.7220 H   0  0  0  0  0  0  0  0  0  0  0  0
   34.5840   25.2610   30.6770 O   0  0  0  0  0  0  0  0  0  0  0  0
  1  3  1  0  0  0  0
  1  2  1  0  0  0  0
  1  4  1  0  0  0  0
  4  5  1  0  0  0  0
  5 10  1  0  0  0  0
  5  6  2  0  0  0  0
  6 11  1  0  0  0  0
  7  6  1  0  0  0  0
  8  7  2  0  0  0  0
  9  8  1  0  0  0  0
  9  4  2  0  0  0  0
 12  8  1  0  0  0  0
 13  1  1  0  0  0  0
 14 13  1  0  0  0  0
 15 13  1  0  0  0  0
 16 13  1  0  0  0  0
 18 17  2  1  0  0  0
 18 21  1  0  0  0  0
 18 16  1  0  0  0  0
 19 18  1  0  0  0  0
 20 19  1  0  0  0  0
 22 21  1  0  0  0  0
 23 22  1  0  0  0  0
 24 22  2  0  0  0  0
M  END
>  <minimizedAffinity>
-3.6671586

$$$$

 OpenBabel03262521483D

 24 24  0  0  0  0  0  0  0  0999 V2000
   38.2780   26.9900   34.5590 C   0  0  0  0  0  0  0  0  0  0  0  0
   39.2140   27.1310   33.9800 H   0  0  0  0  0  0  0  0  0  0  0  0
   38.3670   27.7500   35.3910 H   0  0  0  0  0  0  0  0  0  0  0  0
   38.2400   25.6820   35.1940 C   0  0  0  0  0  0  0  0  0  0  0  0
   38.1130   25.5180   36.5760 C   0  0  0  0  0  0  0  0  0  0  0  0
   38.0860   24.2190   37.0880 C   0  0  0  0  0  0  0  0  0  0  0  0
   38.1870   23.1710   36.1900 N   0  0  0  0  0  0  0  0  0  0  0  0
   38.3080   23.3800   34.8550 C   0  0  0  0  0  0  0  0  0  0  0  0
   38.3330   24.6420   34.3640 N   0  0  0  0  0  0  0  0  0  0  0  0
   38.0390   26.3590   37.2210 H   0  0  0  0  0  0  0  0  0  0  0  0
   37.9910   24.0180   38.1500 H   0  0  0  0  0  0  0  0  0  0  0  0
   38.3800   22.5030   34.2280 H   0  0  0  0  0  0  0  0  0  0  0  0
   37.0300   27.3480   33.8060 C   0  0  0  0  0  0  0  0  0  0  0  0
   36.4710   26.3840   33.6680 H   0  0  0  0  0  0  0  0  0  0  0  0
   36.3600   28.0240   34.3530 H   0  0  0  0  0  0  0  0  0  0  0  0
   37.4020   27.8230   32.5580 O   0  0  0  0  0  0  0  0  0  0  0  0
   38.4060   26.1410   30.8150 O   0  0  0  0  0  0  0  0  0  0  0  0
   37.0810   26.6780   31.3470 P   0  0  2  0  0  0  0  0  0  0  0  0
   36.2890   27.3460   30.0330 O   0  0  0  0  0  0  0  0  0  0  0  0
   36.4640   28.2930   29.8990 H   0  0  0  0  0  0  0  0  0  0  0  0
   36.1490   25.4240   31.9510 O   0  0  0  0  0  0  0  0  0  0  0  0
   35.4290   24.6410   31.0380 C   0  0  0  0  0  0  0  0  0  0  0  0
   35.7530   23.6290   30.7730 H   0  0  0  0  0  0  0  0  0  0  0  0
   34.4380   25.3120   30.6470 O   0  0  0  0  0  0  0  0  0  0  0  0
  1  4  1  0  0  0  0
  1  3  1  0  0  0  0
  2  1  1  0  0  0  0
  4  5  1  0  0  0  0
  5  6  2  0  0  0  0
  5 10  1  0  0  0  0
  6 11  1  0  0  0  0
  7  6  1  0  0  0  0
  8  7  2  0  0  0  0
  9  8  1  0  0  0  0
  9  4  2  0  0  0  0
 12  8  1  0  0  0  0
 13 15  1  0  0  0  0
 13  1  1  0  0  0  0
 14 13  1  0  0  0  0
 16 13  1  0  0  0  0
 18 17  2  6  0  0  0
 18 21  1  0  0  0  0
 18 16  1  0  0  0  0
 19 18  1  0  0  0  0
 20 19  1  0  0  0  0
 22 21  1  0  0  0  0
 23 22  1  0  0  0  0
 24 22  2  0  0  0  0
M  END
>  <minimizedAffinity>
-3.62286234

$$$$

 OpenBabel03262521483D

 24 24  0  0  0  0  0  0  0  0999 V2000
   37.5680   27.6740   34.9850 C   0  0  0  0  0  0  0  0  0  0  0  0
   36.8390   27.6680   35.8230 H   0  0  0  0  0  0  0  0  0  0  0  0
   37.9980   28.7200   35.0200 H   0  0  0  0  0  0  0  0  0  0  0  0
   36.9010   27.5420   33.7000 C   0  0  0  0  0  0  0  0  0  0  0  0
   36.1810   28.5860   33.1140 C   0  0  0  0  0  0  0  0  0  0  0  0
   35.5770   28.3580   31.8750 C   0  0  0  0  0  0  0  0  0  0  0  0
   35.7280   27.1060   31.3060 N   0  0  0  0  0  0  0  0  0  0  0  0
   36.4370   26.1230   31.9140 C   0  0  0  0  0  0  0  0  0  0  0  0
   37.0220   26.3490   33.1140 N   0  0  0  0  0  0  0  0  0  0  0  0
   36.0970   29.5290   33.5950 H   0  0  0  0  0  0  0  0  0  0  0  0
   35.0030   29.1230   31.3620 H   0  0  0  0  0  0  0  0  0  0  0  0
   36.5030   25.1770   31.3960 H   0  0  0  0  0  0  0  0  0  0  0  0
   38.7310   26.7440   35.1770 C   0  0  0  0  0  0  0  0  0  0  0  0
   38.7080   26.0440   34.2990 H   0  0  0  0  0  0  0  0  0  0  0  0
   39.7080   27.2450   35.1550 H   0  0  0  0  0  0  0  0  0  0  0  0
   38.5090   26.0100   36.3310 O   0  0  0  0  0  0  0  0  0  0  0  0
   39.9750   23.8510   36.0750 O   0  0  0  0  0  0  0  0  0  0  0  0
   38.5330   24.3430   36.0100 P   0  0  2  0  0  0  0  0  0  0  0  0
   37.9890   23.9840   34.4680 O   0  0  0  0  0  0  0  0  0  0  0  0
   38.1200   24.6980   33.8210 H   0  0  0  0  0  0  0  0  0  0  0  0
   37.5870   23.5150   37.1160 O   0  0  0  0  0  0  0  0  0  0  0  0
   38.0620   23.3990   38.4310 C   0  0  0  0  0  0  0  0  0  0  0  0
   38.4240   22.4430   38.8250 H   0  0  0  0  0  0  0  0  0  0  0  0
   37.9790   24.5310   38.9740 O   0  0  0  0  0  0  0  0  0  0  0  0
  1  3  1  0  0  0  0
  1 13  1  0  0  0  0
  1  2  1  0  0  0  0
  4  1  1  0  0  0  0
  5 10  1  0  0  0  0
  5  4  2  0  0  0  0
  6  5  1  0  0  0  0
  7  6  2  0  0  0  0
  7  8  1  0  0  0  0
  8  9  2  0  0  0  0
  9  4  1  0  0  0  0
 11  6  1  0  0  0  0
 12  8  1  0  0  0  0
 13 16  1  0  0  0  0
 14 13  1  0  0  0  0
 15 13  1  0  0  0  0
 18 17  2  1  0  0  0
 18 16  1  0  0  0  0
 18 21  1  0  0  0  0
 19 18  1  0  0  0  0
 20 19  1  0  0  0  0
 21 22  1  0  0  0  0
 22 23  1  0  0  0  0
 22 24  2  0  0  0  0
M  END
>  <minimizedAffinity>
-3.60420704

$$$$

 OpenBabel03262521483D

 24 24  0  0  0  0  0  0  0  0999 V2000
   38.7500   25.3180   34.5620 C   0  0  0  0  0  0  0  0  0  0  0  0
   39.7570   25.6210   34.2070 H   0  0  0  0  0  0  0  0  0  0  0  0
   38.2600   26.3000   34.8310 H   0  0  0  0  0  0  0  0  0  0  0  0
   38.8310   24.5440   35.7920 C   0  0  0  0  0  0  0  0  0  0  0  0
   39.7670   23.5240   35.9790 C   0  0  0  0  0  0  0  0  0  0  0  0
   39.7640   22.8400   37.1980 C   0  0  0  0  0  0  0  0  0  0  0  0
   38.8300   23.2190   38.1460 N   0  0  0  0  0  0  0  0  0  0  0  0
   37.9420   24.2180   37.9180 C   0  0  0  0  0  0  0  0  0  0  0  0
   37.9490   24.8770   36.7350 N   0  0  0  0  0  0  0  0  0  0  0  0
   40.4620   23.2730   35.2160 H   0  0  0  0  0  0  0  0  0  0  0  0
   40.4610   22.0370   37.4110 H   0  0  0  0  0  0  0  0  0  0  0  0
   37.2490   24.4470   38.7150 H   0  0  0  0  0  0  0  0  0  0  0  0
   37.8840   24.7020   33.5020 C   0  0  0  0  0  0  0  0  0  0  0  0
   38.5790   24.4290   32.6630 H   0  0  0  0  0  0  0  0  0  0  0  0
   37.3890   23.7740   33.8160 H   0  0  0  0  0  0  0  0  0  0  0  0
   37.0070   25.6740   33.0460 O   0  0  0  0  0  0  0  0  0  0  0  0
   35.4240   24.1170   31.6500 O   0  0  0  0  0  0  0  0  0  0  0  0
   36.4020   25.2790   31.5090 P   0  0  2  0  0  0  0  0  0  0  0  0
   37.6020   24.7540   30.4680 O   0  0  0  0  0  0  0  0  0  0  0  0
   38.3640   24.3430   30.9100 H   0  0  0  0  0  0  0  0  0  0  0  0
   35.6370   26.6000   30.8190 O   0  0  0  0  0  0  0  0  0  0  0  0
   36.2900   27.8400   30.8720 C   0  0  0  0  0  0  0  0  0  0  0  0
   35.8480   28.6960   31.3920 H   0  0  0  0  0  0  0  0  0  0  0  0
   37.3770   27.7320   30.2480 O   0  0  0  0  0  0  0  0  0  0  0  0
  1  3  1  0  0  0  0
  1  4  1  0  0  0  0
  2  1  1  0  0  0  0
  4  5  2  0  0  0  0
  4  9  1  0  0  0  0
  5  6  1  0  0  0  0
  6 11  1  0  0  0  0
  6  7  2  0  0  0  0
  8  7  1  0  0  0  0
  8 12  1  0  0  0  0
  9  8  2  0  0  0  0
 10  5  1  0  0  0  0
 13 15  1  0  0  0  0
 13  1  1  0  0  0  0
 14 13  1  0  0  0  0
 16 13  1  0  0  0  0
 18 17  2  1  0  0  0
 18 16  1  0  0  0  0
 19 20  1  0  0  0  0
 19 18  1  0  0  0  0
 21 22  1  0  0  0  0
 21 18  1  0  0  0  0
 22 23  1  0  0  0  0
 24 22  2  0  0  0  0
M  END
>  <minimizedAffinity>
-3.52867484

$$$$

 OpenBabel03262521483D

 24 24  0  0  0  0  0  0  0  0999 V2000
   38.2640   24.3280   34.5680 C   0  0  0  0  0  0  0  0  0  0  0  0
   37.3480   23.8340   34.1830 H   0  0  0  0  0  0  0  0  0  0  0  0
   39.0910   23.8620   33.9530 H   0  0  0  0  0  0  0  0  0  0  0  0
   38.5210   23.9620   35.9530 C   0  0  0  0  0  0  0  0  0  0  0  0
   37.7040   24.3800   37.0060 C   0  0  0  0  0  0  0  0  0  0  0  0
   38.0360   23.9740   38.3010 C   0  0  0  0  0  0  0  0  0  0  0  0
   39.1580   23.1800   38.4590 N   0  0  0  0  0  0  0  0  0  0  0  0
   39.9210   22.7990   37.4040 C   0  0  0  0  0  0  0  0  0  0  0  0
   39.5940   23.1950   36.1500 N   0  0  0  0  0  0  0  0  0  0  0  0
   36.8530   24.9900   36.8290 H   0  0  0  0  0  0  0  0  0  0  0  0
   37.4470   24.2620   39.1660 H   0  0  0  0  0  0  0  0  0  0  0  0
   40.7780   22.1780   37.6200 H   0  0  0  0  0  0  0  0  0  0  0  0
   38.3290   25.8020   34.2960 C   0  0  0  0  0  0  0  0  0  0  0  0
   38.7210   26.2680   35.2390 H   0  0  0  0  0  0  0  0  0  0  0  0
   39.0280   26.0760   33.4950 H   0  0  0  0  0  0  0  0  0  0  0  0
   37.0360   26.2570   34.0850 O   0  0  0  0  0  0  0  0  0  0  0  0
   38.3610   27.4510   32.1630 O   0  0  0  0  0  0  0  0  0  0  0  0
   36.9500   27.2340   32.7000 P   0  0  2  0  0  0  0  0  0  0  0  0
   36.3390   28.7560   33.0310 O   0  0  0  0  0  0  0  0  0  0  0  0
   36.4940   29.0600   33.9410 H   0  0  0  0  0  0  0  0  0  0  0  0
   35.9890   26.5160   31.5310 O   0  0  0  0  0  0  0  0  0  0  0  0
   36.2190   25.1660   31.2290 C   0  0  0  0  0  0  0  0  0  0  0  0
   37.1820   24.8250   30.8340 H   0  0  0  0  0  0  0  0  0  0  0  0
   35.1690   24.5250   31.4960 O   0  0  0  0  0  0  0  0  0  0  0  0
  1  4  1  0  0  0  0
  2  1  1  0  0  0  0
  3  1  1  0  0  0  0
  4  9  2  0  0  0  0
  4  5  1  0  0  0  0
  5  6  2  0  0  0  0
  6  7  1  0  0  0  0
  6 11  1  0  0  0  0
  8 12  1  0  0  0  0
  8  7  2  0  0  0  0
  9  8  1  0  0  0  0
 10  5  1  0  0  0  0
 13  1  1  0  0  0  0
 13 14  1  0  0  0  0
 15 13  1  0  0  0  0
 16 13  1  0  0  0  0
 18 17  2  6  0  0  0
 18 19  1  0  0  0  0
 18 16  1  0  0  0  0
 19 20  1  0  0  0  0
 21 18  1  0  0  0  0
 22 24  2  0  0  0  0
 22 21  1  0  0  0  0
 23 22  1  0  0  0  0
M  END
>  <minimizedAffinity>
-3.50464892

$$$$
