
 OpenBabel03272508163D

 25 26  0  0  0  0  0  0  0  0999 V2000
   36.9760   32.1860   49.7220 Cl  0  0  0  0  0  0  0  0  0  0  0  0
   37.6630   31.7630   48.1740 C   0  0  0  0  0  0  0  0  0  0  0  0
   37.0160   30.7390   47.5620 C   0  0  0  0  0  0  0  0  0  0  0  0
   37.4900   30.3210   46.3080 C   0  0  0  0  0  0  0  0  0  0  0  0
   38.5600   30.9130   45.7130 C   0  0  0  0  0  0  0  0  0  0  0  0
   39.1910   31.9480   46.3620 C   0  0  0  0  0  0  0  0  0  0  0  0
   40.5650   32.7430   45.6400 Cl  0  0  0  0  0  0  0  0  0  0  0  0
   38.7430   32.3630   47.5770 C   0  0  0  0  0  0  0  0  0  0  0  0
   37.0480   29.5200   45.7430 H   0  0  0  0  0  0  0  0  0  0  0  0
   38.9570   30.6160   44.7400 H   0  0  0  0  0  0  0  0  0  0  0  0
   36.0010   29.0990   49.0990 C   0  0  0  0  0  0  0  0  0  0  0  0
   35.8500   29.9550   48.0060 C   0  0  0  0  0  0  0  0  0  0  0  0
   34.6010   30.0140   47.3990 C   0  0  0  0  0  0  0  0  0  0  0  0
   33.6090   29.2340   47.9110 N   0  0  0  0  0  0  0  0  0  0  0  0
   33.7930   28.4290   48.9580 C   0  0  0  0  0  0  0  0  0  0  0  0
   35.0070   28.3610   49.5600 N   0  0  0  0  0  0  0  0  0  0  0  0
   36.9890   29.0570   49.5740 H   0  0  0  0  0  0  0  0  0  0  0  0
   34.4880   30.6630   46.5710 H   0  0  0  0  0  0  0  0  0  0  0  0
   33.0210   27.8040   49.3790 H   0  0  0  0  0  0  0  0  0  0  0  0
   39.3600   33.4640   48.3420 C   0  0  0  0  0  0  0  0  0  0  0  0
   39.9770   34.4520   47.8860 O   0  0  0  0  0  0  0  0  0  0  0  0
   39.3620   33.5880   49.7380 O   0  0  0  0  0  0  0  0  0  0  0  0
   39.7880   34.6430   50.4760 C   0  0  0  0  0  0  0  0  0  0  0  0
   39.2330   35.5950   50.4350 H   0  0  0  0  0  0  0  0  0  0  0  0
   40.8140   34.4680   51.1780 O   0  0  0  0  0  0  0  0  0  0  0  0
  2  1  1  0  0  0  0
  3 12  1  0  0  0  0
  3  2  2  0  0  0  0
  4  3  1  0  0  0  0
  5  4  2  0  0  0  0
  5  6  1  0  0  0  0
  6  8  2  0  0  0  0
  7  6  1  0  0  0  0
  8  2  1  0  0  0  0
  8 20  1  0  0  0  0
  9  4  1  0  0  0  0
 10  5  1  0  0  0  0
 11 16  1  0  0  0  0
 11 17  1  0  0  0  0
 12 11  2  0  0  0  0
 13 14  2  0  0  0  0
 13 12  1  0  0  0  0
 14 15  1  0  0  0  0
 15 19  1  0  0  0  0
 15 16  2  0  0  0  0
 18 13  1  0  0  0  0
 20 22  1  0  0  0  0
 21 20  2  0  0  0  0
 22 23  1  0  0  0  0
 23 25  2  0  0  0  0
 24 23  1  0  0  0  0
M  END
>  <minimizedAffinity>
-3.96627188

>  <minimizedRMSD>
0.568649173

$$$$
