
 OpenBabel03272508093D

 18 18  0  0  0  0  0  0  0  0999 V2000
   39.8160   22.7730   37.6150 C   0  0  0  0  0  0  0  0  0  0  0  0
   39.9570   23.3910   36.3740 C   0  0  0  0  0  0  0  0  0  0  0  0
   39.0750   24.4210   36.0470 C   0  0  0  0  0  0  0  0  0  0  0  0
   38.1310   24.7600   36.9640 N   0  0  0  0  0  0  0  0  0  0  0  0
   38.0220   24.1460   38.1490 C   0  0  0  0  0  0  0  0  0  0  0  0
   38.8590   23.1620   38.4700 N   0  0  0  0  0  0  0  0  0  0  0  0
   40.5400   21.9720   37.8080 H   0  0  0  0  0  0  0  0  0  0  0  0
   40.6680   23.1740   35.6200 H   0  0  0  0  0  0  0  0  0  0  0  0
   37.2630   24.4180   38.8880 H   0  0  0  0  0  0  0  0  0  0  0  0
   39.0200   25.1610   34.9090 O   0  0  0  0  0  0  0  0  0  0  0  0
   40.7120   27.1650   34.3670 O   0  0  0  0  0  0  0  0  0  0  0  0
   39.2930   26.8070   34.7050 P   0  0  2  0  0  0  0  0  0  0  0  0
   38.8250   27.6790   36.0940 O   0  0  0  0  0  0  0  0  0  0  0  0
   37.9430   27.3540   36.4070 H   0  0  0  0  0  0  0  0  0  0  0  0
   38.3180   27.3790   33.4330 O   0  0  0  0  0  0  0  0  0  0  0  0
   36.9170   27.3490   33.5070 C   0  0  0  0  0  0  0  0  0  0  0  0
   36.2470   26.9150   32.7770 H   0  0  0  0  0  0  0  0  0  0  0  0
   36.4420   27.8990   34.5540 O   0  0  0  0  0  0  0  0  0  0  0  0
  1  7  1  0  0  0  0
  1  6  1  0  0  0  0
  2  1  2  0  0  0  0
  3  2  1  0  0  0  0
  3  4  2  0  0  0  0
  4  5  1  0  0  0  0
  5  6  2  0  0  0  0
  5  9  1  0  0  0  0
  8  2  1  0  0  0  0
 10  3  1  0  0  0  0
 12 11  2  6  0  0  0
 12 10  1  0  0  0  0
 12 13  1  0  0  0  0
 13 14  1  0  0  0  0
 15 16  1  0  0  0  0
 15 12  1  0  0  0  0
 16 18  2  0  0  0  0
 17 16  1  0  0  0  0
M  END
>  <minimizedAffinity>
-3.80608845

$$$$

 OpenBabel03272508093D

 18 18  0  0  0  0  0  0  0  0999 V2000
   37.2240   26.4180   33.6660 C   0  0  0  0  0  0  0  0  0  0  0  0
   37.7970   25.2900   34.2510 C   0  0  0  0  0  0  0  0  0  0  0  0
   38.3640   25.4220   35.5180 C   0  0  0  0  0  0  0  0  0  0  0  0
   38.3220   26.6470   36.1060 N   0  0  0  0  0  0  0  0  0  0  0  0
   37.7640   27.7120   35.5170 C   0  0  0  0  0  0  0  0  0  0  0  0
   37.2190   27.5960   34.3070 N   0  0  0  0  0  0  0  0  0  0  0  0
   36.7970   26.2460   32.6710 H   0  0  0  0  0  0  0  0  0  0  0  0
   37.8610   24.3140   33.8470 H   0  0  0  0  0  0  0  0  0  0  0  0
   37.7290   28.6980   35.9890 H   0  0  0  0  0  0  0  0  0  0  0  0
   38.9730   24.4740   36.2780 O   0  0  0  0  0  0  0  0  0  0  0  0
   37.8130   24.4310   38.6910 O   0  0  0  0  0  0  0  0  0  0  0  0
   38.3500   23.5930   37.5660 P   0  0  2  0  0  0  0  0  0  0  0  0
   39.5200   22.5210   38.1940 O   0  0  0  0  0  0  0  0  0  0  0  0
   39.9780   22.0580   37.4470 H   0  0  0  0  0  0  0  0  0  0  0  0
   37.0670   22.6240   37.0090 O   0  0  0  0  0  0  0  0  0  0  0  0
   37.1670   21.8770   35.8260 C   0  0  0  0  0  0  0  0  0  0  0  0
   37.9920   21.8950   35.1260 H   0  0  0  0  0  0  0  0  0  0  0  0
   36.1640   21.1230   35.6030 O   0  0  0  0  0  0  0  0  0  0  0  0
  1  2  2  0  0  0  0
  1  6  1  0  0  0  0
  2  3  1  0  0  0  0
  3  4  2  0  0  0  0
  3 10  1  0  0  0  0
  5  9  1  0  0  0  0
  5  4  1  0  0  0  0
  6  5  2  0  0  0  0
  7  1  1  0  0  0  0
  8  2  1  0  0  0  0
 10 12  1  0  0  0  0
 12 13  1  0  0  0  0
 12 11  2  1  0  0  0
 14 13  1  0  0  0  0
 15 12  1  0  0  0  0
 16 15  1  0  0  0  0
 17 16  1  0  0  0  0
 18 16  2  0  0  0  0
M  END
>  <minimizedAffinity>
-3.74091983

$$$$

 OpenBabel03272508093D

 18 18  0  0  0  0  0  0  0  0999 V2000
   37.9910   27.5950   35.2760 C   0  0  0  0  0  0  0  0  0  0  0  0
   38.3130   26.7340   36.3230 C   0  0  0  0  0  0  0  0  0  0  0  0
   38.2620   25.3600   36.0860 C   0  0  0  0  0  0  0  0  0  0  0  0
   37.9010   24.9460   34.8420 N   0  0  0  0  0  0  0  0  0  0  0  0
   37.5980   25.8000   33.8570 C   0  0  0  0  0  0  0  0  0  0  0  0
   37.6440   27.1130   34.0730 N   0  0  0  0  0  0  0  0  0  0  0  0
   38.0510   28.6600   35.5290 H   0  0  0  0  0  0  0  0  0  0  0  0
   38.6000   26.9930   37.3090 H   0  0  0  0  0  0  0  0  0  0  0  0
   37.3070   25.4690   32.8550 H   0  0  0  0  0  0  0  0  0  0  0  0
   38.5300   24.3410   36.9440 O   0  0  0  0  0  0  0  0  0  0  0  0
   38.8470   21.9130   35.8600 O   0  0  0  0  0  0  0  0  0  0  0  0
   39.4860   22.9800   36.7020 P   0  0  2  0  0  0  0  0  0  0  0  0
   39.9560   22.2930   38.1900 O   0  0  0  0  0  0  0  0  0  0  0  0
   40.2550   23.0100   38.8050 H   0  0  0  0  0  0  0  0  0  0  0  0
   40.9220   23.4430   35.9150 O   0  0  0  0  0  0  0  0  0  0  0  0
   42.1840   23.1540   36.4560 C   0  0  0  0  0  0  0  0  0  0  0  0
   42.9700   23.8680   36.6650 H   0  0  0  0  0  0  0  0  0  0  0  0
   42.3700   21.9170   36.7040 O   0  0  0  0  0  0  0  0  0  0  0  0
  1  7  1  0  0  0  0
  1  2  1  0  0  0  0
  2  8  1  0  0  0  0
  3  2  2  0  0  0  0
  3 10  1  0  0  0  0
  4  3  1  0  0  0  0
  5  6  1  0  0  0  0
  5  4  2  0  0  0  0
  6  1  2  0  0  0  0
  9  5  1  0  0  0  0
 12 11  2  6  0  0  0
 12 10  1  0  0  0  0
 12 13  1  0  0  0  0
 13 14  1  0  0  0  0
 15 16  1  0  0  0  0
 15 12  1  0  0  0  0
 16 17  1  0  0  0  0
 16 18  2  0  0  0  0
M  END
>  <minimizedAffinity>
-3.56173062

$$$$

 OpenBabel03272508093D

 18 18  0  0  0  0  0  0  0  0999 V2000
   36.4470   24.1640   31.6950 C   0  0  0  0  0  0  0  0  0  0  0  0
   37.2680   24.7000   32.6840 C   0  0  0  0  0  0  0  0  0  0  0  0
   37.2080   26.0740   32.9170 C   0  0  0  0  0  0  0  0  0  0  0  0
   36.3460   26.8060   32.1620 N   0  0  0  0  0  0  0  0  0  0  0  0
   35.5700   26.2600   31.2180 C   0  0  0  0  0  0  0  0  0  0  0  0
   35.6200   24.9490   30.9890 N   0  0  0  0  0  0  0  0  0  0  0  0
   36.5430   23.0790   31.5630 H   0  0  0  0  0  0  0  0  0  0  0  0
   37.9560   24.1860   33.3030 H   0  0  0  0  0  0  0  0  0  0  0  0
   34.8760   26.8480   30.6100 H   0  0  0  0  0  0  0  0  0  0  0  0
   37.9060   26.8130   33.8190 O   0  0  0  0  0  0  0  0  0  0  0  0
   37.6490   25.3630   36.0560 O   0  0  0  0  0  0  0  0  0  0  0  0
   38.5040   26.3560   35.3210 P   0  0  2  0  0  0  0  0  0  0  0  0
   38.7430   27.7180   36.3220 O   0  0  0  0  0  0  0  0  0  0  0  0
   39.1890   28.4340   35.8040 H   0  0  0  0  0  0  0  0  0  0  0  0
   40.0350   25.6420   35.1170 O   0  0  0  0  0  0  0  0  0  0  0  0
   40.1850   24.2580   34.9430 C   0  0  0  0  0  0  0  0  0  0  0  0
   39.9870   23.7020   34.0360 H   0  0  0  0  0  0  0  0  0  0  0  0
   40.5940   23.6460   35.9840 O   0  0  0  0  0  0  0  0  0  0  0  0
  1  2  1  0  0  0  0
  2  3  2  0  0  0  0
  2  8  1  0  0  0  0
  3 10  1  0  0  0  0
  4  3  1  0  0  0  0
  5  4  2  0  0  0  0
  6  5  1  0  0  0  0
  6  1  2  0  0  0  0
  7  1  1  0  0  0  0
  9  5  1  0  0  0  0
 10 12  1  0  0  0  0
 12 11  2  1  0  0  0
 12 13  1  0  0  0  0
 14 13  1  0  0  0  0
 15 12  1  0  0  0  0
 16 15  1  0  0  0  0
 16 18  2  0  0  0  0
 17 16  1  0  0  0  0
M  END
>  <minimizedAffinity>
-3.33216286

$$$$

 OpenBabel03272508093D

 18 18  0  0  0  0  0  0  0  0999 V2000
   36.1660   23.6650   31.6240 C   0  0  0  0  0  0  0  0  0  0  0  0
   37.2370   24.0160   32.4430 C   0  0  0  0  0  0  0  0  0  0  0  0
   37.7190   23.0640   33.3400 C   0  0  0  0  0  0  0  0  0  0  0  0
   37.1130   21.8480   33.3590 N   0  0  0  0  0  0  0  0  0  0  0  0
   36.0840   21.5410   32.5590 C   0  0  0  0  0  0  0  0  0  0  0  0
   35.6160   22.4430   31.6980 N   0  0  0  0  0  0  0  0  0  0  0  0
   35.8360   24.4580   30.9420 H   0  0  0  0  0  0  0  0  0  0  0  0
   37.7500   24.9420   32.4750 H   0  0  0  0  0  0  0  0  0  0  0  0
   35.5950   20.5630   32.5730 H   0  0  0  0  0  0  0  0  0  0  0  0
   38.7420   23.1780   34.2280 O   0  0  0  0  0  0  0  0  0  0  0  0
   40.0260   21.9480   36.2300 O   0  0  0  0  0  0  0  0  0  0  0  0
   38.7950   22.7170   35.8430 P   0  0  2  0  0  0  0  0  0  0  0  0
   37.4210   21.7950   36.2600 O   0  0  0  0  0  0  0  0  0  0  0  0
   36.6100   22.2260   35.8900 H   0  0  0  0  0  0  0  0  0  0  0  0
   38.7490   24.1090   36.8210 O   0  0  0  0  0  0  0  0  0  0  0  0
   37.9470   24.1750   37.9710 C   0  0  0  0  0  0  0  0  0  0  0  0
   37.2240   24.9460   38.2020 H   0  0  0  0  0  0  0  0  0  0  0  0
   38.1310   23.2130   38.7860 O   0  0  0  0  0  0  0  0  0  0  0  0
  1  6  2  0  0  0  0
  1  2  1  0  0  0  0
  2  8  1  0  0  0  0
  2  3  2  0  0  0  0
  3  4  1  0  0  0  0
  3 10  1  0  0  0  0
  5  9  1  0  0  0  0
  5  4  2  0  0  0  0
  6  5  1  0  0  0  0
  7  1  1  0  0  0  0
 10 12  1  0  0  0  0
 12 11  2  1  0  0  0
 12 13  1  0  0  0  0
 12 15  1  0  0  0  0
 14 13  1  0  0  0  0
 15 16  1  0  0  0  0
 16 17  1  0  0  0  0
 16 18  2  0  0  0  0
M  END
>  <minimizedAffinity>
-3.28796387

$$$$

 OpenBabel03272508093D

 18 18  0  0  0  0  0  0  0  0999 V2000
   35.6370   24.0680   31.1430 C   0  0  0  0  0  0  0  0  0  0  0  0
   36.6580   24.0150   32.0890 C   0  0  0  0  0  0  0  0  0  0  0  0
   37.1270   25.2170   32.6200 C   0  0  0  0  0  0  0  0  0  0  0  0
   36.5550   26.3690   32.1800 N   0  0  0  0  0  0  0  0  0  0  0  0
   35.5750   26.3850   31.2680 C   0  0  0  0  0  0  0  0  0  0  0  0
   35.1200   25.2440   30.7550 N   0  0  0  0  0  0  0  0  0  0  0  0
   35.3150   23.0890   30.7670 H   0  0  0  0  0  0  0  0  0  0  0  0
   37.1420   23.1540   32.4720 H   0  0  0  0  0  0  0  0  0  0  0  0
   35.1130   27.3110   30.9120 H   0  0  0  0  0  0  0  0  0  0  0  0
   38.1030   25.4120   33.5450 O   0  0  0  0  0  0  0  0  0  0  0  0
   37.8050   25.3570   36.2050 O   0  0  0  0  0  0  0  0  0  0  0  0
   38.0240   26.2360   35.0070 P   0  0  2  0  0  0  0  0  0  0  0  0
   36.8020   27.4250   34.9710 O   0  0  0  0  0  0  0  0  0  0  0  0
   36.8530   27.9260   34.1180 H   0  0  0  0  0  0  0  0  0  0  0  0
   39.4890   27.0660   35.2580 O   0  0  0  0  0  0  0  0  0  0  0  0
   40.6850   26.6480   34.6550 C   0  0  0  0  0  0  0  0  0  0  0  0
   41.2910   25.8030   34.9540 H   0  0  0  0  0  0  0  0  0  0  0  0
   41.0460   27.3690   33.6680 O   0  0  0  0  0  0  0  0  0  0  0  0
  1  2  1  0  0  0  0
  2  8  1  0  0  0  0
  2  3  2  0  0  0  0
  3 10  1  0  0  0  0
  4  3  1  0  0  0  0
  5  4  2  0  0  0  0
  6  1  2  0  0  0  0
  6  5  1  0  0  0  0
  7  1  1  0  0  0  0
  9  5  1  0  0  0  0
 10 12  1  0  0  0  0
 12 15  1  0  0  0  0
 12 11  2  1  0  0  0
 13 12  1  0  0  0  0
 14 13  1  0  0  0  0
 16 17  1  0  0  0  0
 16 15  1  0  0  0  0
 18 16  2  0  0  0  0
M  END
>  <minimizedAffinity>
-3.22676086

$$$$

 OpenBabel03272508093D

 18 18  0  0  0  0  0  0  0  0999 V2000
   39.6550   22.9820   37.9980 C   0  0  0  0  0  0  0  0  0  0  0  0
   39.9000   22.3120   36.8020 C   0  0  0  0  0  0  0  0  0  0  0  0
   38.9420   22.3940   35.7920 C   0  0  0  0  0  0  0  0  0  0  0  0
   37.8240   23.1270   36.0390 N   0  0  0  0  0  0  0  0  0  0  0  0
   37.6170   23.7590   37.2010 C   0  0  0  0  0  0  0  0  0  0  0  0
   38.5260   23.6870   38.1710 N   0  0  0  0  0  0  0  0  0  0  0  0
   40.4470   22.8770   38.7490 H   0  0  0  0  0  0  0  0  0  0  0  0
   40.7470   21.7290   36.5490 H   0  0  0  0  0  0  0  0  0  0  0  0
   36.7180   24.3490   37.4010 H   0  0  0  0  0  0  0  0  0  0  0  0
   38.9630   21.8310   34.5550 O   0  0  0  0  0  0  0  0  0  0  0  0
   38.1890   21.2110   32.0680 O   0  0  0  0  0  0  0  0  0  0  0  0
   37.7930   21.8850   33.3500 P   0  0  2  0  0  0  0  0  0  0  0  0
   37.3460   23.4950   33.0050 O   0  0  0  0  0  0  0  0  0  0  0  0
   37.2120   23.9900   33.8530 H   0  0  0  0  0  0  0  0  0  0  0  0
   36.3850   21.1090   33.9070 O   0  0  0  0  0  0  0  0  0  0  0  0
   35.5280   20.4220   33.0340 C   0  0  0  0  0  0  0  0  0  0  0  0
   34.9300   20.8620   32.2460 H   0  0  0  0  0  0  0  0  0  0  0  0
   35.4860   19.1640   33.2340 O   0  0  0  0  0  0  0  0  0  0  0  0
  1  6  1  0  0  0  0
  1  7  1  0  0  0  0
  2  1  2  0  0  0  0
  3  4  2  0  0  0  0
  3  2  1  0  0  0  0
  4  5  1  0  0  0  0
  5  9  1  0  0  0  0
  5  6  2  0  0  0  0
  8  2  1  0  0  0  0
 10  3  1  0  0  0  0
 12 11  2  6  0  0  0
 12 15  1  0  0  0  0
 12 10  1  0  0  0  0
 13 12  1  0  0  0  0
 13 14  1  0  0  0  0
 16 18  2  0  0  0  0
 16 15  1  0  0  0  0
 17 16  1  0  0  0  0
M  END
>  <minimizedAffinity>
-3.22317457

$$$$

 OpenBabel03272508093D

 18 18  0  0  0  0  0  0  0  0999 V2000
   37.7590   27.6000   35.3040 C   0  0  0  0  0  0  0  0  0  0  0  0
   38.8360   26.8350   35.7470 C   0  0  0  0  0  0  0  0  0  0  0  0
   39.0770   25.6120   35.1210 C   0  0  0  0  0  0  0  0  0  0  0  0
   38.2430   25.2420   34.1130 N   0  0  0  0  0  0  0  0  0  0  0  0
   37.2150   26.0000   33.7120 C   0  0  0  0  0  0  0  0  0  0  0  0
   36.9770   27.1690   34.3030 N   0  0  0  0  0  0  0  0  0  0  0  0
   37.6260   28.5480   35.8380 H   0  0  0  0  0  0  0  0  0  0  0  0
   39.5190   27.0670   36.5220 H   0  0  0  0  0  0  0  0  0  0  0  0
   36.5430   25.7040   32.9010 H   0  0  0  0  0  0  0  0  0  0  0  0
   40.0570   24.7060   35.3780 O   0  0  0  0  0  0  0  0  0  0  0  0
   41.1260   22.2630   35.6230 O   0  0  0  0  0  0  0  0  0  0  0  0
   39.9130   23.1100   35.8840 P   0  0  2  0  0  0  0  0  0  0  0  0
   38.5600   22.3610   35.1640 O   0  0  0  0  0  0  0  0  0  0  0  0
   37.7810   22.9720   35.2110 H   0  0  0  0  0  0  0  0  0  0  0  0
   39.6370   23.0810   37.5630 O   0  0  0  0  0  0  0  0  0  0  0  0
   38.5080   23.6880   38.1340 C   0  0  0  0  0  0  0  0  0  0  0  0
   38.4990   24.3310   39.0040 H   0  0  0  0  0  0  0  0  0  0  0  0
   37.4170   23.4220   37.5320 O   0  0  0  0  0  0  0  0  0  0  0  0
  1  2  1  0  0  0  0
  1  7  1  0  0  0  0
  2  8  1  0  0  0  0
  3 10  1  0  0  0  0
  3  2  2  0  0  0  0
  4  3  1  0  0  0  0
  5  4  2  0  0  0  0
  5  6  1  0  0  0  0
  6  1  2  0  0  0  0
  9  5  1  0  0  0  0
 10 12  1  0  0  0  0
 12 11  2  6  0  0  0
 12 15  1  0  0  0  0
 13 14  1  0  0  0  0
 13 12  1  0  0  0  0
 15 16  1  0  0  0  0
 16 17  1  0  0  0  0
 18 16  2  0  0  0  0
M  END
>  <minimizedAffinity>
-3.21183562

$$$$

 OpenBabel03272508093D

 18 18  0  0  0  0  0  0  0  0999 V2000
   34.7410   30.7980   34.8080 C   0  0  0  0  0  0  0  0  0  0  0  0
   35.5020   30.5330   33.6720 C   0  0  0  0  0  0  0  0  0  0  0  0
   34.9390   29.7390   32.6730 C   0  0  0  0  0  0  0  0  0  0  0  0
   33.6780   29.2720   32.8710 N   0  0  0  0  0  0  0  0  0  0  0  0
   32.9730   29.5450   33.9760 C   0  0  0  0  0  0  0  0  0  0  0  0
   33.5010   30.3020   34.9350 N   0  0  0  0  0  0  0  0  0  0  0  0
   35.2410   31.4280   35.5540 H   0  0  0  0  0  0  0  0  0  0  0  0
   36.4840   30.8660   33.4590 H   0  0  0  0  0  0  0  0  0  0  0  0
   31.9580   29.1690   34.1370 H   0  0  0  0  0  0  0  0  0  0  0  0
   35.4840   29.3520   31.4900 O   0  0  0  0  0  0  0  0  0  0  0  0
   37.6880   27.8680   31.8230 O   0  0  0  0  0  0  0  0  0  0  0  0
   36.3570   27.9600   31.1340 P   0  0  2  0  0  0  0  0  0  0  0  0
   36.5990   27.8060   29.4520 O   0  0  0  0  0  0  0  0  0  0  0  0
   35.7520   27.9980   28.9770 H   0  0  0  0  0  0  0  0  0  0  0  0
   35.4530   26.5990   31.6120 O   0  0  0  0  0  0  0  0  0  0  0  0
   35.4540   25.4140   30.8610 C   0  0  0  0  0  0  0  0  0  0  0  0
   35.6000   25.3340   29.7920 H   0  0  0  0  0  0  0  0  0  0  0  0
   35.2580   24.3620   31.5540 O   0  0  0  0  0  0  0  0  0  0  0  0
  1  6  1  0  0  0  0
  1  7  1  0  0  0  0
  2  1  2  0  0  0  0
  3  4  2  0  0  0  0
  3  2  1  0  0  0  0
  4  5  1  0  0  0  0
  5  9  1  0  0  0  0
  5  6  2  0  0  0  0
  8  2  1  0  0  0  0
 10  3  1  0  0  0  0
 12 10  1  0  0  0  0
 12 15  1  0  0  0  0
 12 11  2  1  0  0  0
 13 12  1  0  0  0  0
 14 13  1  0  0  0  0
 16 18  2  0  0  0  0
 16 15  1  0  0  0  0
 17 16  1  0  0  0  0
M  END
>  <minimizedAffinity>
-3.19478631

$$$$
