
 OpenBabel03272504583D

 27 28  0  0  1  0  0  0  0  0999 V2000
   38.4960   26.5880   34.4840 C   0  0  1  0  0  0  0  0  0  0  0  0
   38.5290   26.7590   35.9190 C   0  0  0  0  0  0  0  0  0  0  0  0
   38.1040   25.4610   35.3260 C   0  0  2  0  0  0  0  0  0  0  0  0
   39.4410   26.3980   33.8620 H   0  0  0  0  0  0  0  0  0  0  0  0
   39.4910   27.1560   36.1640 H   0  0  0  0  0  0  0  0  0  0  0  0
   37.7150   27.3820   36.3490 H   0  0  0  0  0  0  0  0  0  0  0  0
   37.1300   25.1810   35.6790 H   0  0  0  0  0  0  0  0  0  0  0  0
   37.4180   27.2310   33.6590 C   0  0  0  0  0  0  0  0  0  0  0  0
   36.6090   28.1750   34.3360 C   0  0  0  0  0  0  0  0  0  0  0  0
   35.6270   28.7430   33.5530 C   0  0  0  0  0  0  0  0  0  0  0  0
   35.4900   28.3950   32.2540 N   0  0  0  0  0  0  0  0  0  0  0  0
   36.2930   27.4800   31.6410 C   0  0  0  0  0  0  0  0  0  0  0  0
   37.2840   26.8900   32.3860 N   0  0  0  0  0  0  0  0  0  0  0  0
   36.1650   27.1160   30.2950 N   0  0  0  0  0  0  0  0  0  0  0  0
   36.7090   28.4560   35.3540 H   0  0  0  0  0  0  0  0  0  0  0  0
   34.9770   29.4720   34.0140 H   0  0  0  0  0  0  0  0  0  0  0  0
   37.0120   27.3570   29.7200 H   0  0  0  0  0  0  0  0  0  0  0  0
   35.2960   26.6530   29.9420 H   0  0  0  0  0  0  0  0  0  0  0  0
   39.0450   24.4250   35.4120 O   0  0  0  0  0  0  0  0  0  0  0  0
   37.7030   22.3340   34.7360 O   0  0  0  0  0  0  0  0  0  0  0  0
   38.3280   23.0140   35.9160 P   0  0  1  0  0  0  0  0  0  0  0  0
   39.5390   21.9270   36.5070 O   0  0  0  0  0  0  0  0  0  0  0  0
   40.0630   21.6960   35.6780 H   0  0  0  0  0  0  0  0  0  0  0  0
   37.2260   23.3530   37.1530 O   0  0  0  0  0  0  0  0  0  0  0  0
   37.7320   23.3940   38.4680 C   0  0  0  0  0  0  0  0  0  0  0  0
   37.0010   23.2400   39.2790 H   0  0  0  0  0  0  0  0  0  0  0  0
   38.9190   23.5860   38.8700 O   0  0  0  0  0  0  0  0  0  0  0  0
  1  4  1  6  0  0  0
  1  3  1  0  0  0  0
  1  2  1  0  0  0  0
  2  5  1  0  0  0  0
  2  6  1  0  0  0  0
  3 19  1  0  0  0  0
  3  7  1  1  0  0  0
  3  2  1  0  0  0  0
  8  9  1  0  0  0  0
  8  1  1  0  0  0  0
  9 15  1  0  0  0  0
 10 16  1  0  0  0  0
 10  9  2  0  0  0  0
 11 10  1  0  0  0  0
 12 11  2  0  0  0  0
 12 13  1  0  0  0  0
 13  8  2  0  0  0  0
 14 12  1  0  0  0  0
 17 14  1  0  0  0  0
 18 14  1  0  0  0  0
 19 21  1  0  0  0  0
 21 20  2  6  0  0  0
 21 22  1  0  0  0  0
 21 24  1  0  0  0  0
 23 22  1  0  0  0  0
 24 25  1  0  0  0  0
 25 27  2  0  0  0  0
 25 26  1  0  0  0  0
M  END
>  <minimizedAffinity>
-4.63035488

$$$$

 OpenBabel03272504583D

 27 28  0  0  1  0  0  0  0  0999 V2000
   37.7680   26.2090   35.6740 C   0  0  1  0  0  0  0  0  0  0  0  0
   38.4170   27.5010   35.6700 C   0  0  0  0  0  0  0  0  0  0  0  0
   38.1550   26.7860   34.3890 C   0  0  2  0  0  0  0  0  0  0  0  0
   36.6360   26.0870   35.8070 H   0  0  0  0  0  0  0  0  0  0  0  0
   37.8160   28.1550   36.2630 H   0  0  0  0  0  0  0  0  0  0  0  0
   39.4760   27.5090   36.0080 H   0  0  0  0  0  0  0  0  0  0  0  0
   39.0620   26.6580   33.8310 H   0  0  0  0  0  0  0  0  0  0  0  0
   38.5070   24.9800   36.1210 C   0  0  0  0  0  0  0  0  0  0  0  0
   39.5370   24.5370   35.2570 C   0  0  0  0  0  0  0  0  0  0  0  0
   40.1920   23.4050   35.6920 C   0  0  0  0  0  0  0  0  0  0  0  0
   39.8430   22.8060   36.8530 N   0  0  0  0  0  0  0  0  0  0  0  0
   38.8440   23.2680   37.6550 C   0  0  0  0  0  0  0  0  0  0  0  0
   38.1650   24.3940   37.2580 N   0  0  0  0  0  0  0  0  0  0  0  0
   38.4780   22.6600   38.8630 N   0  0  0  0  0  0  0  0  0  0  0  0
   39.8190   24.9990   34.3440 H   0  0  0  0  0  0  0  0  0  0  0  0
   40.9900   23.0180   35.0740 H   0  0  0  0  0  0  0  0  0  0  0  0
   38.6240   23.2820   39.6980 H   0  0  0  0  0  0  0  0  0  0  0  0
   38.1010   21.6850   38.8840 H   0  0  0  0  0  0  0  0  0  0  0  0
   37.0980   27.2970   33.6230 O   0  0  0  0  0  0  0  0  0  0  0  0
   37.9870   27.5050   31.2150 O   0  0  0  0  0  0  0  0  0  0  0  0
   37.1150   26.6560   32.0910 P   0  0  1  0  0  0  0  0  0  0  0  0
   37.8550   25.0910   32.1250 O   0  0  0  0  0  0  0  0  0  0  0  0
   38.8140   25.2960   32.3570 H   0  0  0  0  0  0  0  0  0  0  0  0
   35.5300   26.5160   31.5200 O   0  0  0  0  0  0  0  0  0  0  0  0
   35.1470   25.2650   30.9940 C   0  0  0  0  0  0  0  0  0  0  0  0
   34.7900   25.2620   29.9510 H   0  0  0  0  0  0  0  0  0  0  0  0
   35.1490   24.1230   31.5450 O   0  0  0  0  0  0  0  0  0  0  0  0
  1  4  1  1  0  0  0
  1  8  1  0  0  0  0
  2  1  1  0  0  0  0
  2  6  1  0  0  0  0
  2  5  1  0  0  0  0
  3  7  1  6  0  0  0
  3  2  1  0  0  0  0
  3  1  1  0  0  0  0
  8 13  1  0  0  0  0
  9 10  1  0  0  0  0
  9  8  2  0  0  0  0
 10 11  2  0  0  0  0
 11 12  1  0  0  0  0
 12 14  1  0  0  0  0
 13 12  2  0  0  0  0
 14 18  1  0  0  0  0
 14 17  1  0  0  0  0
 15  9  1  0  0  0  0
 16 10  1  0  0  0  0
 19  3  1  0  0  0  0
 21 20  2  6  0  0  0
 21 22  1  0  0  0  0
 21 19  1  0  0  0  0
 22 23  1  0  0  0  0
 24 21  1  0  0  0  0
 25 24  1  0  0  0  0
 25 27  2  0  0  0  0
 26 25  1  0  0  0  0
M  END
>  <minimizedAffinity>
-4.57222891

$$$$

 OpenBabel03272504583D

 27 28  0  0  1  0  0  0  0  0999 V2000
   38.5180   26.6380   34.8030 C   0  0  1  0  0  0  0  0  0  0  0  0
   38.5740   26.9620   36.2100 C   0  0  0  0  0  0  0  0  0  0  0  0
   38.1590   25.6010   35.7680 C   0  0  2  0  0  0  0  0  0  0  0  0
   39.4540   26.3950   34.1870 H   0  0  0  0  0  0  0  0  0  0  0  0
   39.5330   27.3960   36.3930 H   0  0  0  0  0  0  0  0  0  0  0  0
   37.7570   27.6150   36.5870 H   0  0  0  0  0  0  0  0  0  0  0  0
   37.1960   25.3480   36.1670 H   0  0  0  0  0  0  0  0  0  0  0  0
   37.4150   27.1740   33.9340 C   0  0  0  0  0  0  0  0  0  0  0  0
   37.2590   26.5370   32.6800 C   0  0  0  0  0  0  0  0  0  0  0  0
   36.2430   27.0540   31.9060 C   0  0  0  0  0  0  0  0  0  0  0  0
   35.4880   28.0830   32.3520 N   0  0  0  0  0  0  0  0  0  0  0  0
   35.6730   28.6670   33.5690 C   0  0  0  0  0  0  0  0  0  0  0  0
   36.6760   28.1810   34.3720 N   0  0  0  0  0  0  0  0  0  0  0  0
   34.8930   29.7290   34.0450 N   0  0  0  0  0  0  0  0  0  0  0  0
   37.8460   25.7290   32.3210 H   0  0  0  0  0  0  0  0  0  0  0  0
   36.0750   26.6090   30.9360 H   0  0  0  0  0  0  0  0  0  0  0  0
   34.3500   29.4850   34.9110 H   0  0  0  0  0  0  0  0  0  0  0  0
   34.8840   30.6530   33.5560 H   0  0  0  0  0  0  0  0  0  0  0  0
   39.1180   24.5940   35.9450 O   0  0  0  0  0  0  0  0  0  0  0  0
   37.4210   24.0100   37.7920 O   0  0  0  0  0  0  0  0  0  0  0  0
   38.5820   23.4520   37.0260 P   0  0  1  0  0  0  0  0  0  0  0  0
   37.9690   22.0810   36.1640 O   0  0  0  0  0  0  0  0  0  0  0  0
   37.1470   22.4460   35.7080 H   0  0  0  0  0  0  0  0  0  0  0  0
   39.8650   22.9660   38.0150 O   0  0  0  0  0  0  0  0  0  0  0  0
   40.7850   22.0500   37.4660 C   0  0  0  0  0  0  0  0  0  0  0  0
   41.4470   21.5340   38.1800 H   0  0  0  0  0  0  0  0  0  0  0  0
   40.9740   21.7240   36.2550 O   0  0  0  0  0  0  0  0  0  0  0  0
  1  4  1  6  0  0  0
  1  3  1  0  0  0  0
  1  2  1  0  0  0  0
  2  5  1  0  0  0  0
  2  6  1  0  0  0  0
  3 19  1  0  0  0  0
  3  7  1  1  0  0  0
  3  2  1  0  0  0  0
  8 13  1  0  0  0  0
  8  1  1  0  0  0  0
  9  8  2  0  0  0  0
 10 11  2  0  0  0  0
 10  9  1  0  0  0  0
 11 12  1  0  0  0  0
 12 14  1  0  0  0  0
 12 13  2  0  0  0  0
 14 17  1  0  0  0  0
 15  9  1  0  0  0  0
 16 10  1  0  0  0  0
 18 14  1  0  0  0  0
 19 21  1  0  0  0  0
 21 20  2  1  0  0  0
 21 24  1  0  0  0  0
 22 21  1  0  0  0  0
 23 22  1  0  0  0  0
 25 24  1  0  0  0  0
 25 26  1  0  0  0  0
 27 25  2  0  0  0  0
M  END
>  <minimizedAffinity>
-4.33740187

$$$$

 OpenBabel03272504583D

 27 28  0  0  1  0  0  0  0  0999 V2000
   38.4130   24.9910   33.8230 C   0  0  1  0  0  0  0  0  0  0  0  0
   38.1280   26.1710   34.6090 C   0  0  0  0  0  0  0  0  0  0  0  0
   38.0900   24.8200   35.2370 C   0  0  2  0  0  0  0  0  0  0  0  0
   39.4800   24.6750   33.5490 H   0  0  0  0  0  0  0  0  0  0  0  0
   38.9260   26.8600   34.4380 H   0  0  0  0  0  0  0  0  0  0  0  0
   37.1390   26.6440   34.4250 H   0  0  0  0  0  0  0  0  0  0  0  0
   37.1390   24.6420   35.7010 H   0  0  0  0  0  0  0  0  0  0  0  0
   37.4150   24.4720   32.8270 C   0  0  0  0  0  0  0  0  0  0  0  0
   37.2820   23.0640   32.7700 C   0  0  0  0  0  0  0  0  0  0  0  0
   36.3640   22.6200   31.8440 C   0  0  0  0  0  0  0  0  0  0  0  0
   35.6730   23.4950   31.0790 N   0  0  0  0  0  0  0  0  0  0  0  0
   35.8320   24.8450   31.1670 C   0  0  0  0  0  0  0  0  0  0  0  0
   36.7390   25.3300   32.0780 N   0  0  0  0  0  0  0  0  0  0  0  0
   35.1180   25.7620   30.3850 N   0  0  0  0  0  0  0  0  0  0  0  0
   37.8190   22.3690   33.3660 H   0  0  0  0  0  0  0  0  0  0  0  0
   36.2170   21.5530   31.7540 H   0  0  0  0  0  0  0  0  0  0  0  0
   34.5040   26.3980   30.9540 H   0  0  0  0  0  0  0  0  0  0  0  0
   35.2180   25.7760   29.3450 H   0  0  0  0  0  0  0  0  0  0  0  0
   39.1790   24.5130   36.0650 O   0  0  0  0  0  0  0  0  0  0  0  0
   37.6370   23.6180   37.9230 O   0  0  0  0  0  0  0  0  0  0  0  0
   38.8140   23.2450   37.0740 P   0  0  1  0  0  0  0  0  0  0  0  0
   38.3100   21.8820   36.1330 O   0  0  0  0  0  0  0  0  0  0  0  0
   37.4350   22.1880   35.7370 H   0  0  0  0  0  0  0  0  0  0  0  0
   40.1840   22.8300   37.9750 O   0  0  0  0  0  0  0  0  0  0  0  0
   40.9980   21.8000   37.4630 C   0  0  0  0  0  0  0  0  0  0  0  0
   41.3840   21.0720   38.1960 H   0  0  0  0  0  0  0  0  0  0  0  0
   41.3640   21.5780   36.2700 O   0  0  0  0  0  0  0  0  0  0  0  0
  1  4  1  6  0  0  0
  1  2  1  0  0  0  0
  1  3  1  0  0  0  0
  2  3  1  0  0  0  0
  3  7  1  1  0  0  0
  3 19  1  0  0  0  0
  5  2  1  0  0  0  0
  6  2  1  0  0  0  0
  8  1  1  0  0  0  0
  9  8  1  0  0  0  0
  9 15  1  0  0  0  0
 10  9  2  0  0  0  0
 11 12  2  0  0  0  0
 11 10  1  0  0  0  0
 12 13  1  0  0  0  0
 13  8  2  0  0  0  0
 14 17  1  0  0  0  0
 14 12  1  0  0  0  0
 16 10  1  0  0  0  0
 18 14  1  0  0  0  0
 19 21  1  0  0  0  0
 21 20  2  1  0  0  0
 21 24  1  0  0  0  0
 22 21  1  0  0  0  0
 23 22  1  0  0  0  0
 25 24  1  0  0  0  0
 25 26  1  0  0  0  0
 27 25  2  0  0  0  0
M  END
>  <minimizedAffinity>
-4.32616186

$$$$

 OpenBabel03272504583D

 27 28  0  0  1  0  0  0  0  0999 V2000
   37.6960   26.1790   35.5590 C   0  0  1  0  0  0  0  0  0  0  0  0
   38.2410   27.5120   35.6910 C   0  0  0  0  0  0  0  0  0  0  0  0
   38.1610   26.8610   34.3530 C   0  0  2  0  0  0  0  0  0  0  0  0
   36.5690   25.9690   35.5680 H   0  0  0  0  0  0  0  0  0  0  0  0
   37.5360   28.0830   36.2550 H   0  0  0  0  0  0  0  0  0  0  0  0
   39.2580   27.5740   36.1360 H   0  0  0  0  0  0  0  0  0  0  0  0
   39.1250   26.8330   33.8850 H   0  0  0  0  0  0  0  0  0  0  0  0
   38.4810   24.9800   36.0100 C   0  0  0  0  0  0  0  0  0  0  0  0
   39.4950   24.5430   35.1250 C   0  0  0  0  0  0  0  0  0  0  0  0
   40.1920   23.4390   35.5660 C   0  0  0  0  0  0  0  0  0  0  0  0
   39.8950   22.8600   36.7510 N   0  0  0  0  0  0  0  0  0  0  0  0
   38.9090   23.3150   37.5730 C   0  0  0  0  0  0  0  0  0  0  0  0
   38.1890   24.4140   37.1710 N   0  0  0  0  0  0  0  0  0  0  0  0
   38.5950   22.7280   38.8050 N   0  0  0  0  0  0  0  0  0  0  0  0
   39.7360   24.9900   34.1940 H   0  0  0  0  0  0  0  0  0  0  0  0
   40.9800   23.0580   34.9330 H   0  0  0  0  0  0  0  0  0  0  0  0
   38.7510   23.3730   39.6210 H   0  0  0  0  0  0  0  0  0  0  0  0
   38.2450   21.7440   38.8610 H   0  0  0  0  0  0  0  0  0  0  0  0
   37.1480   27.3420   33.5120 O   0  0  0  0  0  0  0  0  0  0  0  0
   37.8420   25.3760   32.0010 O   0  0  0  0  0  0  0  0  0  0  0  0
   37.3600   26.7950   31.9580 P   0  0  1  0  0  0  0  0  0  0  0  0
   35.8330   26.7540   31.1440 O   0  0  0  0  0  0  0  0  0  0  0  0
   35.3320   26.0290   31.6320 H   0  0  0  0  0  0  0  0  0  0  0  0
   38.4100   27.8330   31.1330 O   0  0  0  0  0  0  0  0  0  0  0  0
   37.8240   28.7860   30.2760 C   0  0  0  0  0  0  0  0  0  0  0  0
   38.0110   29.8450   30.5210 H   0  0  0  0  0  0  0  0  0  0  0  0
   37.1000   28.6120   29.2500 O   0  0  0  0  0  0  0  0  0  0  0  0
  1  4  1  1  0  0  0
  1  2  1  0  0  0  0
  1  8  1  0  0  0  0
  2  6  1  0  0  0  0
  2  5  1  0  0  0  0
  3  7  1  6  0  0  0
  3  1  1  0  0  0  0
  3  2  1  0  0  0  0
  8 13  1  0  0  0  0
  9 10  1  0  0  0  0
  9  8  2  0  0  0  0
 10 11  2  0  0  0  0
 11 12  1  0  0  0  0
 12 14  1  0  0  0  0
 13 12  2  0  0  0  0
 14 18  1  0  0  0  0
 14 17  1  0  0  0  0
 15  9  1  0  0  0  0
 16 10  1  0  0  0  0
 19  3  1  0  0  0  0
 21 20  2  1  0  0  0
 21 19  1  0  0  0  0
 22 23  1  0  0  0  0
 22 21  1  0  0  0  0
 24 21  1  0  0  0  0
 25 26  1  0  0  0  0
 25 24  1  0  0  0  0
 27 25  2  0  0  0  0
M  END
>  <minimizedAffinity>
-4.32036734

$$$$

 OpenBabel03272504583D

 27 28  0  0  1  0  0  0  0  0999 V2000
   38.5760   26.7690   34.2660 C   0  0  1  0  0  0  0  0  0  0  0  0
   39.8190   27.0580   33.5870 C   0  0  0  0  0  0  0  0  0  0  0  0
   38.6060   26.6830   32.8080 C   0  0  2  0  0  0  0  0  0  0  0  0
   37.8860   27.5920   34.6680 H   0  0  0  0  0  0  0  0  0  0  0  0
   40.1690   27.9960   33.9620 H   0  0  0  0  0  0  0  0  0  0  0  0
   40.6030   26.2750   33.6640 H   0  0  0  0  0  0  0  0  0  0  0  0
   38.8030   25.8350   32.1810 H   0  0  0  0  0  0  0  0  0  0  0  0
   38.3950   25.4840   35.0230 C   0  0  0  0  0  0  0  0  0  0  0  0
   38.1360   25.6200   36.4070 C   0  0  0  0  0  0  0  0  0  0  0  0
   37.9800   24.4240   37.0730 C   0  0  0  0  0  0  0  0  0  0  0  0
   38.0740   23.2470   36.4140 N   0  0  0  0  0  0  0  0  0  0  0  0
   38.3250   23.1620   35.0780 C   0  0  0  0  0  0  0  0  0  0  0  0
   38.4880   24.3320   34.3770 N   0  0  0  0  0  0  0  0  0  0  0  0
   38.4190   21.9500   34.3830 N   0  0  0  0  0  0  0  0  0  0  0  0
   38.0590   26.5380   36.9340 H   0  0  0  0  0  0  0  0  0  0  0  0
   37.7790   24.4620   38.1340 H   0  0  0  0  0  0  0  0  0  0  0  0
   37.6790   21.8400   33.6440 H   0  0  0  0  0  0  0  0  0  0  0  0
   39.1660   21.2550   34.6100 H   0  0  0  0  0  0  0  0  0  0  0  0
   37.9750   27.7380   32.1350 O   0  0  0  0  0  0  0  0  0  0  0  0
   35.4430   28.2060   32.1620 O   0  0  0  0  0  0  0  0  0  0  0  0
   36.4740   27.2790   31.5920 P   0  0  1  0  0  0  0  0  0  0  0  0
   36.3930   27.4760   29.8740 O   0  0  0  0  0  0  0  0  0  0  0  0
   36.4430   28.4760   29.7550 H   0  0  0  0  0  0  0  0  0  0  0  0
   36.2030   25.6570   31.9850 O   0  0  0  0  0  0  0  0  0  0  0  0
   35.4050   24.9080   31.0970 C   0  0  0  0  0  0  0  0  0  0  0  0
   35.6850   23.8500   30.9610 H   0  0  0  0  0  0  0  0  0  0  0  0
   34.3970   25.2690   30.4180 O   0  0  0  0  0  0  0  0  0  0  0  0
  1  4  1  1  0  0  0
  1  8  1  0  0  0  0
  2  6  1  0  0  0  0
  2  5  1  0  0  0  0
  2  1  1  0  0  0  0
  3  7  1  6  0  0  0
  3  2  1  0  0  0  0
  3  1  1  0  0  0  0
  8  9  1  0  0  0  0
  9 15  1  0  0  0  0
  9 10  2  0  0  0  0
 10 16  1  0  0  0  0
 11 10  1  0  0  0  0
 12 11  2  0  0  0  0
 13  8  2  0  0  0  0
 13 12  1  0  0  0  0
 14 18  1  0  0  0  0
 14 12  1  0  0  0  0
 17 14  1  0  0  0  0
 19  3  1  0  0  0  0
 21 24  1  0  0  0  0
 21 19  1  0  0  0  0
 21 20  2  1  0  0  0
 22 21  1  0  0  0  0
 23 22  1  0  0  0  0
 25 24  1  0  0  0  0
 26 25  1  0  0  0  0
 27 25  2  0  0  0  0
M  END
>  <minimizedAffinity>
-4.26677036

$$$$

 OpenBabel03272504583D

 27 28  0  0  1  0  0  0  0  0999 V2000
   38.3630   26.4810   34.6520 C   0  0  1  0  0  0  0  0  0  0  0  0
   38.2710   26.9950   36.0000 C   0  0  0  0  0  0  0  0  0  0  0  0
   37.9210   25.5760   35.7100 C   0  0  2  0  0  0  0  0  0  0  0  0
   39.3600   26.1820   34.1710 H   0  0  0  0  0  0  0  0  0  0  0  0
   39.2020   27.4750   36.2150 H   0  0  0  0  0  0  0  0  0  0  0  0
   37.4130   27.6710   36.2010 H   0  0  0  0  0  0  0  0  0  0  0  0
   36.9260   25.3530   36.0440 H   0  0  0  0  0  0  0  0  0  0  0  0
   37.3470   26.8650   33.6130 C   0  0  0  0  0  0  0  0  0  0  0  0
   36.7250   28.1230   33.8000 C   0  0  0  0  0  0  0  0  0  0  0  0
   35.7960   28.4420   32.8340 C   0  0  0  0  0  0  0  0  0  0  0  0
   35.5370   27.5930   31.8140 N   0  0  0  0  0  0  0  0  0  0  0  0
   36.1610   26.3900   31.6730 C   0  0  0  0  0  0  0  0  0  0  0  0
   37.0940   26.0330   32.6150 N   0  0  0  0  0  0  0  0  0  0  0  0
   35.9050   25.5050   30.6180 N   0  0  0  0  0  0  0  0  0  0  0  0
   36.9220   28.7960   34.5960 H   0  0  0  0  0  0  0  0  0  0  0  0
   35.2870   29.3910   32.9220 H   0  0  0  0  0  0  0  0  0  0  0  0
   36.7450   25.3380   30.0080 H   0  0  0  0  0  0  0  0  0  0  0  0
   34.9600   25.0770   30.4900 H   0  0  0  0  0  0  0  0  0  0  0  0
   38.8700   24.6280   36.1190 O   0  0  0  0  0  0  0  0  0  0  0  0
   37.3750   22.5610   36.4670 O   0  0  0  0  0  0  0  0  0  0  0  0
   38.4560   23.1100   35.5860 P   0  0  1  0  0  0  0  0  0  0  0  0
   37.7690   23.2200   34.0000 O   0  0  0  0  0  0  0  0  0  0  0  0
   36.9030   23.7090   34.1590 H   0  0  0  0  0  0  0  0  0  0  0  0
   39.8370   22.1350   35.5340 O   0  0  0  0  0  0  0  0  0  0  0  0
   40.7530   22.2660   36.5970 C   0  0  0  0  0  0  0  0  0  0  0  0
   41.8110   22.4000   36.3180 H   0  0  0  0  0  0  0  0  0  0  0  0
   40.5450   22.2520   37.8480 O   0  0  0  0  0  0  0  0  0  0  0  0
  1  4  1  6  0  0  0
  1  3  1  0  0  0  0
  1  2  1  0  0  0  0
  2  6  1  0  0  0  0
  2  5  1  0  0  0  0
  3  2  1  0  0  0  0
  3  7  1  1  0  0  0
  3 19  1  0  0  0  0
  8  9  1  0  0  0  0
  8  1  1  0  0  0  0
  9 15  1  0  0  0  0
 10 16  1  0  0  0  0
 10  9  2  0  0  0  0
 11 10  1  0  0  0  0
 12 11  2  0  0  0  0
 12 13  1  0  0  0  0
 13  8  2  0  0  0  0
 14 12  1  0  0  0  0
 17 14  1  0  0  0  0
 18 14  1  0  0  0  0
 21 19  1  0  0  0  0
 21 20  2  1  0  0  0
 22 23  1  0  0  0  0
 22 21  1  0  0  0  0
 24 21  1  0  0  0  0
 24 25  1  0  0  0  0
 25 27  2  0  0  0  0
 26 25  1  0  0  0  0
M  END
>  <minimizedAffinity>
-4.26192045

$$$$

 OpenBabel03272504583D

 27 28  0  0  1  0  0  0  0  0999 V2000
   37.7170   25.6500   35.1110 C   0  0  1  0  0  0  0  0  0  0  0  0
   38.2350   26.9410   34.7190 C   0  0  0  0  0  0  0  0  0  0  0  0
   38.0020   25.8820   33.6980 C   0  0  2  0  0  0  0  0  0  0  0  0
   36.6070   25.4730   35.3390 H   0  0  0  0  0  0  0  0  0  0  0  0
   37.5920   27.6800   35.1470 H   0  0  0  0  0  0  0  0  0  0  0  0
   39.2980   27.1330   34.9790 H   0  0  0  0  0  0  0  0  0  0  0  0
   38.8980   25.6830   33.1430 H   0  0  0  0  0  0  0  0  0  0  0  0
   38.5880   24.6590   35.8300 C   0  0  0  0  0  0  0  0  0  0  0  0
   39.8150   24.3500   35.1970 C   0  0  0  0  0  0  0  0  0  0  0  0
   40.5880   23.4350   35.8780 C   0  0  0  0  0  0  0  0  0  0  0  0
   40.1650   22.9070   37.0490 N   0  0  0  0  0  0  0  0  0  0  0  0
   38.9740   23.2340   37.6240 C   0  0  0  0  0  0  0  0  0  0  0  0
   38.1730   24.1430   36.9760 N   0  0  0  0  0  0  0  0  0  0  0  0
   38.5280   22.6980   38.8380 N   0  0  0  0  0  0  0  0  0  0  0  0
   40.1570   24.7600   34.2790 H   0  0  0  0  0  0  0  0  0  0  0  0
   41.5380   23.1590   35.4450 H   0  0  0  0  0  0  0  0  0  0  0  0
   38.4080   23.4240   39.5900 H   0  0  0  0  0  0  0  0  0  0  0  0
   38.3450   21.6740   38.9420 H   0  0  0  0  0  0  0  0  0  0  0  0
   36.8750   26.0690   32.8850 O   0  0  0  0  0  0  0  0  0  0  0  0
   35.2080   24.6890   31.4900 O   0  0  0  0  0  0  0  0  0  0  0  0
   36.6550   24.7730   31.8700 P   0  0  1  0  0  0  0  0  0  0  0  0
   37.5200   25.0400   30.3940 O   0  0  0  0  0  0  0  0  0  0  0  0
   37.0270   25.8120   29.9760 H   0  0  0  0  0  0  0  0  0  0  0  0
   37.2330   23.3700   32.6150 O   0  0  0  0  0  0  0  0  0  0  0  0
   37.9480   22.4630   31.8050 C   0  0  0  0  0  0  0  0  0  0  0  0
   38.8200   21.9740   32.2700 H   0  0  0  0  0  0  0  0  0  0  0  0
   37.7390   22.1180   30.6030 O   0  0  0  0  0  0  0  0  0  0  0  0
  1  4  1  1  0  0  0
  1  8  1  0  0  0  0
  2  6  1  0  0  0  0
  2  1  1  0  0  0  0
  2  5  1  0  0  0  0
  3  7  1  6  0  0  0
  3  2  1  0  0  0  0
  3  1  1  0  0  0  0
  8 13  1  0  0  0  0
  9  8  2  0  0  0  0
  9 10  1  0  0  0  0
 10 11  2  0  0  0  0
 11 12  1  0  0  0  0
 12 14  1  0  0  0  0
 13 12  2  0  0  0  0
 14 18  1  0  0  0  0
 14 17  1  0  0  0  0
 15  9  1  0  0  0  0
 16 10  1  0  0  0  0
 19  3  1  0  0  0  0
 21 20  2  6  0  0  0
 21 24  1  0  0  0  0
 21 19  1  0  0  0  0
 22 21  1  0  0  0  0
 23 22  1  0  0  0  0
 25 26  1  0  0  0  0
 25 24  1  0  0  0  0
 27 25  2  0  0  0  0
M  END
>  <minimizedAffinity>
-4.26035213

$$$$

 OpenBabel03272504583D

 27 28  0  0  1  0  0  0  0  0999 V2000
   38.5590   25.8210   35.2830 C   0  0  1  0  0  0  0  0  0  0  0  0
   38.1120   27.1720   35.5370 C   0  0  0  0  0  0  0  0  0  0  0  0
   39.5510   26.8930   35.2710 C   0  0  2  0  0  0  0  0  0  0  0  0
   38.4200   25.3050   34.2680 H   0  0  0  0  0  0  0  0  0  0  0  0
   37.2840   27.3550   34.8860 H   0  0  0  0  0  0  0  0  0  0  0  0
   37.8540   27.4030   36.5930 H   0  0  0  0  0  0  0  0  0  0  0  0
   40.1650   27.2610   36.0700 H   0  0  0  0  0  0  0  0  0  0  0  0
   38.6490   24.8190   36.3990 C   0  0  0  0  0  0  0  0  0  0  0  0
   37.8690   25.1060   37.5440 C   0  0  0  0  0  0  0  0  0  0  0  0
   37.9780   24.1720   38.5510 C   0  0  0  0  0  0  0  0  0  0  0  0
   38.7750   23.0890   38.4070 N   0  0  0  0  0  0  0  0  0  0  0  0
   39.5090   22.8510   37.2850 C   0  0  0  0  0  0  0  0  0  0  0  0
   39.4300   23.7590   36.2570 N   0  0  0  0  0  0  0  0  0  0  0  0
   40.3330   21.7310   37.1220 N   0  0  0  0  0  0  0  0  0  0  0  0
   37.2400   25.9520   37.6660 H   0  0  0  0  0  0  0  0  0  0  0  0
   37.4050   24.3360   39.4520 H   0  0  0  0  0  0  0  0  0  0  0  0
   40.0290   21.1070   36.3320 H   0  0  0  0  0  0  0  0  0  0  0  0
   41.1570   21.5720   37.7460 H   0  0  0  0  0  0  0  0  0  0  0  0
   40.0100   27.2670   34.0000 O   0  0  0  0  0  0  0  0  0  0  0  0
   41.3910   25.7170   32.4760 O   0  0  0  0  0  0  0  0  0  0  0  0
   41.4960   26.5950   33.6870 P   0  0  1  0  0  0  0  0  0  0  0  0
   42.6210   27.8440   33.2720 O   0  0  0  0  0  0  0  0  0  0  0  0
   42.2730   28.1830   32.3890 H   0  0  0  0  0  0  0  0  0  0  0  0
   42.0460   25.7770   35.0600 O   0  0  0  0  0  0  0  0  0  0  0  0
   42.7500   24.5730   34.8500 C   0  0  0  0  0  0  0  0  0  0  0  0
   43.8070   24.6710   34.5520 H   0  0  0  0  0  0  0  0  0  0  0  0
   42.3470   23.3760   34.9490 O   0  0  0  0  0  0  0  0  0  0  0  0
  1  4  1  6  0  0  0
  1  2  1  0  0  0  0
  1  8  1  0  0  0  0
  2  6  1  0  0  0  0
  3  1  1  0  0  0  0
  3  2  1  0  0  0  0
  3  7  1  1  0  0  0
  5  2  1  0  0  0  0
  8  9  1  0  0  0  0
  9 15  1  0  0  0  0
  9 10  2  0  0  0  0
 10 16  1  0  0  0  0
 11 10  1  0  0  0  0
 12 11  2  0  0  0  0
 13  8  2  0  0  0  0
 13 12  1  0  0  0  0
 14 12  1  0  0  0  0
 14 18  1  0  0  0  0
 17 14  1  0  0  0  0
 19  3  1  0  0  0  0
 21 20  2  6  0  0  0
 21 19  1  0  0  0  0
 21 24  1  0  0  0  0
 22 21  1  0  0  0  0
 23 22  1  0  0  0  0
 25 27  2  0  0  0  0
 25 24  1  0  0  0  0
 26 25  1  0  0  0  0
M  END
>  <minimizedAffinity>
-4.24946833

$$$$
