
 OpenBabel03272509453D

 13 13  0  0  0  0  0  0  0  0999 V2000
   37.9290   24.0840   38.2550 C   0  0  0  0  0  0  0  0  0  0  0  0
   37.7680   24.5220   36.9200 C   0  0  0  0  0  0  0  0  0  0  0  0
   38.6620   24.0640   35.9450 C   0  0  0  0  0  0  0  0  0  0  0  0
   39.6560   23.2050   36.3460 N   0  0  0  0  0  0  0  0  0  0  0  0
   39.7730   22.8090   37.6430 C   0  0  0  0  0  0  0  0  0  0  0  0
   38.9130   23.2520   38.5760 N   0  0  0  0  0  0  0  0  0  0  0  0
   37.2150   24.4640   38.9740 H   0  0  0  0  0  0  0  0  0  0  0  0
   36.9950   25.1970   36.5740 H   0  0  0  0  0  0  0  0  0  0  0  0
   38.5600   24.3800   34.9370 H   0  0  0  0  0  0  0  0  0  0  0  0
   40.8330   21.9500   37.8320 O   0  0  0  0  0  0  0  0  0  0  0  0
   41.6790   21.6440   36.7790 C   0  0  0  0  0  0  0  0  0  0  0  0
   41.4380   22.2230   35.8820 H   0  0  0  0  0  0  0  0  0  0  0  0
   42.2680   20.8130   37.5470 O   0  0  0  0  0  0  0  0  0  0  0  0
  1  6  1  0  0  0  0
  1  7  1  0  0  0  0
  2  1  2  0  0  0  0
  3  4  2  0  0  0  0
  3  2  1  0  0  0  0
  4  5  1  0  0  0  0
  5 10  1  0  0  0  0
  5  6  2  0  0  0  0
  8  2  1  0  0  0  0
  9  3  1  0  0  0  0
 11 13  2  0  0  0  0
 11 10  1  0  0  0  0
 12 11  1  0  0  0  0
M  END
>  <minimizedAffinity>
-3.0479784

$$$$

 OpenBabel03272509453D

 13 13  0  0  0  0  0  0  0  0999 V2000
   38.9540   27.2540   35.5520 C   0  0  0  0  0  0  0  0  0  0  0  0
   40.0110   26.6530   34.8290 C   0  0  0  0  0  0  0  0  0  0  0  0
   40.1860   25.2660   34.9140 C   0  0  0  0  0  0  0  0  0  0  0  0
   39.3100   24.5610   35.7010 N   0  0  0  0  0  0  0  0  0  0  0  0
   38.3050   25.1810   36.3800 C   0  0  0  0  0  0  0  0  0  0  0  0
   38.1420   26.5130   36.2960 N   0  0  0  0  0  0  0  0  0  0  0  0
   38.8570   28.3270   35.4570 H   0  0  0  0  0  0  0  0  0  0  0  0
   40.7160   27.1820   34.2010 H   0  0  0  0  0  0  0  0  0  0  0  0
   40.9730   24.7950   34.3810 H   0  0  0  0  0  0  0  0  0  0  0  0
   37.5430   24.2950   37.1090 O   0  0  0  0  0  0  0  0  0  0  0  0
   38.1160   23.5650   38.1360 C   0  0  0  0  0  0  0  0  0  0  0  0
   38.4380   22.5730   37.8020 H   0  0  0  0  0  0  0  0  0  0  0  0
   37.9060   24.5600   38.9060 O   0  0  0  0  0  0  0  0  0  0  0  0
  1  6  1  0  0  0  0
  2  3  1  0  0  0  0
  2  1  2  0  0  0  0
  3  4  2  0  0  0  0
  4  5  1  0  0  0  0
  5 10  1  0  0  0  0
  6  5  2  0  0  0  0
  7  1  1  0  0  0  0
  8  2  1  0  0  0  0
  9  3  1  0  0  0  0
 10 11  1  0  0  0  0
 11 13  2  0  0  0  0
 12 11  1  0  0  0  0
M  END
>  <minimizedAffinity>
-3.01183796

$$$$

 OpenBabel03272509453D

 13 13  0  0  0  0  0  0  0  0999 V2000
   40.2050   25.4660   34.6760 C   0  0  0  0  0  0  0  0  0  0  0  0
   39.8720   26.8350   34.7970 C   0  0  0  0  0  0  0  0  0  0  0  0
   38.8540   27.2080   35.6830 C   0  0  0  0  0  0  0  0  0  0  0  0
   38.2300   26.2100   36.3910 N   0  0  0  0  0  0  0  0  0  0  0  0
   38.5840   24.9040   36.2430 C   0  0  0  0  0  0  0  0  0  0  0  0
   39.5620   24.5510   35.3910 N   0  0  0  0  0  0  0  0  0  0  0  0
   40.9980   25.2250   33.9790 H   0  0  0  0  0  0  0  0  0  0  0  0
   40.3460   27.6430   34.2530 H   0  0  0  0  0  0  0  0  0  0  0  0
   38.5870   28.2290   35.7890 H   0  0  0  0  0  0  0  0  0  0  0  0
   37.8370   24.0670   37.0430 O   0  0  0  0  0  0  0  0  0  0  0  0
   37.9010   24.1810   38.4210 C   0  0  0  0  0  0  0  0  0  0  0  0
   37.2310   24.9600   38.7980 H   0  0  0  0  0  0  0  0  0  0  0  0
   38.7650   23.2420   38.4180 O   0  0  0  0  0  0  0  0  0  0  0  0
  1  2  2  0  0  0  0
  1  6  1  0  0  0  0
  2  3  1  0  0  0  0
  3  9  1  0  0  0  0
  3  4  2  0  0  0  0
  5  4  1  0  0  0  0
  5 10  1  0  0  0  0
  6  5  2  0  0  0  0
  7  1  1  0  0  0  0
  8  2  1  0  0  0  0
 10 11  1  0  0  0  0
 11 12  1  0  0  0  0
 13 11  2  0  0  0  0
M  END
>  <minimizedAffinity>
-2.99080706

$$$$

 OpenBabel03272509453D

 13 13  0  0  0  0  0  0  0  0999 V2000
   39.8020   23.0080   36.8640 C   0  0  0  0  0  0  0  0  0  0  0  0
   39.1800   23.0000   38.1340 C   0  0  0  0  0  0  0  0  0  0  0  0
   38.2170   23.9740   38.4220 C   0  0  0  0  0  0  0  0  0  0  0  0
   37.9270   24.8910   37.4420 N   0  0  0  0  0  0  0  0  0  0  0  0
   38.5500   24.8610   36.2320 C   0  0  0  0  0  0  0  0  0  0  0  0
   39.4750   23.9250   35.9610 N   0  0  0  0  0  0  0  0  0  0  0  0
   40.5410   22.2370   36.6860 H   0  0  0  0  0  0  0  0  0  0  0  0
   39.3880   22.2900   38.9260 H   0  0  0  0  0  0  0  0  0  0  0  0
   37.7380   23.9870   39.3690 H   0  0  0  0  0  0  0  0  0  0  0  0
   38.1150   25.8660   35.3960 O   0  0  0  0  0  0  0  0  0  0  0  0
   38.1780   27.1880   35.8040 C   0  0  0  0  0  0  0  0  0  0  0  0
   37.2530   27.5090   36.2920 H   0  0  0  0  0  0  0  0  0  0  0  0
   39.3620   27.2350   35.3300 O   0  0  0  0  0  0  0  0  0  0  0  0
  1  2  1  0  0  0  0
  2  3  2  0  0  0  0
  2  8  1  0  0  0  0
  3  9  1  0  0  0  0
  4  3  1  0  0  0  0
  5  4  2  0  0  0  0
  6  5  1  0  0  0  0
  6  1  2  0  0  0  0
  7  1  1  0  0  0  0
 10 11  1  0  0  0  0
 10  5  1  0  0  0  0
 11 12  1  0  0  0  0
 13 11  2  0  0  0  0
M  END
>  <minimizedAffinity>
-2.85075307

$$$$

 OpenBabel03272509453D

 13 13  0  0  0  0  0  0  0  0999 V2000
   40.2550   26.0810   34.7880 C   0  0  0  0  0  0  0  0  0  0  0  0
   39.3090   27.0280   35.2460 C   0  0  0  0  0  0  0  0  0  0  0  0
   38.2830   26.6020   36.0980 C   0  0  0  0  0  0  0  0  0  0  0  0
   38.2540   25.2740   36.4440 N   0  0  0  0  0  0  0  0  0  0  0  0
   39.1860   24.3960   35.9800 C   0  0  0  0  0  0  0  0  0  0  0  0
   40.1690   24.8090   35.1620 N   0  0  0  0  0  0  0  0  0  0  0  0
   41.0300   26.4540   34.1320 H   0  0  0  0  0  0  0  0  0  0  0  0
   39.3070   28.0800   34.9900 H   0  0  0  0  0  0  0  0  0  0  0  0
   37.5630   27.2950   36.4520 H   0  0  0  0  0  0  0  0  0  0  0  0
   38.9750   23.1170   36.4460 O   0  0  0  0  0  0  0  0  0  0  0  0
   40.0370   22.2360   36.5670 C   0  0  0  0  0  0  0  0  0  0  0  0
   40.2690   21.7440   35.6180 H   0  0  0  0  0  0  0  0  0  0  0  0
   40.1070   22.5530   37.8010 O   0  0  0  0  0  0  0  0  0  0  0  0
  1  6  2  0  0  0  0
  1  2  1  0  0  0  0
  2  3  2  0  0  0  0
  3  4  1  0  0  0  0
  3  9  1  0  0  0  0
  5  4  2  0  0  0  0
  5 10  1  0  0  0  0
  6  5  1  0  0  0  0
  7  1  1  0  0  0  0
  8  2  1  0  0  0  0
 10 11  1  0  0  0  0
 11 13  2  0  0  0  0
 12 11  1  0  0  0  0
M  END
>  <minimizedAffinity>
-2.75232124

$$$$

 OpenBabel03272509453D

 13 13  0  0  0  0  0  0  0  0999 V2000
   38.5750   26.9360   35.9300 C   0  0  0  0  0  0  0  0  0  0  0  0
   39.7100   26.9590   35.0870 C   0  0  0  0  0  0  0  0  0  0  0  0
   40.3300   25.7490   34.7530 C   0  0  0  0  0  0  0  0  0  0  0  0
   39.7930   24.5960   35.2690 N   0  0  0  0  0  0  0  0  0  0  0  0
   38.6980   24.6200   36.0780 C   0  0  0  0  0  0  0  0  0  0  0  0
   38.1060   25.7840   36.3960 N   0  0  0  0  0  0  0  0  0  0  0  0
   38.1290   27.8940   36.1620 H   0  0  0  0  0  0  0  0  0  0  0  0
   40.1550   27.8520   34.6660 H   0  0  0  0  0  0  0  0  0  0  0  0
   41.1830   25.7440   34.1230 H   0  0  0  0  0  0  0  0  0  0  0  0
   38.3220   23.3590   36.4850 O   0  0  0  0  0  0  0  0  0  0  0  0
   38.7840   22.2420   35.8090 C   0  0  0  0  0  0  0  0  0  0  0  0
   39.8770   22.2090   35.7740 H   0  0  0  0  0  0  0  0  0  0  0  0
   37.5680   21.9030   35.6210 O   0  0  0  0  0  0  0  0  0  0  0  0
  1  7  1  0  0  0  0
  1  6  1  0  0  0  0
  2  1  2  0  0  0  0
  3  2  1  0  0  0  0
  3  4  2  0  0  0  0
  4  5  1  0  0  0  0
  5  6  2  0  0  0  0
  5 10  1  0  0  0  0
  8  2  1  0  0  0  0
  9  3  1  0  0  0  0
 11 10  1  0  0  0  0
 12 11  1  0  0  0  0
 13 11  2  0  0  0  0
M  END
>  <minimizedAffinity>
-2.7146728

$$$$

 OpenBabel03272509453D

 13 13  0  0  0  0  0  0  0  0999 V2000
   37.9280   24.2740   38.0130 C   0  0  0  0  0  0  0  0  0  0  0  0
   38.7870   23.2020   38.3500 C   0  0  0  0  0  0  0  0  0  0  0  0
   39.8140   22.8540   37.4650 C   0  0  0  0  0  0  0  0  0  0  0  0
   39.9290   23.5810   36.3060 N   0  0  0  0  0  0  0  0  0  0  0  0
   39.0790   24.6060   36.0220 C   0  0  0  0  0  0  0  0  0  0  0  0
   38.0950   24.9370   36.8750 N   0  0  0  0  0  0  0  0  0  0  0  0
   37.1490   24.5080   38.7270 H   0  0  0  0  0  0  0  0  0  0  0  0
   38.7200   22.6120   39.2560 H   0  0  0  0  0  0  0  0  0  0  0  0
   40.4690   22.0530   37.6980 H   0  0  0  0  0  0  0  0  0  0  0  0
   39.3670   25.2030   34.8140 O   0  0  0  0  0  0  0  0  0  0  0  0
   40.6440   25.6710   34.5560 C   0  0  0  0  0  0  0  0  0  0  0  0
   41.2860   24.8950   34.1270 H   0  0  0  0  0  0  0  0  0  0  0  0
   40.2750   26.8060   35.0070 O   0  0  0  0  0  0  0  0  0  0  0  0
  1  2  1  0  0  0  0
  1  7  1  0  0  0  0
  2  8  1  0  0  0  0
  3  9  1  0  0  0  0
  3  2  2  0  0  0  0
  4  3  1  0  0  0  0
  5  4  2  0  0  0  0
  5  6  1  0  0  0  0
  6  1  2  0  0  0  0
 10  5  1  0  0  0  0
 11 10  1  0  0  0  0
 11 13  2  0  0  0  0
 12 11  1  0  0  0  0
M  END
>  <minimizedAffinity>
-2.68359041

$$$$

 OpenBabel03272509453D

 13 13  0  0  0  0  0  0  0  0999 V2000
   41.0570   22.1170   34.9200 C   0  0  0  0  0  0  0  0  0  0  0  0
   41.9540   21.4720   35.8020 C   0  0  0  0  0  0  0  0  0  0  0  0
   41.6810   21.4870   37.1750 C   0  0  0  0  0  0  0  0  0  0  0  0
   40.5440   22.1340   37.5910 N   0  0  0  0  0  0  0  0  0  0  0  0
   39.7080   22.7420   36.7060 C   0  0  0  0  0  0  0  0  0  0  0  0
   39.9740   22.7260   35.3890 N   0  0  0  0  0  0  0  0  0  0  0  0
   41.3080   22.0800   33.8680 H   0  0  0  0  0  0  0  0  0  0  0  0
   42.8570   20.9540   35.5040 H   0  0  0  0  0  0  0  0  0  0  0  0
   42.3420   21.0100   37.8550 H   0  0  0  0  0  0  0  0  0  0  0  0
   38.6290   23.3310   37.3280 O   0  0  0  0  0  0  0  0  0  0  0  0
   38.6180   23.4870   38.7040 C   0  0  0  0  0  0  0  0  0  0  0  0
   39.1150   22.6550   39.2130 H   0  0  0  0  0  0  0  0  0  0  0  0
   37.9900   24.5850   38.5340 O   0  0  0  0  0  0  0  0  0  0  0  0
  1  6  2  0  0  0  0
  1  2  1  0  0  0  0
  2  3  2  0  0  0  0
  3  4  1  0  0  0  0
  3  9  1  0  0  0  0
  5 10  1  0  0  0  0
  5  4  2  0  0  0  0
  6  5  1  0  0  0  0
  7  1  1  0  0  0  0
  8  2  1  0  0  0  0
 10 11  1  0  0  0  0
 11 12  1  0  0  0  0
 13 11  2  0  0  0  0
M  END
>  <minimizedAffinity>
-2.65106201

$$$$

 OpenBabel03272509453D

 13 13  0  0  0  0  0  0  0  0999 V2000
   36.4590   28.2460   33.9120 C   0  0  0  0  0  0  0  0  0  0  0  0
   37.1520   27.4510   34.8540 C   0  0  0  0  0  0  0  0  0  0  0  0
   37.5230   26.1490   34.4980 C   0  0  0  0  0  0  0  0  0  0  0  0
   37.1880   25.7140   33.2390 N   0  0  0  0  0  0  0  0  0  0  0  0
   36.5200   26.5140   32.3640 C   0  0  0  0  0  0  0  0  0  0  0  0
   36.1660   27.7630   32.7100 N   0  0  0  0  0  0  0  0  0  0  0  0
   36.1930   29.2460   34.2310 H   0  0  0  0  0  0  0  0  0  0  0  0
   37.4300   27.7670   35.8520 H   0  0  0  0  0  0  0  0  0  0  0  0
   38.0430   25.5350   35.1890 H   0  0  0  0  0  0  0  0  0  0  0  0
   36.2830   25.8870   31.1600 O   0  0  0  0  0  0  0  0  0  0  0  0
   35.6130   24.6760   31.1260 C   0  0  0  0  0  0  0  0  0  0  0  0
   36.2140   23.8640   31.5470 H   0  0  0  0  0  0  0  0  0  0  0  0
   34.6290   25.2810   30.5840 O   0  0  0  0  0  0  0  0  0  0  0  0
  1  7  1  0  0  0  0
  1  2  1  0  0  0  0
  2  8  1  0  0  0  0
  3  2  2  0  0  0  0
  3  9  1  0  0  0  0
  4  3  1  0  0  0  0
  5  6  1  0  0  0  0
  5  4  2  0  0  0  0
  6  1  2  0  0  0  0
 10  5  1  0  0  0  0
 11 10  1  0  0  0  0
 11 12  1  0  0  0  0
 13 11  2  0  0  0  0
M  END
>  <minimizedAffinity>
-2.59476876

$$$$
