
 OpenBabel03272504563D

 27 28  0  0  1  0  0  0  0  0999 V2000
   37.0240   31.5340   48.6550 C   0  0  1  0  0  0  0  0  0  0  0  0
   36.2820   30.8600   47.6140 C   0  0  0  0  0  0  0  0  0  0  0  0
   37.2330   30.1000   48.4720 C   0  0  2  0  0  0  0  0  0  0  0  0
   36.5580   31.8100   49.6660 H   0  0  0  0  0  0  0  0  0  0  0  0
   35.2540   31.1240   47.7410 H   0  0  0  0  0  0  0  0  0  0  0  0
   36.6230   31.0570   46.5750 H   0  0  0  0  0  0  0  0  0  0  0  0
   37.9630   29.5900   47.8740 H   0  0  0  0  0  0  0  0  0  0  0  0
   38.1720   32.4410   48.3160 C   0  0  0  0  0  0  0  0  0  0  0  0
   38.5220   33.3860   49.3110 C   0  0  0  0  0  0  0  0  0  0  0  0
   39.5750   34.2050   48.9670 C   0  0  0  0  0  0  0  0  0  0  0  0
   40.1890   34.0770   47.7690 N   0  0  0  0  0  0  0  0  0  0  0  0
   39.8200   33.1520   46.8400 C   0  0  0  0  0  0  0  0  0  0  0  0
   38.7740   32.3160   47.1430 N   0  0  0  0  0  0  0  0  0  0  0  0
   40.4520   33.0070   45.5990 N   0  0  0  0  0  0  0  0  0  0  0  0
   38.0470   33.4930   50.2530 H   0  0  0  0  0  0  0  0  0  0  0  0
   39.8890   34.9470   49.6870 H   0  0  0  0  0  0  0  0  0  0  0  0
   40.9110   32.0680   45.4780 H   0  0  0  0  0  0  0  0  0  0  0  0
   40.4430   33.7790   44.8950 H   0  0  0  0  0  0  0  0  0  0  0  0
   36.6420   29.2820   49.4460 O   0  0  0  0  0  0  0  0  0  0  0  0
   34.6130   27.7270   49.7500 O   0  0  0  0  0  0  0  0  0  0  0  0
   35.0440   29.0020   49.0910 P   0  0  1  0  0  0  0  0  0  0  0  0
   34.0690   30.2510   49.7890 O   0  0  0  0  0  0  0  0  0  0  0  0
   34.1700   30.0950   50.7790 H   0  0  0  0  0  0  0  0  0  0  0  0
   34.8310   28.9930   47.4140 O   0  0  0  0  0  0  0  0  0  0  0  0
   33.6970   28.3200   46.9160 C   0  0  0  0  0  0  0  0  0  0  0  0
   33.8870   27.5160   46.1860 H   0  0  0  0  0  0  0  0  0  0  0  0
   32.4710   28.5000   47.1820 O   0  0  0  0  0  0  0  0  0  0  0  0
  1  4  1  1  0  0  0
  2  5  1  0  0  0  0
  2  3  1  0  0  0  0
  2  1  1  0  0  0  0
  3  7  1  6  0  0  0
  3  1  1  0  0  0  0
  3 19  1  0  0  0  0
  6  2  1  0  0  0  0
  8  1  1  0  0  0  0
  8  9  1  0  0  0  0
  9 15  1  0  0  0  0
 10  9  2  0  0  0  0
 10 16  1  0  0  0  0
 11 10  1  0  0  0  0
 12 13  1  0  0  0  0
 12 11  2  0  0  0  0
 13  8  2  0  0  0  0
 14 12  1  0  0  0  0
 17 14  1  0  0  0  0
 18 14  1  0  0  0  0
 21 19  1  0  0  0  0
 21 20  2  1  0  0  0
 21 22  1  0  0  0  0
 22 23  1  0  0  0  0
 24 21  1  0  0  0  0
 25 27  2  0  0  0  0
 25 24  1  0  0  0  0
 26 25  1  0  0  0  0
M  END
>  <minimizedAffinity>
-4.33102417

>  <minimizedRMSD>
0.474753767

$$$$
