
 OpenBabel03272501043D

 24 25  0  0  1  0  0  0  0  0999 V2000
   38.6840   31.9050   47.7630 C   0  0  2  0  0  0  0  0  0  0  0  0
   37.7790   32.4620   48.8990 C   0  0  2  0  0  0  0  0  0  0  0  0
   38.7490   33.3170   49.5980 C   0  0  0  0  0  0  0  0  0  0  0  0
   39.5380   33.9160   48.6200 O   0  0  0  0  0  0  0  0  0  0  0  0
   39.4470   33.1890   47.4600 C   0  0  0  0  0  0  0  0  0  0  0  0
   39.3260   31.1010   48.1530 H   0  0  0  0  0  0  0  0  0  0  0  0
   37.0450   33.0790   48.3230 H   0  0  0  0  0  0  0  0  0  0  0  0
   38.3300   34.0520   50.2970 H   0  0  0  0  0  0  0  0  0  0  0  0
   39.4410   32.6680   50.1980 H   0  0  0  0  0  0  0  0  0  0  0  0
   40.4760   32.9040   47.1430 H   0  0  0  0  0  0  0  0  0  0  0  0
   38.9260   33.6990   46.6370 H   0  0  0  0  0  0  0  0  0  0  0  0
   37.2040   29.7010   51.4200 C   0  0  0  0  0  0  0  0  0  0  0  0
   37.8590   30.7510   50.7230 C   0  0  0  0  0  0  0  0  0  0  0  0
   37.1700   31.3990   49.6640 C   0  0  0  0  0  0  0  0  0  0  0  0
   35.8930   30.9640   49.3770 N   0  0  0  0  0  0  0  0  0  0  0  0
   35.3130   29.9750   50.0550 C   0  0  0  0  0  0  0  0  0  0  0  0
   35.9460   29.3330   51.0750 N   0  0  0  0  0  0  0  0  0  0  0  0
   37.8230   29.2860   52.2010 H   0  0  0  0  0  0  0  0  0  0  0  0
   38.8660   31.0670   50.9750 H   0  0  0  0  0  0  0  0  0  0  0  0
   34.2970   29.6550   49.7980 H   0  0  0  0  0  0  0  0  0  0  0  0
   37.8980   31.5260   46.6780 O   0  0  0  0  0  0  0  0  0  0  0  0
   38.2170   31.6970   45.3510 C   0  0  0  0  0  0  0  0  0  0  0  0
   39.1200   31.1250   45.1020 H   0  0  0  0  0  0  0  0  0  0  0  0
   37.5040   32.4280   44.6150 O   0  0  0  0  0  0  0  0  0  0  0  0
  1  6  1  1  0  0  0
  1  2  1  0  0  0  0
  2  7  1  6  0  0  0
  2  3  1  0  0  0  0
  2 14  1  0  0  0  0
  3  9  1  0  0  0  0
  3  8  1  0  0  0  0
  4  3  1  0  0  0  0
  5  1  1  0  0  0  0
  5  4  1  0  0  0  0
 10  5  1  0  0  0  0
 11  5  1  0  0  0  0
 12 18  1  0  0  0  0
 13 19  1  0  0  0  0
 13 12  2  0  0  0  0
 14 13  1  0  0  0  0
 15 14  2  0  0  0  0
 15 16  1  0  0  0  0
 16 17  2  0  0  0  0
 17 12  1  0  0  0  0
 20 16  1  0  0  0  0
 21  1  1  0  0  0  0
 22 21  1  0  0  0  0
 23 22  1  0  0  0  0
 24 22  2  0  0  0  0
M  END
>  <minimizedAffinity>
-4.57252836

>  <minimizedRMSD>
1.83558369

$$$$
