
 OpenBabel03272506443D

 26 27  0  0  1  0  0  0  0  0999 V2000
   37.7480   26.7290   33.4170 C   0  0  2  0  0  0  0  0  0  0  0  0
   38.9050   25.9530   34.0230 C   0  0  1  0  0  0  0  0  0  0  0  0
   39.2230   26.5420   35.2210 O   0  0  0  0  0  0  0  0  0  0  0  0
   38.2740   27.4810   35.5330 C   0  0  0  0  0  0  0  0  0  0  0  0
   37.0430   27.1480   34.6770 C   0  0  1  0  0  0  0  0  0  0  0  0
   38.0910   27.6010   32.8230 H   0  0  0  0  0  0  0  0  0  0  0  0
   39.7330   25.8510   33.3060 H   0  0  0  0  0  0  0  0  0  0  0  0
   37.9470   27.2520   36.5890 H   0  0  0  0  0  0  0  0  0  0  0  0
   38.5940   28.5200   35.4200 H   0  0  0  0  0  0  0  0  0  0  0  0
   36.4850   26.3200   35.1110 H   0  0  0  0  0  0  0  0  0  0  0  0
   36.9600   25.9230   32.6120 O   0  0  0  0  0  0  0  0  0  0  0  0
   36.7480   26.3680   31.7760 H   0  0  0  0  0  0  0  0  0  0  0  0
   38.2450   24.2780   34.3720 S   0  0  0  0  0  0  0  0  0  0  0  0
   39.8300   22.9180   37.7500 C   0  0  0  0  0  0  0  0  0  0  0  0
   38.9420   23.3110   38.7510 C   0  0  0  0  0  0  0  0  0  0  0  0
   37.8070   24.0250   38.3730 C   0  0  0  0  0  0  0  0  0  0  0  0
   37.6350   24.2940   37.0560 N   0  0  0  0  0  0  0  0  0  0  0  0
   38.5000   23.9080   36.1050 C   0  0  0  0  0  0  0  0  0  0  0  0
   39.6110   23.2130   36.4410 N   0  0  0  0  0  0  0  0  0  0  0  0
   40.7400   22.3600   37.9390 H   0  0  0  0  0  0  0  0  0  0  0  0
   39.1620   23.0510   39.7790 H   0  0  0  0  0  0  0  0  0  0  0  0
   37.0990   24.3440   39.1280 H   0  0  0  0  0  0  0  0  0  0  0  0
   36.2660   28.2850   34.5290 O   0  0  0  0  0  0  0  0  0  0  0  0
   36.0250   28.8430   33.2640 C   0  0  0  0  0  0  0  0  0  0  0  0
   36.8530   29.3820   32.8100 H   0  0  0  0  0  0  0  0  0  0  0  0
   34.9480   28.7760   32.6200 O   0  0  0  0  0  0  0  0  0  0  0  0
  1  6  1  6  0  0  0
  1  2  1  0  0  0  0
  1  5  1  0  0  0  0
  2  7  1  6  0  0  0
  2 13  1  0  0  0  0
  2  3  1  0  0  0  0
  3  4  1  0  0  0  0
  4  8  1  0  0  0  0
  5 10  1  1  0  0  0
  5  4  1  0  0  0  0
  9  4  1  0  0  0  0
 11  1  1  0  0  0  0
 12 11  1  0  0  0  0
 13 18  1  0  0  0  0
 14 20  1  0  0  0  0
 14 15  1  0  0  0  0
 15 21  1  0  0  0  0
 16 15  2  0  0  0  0
 16 22  1  0  0  0  0
 17 16  1  0  0  0  0
 18 19  1  0  0  0  0
 18 17  2  0  0  0  0
 19 14  2  0  0  0  0
 23  5  1  0  0  0  0
 24 23  1  0  0  0  0
 25 24  1  0  0  0  0
 26 24  2  0  0  0  0
M  END
>  <minimizedAffinity>
-4.12697554

$$$$

 OpenBabel03272506443D

 26 27  0  0  1  0  0  0  0  0999 V2000
   38.8430   26.6790   35.5000 C   0  0  2  0  0  0  0  0  0  0  0  0
   38.2680   27.0290   34.1390 C   0  0  1  0  0  0  0  0  0  0  0  0
   37.9530   25.8550   33.5020 O   0  0  0  0  0  0  0  0  0  0  0  0
   38.0810   24.8110   34.3820 C   0  0  0  0  0  0  0  0  0  0  0  0
   38.0580   25.4290   35.7880 C   0  0  1  0  0  0  0  0  0  0  0  0
   39.9340   26.4840   35.4600 H   0  0  0  0  0  0  0  0  0  0  0  0
   38.9380   27.7060   33.5880 H   0  0  0  0  0  0  0  0  0  0  0  0
   37.1140   24.2320   34.3180 H   0  0  0  0  0  0  0  0  0  0  0  0
   38.9530   24.1720   34.2210 H   0  0  0  0  0  0  0  0  0  0  0  0
   37.0370   25.6650   36.0870 H   0  0  0  0  0  0  0  0  0  0  0  0
   38.6030   27.6800   36.4270 O   0  0  0  0  0  0  0  0  0  0  0  0
   39.4010   27.8720   36.9460 H   0  0  0  0  0  0  0  0  0  0  0  0
   36.7070   27.9270   34.4790 S   0  0  0  0  0  0  0  0  0  0  0  0
   34.9540   30.5730   32.0920 C   0  0  0  0  0  0  0  0  0  0  0  0
   35.5530   30.3880   30.8450 C   0  0  0  0  0  0  0  0  0  0  0  0
   36.5370   29.4090   30.7320 C   0  0  0  0  0  0  0  0  0  0  0  0
   36.8530   28.6960   31.8400 N   0  0  0  0  0  0  0  0  0  0  0  0
   36.2670   28.8870   33.0320 C   0  0  0  0  0  0  0  0  0  0  0  0
   35.3080   29.8290   33.1740 N   0  0  0  0  0  0  0  0  0  0  0  0
   34.1800   31.3080   32.2840 H   0  0  0  0  0  0  0  0  0  0  0  0
   35.2350   31.0070   30.0140 H   0  0  0  0  0  0  0  0  0  0  0  0
   37.0190   29.2440   29.7770 H   0  0  0  0  0  0  0  0  0  0  0  0
   38.6820   24.5710   36.6770 O   0  0  0  0  0  0  0  0  0  0  0  0
   38.0380   24.1390   37.8470 C   0  0  0  0  0  0  0  0  0  0  0  0
   37.5240   23.1830   37.7880 H   0  0  0  0  0  0  0  0  0  0  0  0
   38.0050   24.7530   38.9420 O   0  0  0  0  0  0  0  0  0  0  0  0
  1  6  1  6  0  0  0
  1  5  1  0  0  0  0
  1 11  1  0  0  0  0
  2  7  1  6  0  0  0
  2 13  1  0  0  0  0
  2  1  1  0  0  0  0
  3  2  1  0  0  0  0
  3  4  1  0  0  0  0
  4  5  1  0  0  0  0
  5 10  1  1  0  0  0
  5 23  1  0  0  0  0
  8  4  1  0  0  0  0
  9  4  1  0  0  0  0
 11 12  1  0  0  0  0
 14 20  1  0  0  0  0
 14 19  1  0  0  0  0
 15 14  2  0  0  0  0
 16 15  1  0  0  0  0
 16 17  2  0  0  0  0
 17 18  1  0  0  0  0
 18 19  2  0  0  0  0
 18 13  1  0  0  0  0
 21 15  1  0  0  0  0
 22 16  1  0  0  0  0
 23 24  1  0  0  0  0
 24 26  2  0  0  0  0
 25 24  1  0  0  0  0
M  END
>  <minimizedAffinity>
-4.07093954

$$$$

 OpenBabel03272506443D

 26 27  0  0  1  0  0  0  0  0999 V2000
   38.8150   26.7060   35.6250 C   0  0  2  0  0  0  0  0  0  0  0  0
   38.5780   26.6380   34.1260 C   0  0  1  0  0  0  0  0  0  0  0  0
   38.3440   25.3270   33.7970 O   0  0  0  0  0  0  0  0  0  0  0  0
   38.2120   24.5870   34.9440 C   0  0  0  0  0  0  0  0  0  0  0  0
   37.9130   25.5880   36.0700 C   0  0  1  0  0  0  0  0  0  0  0  0
   39.8750   26.5180   35.8930 H   0  0  0  0  0  0  0  0  0  0  0  0
   39.3930   27.1310   33.5730 H   0  0  0  0  0  0  0  0  0  0  0  0
   37.2510   24.0060   34.8290 H   0  0  0  0  0  0  0  0  0  0  0  0
   39.0590   23.9360   35.1770 H   0  0  0  0  0  0  0  0  0  0  0  0
   36.8670   25.8920   36.0460 H   0  0  0  0  0  0  0  0  0  0  0  0
   38.4340   27.9330   36.1460 O   0  0  0  0  0  0  0  0  0  0  0  0
   39.1070   28.2750   36.7570 H   0  0  0  0  0  0  0  0  0  0  0  0
   37.0360   27.5830   33.8280 S   0  0  0  0  0  0  0  0  0  0  0  0
   38.0780   28.2650   30.0560 C   0  0  0  0  0  0  0  0  0  0  0  0
   37.2130   29.2670   29.6170 C   0  0  0  0  0  0  0  0  0  0  0  0
   36.2680   29.7550   30.5170 C   0  0  0  0  0  0  0  0  0  0  0  0
   36.2470   29.2260   31.7640 N   0  0  0  0  0  0  0  0  0  0  0  0
   37.0880   28.2620   32.1710 C   0  0  0  0  0  0  0  0  0  0  0  0
   38.0150   27.7680   31.3210 N   0  0  0  0  0  0  0  0  0  0  0  0
   38.8460   27.8190   29.4340 H   0  0  0  0  0  0  0  0  0  0  0  0
   37.3030   29.6290   28.6000 H   0  0  0  0  0  0  0  0  0  0  0  0
   35.5830   30.5330   30.2040 H   0  0  0  0  0  0  0  0  0  0  0  0
   38.2730   25.0330   37.2860 O   0  0  0  0  0  0  0  0  0  0  0  0
   37.8010   23.7720   37.6790 C   0  0  0  0  0  0  0  0  0  0  0  0
   37.0220   23.3340   37.0600 H   0  0  0  0  0  0  0  0  0  0  0  0
   38.1950   23.1130   38.6740 O   0  0  0  0  0  0  0  0  0  0  0  0
  1  6  1  1  0  0  0
  1  5  1  0  0  0  0
  1 11  1  0  0  0  0
  2  7  1  6  0  0  0
  2  1  1  0  0  0  0
  3  2  1  0  0  0  0
  3  4  1  0  0  0  0
  4  9  1  0  0  0  0
  4  5  1  0  0  0  0
  5 10  1  6  0  0  0
  5 23  1  0  0  0  0
  8  4  1  0  0  0  0
 11 12  1  0  0  0  0
 13  2  1  0  0  0  0
 14 19  1  0  0  0  0
 15 14  2  0  0  0  0
 15 16  1  0  0  0  0
 16 17  2  0  0  0  0
 17 18  1  0  0  0  0
 18 13  1  0  0  0  0
 19 18  2  0  0  0  0
 20 14  1  0  0  0  0
 21 15  1  0  0  0  0
 22 16  1  0  0  0  0
 23 24  1  0  0  0  0
 24 26  2  0  0  0  0
 25 24  1  0  0  0  0
M  END
>  <minimizedAffinity>
-4.02958441

$$$$

 OpenBabel03272506443D

 26 27  0  0  1  0  0  0  0  0999 V2000
   37.9260   22.8570   35.9810 C   0  0  2  0  0  0  0  0  0  0  0  0
   38.1410   23.2920   34.5420 C   0  0  1  0  0  0  0  0  0  0  0  0
   39.1490   24.2230   34.5310 O   0  0  0  0  0  0  0  0  0  0  0  0
   39.7270   24.2830   35.7730 C   0  0  0  0  0  0  0  0  0  0  0  0
   39.3340   22.9830   36.4920 C   0  0  1  0  0  0  0  0  0  0  0  0
   37.2250   23.5250   36.5220 H   0  0  0  0  0  0  0  0  0  0  0  0
   37.1950   23.6080   34.0760 H   0  0  0  0  0  0  0  0  0  0  0  0
   40.8380   24.1790   35.6030 H   0  0  0  0  0  0  0  0  0  0  0  0
   39.4830   25.1740   36.3570 H   0  0  0  0  0  0  0  0  0  0  0  0
   39.9530   22.1530   36.1520 H   0  0  0  0  0  0  0  0  0  0  0  0
   37.4500   21.5580   36.0540 O   0  0  0  0  0  0  0  0  0  0  0  0
   36.7160   21.4920   36.6870 H   0  0  0  0  0  0  0  0  0  0  0  0
   38.7380   21.8000   33.6600 S   0  0  0  0  0  0  0  0  0  0  0  0
   35.1120   20.4780   32.7250 C   0  0  0  0  0  0  0  0  0  0  0  0
   35.2330   19.9730   31.4290 C   0  0  0  0  0  0  0  0  0  0  0  0
   36.4820   20.0420   30.8170 C   0  0  0  0  0  0  0  0  0  0  0  0
   37.5030   20.5950   31.5150 N   0  0  0  0  0  0  0  0  0  0  0  0
   37.3690   21.0750   32.7610 C   0  0  0  0  0  0  0  0  0  0  0  0
   36.1700   21.0230   33.3830 N   0  0  0  0  0  0  0  0  0  0  0  0
   34.1850   20.4720   33.2880 H   0  0  0  0  0  0  0  0  0  0  0  0
   34.3600   19.5500   30.9480 H   0  0  0  0  0  0  0  0  0  0  0  0
   36.6060   19.6590   29.8120 H   0  0  0  0  0  0  0  0  0  0  0  0
   39.4140   23.1730   37.8610 O   0  0  0  0  0  0  0  0  0  0  0  0
   38.3110   23.6260   38.6000 C   0  0  0  0  0  0  0  0  0  0  0  0
   37.6080   22.8660   38.9320 H   0  0  0  0  0  0  0  0  0  0  0  0
   38.0680   24.8200   38.9080 O   0  0  0  0  0  0  0  0  0  0  0  0
  1 11  1  0  0  0  0
  1  5  1  0  0  0  0
  1  6  1  1  0  0  0
  2  7  1  6  0  0  0
  2  1  1  0  0  0  0
  3  2  1  0  0  0  0
  3  4  1  0  0  0  0
  4  9  1  0  0  0  0
  4  5  1  0  0  0  0
  5 10  1  6  0  0  0
  5 23  1  0  0  0  0
  8  4  1  0  0  0  0
 11 12  1  0  0  0  0
 13  2  1  0  0  0  0
 14 20  1  0  0  0  0
 14 19  1  0  0  0  0
 15 14  2  0  0  0  0
 16 15  1  0  0  0  0
 16 17  2  0  0  0  0
 17 18  1  0  0  0  0
 18 19  2  0  0  0  0
 18 13  1  0  0  0  0
 21 15  1  0  0  0  0
 22 16  1  0  0  0  0
 23 24  1  0  0  0  0
 24 26  2  0  0  0  0
 24 25  1  0  0  0  0
M  END
>  <minimizedAffinity>
-3.99032092

$$$$

 OpenBabel03272506443D

 26 27  0  0  1  0  0  0  0  0999 V2000
   37.9260   25.2400   32.5920 C   0  0  2  0  0  0  0  0  0  0  0  0
   38.7410   25.9340   33.6690 C   0  0  1  0  0  0  0  0  0  0  0  0
   38.6720   27.2860   33.4420 O   0  0  0  0  0  0  0  0  0  0  0  0
   37.7480   27.5360   32.4600 C   0  0  0  0  0  0  0  0  0  0  0  0
   36.8640   26.2820   32.3730 C   0  0  1  0  0  0  0  0  0  0  0  0
   38.5170   25.0490   31.6740 H   0  0  0  0  0  0  0  0  0  0  0  0
   39.7550   25.5120   33.7340 H   0  0  0  0  0  0  0  0  0  0  0  0
   37.0610   28.3300   32.8760 H   0  0  0  0  0  0  0  0  0  0  0  0
   38.1650   27.8210   31.4910 H   0  0  0  0  0  0  0  0  0  0  0  0
   36.1300   26.2730   33.1780 H   0  0  0  0  0  0  0  0  0  0  0  0
   37.4030   24.0390   33.0440 O   0  0  0  0  0  0  0  0  0  0  0  0
   37.5260   23.3360   32.3850 H   0  0  0  0  0  0  0  0  0  0  0  0
   37.8760   25.5800   35.2470 S   0  0  0  0  0  0  0  0  0  0  0  0
   39.1010   23.1420   38.1330 C   0  0  0  0  0  0  0  0  0  0  0  0
   40.2910   22.5890   37.6590 C   0  0  0  0  0  0  0  0  0  0  0  0
   40.7370   22.9810   36.3990 C   0  0  0  0  0  0  0  0  0  0  0  0
   39.9880   23.8750   35.7100 N   0  0  0  0  0  0  0  0  0  0  0  0
   38.8450   24.3980   36.1810 C   0  0  0  0  0  0  0  0  0  0  0  0
   38.3860   24.0380   37.4010 N   0  0  0  0  0  0  0  0  0  0  0  0
   38.6700   22.9030   39.0990 H   0  0  0  0  0  0  0  0  0  0  0  0
   40.8240   21.8800   38.2810 H   0  0  0  0  0  0  0  0  0  0  0  0
   41.6570   22.5680   36.0050 H   0  0  0  0  0  0  0  0  0  0  0  0
   36.2750   26.2220   31.1220 O   0  0  0  0  0  0  0  0  0  0  0  0
   35.1640   25.4000   30.8780 C   0  0  0  0  0  0  0  0  0  0  0  0
   34.2530   25.9030   30.5630 H   0  0  0  0  0  0  0  0  0  0  0  0
   35.1310   24.1500   30.9920 O   0  0  0  0  0  0  0  0  0  0  0  0
  1  6  1  6  0  0  0
  1 11  1  0  0  0  0
  1  2  1  0  0  0  0
  2  7  1  1  0  0  0
  2 13  1  0  0  0  0
  3  2  1  0  0  0  0
  4  8  1  0  0  0  0
  4  3  1  0  0  0  0
  5  4  1  0  0  0  0
  5  1  1  0  0  0  0
  5 10  1  1  0  0  0
  9  4  1  0  0  0  0
 12 11  1  0  0  0  0
 13 18  1  0  0  0  0
 14 20  1  0  0  0  0
 15 14  1  0  0  0  0
 15 21  1  0  0  0  0
 16 15  2  0  0  0  0
 17 18  2  0  0  0  0
 17 16  1  0  0  0  0
 18 19  1  0  0  0  0
 19 14  2  0  0  0  0
 22 16  1  0  0  0  0
 23  5  1  0  0  0  0
 24 26  2  0  0  0  0
 24 23  1  0  0  0  0
 25 24  1  0  0  0  0
M  END
>  <minimizedAffinity>
-3.83152556

$$$$

 OpenBabel03272506443D

 26 27  0  0  1  0  0  0  0  0999 V2000
   38.7740   22.8630   36.1890 C   0  0  2  0  0  0  0  0  0  0  0  0
   37.8110   23.9960   36.4980 C   0  0  1  0  0  0  0  0  0  0  0  0
   37.7670   24.1490   37.8610 O   0  0  0  0  0  0  0  0  0  0  0  0
   38.7390   23.3730   38.4380 C   0  0  0  0  0  0  0  0  0  0  0  0
   39.7440   23.0450   37.3230 C   0  0  1  0  0  0  0  0  0  0  0  0
   38.2800   21.8700   36.2180 H   0  0  0  0  0  0  0  0  0  0  0  0
   36.8400   23.8380   36.0040 H   0  0  0  0  0  0  0  0  0  0  0  0
   39.3100   24.0570   39.1320 H   0  0  0  0  0  0  0  0  0  0  0  0
   38.3760   22.4790   38.9500 H   0  0  0  0  0  0  0  0  0  0  0  0
   40.4080   23.8890   37.1430 H   0  0  0  0  0  0  0  0  0  0  0  0
   39.3720   23.0270   34.9500 O   0  0  0  0  0  0  0  0  0  0  0  0
   39.3720   22.1940   34.4500 H   0  0  0  0  0  0  0  0  0  0  0  0
   38.5750   25.5010   35.7820 S   0  0  0  0  0  0  0  0  0  0  0  0
   36.8480   25.2570   32.2140 C   0  0  0  0  0  0  0  0  0  0  0  0
   36.3630   26.5400   31.9570 C   0  0  0  0  0  0  0  0  0  0  0  0
   36.5750   27.5220   32.9220 C   0  0  0  0  0  0  0  0  0  0  0  0
   37.2390   27.1730   34.0500 N   0  0  0  0  0  0  0  0  0  0  0  0
   37.6990   25.9330   34.2800 C   0  0  0  0  0  0  0  0  0  0  0  0
   37.5100   24.9580   33.3640 N   0  0  0  0  0  0  0  0  0  0  0  0
   36.7360   24.4240   31.5290 H   0  0  0  0  0  0  0  0  0  0  0  0
   35.8430   26.7270   31.0260 H   0  0  0  0  0  0  0  0  0  0  0  0
   36.2100   28.5270   32.7510 H   0  0  0  0  0  0  0  0  0  0  0  0
   40.4360   21.8920   37.6540 O   0  0  0  0  0  0  0  0  0  0  0  0
   41.6820   21.6000   37.0800 C   0  0  0  0  0  0  0  0  0  0  0  0
   42.5020   21.4260   37.7730 H   0  0  0  0  0  0  0  0  0  0  0  0
   41.9300   21.5250   35.8510 O   0  0  0  0  0  0  0  0  0  0  0  0
  1  6  1  1  0  0  0
  1  2  1  0  0  0  0
  1  5  1  0  0  0  0
  2  7  1  6  0  0  0
  2  3  1  0  0  0  0
  3  4  1  0  0  0  0
  4  9  1  0  0  0  0
  4  8  1  0  0  0  0
  5 10  1  6  0  0  0
  5 23  1  0  0  0  0
  5  4  1  0  0  0  0
 11  1  1  0  0  0  0
 12 11  1  0  0  0  0
 13  2  1  0  0  0  0
 14 19  1  0  0  0  0
 15 14  2  0  0  0  0
 15 16  1  0  0  0  0
 16 17  2  0  0  0  0
 17 18  1  0  0  0  0
 18 13  1  0  0  0  0
 19 18  2  0  0  0  0
 20 14  1  0  0  0  0
 21 15  1  0  0  0  0
 22 16  1  0  0  0  0
 24 23  1  0  0  0  0
 24 25  1  0  0  0  0
 26 24  2  0  0  0  0
M  END
>  <minimizedAffinity>
-3.80139089

$$$$

 OpenBabel03272506443D

 26 27  0  0  1  0  0  0  0  0999 V2000
   38.8980   26.9560   35.8470 C   0  0  2  0  0  0  0  0  0  0  0  0
   39.5080   26.8070   34.4650 C   0  0  1  0  0  0  0  0  0  0  0  0
   39.8580   25.4900   34.3000 O   0  0  0  0  0  0  0  0  0  0  0  0
   39.3610   24.7530   35.3440 C   0  0  0  0  0  0  0  0  0  0  0  0
   38.2520   25.6040   35.9810 C   0  0  1  0  0  0  0  0  0  0  0  0
   39.6640   27.1290   36.6300 H   0  0  0  0  0  0  0  0  0  0  0  0
   40.3150   27.5380   34.3070 H   0  0  0  0  0  0  0  0  0  0  0  0
   38.8090   23.8860   34.8760 H   0  0  0  0  0  0  0  0  0  0  0  0
   40.1030   24.4200   36.0740 H   0  0  0  0  0  0  0  0  0  0  0  0
   37.3360   25.5450   35.3940 H   0  0  0  0  0  0  0  0  0  0  0  0
   37.9760   27.9890   35.8890 O   0  0  0  0  0  0  0  0  0  0  0  0
   38.1030   28.5380   36.6800 H   0  0  0  0  0  0  0  0  0  0  0  0
   38.1570   27.1870   33.2860 S   0  0  0  0  0  0  0  0  0  0  0  0
   38.4620   24.5610   30.3220 C   0  0  0  0  0  0  0  0  0  0  0  0
   37.5070   23.5840   30.6040 C   0  0  0  0  0  0  0  0  0  0  0  0
   36.7360   23.7370   31.7540 C   0  0  0  0  0  0  0  0  0  0  0  0
   36.9610   24.8260   32.5280 N   0  0  0  0  0  0  0  0  0  0  0  0
   37.8840   25.7570   32.2420 C   0  0  0  0  0  0  0  0  0  0  0  0
   38.6480   25.6360   31.1330 N   0  0  0  0  0  0  0  0  0  0  0  0
   39.1120   24.5330   29.4540 H   0  0  0  0  0  0  0  0  0  0  0  0
   37.3980   22.7460   29.9260 H   0  0  0  0  0  0  0  0  0  0  0  0
   35.9870   22.9950   31.9990 H   0  0  0  0  0  0  0  0  0  0  0  0
   38.0620   25.2050   37.2930 O   0  0  0  0  0  0  0  0  0  0  0  0
   38.3210   23.8870   37.6980 C   0  0  0  0  0  0  0  0  0  0  0  0
   39.2260   23.4310   37.3040 H   0  0  0  0  0  0  0  0  0  0  0  0
   37.6060   23.1960   38.4670 O   0  0  0  0  0  0  0  0  0  0  0  0
  1 11  1  0  0  0  0
  1  5  1  0  0  0  0
  1  6  1  1  0  0  0
  2  7  1  6  0  0  0
  2  1  1  0  0  0  0
  3  2  1  0  0  0  0
  3  4  1  0  0  0  0
  4  5  1  0  0  0  0
  4  9  1  0  0  0  0
  5 10  1  6  0  0  0
  5 23  1  0  0  0  0
  8  4  1  0  0  0  0
 11 12  1  0  0  0  0
 13  2  1  0  0  0  0
 14 15  2  0  0  0  0
 14 19  1  0  0  0  0
 15 16  1  0  0  0  0
 16 22  1  0  0  0  0
 16 17  2  0  0  0  0
 18 17  1  0  0  0  0
 18 13  1  0  0  0  0
 19 18  2  0  0  0  0
 20 14  1  0  0  0  0
 21 15  1  0  0  0  0
 23 24  1  0  0  0  0
 24 26  2  0  0  0  0
 25 24  1  0  0  0  0
M  END
>  <minimizedAffinity>
-3.79538321

$$$$

 OpenBabel03272506443D

 26 27  0  0  1  0  0  0  0  0999 V2000
   38.0490   23.8540   32.0140 C   0  0  2  0  0  0  0  0  0  0  0  0
   38.9540   23.4850   33.1760 C   0  0  1  0  0  0  0  0  0  0  0  0
   39.2720   24.6400   33.8440 O   0  0  0  0  0  0  0  0  0  0  0  0
   38.5150   25.6730   33.3530 C   0  0  0  0  0  0  0  0  0  0  0  0
   37.3290   25.0260   32.6210 C   0  0  1  0  0  0  0  0  0  0  0  0
   38.6220   24.1420   31.1080 H   0  0  0  0  0  0  0  0  0  0  0  0
   39.8080   22.8780   32.8370 H   0  0  0  0  0  0  0  0  0  0  0  0
   38.0470   26.1690   34.2520 H   0  0  0  0  0  0  0  0  0  0  0  0
   39.0550   26.3870   32.7250 H   0  0  0  0  0  0  0  0  0  0  0  0
   36.5720   24.6990   33.3320 H   0  0  0  0  0  0  0  0  0  0  0  0
   37.1900   22.8170   31.6870 O   0  0  0  0  0  0  0  0  0  0  0  0
   37.1570   22.6820   30.7250 H   0  0  0  0  0  0  0  0  0  0  0  0
   37.9280   22.4500   34.2890 S   0  0  0  0  0  0  0  0  0  0  0  0
   39.9300   22.6500   37.7140 C   0  0  0  0  0  0  0  0  0  0  0  0
   39.0940   23.3540   38.5810 C   0  0  0  0  0  0  0  0  0  0  0  0
   37.8630   23.7870   38.0930 C   0  0  0  0  0  0  0  0  0  0  0  0
   37.5520   23.4980   36.8070 N   0  0  0  0  0  0  0  0  0  0  0  0
   38.3680   22.8180   35.9860 C   0  0  0  0  0  0  0  0  0  0  0  0
   39.5690   22.3840   36.4290 N   0  0  0  0  0  0  0  0  0  0  0  0
   40.9060   22.2710   37.9950 H   0  0  0  0  0  0  0  0  0  0  0  0
   39.4280   23.5400   39.5940 H   0  0  0  0  0  0  0  0  0  0  0  0
   37.1940   24.3370   38.7430 H   0  0  0  0  0  0  0  0  0  0  0  0
   36.8260   25.9150   31.6870 O   0  0  0  0  0  0  0  0  0  0  0  0
   35.5060   25.8140   31.2220 C   0  0  0  0  0  0  0  0  0  0  0  0
   35.0350   26.7410   30.9030 H   0  0  0  0  0  0  0  0  0  0  0  0
   34.8290   24.7590   31.1440 O   0  0  0  0  0  0  0  0  0  0  0  0
  1  6  1  6  0  0  0
  1  5  1  0  0  0  0
  1  2  1  0  0  0  0
  2  7  1  6  0  0  0
  2  3  1  0  0  0  0
  2 13  1  0  0  0  0
  4  3  1  0  0  0  0
  4  8  1  0  0  0  0
  5 10  1  1  0  0  0
  5  4  1  0  0  0  0
  9  4  1  0  0  0  0
 11  1  1  0  0  0  0
 12 11  1  0  0  0  0
 13 18  1  0  0  0  0
 14 20  1  0  0  0  0
 14 15  1  0  0  0  0
 15 21  1  0  0  0  0
 16 15  2  0  0  0  0
 16 22  1  0  0  0  0
 17 16  1  0  0  0  0
 18 19  1  0  0  0  0
 18 17  2  0  0  0  0
 19 14  2  0  0  0  0
 23  5  1  0  0  0  0
 24 23  1  0  0  0  0
 25 24  1  0  0  0  0
 26 24  2  0  0  0  0
M  END
>  <minimizedAffinity>
-3.77243733

$$$$

 OpenBabel03272506443D

 26 27  0  0  1  0  0  0  0  0999 V2000
   37.1300   25.6460   31.2030 C   0  0  2  0  0  0  0  0  0  0  0  0
   37.2990   24.1400   31.3070 C   0  0  1  0  0  0  0  0  0  0  0  0
   37.8820   23.8660   32.5180 O   0  0  0  0  0  0  0  0  0  0  0  0
   37.9210   25.0100   33.2740 C   0  0  0  0  0  0  0  0  0  0  0  0
   36.8960   25.9700   32.6520 C   0  0  1  0  0  0  0  0  0  0  0  0
   38.0370   26.1460   30.8060 H   0  0  0  0  0  0  0  0  0  0  0  0
   37.8200   23.7380   30.4240 H   0  0  0  0  0  0  0  0  0  0  0  0
   37.4730   24.7360   34.2730 H   0  0  0  0  0  0  0  0  0  0  0  0
   38.9100   25.4640   33.3780 H   0  0  0  0  0  0  0  0  0  0  0  0
   35.8850   25.7030   32.9580 H   0  0  0  0  0  0  0  0  0  0  0  0
   36.0490   25.9830   30.4040 O   0  0  0  0  0  0  0  0  0  0  0  0
   36.2810   26.6960   29.7870 H   0  0  0  0  0  0  0  0  0  0  0  0
   35.6000   23.4530   31.3250 S   0  0  0  0  0  0  0  0  0  0  0  0
   35.5000   20.0260   33.3310 C   0  0  0  0  0  0  0  0  0  0  0  0
   35.8100   19.0460   32.3880 C   0  0  0  0  0  0  0  0  0  0  0  0
   36.0610   19.4540   31.0800 C   0  0  0  0  0  0  0  0  0  0  0  0
   35.9880   20.7780   30.8030 N   0  0  0  0  0  0  0  0  0  0  0  0
   35.6880   21.7090   31.7230 C   0  0  0  0  0  0  0  0  0  0  0  0
   35.4400   21.3440   33.0000 N   0  0  0  0  0  0  0  0  0  0  0  0
   35.2880   19.8130   34.3730 H   0  0  0  0  0  0  0  0  0  0  0  0
   35.8460   18.0100   32.7020 H   0  0  0  0  0  0  0  0  0  0  0  0
   36.3050   18.7160   30.3270 H   0  0  0  0  0  0  0  0  0  0  0  0
   37.2220   27.2720   32.9910 O   0  0  0  0  0  0  0  0  0  0  0  0
   36.2630   28.2960   32.9590 C   0  0  0  0  0  0  0  0  0  0  0  0
   36.4660   29.1650   33.5800 H   0  0  0  0  0  0  0  0  0  0  0  0
   35.2040   28.2950   32.2840 O   0  0  0  0  0  0  0  0  0  0  0  0
  1  6  1  6  0  0  0
  1  2  1  0  0  0  0
  1  5  1  0  0  0  0
  2  7  1  6  0  0  0
  2 13  1  0  0  0  0
  2  3  1  0  0  0  0
  3  4  1  0  0  0  0
  4  9  1  0  0  0  0
  4  8  1  0  0  0  0
  5 10  1  1  0  0  0
  5 23  1  0  0  0  0
  5  4  1  0  0  0  0
 11  1  1  0  0  0  0
 12 11  1  0  0  0  0
 13 18  1  0  0  0  0
 14 20  1  0  0  0  0
 15 21  1  0  0  0  0
 15 14  2  0  0  0  0
 16 15  1  0  0  0  0
 17 16  2  0  0  0  0
 17 18  1  0  0  0  0
 18 19  2  0  0  0  0
 19 14  1  0  0  0  0
 22 16  1  0  0  0  0
 24 23  1  0  0  0  0
 24 25  1  0  0  0  0
 26 24  2  0  0  0  0
M  END
>  <minimizedAffinity>
-3.76278329

$$$$
