
 OpenBabel03272501063D

 24 25  0  0  1  0  0  0  0  0999 V2000
   36.0080   20.3600   33.3300 C   0  0  2  0  0  0  0  0  0  0  0  0
   35.5180   21.2180   32.1300 C   0  0  2  0  0  0  0  0  0  0  0  0
   35.8800   20.3270   31.0180 C   0  0  0  0  0  0  0  0  0  0  0  0
   35.6160   19.0270   31.4390 O   0  0  0  0  0  0  0  0  0  0  0  0
   35.5560   19.0010   32.8090 C   0  0  0  0  0  0  0  0  0  0  0  0
   37.1000   20.4450   33.4330 H   0  0  0  0  0  0  0  0  0  0  0  0
   34.4110   21.2240   32.2920 H   0  0  0  0  0  0  0  0  0  0  0  0
   35.4160   20.5490   30.0490 H   0  0  0  0  0  0  0  0  0  0  0  0
   36.9900   20.3780   30.8570 H   0  0  0  0  0  0  0  0  0  0  0  0
   36.2830   18.2390   33.1770 H   0  0  0  0  0  0  0  0  0  0  0  0
   34.5580   18.8000   33.2240 H   0  0  0  0  0  0  0  0  0  0  0  0
   36.1740   24.8870   31.4850 C   0  0  0  0  0  0  0  0  0  0  0  0
   35.5220   23.6260   31.4480 C   0  0  0  0  0  0  0  0  0  0  0  0
   36.1130   22.5340   32.1370 C   0  0  0  0  0  0  0  0  0  0  0  0
   37.2960   22.7700   32.8060 N   0  0  0  0  0  0  0  0  0  0  0  0
   37.8760   23.9690   32.8170 C   0  0  0  0  0  0  0  0  0  0  0  0
   37.3350   25.0360   32.1660 N   0  0  0  0  0  0  0  0  0  0  0  0
   35.6330   25.6380   30.9280 H   0  0  0  0  0  0  0  0  0  0  0  0
   34.5910   23.4750   30.9110 H   0  0  0  0  0  0  0  0  0  0  0  0
   38.8160   24.1200   33.3590 H   0  0  0  0  0  0  0  0  0  0  0  0
   35.3030   20.7110   34.4790 O   0  0  0  0  0  0  0  0  0  0  0  0
   35.8350   20.8590   35.7390 C   0  0  0  0  0  0  0  0  0  0  0  0
   36.9290   20.7730   35.7010 H   0  0  0  0  0  0  0  0  0  0  0  0
   35.0820   21.0610   36.7280 O   0  0  0  0  0  0  0  0  0  0  0  0
  1  6  1  1  0  0  0
  1 21  1  0  0  0  0
  2 14  1  0  0  0  0
  2  7  1  1  0  0  0
  2  1  1  0  0  0  0
  3  4  1  0  0  0  0
  3  2  1  0  0  0  0
  4  5  1  0  0  0  0
  5 10  1  0  0  0  0
  5 11  1  0  0  0  0
  5  1  1  0  0  0  0
  8  3  1  0  0  0  0
  9  3  1  0  0  0  0
 12 17  1  0  0  0  0
 13 12  2  0  0  0  0
 13 14  1  0  0  0  0
 14 15  2  0  0  0  0
 15 16  1  0  0  0  0
 16 20  1  0  0  0  0
 17 16  2  0  0  0  0
 18 12  1  0  0  0  0
 19 13  1  0  0  0  0
 21 22  1  0  0  0  0
 22 24  2  0  0  0  0
 23 22  1  0  0  0  0
M  END
>  <minimizedAffinity>
-3.83080554

$$$$

 OpenBabel03272501063D

 24 25  0  0  1  0  0  0  0  0999 V2000
   38.1640   25.6590   34.1140 C   0  0  2  0  0  0  0  0  0  0  0  0
   37.8030   25.7120   35.6260 C   0  0  2  0  0  0  0  0  0  0  0  0
   38.1700   27.1040   35.9240 C   0  0  0  0  0  0  0  0  0  0  0  0
   37.7950   27.8660   34.8220 O   0  0  0  0  0  0  0  0  0  0  0  0
   37.6540   27.0440   33.7330 C   0  0  0  0  0  0  0  0  0  0  0  0
   39.2510   25.5470   33.9900 H   0  0  0  0  0  0  0  0  0  0  0  0
   36.6910   25.5900   35.5990 H   0  0  0  0  0  0  0  0  0  0  0  0
   37.7800   27.5170   36.8630 H   0  0  0  0  0  0  0  0  0  0  0  0
   39.2890   27.1800   35.9850 H   0  0  0  0  0  0  0  0  0  0  0  0
   38.3050   27.4300   32.9150 H   0  0  0  0  0  0  0  0  0  0  0  0
   36.6220   26.9310   33.3710 H   0  0  0  0  0  0  0  0  0  0  0  0
   38.7740   23.2680   38.3440 C   0  0  0  0  0  0  0  0  0  0  0  0
   38.0450   24.2770   37.6620 C   0  0  0  0  0  0  0  0  0  0  0  0
   38.4830   24.6800   36.3720 C   0  0  0  0  0  0  0  0  0  0  0  0
   39.6010   24.0560   35.8580 N   0  0  0  0  0  0  0  0  0  0  0  0
   40.2580   23.1130   36.5310 C   0  0  0  0  0  0  0  0  0  0  0  0
   39.8640   22.7050   37.7690 N   0  0  0  0  0  0  0  0  0  0  0  0
   38.3490   23.0460   39.3120 H   0  0  0  0  0  0  0  0  0  0  0  0
   37.1690   24.7470   38.0970 H   0  0  0  0  0  0  0  0  0  0  0  0
   41.1430   22.6400   36.0910 H   0  0  0  0  0  0  0  0  0  0  0  0
   37.4180   24.6650   33.4860 O   0  0  0  0  0  0  0  0  0  0  0  0
   37.0780   24.6290   32.1540 C   0  0  0  0  0  0  0  0  0  0  0  0
   37.9800   24.6910   31.5310 H   0  0  0  0  0  0  0  0  0  0  0  0
   35.8710   24.5370   31.8070 O   0  0  0  0  0  0  0  0  0  0  0  0
  1  6  1  6  0  0  0
  1  2  1  0  0  0  0
  2  7  1  1  0  0  0
  2  3  1  0  0  0  0
  2 14  1  0  0  0  0
  3  9  1  0  0  0  0
  3  8  1  0  0  0  0
  4  3  1  0  0  0  0
  5  1  1  0  0  0  0
  5  4  1  0  0  0  0
 10  5  1  0  0  0  0
 11  5  1  0  0  0  0
 12 18  1  0  0  0  0
 13 19  1  0  0  0  0
 13 12  2  0  0  0  0
 14 13  1  0  0  0  0
 15 14  2  0  0  0  0
 15 16  1  0  0  0  0
 16 17  2  0  0  0  0
 17 12  1  0  0  0  0
 20 16  1  0  0  0  0
 21  1  1  0  0  0  0
 22 21  1  0  0  0  0
 23 22  1  0  0  0  0
 24 22  2  0  0  0  0
M  END
>  <minimizedAffinity>
-3.74451542

$$$$

 OpenBabel03272501063D

 24 25  0  0  1  0  0  0  0  0999 V2000
   38.7400   26.3410   34.6400 C   0  0  2  0  0  0  0  0  0  0  0  0
   38.9570   24.8010   34.6720 C   0  0  2  0  0  0  0  0  0  0  0  0
   37.8910   24.3760   33.7540 C   0  0  0  0  0  0  0  0  0  0  0  0
   37.8420   25.3160   32.7290 O   0  0  0  0  0  0  0  0  0  0  0  0
   38.4430   26.4750   33.1510 C   0  0  0  0  0  0  0  0  0  0  0  0
   37.8860   26.6140   35.2780 H   0  0  0  0  0  0  0  0  0  0  0  0
   39.9620   24.7040   34.1900 H   0  0  0  0  0  0  0  0  0  0  0  0
   37.9640   23.3510   33.3700 H   0  0  0  0  0  0  0  0  0  0  0  0
   36.9040   24.4470   34.2840 H   0  0  0  0  0  0  0  0  0  0  0  0
   37.7180   27.3120   33.0240 H   0  0  0  0  0  0  0  0  0  0  0  0
   39.3890   26.7150   32.6430 H   0  0  0  0  0  0  0  0  0  0  0  0
   37.9610   24.1930   38.2700 C   0  0  0  0  0  0  0  0  0  0  0  0
   37.9380   24.7320   36.9570 C   0  0  0  0  0  0  0  0  0  0  0  0
   38.9070   24.2850   36.0200 C   0  0  0  0  0  0  0  0  0  0  0  0
   39.8200   23.3440   36.4500 N   0  0  0  0  0  0  0  0  0  0  0  0
   39.8080   22.8620   37.6920 C   0  0  0  0  0  0  0  0  0  0  0  0
   38.8920   23.2700   38.6140 N   0  0  0  0  0  0  0  0  0  0  0  0
   37.1790   24.6060   38.8910 H   0  0  0  0  0  0  0  0  0  0  0  0
   37.2050   25.4730   36.6520 H   0  0  0  0  0  0  0  0  0  0  0  0
   40.5490   22.1160   37.9990 H   0  0  0  0  0  0  0  0  0  0  0  0
   39.9250   26.9920   34.9710 O   0  0  0  0  0  0  0  0  0  0  0  0
   41.1780   26.6800   34.4970 C   0  0  0  0  0  0  0  0  0  0  0  0
   41.5070   25.7150   34.9040 H   0  0  0  0  0  0  0  0  0  0  0  0
   41.7750   27.4630   33.7120 O   0  0  0  0  0  0  0  0  0  0  0  0
  1  2  1  0  0  0  0
  1 21  1  0  0  0  0
  1  6  1  1  0  0  0
  2  7  1  6  0  0  0
  2 14  1  0  0  0  0
  3  9  1  0  0  0  0
  3  2  1  0  0  0  0
  4  5  1  0  0  0  0
  4  3  1  0  0  0  0
  5  1  1  0  0  0  0
  8  3  1  0  0  0  0
 10  5  1  0  0  0  0
 11  5  1  0  0  0  0
 12 17  1  0  0  0  0
 12 18  1  0  0  0  0
 13 12  2  0  0  0  0
 14 15  2  0  0  0  0
 14 13  1  0  0  0  0
 15 16  1  0  0  0  0
 16 20  1  0  0  0  0
 16 17  2  0  0  0  0
 19 13  1  0  0  0  0
 22 23  1  0  0  0  0
 22 21  1  0  0  0  0
 24 22  2  0  0  0  0
M  END
>  <minimizedAffinity>
-3.63956928

$$$$

 OpenBabel03272501063D

 24 25  0  0  1  0  0  0  0  0999 V2000
   38.1290   25.2120   34.0750 C   0  0  2  0  0  0  0  0  0  0  0  0
   38.7090   23.8140   34.4320 C   0  0  2  0  0  0  0  0  0  0  0  0
   37.7580   22.9550   33.7110 C   0  0  0  0  0  0  0  0  0  0  0  0
   37.4680   23.5940   32.5090 O   0  0  0  0  0  0  0  0  0  0  0  0
   37.7830   24.9250   32.6190 C   0  0  0  0  0  0  0  0  0  0  0  0
   37.2470   25.4250   34.6970 H   0  0  0  0  0  0  0  0  0  0  0  0
   39.6990   23.8380   33.9120 H   0  0  0  0  0  0  0  0  0  0  0  0
   38.0660   21.9130   33.5600 H   0  0  0  0  0  0  0  0  0  0  0  0
   36.7920   22.9210   34.2820 H   0  0  0  0  0  0  0  0  0  0  0  0
   36.8770   25.5220   32.3620 H   0  0  0  0  0  0  0  0  0  0  0  0
   38.6340   25.2490   32.0030 H   0  0  0  0  0  0  0  0  0  0  0  0
   39.9260   22.7860   37.8630 C   0  0  0  0  0  0  0  0  0  0  0  0
   39.9050   22.9480   36.4520 C   0  0  0  0  0  0  0  0  0  0  0  0
   38.8070   23.6280   35.8610 C   0  0  0  0  0  0  0  0  0  0  0  0
   37.8210   24.0950   36.7040 N   0  0  0  0  0  0  0  0  0  0  0  0
   37.8770   23.9240   38.0240 C   0  0  0  0  0  0  0  0  0  0  0  0
   38.9150   23.2750   38.6220 N   0  0  0  0  0  0  0  0  0  0  0  0
   40.8060   22.2560   38.1970 H   0  0  0  0  0  0  0  0  0  0  0  0
   40.6990   22.5660   35.8180 H   0  0  0  0  0  0  0  0  0  0  0  0
   37.0750   24.3080   38.6630 H   0  0  0  0  0  0  0  0  0  0  0  0
   39.1310   26.1750   34.1660 O   0  0  0  0  0  0  0  0  0  0  0  0
   39.2710   27.1030   35.1720 C   0  0  0  0  0  0  0  0  0  0  0  0
   40.3090   27.4600   35.2150 H   0  0  0  0  0  0  0  0  0  0  0  0
   38.2840   27.4240   35.8840 O   0  0  0  0  0  0  0  0  0  0  0  0
  1 21  1  0  0  0  0
  1  2  1  0  0  0  0
  1  6  1  1  0  0  0
  2  7  1  6  0  0  0
  2 14  1  0  0  0  0
  3  9  1  0  0  0  0
  3  2  1  0  0  0  0
  4  5  1  0  0  0  0
  4  3  1  0  0  0  0
  5  1  1  0  0  0  0
  8  3  1  0  0  0  0
 10  5  1  0  0  0  0
 11  5  1  0  0  0  0
 12 18  1  0  0  0  0
 12 17  1  0  0  0  0
 13 12  2  0  0  0  0
 14 13  1  0  0  0  0
 14 15  2  0  0  0  0
 15 16  1  0  0  0  0
 16 17  2  0  0  0  0
 16 20  1  0  0  0  0
 19 13  1  0  0  0  0
 21 22  1  0  0  0  0
 22 23  1  0  0  0  0
 22 24  2  0  0  0  0
M  END
>  <minimizedAffinity>
-3.59462714

$$$$

 OpenBabel03272501063D

 24 25  0  0  1  0  0  0  0  0999 V2000
   37.9680   21.9010   33.9550 C   0  0  2  0  0  0  0  0  0  0  0  0
   38.1000   23.3450   34.5170 C   0  0  2  0  0  0  0  0  0  0  0  0
   39.0960   23.8890   33.5830 C   0  0  0  0  0  0  0  0  0  0  0  0
   38.7960   23.3720   32.3260 O   0  0  0  0  0  0  0  0  0  0  0  0
   38.0200   22.2510   32.4730 C   0  0  0  0  0  0  0  0  0  0  0  0
   38.8200   21.2880   34.2860 H   0  0  0  0  0  0  0  0  0  0  0  0
   37.0850   23.7640   34.3060 H   0  0  0  0  0  0  0  0  0  0  0  0
   39.1990   24.9810   33.5660 H   0  0  0  0  0  0  0  0  0  0  0  0
   40.1070   23.4800   33.8500 H   0  0  0  0  0  0  0  0  0  0  0  0
   38.5190   21.4070   31.9430 H   0  0  0  0  0  0  0  0  0  0  0  0
   36.9840   22.3580   32.1200 H   0  0  0  0  0  0  0  0  0  0  0  0
   39.9160   22.7690   37.7840 C   0  0  0  0  0  0  0  0  0  0  0  0
   39.6500   22.7500   36.3890 C   0  0  0  0  0  0  0  0  0  0  0  0
   38.4480   23.3420   35.9180 C   0  0  0  0  0  0  0  0  0  0  0  0
   37.6060   23.9040   36.8560 N   0  0  0  0  0  0  0  0  0  0  0  0
   37.8930   23.9000   38.1570 C   0  0  0  0  0  0  0  0  0  0  0  0
   39.0370   23.3420   38.6410 N   0  0  0  0  0  0  0  0  0  0  0  0
   40.8560   22.2920   38.0220 H   0  0  0  0  0  0  0  0  0  0  0  0
   40.3350   22.2990   35.6790 H   0  0  0  0  0  0  0  0  0  0  0  0
   37.2000   24.3560   38.8730 H   0  0  0  0  0  0  0  0  0  0  0  0
   36.7260   21.3730   34.2980 O   0  0  0  0  0  0  0  0  0  0  0  0
   35.8030   20.8460   33.4260 C   0  0  0  0  0  0  0  0  0  0  0  0
   35.4740   21.6150   32.7140 H   0  0  0  0  0  0  0  0  0  0  0  0
   35.4550   19.6400   33.5190 O   0  0  0  0  0  0  0  0  0  0  0  0
  1  6  1  1  0  0  0
  1 21  1  0  0  0  0
  1  2  1  0  0  0  0
  2  7  1  6  0  0  0
  2 14  1  0  0  0  0
  3  9  1  0  0  0  0
  3  2  1  0  0  0  0
  4  5  1  0  0  0  0
  4  3  1  0  0  0  0
  5  1  1  0  0  0  0
  8  3  1  0  0  0  0
 10  5  1  0  0  0  0
 11  5  1  0  0  0  0
 12 18  1  0  0  0  0
 12 17  1  0  0  0  0
 13 12  2  0  0  0  0
 14 13  1  0  0  0  0
 14 15  2  0  0  0  0
 15 16  1  0  0  0  0
 16 17  2  0  0  0  0
 16 20  1  0  0  0  0
 19 13  1  0  0  0  0
 22 24  2  0  0  0  0
 22 21  1  0  0  0  0
 23 22  1  0  0  0  0
M  END
>  <minimizedAffinity>
-3.59301496

$$$$

 OpenBabel03272501063D

 24 25  0  0  1  0  0  0  0  0999 V2000
   42.0070   22.8980   35.7090 C   0  0  2  0  0  0  0  0  0  0  0  0
   41.3810   22.5080   37.0780 C   0  0  2  0  0  0  0  0  0  0  0  0
   41.9000   21.1390   37.2120 C   0  0  0  0  0  0  0  0  0  0  0  0
   43.2030   21.1520   36.7230 O   0  0  0  0  0  0  0  0  0  0  0  0
   43.3700   22.2470   35.9140 C   0  0  0  0  0  0  0  0  0  0  0  0
   41.4300   22.4470   34.8880 H   0  0  0  0  0  0  0  0  0  0  0  0
   41.9070   23.2050   37.7760 H   0  0  0  0  0  0  0  0  0  0  0  0
   41.8400   20.6950   38.2140 H   0  0  0  0  0  0  0  0  0  0  0  0
   41.3210   20.4610   36.5290 H   0  0  0  0  0  0  0  0  0  0  0  0
   43.7310   21.8970   34.9190 H   0  0  0  0  0  0  0  0  0  0  0  0
   44.0490   23.0140   36.3130 H   0  0  0  0  0  0  0  0  0  0  0  0
   37.8370   23.3440   38.1010 C   0  0  0  0  0  0  0  0  0  0  0  0
   39.2510   23.2360   38.1710 C   0  0  0  0  0  0  0  0  0  0  0  0
   39.9450   22.6670   37.0710 C   0  0  0  0  0  0  0  0  0  0  0  0
   39.1930   22.2520   35.9910 N   0  0  0  0  0  0  0  0  0  0  0  0
   37.8670   22.3710   35.9640 C   0  0  0  0  0  0  0  0  0  0  0  0
   37.1720   22.9110   37.0030 N   0  0  0  0  0  0  0  0  0  0  0  0
   37.4210   23.7910   38.9930 H   0  0  0  0  0  0  0  0  0  0  0  0
   39.8110   23.5730   39.0380 H   0  0  0  0  0  0  0  0  0  0  0  0
   37.3020   22.0290   35.0900 H   0  0  0  0  0  0  0  0  0  0  0  0
   42.1260   24.2830   35.6230 O   0  0  0  0  0  0  0  0  0  0  0  0
   41.4500   25.0980   34.7460 C   0  0  0  0  0  0  0  0  0  0  0  0
   40.6460   24.5380   34.2510 H   0  0  0  0  0  0  0  0  0  0  0  0
   41.7900   26.3030   34.6060 O   0  0  0  0  0  0  0  0  0  0  0  0
  1  6  1  6  0  0  0
  1  5  1  0  0  0  0
  1  2  1  0  0  0  0
  2  3  1  0  0  0  0
  2  7  1  1  0  0  0
  3  8  1  0  0  0  0
  4  3  1  0  0  0  0
  5 11  1  0  0  0  0
  5  4  1  0  0  0  0
  9  3  1  0  0  0  0
 10  5  1  0  0  0  0
 12 13  1  0  0  0  0
 12 18  1  0  0  0  0
 13 19  1  0  0  0  0
 14  2  1  0  0  0  0
 14 13  2  0  0  0  0
 15 14  1  0  0  0  0
 16 15  2  0  0  0  0
 16 17  1  0  0  0  0
 17 12  2  0  0  0  0
 20 16  1  0  0  0  0
 21  1  1  0  0  0  0
 22 21  1  0  0  0  0
 23 22  1  0  0  0  0
 24 22  2  0  0  0  0
M  END
>  <minimizedAffinity>
-3.59011793

$$$$

 OpenBabel03272501063D

 24 25  0  0  1  0  0  0  0  0999 V2000
   39.5010   23.5660   36.0140 C   0  0  2  0  0  0  0  0  0  0  0  0
   38.6030   24.7720   36.4110 C   0  0  2  0  0  0  0  0  0  0  0  0
   37.6730   24.1010   37.3310 C   0  0  0  0  0  0  0  0  0  0  0  0
   38.4190   23.1800   38.0600 O   0  0  0  0  0  0  0  0  0  0  0  0
   39.5840   22.9100   37.3870 C   0  0  0  0  0  0  0  0  0  0  0  0
   38.9880   22.9440   35.2650 H   0  0  0  0  0  0  0  0  0  0  0  0
   39.3230   25.4170   36.9730 H   0  0  0  0  0  0  0  0  0  0  0  0
   37.0770   24.7550   37.9800 H   0  0  0  0  0  0  0  0  0  0  0  0
   36.9400   23.4970   36.7320 H   0  0  0  0  0  0  0  0  0  0  0  0
   39.6520   21.8090   37.2320 H   0  0  0  0  0  0  0  0  0  0  0  0
   40.4950   23.2790   37.8780 H   0  0  0  0  0  0  0  0  0  0  0  0
   37.0130   27.3210   34.1130 C   0  0  0  0  0  0  0  0  0  0  0  0
   37.5830   26.7620   35.2870 C   0  0  0  0  0  0  0  0  0  0  0  0
   38.0290   25.4140   35.2510 C   0  0  0  0  0  0  0  0  0  0  0  0
   37.8810   24.7270   34.0640 N   0  0  0  0  0  0  0  0  0  0  0  0
   37.3410   25.2880   32.9840 C   0  0  0  0  0  0  0  0  0  0  0  0
   36.9020   26.5770   32.9860 N   0  0  0  0  0  0  0  0  0  0  0  0
   36.7110   28.3480   34.2590 H   0  0  0  0  0  0  0  0  0  0  0  0
   37.6840   27.3320   36.2050 H   0  0  0  0  0  0  0  0  0  0  0  0
   37.2380   24.7110   32.0580 H   0  0  0  0  0  0  0  0  0  0  0  0
   40.7510   24.0240   35.6060 O   0  0  0  0  0  0  0  0  0  0  0  0
   41.9590   23.4220   35.8720 C   0  0  0  0  0  0  0  0  0  0  0  0
   41.8590   22.3310   35.8070 H   0  0  0  0  0  0  0  0  0  0  0  0
   42.9720   24.1200   36.1400 O   0  0  0  0  0  0  0  0  0  0  0  0
  1  6  1  6  0  0  0
  1  2  1  0  0  0  0
  1  5  1  0  0  0  0
  2  7  1  1  0  0  0
  2  3  1  0  0  0  0
  3  8  1  0  0  0  0
  3  4  1  0  0  0  0
  5 11  1  0  0  0  0
  5  4  1  0  0  0  0
  9  3  1  0  0  0  0
 10  5  1  0  0  0  0
 12 18  1  0  0  0  0
 12 13  1  0  0  0  0
 13 19  1  0  0  0  0
 14 13  2  0  0  0  0
 14  2  1  0  0  0  0
 15 14  1  0  0  0  0
 16 17  1  0  0  0  0
 16 15  2  0  0  0  0
 17 12  2  0  0  0  0
 20 16  1  0  0  0  0
 21 22  1  0  0  0  0
 21  1  1  0  0  0  0
 22 24  2  0  0  0  0
 23 22  1  0  0  0  0
M  END
>  <minimizedAffinity>
-3.58769965

$$$$

 OpenBabel03272501063D

 24 25  0  0  1  0  0  0  0  0999 V2000
   37.9550   26.6090   34.7910 C   0  0  2  0  0  0  0  0  0  0  0  0
   38.4040   25.8550   33.5070 C   0  0  2  0  0  0  0  0  0  0  0  0
   39.4640   26.7600   33.0400 C   0  0  0  0  0  0  0  0  0  0  0  0
   40.1370   27.2120   34.1710 O   0  0  0  0  0  0  0  0  0  0  0  0
   39.3370   27.0360   35.2720 C   0  0  0  0  0  0  0  0  0  0  0  0
   37.3080   27.4570   34.5230 H   0  0  0  0  0  0  0  0  0  0  0  0
   38.8390   24.9170   33.9340 H   0  0  0  0  0  0  0  0  0  0  0  0
   40.1500   26.3540   32.2860 H   0  0  0  0  0  0  0  0  0  0  0  0
   38.9910   27.6690   32.5800 H   0  0  0  0  0  0  0  0  0  0  0  0
   39.2280   28.0180   35.7860 H   0  0  0  0  0  0  0  0  0  0  0  0
   39.6920   26.2760   35.9820 H   0  0  0  0  0  0  0  0  0  0  0  0
   35.8190   24.1660   31.3230 C   0  0  0  0  0  0  0  0  0  0  0  0
   36.9070   24.3140   32.2220 C   0  0  0  0  0  0  0  0  0  0  0  0
   37.2950   25.6240   32.6100 C   0  0  0  0  0  0  0  0  0  0  0  0
   36.5820   26.6810   32.0830 N   0  0  0  0  0  0  0  0  0  0  0  0
   35.5660   26.4990   31.2410 C   0  0  0  0  0  0  0  0  0  0  0  0
   35.1690   25.2560   30.8490 N   0  0  0  0  0  0  0  0  0  0  0  0
   35.6160   23.1280   31.1020 H   0  0  0  0  0  0  0  0  0  0  0  0
   37.4470   23.4600   32.6180 H   0  0  0  0  0  0  0  0  0  0  0  0
   35.0220   27.3620   30.8410 H   0  0  0  0  0  0  0  0  0  0  0  0
   37.3730   25.7140   35.6840 O   0  0  0  0  0  0  0  0  0  0  0  0
   38.0210   24.6990   36.3500 C   0  0  0  0  0  0  0  0  0  0  0  0
   39.0690   24.6440   36.0270 H   0  0  0  0  0  0  0  0  0  0  0  0
   37.4040   23.9950   37.1920 O   0  0  0  0  0  0  0  0  0  0  0  0
  1  6  1  6  0  0  0
  1  5  1  0  0  0  0
  1 21  1  0  0  0  0
  2  7  1  1  0  0  0
  2  1  1  0  0  0  0
  3  2  1  0  0  0  0
  3  4  1  0  0  0  0
  4  5  1  0  0  0  0
  5 10  1  0  0  0  0
  5 11  1  0  0  0  0
  8  3  1  0  0  0  0
  9  3  1  0  0  0  0
 12 13  1  0  0  0  0
 13 14  2  0  0  0  0
 13 19  1  0  0  0  0
 14  2  1  0  0  0  0
 15 14  1  0  0  0  0
 16 15  2  0  0  0  0
 17 16  1  0  0  0  0
 17 12  2  0  0  0  0
 18 12  1  0  0  0  0
 20 16  1  0  0  0  0
 21 22  1  0  0  0  0
 22 24  2  0  0  0  0
 23 22  1  0  0  0  0
M  END
>  <minimizedAffinity>
-3.5481391

$$$$

 OpenBabel03272501063D

 24 25  0  0  1  0  0  0  0  0999 V2000
   38.9700   25.0540   33.5400 C   0  0  2  0  0  0  0  0  0  0  0  0
   38.8060   25.7780   34.9070 C   0  0  2  0  0  0  0  0  0  0  0  0
   39.9120   26.7420   34.8160 C   0  0  0  0  0  0  0  0  0  0  0  0
   39.9560   27.1820   33.4970 O   0  0  0  0  0  0  0  0  0  0  0  0
   39.3030   26.2790   32.6970 C   0  0  0  0  0  0  0  0  0  0  0  0
   39.7950   24.3270   33.5950 H   0  0  0  0  0  0  0  0  0  0  0  0
   37.8190   26.2890   34.7760 H   0  0  0  0  0  0  0  0  0  0  0  0
   39.8870   27.5760   35.5280 H   0  0  0  0  0  0  0  0  0  0  0  0
   40.8810   26.2030   34.9930 H   0  0  0  0  0  0  0  0  0  0  0  0
   40.0010   25.9550   31.8910 H   0  0  0  0  0  0  0  0  0  0  0  0
   38.3650   26.6460   32.2580 H   0  0  0  0  0  0  0  0  0  0  0  0
   39.6680   22.8400   37.1280 C   0  0  0  0  0  0  0  0  0  0  0  0
   39.7060   23.7230   36.0170 C   0  0  0  0  0  0  0  0  0  0  0  0
   38.8360   24.8460   36.0100 C   0  0  0  0  0  0  0  0  0  0  0  0
   38.0010   25.0100   37.0960 N   0  0  0  0  0  0  0  0  0  0  0  0
   37.9960   24.1580   38.1200 C   0  0  0  0  0  0  0  0  0  0  0  0
   38.8170   23.0720   38.1560 N   0  0  0  0  0  0  0  0  0  0  0  0
   40.3710   22.0270   37.0220 H   0  0  0  0  0  0  0  0  0  0  0  0
   40.3760   23.5640   35.1780 H   0  0  0  0  0  0  0  0  0  0  0  0
   37.3180   24.3190   38.9650 H   0  0  0  0  0  0  0  0  0  0  0  0
   37.7530   24.4990   33.1520 O   0  0  0  0  0  0  0  0  0  0  0  0
   36.8700   25.0410   32.2470 C   0  0  0  0  0  0  0  0  0  0  0  0
   37.1810   26.0590   31.9790 H   0  0  0  0  0  0  0  0  0  0  0  0
   35.8780   24.3760   31.8500 O   0  0  0  0  0  0  0  0  0  0  0  0
  1  6  1  1  0  0  0
  1  2  1  0  0  0  0
  2  7  1  1  0  0  0
  2 14  1  0  0  0  0
  3  2  1  0  0  0  0
  3  9  1  0  0  0  0
  3  8  1  0  0  0  0
  4  3  1  0  0  0  0
  5  4  1  0  0  0  0
  5  1  1  0  0  0  0
 10  5  1  0  0  0  0
 11  5  1  0  0  0  0
 12 17  1  0  0  0  0
 13 12  2  0  0  0  0
 14 13  1  0  0  0  0
 14 15  2  0  0  0  0
 15 16  1  0  0  0  0
 16 17  2  0  0  0  0
 16 20  1  0  0  0  0
 18 12  1  0  0  0  0
 19 13  1  0  0  0  0
 21  1  1  0  0  0  0
 22 21  1  0  0  0  0
 23 22  1  0  0  0  0
 24 22  2  0  0  0  0
M  END
>  <minimizedAffinity>
-3.46776366

$$$$
