
 OpenBabel03272504233D

 33 34  0  0  1  0  0  0  0  0999 V2000
   36.6110   27.5820   34.9120 O   0  0  0  0  0  0  0  0  0  0  0  0
   37.9670   26.9310   34.9530 P   0  0  2  0  0  0  0  0  0  0  0  0
   38.8440   27.6060   36.2540 O   0  0  0  0  0  0  0  0  0  0  0  0
   39.5620   26.9410   36.4610 H   0  0  0  0  0  0  0  0  0  0  0  0
   38.7980   27.2230   33.4970 O   0  0  0  0  0  0  0  0  0  0  0  0
   37.8380   27.3260   32.5050 C   0  0  0  0  0  0  0  0  0  0  0  0
   38.2510   28.0040   31.7090 H   0  0  0  0  0  0  0  0  0  0  0  0
   36.9210   27.8400   32.8600 H   0  0  0  0  0  0  0  0  0  0  0  0
   37.5240   26.0370   31.8520 C   0  0  0  0  0  0  0  0  0  0  0  0
   38.4890   25.5010   31.0350 C   0  0  0  0  0  0  0  0  0  0  0  0
   38.2520   24.2840   30.3890 C   0  0  0  0  0  0  0  0  0  0  0  0
   37.0460   23.6920   30.6190 N   0  0  0  0  0  0  0  0  0  0  0  0
   36.1080   24.2380   31.4290 C   0  0  0  0  0  0  0  0  0  0  0  0
   36.3450   25.4230   32.0540 N   0  0  0  0  0  0  0  0  0  0  0  0
   39.4650   25.8900   30.7930 H   0  0  0  0  0  0  0  0  0  0  0  0
   38.9490   23.7930   29.7340 H   0  0  0  0  0  0  0  0  0  0  0  0
   35.1660   23.7460   31.5890 H   0  0  0  0  0  0  0  0  0  0  0  0
   37.7830   25.2760   35.2000 O   0  0  0  0  0  0  0  0  0  0  0  0
   38.6060   23.3440   36.1910 C   0  0  2  0  0  0  0  0  0  0  0  0
   38.9640   24.6310   35.4960 C   0  0  1  0  0  0  0  0  0  0  0  0
   39.5340   24.0250   34.2030 C   0  0  0  0  0  0  0  0  0  0  0  0
   38.5360   23.1500   33.8480 O   0  0  0  0  0  0  0  0  0  0  0  0
   38.0620   22.5460   34.9920 C   0  0  0  0  0  0  0  0  0  0  0  0
   39.4760   22.8040   36.5730 H   0  0  0  0  0  0  0  0  0  0  0  0
   39.7080   25.2400   36.0360 H   0  0  0  0  0  0  0  0  0  0  0  0
   40.4900   23.5160   34.5140 H   0  0  0  0  0  0  0  0  0  0  0  0
   39.7120   24.7820   33.4380 H   0  0  0  0  0  0  0  0  0  0  0  0
   38.3230   21.4850   35.0790 H   0  0  0  0  0  0  0  0  0  0  0  0
   36.9490   22.6640   34.9760 H   0  0  0  0  0  0  0  0  0  0  0  0
   37.6060   23.6140   37.1190 O   0  0  0  0  0  0  0  0  0  0  0  0
   37.9450   23.7630   38.4670 C   0  0  0  0  0  0  0  0  0  0  0  0
   38.1710   22.9030   39.1060 H   0  0  0  0  0  0  0  0  0  0  0  0
   37.9810   24.9450   38.9290 O   0  0  0  0  0  0  0  0  0  0  0  0
  2  1  2  6  0  0  0
  2 18  1  0  0  0  0
  2  3  1  0  0  0  0
  3  4  1  0  0  0  0
  5  2  1  0  0  0  0
  6  8  1  0  0  0  0
  6  5  1  0  0  0  0
  7  6  1  0  0  0  0
  9 14  1  0  0  0  0
  9  6  1  0  0  0  0
 10  9  2  0  0  0  0
 11 12  2  0  0  0  0
 11 10  1  0  0  0  0
 12 13  1  0  0  0  0
 13 17  1  0  0  0  0
 13 14  2  0  0  0  0
 15 10  1  0  0  0  0
 16 11  1  0  0  0  0
 18 20  1  0  0  0  0
 19 24  1  1  0  0  0
 19 30  1  0  0  0  0
 20 25  1  1  0  0  0
 20 19  1  0  0  0  0
 21 26  1  0  0  0  0
 21 20  1  0  0  0  0
 22 21  1  0  0  0  0
 22 23  1  0  0  0  0
 23 28  1  0  0  0  0
 23 19  1  0  0  0  0
 27 21  1  0  0  0  0
 29 23  1  0  0  0  0
 30 31  1  0  0  0  0
 31 33  2  0  0  0  0
 31 32  1  0  0  0  0
M  END
>  <minimizedAffinity>
-4.37722778

$$$$

 OpenBabel03272504233D

 33 34  0  0  1  0  0  0  0  0999 V2000
   36.8800   26.2920   35.2830 O   0  0  0  0  0  0  0  0  0  0  0  0
   38.3810   26.3920   35.3020 P   0  0  2  0  0  0  0  0  0  0  0  0
   38.8170   27.6730   36.3450 O   0  0  0  0  0  0  0  0  0  0  0  0
   39.7680   27.4940   36.5980 H   0  0  0  0  0  0  0  0  0  0  0  0
   38.9640   26.7120   33.7360 O   0  0  0  0  0  0  0  0  0  0  0  0
   38.7490   25.5670   32.9890 C   0  0  0  0  0  0  0  0  0  0  0  0
   38.6780   24.7070   33.7080 H   0  0  0  0  0  0  0  0  0  0  0  0
   39.6160   25.3180   32.3430 H   0  0  0  0  0  0  0  0  0  0  0  0
   37.4860   25.5930   32.2220 C   0  0  0  0  0  0  0  0  0  0  0  0
   36.8240   24.3980   32.0720 C   0  0  0  0  0  0  0  0  0  0  0  0
   35.6240   24.3570   31.3570 C   0  0  0  0  0  0  0  0  0  0  0  0
   35.1760   25.5360   30.8400 N   0  0  0  0  0  0  0  0  0  0  0  0
   35.8440   26.7030   31.0000 C   0  0  0  0  0  0  0  0  0  0  0  0
   37.0120   26.7370   31.6970 N   0  0  0  0  0  0  0  0  0  0  0  0
   37.0950   23.4220   32.4390 H   0  0  0  0  0  0  0  0  0  0  0  0
   35.0410   23.4680   31.1900 H   0  0  0  0  0  0  0  0  0  0  0  0
   35.4630   27.6160   30.5800 H   0  0  0  0  0  0  0  0  0  0  0  0
   39.0280   24.9510   35.8840 O   0  0  0  0  0  0  0  0  0  0  0  0
   38.7410   22.6480   35.9490 C   0  0  2  0  0  0  0  0  0  0  0  0
   38.0770   23.9870   36.1390 C   0  0  1  0  0  0  0  0  0  0  0  0
   37.8540   23.9020   37.6570 C   0  0  0  0  0  0  0  0  0  0  0  0
   39.1020   23.5340   38.0980 O   0  0  0  0  0  0  0  0  0  0  0  0
   39.6200   22.6150   37.2120 C   0  0  0  0  0  0  0  0  0  0  0  0
   38.0430   21.8090   36.0170 H   0  0  0  0  0  0  0  0  0  0  0  0
   37.1320   24.1020   35.5820 H   0  0  0  0  0  0  0  0  0  0  0  0
   37.0730   23.1000   37.7960 H   0  0  0  0  0  0  0  0  0  0  0  0
   37.5300   24.8540   38.0790 H   0  0  0  0  0  0  0  0  0  0  0  0
   39.6900   21.5970   37.6120 H   0  0  0  0  0  0  0  0  0  0  0  0
   40.6400   22.9840   36.9320 H   0  0  0  0  0  0  0  0  0  0  0  0
   39.5110   22.7040   34.7930 O   0  0  0  0  0  0  0  0  0  0  0  0
   39.1790   21.8860   33.7080 C   0  0  0  0  0  0  0  0  0  0  0  0
   39.9090   21.6230   32.9360 H   0  0  0  0  0  0  0  0  0  0  0  0
   37.9860   21.4550   33.6510 O   0  0  0  0  0  0  0  0  0  0  0  0
  2  1  2  6  0  0  0
  2 18  1  0  0  0  0
  2  3  1  0  0  0  0
  3  4  1  0  0  0  0
  5  2  1  0  0  0  0
  6  7  1  0  0  0  0
  6  5  1  0  0  0  0
  8  6  1  0  0  0  0
  9  6  1  0  0  0  0
 10  9  1  0  0  0  0
 10 15  1  0  0  0  0
 11 10  2  0  0  0  0
 12 13  2  0  0  0  0
 12 11  1  0  0  0  0
 13 14  1  0  0  0  0
 14  9  2  0  0  0  0
 16 11  1  0  0  0  0
 17 13  1  0  0  0  0
 18 20  1  0  0  0  0
 19 24  1  6  0  0  0
 19 20  1  0  0  0  0
 19 23  1  0  0  0  0
 20 25  1  6  0  0  0
 20 21  1  0  0  0  0
 21 26  1  0  0  0  0
 21 27  1  0  0  0  0
 21 22  1  0  0  0  0
 23 28  1  0  0  0  0
 23 22  1  0  0  0  0
 29 23  1  0  0  0  0
 30 19  1  0  0  0  0
 31 30  1  0  0  0  0
 32 31  1  0  0  0  0
 33 31  2  0  0  0  0
M  END
>  <minimizedAffinity>
-4.35878515

$$$$

 OpenBabel03272504233D

 33 34  0  0  1  0  0  0  0  0999 V2000
   39.1190   27.2510   35.3420 O   0  0  0  0  0  0  0  0  0  0  0  0
   40.0000   26.1580   34.8020 P   0  0  2  0  0  0  0  0  0  0  0  0
   41.6030   26.7450   34.7400 O   0  0  0  0  0  0  0  0  0  0  0  0
   42.1820   25.9300   34.7160 H   0  0  0  0  0  0  0  0  0  0  0  0
   39.4950   25.7200   33.2370 O   0  0  0  0  0  0  0  0  0  0  0  0
   38.3750   26.4810   32.9530 C   0  0  0  0  0  0  0  0  0  0  0  0
   38.6880   27.2830   32.2320 H   0  0  0  0  0  0  0  0  0  0  0  0
   38.0070   27.0350   33.8420 H   0  0  0  0  0  0  0  0  0  0  0  0
   37.2910   25.7140   32.3020 C   0  0  0  0  0  0  0  0  0  0  0  0
   36.3250   26.4370   31.6460 C   0  0  0  0  0  0  0  0  0  0  0  0
   35.2740   25.7700   31.0100 C   0  0  0  0  0  0  0  0  0  0  0  0
   35.2760   24.4090   31.0840 N   0  0  0  0  0  0  0  0  0  0  0  0
   36.2390   23.7160   31.7370 C   0  0  0  0  0  0  0  0  0  0  0  0
   37.2590   24.3710   32.3540 N   0  0  0  0  0  0  0  0  0  0  0  0
   36.2370   27.5050   31.5320 H   0  0  0  0  0  0  0  0  0  0  0  0
   34.4770   26.2540   30.4750 H   0  0  0  0  0  0  0  0  0  0  0  0
   36.2110   22.6420   31.7760 H   0  0  0  0  0  0  0  0  0  0  0  0
   39.9320   24.8270   35.8320 O   0  0  0  0  0  0  0  0  0  0  0  0
   39.0440   22.7650   36.4240 C   0  0  2  0  0  0  0  0  0  0  0  0
   38.8470   24.0100   35.6010 C   0  0  1  0  0  0  0  0  0  0  0  0
   37.6330   24.5760   36.3560 C   0  0  0  0  0  0  0  0  0  0  0  0
   38.0660   24.5130   37.6580 O   0  0  0  0  0  0  0  0  0  0  0  0
   38.7610   23.3350   37.8260 C   0  0  0  0  0  0  0  0  0  0  0  0
   38.2920   21.9960   36.2290 H   0  0  0  0  0  0  0  0  0  0  0  0
   38.6250   23.8150   34.5390 H   0  0  0  0  0  0  0  0  0  0  0  0
   36.7870   23.8660   36.1270 H   0  0  0  0  0  0  0  0  0  0  0  0
   37.3950   25.5950   36.0480 H   0  0  0  0  0  0  0  0  0  0  0  0
   38.2470   22.5960   38.4510 H   0  0  0  0  0  0  0  0  0  0  0  0
   39.7420   23.6090   38.2910 H   0  0  0  0  0  0  0  0  0  0  0  0
   40.3690   22.3640   36.2950 O   0  0  0  0  0  0  0  0  0  0  0  0
   41.0450   21.8610   37.4110 C   0  0  0  0  0  0  0  0  0  0  0  0
   40.7900   22.1690   38.4300 H   0  0  0  0  0  0  0  0  0  0  0  0
   41.9750   21.0240   37.1970 O   0  0  0  0  0  0  0  0  0  0  0  0
  2  1  2  1  0  0  0
  2 18  1  0  0  0  0
  3  2  1  0  0  0  0
  4  3  1  0  0  0  0
  5  2  1  0  0  0  0
  6  5  1  0  0  0  0
  6  8  1  0  0  0  0
  7  6  1  0  0  0  0
  9 14  1  0  0  0  0
  9  6  1  0  0  0  0
 10  9  2  0  0  0  0
 11 12  2  0  0  0  0
 11 10  1  0  0  0  0
 12 13  1  0  0  0  0
 13 17  1  0  0  0  0
 13 14  2  0  0  0  0
 15 10  1  0  0  0  0
 16 11  1  0  0  0  0
 19 24  1  6  0  0  0
 19 23  1  0  0  0  0
 20 25  1  6  0  0  0
 20 18  1  0  0  0  0
 20 21  1  0  0  0  0
 20 19  1  0  0  0  0
 21 22  1  0  0  0  0
 22 23  1  0  0  0  0
 23 29  1  0  0  0  0
 23 28  1  0  0  0  0
 26 21  1  0  0  0  0
 27 21  1  0  0  0  0
 30 19  1  0  0  0  0
 30 31  1  0  0  0  0
 31 32  1  0  0  0  0
 33 31  2  0  0  0  0
M  END
>  <minimizedAffinity>
-4.27059078

$$$$

 OpenBabel03272504233D

 33 34  0  0  1  0  0  0  0  0999 V2000
   38.9780   27.3700   35.8260 O   0  0  0  0  0  0  0  0  0  0  0  0
   39.6400   26.5670   34.7410 P   0  0  2  0  0  0  0  0  0  0  0  0
   41.3270   26.5980   35.0070 O   0  0  0  0  0  0  0  0  0  0  0  0
   41.6880   25.8100   34.5080 H   0  0  0  0  0  0  0  0  0  0  0  0
   39.2940   27.2450   33.2190 O   0  0  0  0  0  0  0  0  0  0  0  0
   38.0420   26.7840   32.8530 C   0  0  0  0  0  0  0  0  0  0  0  0
   37.6670   26.1340   33.6890 H   0  0  0  0  0  0  0  0  0  0  0  0
   38.0840   26.1080   31.9730 H   0  0  0  0  0  0  0  0  0  0  0  0
   37.0480   27.8620   32.6650 C   0  0  0  0  0  0  0  0  0  0  0  0
   36.9500   28.4060   31.4070 C   0  0  0  0  0  0  0  0  0  0  0  0
   36.0280   29.4290   31.1660 C   0  0  0  0  0  0  0  0  0  0  0  0
   35.2670   29.8310   32.2220 N   0  0  0  0  0  0  0  0  0  0  0  0
   35.3800   29.2810   33.4550 C   0  0  0  0  0  0  0  0  0  0  0  0
   36.2790   28.2860   33.6830 N   0  0  0  0  0  0  0  0  0  0  0  0
   37.5020   28.1570   30.5160 H   0  0  0  0  0  0  0  0  0  0  0  0
   35.8840   29.9110   30.2160 H   0  0  0  0  0  0  0  0  0  0  0  0
   34.7640   29.6210   34.2670 H   0  0  0  0  0  0  0  0  0  0  0  0
   39.0910   24.9770   34.8100 O   0  0  0  0  0  0  0  0  0  0  0  0
   39.0300   23.2950   36.4110 C   0  0  2  0  0  0  0  0  0  0  0  0
   39.9150   24.1440   35.5360 C   0  0  1  0  0  0  0  0  0  0  0  0
   40.4300   23.0300   34.6090 C   0  0  0  0  0  0  0  0  0  0  0  0
   39.2580   22.4150   34.2410 O   0  0  0  0  0  0  0  0  0  0  0  0
   38.4350   22.3580   35.3440 C   0  0  0  0  0  0  0  0  0  0  0  0
   39.5890   22.6730   37.1140 H   0  0  0  0  0  0  0  0  0  0  0  0
   40.7310   24.6480   36.0780 H   0  0  0  0  0  0  0  0  0  0  0  0
   41.0910   22.3890   35.2600 H   0  0  0  0  0  0  0  0  0  0  0  0
   40.9760   23.4270   33.7520 H   0  0  0  0  0  0  0  0  0  0  0  0
   38.2940   21.3490   35.7470 H   0  0  0  0  0  0  0  0  0  0  0  0
   37.4480   22.7810   35.0260 H   0  0  0  0  0  0  0  0  0  0  0  0
   38.0560   24.1160   36.9690 O   0  0  0  0  0  0  0  0  0  0  0  0
   37.9740   24.2320   38.3600 C   0  0  0  0  0  0  0  0  0  0  0  0
   37.1780   24.8050   38.8480 H   0  0  0  0  0  0  0  0  0  0  0  0
   38.8650   23.6420   39.0450 O   0  0  0  0  0  0  0  0  0  0  0  0
  2 18  1  0  0  0  0
  2  3  1  0  0  0  0
  2  1  2  1  0  0  0
  4  3  1  0  0  0  0
  5  2  1  0  0  0  0
  6  5  1  0  0  0  0
  6  7  1  0  0  0  0
  8  6  1  0  0  0  0
  9  6  1  0  0  0  0
  9 14  1  0  0  0  0
 10  9  2  0  0  0  0
 11 10  1  0  0  0  0
 11 12  2  0  0  0  0
 12 13  1  0  0  0  0
 13 14  2  0  0  0  0
 13 17  1  0  0  0  0
 15 10  1  0  0  0  0
 16 11  1  0  0  0  0
 18 20  1  0  0  0  0
 19 30  1  0  0  0  0
 19 24  1  1  0  0  0
 20 25  1  1  0  0  0
 20 19  1  0  0  0  0
 21 26  1  0  0  0  0
 21 20  1  0  0  0  0
 22 21  1  0  0  0  0
 22 23  1  0  0  0  0
 23 28  1  0  0  0  0
 23 19  1  0  0  0  0
 27 21  1  0  0  0  0
 29 23  1  0  0  0  0
 30 31  1  0  0  0  0
 31 32  1  0  0  0  0
 31 33  2  0  0  0  0
M  END
>  <minimizedAffinity>
-4.25862455

$$$$

 OpenBabel03272504233D

 33 34  0  0  1  0  0  0  0  0999 V2000
   36.8300   26.4950   35.2250 O   0  0  0  0  0  0  0  0  0  0  0  0
   38.3320   26.5560   35.2850 P   0  0  2  0  0  0  0  0  0  0  0  0
   38.7730   27.7780   36.3950 O   0  0  0  0  0  0  0  0  0  0  0  0
   39.7120   27.5640   36.6630 H   0  0  0  0  0  0  0  0  0  0  0  0
   38.9630   26.9300   33.7490 O   0  0  0  0  0  0  0  0  0  0  0  0
   38.0100   26.5480   32.8230 C   0  0  0  0  0  0  0  0  0  0  0  0
   37.1160   26.1770   33.3950 H   0  0  0  0  0  0  0  0  0  0  0  0
   38.3360   25.6750   32.2200 H   0  0  0  0  0  0  0  0  0  0  0  0
   37.5420   27.6580   31.9660 C   0  0  0  0  0  0  0  0  0  0  0  0
   38.0810   27.7410   30.7050 C   0  0  0  0  0  0  0  0  0  0  0  0
   37.6790   28.7690   29.8470 C   0  0  0  0  0  0  0  0  0  0  0  0
   36.7540   29.6460   30.3290 N   0  0  0  0  0  0  0  0  0  0  0  0
   36.2350   29.5460   31.5770 C   0  0  0  0  0  0  0  0  0  0  0  0
   36.6310   28.5440   32.4070 N   0  0  0  0  0  0  0  0  0  0  0  0
   38.8110   27.1020   30.2360 H   0  0  0  0  0  0  0  0  0  0  0  0
   38.0470   28.9090   28.8460 H   0  0  0  0  0  0  0  0  0  0  0  0
   35.5070   30.2540   31.9270 H   0  0  0  0  0  0  0  0  0  0  0  0
   38.9290   25.0740   35.8170 O   0  0  0  0  0  0  0  0  0  0  0  0
   38.2230   22.8750   35.5800 C   0  0  2  0  0  0  0  0  0  0  0  0
   37.9450   24.2040   36.2320 C   0  0  1  0  0  0  0  0  0  0  0  0
   38.2300   23.7930   37.6860 C   0  0  0  0  0  0  0  0  0  0  0  0
   39.4530   23.1790   37.5620 O   0  0  0  0  0  0  0  0  0  0  0  0
   39.4480   22.4360   36.4010 C   0  0  0  0  0  0  0  0  0  0  0  0
   37.4340   22.1380   35.7530 H   0  0  0  0  0  0  0  0  0  0  0  0
   36.9120   24.5640   36.0940 H   0  0  0  0  0  0  0  0  0  0  0  0
   37.3960   23.0860   37.9600 H   0  0  0  0  0  0  0  0  0  0  0  0
   38.2650   24.6520   38.3570 H   0  0  0  0  0  0  0  0  0  0  0  0
   39.4410   21.3520   36.5630 H   0  0  0  0  0  0  0  0  0  0  0  0
   40.3670   22.7300   35.8330 H   0  0  0  0  0  0  0  0  0  0  0  0
   38.5560   23.1050   34.2500 O   0  0  0  0  0  0  0  0  0  0  0  0
   37.6190   22.8230   33.2500 C   0  0  0  0  0  0  0  0  0  0  0  0
   37.0800   23.6170   32.7220 H   0  0  0  0  0  0  0  0  0  0  0  0
   37.4150   21.6010   32.9750 O   0  0  0  0  0  0  0  0  0  0  0  0
  2  1  2  6  0  0  0
  2 18  1  0  0  0  0
  2  3  1  0  0  0  0
  3  4  1  0  0  0  0
  5  2  1  0  0  0  0
  6  7  1  0  0  0  0
  6  5  1  0  0  0  0
  8  6  1  0  0  0  0
  9 14  1  0  0  0  0
  9  6  1  0  0  0  0
 10  9  2  0  0  0  0
 11 12  2  0  0  0  0
 11 10  1  0  0  0  0
 12 13  1  0  0  0  0
 13 17  1  0  0  0  0
 13 14  2  0  0  0  0
 15 10  1  0  0  0  0
 16 11  1  0  0  0  0
 18 20  1  0  0  0  0
 19 24  1  1  0  0  0
 19 20  1  0  0  0  0
 19 23  1  0  0  0  0
 20 25  1  6  0  0  0
 20 21  1  0  0  0  0
 21 26  1  0  0  0  0
 21 27  1  0  0  0  0
 22 21  1  0  0  0  0
 23 28  1  0  0  0  0
 23 22  1  0  0  0  0
 29 23  1  0  0  0  0
 30 19  1  0  0  0  0
 31 30  1  0  0  0  0
 32 31  1  0  0  0  0
 33 31  2  0  0  0  0
M  END
>  <minimizedAffinity>
-4.15917063

$$$$

 OpenBabel03272504233D

 33 34  0  0  1  0  0  0  0  0999 V2000
   39.9000   26.7550   35.2020 O   0  0  0  0  0  0  0  0  0  0  0  0
   38.4480   26.6470   35.5790 P   0  0  2  0  0  0  0  0  0  0  0  0
   37.8830   28.2090   35.9790 O   0  0  0  0  0  0  0  0  0  0  0  0
   36.8880   28.1620   35.8850 H   0  0  0  0  0  0  0  0  0  0  0  0
   38.2670   25.6170   36.9210 O   0  0  0  0  0  0  0  0  0  0  0  0
   37.9350   24.3690   36.4240 C   0  0  0  0  0  0  0  0  0  0  0  0
   37.5590   24.5160   35.3750 H   0  0  0  0  0  0  0  0  0  0  0  0
   37.0790   23.9160   36.9650 H   0  0  0  0  0  0  0  0  0  0  0  0
   39.0830   23.4420   36.3440 C   0  0  0  0  0  0  0  0  0  0  0  0
   39.6120   23.0010   37.5330 C   0  0  0  0  0  0  0  0  0  0  0  0
   40.6990   22.1220   37.5250 C   0  0  0  0  0  0  0  0  0  0  0  0
   41.1770   21.7490   36.3040 N   0  0  0  0  0  0  0  0  0  0  0  0
   40.6410   22.1960   35.1430 C   0  0  0  0  0  0  0  0  0  0  0  0
   39.5840   23.0510   35.1580 N   0  0  0  0  0  0  0  0  0  0  0  0
   39.3060   23.2370   38.5400 H   0  0  0  0  0  0  0  0  0  0  0  0
   41.1740   21.7290   38.4050 H   0  0  0  0  0  0  0  0  0  0  0  0
   41.0430   21.8820   34.1970 H   0  0  0  0  0  0  0  0  0  0  0  0
   37.5740   26.0560   34.2660 O   0  0  0  0  0  0  0  0  0  0  0  0
   37.5780   25.1960   32.1090 C   0  0  2  0  0  0  0  0  0  0  0  0
   38.2590   26.1330   33.0730 C   0  0  1  0  0  0  0  0  0  0  0  0
   37.8950   27.4560   32.3800 C   0  0  0  0  0  0  0  0  0  0  0  0
   36.5420   27.3060   32.1970 O   0  0  0  0  0  0  0  0  0  0  0  0
   36.2960   26.0010   31.8310 C   0  0  0  0  0  0  0  0  0  0  0  0
   38.1100   25.0950   31.1600 H   0  0  0  0  0  0  0  0  0  0  0  0
   39.3490   25.9850   33.1480 H   0  0  0  0  0  0  0  0  0  0  0  0
   38.4820   27.4540   31.4170 H   0  0  0  0  0  0  0  0  0  0  0  0
   38.1360   28.3230   32.9960 H   0  0  0  0  0  0  0  0  0  0  0  0
   35.9790   25.8810   30.7880 H   0  0  0  0  0  0  0  0  0  0  0  0
   35.4960   25.6240   32.5170 H   0  0  0  0  0  0  0  0  0  0  0  0
   37.3000   24.0100   32.7790 O   0  0  0  0  0  0  0  0  0  0  0  0
   36.8740   22.8950   32.0490 C   0  0  0  0  0  0  0  0  0  0  0  0
   36.1580   22.1750   32.4580 H   0  0  0  0  0  0  0  0  0  0  0  0
   37.3550   22.7480   30.8840 O   0  0  0  0  0  0  0  0  0  0  0  0
  2  1  2  6  0  0  0
  2  3  1  0  0  0  0
  2  5  1  0  0  0  0
  4  3  1  0  0  0  0
  6  5  1  0  0  0  0
  6  8  1  0  0  0  0
  7  6  1  0  0  0  0
  9  6  1  0  0  0  0
  9 10  1  0  0  0  0
 10 15  1  0  0  0  0
 11 10  2  0  0  0  0
 11 16  1  0  0  0  0
 12 11  1  0  0  0  0
 13 14  1  0  0  0  0
 13 12  2  0  0  0  0
 14  9  2  0  0  0  0
 17 13  1  0  0  0  0
 18  2  1  0  0  0  0
 19 24  1  6  0  0  0
 19 30  1  0  0  0  0
 19 20  1  0  0  0  0
 20 25  1  1  0  0  0
 20 18  1  0  0  0  0
 21 27  1  0  0  0  0
 21 20  1  0  0  0  0
 22 21  1  0  0  0  0
 23 19  1  0  0  0  0
 23 22  1  0  0  0  0
 23 29  1  0  0  0  0
 26 21  1  0  0  0  0
 28 23  1  0  0  0  0
 31 32  1  0  0  0  0
 31 30  1  0  0  0  0
 33 31  2  0  0  0  0
M  END
>  <minimizedAffinity>
-4.12053728

$$$$

 OpenBabel03272504233D

 33 34  0  0  1  0  0  0  0  0999 V2000
   39.8950   23.5460   36.0610 O   0  0  0  0  0  0  0  0  0  0  0  0
   38.4190   23.6030   36.3470 P   0  0  2  0  0  0  0  0  0  0  0  0
   38.2010   23.5500   38.0400 O   0  0  0  0  0  0  0  0  0  0  0  0
   37.2890   23.9270   38.2010 H   0  0  0  0  0  0  0  0  0  0  0  0
   37.6340   22.2740   35.6320 O   0  0  0  0  0  0  0  0  0  0  0  0
   38.2840   22.0240   34.4360 C   0  0  0  0  0  0  0  0  0  0  0  0
   39.0230   21.1980   34.6220 H   0  0  0  0  0  0  0  0  0  0  0  0
   38.9040   22.8840   34.1080 H   0  0  0  0  0  0  0  0  0  0  0  0
   37.3820   21.5600   33.3610 C   0  0  0  0  0  0  0  0  0  0  0  0
   36.1440   21.1010   33.7410 C   0  0  0  0  0  0  0  0  0  0  0  0
   35.2450   20.6490   32.7710 C   0  0  0  0  0  0  0  0  0  0  0  0
   35.6660   20.6940   31.4750 N   0  0  0  0  0  0  0  0  0  0  0  0
   36.8910   21.1510   31.1220 C   0  0  0  0  0  0  0  0  0  0  0  0
   37.7610   21.5890   32.0710 N   0  0  0  0  0  0  0  0  0  0  0  0
   35.7230   21.0270   34.7310 H   0  0  0  0  0  0  0  0  0  0  0  0
   34.2590   20.2740   32.9780 H   0  0  0  0  0  0  0  0  0  0  0  0
   37.1920   21.1730   30.0900 H   0  0  0  0  0  0  0  0  0  0  0  0
   37.7910   25.0460   35.7470 O   0  0  0  0  0  0  0  0  0  0  0  0
   37.8790   26.2220   33.7470 C   0  0  2  0  0  0  0  0  0  0  0  0
   38.6670   25.7280   34.9320 C   0  0  1  0  0  0  0  0  0  0  0  0
   38.9740   27.0930   35.5690 C   0  0  0  0  0  0  0  0  0  0  0  0
   37.7270   27.6700   35.5950 O   0  0  0  0  0  0  0  0  0  0  0  0
   37.0780   27.3490   34.4220 C   0  0  0  0  0  0  0  0  0  0  0  0
   38.5030   26.6830   32.9770 H   0  0  0  0  0  0  0  0  0  0  0  0
   39.5830   25.1770   34.6620 H   0  0  0  0  0  0  0  0  0  0  0  0
   39.6880   27.5960   34.8570 H   0  0  0  0  0  0  0  0  0  0  0  0
   39.4040   26.9940   36.5660 H   0  0  0  0  0  0  0  0  0  0  0  0
   36.9440   28.1960   33.7390 H   0  0  0  0  0  0  0  0  0  0  0  0
   36.0800   26.9360   34.7150 H   0  0  0  0  0  0  0  0  0  0  0  0
   37.0480   25.1930   33.3180 O   0  0  0  0  0  0  0  0  0  0  0  0
   36.7170   25.1000   31.9620 C   0  0  0  0  0  0  0  0  0  0  0  0
   37.3260   25.5700   31.1840 H   0  0  0  0  0  0  0  0  0  0  0  0
   35.6720   24.4440   31.6650 O   0  0  0  0  0  0  0  0  0  0  0  0
  2  1  2  6  0  0  0
  2  3  1  0  0  0  0
  3  4  1  0  0  0  0
  5  2  1  0  0  0  0
  6  7  1  0  0  0  0
  6  5  1  0  0  0  0
  8  6  1  0  0  0  0
  9 10  1  0  0  0  0
  9  6  1  0  0  0  0
 10 15  1  0  0  0  0
 11 16  1  0  0  0  0
 11 10  2  0  0  0  0
 12 11  1  0  0  0  0
 13 12  2  0  0  0  0
 13 14  1  0  0  0  0
 14  9  2  0  0  0  0
 17 13  1  0  0  0  0
 18  2  1  0  0  0  0
 19 24  1  6  0  0  0
 19 23  1  0  0  0  0
 19 20  1  0  0  0  0
 20 25  1  6  0  0  0
 20 21  1  0  0  0  0
 20 18  1  0  0  0  0
 21 22  1  0  0  0  0
 21 27  1  0  0  0  0
 23 29  1  0  0  0  0
 23 22  1  0  0  0  0
 26 21  1  0  0  0  0
 28 23  1  0  0  0  0
 30 19  1  0  0  0  0
 31 30  1  0  0  0  0
 32 31  1  0  0  0  0
 33 31  2  0  0  0  0
M  END
>  <minimizedAffinity>
-4.08626509

$$$$

 OpenBabel03272504233D

 33 34  0  0  1  0  0  0  0  0999 V2000
   37.9150   24.2060   38.3090 O   0  0  0  0  0  0  0  0  0  0  0  0
   38.2420   23.8230   36.8910 P   0  0  2  0  0  0  0  0  0  0  0  0
   37.4900   22.3260   36.5560 O   0  0  0  0  0  0  0  0  0  0  0  0
   37.4330   22.2770   35.5590 H   0  0  0  0  0  0  0  0  0  0  0  0
   39.9260   23.6660   36.7020 O   0  0  0  0  0  0  0  0  0  0  0  0
   40.2930   22.5000   37.3500 C   0  0  0  0  0  0  0  0  0  0  0  0
   39.5280   21.7190   37.0920 H   0  0  0  0  0  0  0  0  0  0  0  0
   40.2310   22.5960   38.4540 H   0  0  0  0  0  0  0  0  0  0  0  0
   41.6060   21.9750   36.9210 C   0  0  0  0  0  0  0  0  0  0  0  0
   41.9830   20.7540   37.4230 C   0  0  0  0  0  0  0  0  0  0  0  0
   43.2150   20.2030   37.0550 C   0  0  0  0  0  0  0  0  0  0  0  0
   43.9820   20.9350   36.1980 N   0  0  0  0  0  0  0  0  0  0  0  0
   43.5910   22.1380   35.7140 C   0  0  0  0  0  0  0  0  0  0  0  0
   42.3920   22.6680   36.0770 N   0  0  0  0  0  0  0  0  0  0  0  0
   41.4510   20.1050   38.1000 H   0  0  0  0  0  0  0  0  0  0  0  0
   43.5880   19.2560   37.3990 H   0  0  0  0  0  0  0  0  0  0  0  0
   44.2200   22.6890   35.0400 H   0  0  0  0  0  0  0  0  0  0  0  0
   37.6430   24.9970   35.8440 O   0  0  0  0  0  0  0  0  0  0  0  0
   38.0410   26.1320   33.8580 C   0  0  2  0  0  0  0  0  0  0  0  0
   38.6280   25.6860   35.1710 C   0  0  1  0  0  0  0  0  0  0  0  0
   38.7890   27.0730   35.8150 C   0  0  0  0  0  0  0  0  0  0  0  0
   37.5420   27.6140   35.6140 O   0  0  0  0  0  0  0  0  0  0  0  0
   37.1100   27.2510   34.3580 C   0  0  0  0  0  0  0  0  0  0  0  0
   38.7750   26.5930   33.1930 H   0  0  0  0  0  0  0  0  0  0  0  0
   39.5890   25.1550   35.0760 H   0  0  0  0  0  0  0  0  0  0  0  0
   39.6020   27.5800   35.2210 H   0  0  0  0  0  0  0  0  0  0  0  0
   39.0460   27.0080   36.8730 H   0  0  0  0  0  0  0  0  0  0  0  0
   37.0740   28.0780   33.6400 H   0  0  0  0  0  0  0  0  0  0  0  0
   36.0860   26.8150   34.4880 H   0  0  0  0  0  0  0  0  0  0  0  0
   37.3200   25.0700   33.3210 O   0  0  0  0  0  0  0  0  0  0  0  0
   36.5680   25.2710   32.1590 C   0  0  0  0  0  0  0  0  0  0  0  0
   35.4870   25.1020   32.1330 H   0  0  0  0  0  0  0  0  0  0  0  0
   37.1930   25.6590   31.1250 O   0  0  0  0  0  0  0  0  0  0  0  0
  2  1  2  1  0  0  0
  3  2  1  0  0  0  0
  4  3  1  0  0  0  0
  5  2  1  0  0  0  0
  5  6  1  0  0  0  0
  6  8  1  0  0  0  0
  7  6  1  0  0  0  0
  9  6  1  0  0  0  0
  9 10  1  0  0  0  0
 10 15  1  0  0  0  0
 11 16  1  0  0  0  0
 11 10  2  0  0  0  0
 12 11  1  0  0  0  0
 13 14  1  0  0  0  0
 13 12  2  0  0  0  0
 14  9  2  0  0  0  0
 17 13  1  0  0  0  0
 18  2  1  0  0  0  0
 19 24  1  6  0  0  0
 19 23  1  0  0  0  0
 19 20  1  0  0  0  0
 20 25  1  6  0  0  0
 20 21  1  0  0  0  0
 20 18  1  0  0  0  0
 21 27  1  0  0  0  0
 22 21  1  0  0  0  0
 23 29  1  0  0  0  0
 23 22  1  0  0  0  0
 26 21  1  0  0  0  0
 28 23  1  0  0  0  0
 30 19  1  0  0  0  0
 31 30  1  0  0  0  0
 32 31  1  0  0  0  0
 33 31  2  0  0  0  0
M  END
>  <minimizedAffinity>
-4.04294729

$$$$

 OpenBabel03272504233D

 33 34  0  0  1  0  0  0  0  0999 V2000
   35.7830   25.7560   31.6750 O   0  0  0  0  0  0  0  0  0  0  0  0
   37.1130   25.1250   31.3670 P   0  0  2  0  0  0  0  0  0  0  0  0
   37.9390   26.1330   30.2630 O   0  0  0  0  0  0  0  0  0  0  0  0
   38.9040   25.8840   30.3490 H   0  0  0  0  0  0  0  0  0  0  0  0
   36.8840   23.5890   30.6710 O   0  0  0  0  0  0  0  0  0  0  0  0
   35.7960   23.0210   31.3100 C   0  0  0  0  0  0  0  0  0  0  0  0
   34.8780   23.3130   30.7320 H   0  0  0  0  0  0  0  0  0  0  0  0
   35.6340   23.4470   32.3220 H   0  0  0  0  0  0  0  0  0  0  0  0
   35.8350   21.5440   31.3390 C   0  0  0  0  0  0  0  0  0  0  0  0
   34.8540   20.9090   32.0610 C   0  0  0  0  0  0  0  0  0  0  0  0
   34.8360   19.5130   32.1280 C   0  0  0  0  0  0  0  0  0  0  0  0
   35.8210   18.8540   31.4540 N   0  0  0  0  0  0  0  0  0  0  0  0
   36.7800   19.4990   30.7480 C   0  0  0  0  0  0  0  0  0  0  0  0
   36.7910   20.8580   30.6880 N   0  0  0  0  0  0  0  0  0  0  0  0
   34.0400   21.3380   32.6230 H   0  0  0  0  0  0  0  0  0  0  0  0
   34.1080   18.9350   32.6680 H   0  0  0  0  0  0  0  0  0  0  0  0
   37.5420   18.9490   30.2280 H   0  0  0  0  0  0  0  0  0  0  0  0
   38.0100   24.9960   32.7860 O   0  0  0  0  0  0  0  0  0  0  0  0
   38.1290   25.2470   35.0920 C   0  0  2  0  0  0  0  0  0  0  0  0
   37.5220   25.7700   33.8160 C   0  0  1  0  0  0  0  0  0  0  0  0
   38.2290   27.1350   33.7860 C   0  0  0  0  0  0  0  0  0  0  0  0
   39.5390   26.7690   33.9830 O   0  0  0  0  0  0  0  0  0  0  0  0
   39.5700   25.7600   34.9200 C   0  0  0  0  0  0  0  0  0  0  0  0
   37.7200   25.7210   35.9880 H   0  0  0  0  0  0  0  0  0  0  0  0
   36.4240   25.8680   33.8490 H   0  0  0  0  0  0  0  0  0  0  0  0
   37.7880   27.7130   34.6470 H   0  0  0  0  0  0  0  0  0  0  0  0
   38.0820   27.6540   32.8380 H   0  0  0  0  0  0  0  0  0  0  0  0
   39.9950   26.0590   35.8850 H   0  0  0  0  0  0  0  0  0  0  0  0
   40.1800   24.9330   34.4760 H   0  0  0  0  0  0  0  0  0  0  0  0
   38.0750   23.8580   35.0610 O   0  0  0  0  0  0  0  0  0  0  0  0
   38.1350   23.1440   36.2620 C   0  0  0  0  0  0  0  0  0  0  0  0
   38.8210   22.3020   36.4010 H   0  0  0  0  0  0  0  0  0  0  0  0
   37.3560   23.5120   37.1950 O   0  0  0  0  0  0  0  0  0  0  0  0
  2  1  2  1  0  0  0
  2 18  1  0  0  0  0
  3  4  1  0  0  0  0
  3  2  1  0  0  0  0
  5  6  1  0  0  0  0
  5  2  1  0  0  0  0
  6  9  1  0  0  0  0
  6  8  1  0  0  0  0
  7  6  1  0  0  0  0
  9 10  1  0  0  0  0
 10 11  2  0  0  0  0
 10 15  1  0  0  0  0
 11 16  1  0  0  0  0
 12 11  1  0  0  0  0
 13 12  2  0  0  0  0
 14 13  1  0  0  0  0
 14  9  2  0  0  0  0
 17 13  1  0  0  0  0
 18 20  1  0  0  0  0
 19 24  1  1  0  0  0
 20 25  1  1  0  0  0
 20 19  1  0  0  0  0
 21 20  1  0  0  0  0
 21 22  1  0  0  0  0
 21 26  1  0  0  0  0
 22 23  1  0  0  0  0
 23 19  1  0  0  0  0
 23 28  1  0  0  0  0
 27 21  1  0  0  0  0
 29 23  1  0  0  0  0
 30 19  1  0  0  0  0
 30 31  1  0  0  0  0
 31 32  1  0  0  0  0
 31 33  2  0  0  0  0
M  END
>  <minimizedAffinity>
-4.03727293

$$$$
