
 OpenBabel03272508263D

 32 34  0  0  1  0  0  0  0  0999 V2000
   35.5950   30.3630   49.0150 C   0  0  1  0  0  0  0  0  0  0  0  0
   35.6780   28.9450   48.7550 C   0  0  1  0  0  0  0  0  0  0  0  0
   35.8500   29.3830   50.1720 C   0  0  0  0  0  0  0  0  0  0  0  0
   34.6960   30.9820   49.1830 H   0  0  0  0  0  0  0  0  0  0  0  0
   36.6340   28.5990   48.2650 H   0  0  0  0  0  0  0  0  0  0  0  0
   35.0350   29.2650   50.9030 H   0  0  0  0  0  0  0  0  0  0  0  0
   36.8600   29.3610   50.6290 H   0  0  0  0  0  0  0  0  0  0  0  0
   33.8030   28.8770   47.2140 C   0  0  2  0  0  0  0  0  0  0  0  0
   34.5090   28.1180   48.3250 C   0  0  2  0  0  0  0  0  0  0  0  0
   33.5850   27.9870   49.3180 O   0  0  0  0  0  0  0  0  0  0  0  0
   32.3250   28.0590   48.8200 C   0  0  0  0  0  0  0  0  0  0  0  0
   32.4200   28.2260   47.3210 C   0  0  1  0  0  0  0  0  0  0  0  0
   33.6490   29.9380   47.4350 H   0  0  0  0  0  0  0  0  0  0  0  0
   34.7840   27.1390   47.9060 H   0  0  0  0  0  0  0  0  0  0  0  0
   31.7930   27.0950   49.0300 H   0  0  0  0  0  0  0  0  0  0  0  0
   31.7150   28.8510   49.3040 H   0  0  0  0  0  0  0  0  0  0  0  0
   32.4200   27.2200   46.8680 H   0  0  0  0  0  0  0  0  0  0  0  0
   34.3580   28.6800   45.9620 O   0  0  0  0  0  0  0  0  0  0  0  0
   35.2880   28.9920   46.0100 H   0  0  0  0  0  0  0  0  0  0  0  0
   31.4420   29.0130   46.7770 O   0  0  0  0  0  0  0  0  0  0  0  0
   30.1100   28.5800   46.8370 C   0  0  0  0  0  0  0  0  0  0  0  0
   29.8050   27.6620   46.3630 H   0  0  0  0  0  0  0  0  0  0  0  0
   29.2030   29.2250   47.4390 O   0  0  0  0  0  0  0  0  0  0  0  0
   36.7900   31.2730   48.7780 C   0  0  0  0  0  0  0  0  0  0  0  0
   37.0410   32.2660   49.7280 C   0  0  0  0  0  0  0  0  0  0  0  0
   38.1210   33.0800   49.4610 C   0  0  0  0  0  0  0  0  0  0  0  0
   38.8760   32.9050   48.3350 N   0  0  0  0  0  0  0  0  0  0  0  0
   38.5980   31.9250   47.4320 C   0  0  0  0  0  0  0  0  0  0  0  0
   37.5430   31.1040   47.6610 N   0  0  0  0  0  0  0  0  0  0  0  0
   36.4260   32.3700   50.5960 H   0  0  0  0  0  0  0  0  0  0  0  0
   38.3860   33.8730   50.1460 H   0  0  0  0  0  0  0  0  0  0  0  0
   39.1890   31.7800   46.5390 H   0  0  0  0  0  0  0  0  0  0  0  0
  1  4  1  6  0  0  0
  1  3  1  0  0  0  0
  2  5  1  6  0  0  0
  2  1  1  0  0  0  0
  2  3  1  0  0  0  0
  3  7  1  0  0  0  0
  3  6  1  0  0  0  0
  8 12  1  0  0  0  0
  8 13  1  1  0  0  0
  8  9  1  0  0  0  0
  9 14  1  6  0  0  0
  9  2  1  0  0  0  0
  9 10  1  0  0  0  0
 11 15  1  0  0  0  0
 11 16  1  0  0  0  0
 11 10  1  0  0  0  0
 12 17  1  6  0  0  0
 12 11  1  0  0  0  0
 18 19  1  0  0  0  0
 18  8  1  0  0  0  0
 20 21  1  0  0  0  0
 20 12  1  0  0  0  0
 21 23  2  0  0  0  0
 22 21  1  0  0  0  0
 24  1  1  0  0  0  0
 24 25  1  0  0  0  0
 25 30  1  0  0  0  0
 26 25  2  0  0  0  0
 26 31  1  0  0  0  0
 27 26  1  0  0  0  0
 28 29  1  0  0  0  0
 28 27  2  0  0  0  0
 29 24  2  0  0  0  0
 32 28  1  0  0  0  0
M  END
>  <minimizedAffinity>
-4.75059128

>  <minimizedRMSD>
0.500763476

$$$$
