
 OpenBabel03272507263D

 31 32  0  0  1  0  0  0  0  0999 V2000
   36.6860   29.9050   49.0430 C   0  0  0  0  0  0  0  0  0  0  0  0
   37.7070   30.5800   48.3420 C   0  0  0  0  0  0  0  0  0  0  0  0
   37.4790   30.8940   46.9970 C   0  0  0  0  0  0  0  0  0  0  0  0
   36.3030   30.5370   46.4520 N   0  0  0  0  0  0  0  0  0  0  0  0
   35.3460   29.8920   47.1490 C   0  0  0  0  0  0  0  0  0  0  0  0
   35.5400   29.5810   48.4320 N   0  0  0  0  0  0  0  0  0  0  0  0
   38.4580   31.5660   46.2450 N   0  0  0  0  0  0  0  0  0  0  0  0
   39.4350   32.5030   46.7870 C   0  0  0  0  0  0  0  0  0  0  0  0
   40.1180   33.1430   45.6210 C   0  0  0  0  0  0  0  0  0  0  0  0
   39.1650   32.8900   44.5130 C   0  0  0  0  0  0  0  0  0  0  0  0
   38.7020   31.4840   44.8470 C   0  0  2  0  0  0  0  0  0  0  0  0
   36.8600   29.6590   50.0880 H   0  0  0  0  0  0  0  0  0  0  0  0
   38.6280   30.8380   48.8370 H   0  0  0  0  0  0  0  0  0  0  0  0
   34.4050   29.6230   46.6620 H   0  0  0  0  0  0  0  0  0  0  0  0
   38.8120   33.2570   47.3490 H   0  0  0  0  0  0  0  0  0  0  0  0
   40.0940   32.0460   47.5360 H   0  0  0  0  0  0  0  0  0  0  0  0
   41.1630   32.8740   45.4660 H   0  0  0  0  0  0  0  0  0  0  0  0
   40.1220   34.2390   45.7990 H   0  0  0  0  0  0  0  0  0  0  0  0
   38.3100   33.6000   44.6030 H   0  0  0  0  0  0  0  0  0  0  0  0
   39.6460   32.9340   43.5070 H   0  0  0  0  0  0  0  0  0  0  0  0
   37.5940   31.0390   43.9570 C   0  0  0  0  0  0  0  0  0  0  0  0
   36.4630   31.7490   44.3370 F   0  0  0  0  0  0  0  0  0  0  0  0
   37.2750   29.7230   44.0260 F   0  0  0  0  0  0  0  0  0  0  0  0
   37.9060   31.4720   42.6770 F   0  0  0  0  0  0  0  0  0  0  0  0
   39.8480   30.5350   44.6540 C   0  0  0  0  0  0  0  0  0  0  0  0
   39.5140   29.4520   44.7040 H   0  0  0  0  0  0  0  0  0  0  0  0
   40.4720   30.6340   45.5780 H   0  0  0  0  0  0  0  0  0  0  0  0
   40.3690   30.8150   43.5790 O   0  0  0  0  0  0  0  0  0  0  0  0
   40.8640   30.0350   42.5460 C   0  0  0  0  0  0  0  0  0  0  0  0
   41.3430   29.0730   42.6560 H   0  0  0  0  0  0  0  0  0  0  0  0
   40.6810   30.6030   41.4310 O   0  0  0  0  0  0  0  0  0  0  0  0
  1 12  1  0  0  0  0
  2 13  1  0  0  0  0
  2  1  2  0  0  0  0
  3  2  1  0  0  0  0
  4  3  2  0  0  0  0
  4  5  1  0  0  0  0
  5  6  2  0  0  0  0
  6  1  1  0  0  0  0
  7  8  1  0  0  0  0
  7  3  1  0  0  0  0
  8 15  1  0  0  0  0
  8 16  1  0  0  0  0
  9 18  1  0  0  0  0
  9  8  1  0  0  0  0
 10 19  1  0  0  0  0
 10 11  1  0  0  0  0
 10  9  1  0  0  0  0
 11 21  1  6  0  0  0
 11  7  1  0  0  0  0
 14  5  1  0  0  0  0
 17  9  1  0  0  0  0
 20 10  1  0  0  0  0
 21 23  1  0  0  0  0
 21 22  1  0  0  0  0
 24 21  1  0  0  0  0
 25 26  1  0  0  0  0
 25 11  1  0  0  0  0
 25 27  1  0  0  0  0
 28 25  1  0  0  0  0
 29 30  1  0  0  0  0
 29 28  1  0  0  0  0
 31 29  2  0  0  0  0
M  END
>  <minimizedAffinity>
-4.43574381

>  <minimizedRMSD>
1.50932205

$$$$
