
 OpenBabel03272502263D

 24 25  0  0  0  0  0  0  0  0999 V2000
   38.0550   25.3050   35.0500 C   0  0  0  0  0  0  0  0  0  0  0  0
   39.0410   24.5490   34.4530 C   0  0  0  0  0  0  0  0  0  0  0  0
   39.7670   23.5880   35.1330 C   0  0  0  0  0  0  0  0  0  0  0  0
   39.5040   23.3690   36.4480 N   0  0  0  0  0  0  0  0  0  0  0  0
   38.5550   24.1060   36.9950 C   0  0  0  0  0  0  0  0  0  0  0  0
   37.8400   25.0440   36.3540 N   0  0  0  0  0  0  0  0  0  0  0  0
   39.2810   24.6940   33.3990 H   0  0  0  0  0  0  0  0  0  0  0  0
   40.5330   23.0270   34.6050 H   0  0  0  0  0  0  0  0  0  0  0  0
   36.3630   28.4810   33.9760 C   0  0  0  0  0  0  0  0  0  0  0  0
   37.0550   27.5890   34.8210 C   0  0  0  0  0  0  0  0  0  0  0  0
   37.3300   26.3160   34.3100 C   0  0  0  0  0  0  0  0  0  0  0  0
   36.9190   26.0320   33.0600 N   0  0  0  0  0  0  0  0  0  0  0  0
   36.2520   26.9170   32.2690 C   0  0  0  0  0  0  0  0  0  0  0  0
   35.9790   28.1600   32.7570 N   0  0  0  0  0  0  0  0  0  0  0  0
   36.1720   29.4460   34.4180 H   0  0  0  0  0  0  0  0  0  0  0  0
   37.3770   27.8330   35.8250 H   0  0  0  0  0  0  0  0  0  0  0  0
   35.9180   26.4220   31.0160 O   0  0  0  0  0  0  0  0  0  0  0  0
   35.0640   25.3690   30.8300 C   0  0  0  0  0  0  0  0  0  0  0  0
   34.2020   24.7520   30.6430 H   0  0  0  0  0  0  0  0  0  0  0  0
   35.2610   24.1240   30.8610 O   0  0  0  0  0  0  0  0  0  0  0  0
   38.2510   23.9000   38.4420 C   0  0  0  0  0  0  0  0  0  0  0  0
   39.4240   23.4450   39.0680 F   0  0  0  0  0  0  0  0  0  0  0  0
   37.8210   25.0500   39.0490 F   0  0  0  0  0  0  0  0  0  0  0  0
   37.3200   22.9200   38.6430 F   0  0  0  0  0  0  0  0  0  0  0  0
  1  6  1  0  0  0  0
  2  1  2  0  0  0  0
  2  3  1  0  0  0  0
  3  4  2  0  0  0  0
  4  5  1  0  0  0  0
  5 21  1  0  0  0  0
  6  5  2  0  0  0  0
  7  2  1  0  0  0  0
  8  3  1  0  0  0  0
  9 15  1  0  0  0  0
  9 10  1  0  0  0  0
 10 16  1  0  0  0  0
 11 10  2  0  0  0  0
 11  1  1  0  0  0  0
 12 11  1  0  0  0  0
 13 14  1  0  0  0  0
 13 12  2  0  0  0  0
 14  9  2  0  0  0  0
 17 13  1  0  0  0  0
 18 20  2  0  0  0  0
 18 17  1  0  0  0  0
 19 18  1  0  0  0  0
 21 24  1  0  0  0  0
 21 23  1  0  0  0  0
 21 22  1  0  0  0  0
M  END
>  <minimizedAffinity>
-5.34256268

$$$$

 OpenBabel03272502263D

 24 25  0  0  0  0  0  0  0  0999 V2000
   38.2950   22.4220   34.8750 C   0  0  0  0  0  0  0  0  0  0  0  0
   39.6380   22.1530   34.7180 C   0  0  0  0  0  0  0  0  0  0  0  0
   40.5680   22.3480   35.7220 C   0  0  0  0  0  0  0  0  0  0  0  0
   40.1510   22.8230   36.9250 N   0  0  0  0  0  0  0  0  0  0  0  0
   38.8600   23.0720   37.0500 C   0  0  0  0  0  0  0  0  0  0  0  0
   37.9420   22.8920   36.0880 N   0  0  0  0  0  0  0  0  0  0  0  0
   40.0130   21.7690   33.7680 H   0  0  0  0  0  0  0  0  0  0  0  0
   41.6120   22.1180   35.5340 H   0  0  0  0  0  0  0  0  0  0  0  0
   35.6210   21.0690   32.6120 C   0  0  0  0  0  0  0  0  0  0  0  0
   36.5040   21.1170   33.7110 C   0  0  0  0  0  0  0  0  0  0  0  0
   37.3560   22.2240   33.7930 C   0  0  0  0  0  0  0  0  0  0  0  0
   37.2770   23.1570   32.8260 N   0  0  0  0  0  0  0  0  0  0  0  0
   36.4120   23.0810   31.7770 C   0  0  0  0  0  0  0  0  0  0  0  0
   35.5770   22.0080   31.6890 N   0  0  0  0  0  0  0  0  0  0  0  0
   34.9900   20.1950   32.5940 H   0  0  0  0  0  0  0  0  0  0  0  0
   36.5570   20.3550   34.4790 H   0  0  0  0  0  0  0  0  0  0  0  0
   36.4930   24.1480   30.8940 O   0  0  0  0  0  0  0  0  0  0  0  0
   35.6460   25.2220   30.9370 C   0  0  0  0  0  0  0  0  0  0  0  0
   35.2240   26.2090   31.0160 H   0  0  0  0  0  0  0  0  0  0  0  0
   34.3950   25.2990   30.8000 O   0  0  0  0  0  0  0  0  0  0  0  0
   38.3700   23.6080   38.3550 C   0  0  0  0  0  0  0  0  0  0  0  0
   37.9840   24.9440   38.1530 F   0  0  0  0  0  0  0  0  0  0  0  0
   37.3100   22.8920   38.8430 F   0  0  0  0  0  0  0  0  0  0  0  0
   39.3520   23.6470   39.3040 F   0  0  0  0  0  0  0  0  0  0  0  0
  1  6  1  0  0  0  0
  2  1  2  0  0  0  0
  2  3  1  0  0  0  0
  3  4  2  0  0  0  0
  4  5  1  0  0  0  0
  5 21  1  0  0  0  0
  6  5  2  0  0  0  0
  7  2  1  0  0  0  0
  8  3  1  0  0  0  0
  9 10  1  0  0  0  0
 10 11  2  0  0  0  0
 10 16  1  0  0  0  0
 11  1  1  0  0  0  0
 12 11  1  0  0  0  0
 13 12  2  0  0  0  0
 14 13  1  0  0  0  0
 14  9  2  0  0  0  0
 15  9  1  0  0  0  0
 17 18  1  0  0  0  0
 17 13  1  0  0  0  0
 18 19  1  0  0  0  0
 20 18  2  0  0  0  0
 21 23  1  0  0  0  0
 21 24  1  0  0  0  0
 22 21  1  0  0  0  0
M  END
>  <minimizedAffinity>
-5.11896038

$$$$

 OpenBabel03272502263D

 24 25  0  0  0  0  0  0  0  0999 V2000
   38.4390   24.6040   36.2140 C   0  0  0  0  0  0  0  0  0  0  0  0
   37.8120   24.5140   37.4380 C   0  0  0  0  0  0  0  0  0  0  0  0
   38.2730   23.7100   38.4640 C   0  0  0  0  0  0  0  0  0  0  0  0
   39.3960   22.9700   38.2690 N   0  0  0  0  0  0  0  0  0  0  0  0
   39.9780   23.0740   37.0880 C   0  0  0  0  0  0  0  0  0  0  0  0
   39.5460   23.8480   36.0790 N   0  0  0  0  0  0  0  0  0  0  0  0
   36.9080   25.0930   37.6350 H   0  0  0  0  0  0  0  0  0  0  0  0
   37.7310   23.6820   39.4050 H   0  0  0  0  0  0  0  0  0  0  0  0
   37.1860   27.5100   34.1930 C   0  0  0  0  0  0  0  0  0  0  0  0
   37.6750   26.8120   35.3170 C   0  0  0  0  0  0  0  0  0  0  0  0
   37.9140   25.4430   35.1590 C   0  0  0  0  0  0  0  0  0  0  0  0
   37.6610   24.8900   33.9580 N   0  0  0  0  0  0  0  0  0  0  0  0
   37.1890   25.5920   32.8920 C   0  0  0  0  0  0  0  0  0  0  0  0
   36.9540   26.9270   33.0340 N   0  0  0  0  0  0  0  0  0  0  0  0
   37.0160   28.5610   34.3680 H   0  0  0  0  0  0  0  0  0  0  0  0
   37.8700   27.2730   36.2770 H   0  0  0  0  0  0  0  0  0  0  0  0
   36.9970   24.8310   31.7480 O   0  0  0  0  0  0  0  0  0  0  0  0
   35.7610   24.4520   31.2980 C   0  0  0  0  0  0  0  0  0  0  0  0
   34.9030   23.8930   30.9670 H   0  0  0  0  0  0  0  0  0  0  0  0
   34.7430   25.1330   30.9960 O   0  0  0  0  0  0  0  0  0  0  0  0
   41.2070   22.2650   36.8360 C   0  0  0  0  0  0  0  0  0  0  0  0
   41.3470   21.3540   37.8970 F   0  0  0  0  0  0  0  0  0  0  0  0
   41.1430   21.5830   35.6490 F   0  0  0  0  0  0  0  0  0  0  0  0
   42.3420   23.0240   36.8480 F   0  0  0  0  0  0  0  0  0  0  0  0
  1  2  1  0  0  0  0
  2  7  1  0  0  0  0
  2  3  2  0  0  0  0
  3  8  1  0  0  0  0
  4  3  1  0  0  0  0
  5  4  2  0  0  0  0
  6  1  2  0  0  0  0
  6  5  1  0  0  0  0
  9 15  1  0  0  0  0
  9 10  1  0  0  0  0
 10 16  1  0  0  0  0
 11 10  2  0  0  0  0
 11  1  1  0  0  0  0
 12 11  1  0  0  0  0
 13 14  1  0  0  0  0
 13 12  2  0  0  0  0
 14  9  2  0  0  0  0
 17 13  1  0  0  0  0
 18 17  1  0  0  0  0
 19 18  1  0  0  0  0
 20 18  2  0  0  0  0
 21 24  1  0  0  0  0
 21  5  1  0  0  0  0
 21 22  1  0  0  0  0
 23 21  1  0  0  0  0
M  END
>  <minimizedAffinity>
-5.00239754

$$$$

 OpenBabel03272502263D

 24 25  0  0  0  0  0  0  0  0999 V2000
   38.1580   24.6350   34.9070 C   0  0  0  0  0  0  0  0  0  0  0  0
   38.9220   23.6050   34.4010 C   0  0  0  0  0  0  0  0  0  0  0  0
   39.4810   22.6210   35.1950 C   0  0  0  0  0  0  0  0  0  0  0  0
   39.2740   22.6590   36.5370 N   0  0  0  0  0  0  0  0  0  0  0  0
   38.5390   23.6550   36.9970 C   0  0  0  0  0  0  0  0  0  0  0  0
   37.9880   24.6200   36.2440 N   0  0  0  0  0  0  0  0  0  0  0  0
   39.1100   23.5390   33.3280 H   0  0  0  0  0  0  0  0  0  0  0  0
   40.0740   21.8370   34.7340 H   0  0  0  0  0  0  0  0  0  0  0  0
   36.8980   26.5750   31.9490 C   0  0  0  0  0  0  0  0  0  0  0  0
   37.4790   25.5040   32.6600 C   0  0  0  0  0  0  0  0  0  0  0  0
   37.6060   25.6580   34.0450 C   0  0  0  0  0  0  0  0  0  0  0  0
   37.1730   26.8050   34.5990 N   0  0  0  0  0  0  0  0  0  0  0  0
   36.6160   27.8210   33.8830 C   0  0  0  0  0  0  0  0  0  0  0  0
   36.4860   27.6820   32.5340 N   0  0  0  0  0  0  0  0  0  0  0  0
   36.8260   26.4080   30.8860 H   0  0  0  0  0  0  0  0  0  0  0  0
   37.8240   24.5880   32.1990 H   0  0  0  0  0  0  0  0  0  0  0  0
   36.2370   28.9160   34.6480 O   0  0  0  0  0  0  0  0  0  0  0  0
   35.1370   29.6800   34.3680 C   0  0  0  0  0  0  0  0  0  0  0  0
   34.4710   30.4810   34.0980 H   0  0  0  0  0  0  0  0  0  0  0  0
   33.9070   29.4030   34.3850 O   0  0  0  0  0  0  0  0  0  0  0  0
   38.3030   23.7330   38.4690 C   0  0  0  0  0  0  0  0  0  0  0  0
   37.8960   25.0440   38.7700 F   0  0  0  0  0  0  0  0  0  0  0  0
   37.3450   22.8470   38.8870 F   0  0  0  0  0  0  0  0  0  0  0  0
   39.4430   23.5250   39.1910 F   0  0  0  0  0  0  0  0  0  0  0  0
  1  6  1  0  0  0  0
  2  1  2  0  0  0  0
  2  3  1  0  0  0  0
  3  4  2  0  0  0  0
  4  5  1  0  0  0  0
  5 21  1  0  0  0  0
  6  5  2  0  0  0  0
  7  2  1  0  0  0  0
  8  3  1  0  0  0  0
  9 14  2  0  0  0  0
  9 10  1  0  0  0  0
 10 11  2  0  0  0  0
 11 12  1  0  0  0  0
 11  1  1  0  0  0  0
 13 12  2  0  0  0  0
 13 17  1  0  0  0  0
 14 13  1  0  0  0  0
 15  9  1  0  0  0  0
 16 10  1  0  0  0  0
 18 20  2  0  0  0  0
 18 17  1  0  0  0  0
 19 18  1  0  0  0  0
 21 22  1  0  0  0  0
 21 23  1  0  0  0  0
 21 24  1  0  0  0  0
M  END
>  <minimizedAffinity>
-4.95146084

$$$$

 OpenBabel03272502263D

 24 25  0  0  0  0  0  0  0  0999 V2000
   38.6380   24.3560   34.9270 C   0  0  0  0  0  0  0  0  0  0  0  0
   39.5140   23.3330   34.6340 C   0  0  0  0  0  0  0  0  0  0  0  0
   40.0040   22.4650   35.5920 C   0  0  0  0  0  0  0  0  0  0  0  0
   39.6100   22.6150   36.8840 N   0  0  0  0  0  0  0  0  0  0  0  0
   38.7710   23.6020   37.1380 C   0  0  0  0  0  0  0  0  0  0  0  0
   38.2840   24.4570   36.2230 N   0  0  0  0  0  0  0  0  0  0  0  0
   39.8540   23.1780   33.6090 H   0  0  0  0  0  0  0  0  0  0  0  0
   40.6940   21.6790   35.2970 H   0  0  0  0  0  0  0  0  0  0  0  0
   37.9180   27.3850   32.8260 C   0  0  0  0  0  0  0  0  0  0  0  0
   38.4220   26.6320   33.9080 C   0  0  0  0  0  0  0  0  0  0  0  0
   38.1630   25.2570   33.8990 C   0  0  0  0  0  0  0  0  0  0  0  0
   37.4570   24.7510   32.8710 N   0  0  0  0  0  0  0  0  0  0  0  0
   36.9840   25.5060   31.8410 C   0  0  0  0  0  0  0  0  0  0  0  0
   37.2320   26.8460   31.8380 N   0  0  0  0  0  0  0  0  0  0  0  0
   38.1420   28.4380   32.8810 H   0  0  0  0  0  0  0  0  0  0  0  0
   38.9870   27.0560   34.7280 H   0  0  0  0  0  0  0  0  0  0  0  0
   36.2810   24.7870   30.8850 O   0  0  0  0  0  0  0  0  0  0  0  0
   35.4640   23.7320   31.1920 C   0  0  0  0  0  0  0  0  0  0  0  0
   34.6530   23.1120   31.5320 H   0  0  0  0  0  0  0  0  0  0  0  0
   35.6060   22.4920   31.0130 O   0  0  0  0  0  0  0  0  0  0  0  0
   38.3280   23.8040   38.5490 C   0  0  0  0  0  0  0  0  0  0  0  0
   37.3400   22.8440   38.8300 F   0  0  0  0  0  0  0  0  0  0  0  0
   39.3610   23.6750   39.4390 F   0  0  0  0  0  0  0  0  0  0  0  0
   37.7290   25.0170   38.7380 F   0  0  0  0  0  0  0  0  0  0  0  0
  1  6  1  0  0  0  0
  2  1  2  0  0  0  0
  2  3  1  0  0  0  0
  3  4  2  0  0  0  0
  4  5  1  0  0  0  0
  5 21  1  0  0  0  0
  6  5  2  0  0  0  0
  7  2  1  0  0  0  0
  8  3  1  0  0  0  0
  9 15  1  0  0  0  0
  9 10  1  0  0  0  0
 10 16  1  0  0  0  0
 11 10  2  0  0  0  0
 11  1  1  0  0  0  0
 12 11  1  0  0  0  0
 13 12  2  0  0  0  0
 14 13  1  0  0  0  0
 14  9  2  0  0  0  0
 17 18  1  0  0  0  0
 17 13  1  0  0  0  0
 18 19  1  0  0  0  0
 20 18  2  0  0  0  0
 21 24  1  0  0  0  0
 21 22  1  0  0  0  0
 21 23  1  0  0  0  0
M  END
>  <minimizedAffinity>
-4.92589378

$$$$

 OpenBabel03272502263D

 24 25  0  0  0  0  0  0  0  0999 V2000
   38.0340   24.9470   35.0060 C   0  0  0  0  0  0  0  0  0  0  0  0
   38.6580   23.8850   34.3870 C   0  0  0  0  0  0  0  0  0  0  0  0
   39.1610   22.8000   35.0790 C   0  0  0  0  0  0  0  0  0  0  0  0
   39.0400   22.7650   36.4330 N   0  0  0  0  0  0  0  0  0  0  0  0
   38.4380   23.7940   37.0010 C   0  0  0  0  0  0  0  0  0  0  0  0
   37.9440   24.8570   36.3480 N   0  0  0  0  0  0  0  0  0  0  0  0
   38.7750   23.8740   33.3030 H   0  0  0  0  0  0  0  0  0  0  0  0
   39.6440   21.9950   34.5320 H   0  0  0  0  0  0  0  0  0  0  0  0
   36.5060   28.2190   33.9780 C   0  0  0  0  0  0  0  0  0  0  0  0
   36.9150   27.1800   34.8390 C   0  0  0  0  0  0  0  0  0  0  0  0
   37.5380   26.0750   34.2480 C   0  0  0  0  0  0  0  0  0  0  0  0
   37.7010   26.0780   32.9120 N   0  0  0  0  0  0  0  0  0  0  0  0
   37.2940   27.0990   32.1080 C   0  0  0  0  0  0  0  0  0  0  0  0
   36.6870   28.1800   32.6730 N   0  0  0  0  0  0  0  0  0  0  0  0
   36.0290   29.0450   34.4810 H   0  0  0  0  0  0  0  0  0  0  0  0
   36.7740   27.1920   35.9120 H   0  0  0  0  0  0  0  0  0  0  0  0
   37.5570   26.9010   30.7600 O   0  0  0  0  0  0  0  0  0  0  0  0
   38.5440   27.5660   30.0840 C   0  0  0  0  0  0  0  0  0  0  0  0
   39.1260   28.0860   29.3430 H   0  0  0  0  0  0  0  0  0  0  0  0
   39.7010   27.9210   30.4410 O   0  0  0  0  0  0  0  0  0  0  0  0
   38.3000   23.7940   38.4880 C   0  0  0  0  0  0  0  0  0  0  0  0
   37.3220   22.8430   38.8280 F   0  0  0  0  0  0  0  0  0  0  0  0
   39.4770   23.4880   39.1170 F   0  0  0  0  0  0  0  0  0  0  0  0
   37.8390   24.9870   38.9680 F   0  0  0  0  0  0  0  0  0  0  0  0
  1  6  1  0  0  0  0
  2  1  2  0  0  0  0
  2  3  1  0  0  0  0
  3  4  2  0  0  0  0
  4  5  1  0  0  0  0
  5 21  1  0  0  0  0
  6  5  2  0  0  0  0
  7  2  1  0  0  0  0
  8  3  1  0  0  0  0
  9 15  1  0  0  0  0
  9 10  1  0  0  0  0
 10 16  1  0  0  0  0
 11 10  2  0  0  0  0
 11  1  1  0  0  0  0
 12 11  1  0  0  0  0
 13 14  1  0  0  0  0
 13 12  2  0  0  0  0
 14  9  2  0  0  0  0
 17 13  1  0  0  0  0
 18 20  2  0  0  0  0
 18 17  1  0  0  0  0
 19 18  1  0  0  0  0
 21 22  1  0  0  0  0
 21 24  1  0  0  0  0
 21 23  1  0  0  0  0
M  END
>  <minimizedAffinity>
-4.89353657

$$$$

 OpenBabel03272502263D

 24 25  0  0  0  0  0  0  0  0999 V2000
   38.5740   23.3180   34.4270 C   0  0  0  0  0  0  0  0  0  0  0  0
   39.8050   22.7020   34.3510 C   0  0  0  0  0  0  0  0  0  0  0  0
   40.5640   22.3980   35.4650 C   0  0  0  0  0  0  0  0  0  0  0  0
   40.0850   22.7130   36.6970 N   0  0  0  0  0  0  0  0  0  0  0  0
   38.9040   23.3020   36.7430 C   0  0  0  0  0  0  0  0  0  0  0  0
   38.1520   23.6070   35.6730 N   0  0  0  0  0  0  0  0  0  0  0  0
   40.2240   22.4320   33.3810 H   0  0  0  0  0  0  0  0  0  0  0  0
   41.5280   21.9130   35.3370 H   0  0  0  0  0  0  0  0  0  0  0  0
   37.1360   25.0320   31.4110 C   0  0  0  0  0  0  0  0  0  0  0  0
   37.9120   24.8690   32.5770 C   0  0  0  0  0  0  0  0  0  0  0  0
   37.8180   23.6380   33.2350 C   0  0  0  0  0  0  0  0  0  0  0  0
   36.9990   22.7040   32.7180 N   0  0  0  0  0  0  0  0  0  0  0  0
   36.2620   22.8930   31.5890 C   0  0  0  0  0  0  0  0  0  0  0  0
   36.3480   24.0870   30.9380 N   0  0  0  0  0  0  0  0  0  0  0  0
   37.2410   25.9980   30.9430 H   0  0  0  0  0  0  0  0  0  0  0  0
   38.5640   25.6330   32.9810 H   0  0  0  0  0  0  0  0  0  0  0  0
   35.4840   21.8010   31.2270 O   0  0  0  0  0  0  0  0  0  0  0  0
   34.9800   20.9080   32.1330 C   0  0  0  0  0  0  0  0  0  0  0  0
   34.7060   20.3850   33.0330 H   0  0  0  0  0  0  0  0  0  0  0  0
   34.3050   19.8550   31.9740 O   0  0  0  0  0  0  0  0  0  0  0  0
   38.3550   23.6740   38.0800 C   0  0  0  0  0  0  0  0  0  0  0  0
   38.0270   25.0400   38.0450 F   0  0  0  0  0  0  0  0  0  0  0  0
   37.2420   22.9430   38.4030 F   0  0  0  0  0  0  0  0  0  0  0  0
   39.2770   23.5400   39.0780 F   0  0  0  0  0  0  0  0  0  0  0  0
  1  6  1  0  0  0  0
  2  1  2  0  0  0  0
  2  3  1  0  0  0  0
  3  4  2  0  0  0  0
  4  5  1  0  0  0  0
  5 21  1  0  0  0  0
  6  5  2  0  0  0  0
  7  2  1  0  0  0  0
  8  3  1  0  0  0  0
  9 10  1  0  0  0  0
 10 16  1  0  0  0  0
 10 11  2  0  0  0  0
 11  1  1  0  0  0  0
 12 11  1  0  0  0  0
 13 12  2  0  0  0  0
 14  9  2  0  0  0  0
 14 13  1  0  0  0  0
 15  9  1  0  0  0  0
 17 13  1  0  0  0  0
 17 18  1  0  0  0  0
 18 19  1  0  0  0  0
 20 18  2  0  0  0  0
 21 23  1  0  0  0  0
 21 24  1  0  0  0  0
 22 21  1  0  0  0  0
M  END
>  <minimizedAffinity>
-4.86326265

$$$$

 OpenBabel03272502263D

 24 25  0  0  0  0  0  0  0  0999 V2000
   38.6100   23.2970   34.8260 C   0  0  0  0  0  0  0  0  0  0  0  0
   39.7690   22.5520   34.7690 C   0  0  0  0  0  0  0  0  0  0  0  0
   40.4680   22.1590   35.8960 C   0  0  0  0  0  0  0  0  0  0  0  0
   40.0000   22.5170   37.1210 N   0  0  0  0  0  0  0  0  0  0  0  0
   38.8900   23.2300   37.1480 C   0  0  0  0  0  0  0  0  0  0  0  0
   38.1970   23.6220   36.0670 N   0  0  0  0  0  0  0  0  0  0  0  0
   40.1760   22.2440   33.8050 H   0  0  0  0  0  0  0  0  0  0  0  0
   41.3750   21.5740   35.7830 H   0  0  0  0  0  0  0  0  0  0  0  0
   36.8400   23.3450   31.5150 C   0  0  0  0  0  0  0  0  0  0  0  0
   37.5320   22.8090   32.6200 C   0  0  0  0  0  0  0  0  0  0  0  0
   37.9180   23.7050   33.6230 C   0  0  0  0  0  0  0  0  0  0  0  0
   37.6090   25.0060   33.4640 N   0  0  0  0  0  0  0  0  0  0  0  0
   36.9390   25.4920   32.3830 C   0  0  0  0  0  0  0  0  0  0  0  0
   36.5570   24.6270   31.4020 N   0  0  0  0  0  0  0  0  0  0  0  0
   36.5680   22.6150   30.7700 H   0  0  0  0  0  0  0  0  0  0  0  0
   37.7750   21.7600   32.7310 H   0  0  0  0  0  0  0  0  0  0  0  0
   36.7220   26.8620   32.4170 O   0  0  0  0  0  0  0  0  0  0  0  0
   37.0320   27.6430   33.4970 C   0  0  0  0  0  0  0  0  0  0  0  0
   37.5220   28.2920   34.2030 H   0  0  0  0  0  0  0  0  0  0  0  0
   36.3710   27.9330   34.5310 O   0  0  0  0  0  0  0  0  0  0  0  0
   38.3560   23.6510   38.4770 C   0  0  0  0  0  0  0  0  0  0  0  0
   37.8900   24.9710   38.3550 F   0  0  0  0  0  0  0  0  0  0  0  0
   37.3380   22.8410   38.9050 F   0  0  0  0  0  0  0  0  0  0  0  0
   39.3250   23.6890   39.4390 F   0  0  0  0  0  0  0  0  0  0  0  0
  1  6  1  0  0  0  0
  2  1  2  0  0  0  0
  2  3  1  0  0  0  0
  3  4  2  0  0  0  0
  4  5  1  0  0  0  0
  5 21  1  0  0  0  0
  6  5  2  0  0  0  0
  7  2  1  0  0  0  0
  8  3  1  0  0  0  0
  9 10  1  0  0  0  0
 10 16  1  0  0  0  0
 10 11  2  0  0  0  0
 11  1  1  0  0  0  0
 12 11  1  0  0  0  0
 13 17  1  0  0  0  0
 13 12  2  0  0  0  0
 14  9  2  0  0  0  0
 14 13  1  0  0  0  0
 15  9  1  0  0  0  0
 17 18  1  0  0  0  0
 18 19  1  0  0  0  0
 18 20  2  0  0  0  0
 21 23  1  0  0  0  0
 21 24  1  0  0  0  0
 22 21  1  0  0  0  0
M  END
>  <minimizedAffinity>
-4.83983755

$$$$

 OpenBabel03272502263D

 24 25  0  0  0  0  0  0  0  0999 V2000
   38.0870   25.3120   34.3060 C   0  0  0  0  0  0  0  0  0  0  0  0
   38.2540   26.6560   34.5600 C   0  0  0  0  0  0  0  0  0  0  0  0
   38.3680   27.1730   35.8380 C   0  0  0  0  0  0  0  0  0  0  0  0
   38.3180   26.3260   36.8990 N   0  0  0  0  0  0  0  0  0  0  0  0
   38.1570   25.0430   36.6290 C   0  0  0  0  0  0  0  0  0  0  0  0
   38.0430   24.5220   35.3970 N   0  0  0  0  0  0  0  0  0  0  0  0
   38.3010   27.3680   33.7360 H   0  0  0  0  0  0  0  0  0  0  0  0
   38.4970   28.2430   35.9710 H   0  0  0  0  0  0  0  0  0  0  0  0
   38.2530   24.8760   30.5800 C   0  0  0  0  0  0  0  0  0  0  0  0
   38.4330   25.4960   31.8340 C   0  0  0  0  0  0  0  0  0  0  0  0
   37.9510   24.8120   32.9550 C   0  0  0  0  0  0  0  0  0  0  0  0
   37.3520   23.6220   32.7630 N   0  0  0  0  0  0  0  0  0  0  0  0
   37.1940   23.0500   31.5380 C   0  0  0  0  0  0  0  0  0  0  0  0
   37.6610   23.7070   30.4390 N   0  0  0  0  0  0  0  0  0  0  0  0
   38.6380   25.4450   29.7490 H   0  0  0  0  0  0  0  0  0  0  0  0
   38.9140   26.4560   31.9710 H   0  0  0  0  0  0  0  0  0  0  0  0
   36.5510   21.8200   31.5620 O   0  0  0  0  0  0  0  0  0  0  0  0
   35.4660   21.5580   32.3550 C   0  0  0  0  0  0  0  0  0  0  0  0
   34.4810   21.5190   32.7860 H   0  0  0  0  0  0  0  0  0  0  0  0
   35.3500   20.8620   33.3990 O   0  0  0  0  0  0  0  0  0  0  0  0
   38.0840   24.0870   37.7730 C   0  0  0  0  0  0  0  0  0  0  0  0
   37.8180   24.8290   38.9370 F   0  0  0  0  0  0  0  0  0  0  0  0
   37.1080   23.1430   37.5960 F   0  0  0  0  0  0  0  0  0  0  0  0
   39.2740   23.4560   38.0010 F   0  0  0  0  0  0  0  0  0  0  0  0
  1  2  2  0  0  0  0
  1  6  1  0  0  0  0
  2  3  1  0  0  0  0
  3  8  1  0  0  0  0
  3  4  2  0  0  0  0
  5  4  1  0  0  0  0
  5 21  1  0  0  0  0
  6  5  2  0  0  0  0
  7  2  1  0  0  0  0
  9 10  1  0  0  0  0
 10 16  1  0  0  0  0
 10 11  2  0  0  0  0
 11  1  1  0  0  0  0
 12 11  1  0  0  0  0
 13 17  1  0  0  0  0
 13 12  2  0  0  0  0
 14  9  2  0  0  0  0
 14 13  1  0  0  0  0
 15  9  1  0  0  0  0
 17 18  1  0  0  0  0
 18 19  1  0  0  0  0
 18 20  2  0  0  0  0
 21 24  1  0  0  0  0
 21 22  1  0  0  0  0
 23 21  1  0  0  0  0
M  END
>  <minimizedAffinity>
-4.66693783

$$$$
