
 OpenBabel03272510243D

 26 28  0  0  0  0  0  0  0  0999 V2000
   36.0910   30.2960   46.7050 C   0  0  0  0  0  0  0  0  0  0  0  0
   37.2170   30.3860   47.5290 C   0  0  0  0  0  0  0  0  0  0  0  0
   38.4530   30.6770   46.9980 C   0  0  0  0  0  0  0  0  0  0  0  0
   38.5230   30.8740   45.6150 C   0  0  0  0  0  0  0  0  0  0  0  0
   39.6250   31.1690   44.8700 N   0  0  0  0  0  0  0  0  0  0  0  0
   39.1990   31.2650   43.5960 C   0  0  0  0  0  0  0  0  0  0  0  0
   37.8860   31.0430   43.5100 N   0  0  0  0  0  0  0  0  0  0  0  0
   37.4340   30.7950   44.7590 C   0  0  0  0  0  0  0  0  0  0  0  0
   36.1990   30.4990   45.3270 C   0  0  0  0  0  0  0  0  0  0  0  0
   35.0920   30.0710   47.0570 H   0  0  0  0  0  0  0  0  0  0  0  0
   39.3200   30.7470   47.6210 H   0  0  0  0  0  0  0  0  0  0  0  0
   40.6030   31.2930   45.2470 H   0  0  0  0  0  0  0  0  0  0  0  0
   35.3430   30.4360   44.6670 H   0  0  0  0  0  0  0  0  0  0  0  0
   37.5970   30.2780   51.2640 C   0  0  0  0  0  0  0  0  0  0  0  0
   37.9070   30.5520   49.9340 C   0  0  0  0  0  0  0  0  0  0  0  0
   37.0100   30.1590   48.9490 C   0  0  0  0  0  0  0  0  0  0  0  0
   35.8570   29.5180   49.3270 N   0  0  0  0  0  0  0  0  0  0  0  0
   35.5870   29.2670   50.6360 C   0  0  0  0  0  0  0  0  0  0  0  0
   36.4500   29.6460   51.5850 N   0  0  0  0  0  0  0  0  0  0  0  0
   38.3670   30.6300   51.9300 H   0  0  0  0  0  0  0  0  0  0  0  0
   38.8000   31.0520   49.5900 H   0  0  0  0  0  0  0  0  0  0  0  0
   34.6870   28.7670   50.9440 H   0  0  0  0  0  0  0  0  0  0  0  0
   40.1220   31.5650   42.5750 O   0  0  0  0  0  0  0  0  0  0  0  0
   40.7440   30.5190   41.8690 C   0  0  0  0  0  0  0  0  0  0  0  0
   40.6360   30.6810   40.7980 H   0  0  0  0  0  0  0  0  0  0  0  0
   41.3280   29.5610   42.4700 O   0  0  0  0  0  0  0  0  0  0  0  0
  1 10  1  0  0  0  0
  1  2  1  0  0  0  0
  2 16  1  0  0  0  0
  3  2  2  0  0  0  0
  3 11  1  0  0  0  0
  4  3  1  0  0  0  0
  5 12  1  0  0  0  0
  5  4  1  0  0  0  0
  6  5  1  0  0  0  0
  7  6  2  0  0  0  0
  7  8  1  0  0  0  0
  8  9  1  0  0  0  0
  8  4  2  0  0  0  0
  9  1  2  0  0  0  0
 13  9  1  0  0  0  0
 14 19  1  0  0  0  0
 14 20  1  0  0  0  0
 15 14  2  0  0  0  0
 16 17  2  0  0  0  0
 16 15  1  0  0  0  0
 17 18  1  0  0  0  0
 18 22  1  0  0  0  0
 18 19  2  0  0  0  0
 21 15  1  0  0  0  0
 23  6  1  0  0  0  0
 24 26  2  0  0  0  0
 24 23  1  0  0  0  0
 25 24  1  0  0  0  0
M  END
>  <minimizedAffinity>
-4.91014814

>  <minimizedRMSD>
1.93385398

$$$$
