
 OpenBabel03272506423D

 26 27  0  0  1  0  0  0  0  0999 V2000
   32.3430   28.3600   47.4170 C   0  0  2  0  0  0  0  0  0  0  0  0
   33.5420   28.3620   48.3490 C   0  0  1  0  0  0  0  0  0  0  0  0
   34.0880   27.1030   48.3330 O   0  0  0  0  0  0  0  0  0  0  0  0
   33.4890   26.3590   47.3490 C   0  0  0  0  0  0  0  0  0  0  0  0
   32.8220   27.3640   46.3970 C   0  0  1  0  0  0  0  0  0  0  0  0
   31.4160   28.0220   47.9240 H   0  0  0  0  0  0  0  0  0  0  0  0
   33.2720   28.7530   49.3410 H   0  0  0  0  0  0  0  0  0  0  0  0
   34.3300   25.9170   46.7390 H   0  0  0  0  0  0  0  0  0  0  0  0
   32.7940   25.5940   47.7040 H   0  0  0  0  0  0  0  0  0  0  0  0
   33.5590   27.8070   45.7290 H   0  0  0  0  0  0  0  0  0  0  0  0
   32.1210   29.6130   46.8690 O   0  0  0  0  0  0  0  0  0  0  0  0
   31.1780   29.8450   46.9030 H   0  0  0  0  0  0  0  0  0  0  0  0
   34.7510   29.5150   47.5930 S   0  0  0  0  0  0  0  0  0  0  0  0
   37.3220   29.3220   50.6130 C   0  0  0  0  0  0  0  0  0  0  0  0
   37.8200   30.6180   50.7490 C   0  0  0  0  0  0  0  0  0  0  0  0
   37.3450   31.5940   49.8760 C   0  0  0  0  0  0  0  0  0  0  0  0
   36.4300   31.2250   48.9470 N   0  0  0  0  0  0  0  0  0  0  0  0
   35.9620   29.9720   48.8310 C   0  0  0  0  0  0  0  0  0  0  0  0
   36.4030   29.0030   49.6640 N   0  0  0  0  0  0  0  0  0  0  0  0
   37.6270   28.4920   51.2420 H   0  0  0  0  0  0  0  0  0  0  0  0
   38.5510   30.8200   51.5220 H   0  0  0  0  0  0  0  0  0  0  0  0
   37.7130   32.6090   49.9570 H   0  0  0  0  0  0  0  0  0  0  0  0
   31.7980   26.7350   45.7090 O   0  0  0  0  0  0  0  0  0  0  0  0
   31.4320   27.1400   44.4170 C   0  0  0  0  0  0  0  0  0  0  0  0
   31.9230   26.6270   43.5940 H   0  0  0  0  0  0  0  0  0  0  0  0
   30.5960   28.0330   44.1320 O   0  0  0  0  0  0  0  0  0  0  0  0
  1  6  1  1  0  0  0
  1  2  1  0  0  0  0
  2  7  1  1  0  0  0
  3  2  1  0  0  0  0
  4  9  1  0  0  0  0
  4  3  1  0  0  0  0
  5 10  1  6  0  0  0
  5  4  1  0  0  0  0
  5  1  1  0  0  0  0
  8  4  1  0  0  0  0
 11 12  1  0  0  0  0
 11  1  1  0  0  0  0
 13  2  1  0  0  0  0
 13 18  1  0  0  0  0
 14 15  1  0  0  0  0
 14 20  1  0  0  0  0
 15 21  1  0  0  0  0
 16 22  1  0  0  0  0
 16 15  2  0  0  0  0
 17 16  1  0  0  0  0
 18 17  2  0  0  0  0
 18 19  1  0  0  0  0
 19 14  2  0  0  0  0
 23  5  1  0  0  0  0
 24 23  1  0  0  0  0
 25 24  1  0  0  0  0
 26 24  2  0  0  0  0
M  END
>  <minimizedAffinity>
-3.66220236

>  <minimizedRMSD>
0.334005743

$$$$
