
 OpenBabel03272509443D

 13 13  0  0  0  0  0  0  0  0999 V2000
   37.3970   30.3040   51.3990 C   0  0  0  0  0  0  0  0  0  0  0  0
   38.1180   30.8710   50.3230 C   0  0  0  0  0  0  0  0  0  0  0  0
   37.7760   30.5100   49.0140 C   0  0  0  0  0  0  0  0  0  0  0  0
   36.7480   29.6150   48.8490 N   0  0  0  0  0  0  0  0  0  0  0  0
   36.0800   29.0940   49.9140 C   0  0  0  0  0  0  0  0  0  0  0  0
   36.4120   29.4430   51.1690 N   0  0  0  0  0  0  0  0  0  0  0  0
   37.6950   30.6110   52.3920 H   0  0  0  0  0  0  0  0  0  0  0  0
   38.9320   31.5780   50.4220 H   0  0  0  0  0  0  0  0  0  0  0  0
   38.3040   30.9230   48.1920 H   0  0  0  0  0  0  0  0  0  0  0  0
   35.0870   28.2190   49.5310 O   0  0  0  0  0  0  0  0  0  0  0  0
   33.8000   28.6780   49.3120 C   0  0  0  0  0  0  0  0  0  0  0  0
   33.6200   29.6400   49.8000 H   0  0  0  0  0  0  0  0  0  0  0  0
   33.5860   27.6270   48.6230 O   0  0  0  0  0  0  0  0  0  0  0  0
  1  7  1  0  0  0  0
  2  8  1  0  0  0  0
  2  1  2  0  0  0  0
  3  2  1  0  0  0  0
  4  3  2  0  0  0  0
  4  5  1  0  0  0  0
  5  6  2  0  0  0  0
  6  1  1  0  0  0  0
  9  3  1  0  0  0  0
 10  5  1  0  0  0  0
 11 10  1  0  0  0  0
 11 12  1  0  0  0  0
 13 11  2  0  0  0  0
M  END
>  <minimizedAffinity>
-3.37994719

>  <minimizedRMSD>
0.260117292

$$$$
