
 OpenBabel03272510233D

 26 28  0  0  0  0  0  0  0  0999 V2000
   36.0300   30.2550   46.7180 C   0  0  0  0  0  0  0  0  0  0  0  0
   37.1670   30.4060   47.5180 C   0  0  0  0  0  0  0  0  0  0  0  0
   38.3750   30.7580   46.9610 C   0  0  0  0  0  0  0  0  0  0  0  0
   38.4060   30.9540   45.5770 C   0  0  0  0  0  0  0  0  0  0  0  0
   39.4760   31.3040   44.8080 N   0  0  0  0  0  0  0  0  0  0  0  0
   39.0200   31.3720   43.5440 C   0  0  0  0  0  0  0  0  0  0  0  0
   37.7190   31.0820   43.4850 N   0  0  0  0  0  0  0  0  0  0  0  0
   37.3050   30.8160   44.7430 C   0  0  0  0  0  0  0  0  0  0  0  0
   36.1000   30.4590   45.3370 C   0  0  0  0  0  0  0  0  0  0  0  0
   35.0520   29.9800   47.0910 H   0  0  0  0  0  0  0  0  0  0  0  0
   39.2490   30.8760   47.5660 H   0  0  0  0  0  0  0  0  0  0  0  0
   40.4540   31.4790   45.1650 H   0  0  0  0  0  0  0  0  0  0  0  0
   35.2350   30.3490   44.6950 H   0  0  0  0  0  0  0  0  0  0  0  0
   37.6510   30.2920   51.2410 C   0  0  0  0  0  0  0  0  0  0  0  0
   37.9220   30.5720   49.9040 C   0  0  0  0  0  0  0  0  0  0  0  0
   37.0010   30.1740   48.9430 C   0  0  0  0  0  0  0  0  0  0  0  0
   35.8640   29.5220   49.3510 N   0  0  0  0  0  0  0  0  0  0  0  0
   35.6330   29.2650   50.6660 C   0  0  0  0  0  0  0  0  0  0  0  0
   36.5190   29.6490   51.5920 N   0  0  0  0  0  0  0  0  0  0  0  0
   38.4350   30.6490   51.8860 H   0  0  0  0  0  0  0  0  0  0  0  0
   38.8000   31.0810   49.5370 H   0  0  0  0  0  0  0  0  0  0  0  0
   34.7460   28.7560   50.9970 H   0  0  0  0  0  0  0  0  0  0  0  0
   39.9050   31.7160   42.5030 O   0  0  0  0  0  0  0  0  0  0  0  0
   40.6400   30.7090   41.8520 C   0  0  0  0  0  0  0  0  0  0  0  0
   40.6530   30.8950   40.7790 H   0  0  0  0  0  0  0  0  0  0  0  0
   41.1820   29.7530   42.4960 O   0  0  0  0  0  0  0  0  0  0  0  0
  1 10  1  0  0  0  0
  1  2  1  0  0  0  0
  2 16  1  0  0  0  0
  3  2  2  0  0  0  0
  3 11  1  0  0  0  0
  4  3  1  0  0  0  0
  5 12  1  0  0  0  0
  5  4  1  0  0  0  0
  6  5  1  0  0  0  0
  7  6  2  0  0  0  0
  7  8  1  0  0  0  0
  8  9  1  0  0  0  0
  8  4  2  0  0  0  0
  9  1  2  0  0  0  0
 13  9  1  0  0  0  0
 14 19  1  0  0  0  0
 14 20  1  0  0  0  0
 15 14  2  0  0  0  0
 16 17  2  0  0  0  0
 16 15  1  0  0  0  0
 17 18  1  0  0  0  0
 18 22  1  0  0  0  0
 18 19  2  0  0  0  0
 21 15  1  0  0  0  0
 23  6  1  0  0  0  0
 24 26  2  0  0  0  0
 24 23  1  0  0  0  0
 25 24  1  0  0  0  0
M  END
>  <minimizedAffinity>
-4.8653121

>  <minimizedRMSD>
1.89467955

$$$$
