
 OpenBabel03272507153D

 20 21  0  0  1  0  0  0  0  0999 V2000
   36.8470   30.7640   50.6980 C   0  0  1  0  0  0  0  0  0  0  0  0
   36.0700   29.5460   50.7570 C   0  0  2  0  0  0  0  0  0  0  0  0
   37.4540   29.5290   51.3760 C   0  0  0  0  0  0  0  0  0  0  0  0
   36.7030   31.6430   51.3650 H   0  0  0  0  0  0  0  0  0  0  0  0
   35.2480   29.4480   51.4670 H   0  0  0  0  0  0  0  0  0  0  0  0
   37.5130   29.5780   52.4890 H   0  0  0  0  0  0  0  0  0  0  0  0
   38.2310   28.9540   50.8500 H   0  0  0  0  0  0  0  0  0  0  0  0
   37.5830   31.1590   49.4520 C   0  0  0  0  0  0  0  0  0  0  0  0
   38.1910   32.4250   49.4720 C   0  0  0  0  0  0  0  0  0  0  0  0
   38.8430   32.7780   48.2810 C   0  0  0  0  0  0  0  0  0  0  0  0
   38.8660   31.9310   47.2020 N   0  0  0  0  0  0  0  0  0  0  0  0
   38.2570   30.7210   47.2530 C   0  0  0  0  0  0  0  0  0  0  0  0
   37.6120   30.3400   48.3930 N   0  0  0  0  0  0  0  0  0  0  0  0
   38.1680   33.0840   50.3240 H   0  0  0  0  0  0  0  0  0  0  0  0
   39.3040   33.7460   48.3060 H   0  0  0  0  0  0  0  0  0  0  0  0
   38.3200   30.1220   46.3720 H   0  0  0  0  0  0  0  0  0  0  0  0
   35.9110   28.7760   49.5930 O   0  0  0  0  0  0  0  0  0  0  0  0
   34.7190   28.1960   49.2380 C   0  0  0  0  0  0  0  0  0  0  0  0
   34.5230   27.2970   48.6740 H   0  0  0  0  0  0  0  0  0  0  0  0
   33.6210   28.7110   49.5690 O   0  0  0  0  0  0  0  0  0  0  0  0
  1  2  1  0  0  0  0
  1  4  1  1  0  0  0
  1  3  1  0  0  0  0
  2  3  1  0  0  0  0
  2  5  1  1  0  0  0
  3  6  1  0  0  0  0
  7  3  1  0  0  0  0
  8  9  1  0  0  0  0
  8  1  1  0  0  0  0
  9 14  1  0  0  0  0
 10 15  1  0  0  0  0
 10  9  2  0  0  0  0
 11 12  2  0  0  0  0
 11 10  1  0  0  0  0
 12 13  1  0  0  0  0
 13  8  2  0  0  0  0
 16 12  1  0  0  0  0
 17  2  1  0  0  0  0
 18 20  2  0  0  0  0
 18 17  1  0  0  0  0
 19 18  1  0  0  0  0
M  END
>  <minimizedAffinity>
-4.4448719

>  <minimizedRMSD>
0.542739391

$$$$
