
 OpenBabel03272509453D

 13 13  0  0  0  0  0  0  0  0999 V2000
   37.3450   30.2330   51.4240 C   0  0  0  0  0  0  0  0  0  0  0  0
   38.0450   30.6690   50.2750 C   0  0  0  0  0  0  0  0  0  0  0  0
   37.5850   30.2730   49.0120 C   0  0  0  0  0  0  0  0  0  0  0  0
   36.4680   29.4760   48.9630 N   0  0  0  0  0  0  0  0  0  0  0  0
   35.8260   29.0800   50.0960 C   0  0  0  0  0  0  0  0  0  0  0  0
   36.2710   29.4620   51.3050 N   0  0  0  0  0  0  0  0  0  0  0  0
   37.7360   30.5620   52.3780 H   0  0  0  0  0  0  0  0  0  0  0  0
   38.9270   31.2970   50.2830 H   0  0  0  0  0  0  0  0  0  0  0  0
   38.0950   30.5880   48.1370 H   0  0  0  0  0  0  0  0  0  0  0  0
   34.7320   28.2870   49.8250 O   0  0  0  0  0  0  0  0  0  0  0  0
   34.2080   28.2370   48.5450 C   0  0  0  0  0  0  0  0  0  0  0  0
   34.9880   28.3220   47.7810 H   0  0  0  0  0  0  0  0  0  0  0  0
   33.0510   28.1140   49.0670 O   0  0  0  0  0  0  0  0  0  0  0  0
  1  7  1  0  0  0  0
  2  8  1  0  0  0  0
  2  1  2  0  0  0  0
  3  2  1  0  0  0  0
  4  3  2  0  0  0  0
  4  5  1  0  0  0  0
  5  6  2  0  0  0  0
  6  1  1  0  0  0  0
  9  3  1  0  0  0  0
 10  5  1  0  0  0  0
 11 13  2  0  0  0  0
 11 10  1  0  0  0  0
 12 11  1  0  0  0  0
M  END
>  <minimizedAffinity>
-3.39800167

>  <minimizedRMSD>
0.802607656

$$$$
