
 OpenBabel03272509193D

 27 28  0  0  0  0  0  0  0  0999 V2000
   37.9110   25.3620   34.0970 C   0  0  0  0  0  0  0  0  0  0  0  0
   38.6590   25.4770   35.2530 C   0  0  0  0  0  0  0  0  0  0  0  0
   38.5820   26.7260   35.8900 C   0  0  0  0  0  0  0  0  0  0  0  0
   37.7940   27.7560   35.3590 C   0  0  0  0  0  0  0  0  0  0  0  0
   37.0680   27.5430   34.1760 C   0  0  0  0  0  0  0  0  0  0  0  0
   37.1340   26.3260   33.5450 C   0  0  0  0  0  0  0  0  0  0  0  0
   39.1340   26.9090   36.8020 H   0  0  0  0  0  0  0  0  0  0  0  0
   37.7430   28.7110   35.8570 H   0  0  0  0  0  0  0  0  0  0  0  0
   36.4730   28.3710   33.8060 H   0  0  0  0  0  0  0  0  0  0  0  0
   40.7710   24.2420   35.3340 C   0  0  0  0  0  0  0  0  0  0  0  0
   39.4650   24.4200   35.7940 C   0  0  0  0  0  0  0  0  0  0  0  0
   38.9930   23.5460   36.7770 C   0  0  0  0  0  0  0  0  0  0  0  0
   39.8400   22.5760   37.2230 N   0  0  0  0  0  0  0  0  0  0  0  0
   41.0930   22.4350   36.7560 C   0  0  0  0  0  0  0  0  0  0  0  0
   41.5600   23.2670   35.8120 N   0  0  0  0  0  0  0  0  0  0  0  0
   41.1270   24.9270   34.5710 H   0  0  0  0  0  0  0  0  0  0  0  0
   41.7580   21.6590   37.1190 H   0  0  0  0  0  0  0  0  0  0  0  0
   37.6220   23.6890   37.2980 C   0  0  0  0  0  0  0  0  0  0  0  0
   37.4190   24.7260   37.6630 H   0  0  0  0  0  0  0  0  0  0  0  0
   36.8610   23.4860   36.5020 H   0  0  0  0  0  0  0  0  0  0  0  0
   37.4890   23.0120   38.1630 H   0  0  0  0  0  0  0  0  0  0  0  0
   37.9330   24.1390   33.3970 O   0  0  0  0  0  0  0  0  0  0  0  0
   37.3900   23.3770   33.8160 H   0  0  0  0  0  0  0  0  0  0  0  0
   36.4070   26.1470   32.3800 O   0  0  0  0  0  0  0  0  0  0  0  0
   35.9450   27.2650   31.6770 C   0  0  0  0  0  0  0  0  0  0  0  0
   35.2360   27.8430   32.2590 H   0  0  0  0  0  0  0  0  0  0  0  0
   36.3510   27.5100   30.5010 O   0  0  0  0  0  0  0  0  0  0  0  0
  1  2  1  0  0  0  0
  2 11  1  0  0  0  0
  2  3  2  0  0  0  0
  3  7  1  0  0  0  0
  4  8  1  0  0  0  0
  4  3  1  0  0  0  0
  5  4  2  0  0  0  0
  6  1  2  0  0  0  0
  6  5  1  0  0  0  0
  9  5  1  0  0  0  0
 10 11  2  0  0  0  0
 10 15  1  0  0  0  0
 11 12  1  0  0  0  0
 12 13  2  0  0  0  0
 12 18  1  0  0  0  0
 14 17  1  0  0  0  0
 14 13  1  0  0  0  0
 15 14  2  0  0  0  0
 16 10  1  0  0  0  0
 18 19  1  0  0  0  0
 18 21  1  0  0  0  0
 20 18  1  0  0  0  0
 22 23  1  0  0  0  0
 22  1  1  0  0  0  0
 24  6  1  0  0  0  0
 25 26  1  0  0  0  0
 25 24  1  0  0  0  0
 27 25  2  0  0  0  0
M  END
>  <minimizedAffinity>
-4.60941982

$$$$

 OpenBabel03272509193D

 27 28  0  0  0  0  0  0  0  0999 V2000
   37.5660   25.4700   33.4690 C   0  0  0  0  0  0  0  0  0  0  0  0
   37.9620   25.6430   34.7810 C   0  0  0  0  0  0  0  0  0  0  0  0
   37.6620   26.8990   35.3330 C   0  0  0  0  0  0  0  0  0  0  0  0
   37.0070   27.8790   34.5750 C   0  0  0  0  0  0  0  0  0  0  0  0
   36.6420   27.6080   33.2460 C   0  0  0  0  0  0  0  0  0  0  0  0
   36.9300   26.3840   32.6960 C   0  0  0  0  0  0  0  0  0  0  0  0
   37.9350   27.1270   36.3550 H   0  0  0  0  0  0  0  0  0  0  0  0
   36.7810   28.8400   35.0090 H   0  0  0  0  0  0  0  0  0  0  0  0
   36.1370   28.3980   32.7020 H   0  0  0  0  0  0  0  0  0  0  0  0
   37.9080   23.8660   36.4650 C   0  0  0  0  0  0  0  0  0  0  0  0
   38.6330   24.6390   35.5550 C   0  0  0  0  0  0  0  0  0  0  0  0
   40.0040   24.3930   35.4380 C   0  0  0  0  0  0  0  0  0  0  0  0
   40.5430   23.4160   36.2200 N   0  0  0  0  0  0  0  0  0  0  0  0
   39.8130   22.6920   37.0850 C   0  0  0  0  0  0  0  0  0  0  0  0
   38.4950   22.9160   37.2090 N   0  0  0  0  0  0  0  0  0  0  0  0
   36.8430   24.0660   36.5470 H   0  0  0  0  0  0  0  0  0  0  0  0
   40.2530   21.9170   37.7020 H   0  0  0  0  0  0  0  0  0  0  0  0
   40.8180   25.1790   34.4930 C   0  0  0  0  0  0  0  0  0  0  0  0
   40.3950   25.1570   33.4580 H   0  0  0  0  0  0  0  0  0  0  0  0
   40.8560   26.2580   34.7880 H   0  0  0  0  0  0  0  0  0  0  0  0
   41.8320   24.7410   34.4350 H   0  0  0  0  0  0  0  0  0  0  0  0
   37.8300   24.2360   32.8420 O   0  0  0  0  0  0  0  0  0  0  0  0
   37.2260   23.4570   33.1210 H   0  0  0  0  0  0  0  0  0  0  0  0
   36.5580   26.1460   31.3830 O   0  0  0  0  0  0  0  0  0  0  0  0
   35.3220   25.5470   31.1150 C   0  0  0  0  0  0  0  0  0  0  0  0
   34.5800   26.2750   30.8060 H   0  0  0  0  0  0  0  0  0  0  0  0
   35.1620   24.2950   31.2400 O   0  0  0  0  0  0  0  0  0  0  0  0
  1  2  1  0  0  0  0
  2  3  2  0  0  0  0
  2 11  1  0  0  0  0
  3  7  1  0  0  0  0
  4  8  1  0  0  0  0
  4  3  1  0  0  0  0
  5  4  2  0  0  0  0
  6  5  1  0  0  0  0
  6  1  2  0  0  0  0
  9  5  1  0  0  0  0
 10 16  1  0  0  0  0
 10 15  1  0  0  0  0
 11 10  2  0  0  0  0
 12 11  1  0  0  0  0
 12 13  2  0  0  0  0
 13 14  1  0  0  0  0
 14 15  2  0  0  0  0
 14 17  1  0  0  0  0
 18 20  1  0  0  0  0
 18 12  1  0  0  0  0
 19 18  1  0  0  0  0
 21 18  1  0  0  0  0
 22 23  1  0  0  0  0
 22  1  1  0  0  0  0
 24  6  1  0  0  0  0
 25 27  2  0  0  0  0
 25 24  1  0  0  0  0
 26 25  1  0  0  0  0
M  END
>  <minimizedAffinity>
-4.41160202

$$$$

 OpenBabel03272509193D

 27 28  0  0  0  0  0  0  0  0999 V2000
   37.7270   25.4610   34.0440 C   0  0  0  0  0  0  0  0  0  0  0  0
   37.7380   26.8350   33.9030 C   0  0  0  0  0  0  0  0  0  0  0  0
   38.0820   27.5510   35.0620 C   0  0  0  0  0  0  0  0  0  0  0  0
   38.3860   26.8810   36.2550 C   0  0  0  0  0  0  0  0  0  0  0  0
   38.3490   25.4780   36.3000 C   0  0  0  0  0  0  0  0  0  0  0  0
   38.0140   24.7680   35.1740 C   0  0  0  0  0  0  0  0  0  0  0  0
   38.1170   28.6320   35.0480 H   0  0  0  0  0  0  0  0  0  0  0  0
   38.6490   27.4400   37.1390 H   0  0  0  0  0  0  0  0  0  0  0  0
   38.5920   25.0080   37.2460 H   0  0  0  0  0  0  0  0  0  0  0  0
   36.1390   28.0210   32.4770 C   0  0  0  0  0  0  0  0  0  0  0  0
   37.4260   27.5180   32.6800 C   0  0  0  0  0  0  0  0  0  0  0  0
   38.3680   27.7040   31.6650 C   0  0  0  0  0  0  0  0  0  0  0  0
   37.9690   28.3660   30.5430 N   0  0  0  0  0  0  0  0  0  0  0  0
   36.7200   28.8370   30.3820 C   0  0  0  0  0  0  0  0  0  0  0  0
   35.8050   28.6660   31.3490 N   0  0  0  0  0  0  0  0  0  0  0  0
   35.4160   27.8710   33.2730 H   0  0  0  0  0  0  0  0  0  0  0  0
   36.4140   29.3620   29.4850 H   0  0  0  0  0  0  0  0  0  0  0  0
   39.7410   27.1930   31.8270 C   0  0  0  0  0  0  0  0  0  0  0  0
   40.2120   27.5510   32.7750 H   0  0  0  0  0  0  0  0  0  0  0  0
   39.7550   26.0750   31.8780 H   0  0  0  0  0  0  0  0  0  0  0  0
   40.3680   27.5660   30.9960 H   0  0  0  0  0  0  0  0  0  0  0  0
   37.3930   24.6700   32.9270 O   0  0  0  0  0  0  0  0  0  0  0  0
   38.1180   24.5850   32.2090 H   0  0  0  0  0  0  0  0  0  0  0  0
   37.9860   23.3860   35.2490 O   0  0  0  0  0  0  0  0  0  0  0  0
   38.5410   22.7450   36.3620 C   0  0  0  0  0  0  0  0  0  0  0  0
   37.9780   22.9470   37.2660 H   0  0  0  0  0  0  0  0  0  0  0  0
   39.5820   22.0290   36.2510 O   0  0  0  0  0  0  0  0  0  0  0  0
  1  6  1  0  0  0  0
  2  1  2  0  0  0  0
  2  3  1  0  0  0  0
  3  4  2  0  0  0  0
  4  5  1  0  0  0  0
  4  8  1  0  0  0  0
  5  9  1  0  0  0  0
  6 24  1  0  0  0  0
  6  5  2  0  0  0  0
  7  3  1  0  0  0  0
 10 11  1  0  0  0  0
 10 16  1  0  0  0  0
 11  2  1  0  0  0  0
 12 18  1  0  0  0  0
 12 11  2  0  0  0  0
 13 12  1  0  0  0  0
 14 13  2  0  0  0  0
 14 15  1  0  0  0  0
 15 10  2  0  0  0  0
 17 14  1  0  0  0  0
 18 20  1  0  0  0  0
 18 19  1  0  0  0  0
 21 18  1  0  0  0  0
 22  1  1  0  0  0  0
 23 22  1  0  0  0  0
 24 25  1  0  0  0  0
 25 26  1  0  0  0  0
 27 25  2  0  0  0  0
M  END
>  <minimizedAffinity>
-4.3780551

$$$$

 OpenBabel03272509193D

 27 28  0  0  0  0  0  0  0  0999 V2000
   35.5840   30.1040   32.6840 C   0  0  0  0  0  0  0  0  0  0  0  0
   35.5800   29.7480   34.0190 C   0  0  0  0  0  0  0  0  0  0  0  0
   36.2310   28.5390   34.3150 C   0  0  0  0  0  0  0  0  0  0  0  0
   36.8290   27.7790   33.3000 C   0  0  0  0  0  0  0  0  0  0  0  0
   36.7810   28.2250   31.9700 C   0  0  0  0  0  0  0  0  0  0  0  0
   36.1470   29.4050   31.6690 C   0  0  0  0  0  0  0  0  0  0  0  0
   36.2790   28.1780   35.3330 H   0  0  0  0  0  0  0  0  0  0  0  0
   37.3260   26.8520   33.5390 H   0  0  0  0  0  0  0  0  0  0  0  0
   37.2580   27.6020   31.2220 H   0  0  0  0  0  0  0  0  0  0  0  0
   35.7390   31.4300   35.7910 C   0  0  0  0  0  0  0  0  0  0  0  0
   34.9670   30.5280   35.0550 C   0  0  0  0  0  0  0  0  0  0  0  0
   33.6090   30.4260   35.3670 C   0  0  0  0  0  0  0  0  0  0  0  0
   33.1270   31.2120   36.3700 N   0  0  0  0  0  0  0  0  0  0  0  0
   33.9010   32.0690   37.0570 C   0  0  0  0  0  0  0  0  0  0  0  0
   35.2070   32.1790   36.7690 N   0  0  0  0  0  0  0  0  0  0  0  0
   36.7930   31.5010   35.5400 H   0  0  0  0  0  0  0  0  0  0  0  0
   33.5060   32.6910   37.8530 H   0  0  0  0  0  0  0  0  0  0  0  0
   32.7480   29.4900   34.6220 C   0  0  0  0  0  0  0  0  0  0  0  0
   32.8150   29.6480   33.5170 H   0  0  0  0  0  0  0  0  0  0  0  0
   33.0510   28.4270   34.8010 H   0  0  0  0  0  0  0  0  0  0  0  0
   31.6930   29.6610   34.9070 H   0  0  0  0  0  0  0  0  0  0  0  0
   34.9520   31.3050   32.3040 O   0  0  0  0  0  0  0  0  0  0  0  0
   35.4590   32.1660   32.5290 H   0  0  0  0  0  0  0  0  0  0  0  0
   36.1170   29.8190   30.3470 O   0  0  0  0  0  0  0  0  0  0  0  0
   37.2980   29.8190   29.5970 C   0  0  0  0  0  0  0  0  0  0  0  0
   38.0010   30.5640   29.9520 H   0  0  0  0  0  0  0  0  0  0  0  0
   37.4570   29.0140   28.6310 O   0  0  0  0  0  0  0  0  0  0  0  0
  1  2  1  0  0  0  0
  2  3  2  0  0  0  0
  2 11  1  0  0  0  0
  3  7  1  0  0  0  0
  4  8  1  0  0  0  0
  4  3  1  0  0  0  0
  5  4  2  0  0  0  0
  6  5  1  0  0  0  0
  6  1  2  0  0  0  0
  9  5  1  0  0  0  0
 10 15  1  0  0  0  0
 11 12  1  0  0  0  0
 11 10  2  0  0  0  0
 12 13  2  0  0  0  0
 13 14  1  0  0  0  0
 14 17  1  0  0  0  0
 15 14  2  0  0  0  0
 16 10  1  0  0  0  0
 18 20  1  0  0  0  0
 18 21  1  0  0  0  0
 18 12  1  0  0  0  0
 19 18  1  0  0  0  0
 22 23  1  0  0  0  0
 22  1  1  0  0  0  0
 24  6  1  0  0  0  0
 25 26  1  0  0  0  0
 25 24  1  0  0  0  0
 27 25  2  0  0  0  0
M  END
>  <minimizedAffinity>
-4.34472275

$$$$

 OpenBabel03272509193D

 27 28  0  0  0  0  0  0  0  0999 V2000
   40.4390   23.8880   35.4650 C   0  0  0  0  0  0  0  0  0  0  0  0
   39.1030   24.2100   35.6050 C   0  0  0  0  0  0  0  0  0  0  0  0
   38.4980   23.7440   36.7830 C   0  0  0  0  0  0  0  0  0  0  0  0
   39.2310   23.0090   37.7250 C   0  0  0  0  0  0  0  0  0  0  0  0
   40.5880   22.7320   37.4940 C   0  0  0  0  0  0  0  0  0  0  0  0
   41.1900   23.1820   36.3450 C   0  0  0  0  0  0  0  0  0  0  0  0
   37.4540   23.9470   36.9800 H   0  0  0  0  0  0  0  0  0  0  0  0
   38.7560   22.6560   38.6260 H   0  0  0  0  0  0  0  0  0  0  0  0
   41.1110   22.1600   38.2510 H   0  0  0  0  0  0  0  0  0  0  0  0
   37.7950   24.3130   33.5370 C   0  0  0  0  0  0  0  0  0  0  0  0
   38.3550   24.9630   34.6390 C   0  0  0  0  0  0  0  0  0  0  0  0
   38.1580   26.3420   34.7520 C   0  0  0  0  0  0  0  0  0  0  0  0
   37.4320   26.9620   33.7800 N   0  0  0  0  0  0  0  0  0  0  0  0
   36.9080   26.3020   32.7330 C   0  0  0  0  0  0  0  0  0  0  0  0
   37.0880   24.9780   32.6100 N   0  0  0  0  0  0  0  0  0  0  0  0
   37.9540   23.2410   33.4600 H   0  0  0  0  0  0  0  0  0  0  0  0
   36.3320   26.8060   31.9650 H   0  0  0  0  0  0  0  0  0  0  0  0
   38.7280   27.0780   35.8950 C   0  0  0  0  0  0  0  0  0  0  0  0
   38.4300   26.6270   36.8740 H   0  0  0  0  0  0  0  0  0  0  0  0
   39.8470   27.0610   35.8740 H   0  0  0  0  0  0  0  0  0  0  0  0
   38.3420   28.1150   35.8890 H   0  0  0  0  0  0  0  0  0  0  0  0
   41.1200   24.3200   34.3090 O   0  0  0  0  0  0  0  0  0  0  0  0
   41.3630   25.3140   34.2810 H   0  0  0  0  0  0  0  0  0  0  0  0
   42.5300   22.8930   36.1450 O   0  0  0  0  0  0  0  0  0  0  0  0
   43.5040   23.7790   36.6180 C   0  0  0  0  0  0  0  0  0  0  0  0
   44.0640   23.3590   37.4460 H   0  0  0  0  0  0  0  0  0  0  0  0
   43.6570   24.9230   36.0910 O   0  0  0  0  0  0  0  0  0  0  0  0
  1  2  2  0  0  0  0
  1  6  1  0  0  0  0
  2  3  1  0  0  0  0
  3  7  1  0  0  0  0
  3  4  2  0  0  0  0
  4  8  1  0  0  0  0
  5  4  1  0  0  0  0
  5  9  1  0  0  0  0
  6  5  2  0  0  0  0
 10 11  1  0  0  0  0
 11 12  2  0  0  0  0
 11  2  1  0  0  0  0
 12 18  1  0  0  0  0
 13 12  1  0  0  0  0
 14 13  2  0  0  0  0
 15 14  1  0  0  0  0
 15 10  2  0  0  0  0
 16 10  1  0  0  0  0
 17 14  1  0  0  0  0
 18 19  1  0  0  0  0
 20 18  1  0  0  0  0
 21 18  1  0  0  0  0
 22  1  1  0  0  0  0
 23 22  1  0  0  0  0
 24  6  1  0  0  0  0
 24 25  1  0  0  0  0
 25 26  1  0  0  0  0
 27 25  2  0  0  0  0
M  END
>  <minimizedAffinity>
-4.28614902

$$$$

 OpenBabel03272509193D

 27 28  0  0  0  0  0  0  0  0999 V2000
   39.6620   25.0510   34.7150 C   0  0  0  0  0  0  0  0  0  0  0  0
   39.7750   26.3990   34.4330 C   0  0  0  0  0  0  0  0  0  0  0  0
   39.0490   27.2480   35.2840 C   0  0  0  0  0  0  0  0  0  0  0  0
   38.2790   26.7270   36.3320 C   0  0  0  0  0  0  0  0  0  0  0  0
   38.2270   25.3390   36.5410 C   0  0  0  0  0  0  0  0  0  0  0  0
   38.9330   24.4990   35.7150 C   0  0  0  0  0  0  0  0  0  0  0  0
   39.0760   28.3200   35.1400 H   0  0  0  0  0  0  0  0  0  0  0  0
   37.7250   27.3880   36.9800 H   0  0  0  0  0  0  0  0  0  0  0  0
   37.6180   24.9860   37.3650 H   0  0  0  0  0  0  0  0  0  0  0  0
   41.9080   27.2430   33.5770 C   0  0  0  0  0  0  0  0  0  0  0  0
   40.5640   26.9290   33.3590 C   0  0  0  0  0  0  0  0  0  0  0  0
   40.0410   27.1520   32.0830 C   0  0  0  0  0  0  0  0  0  0  0  0
   40.8770   27.6590   31.1340 N   0  0  0  0  0  0  0  0  0  0  0  0
   42.1650   27.9490   31.3800 C   0  0  0  0  0  0  0  0  0  0  0  0
   42.6830   27.7410   32.6010 N   0  0  0  0  0  0  0  0  0  0  0  0
   42.3040   27.0650   34.5730 H   0  0  0  0  0  0  0  0  0  0  0  0
   42.8210   28.3520   30.6170 H   0  0  0  0  0  0  0  0  0  0  0  0
   38.6290   26.8390   31.7980 C   0  0  0  0  0  0  0  0  0  0  0  0
   38.3690   25.7870   32.0760 H   0  0  0  0  0  0  0  0  0  0  0  0
   37.9400   27.4950   32.3880 H   0  0  0  0  0  0  0  0  0  0  0  0
   38.4460   26.9380   30.7110 H   0  0  0  0  0  0  0  0  0  0  0  0
   40.3610   24.1320   33.9080 O   0  0  0  0  0  0  0  0  0  0  0  0
   41.3710   24.0750   34.0690 H   0  0  0  0  0  0  0  0  0  0  0  0
   38.8620   23.1350   35.9460 O   0  0  0  0  0  0  0  0  0  0  0  0
   39.8360   22.5190   36.7400 C   0  0  0  0  0  0  0  0  0  0  0  0
   40.4510   21.8360   36.1650 H   0  0  0  0  0  0  0  0  0  0  0  0
   39.9300   22.7780   37.9780 O   0  0  0  0  0  0  0  0  0  0  0  0
  1  6  1  0  0  0  0
  2  1  2  0  0  0  0
  2  3  1  0  0  0  0
  3  4  2  0  0  0  0
  4  5  1  0  0  0  0
  4  8  1  0  0  0  0
  5  9  1  0  0  0  0
  6 24  1  0  0  0  0
  6  5  2  0  0  0  0
  7  3  1  0  0  0  0
 10 16  1  0  0  0  0
 11 10  1  0  0  0  0
 11  2  1  0  0  0  0
 12 11  2  0  0  0  0
 13 14  2  0  0  0  0
 13 12  1  0  0  0  0
 14 15  1  0  0  0  0
 15 10  2  0  0  0  0
 17 14  1  0  0  0  0
 18 19  1  0  0  0  0
 18 12  1  0  0  0  0
 18 20  1  0  0  0  0
 21 18  1  0  0  0  0
 22 23  1  0  0  0  0
 22  1  1  0  0  0  0
 24 25  1  0  0  0  0
 25 27  2  0  0  0  0
 26 25  1  0  0  0  0
M  END
>  <minimizedAffinity>
-4.21100664

$$$$

 OpenBabel03272509193D

 27 28  0  0  0  0  0  0  0  0999 V2000
   38.0460   26.5040   35.2180 C   0  0  0  0  0  0  0  0  0  0  0  0
   38.4430   25.2370   34.8350 C   0  0  0  0  0  0  0  0  0  0  0  0
   37.9290   24.7980   33.6040 C   0  0  0  0  0  0  0  0  0  0  0  0
   37.0780   25.6150   32.8490 C   0  0  0  0  0  0  0  0  0  0  0  0
   36.7300   26.8910   33.3220 C   0  0  0  0  0  0  0  0  0  0  0  0
   37.2260   27.3310   34.5240 C   0  0  0  0  0  0  0  0  0  0  0  0
   38.1850   23.8190   33.2220 H   0  0  0  0  0  0  0  0  0  0  0  0
   36.6880   25.2670   31.9050 H   0  0  0  0  0  0  0  0  0  0  0  0
   36.0690   27.4850   32.7010 H   0  0  0  0  0  0  0  0  0  0  0  0
   40.6700   24.3200   35.2790 C   0  0  0  0  0  0  0  0  0  0  0  0
   39.3150   24.4030   35.6110 C   0  0  0  0  0  0  0  0  0  0  0  0
   38.8640   23.6550   36.7010 C   0  0  0  0  0  0  0  0  0  0  0  0
   39.7750   22.8950   37.3710 N   0  0  0  0  0  0  0  0  0  0  0  0
   41.0720   22.8400   37.0220 C   0  0  0  0  0  0  0  0  0  0  0  0
   41.5210   23.5520   35.9770 N   0  0  0  0  0  0  0  0  0  0  0  0
   41.0100   24.9060   34.4300 H   0  0  0  0  0  0  0  0  0  0  0  0
   41.7870   22.2310   37.5630 H   0  0  0  0  0  0  0  0  0  0  0  0
   37.4440   23.7050   37.0950 C   0  0  0  0  0  0  0  0  0  0  0  0
   37.0900   24.7540   37.2520 H   0  0  0  0  0  0  0  0  0  0  0  0
   36.7860   23.2720   36.2990 H   0  0  0  0  0  0  0  0  0  0  0  0
   37.3140   23.1750   38.0570 H   0  0  0  0  0  0  0  0  0  0  0  0
   38.5190   27.0190   36.4410 O   0  0  0  0  0  0  0  0  0  0  0  0
   39.4940   27.3310   36.4450 H   0  0  0  0  0  0  0  0  0  0  0  0
   36.8650   28.5940   34.9640 O   0  0  0  0  0  0  0  0  0  0  0  0
   35.8090   29.2660   34.3380 C   0  0  0  0  0  0  0  0  0  0  0  0
   35.5800   28.8410   33.3680 H   0  0  0  0  0  0  0  0  0  0  0  0
   35.2360   30.2480   34.9000 O   0  0  0  0  0  0  0  0  0  0  0  0
  1 22  1  0  0  0  0
  2  1  1  0  0  0  0
  2 11  1  0  0  0  0
  3  2  2  0  0  0  0
  4  5  2  0  0  0  0
  4  3  1  0  0  0  0
  5  6  1  0  0  0  0
  6 24  1  0  0  0  0
  6  1  2  0  0  0  0
  7  3  1  0  0  0  0
  8  4  1  0  0  0  0
  9  5  1  0  0  0  0
 10 11  2  0  0  0  0
 10 15  1  0  0  0  0
 11 12  1  0  0  0  0
 12 18  1  0  0  0  0
 12 13  2  0  0  0  0
 14 13  1  0  0  0  0
 14 17  1  0  0  0  0
 15 14  2  0  0  0  0
 16 10  1  0  0  0  0
 18 19  1  0  0  0  0
 18 21  1  0  0  0  0
 20 18  1  0  0  0  0
 22 23  1  0  0  0  0
 25 27  2  0  0  0  0
 25 24  1  0  0  0  0
 26 25  1  0  0  0  0
M  END
>  <minimizedAffinity>
-4.14574242

$$$$

 OpenBabel03272509193D

 27 28  0  0  0  0  0  0  0  0999 V2000
   38.6920   25.3910   33.4990 C   0  0  0  0  0  0  0  0  0  0  0  0
   39.3880   25.5070   34.6870 C   0  0  0  0  0  0  0  0  0  0  0  0
   40.3960   26.4840   34.6950 C   0  0  0  0  0  0  0  0  0  0  0  0
   40.6480   27.2640   33.5580 C   0  0  0  0  0  0  0  0  0  0  0  0
   39.8870   27.0730   32.3940 C   0  0  0  0  0  0  0  0  0  0  0  0
   38.8980   26.1210   32.3750 C   0  0  0  0  0  0  0  0  0  0  0  0
   40.9940   26.6470   35.5810 H   0  0  0  0  0  0  0  0  0  0  0  0
   41.4260   28.0120   33.5740 H   0  0  0  0  0  0  0  0  0  0  0  0
   40.1200   27.7010   31.5420 H   0  0  0  0  0  0  0  0  0  0  0  0
   38.1540   25.1130   36.7660 C   0  0  0  0  0  0  0  0  0  0  0  0
   39.1270   24.7070   35.8490 C   0  0  0  0  0  0  0  0  0  0  0  0
   39.8150   23.5190   36.1120 C   0  0  0  0  0  0  0  0  0  0  0  0
   39.4910   22.8350   37.2440 N   0  0  0  0  0  0  0  0  0  0  0  0
   38.5480   23.2570   38.1030 C   0  0  0  0  0  0  0  0  0  0  0  0
   37.8780   24.3950   37.8660 N   0  0  0  0  0  0  0  0  0  0  0  0
   37.6260   26.0380   36.5510 H   0  0  0  0  0  0  0  0  0  0  0  0
   38.2980   22.7030   39.0010 H   0  0  0  0  0  0  0  0  0  0  0  0
   40.8520   23.0450   35.1780 C   0  0  0  0  0  0  0  0  0  0  0  0
   40.4710   22.9730   34.1290 H   0  0  0  0  0  0  0  0  0  0  0  0
   41.7220   23.7490   35.1440 H   0  0  0  0  0  0  0  0  0  0  0  0
   41.1700   22.0270   35.4740 H   0  0  0  0  0  0  0  0  0  0  0  0
   37.6630   24.4330   33.4100 O   0  0  0  0  0  0  0  0  0  0  0  0
   36.7900   24.6720   33.8900 H   0  0  0  0  0  0  0  0  0  0  0  0
   38.1630   25.9550   31.2130 O   0  0  0  0  0  0  0  0  0  0  0  0
   37.1630   26.8800   30.8910 C   0  0  0  0  0  0  0  0  0  0  0  0
   37.5720   27.7690   30.4240 H   0  0  0  0  0  0  0  0  0  0  0  0
   35.9450   26.6390   31.1470 O   0  0  0  0  0  0  0  0  0  0  0  0
  1  2  1  0  0  0  0
  2  3  2  0  0  0  0
  2 11  1  0  0  0  0
  3  7  1  0  0  0  0
  4  8  1  0  0  0  0
  4  3  1  0  0  0  0
  5  4  2  0  0  0  0
  6  5  1  0  0  0  0
  6  1  2  0  0  0  0
  9  5  1  0  0  0  0
 10 15  1  0  0  0  0
 11 12  1  0  0  0  0
 11 10  2  0  0  0  0
 12 13  2  0  0  0  0
 13 14  1  0  0  0  0
 14 17  1  0  0  0  0
 15 14  2  0  0  0  0
 16 10  1  0  0  0  0
 18 21  1  0  0  0  0
 18 12  1  0  0  0  0
 19 18  1  0  0  0  0
 20 18  1  0  0  0  0
 22  1  1  0  0  0  0
 22 23  1  0  0  0  0
 24  6  1  0  0  0  0
 25 27  2  0  0  0  0
 25 24  1  0  0  0  0
 26 25  1  0  0  0  0
M  END
>  <minimizedAffinity>
-4.13517666

$$$$

 OpenBabel03272509193D

 27 28  0  0  0  0  0  0  0  0999 V2000
   34.8950   31.3640   35.4150 C   0  0  0  0  0  0  0  0  0  0  0  0
   34.4000   30.4010   34.5580 C   0  0  0  0  0  0  0  0  0  0  0  0
   33.1730   29.8360   34.9410 C   0  0  0  0  0  0  0  0  0  0  0  0
   32.5290   30.2480   36.1150 C   0  0  0  0  0  0  0  0  0  0  0  0
   33.1110   31.2370   36.9240 C   0  0  0  0  0  0  0  0  0  0  0  0
   34.3110   31.7960   36.5590 C   0  0  0  0  0  0  0  0  0  0  0  0
   32.7070   29.0730   34.3320 H   0  0  0  0  0  0  0  0  0  0  0  0
   31.5860   29.8080   36.4000 H   0  0  0  0  0  0  0  0  0  0  0  0
   32.5740   31.5220   37.8210 H   0  0  0  0  0  0  0  0  0  0  0  0
   34.7530   30.6010   32.1430 C   0  0  0  0  0  0  0  0  0  0  0  0
   35.0620   29.9810   33.3560 C   0  0  0  0  0  0  0  0  0  0  0  0
   36.0190   28.9630   33.3430 C   0  0  0  0  0  0  0  0  0  0  0  0
   36.5880   28.6410   32.1480 N   0  0  0  0  0  0  0  0  0  0  0  0
   36.2640   29.2600   30.9990 C   0  0  0  0  0  0  0  0  0  0  0  0
   35.3480   30.2400   30.9950 N   0  0  0  0  0  0  0  0  0  0  0  0
   34.0080   31.3910   32.1650 H   0  0  0  0  0  0  0  0  0  0  0  0
   36.7240   28.9950   30.0540 H   0  0  0  0  0  0  0  0  0  0  0  0
   36.3830   28.2750   34.5950 C   0  0  0  0  0  0  0  0  0  0  0  0
   36.6870   28.9950   35.3950 H   0  0  0  0  0  0  0  0  0  0  0  0
   35.5170   27.6990   35.0100 H   0  0  0  0  0  0  0  0  0  0  0  0
   37.2520   27.6170   34.4090 H   0  0  0  0  0  0  0  0  0  0  0  0
   36.1230   31.9800   35.1010 O   0  0  0  0  0  0  0  0  0  0  0  0
   36.0940   32.6740   34.3490 H   0  0  0  0  0  0  0  0  0  0  0  0
   34.8610   32.7700   37.3770 O   0  0  0  0  0  0  0  0  0  0  0  0
   34.2590   34.0310   37.4480 C   0  0  0  0  0  0  0  0  0  0  0  0
   34.1470   34.4790   36.4680 H   0  0  0  0  0  0  0  0  0  0  0  0
   33.9120   34.5270   38.5620 O   0  0  0  0  0  0  0  0  0  0  0  0
  1  6  1  0  0  0  0
  2  3  1  0  0  0  0
  2  1  2  0  0  0  0
  3  4  2  0  0  0  0
  4  8  1  0  0  0  0
  4  5  1  0  0  0  0
  5  9  1  0  0  0  0
  6  5  2  0  0  0  0
  6 24  1  0  0  0  0
  7  3  1  0  0  0  0
 10 16  1  0  0  0  0
 10 11  1  0  0  0  0
 11  2  1  0  0  0  0
 12 11  2  0  0  0  0
 12 18  1  0  0  0  0
 13 12  1  0  0  0  0
 14 13  2  0  0  0  0
 15 14  1  0  0  0  0
 15 10  2  0  0  0  0
 17 14  1  0  0  0  0
 18 20  1  0  0  0  0
 18 19  1  0  0  0  0
 21 18  1  0  0  0  0
 22  1  1  0  0  0  0
 23 22  1  0  0  0  0
 24 25  1  0  0  0  0
 25 27  2  0  0  0  0
 26 25  1  0  0  0  0
M  END
>  <minimizedAffinity>
-4.13480473

$$$$
