
 OpenBabel03272501023D

 28 29  0  0  0  0  0  0  0  0999 V2000
   37.4670   24.5530   33.6930 F   0  0  0  0  0  0  0  0  0  0  0  0
   38.5180   25.4150   33.7020 C   0  0  0  0  0  0  0  0  0  0  0  0
   39.3720   25.5720   34.7860 C   0  0  0  0  0  0  0  0  0  0  0  0
   40.3970   26.4620   34.6970 C   0  0  0  0  0  0  0  0  0  0  0  0
   40.6400   27.2290   33.5750 C   0  0  0  0  0  0  0  0  0  0  0  0
   39.7860   27.0720   32.4950 C   0  0  0  0  0  0  0  0  0  0  0  0
   38.7280   26.1700   32.5530 C   0  0  0  0  0  0  0  0  0  0  0  0
   41.0670   26.5810   35.5530 H   0  0  0  0  0  0  0  0  0  0  0  0
   41.4590   27.9120   33.5610 H   0  0  0  0  0  0  0  0  0  0  0  0
   39.9570   27.6670   31.5970 H   0  0  0  0  0  0  0  0  0  0  0  0
   39.7320   22.8680   37.2290 C   0  0  0  0  0  0  0  0  0  0  0  0
   38.7600   23.1590   38.1910 C   0  0  0  0  0  0  0  0  0  0  0  0
   37.9690   24.3020   37.9960 C   0  0  0  0  0  0  0  0  0  0  0  0
   38.1760   25.0700   36.8960 N   0  0  0  0  0  0  0  0  0  0  0  0
   39.1260   24.7650   35.9790 C   0  0  0  0  0  0  0  0  0  0  0  0
   39.8980   23.6650   36.1520 N   0  0  0  0  0  0  0  0  0  0  0  0
   40.3540   21.9800   37.3700 H   0  0  0  0  0  0  0  0  0  0  0  0
   38.5990   22.5460   39.0630 H   0  0  0  0  0  0  0  0  0  0  0  0
   37.1910   24.5980   38.6960 H   0  0  0  0  0  0  0  0  0  0  0  0
   37.9000   26.0290   31.4830 O   0  0  0  0  0  0  0  0  0  0  0  0
   35.3710   25.7130   31.0590 O   0  0  0  0  0  0  0  0  0  0  0  0
   36.4490   26.8050   31.1610 P   0  0  2  0  0  0  0  0  0  0  0  0
   36.3970   27.6630   29.7360 O   0  0  0  0  0  0  0  0  0  0  0  0
   36.6710   28.6120   29.8900 H   0  0  0  0  0  0  0  0  0  0  0  0
   35.9750   27.7850   32.4700 O   0  0  0  0  0  0  0  0  0  0  0  0
   35.1120   28.8680   32.3470 C   0  0  0  0  0  0  0  0  0  0  0  0
   34.3500   28.8190   33.1290 H   0  0  0  0  0  0  0  0  0  0  0  0
   35.2920   29.7140   31.4230 O   0  0  0  0  0  0  0  0  0  0  0  0
  1  2  1  0  0  0  0
  2  3  1  0  0  0  0
  3 15  1  0  0  0  0
  4  3  2  0  0  0  0
  4  8  1  0  0  0  0
  5  4  1  0  0  0  0
  6  7  1  0  0  0  0
  6  5  2  0  0  0  0
  7  2  2  0  0  0  0
  9  5  1  0  0  0  0
 10  6  1  0  0  0  0
 11 17  1  0  0  0  0
 11 12  1  0  0  0  0
 12 18  1  0  0  0  0
 13 12  2  0  0  0  0
 13 19  1  0  0  0  0
 14 13  1  0  0  0  0
 15 16  1  0  0  0  0
 15 14  2  0  0  0  0
 16 11  2  0  0  0  0
 20  7  1  0  0  0  0
 22 21  2  6  0  0  0
 22 20  1  0  0  0  0
 22 25  1  0  0  0  0
 23 24  1  0  0  0  0
 23 22  1  0  0  0  0
 26 25  1  0  0  0  0
 26 27  1  0  0  0  0
 28 26  2  0  0  0  0
M  END
>  <minimizedAffinity>
-4.91922808

$$$$

 OpenBabel03272501023D

 28 29  0  0  0  0  0  0  0  0999 V2000
   37.6950   24.0360   33.8780 F   0  0  0  0  0  0  0  0  0  0  0  0
   37.8100   25.2690   34.4400 C   0  0  0  0  0  0  0  0  0  0  0  0
   38.5740   25.5290   35.5700 C   0  0  0  0  0  0  0  0  0  0  0  0
   38.6250   26.7980   36.0570 C   0  0  0  0  0  0  0  0  0  0  0  0
   37.9510   27.8580   35.4830 C   0  0  0  0  0  0  0  0  0  0  0  0
   37.1880   27.5960   34.3570 C   0  0  0  0  0  0  0  0  0  0  0  0
   37.1150   26.3090   33.8330 C   0  0  0  0  0  0  0  0  0  0  0  0
   39.2290   26.9970   36.9460 H   0  0  0  0  0  0  0  0  0  0  0  0
   38.0270   28.8320   35.9080 H   0  0  0  0  0  0  0  0  0  0  0  0
   36.6450   28.4170   33.8840 H   0  0  0  0  0  0  0  0  0  0  0  0
   39.3970   22.8880   37.9710 C   0  0  0  0  0  0  0  0  0  0  0  0
   40.5590   22.3140   37.4460 C   0  0  0  0  0  0  0  0  0  0  0  0
   41.0670   22.8430   36.2500 C   0  0  0  0  0  0  0  0  0  0  0  0
   40.4190   23.8780   35.6560 N   0  0  0  0  0  0  0  0  0  0  0  0
   39.2930   24.4160   36.1850 C   0  0  0  0  0  0  0  0  0  0  0  0
   38.7890   23.9160   37.3400 N   0  0  0  0  0  0  0  0  0  0  0  0
   38.9920   22.4840   38.9020 H   0  0  0  0  0  0  0  0  0  0  0  0
   41.0700   21.4930   37.9220 H   0  0  0  0  0  0  0  0  0  0  0  0
   41.9660   22.4560   35.7770 H   0  0  0  0  0  0  0  0  0  0  0  0
   36.3610   26.0710   32.7250 O   0  0  0  0  0  0  0  0  0  0  0  0
   38.3460   26.2710   31.0830 O   0  0  0  0  0  0  0  0  0  0  0  0
   36.8500   25.9190   31.1280 P   0  0  2  0  0  0  0  0  0  0  0  0
   36.0890   26.9290   30.0470 O   0  0  0  0  0  0  0  0  0  0  0  0
   35.2820   26.4810   29.6610 H   0  0  0  0  0  0  0  0  0  0  0  0
   36.7520   24.3000   30.6100 O   0  0  0  0  0  0  0  0  0  0  0  0
   35.8630   23.3730   31.1450 C   0  0  0  0  0  0  0  0  0  0  0  0
   34.8810   23.8370   31.2640 H   0  0  0  0  0  0  0  0  0  0  0  0
   36.2610   22.2010   31.4100 O   0  0  0  0  0  0  0  0  0  0  0  0
  1  2  1  0  0  0  0
  2  3  1  0  0  0  0
  3  4  2  0  0  0  0
  3 15  1  0  0  0  0
  4  8  1  0  0  0  0
  5  9  1  0  0  0  0
  5  4  1  0  0  0  0
  6  5  2  0  0  0  0
  7  6  1  0  0  0  0
  7  2  2  0  0  0  0
 10  6  1  0  0  0  0
 11 17  1  0  0  0  0
 12 18  1  0  0  0  0
 12 11  1  0  0  0  0
 13 12  2  0  0  0  0
 14 15  2  0  0  0  0
 14 13  1  0  0  0  0
 15 16  1  0  0  0  0
 16 11  2  0  0  0  0
 19 13  1  0  0  0  0
 20  7  1  0  0  0  0
 22 21  2  6  0  0  0
 22 20  1  0  0  0  0
 23 22  1  0  0  0  0
 24 23  1  0  0  0  0
 25 22  1  0  0  0  0
 25 26  1  0  0  0  0
 26 27  1  0  0  0  0
 26 28  2  0  0  0  0
M  END
>  <minimizedAffinity>
-4.88411379

$$$$

 OpenBabel03272501023D

 28 29  0  0  0  0  0  0  0  0999 V2000
   36.8740   25.4480   32.8020 F   0  0  0  0  0  0  0  0  0  0  0  0
   37.3780   26.0270   33.9240 C   0  0  0  0  0  0  0  0  0  0  0  0
   37.2910   27.3880   34.1900 C   0  0  0  0  0  0  0  0  0  0  0  0
   37.8270   27.8730   35.3420 C   0  0  0  0  0  0  0  0  0  0  0  0
   38.4620   27.0780   36.2760 C   0  0  0  0  0  0  0  0  0  0  0  0
   38.5480   25.7220   36.0090 C   0  0  0  0  0  0  0  0  0  0  0  0
   38.0100   25.1930   34.8400 C   0  0  0  0  0  0  0  0  0  0  0  0
   37.7550   28.9440   35.5460 H   0  0  0  0  0  0  0  0  0  0  0  0
   38.8640   27.5130   37.1630 H   0  0  0  0  0  0  0  0  0  0  0  0
   39.0450   25.0720   36.7320 H   0  0  0  0  0  0  0  0  0  0  0  0
   34.7940   29.6480   32.7500 C   0  0  0  0  0  0  0  0  0  0  0  0
   35.2600   29.8720   31.4510 C   0  0  0  0  0  0  0  0  0  0  0  0
   36.4510   29.2360   31.0650 C   0  0  0  0  0  0  0  0  0  0  0  0
   37.0940   28.4390   31.9560 N   0  0  0  0  0  0  0  0  0  0  0  0
   36.6200   28.2390   33.2090 C   0  0  0  0  0  0  0  0  0  0  0  0
   35.4720   28.8460   33.5980 N   0  0  0  0  0  0  0  0  0  0  0  0
   33.8680   30.1370   33.0620 H   0  0  0  0  0  0  0  0  0  0  0  0
   34.7460   30.5050   30.7470 H   0  0  0  0  0  0  0  0  0  0  0  0
   36.8800   29.3570   30.0730 H   0  0  0  0  0  0  0  0  0  0  0  0
   38.1040   23.8580   34.5950 O   0  0  0  0  0  0  0  0  0  0  0  0
   37.2030   21.4590   34.9260 O   0  0  0  0  0  0  0  0  0  0  0  0
   37.9580   22.5750   35.6660 P   0  0  2  0  0  0  0  0  0  0  0  0
   37.0970   22.8960   37.0530 O   0  0  0  0  0  0  0  0  0  0  0  0
   37.7100   23.2070   37.7790 H   0  0  0  0  0  0  0  0  0  0  0  0
   39.4820   21.9160   36.0430 O   0  0  0  0  0  0  0  0  0  0  0  0
   40.2790   22.3710   37.0870 C   0  0  0  0  0  0  0  0  0  0  0  0
   41.3270   22.1480   36.8710 H   0  0  0  0  0  0  0  0  0  0  0  0
   39.7450   22.9420   38.0830 O   0  0  0  0  0  0  0  0  0  0  0  0
  1  2  1  0  0  0  0
  2  3  2  0  0  0  0
  2  7  1  0  0  0  0
  3  4  1  0  0  0  0
  4  8  1  0  0  0  0
  4  5  2  0  0  0  0
  5  9  1  0  0  0  0
  6  5  1  0  0  0  0
  6 10  1  0  0  0  0
  7  6  2  0  0  0  0
 11 17  1  0  0  0  0
 11 16  1  0  0  0  0
 12 11  2  0  0  0  0
 13 12  1  0  0  0  0
 13 14  2  0  0  0  0
 14 15  1  0  0  0  0
 15 16  2  0  0  0  0
 15  3  1  0  0  0  0
 18 12  1  0  0  0  0
 19 13  1  0  0  0  0
 20  7  1  0  0  0  0
 20 22  1  0  0  0  0
 22 21  2  6  0  0  0
 22 25  1  0  0  0  0
 22 23  1  0  0  0  0
 23 24  1  0  0  0  0
 25 26  1  0  0  0  0
 26 28  2  0  0  0  0
 27 26  1  0  0  0  0
M  END
>  <minimizedAffinity>
-4.86562443

$$$$

 OpenBabel03272501023D

 28 29  0  0  0  0  0  0  0  0999 V2000
   38.1180   23.9190   33.6250 F   0  0  0  0  0  0  0  0  0  0  0  0
   38.1210   25.0890   34.3170 C   0  0  0  0  0  0  0  0  0  0  0  0
   38.8840   25.3030   35.4570 C   0  0  0  0  0  0  0  0  0  0  0  0
   38.8190   26.5110   36.0800 C   0  0  0  0  0  0  0  0  0  0  0  0
   38.0260   27.5500   35.6370 C   0  0  0  0  0  0  0  0  0  0  0  0
   37.2650   27.3350   34.4990 C   0  0  0  0  0  0  0  0  0  0  0  0
   37.3090   26.1110   33.8380 C   0  0  0  0  0  0  0  0  0  0  0  0
   39.4220   26.6740   36.9770 H   0  0  0  0  0  0  0  0  0  0  0  0
   38.0140   28.4760   36.1650 H   0  0  0  0  0  0  0  0  0  0  0  0
   36.6300   28.1400   34.1280 H   0  0  0  0  0  0  0  0  0  0  0  0
   40.0180   22.4990   37.5230 C   0  0  0  0  0  0  0  0  0  0  0  0
   41.2320   22.1260   36.9370 C   0  0  0  0  0  0  0  0  0  0  0  0
   41.6660   22.8490   35.8160 C   0  0  0  0  0  0  0  0  0  0  0  0
   40.9010   23.8700   35.3490 N   0  0  0  0  0  0  0  0  0  0  0  0
   39.7290   24.2110   35.9360 C   0  0  0  0  0  0  0  0  0  0  0  0
   39.2940   23.5220   37.0200 N   0  0  0  0  0  0  0  0  0  0  0  0
   39.6690   21.9430   38.3970 H   0  0  0  0  0  0  0  0  0  0  0  0
   41.8350   21.3150   37.3110 H   0  0  0  0  0  0  0  0  0  0  0  0
   42.5980   22.6240   35.3030 H   0  0  0  0  0  0  0  0  0  0  0  0
   36.5550   25.9180   32.7220 O   0  0  0  0  0  0  0  0  0  0  0  0
   35.2350   28.0130   31.9860 O   0  0  0  0  0  0  0  0  0  0  0  0
   36.2440   26.9790   31.4610 P   0  0  2  0  0  0  0  0  0  0  0  0
   35.5660   26.2970   30.1030 O   0  0  0  0  0  0  0  0  0  0  0  0
   36.2790   26.0170   29.4610 H   0  0  0  0  0  0  0  0  0  0  0  0
   37.6350   27.8720   31.0550 O   0  0  0  0  0  0  0  0  0  0  0  0
   37.6470   28.8890   30.1070 C   0  0  0  0  0  0  0  0  0  0  0  0
   38.0040   29.8140   30.5680 H   0  0  0  0  0  0  0  0  0  0  0  0
   37.2730   28.6480   28.9220 O   0  0  0  0  0  0  0  0  0  0  0  0
  1  2  1  0  0  0  0
  2  3  1  0  0  0  0
  3 15  1  0  0  0  0
  3  4  2  0  0  0  0
  4  8  1  0  0  0  0
  5  4  1  0  0  0  0
  5  9  1  0  0  0  0
  6  5  2  0  0  0  0
  7  2  2  0  0  0  0
  7  6  1  0  0  0  0
 10  6  1  0  0  0  0
 11 17  1  0  0  0  0
 12 18  1  0  0  0  0
 12 11  2  0  0  0  0
 13 12  1  0  0  0  0
 14 13  2  0  0  0  0
 14 15  1  0  0  0  0
 15 16  2  0  0  0  0
 16 11  1  0  0  0  0
 19 13  1  0  0  0  0
 20  7  1  0  0  0  0
 22 21  2  1  0  0  0
 22 20  1  0  0  0  0
 23 22  1  0  0  0  0
 24 23  1  0  0  0  0
 25 22  1  0  0  0  0
 26 27  1  0  0  0  0
 26 25  1  0  0  0  0
 28 26  2  0  0  0  0
M  END
>  <minimizedAffinity>
-4.80399847

$$$$

 OpenBabel03272501023D

 28 29  0  0  0  0  0  0  0  0999 V2000
   38.0790   25.9860   34.5310 F   0  0  0  0  0  0  0  0  0  0  0  0
   37.9660   24.8210   33.8390 C   0  0  0  0  0  0  0  0  0  0  0  0
   38.1040   23.5680   34.4200 C   0  0  0  0  0  0  0  0  0  0  0  0
   37.9720   22.4590   33.6420 C   0  0  0  0  0  0  0  0  0  0  0  0
   37.7060   22.5110   32.2880 C   0  0  0  0  0  0  0  0  0  0  0  0
   37.5690   23.7620   31.7100 C   0  0  0  0  0  0  0  0  0  0  0  0
   37.6970   24.9160   32.4770 C   0  0  0  0  0  0  0  0  0  0  0  0
   38.0810   21.4750   34.1050 H   0  0  0  0  0  0  0  0  0  0  0  0
   37.6130   21.6090   31.7270 H   0  0  0  0  0  0  0  0  0  0  0  0
   37.3580   23.8300   30.6420 H   0  0  0  0  0  0  0  0  0  0  0  0
   39.8810   22.8120   37.5320 C   0  0  0  0  0  0  0  0  0  0  0  0
   39.0330   23.3100   38.5270 C   0  0  0  0  0  0  0  0  0  0  0  0
   37.8340   23.9140   38.1210 C   0  0  0  0  0  0  0  0  0  0  0  0
   37.5460   23.9910   36.7950 N   0  0  0  0  0  0  0  0  0  0  0  0
   38.3860   23.5000   35.8520 C   0  0  0  0  0  0  0  0  0  0  0  0
   39.5490   22.9130   36.2270 N   0  0  0  0  0  0  0  0  0  0  0  0
   40.8180   22.3390   37.8360 H   0  0  0  0  0  0  0  0  0  0  0  0
   39.2660   23.2460   39.5770 H   0  0  0  0  0  0  0  0  0  0  0  0
   37.1190   24.3250   38.8300 H   0  0  0  0  0  0  0  0  0  0  0  0
   37.5590   26.1370   31.8920 O   0  0  0  0  0  0  0  0  0  0  0  0
   35.1290   25.7360   31.1120 O   0  0  0  0  0  0  0  0  0  0  0  0
   36.1870   26.8440   31.2370 P   0  0  2  0  0  0  0  0  0  0  0  0
   36.3750   27.5000   29.7190 O   0  0  0  0  0  0  0  0  0  0  0  0
   36.6300   28.4640   29.7850 H   0  0  0  0  0  0  0  0  0  0  0  0
   35.5180   27.9880   32.3070 O   0  0  0  0  0  0  0  0  0  0  0  0
   36.2540   28.6510   33.2830 C   0  0  0  0  0  0  0  0  0  0  0  0
   36.9220   29.3740   32.8080 H   0  0  0  0  0  0  0  0  0  0  0  0
   36.0810   28.3650   34.5030 O   0  0  0  0  0  0  0  0  0  0  0  0
  2  3  1  0  0  0  0
  2  1  1  0  0  0  0
  3 15  1  0  0  0  0
  4  8  1  0  0  0  0
  4  3  2  0  0  0  0
  5  4  1  0  0  0  0
  6  5  2  0  0  0  0
  6  7  1  0  0  0  0
  7  2  2  0  0  0  0
  9  5  1  0  0  0  0
 10  6  1  0  0  0  0
 11 17  1  0  0  0  0
 11 12  1  0  0  0  0
 12 18  1  0  0  0  0
 13 12  2  0  0  0  0
 13 19  1  0  0  0  0
 14 13  1  0  0  0  0
 15 16  1  0  0  0  0
 15 14  2  0  0  0  0
 16 11  2  0  0  0  0
 20  7  1  0  0  0  0
 22 21  2  6  0  0  0
 22 20  1  0  0  0  0
 22 25  1  0  0  0  0
 23 24  1  0  0  0  0
 23 22  1  0  0  0  0
 25 26  1  0  0  0  0
 26 28  2  0  0  0  0
 27 26  1  0  0  0  0
M  END
>  <minimizedAffinity>
-4.76473475

$$$$

 OpenBabel03272501023D

 28 29  0  0  0  0  0  0  0  0999 V2000
   38.0050   23.5850   33.1800 F   0  0  0  0  0  0  0  0  0  0  0  0
   37.1090   24.3160   32.4640 C   0  0  0  0  0  0  0  0  0  0  0  0
   36.1150   23.7520   31.6750 C   0  0  0  0  0  0  0  0  0  0  0  0
   35.2650   24.5690   30.9970 C   0  0  0  0  0  0  0  0  0  0  0  0
   35.3350   25.9460   31.0480 C   0  0  0  0  0  0  0  0  0  0  0  0
   36.3280   26.5080   31.8360 C   0  0  0  0  0  0  0  0  0  0  0  0
   37.2130   25.7000   32.5430 C   0  0  0  0  0  0  0  0  0  0  0  0
   34.4850   24.1190   30.3780 H   0  0  0  0  0  0  0  0  0  0  0  0
   34.6420   26.5380   30.4950 H   0  0  0  0  0  0  0  0  0  0  0  0
   36.4040   27.5950   31.8930 H   0  0  0  0  0  0  0  0  0  0  0  0
   34.8860   20.3590   32.3050 C   0  0  0  0  0  0  0  0  0  0  0  0
   35.7630   19.5490   31.5760 C   0  0  0  0  0  0  0  0  0  0  0  0
   36.7910   20.1790   30.8580 C   0  0  0  0  0  0  0  0  0  0  0  0
   36.8940   21.5330   30.8990 N   0  0  0  0  0  0  0  0  0  0  0  0
   36.0310   22.2940   31.6130 C   0  0  0  0  0  0  0  0  0  0  0  0
   35.0310   21.7020   32.3120 N   0  0  0  0  0  0  0  0  0  0  0  0
   34.0810   19.8800   32.8680 H   0  0  0  0  0  0  0  0  0  0  0  0
   35.6770   18.4750   31.5480 H   0  0  0  0  0  0  0  0  0  0  0  0
   37.5150   19.6220   30.2680 H   0  0  0  0  0  0  0  0  0  0  0  0
   38.1820   26.2690   33.3110 O   0  0  0  0  0  0  0  0  0  0  0  0
   37.1260   27.8980   35.0170 O   0  0  0  0  0  0  0  0  0  0  0  0
   38.1170   26.7260   34.9240 P   0  0  2  0  0  0  0  0  0  0  0  0
   39.5520   27.2620   35.5740 O   0  0  0  0  0  0  0  0  0  0  0  0
   40.0510   26.5010   35.9890 H   0  0  0  0  0  0  0  0  0  0  0  0
   37.4460   25.4900   35.8840 O   0  0  0  0  0  0  0  0  0  0  0  0
   38.2020   24.4990   36.5000 C   0  0  0  0  0  0  0  0  0  0  0  0
   37.6460   24.0890   37.3470 H   0  0  0  0  0  0  0  0  0  0  0  0
   39.3490   24.2110   36.0480 O   0  0  0  0  0  0  0  0  0  0  0  0
  2  7  1  0  0  0  0
  2  1  1  0  0  0  0
  3  2  2  0  0  0  0
  4  5  2  0  0  0  0
  4  3  1  0  0  0  0
  5  6  1  0  0  0  0
  6 10  1  0  0  0  0
  6  7  2  0  0  0  0
  7 20  1  0  0  0  0
  8  4  1  0  0  0  0
  9  5  1  0  0  0  0
 11 16  1  0  0  0  0
 11 17  1  0  0  0  0
 12 11  2  0  0  0  0
 13 14  2  0  0  0  0
 13 12  1  0  0  0  0
 14 15  1  0  0  0  0
 15  3  1  0  0  0  0
 15 16  2  0  0  0  0
 18 12  1  0  0  0  0
 19 13  1  0  0  0  0
 20 22  1  0  0  0  0
 22 21  2  1  0  0  0
 22 23  1  0  0  0  0
 22 25  1  0  0  0  0
 23 24  1  0  0  0  0
 25 26  1  0  0  0  0
 26 27  1  0  0  0  0
 28 26  2  0  0  0  0
M  END
>  <minimizedAffinity>
-4.76469231

$$$$

 OpenBabel03272501023D

 28 29  0  0  0  0  0  0  0  0999 V2000
   38.4170   25.3320   33.3620 F   0  0  0  0  0  0  0  0  0  0  0  0
   37.5000   24.5570   32.7240 C   0  0  0  0  0  0  0  0  0  0  0  0
   36.5930   25.0490   31.7950 C   0  0  0  0  0  0  0  0  0  0  0  0
   35.7140   24.1920   31.2100 C   0  0  0  0  0  0  0  0  0  0  0  0
   35.6710   22.8410   31.4910 C   0  0  0  0  0  0  0  0  0  0  0  0
   36.5760   22.3510   32.4180 C   0  0  0  0  0  0  0  0  0  0  0  0
   37.4890   23.2010   33.0350 C   0  0  0  0  0  0  0  0  0  0  0  0
   35.0020   24.5860   30.4790 H   0  0  0  0  0  0  0  0  0  0  0  0
   34.9600   22.2160   31.0020 H   0  0  0  0  0  0  0  0  0  0  0  0
   36.5630   21.2870   32.6580 H   0  0  0  0  0  0  0  0  0  0  0  0
   37.7260   28.2180   30.3490 C   0  0  0  0  0  0  0  0  0  0  0  0
   36.8060   29.1520   30.8350 C   0  0  0  0  0  0  0  0  0  0  0  0
   35.7800   28.6840   31.6710 C   0  0  0  0  0  0  0  0  0  0  0  0
   35.7230   27.3610   31.9730 N   0  0  0  0  0  0  0  0  0  0  0  0
   36.6290   26.4770   31.4890 C   0  0  0  0  0  0  0  0  0  0  0  0
   37.6250   26.9120   30.6790 N   0  0  0  0  0  0  0  0  0  0  0  0
   38.5290   28.5700   29.6960 H   0  0  0  0  0  0  0  0  0  0  0  0
   36.8550   30.2010   30.5930 H   0  0  0  0  0  0  0  0  0  0  0  0
   35.0260   29.3440   32.0920 H   0  0  0  0  0  0  0  0  0  0  0  0
   38.3720   22.7020   33.9430 O   0  0  0  0  0  0  0  0  0  0  0  0
   39.5410   22.0160   36.1430 O   0  0  0  0  0  0  0  0  0  0  0  0
   38.2050   22.5520   35.6050 P   0  0  2  0  0  0  0  0  0  0  0  0
   37.0260   21.4930   36.1130 O   0  0  0  0  0  0  0  0  0  0  0  0
   36.1590   21.9730   36.2430 H   0  0  0  0  0  0  0  0  0  0  0  0
   38.0010   24.0750   36.3400 O   0  0  0  0  0  0  0  0  0  0  0  0
   37.9810   24.2680   37.7170 C   0  0  0  0  0  0  0  0  0  0  0  0
   38.3280   25.2770   37.9490 H   0  0  0  0  0  0  0  0  0  0  0  0
   37.5960   23.3320   38.4770 O   0  0  0  0  0  0  0  0  0  0  0  0
  2  7  1  0  0  0  0
  2  1  1  0  0  0  0
  3  2  2  0  0  0  0
  4  5  2  0  0  0  0
  4  3  1  0  0  0  0
  5  6  1  0  0  0  0
  6 10  1  0  0  0  0
  6  7  2  0  0  0  0
  7 20  1  0  0  0  0
  8  4  1  0  0  0  0
  9  5  1  0  0  0  0
 11 16  2  0  0  0  0
 11 12  1  0  0  0  0
 12 13  2  0  0  0  0
 13 14  1  0  0  0  0
 13 19  1  0  0  0  0
 15  3  1  0  0  0  0
 15 14  2  0  0  0  0
 16 15  1  0  0  0  0
 17 11  1  0  0  0  0
 18 12  1  0  0  0  0
 20 22  1  0  0  0  0
 22 23  1  0  0  0  0
 22 21  2  1  0  0  0
 22 25  1  0  0  0  0
 23 24  1  0  0  0  0
 25 26  1  0  0  0  0
 26 27  1  0  0  0  0
 26 28  2  0  0  0  0
M  END
>  <minimizedAffinity>
-4.69981146

$$$$

 OpenBabel03272501023D

 28 29  0  0  0  0  0  0  0  0999 V2000
   37.6780   24.2480   33.7950 F   0  0  0  0  0  0  0  0  0  0  0  0
   38.6620   25.1870   33.8380 C   0  0  0  0  0  0  0  0  0  0  0  0
   39.4020   25.4690   34.9780 C   0  0  0  0  0  0  0  0  0  0  0  0
   40.3670   26.4270   34.9200 C   0  0  0  0  0  0  0  0  0  0  0  0
   40.6540   27.1450   33.7770 C   0  0  0  0  0  0  0  0  0  0  0  0
   39.9140   26.8620   32.6400 C   0  0  0  0  0  0  0  0  0  0  0  0
   38.9210   25.8880   32.6650 C   0  0  0  0  0  0  0  0  0  0  0  0
   40.9470   26.6450   35.8210 H   0  0  0  0  0  0  0  0  0  0  0  0
   41.4210   27.8850   33.7890 H   0  0  0  0  0  0  0  0  0  0  0  0
   40.1220   27.4150   31.7230 H   0  0  0  0  0  0  0  0  0  0  0  0
   39.6450   22.8630   37.5400 C   0  0  0  0  0  0  0  0  0  0  0  0
   38.6490   23.2080   38.4580 C   0  0  0  0  0  0  0  0  0  0  0  0
   37.8830   24.3530   38.1930 C   0  0  0  0  0  0  0  0  0  0  0  0
   38.1350   25.0720   37.0680 N   0  0  0  0  0  0  0  0  0  0  0  0
   39.1070   24.7160   36.1950 C   0  0  0  0  0  0  0  0  0  0  0  0
   39.8570   23.6120   36.4370 N   0  0  0  0  0  0  0  0  0  0  0  0
   40.2480   21.9730   37.7360 H   0  0  0  0  0  0  0  0  0  0  0  0
   38.4520   22.6340   39.3490 H   0  0  0  0  0  0  0  0  0  0  0  0
   37.0890   24.6890   38.8550 H   0  0  0  0  0  0  0  0  0  0  0  0
   38.2040   25.6230   31.5390 O   0  0  0  0  0  0  0  0  0  0  0  0
   39.2190   23.2700   31.2110 O   0  0  0  0  0  0  0  0  0  0  0  0
   38.2080   24.2440   30.5850 P   0  0  2  0  0  0  0  0  0  0  0  0
   38.6770   24.4690   29.0040 O   0  0  0  0  0  0  0  0  0  0  0  0
   37.8810   24.6550   28.4280 H   0  0  0  0  0  0  0  0  0  0  0  0
   36.7060   23.4440   30.6590 O   0  0  0  0  0  0  0  0  0  0  0  0
   35.5780   23.9820   31.2680 C   0  0  0  0  0  0  0  0  0  0  0  0
   35.3650   23.4350   32.1900 H   0  0  0  0  0  0  0  0  0  0  0  0
   34.9780   24.9590   30.7310 O   0  0  0  0  0  0  0  0  0  0  0  0
  1  2  1  0  0  0  0
  2  3  1  0  0  0  0
  3 15  1  0  0  0  0
  4  3  2  0  0  0  0
  4  8  1  0  0  0  0
  5  9  1  0  0  0  0
  5  4  1  0  0  0  0
  6  7  1  0  0  0  0
  6  5  2  0  0  0  0
  7  2  2  0  0  0  0
 10  6  1  0  0  0  0
 11 17  1  0  0  0  0
 11 12  1  0  0  0  0
 12 18  1  0  0  0  0
 13 12  2  0  0  0  0
 13 19  1  0  0  0  0
 14 13  1  0  0  0  0
 15 16  1  0  0  0  0
 15 14  2  0  0  0  0
 16 11  2  0  0  0  0
 20  7  1  0  0  0  0
 22 25  1  0  0  0  0
 22 21  2  1  0  0  0
 22 20  1  0  0  0  0
 23 22  1  0  0  0  0
 24 23  1  0  0  0  0
 25 26  1  0  0  0  0
 26 27  1  0  0  0  0
 28 26  2  0  0  0  0
M  END
>  <minimizedAffinity>
-4.59834576

$$$$

 OpenBabel03272501023D

 28 29  0  0  0  0  0  0  0  0999 V2000
   38.3650   24.7900   33.5190 F   0  0  0  0  0  0  0  0  0  0  0  0
   37.6840   23.6470   33.2390 C   0  0  0  0  0  0  0  0  0  0  0  0
   37.6690   22.5390   34.0760 C   0  0  0  0  0  0  0  0  0  0  0  0
   36.9560   21.4400   33.7070 C   0  0  0  0  0  0  0  0  0  0  0  0
   36.2370   21.3640   32.5310 C   0  0  0  0  0  0  0  0  0  0  0  0
   36.2530   22.4700   31.6970 C   0  0  0  0  0  0  0  0  0  0  0  0
   36.9720   23.6090   32.0450 C   0  0  0  0  0  0  0  0  0  0  0  0
   36.9470   20.5710   34.3700 H   0  0  0  0  0  0  0  0  0  0  0  0
   35.6960   20.4770   32.2920 H   0  0  0  0  0  0  0  0  0  0  0  0
   35.6920   22.4350   30.7620 H   0  0  0  0  0  0  0  0  0  0  0  0
   38.4840   23.3640   37.5500 C   0  0  0  0  0  0  0  0  0  0  0  0
   39.7540   22.8070   37.7340 C   0  0  0  0  0  0  0  0  0  0  0  0
   40.3380   22.1390   36.6470 C   0  0  0  0  0  0  0  0  0  0  0  0
   39.6560   22.0600   35.4740 N   0  0  0  0  0  0  0  0  0  0  0  0
   38.4260   22.6080   35.3240 C   0  0  0  0  0  0  0  0  0  0  0  0
   37.8480   23.2570   36.3640 N   0  0  0  0  0  0  0  0  0  0  0  0
   38.0190   23.8860   38.3900 H   0  0  0  0  0  0  0  0  0  0  0  0
   40.2900   22.8730   38.6660 H   0  0  0  0  0  0  0  0  0  0  0  0
   41.3210   21.6800   36.7060 H   0  0  0  0  0  0  0  0  0  0  0  0
   36.9760   24.6870   31.2140 O   0  0  0  0  0  0  0  0  0  0  0  0
   34.5330   25.5270   31.2100 O   0  0  0  0  0  0  0  0  0  0  0  0
   35.9820   26.0380   31.2320 P   0  0  2  0  0  0  0  0  0  0  0  0
   36.1470   27.0640   29.9320 O   0  0  0  0  0  0  0  0  0  0  0  0
   36.8230   27.7730   30.1320 H   0  0  0  0  0  0  0  0  0  0  0  0
   36.1370   26.8920   32.6960 O   0  0  0  0  0  0  0  0  0  0  0  0
   37.1890   27.7590   32.9740 C   0  0  0  0  0  0  0  0  0  0  0  0
   37.1330   28.0790   34.0170 H   0  0  0  0  0  0  0  0  0  0  0  0
   38.0190   28.0510   32.0640 O   0  0  0  0  0  0  0  0  0  0  0  0
  2  1  1  0  0  0  0
  2  3  1  0  0  0  0
  3 15  1  0  0  0  0
  4  3  2  0  0  0  0
  4  8  1  0  0  0  0
  5  4  1  0  0  0  0
  6  7  1  0  0  0  0
  6  5  2  0  0  0  0
  7  2  2  0  0  0  0
  9  5  1  0  0  0  0
 10  6  1  0  0  0  0
 11 12  1  0  0  0  0
 11 17  1  0  0  0  0
 12 18  1  0  0  0  0
 13 19  1  0  0  0  0
 13 12  2  0  0  0  0
 14 13  1  0  0  0  0
 15 14  2  0  0  0  0
 15 16  1  0  0  0  0
 16 11  2  0  0  0  0
 20 22  1  0  0  0  0
 20  7  1  0  0  0  0
 22 21  2  6  0  0  0
 22 25  1  0  0  0  0
 23 24  1  0  0  0  0
 23 22  1  0  0  0  0
 25 26  1  0  0  0  0
 26 27  1  0  0  0  0
 28 26  2  0  0  0  0
M  END
>  <minimizedAffinity>
-4.59142733

$$$$
