
 OpenBabel03272509453D

 13 13  0  0  0  0  0  0  0  0999 V2000
   37.3450   30.2050   51.3100 C   0  0  0  0  0  0  0  0  0  0  0  0
   38.1600   30.8930   50.3810 C   0  0  0  0  0  0  0  0  0  0  0  0
   37.9420   30.6930   49.0120 C   0  0  0  0  0  0  0  0  0  0  0  0
   36.9380   29.8310   48.6470 N   0  0  0  0  0  0  0  0  0  0  0  0
   36.1770   29.1890   49.5760 C   0  0  0  0  0  0  0  0  0  0  0  0
   36.3890   29.3840   50.8890 N   0  0  0  0  0  0  0  0  0  0  0  0
   37.5490   30.3900   52.3570 H   0  0  0  0  0  0  0  0  0  0  0  0
   38.9580   31.5780   50.6390 H   0  0  0  0  0  0  0  0  0  0  0  0
   38.5420   31.1980   48.2980 H   0  0  0  0  0  0  0  0  0  0  0  0
   35.2290   28.3730   49.0010 O   0  0  0  0  0  0  0  0  0  0  0  0
   33.9010   28.4730   49.3790 C   0  0  0  0  0  0  0  0  0  0  0  0
   33.7380   28.1200   50.4010 H   0  0  0  0  0  0  0  0  0  0  0  0
   33.6500   28.9520   48.2230 O   0  0  0  0  0  0  0  0  0  0  0  0
  1  7  1  0  0  0  0
  2  8  1  0  0  0  0
  2  1  2  0  0  0  0
  3  2  1  0  0  0  0
  4  3  2  0  0  0  0
  4  5  1  0  0  0  0
  5  6  2  0  0  0  0
  6  1  1  0  0  0  0
  9  3  1  0  0  0  0
 10 11  1  0  0  0  0
 10  5  1  0  0  0  0
 11 12  1  0  0  0  0
 13 11  2  0  0  0  0
M  END
>  <minimizedAffinity>
-3.2940824

>  <minimizedRMSD>
0.442391872

$$$$
