
 OpenBabel03272507323D

 30 32  0  0  1  0  0  0  0  0999 V2000
   35.8250   29.1370   49.8060 C   0  0  0  0  0  0  0  0  0  0  0  0
   34.8070   29.6420   50.5730 C   0  0  0  0  0  0  0  0  0  0  0  0
   33.6060   29.1000   50.0860 C   0  0  0  0  0  0  0  0  0  0  0  0
   33.9890   28.2860   49.0370 C   0  0  0  0  0  0  0  0  0  0  0  0
   35.2930   28.3380   48.9090 O   0  0  0  0  0  0  0  0  0  0  0  0
   34.8550   30.3350   51.4100 H   0  0  0  0  0  0  0  0  0  0  0  0
   32.6030   29.2770   50.4470 H   0  0  0  0  0  0  0  0  0  0  0  0
   37.2190   29.4880   50.0340 C   0  0  0  0  0  0  0  0  0  0  0  0
   37.8640   28.8800   50.9080 O   0  0  0  0  0  0  0  0  0  0  0  0
   37.7670   30.5350   49.2170 C   0  0  0  0  0  0  0  0  0  0  0  0
   38.1080   31.7190   49.8530 C   0  0  0  0  0  0  0  0  0  0  0  0
   38.6430   32.7550   49.0860 C   0  0  0  0  0  0  0  0  0  0  0  0
   38.8030   32.5450   47.7330 N   0  0  0  0  0  0  0  0  0  0  0  0
   38.4630   31.3930   47.1570 C   0  0  0  0  0  0  0  0  0  0  0  0
   37.9450   30.3840   47.8870 N   0  0  0  0  0  0  0  0  0  0  0  0
   37.9800   31.8750   50.9160 H   0  0  0  0  0  0  0  0  0  0  0  0
   38.9190   33.6910   49.5550 H   0  0  0  0  0  0  0  0  0  0  0  0
   38.5930   31.2380   46.0900 H   0  0  0  0  0  0  0  0  0  0  0  0
   33.0790   27.4940   48.2090 C   0  0  0  0  0  0  0  0  0  0  0  0
   31.8540   27.4140   48.5490 O   0  0  0  0  0  0  0  0  0  0  0  0
   33.5910   26.7880   46.9880 C   0  0  1  0  0  0  0  0  0  0  0  0
   33.8140   25.2590   47.3080 C   0  0  0  0  0  0  0  0  0  0  0  0
   32.8040   25.7450   46.3330 C   0  0  2  0  0  0  0  0  0  0  0  0
   34.5800   27.1830   46.6260 H   0  0  0  0  0  0  0  0  0  0  0  0
   34.7100   24.7880   46.9040 H   0  0  0  0  0  0  0  0  0  0  0  0
   33.3760   24.8830   48.2500 H   0  0  0  0  0  0  0  0  0  0  0  0
   31.7070   25.7620   46.5750 H   0  0  0  0  0  0  0  0  0  0  0  0
   33.0640   25.4290   44.9010 C   0  0  0  0  0  0  0  0  0  0  0  0
   33.9350   25.7940   44.3280 H   0  0  0  0  0  0  0  0  0  0  0  0
   32.2960   24.7150   44.2410 O   0  0  0  0  0  0  0  0  0  0  0  0
  1  8  1  0  0  0  0
  1  2  2  0  0  0  0
  2  6  1  0  0  0  0
  3  7  1  0  0  0  0
  3  2  1  0  0  0  0
  4  3  2  0  0  0  0
  5  4  1  0  0  0  0
  5  1  1  0  0  0  0
  8  9  2  0  0  0  0
 10 11  1  0  0  0  0
 10  8  1  0  0  0  0
 11 16  1  0  0  0  0
 12 17  1  0  0  0  0
 12 11  2  0  0  0  0
 13 12  1  0  0  0  0
 14 13  2  0  0  0  0
 14 15  1  0  0  0  0
 15 10  2  0  0  0  0
 18 14  1  0  0  0  0
 19 20  2  0  0  0  0
 19  4  1  0  0  0  0
 21 24  1  6  0  0  0
 21 22  1  0  0  0  0
 21 19  1  0  0  0  0
 22 26  1  0  0  0  0
 23 27  1  1  0  0  0
 23 21  1  0  0  0  0
 23 22  1  0  0  0  0
 25 22  1  0  0  0  0
 28 23  1  0  0  0  0
 29 28  1  0  0  0  0
 30 28  2  0  0  0  0
M  END
>  <minimizedAffinity>
-4.74926949

>  <minimizedRMSD>
0.025385987

$$$$
