
 OpenBabel03272502223D

 23 24  0  0  0  0  0  0  0  0999 V2000
   37.7370   31.1390   47.3510 C   0  0  0  0  0  0  0  0  0  0  0  0
   37.0270   30.7890   46.2140 C   0  0  0  0  0  0  0  0  0  0  0  0
   37.3540   31.2330   44.9490 C   0  0  0  0  0  0  0  0  0  0  0  0
   38.4230   32.0540   44.8070 N   0  0  0  0  0  0  0  0  0  0  0  0
   39.0960   32.3830   45.9050 C   0  0  0  0  0  0  0  0  0  0  0  0
   38.7800   31.9530   47.1280 N   0  0  0  0  0  0  0  0  0  0  0  0
   36.1680   30.1240   46.3580 H   0  0  0  0  0  0  0  0  0  0  0  0
   36.7340   30.9020   44.1190 H   0  0  0  0  0  0  0  0  0  0  0  0
   37.6120   30.3920   51.0330 C   0  0  0  0  0  0  0  0  0  0  0  0
   38.0850   30.9220   49.8160 C   0  0  0  0  0  0  0  0  0  0  0  0
   37.3600   30.6510   48.6690 C   0  0  0  0  0  0  0  0  0  0  0  0
   36.2570   29.9020   48.7850 N   0  0  0  0  0  0  0  0  0  0  0  0
   35.8140   29.4000   49.9560 C   0  0  0  0  0  0  0  0  0  0  0  0
   36.5050   29.6520   51.0880 N   0  0  0  0  0  0  0  0  0  0  0  0
   38.1810   30.6050   51.9290 H   0  0  0  0  0  0  0  0  0  0  0  0
   38.9710   31.5200   49.7400 H   0  0  0  0  0  0  0  0  0  0  0  0
   34.6020   28.5930   50.0020 C   0  0  0  0  0  0  0  0  0  0  0  0
   33.9330   28.6860   50.8450 H   0  0  0  0  0  0  0  0  0  0  0  0
   34.3270   27.7940   49.0760 O   0  0  0  0  0  0  0  0  0  0  0  0
   40.2750   33.2860   45.7770 C   0  0  0  0  0  0  0  0  0  0  0  0
   40.3940   34.0090   46.9660 F   0  0  0  0  0  0  0  0  0  0  0  0
   41.4290   32.5690   45.5100 F   0  0  0  0  0  0  0  0  0  0  0  0
   40.1040   34.2070   44.7810 F   0  0  0  0  0  0  0  0  0  0  0  0
  1 11  1  0  0  0  0
  2  7  1  0  0  0  0
  2  1  2  0  0  0  0
  3  2  1  0  0  0  0
  4  3  2  0  0  0  0
  4  5  1  0  0  0  0
  5  6  2  0  0  0  0
  6  1  1  0  0  0  0
  8  3  1  0  0  0  0
  9 14  1  0  0  0  0
  9 15  1  0  0  0  0
 10  9  2  0  0  0  0
 11 12  2  0  0  0  0
 11 10  1  0  0  0  0
 12 13  1  0  0  0  0
 13 17  1  0  0  0  0
 13 14  2  0  0  0  0
 16 10  1  0  0  0  0
 17 18  1  0  0  0  0
 19 17  2  0  0  0  0
 20  5  1  0  0  0  0
 20 21  1  0  0  0  0
 22 20  1  0  0  0  0
 23 20  1  0  0  0  0
M  END
>  <minimizedAffinity>
-5.91697598

>  <minimizedRMSD>
0.350421697

$$$$
