
 OpenBabel03272505253D

 25 26  0  0  0  0  0  0  0  0999 V2000
   37.4080   31.0830   47.1000 N   0  0  0  0  0  0  0  0  0  0  0  0
   36.7960   30.7360   45.9340 C   0  0  0  0  0  0  0  0  0  0  0  0
   37.2480   31.2090   44.7080 C   0  0  0  0  0  0  0  0  0  0  0  0
   38.3660   32.0660   44.7100 C   0  0  0  0  0  0  0  0  0  0  0  0
   38.8030   32.5140   43.6250 O   0  0  0  0  0  0  0  0  0  0  0  0
   38.9710   32.4070   45.8970 N   0  0  0  0  0  0  0  0  0  0  0  0
   38.4440   31.8880   47.0050 C   0  0  0  0  0  0  0  0  0  0  0  0
   39.0260   32.2260   48.0550 O   0  0  0  0  0  0  0  0  0  0  0  0
   35.9400   30.0760   45.9610 H   0  0  0  0  0  0  0  0  0  0  0  0
   37.3250   29.5800   50.4960 C   0  0  0  0  0  0  0  0  0  0  0  0
   37.7960   30.0450   49.2620 C   0  0  0  0  0  0  0  0  0  0  0  0
   36.9450   30.5990   48.3410 C   0  0  0  0  0  0  0  0  0  0  0  0
   35.6150   30.6910   48.6460 N   0  0  0  0  0  0  0  0  0  0  0  0
   35.1430   30.2380   49.8510 C   0  0  0  0  0  0  0  0  0  0  0  0
   36.0020   29.6890   50.7610 N   0  0  0  0  0  0  0  0  0  0  0  0
   37.9410   29.1360   51.2630 H   0  0  0  0  0  0  0  0  0  0  0  0
   38.8370   29.8910   49.1770 H   0  0  0  0  0  0  0  0  0  0  0  0
   34.0760   30.3200   50.0740 H   0  0  0  0  0  0  0  0  0  0  0  0
   40.1240   33.2850   45.8920 C   0  0  0  0  0  0  0  0  0  0  0  0
   39.9930   34.2400   44.9370 F   0  0  0  0  0  0  0  0  0  0  0  0
   41.3030   32.6120   45.6110 F   0  0  0  0  0  0  0  0  0  0  0  0
   40.2150   33.9090   47.1300 F   0  0  0  0  0  0  0  0  0  0  0  0
   36.6210   30.8600   43.4550 C   0  0  0  0  0  0  0  0  0  0  0  0
   37.0740   30.0870   42.8570 H   0  0  0  0  0  0  0  0  0  0  0  0
   35.5780   31.4890   43.1420 O   0  0  0  0  0  0  0  0  0  0  0  0
  1 12  1  0  0  0  0
  2  9  1  0  0  0  0
  2  1  1  0  0  0  0
  3  4  1  0  0  0  0
  3  2  2  0  0  0  0
  4  6  1  0  0  0  0
  5  4  2  0  0  0  0
  6  7  1  0  0  0  0
  7  1  1  0  0  0  0
  7  8  2  0  0  0  0
 10 15  1  0  0  0  0
 10 16  1  0  0  0  0
 11 10  2  0  0  0  0
 12 13  2  0  0  0  0
 12 11  1  0  0  0  0
 13 14  1  0  0  0  0
 14 18  1  0  0  0  0
 14 15  2  0  0  0  0
 17 11  1  0  0  0  0
 19  6  1  0  0  0  0
 19 22  1  0  0  0  0
 20 19  1  0  0  0  0
 21 19  1  0  0  0  0
 23  3  1  0  0  0  0
 24 23  1  0  0  0  0
 25 23  2  0  0  0  0
M  END
>  <minimizedAffinity>
-5.79613352

>  <minimizedRMSD>
0.306034744

$$$$
