
 OpenBabel03272502243D

 23 24  0  0  0  0  0  0  0  0999 V2000
   37.9680   25.0560   35.0830 C   0  0  0  0  0  0  0  0  0  0  0  0
   38.7420   24.1010   34.4440 C   0  0  0  0  0  0  0  0  0  0  0  0
   39.3640   23.0620   35.1060 C   0  0  0  0  0  0  0  0  0  0  0  0
   39.2140   22.9680   36.4500 N   0  0  0  0  0  0  0  0  0  0  0  0
   38.4700   23.8910   37.0520 C   0  0  0  0  0  0  0  0  0  0  0  0
   37.8680   24.8950   36.4110 N   0  0  0  0  0  0  0  0  0  0  0  0
   38.8450   24.2010   33.3580 H   0  0  0  0  0  0  0  0  0  0  0  0
   39.9500   22.3630   34.5150 H   0  0  0  0  0  0  0  0  0  0  0  0
   36.4460   28.3450   34.0830 C   0  0  0  0  0  0  0  0  0  0  0  0
   37.0690   27.3810   34.9010 C   0  0  0  0  0  0  0  0  0  0  0  0
   37.3280   26.1380   34.3500 C   0  0  0  0  0  0  0  0  0  0  0  0
   36.9710   25.9280   33.0780 N   0  0  0  0  0  0  0  0  0  0  0  0
   36.3740   26.8590   32.3050 C   0  0  0  0  0  0  0  0  0  0  0  0
   36.1130   28.0790   32.8210 N   0  0  0  0  0  0  0  0  0  0  0  0
   36.2450   29.3160   34.5160 H   0  0  0  0  0  0  0  0  0  0  0  0
   37.3490   27.5650   35.9190 H   0  0  0  0  0  0  0  0  0  0  0  0
   36.0160   26.5540   30.9260 C   0  0  0  0  0  0  0  0  0  0  0  0
   36.5120   27.0740   30.1200 H   0  0  0  0  0  0  0  0  0  0  0  0
   35.1380   25.6970   30.6650 O   0  0  0  0  0  0  0  0  0  0  0  0
   38.2900   23.8120   38.5290 C   0  0  0  0  0  0  0  0  0  0  0  0
   37.8950   25.0720   38.9820 F   0  0  0  0  0  0  0  0  0  0  0  0
   37.3600   22.8440   38.8700 F   0  0  0  0  0  0  0  0  0  0  0  0
   39.4620   23.5210   39.1690 F   0  0  0  0  0  0  0  0  0  0  0  0
  1  6  1  0  0  0  0
  2  1  2  0  0  0  0
  2  3  1  0  0  0  0
  3  4  2  0  0  0  0
  4  5  1  0  0  0  0
  5 20  1  0  0  0  0
  6  5  2  0  0  0  0
  7  2  1  0  0  0  0
  8  3  1  0  0  0  0
  9 15  1  0  0  0  0
  9 10  1  0  0  0  0
 10 16  1  0  0  0  0
 11 10  2  0  0  0  0
 11  1  1  0  0  0  0
 12 11  1  0  0  0  0
 13 14  1  0  0  0  0
 13 12  2  0  0  0  0
 14  9  2  0  0  0  0
 17 13  1  0  0  0  0
 18 17  1  0  0  0  0
 19 17  2  0  0  0  0
 20 22  1  0  0  0  0
 20 21  1  0  0  0  0
 20 23  1  0  0  0  0
M  END
>  <minimizedAffinity>
-5.28680182

$$$$

 OpenBabel03272502243D

 23 24  0  0  0  0  0  0  0  0999 V2000
   38.0700   23.1910   34.7480 C   0  0  0  0  0  0  0  0  0  0  0  0
   38.1130   24.5040   34.3080 C   0  0  0  0  0  0  0  0  0  0  0  0
   38.1850   25.5870   35.1600 C   0  0  0  0  0  0  0  0  0  0  0  0
   38.2150   25.3600   36.4960 N   0  0  0  0  0  0  0  0  0  0  0  0
   38.1730   24.0950   36.9060 C   0  0  0  0  0  0  0  0  0  0  0  0
   38.1030   23.0480   36.0810 N   0  0  0  0  0  0  0  0  0  0  0  0
   38.0880   24.6580   33.2240 H   0  0  0  0  0  0  0  0  0  0  0  0
   38.2140   26.5790   34.7170 H   0  0  0  0  0  0  0  0  0  0  0  0
   38.8780   20.5020   32.2480 C   0  0  0  0  0  0  0  0  0  0  0  0
   39.0850   21.5920   33.1180 C   0  0  0  0  0  0  0  0  0  0  0  0
   37.9930   22.0750   33.8180 C   0  0  0  0  0  0  0  0  0  0  0  0
   36.8100   21.4790   33.6260 N   0  0  0  0  0  0  0  0  0  0  0  0
   36.6250   20.4360   32.7910 C   0  0  0  0  0  0  0  0  0  0  0  0
   37.6760   19.9470   32.0980 N   0  0  0  0  0  0  0  0  0  0  0  0
   39.7340   20.1260   31.7020 H   0  0  0  0  0  0  0  0  0  0  0  0
   40.0390   22.0590   33.2600 H   0  0  0  0  0  0  0  0  0  0  0  0
   35.3050   19.8390   32.6370 C   0  0  0  0  0  0  0  0  0  0  0  0
   35.1190   18.8500   33.0280 H   0  0  0  0  0  0  0  0  0  0  0  0
   34.3840   20.4590   32.0550 O   0  0  0  0  0  0  0  0  0  0  0  0
   38.2030   23.8180   38.3700 C   0  0  0  0  0  0  0  0  0  0  0  0
   39.4650   23.3090   38.6840 F   0  0  0  0  0  0  0  0  0  0  0  0
   37.9280   24.9600   39.1030 F   0  0  0  0  0  0  0  0  0  0  0  0
   37.2990   22.8560   38.7240 F   0  0  0  0  0  0  0  0  0  0  0  0
  1  6  1  0  0  0  0
  2  1  2  0  0  0  0
  2  3  1  0  0  0  0
  3  4  2  0  0  0  0
  4  5  1  0  0  0  0
  5 20  1  0  0  0  0
  6  5  2  0  0  0  0
  7  2  1  0  0  0  0
  8  3  1  0  0  0  0
  9 10  1  0  0  0  0
 10 16  1  0  0  0  0
 10 11  2  0  0  0  0
 11  1  1  0  0  0  0
 12 11  1  0  0  0  0
 13 12  2  0  0  0  0
 14  9  2  0  0  0  0
 14 13  1  0  0  0  0
 15  9  1  0  0  0  0
 17 13  1  0  0  0  0
 17 18  1  0  0  0  0
 19 17  2  0  0  0  0
 20 21  1  0  0  0  0
 20 23  1  0  0  0  0
 20 22  1  0  0  0  0
M  END
>  <minimizedAffinity>
-4.94958115

$$$$

 OpenBabel03272502243D

 23 24  0  0  0  0  0  0  0  0999 V2000
   38.1790   24.6990   34.7590 C   0  0  0  0  0  0  0  0  0  0  0  0
   38.6330   23.5090   34.2130 C   0  0  0  0  0  0  0  0  0  0  0  0
   38.9650   22.4050   34.9710 C   0  0  0  0  0  0  0  0  0  0  0  0
   38.8430   22.4840   36.3180 N   0  0  0  0  0  0  0  0  0  0  0  0
   38.4080   23.6310   36.8310 C   0  0  0  0  0  0  0  0  0  0  0  0
   38.0860   24.6990   36.0970 N   0  0  0  0  0  0  0  0  0  0  0  0
   38.7200   23.4730   33.1220 H   0  0  0  0  0  0  0  0  0  0  0  0
   39.3110   21.5170   34.4480 H   0  0  0  0  0  0  0  0  0  0  0  0
   37.8760   27.1440   31.9190 C   0  0  0  0  0  0  0  0  0  0  0  0
   38.2790   25.9900   32.6210 C   0  0  0  0  0  0  0  0  0  0  0  0
   37.8390   25.8420   33.9250 C   0  0  0  0  0  0  0  0  0  0  0  0
   37.0610   26.8020   34.4390 N   0  0  0  0  0  0  0  0  0  0  0  0
   36.6820   27.9020   33.7570 C   0  0  0  0  0  0  0  0  0  0  0  0
   37.0980   28.0680   32.4830 N   0  0  0  0  0  0  0  0  0  0  0  0
   38.2200   27.2570   30.9000 H   0  0  0  0  0  0  0  0  0  0  0  0
   38.9030   25.2300   32.1950 H   0  0  0  0  0  0  0  0  0  0  0  0
   35.8320   28.9040   34.3860 C   0  0  0  0  0  0  0  0  0  0  0  0
   35.5250   28.7730   35.4120 H   0  0  0  0  0  0  0  0  0  0  0  0
   35.4530   29.9160   33.7490 O   0  0  0  0  0  0  0  0  0  0  0  0
   38.2670   23.7450   38.3100 C   0  0  0  0  0  0  0  0  0  0  0  0
   39.4830   23.3730   38.8870 F   0  0  0  0  0  0  0  0  0  0  0  0
   37.9090   25.0300   38.6830 F   0  0  0  0  0  0  0  0  0  0  0  0
   37.3270   22.8810   38.8000 F   0  0  0  0  0  0  0  0  0  0  0  0
  1  6  1  0  0  0  0
  2  1  2  0  0  0  0
  2  3  1  0  0  0  0
  3  4  2  0  0  0  0
  4  5  1  0  0  0  0
  5 20  1  0  0  0  0
  6  5  2  0  0  0  0
  7  2  1  0  0  0  0
  8  3  1  0  0  0  0
  9 14  2  0  0  0  0
  9 10  1  0  0  0  0
 10 11  2  0  0  0  0
 11 12  1  0  0  0  0
 11  1  1  0  0  0  0
 13 17  1  0  0  0  0
 13 12  2  0  0  0  0
 14 13  1  0  0  0  0
 15  9  1  0  0  0  0
 16 10  1  0  0  0  0
 17 18  1  0  0  0  0
 19 17  2  0  0  0  0
 20 22  1  0  0  0  0
 20 23  1  0  0  0  0
 20 21  1  0  0  0  0
M  END
>  <minimizedAffinity>
-4.94304419

$$$$

 OpenBabel03272502243D

 23 24  0  0  0  0  0  0  0  0999 V2000
   38.4420   24.4710   36.1330 C   0  0  0  0  0  0  0  0  0  0  0  0
   37.8140   24.4440   37.3680 C   0  0  0  0  0  0  0  0  0  0  0  0
   38.2810   23.7120   38.4400 C   0  0  0  0  0  0  0  0  0  0  0  0
   39.4120   22.9810   38.2830 N   0  0  0  0  0  0  0  0  0  0  0  0
   40.0050   23.0150   37.0930 C   0  0  0  0  0  0  0  0  0  0  0  0
   39.5530   23.7240   36.0560 N   0  0  0  0  0  0  0  0  0  0  0  0
   36.9030   25.0440   37.4670 H   0  0  0  0  0  0  0  0  0  0  0  0
   37.7170   23.7560   39.3680 H   0  0  0  0  0  0  0  0  0  0  0  0
   37.0130   27.2190   34.0020 C   0  0  0  0  0  0  0  0  0  0  0  0
   37.4980   26.5680   35.1540 C   0  0  0  0  0  0  0  0  0  0  0  0
   37.9180   25.2550   35.0250 C   0  0  0  0  0  0  0  0  0  0  0  0
   37.8370   24.6850   33.8170 N   0  0  0  0  0  0  0  0  0  0  0  0
   37.3710   25.3190   32.7210 C   0  0  0  0  0  0  0  0  0  0  0  0
   36.9560   26.6000   32.8230 N   0  0  0  0  0  0  0  0  0  0  0  0
   36.6850   28.2450   34.1060 H   0  0  0  0  0  0  0  0  0  0  0  0
   37.5560   27.0380   36.1150 H   0  0  0  0  0  0  0  0  0  0  0  0
   37.3140   24.6310   31.4380 C   0  0  0  0  0  0  0  0  0  0  0  0
   38.2200   24.2250   31.0120 H   0  0  0  0  0  0  0  0  0  0  0  0
   36.2280   24.5050   30.8240 O   0  0  0  0  0  0  0  0  0  0  0  0
   41.2500   22.2190   36.8920 C   0  0  0  0  0  0  0  0  0  0  0  0
   41.3670   21.3300   37.9630 F   0  0  0  0  0  0  0  0  0  0  0  0
   41.2250   21.5450   35.6830 F   0  0  0  0  0  0  0  0  0  0  0  0
   42.3670   23.0060   36.9200 F   0  0  0  0  0  0  0  0  0  0  0  0
  1  2  1  0  0  0  0
  2  7  1  0  0  0  0
  2  3  2  0  0  0  0
  3  8  1  0  0  0  0
  4  3  1  0  0  0  0
  5  4  2  0  0  0  0
  6  1  2  0  0  0  0
  6  5  1  0  0  0  0
  9 15  1  0  0  0  0
  9 10  1  0  0  0  0
 10 16  1  0  0  0  0
 11 10  2  0  0  0  0
 11  1  1  0  0  0  0
 12 11  1  0  0  0  0
 13 14  1  0  0  0  0
 13 12  2  0  0  0  0
 14  9  2  0  0  0  0
 17 13  1  0  0  0  0
 18 17  1  0  0  0  0
 19 17  2  0  0  0  0
 20 23  1  0  0  0  0
 20  5  1  0  0  0  0
 20 21  1  0  0  0  0
 22 20  1  0  0  0  0
M  END
>  <minimizedAffinity>
-4.88379717

$$$$

 OpenBabel03272502243D

 23 24  0  0  0  0  0  0  0  0999 V2000
   37.8420   22.4820   34.3410 C   0  0  0  0  0  0  0  0  0  0  0  0
   38.1400   23.3280   33.2850 C   0  0  0  0  0  0  0  0  0  0  0  0
   37.6000   23.1850   32.0230 C   0  0  0  0  0  0  0  0  0  0  0  0
   36.7350   22.1660   31.8010 N   0  0  0  0  0  0  0  0  0  0  0  0
   36.4570   21.3610   32.8220 C   0  0  0  0  0  0  0  0  0  0  0  0
   36.9790   21.5000   34.0430 N   0  0  0  0  0  0  0  0  0  0  0  0
   38.8420   24.1430   33.4940 H   0  0  0  0  0  0  0  0  0  0  0  0
   37.8970   23.9010   31.2610 H   0  0  0  0  0  0  0  0  0  0  0  0
   38.4970   23.4810   37.9060 C   0  0  0  0  0  0  0  0  0  0  0  0
   37.8200   23.3800   36.6740 C   0  0  0  0  0  0  0  0  0  0  0  0
   38.4330   22.6660   35.6590 C   0  0  0  0  0  0  0  0  0  0  0  0
   39.6280   22.1170   35.9080 N   0  0  0  0  0  0  0  0  0  0  0  0
   40.2650   22.2210   37.0930 C   0  0  0  0  0  0  0  0  0  0  0  0
   39.6860   22.9130   38.0980 N   0  0  0  0  0  0  0  0  0  0  0  0
   38.0150   24.0400   38.6980 H   0  0  0  0  0  0  0  0  0  0  0  0
   36.8630   23.8250   36.4890 H   0  0  0  0  0  0  0  0  0  0  0  0
   41.5660   21.5950   37.2890 C   0  0  0  0  0  0  0  0  0  0  0  0
   41.9380   21.4450   38.2910 H   0  0  0  0  0  0  0  0  0  0  0  0
   42.2570   21.2280   36.3080 O   0  0  0  0  0  0  0  0  0  0  0  0
   35.5090   20.2310   32.6040 C   0  0  0  0  0  0  0  0  0  0  0  0
   35.9270   19.5340   31.4680 F   0  0  0  0  0  0  0  0  0  0  0  0
   35.4560   19.4000   33.7100 F   0  0  0  0  0  0  0  0  0  0  0  0
   34.2430   20.6740   32.3420 F   0  0  0  0  0  0  0  0  0  0  0  0
  1 11  1  0  0  0  0
  2  7  1  0  0  0  0
  2  1  2  0  0  0  0
  3  2  1  0  0  0  0
  4  3  2  0  0  0  0
  4  5  1  0  0  0  0
  5  6  2  0  0  0  0
  6  1  1  0  0  0  0
  8  3  1  0  0  0  0
  9 14  1  0  0  0  0
  9 15  1  0  0  0  0
 10  9  2  0  0  0  0
 11 12  2  0  0  0  0
 11 10  1  0  0  0  0
 12 13  1  0  0  0  0
 13 17  1  0  0  0  0
 13 14  2  0  0  0  0
 16 10  1  0  0  0  0
 17 18  1  0  0  0  0
 19 17  2  0  0  0  0
 20  5  1  0  0  0  0
 20 22  1  0  0  0  0
 21 20  1  0  0  0  0
 23 20  1  0  0  0  0
M  END
>  <minimizedAffinity>
-4.71488333

$$$$

 OpenBabel03272502243D

 23 24  0  0  0  0  0  0  0  0999 V2000
   38.1260   25.4060   34.1650 C   0  0  0  0  0  0  0  0  0  0  0  0
   38.3030   26.7580   34.4080 C   0  0  0  0  0  0  0  0  0  0  0  0
   38.4200   27.2920   35.6750 C   0  0  0  0  0  0  0  0  0  0  0  0
   38.3590   26.4560   36.7390 N   0  0  0  0  0  0  0  0  0  0  0  0
   38.1890   25.1600   36.4930 C   0  0  0  0  0  0  0  0  0  0  0  0
   38.0760   24.6430   35.2680 N   0  0  0  0  0  0  0  0  0  0  0  0
   38.3490   27.4110   33.5300 H   0  0  0  0  0  0  0  0  0  0  0  0
   38.5560   28.3680   35.7610 H   0  0  0  0  0  0  0  0  0  0  0  0
   38.5840   24.7100   30.4990 C   0  0  0  0  0  0  0  0  0  0  0  0
   38.7990   25.3010   31.7610 C   0  0  0  0  0  0  0  0  0  0  0  0
   38.0050   24.8800   32.8140 C   0  0  0  0  0  0  0  0  0  0  0  0
   37.0840   23.9410   32.5700 N   0  0  0  0  0  0  0  0  0  0  0  0
   36.8880   23.3830   31.3580 C   0  0  0  0  0  0  0  0  0  0  0  0
   37.6510   23.7770   30.3160 N   0  0  0  0  0  0  0  0  0  0  0  0
   39.2060   25.0410   29.6780 H   0  0  0  0  0  0  0  0  0  0  0  0
   39.5410   26.0530   31.9400 H   0  0  0  0  0  0  0  0  0  0  0  0
   35.8640   22.3630   31.1710 C   0  0  0  0  0  0  0  0  0  0  0  0
   35.7040   21.9430   30.1890 H   0  0  0  0  0  0  0  0  0  0  0  0
   35.1670   21.9690   32.1360 O   0  0  0  0  0  0  0  0  0  0  0  0
   38.1170   24.2170   37.6460 C   0  0  0  0  0  0  0  0  0  0  0  0
   37.9110   24.9710   38.8040 F   0  0  0  0  0  0  0  0  0  0  0  0
   37.1080   23.2860   37.4710 F   0  0  0  0  0  0  0  0  0  0  0  0
   39.2930   23.5440   37.8270 F   0  0  0  0  0  0  0  0  0  0  0  0
  1  2  2  0  0  0  0
  1  6  1  0  0  0  0
  2  3  1  0  0  0  0
  3  8  1  0  0  0  0
  3  4  2  0  0  0  0
  5  4  1  0  0  0  0
  5 20  1  0  0  0  0
  6  5  2  0  0  0  0
  7  2  1  0  0  0  0
  9 10  1  0  0  0  0
 10 16  1  0  0  0  0
 10 11  2  0  0  0  0
 11  1  1  0  0  0  0
 12 11  1  0  0  0  0
 13 12  2  0  0  0  0
 14  9  2  0  0  0  0
 14 13  1  0  0  0  0
 15  9  1  0  0  0  0
 17 13  1  0  0  0  0
 17 19  2  0  0  0  0
 18 17  1  0  0  0  0
 20 23  1  0  0  0  0
 20 21  1  0  0  0  0
 22 20  1  0  0  0  0
M  END
>  <minimizedAffinity>
-4.63385439

$$$$

 OpenBabel03272502243D

 23 24  0  0  0  0  0  0  0  0999 V2000
   37.4420   26.1470   34.2110 C   0  0  0  0  0  0  0  0  0  0  0  0
   37.0240   27.2460   34.9450 C   0  0  0  0  0  0  0  0  0  0  0  0
   36.4450   28.3620   34.3770 C   0  0  0  0  0  0  0  0  0  0  0  0
   36.2750   28.3910   33.0330 N   0  0  0  0  0  0  0  0  0  0  0  0
   36.6800   27.3300   32.3390 C   0  0  0  0  0  0  0  0  0  0  0  0
   37.2390   26.2510   32.8890 N   0  0  0  0  0  0  0  0  0  0  0  0
   37.1740   27.1950   36.0290 H   0  0  0  0  0  0  0  0  0  0  0  0
   36.1520   29.1730   35.0390 H   0  0  0  0  0  0  0  0  0  0  0  0
   39.3120   22.9570   34.8870 C   0  0  0  0  0  0  0  0  0  0  0  0
   38.7710   24.0320   34.1530 C   0  0  0  0  0  0  0  0  0  0  0  0
   38.0490   24.9880   34.8460 C   0  0  0  0  0  0  0  0  0  0  0  0
   37.9080   24.8330   36.1680 N   0  0  0  0  0  0  0  0  0  0  0  0
   38.4300   23.7990   36.8590 C   0  0  0  0  0  0  0  0  0  0  0  0
   39.1390   22.8550   36.2040 N   0  0  0  0  0  0  0  0  0  0  0  0
   39.8760   22.2110   34.3430 H   0  0  0  0  0  0  0  0  0  0  0  0
   38.8930   24.1420   33.0940 H   0  0  0  0  0  0  0  0  0  0  0  0
   38.2330   23.7000   38.2990 C   0  0  0  0  0  0  0  0  0  0  0  0
   38.2800   22.7320   38.7770 H   0  0  0  0  0  0  0  0  0  0  0  0
   38.0110   24.7230   38.9900 O   0  0  0  0  0  0  0  0  0  0  0  0
   36.5050   27.3370   30.8580 C   0  0  0  0  0  0  0  0  0  0  0  0
   35.5730   26.3490   30.5320 F   0  0  0  0  0  0  0  0  0  0  0  0
   36.0940   28.5800   30.4070 F   0  0  0  0  0  0  0  0  0  0  0  0
   37.6610   27.0070   30.2080 F   0  0  0  0  0  0  0  0  0  0  0  0
  1 11  1  0  0  0  0
  1  2  1  0  0  0  0
  2  7  1  0  0  0  0
  3  2  2  0  0  0  0
  3  8  1  0  0  0  0
  4  3  1  0  0  0  0
  5  6  1  0  0  0  0
  5  4  2  0  0  0  0
  6  1  2  0  0  0  0
  9 14  1  0  0  0  0
 10 11  1  0  0  0  0
 10  9  2  0  0  0  0
 11 12  2  0  0  0  0
 12 13  1  0  0  0  0
 13 17  1  0  0  0  0
 14 13  2  0  0  0  0
 15  9  1  0  0  0  0
 16 10  1  0  0  0  0
 17 18  1  0  0  0  0
 17 19  2  0  0  0  0
 20  5  1  0  0  0  0
 21 20  1  0  0  0  0
 22 20  1  0  0  0  0
 23 20  1  0  0  0  0
M  END
>  <minimizedAffinity>
-4.55021095

$$$$

 OpenBabel03272502243D

 23 24  0  0  0  0  0  0  0  0999 V2000
   39.6580   23.3980   35.1290 C   0  0  0  0  0  0  0  0  0  0  0  0
   40.6370   22.4440   35.3510 C   0  0  0  0  0  0  0  0  0  0  0  0
   40.9150   21.9180   36.5970 C   0  0  0  0  0  0  0  0  0  0  0  0
   40.1970   22.3550   37.6590 N   0  0  0  0  0  0  0  0  0  0  0  0
   39.2600   23.2720   37.4330 C   0  0  0  0  0  0  0  0  0  0  0  0
   38.9910   23.7800   36.2290 N   0  0  0  0  0  0  0  0  0  0  0  0
   41.2010   22.1080   34.4740 H   0  0  0  0  0  0  0  0  0  0  0  0
   41.7030   21.1730   36.6670 H   0  0  0  0  0  0  0  0  0  0  0  0
   39.9770   24.5580   31.5670 C   0  0  0  0  0  0  0  0  0  0  0  0
   40.3620   24.0280   32.8150 C   0  0  0  0  0  0  0  0  0  0  0  0
   39.3950   23.9300   33.8000 C   0  0  0  0  0  0  0  0  0  0  0  0
   38.1560   24.3440   33.5090 N   0  0  0  0  0  0  0  0  0  0  0  0
   37.8000   24.8500   32.3100 C   0  0  0  0  0  0  0  0  0  0  0  0
   38.7270   24.9550   31.3330 N   0  0  0  0  0  0  0  0  0  0  0  0
   40.7350   24.6330   30.7980 H   0  0  0  0  0  0  0  0  0  0  0  0
   41.3590   23.7000   33.0330 H   0  0  0  0  0  0  0  0  0  0  0  0
   36.4300   25.2800   32.0680 C   0  0  0  0  0  0  0  0  0  0  0  0
   35.7000   25.2020   32.8600 H   0  0  0  0  0  0  0  0  0  0  0  0
   36.0880   25.7390   30.9520 O   0  0  0  0  0  0  0  0  0  0  0  0
   38.4570   23.7710   38.5860 C   0  0  0  0  0  0  0  0  0  0  0  0
   37.3930   22.8870   38.7820 F   0  0  0  0  0  0  0  0  0  0  0  0
   39.2320   23.8820   39.7270 F   0  0  0  0  0  0  0  0  0  0  0  0
   37.9010   24.9930   38.3270 F   0  0  0  0  0  0  0  0  0  0  0  0
  1  2  2  0  0  0  0
  1  6  1  0  0  0  0
  2  3  1  0  0  0  0
  3  8  1  0  0  0  0
  3  4  2  0  0  0  0
  5  4  1  0  0  0  0
  5 20  1  0  0  0  0
  6  5  2  0  0  0  0
  7  2  1  0  0  0  0
  9 10  1  0  0  0  0
 10 16  1  0  0  0  0
 10 11  2  0  0  0  0
 11  1  1  0  0  0  0
 12 11  1  0  0  0  0
 13 12  2  0  0  0  0
 14  9  2  0  0  0  0
 14 13  1  0  0  0  0
 15  9  1  0  0  0  0
 17 13  1  0  0  0  0
 17 18  1  0  0  0  0
 19 17  2  0  0  0  0
 20 21  1  0  0  0  0
 20 22  1  0  0  0  0
 23 20  1  0  0  0  0
M  END
>  <minimizedAffinity>
-4.52575397

$$$$

 OpenBabel03272502243D

 23 24  0  0  0  0  0  0  0  0999 V2000
   37.5340   26.6070   33.8770 C   0  0  0  0  0  0  0  0  0  0  0  0
   37.4900   26.5830   32.4930 C   0  0  0  0  0  0  0  0  0  0  0  0
   36.8510   27.5460   31.7380 C   0  0  0  0  0  0  0  0  0  0  0  0
   36.2340   28.5670   32.3780 N   0  0  0  0  0  0  0  0  0  0  0  0
   36.2830   28.5790   33.7080 C   0  0  0  0  0  0  0  0  0  0  0  0
   36.9010   27.6490   34.4370 N   0  0  0  0  0  0  0  0  0  0  0  0
   37.9980   25.7460   32.0010 H   0  0  0  0  0  0  0  0  0  0  0  0
   36.8730   27.4380   30.6560 H   0  0  0  0  0  0  0  0  0  0  0  0
   39.8850   23.8950   34.9980 C   0  0  0  0  0  0  0  0  0  0  0  0
   39.3100   24.8710   34.1590 C   0  0  0  0  0  0  0  0  0  0  0  0
   38.2180   25.5730   34.6390 C   0  0  0  0  0  0  0  0  0  0  0  0
   37.7740   25.2820   35.8680 N   0  0  0  0  0  0  0  0  0  0  0  0
   38.3330   24.3450   36.6620 C   0  0  0  0  0  0  0  0  0  0  0  0
   39.4000   23.6480   36.2150 N   0  0  0  0  0  0  0  0  0  0  0  0
   40.7380   23.3480   34.6200 H   0  0  0  0  0  0  0  0  0  0  0  0
   39.6760   25.0920   33.1770 H   0  0  0  0  0  0  0  0  0  0  0  0
   37.7940   24.0850   37.9900 C   0  0  0  0  0  0  0  0  0  0  0  0
   37.1610   23.2250   38.1480 H   0  0  0  0  0  0  0  0  0  0  0  0
   38.0550   24.8490   38.9500 O   0  0  0  0  0  0  0  0  0  0  0  0
   35.6100   29.6910   34.4370 C   0  0  0  0  0  0  0  0  0  0  0  0
   35.5110   30.7790   33.5660 F   0  0  0  0  0  0  0  0  0  0  0  0
   34.3630   29.3060   34.8990 F   0  0  0  0  0  0  0  0  0  0  0  0
   36.3480   30.1190   35.5050 F   0  0  0  0  0  0  0  0  0  0  0  0
  1  6  1  0  0  0  0
  1 11  1  0  0  0  0
  2  1  2  0  0  0  0
  3  4  2  0  0  0  0
  3  2  1  0  0  0  0
  4  5  1  0  0  0  0
  5 20  1  0  0  0  0
  5  6  2  0  0  0  0
  7  2  1  0  0  0  0
  8  3  1  0  0  0  0
  9 14  1  0  0  0  0
 10 11  1  0  0  0  0
 10  9  2  0  0  0  0
 11 12  2  0  0  0  0
 12 13  1  0  0  0  0
 13 17  1  0  0  0  0
 14 13  2  0  0  0  0
 15  9  1  0  0  0  0
 16 10  1  0  0  0  0
 17 18  1  0  0  0  0
 17 19  2  0  0  0  0
 20 22  1  0  0  0  0
 20 23  1  0  0  0  0
 21 20  1  0  0  0  0
M  END
>  <minimizedAffinity>
-4.51034832

$$$$
