
 OpenBabel03272507323D

 30 32  0  0  1  0  0  0  0  0999 V2000
   35.8500   29.1490   49.8130 C   0  0  0  0  0  0  0  0  0  0  0  0
   34.8180   29.6370   50.5730 C   0  0  0  0  0  0  0  0  0  0  0  0
   33.6290   29.0780   50.0750 C   0  0  0  0  0  0  0  0  0  0  0  0
   34.0330   28.2720   49.0270 C   0  0  0  0  0  0  0  0  0  0  0  0
   35.3370   28.3450   48.9110 O   0  0  0  0  0  0  0  0  0  0  0  0
   34.8490   30.3280   51.4130 H   0  0  0  0  0  0  0  0  0  0  0  0
   32.6210   29.2380   50.4290 H   0  0  0  0  0  0  0  0  0  0  0  0
   37.2360   29.5210   50.0540 C   0  0  0  0  0  0  0  0  0  0  0  0
   37.8780   28.9350   50.9460 O   0  0  0  0  0  0  0  0  0  0  0  0
   37.7820   30.5610   49.2270 C   0  0  0  0  0  0  0  0  0  0  0  0
   38.1190   31.7530   49.8510 C   0  0  0  0  0  0  0  0  0  0  0  0
   38.6520   32.7830   49.0740 C   0  0  0  0  0  0  0  0  0  0  0  0
   38.8150   32.5590   47.7240 N   0  0  0  0  0  0  0  0  0  0  0  0
   38.4800   31.4000   47.1590 C   0  0  0  0  0  0  0  0  0  0  0  0
   37.9640   30.3970   47.8980 N   0  0  0  0  0  0  0  0  0  0  0  0
   37.9880   31.9200   50.9120 H   0  0  0  0  0  0  0  0  0  0  0  0
   38.9240   33.7240   49.5340 H   0  0  0  0  0  0  0  0  0  0  0  0
   38.6120   31.2340   46.0940 H   0  0  0  0  0  0  0  0  0  0  0  0
   33.1420   27.4680   48.1910 C   0  0  0  0  0  0  0  0  0  0  0  0
   31.9090   27.3950   48.5030 O   0  0  0  0  0  0  0  0  0  0  0  0
   33.6830   26.7430   46.9930 C   0  0  1  0  0  0  0  0  0  0  0  0
   33.8160   25.2050   47.3140 C   0  0  0  0  0  0  0  0  0  0  0  0
   32.8810   25.7420   46.2920 C   0  0  2  0  0  0  0  0  0  0  0  0
   34.7060   27.0930   46.6840 H   0  0  0  0  0  0  0  0  0  0  0  0
   34.7080   24.6930   46.9530 H   0  0  0  0  0  0  0  0  0  0  0  0
   33.3120   24.8470   48.2300 H   0  0  0  0  0  0  0  0  0  0  0  0
   31.7760   25.8100   46.4770 H   0  0  0  0  0  0  0  0  0  0  0  0
   33.2000   25.4200   44.8730 C   0  0  0  0  0  0  0  0  0  0  0  0
   32.5200   24.8880   44.1830 H   0  0  0  0  0  0  0  0  0  0  0  0
   34.2820   25.7370   44.3600 O   0  0  0  0  0  0  0  0  0  0  0  0
  1  8  1  0  0  0  0
  1  2  2  0  0  0  0
  2  6  1  0  0  0  0
  3  7  1  0  0  0  0
  3  2  1  0  0  0  0
  4  3  2  0  0  0  0
  5  4  1  0  0  0  0
  5  1  1  0  0  0  0
  8  9  2  0  0  0  0
 10 11  1  0  0  0  0
 10  8  1  0  0  0  0
 11 16  1  0  0  0  0
 12 17  1  0  0  0  0
 12 11  2  0  0  0  0
 13 12  1  0  0  0  0
 14 13  2  0  0  0  0
 14 15  1  0  0  0  0
 15 10  2  0  0  0  0
 18 14  1  0  0  0  0
 19 20  2  0  0  0  0
 19  4  1  0  0  0  0
 21 24  1  6  0  0  0
 21 22  1  0  0  0  0
 21 19  1  0  0  0  0
 22 26  1  0  0  0  0
 23 27  1  1  0  0  0
 23 21  1  0  0  0  0
 23 22  1  0  0  0  0
 25 22  1  0  0  0  0
 28 23  1  0  0  0  0
 29 28  1  0  0  0  0
 30 28  2  0  0  0  0
M  END
>  <minimizedAffinity>
-4.78104305

>  <minimizedRMSD>
0.315638721

$$$$
