
 OpenBabel03272508593D

 22 23  0  0  0  0  0  0  0  0999 V2000
   38.8840   31.5020   49.7870 Cl  0  0  0  0  0  0  0  0  0  0  0  0
   37.5000   30.8760   48.9610 C   0  0  0  0  0  0  0  0  0  0  0  0
   37.4580   30.9060   47.5800 C   0  0  0  0  0  0  0  0  0  0  0  0
   36.3820   30.4210   46.8850 C   0  0  0  0  0  0  0  0  0  0  0  0
   35.2910   29.8810   47.5450 C   0  0  0  0  0  0  0  0  0  0  0  0
   35.3010   29.8360   48.9350 C   0  0  0  0  0  0  0  0  0  0  0  0
   33.9980   29.1840   49.9080 Cl  0  0  0  0  0  0  0  0  0  0  0  0
   36.4160   30.3410   49.6000 C   0  0  0  0  0  0  0  0  0  0  0  0
   36.3870   30.4610   45.8140 H   0  0  0  0  0  0  0  0  0  0  0  0
   34.4170   29.4850   47.0410 H   0  0  0  0  0  0  0  0  0  0  0  0
   39.9210   33.2790   46.2570 C   0  0  0  0  0  0  0  0  0  0  0  0
   40.7240   32.4760   45.4210 C   0  0  0  0  0  0  0  0  0  0  0  0
   40.3850   31.1170   45.3390 C   0  0  0  0  0  0  0  0  0  0  0  0
   39.3260   30.6640   46.0520 N   0  0  0  0  0  0  0  0  0  0  0  0
   38.5820   31.4650   46.8420 C   0  0  0  0  0  0  0  0  0  0  0  0
   38.8900   32.7690   46.9350 N   0  0  0  0  0  0  0  0  0  0  0  0
   40.1280   34.3370   46.3660 H   0  0  0  0  0  0  0  0  0  0  0  0
   41.5520   32.8910   44.8790 H   0  0  0  0  0  0  0  0  0  0  0  0
   40.9650   30.4520   44.7130 H   0  0  0  0  0  0  0  0  0  0  0  0
   36.5030   30.3290   51.0690 C   0  0  0  0  0  0  0  0  0  0  0  0
   36.1840   31.0620   51.7980 H   0  0  0  0  0  0  0  0  0  0  0  0
   37.0680   29.1990   51.2600 O   0  0  0  0  0  0  0  0  0  0  0  0
  2  8  1  0  0  0  0
  2  1  1  0  0  0  0
  3  2  2  0  0  0  0
  4  5  2  0  0  0  0
  4  3  1  0  0  0  0
  5  6  1  0  0  0  0
  6  8  2  0  0  0  0
  6  7  1  0  0  0  0
  8 20  1  0  0  0  0
  9  4  1  0  0  0  0
 10  5  1  0  0  0  0
 11 17  1  0  0  0  0
 11 16  1  0  0  0  0
 12 11  2  0  0  0  0
 13 12  1  0  0  0  0
 13 14  2  0  0  0  0
 14 15  1  0  0  0  0
 15 16  2  0  0  0  0
 15  3  1  0  0  0  0
 18 12  1  0  0  0  0
 19 13  1  0  0  0  0
 20 22  2  0  0  0  0
 20 21  1  0  0  0  0
M  END
>  <minimizedAffinity>
-5.18688393

>  <minimizedRMSD>
2.83006978

$$$$
