
 OpenBabel03272503283D

 27 28  0  0  1  0  0  0  0  0999 V2000
   36.5280   29.8670   48.7280 N   0  0  0  0  0  0  0  0  0  0  0  0
   37.6210   30.6520   48.2560 C   0  0  0  0  0  0  0  0  0  0  0  0
   38.1600   31.2960   49.5270 C   0  0  2  0  0  0  0  0  0  0  0  0
   37.1970   30.8890   50.6300 C   0  0  0  0  0  0  0  0  0  0  0  0
   36.8520   29.5020   50.0940 C   0  0  0  0  0  0  0  0  0  0  0  0
   38.3910   30.0700   47.7100 H   0  0  0  0  0  0  0  0  0  0  0  0
   37.2120   31.4970   47.6580 H   0  0  0  0  0  0  0  0  0  0  0  0
   39.1380   30.8090   49.7990 H   0  0  0  0  0  0  0  0  0  0  0  0
   36.3130   31.5380   50.5650 H   0  0  0  0  0  0  0  0  0  0  0  0
   37.6650   30.8410   51.6180 H   0  0  0  0  0  0  0  0  0  0  0  0
   37.7710   28.9040   50.1230 H   0  0  0  0  0  0  0  0  0  0  0  0
   35.9850   29.0540   50.6160 H   0  0  0  0  0  0  0  0  0  0  0  0
   35.3400   29.5000   48.0180 C   0  0  0  0  0  0  0  0  0  0  0  0
   35.1730   30.0570   46.7580 C   0  0  0  0  0  0  0  0  0  0  0  0
   34.0070   29.7010   46.0530 C   0  0  0  0  0  0  0  0  0  0  0  0
   33.1370   28.8420   46.6550 N   0  0  0  0  0  0  0  0  0  0  0  0
   33.3380   28.3230   47.8790 C   0  0  0  0  0  0  0  0  0  0  0  0
   34.4460   28.6590   48.5540 N   0  0  0  0  0  0  0  0  0  0  0  0
   35.8390   30.7360   46.2570 H   0  0  0  0  0  0  0  0  0  0  0  0
   33.7890   30.0820   45.0710 H   0  0  0  0  0  0  0  0  0  0  0  0
   32.3720   27.4080   48.4740 C   0  0  0  0  0  0  0  0  0  0  0  0
   32.5140   26.3290   48.3340 H   0  0  0  0  0  0  0  0  0  0  0  0
   31.3850   27.8020   49.1400 O   0  0  0  0  0  0  0  0  0  0  0  0
   38.2920   32.7900   49.4010 C   0  0  0  0  0  0  0  0  0  0  0  0
   37.1050   33.3200   49.9000 F   0  0  0  0  0  0  0  0  0  0  0  0
   38.3380   33.0880   48.0540 F   0  0  0  0  0  0  0  0  0  0  0  0
   39.3800   33.2990   50.0380 F   0  0  0  0  0  0  0  0  0  0  0  0
  1  5  1  0  0  0  0
  2  1  1  0  0  0  0
  2  3  1  0  0  0  0
  3  8  1  1  0  0  0
  3  4  1  0  0  0  0
  4 10  1  0  0  0  0
  5 11  1  0  0  0  0
  5 12  1  0  0  0  0
  5  4  1  0  0  0  0
  6  2  1  0  0  0  0
  7  2  1  0  0  0  0
  9  4  1  0  0  0  0
 13 18  1  0  0  0  0
 13  1  1  0  0  0  0
 14 13  2  0  0  0  0
 15 16  2  0  0  0  0
 15 14  1  0  0  0  0
 16 17  1  0  0  0  0
 17 21  1  0  0  0  0
 17 18  2  0  0  0  0
 19 14  1  0  0  0  0
 20 15  1  0  0  0  0
 21 23  2  0  0  0  0
 22 21  1  0  0  0  0
 24  3  1  0  0  0  0
 24 25  1  0  0  0  0
 24 27  1  0  0  0  0
 26 24  1  0  0  0  0
M  END
>  <minimizedAffinity>
-5.46003199

>  <minimizedRMSD>
0.783178449

$$$$
