
 OpenBabel03272508593D

 22 23  0  0  0  0  0  0  0  0999 V2000
   38.6090   31.5770   49.0380 Cl  0  0  0  0  0  0  0  0  0  0  0  0
   37.2970   30.8890   48.1470 C   0  0  0  0  0  0  0  0  0  0  0  0
   37.3330   30.8930   46.7650 C   0  0  0  0  0  0  0  0  0  0  0  0
   36.3160   30.3600   46.0190 C   0  0  0  0  0  0  0  0  0  0  0  0
   35.2080   29.7930   46.6270 C   0  0  0  0  0  0  0  0  0  0  0  0
   35.1380   29.7730   48.0150 C   0  0  0  0  0  0  0  0  0  0  0  0
   33.8040   29.0940   48.9260 Cl  0  0  0  0  0  0  0  0  0  0  0  0
   36.1970   30.3270   48.7330 C   0  0  0  0  0  0  0  0  0  0  0  0
   36.3810   30.3820   44.9500 H   0  0  0  0  0  0  0  0  0  0  0  0
   34.3770   29.3590   46.0820 H   0  0  0  0  0  0  0  0  0  0  0  0
   39.4260   33.1880   44.8150 C   0  0  0  0  0  0  0  0  0  0  0  0
   40.6800   32.5440   44.8000 C   0  0  0  0  0  0  0  0  0  0  0  0
   40.7670   31.3160   45.4750 C   0  0  0  0  0  0  0  0  0  0  0  0
   39.6620   30.8310   46.0890 N   0  0  0  0  0  0  0  0  0  0  0  0
   38.4780   31.4780   46.0820 C   0  0  0  0  0  0  0  0  0  0  0  0
   38.3740   32.6540   45.4420 N   0  0  0  0  0  0  0  0  0  0  0  0
   39.2900   34.1390   44.3140 H   0  0  0  0  0  0  0  0  0  0  0  0
   41.5230   32.9780   44.2960 H   0  0  0  0  0  0  0  0  0  0  0  0
   41.7040   30.7770   45.4970 H   0  0  0  0  0  0  0  0  0  0  0  0
   36.1980   30.3440   50.2050 C   0  0  0  0  0  0  0  0  0  0  0  0
   35.8420   31.0910   50.9000 H   0  0  0  0  0  0  0  0  0  0  0  0
   36.7470   29.2150   50.4500 O   0  0  0  0  0  0  0  0  0  0  0  0
  2  8  1  0  0  0  0
  2  1  1  0  0  0  0
  3  2  2  0  0  0  0
  4  5  2  0  0  0  0
  4  3  1  0  0  0  0
  5  6  1  0  0  0  0
  6  8  2  0  0  0  0
  6  7  1  0  0  0  0
  8 20  1  0  0  0  0
  9  4  1  0  0  0  0
 10  5  1  0  0  0  0
 11 16  1  0  0  0  0
 12 11  2  0  0  0  0
 12 13  1  0  0  0  0
 13 19  1  0  0  0  0
 13 14  2  0  0  0  0
 15 14  1  0  0  0  0
 15  3  1  0  0  0  0
 16 15  2  0  0  0  0
 17 11  1  0  0  0  0
 18 12  1  0  0  0  0
 20 22  2  0  0  0  0
 20 21  1  0  0  0  0
M  END
>  <minimizedAffinity>
-5.12668276

>  <minimizedRMSD>
3.04521751

$$$$
