
 OpenBabel03272507573D

 26 27  0  0  0  0  0  0  0  0999 V2000
   35.1950   28.6060   50.1330 C   0  0  0  0  0  0  0  0  0  0  0  0
   36.2370   29.5440   49.9030 C   0  0  0  0  0  0  0  0  0  0  0  0
   36.0990   30.4440   48.8470 C   0  0  0  0  0  0  0  0  0  0  0  0
   34.9650   30.3670   48.0950 N   0  0  0  0  0  0  0  0  0  0  0  0
   33.9860   29.4570   48.3410 C   0  0  0  0  0  0  0  0  0  0  0  0
   34.0940   28.5820   49.3470 N   0  0  0  0  0  0  0  0  0  0  0  0
   32.9100   29.5860   47.4110 N   0  0  0  0  0  0  0  0  0  0  0  0
   35.2790   27.9110   50.9320 H   0  0  0  0  0  0  0  0  0  0  0  0
   33.0950   29.4290   46.3870 H   0  0  0  0  0  0  0  0  0  0  0  0
   31.9700   29.8400   47.8370 H   0  0  0  0  0  0  0  0  0  0  0  0
   37.1480   31.4200   48.5820 C   0  0  0  0  0  0  0  0  0  0  0  0
   37.1970   32.4160   49.5500 C   0  0  0  0  0  0  0  0  0  0  0  0
   38.1530   33.4190   49.4270 C   0  0  0  0  0  0  0  0  0  0  0  0
   39.0340   33.4200   48.3620 C   0  0  0  0  0  0  0  0  0  0  0  0
   38.9430   32.4130   47.4310 C   0  0  0  0  0  0  0  0  0  0  0  0
   38.0190   31.4540   47.5600 N   0  0  0  0  0  0  0  0  0  0  0  0
   36.5830   32.5480   50.4320 H   0  0  0  0  0  0  0  0  0  0  0  0
   38.2680   34.2300   50.1260 H   0  0  0  0  0  0  0  0  0  0  0  0
   39.7920   34.1820   48.2280 H   0  0  0  0  0  0  0  0  0  0  0  0
   39.8530   32.3810   46.2950 C   0  0  0  0  0  0  0  0  0  0  0  0
   40.3510   31.4690   46.0050 H   0  0  0  0  0  0  0  0  0  0  0  0
   40.0990   33.3990   45.6100 O   0  0  0  0  0  0  0  0  0  0  0  0
   37.4290   29.5250   50.7990 C   0  0  0  0  0  0  0  0  0  0  0  0
   38.5850   29.8390   50.1030 F   0  0  0  0  0  0  0  0  0  0  0  0
   37.2440   30.4660   51.7840 F   0  0  0  0  0  0  0  0  0  0  0  0
   37.6260   28.3000   51.4030 F   0  0  0  0  0  0  0  0  0  0  0  0
  1  8  1  0  0  0  0
  2  1  1  0  0  0  0
  2 23  1  0  0  0  0
  3  2  2  0  0  0  0
  4  5  2  0  0  0  0
  4  3  1  0  0  0  0
  5  6  1  0  0  0  0
  6  1  2  0  0  0  0
  7 10  1  0  0  0  0
  7  5  1  0  0  0  0
  9  7  1  0  0  0  0
 11  3  1  0  0  0  0
 11 12  1  0  0  0  0
 12 17  1  0  0  0  0
 13 12  2  0  0  0  0
 13 18  1  0  0  0  0
 14 13  1  0  0  0  0
 15 16  1  0  0  0  0
 15 14  2  0  0  0  0
 16 11  2  0  0  0  0
 19 14  1  0  0  0  0
 20 15  1  0  0  0  0
 21 20  1  0  0  0  0
 22 20  2  0  0  0  0
 23 26  1  0  0  0  0
 23 25  1  0  0  0  0
 24 23  1  0  0  0  0
M  END
>  <minimizedAffinity>
-6.36750174

>  <minimizedRMSD>
0.195667937

$$$$
