
 OpenBabel03262523203D

 24 25  0  0  1  0  0  0  0  0999 V2000
   36.8190   21.6010   33.0510 C   0  0  0  0  0  0  0  0  0  0  0  0
   35.7910   20.7260   33.4220 C   0  0  0  0  0  0  0  0  0  0  0  0
   35.5920   20.5100   34.7870 C   0  0  0  0  0  0  0  0  0  0  0  0
   36.3850   21.1400   35.7070 N   0  0  0  0  0  0  0  0  0  0  0  0
   37.3670   21.9780   35.2900 C   0  0  0  0  0  0  0  0  0  0  0  0
   37.5820   22.2040   33.9890 N   0  0  0  0  0  0  0  0  0  0  0  0
   38.1700   22.6120   36.3020 N   0  0  0  0  0  0  0  0  0  0  0  0
   37.6490   23.4950   37.3190 C   0  0  0  0  0  0  0  0  0  0  0  0
   38.7830   23.6670   38.2790 C   0  0  0  0  0  0  0  0  0  0  0  0
   39.8750   22.7200   37.8430 C   0  0  0  0  0  0  0  0  0  0  0  0
   39.6110   22.4350   36.4220 C   0  0  2  0  0  0  0  0  0  0  0  0
   36.9950   21.7850   32.0150 H   0  0  0  0  0  0  0  0  0  0  0  0
   35.1880   20.2490   32.6580 H   0  0  0  0  0  0  0  0  0  0  0  0
   34.8050   19.8400   35.0960 H   0  0  0  0  0  0  0  0  0  0  0  0
   36.7950   22.9870   37.8140 H   0  0  0  0  0  0  0  0  0  0  0  0
   37.2900   24.4590   36.8790 H   0  0  0  0  0  0  0  0  0  0  0  0
   38.4840   23.3680   39.2950 H   0  0  0  0  0  0  0  0  0  0  0  0
   39.1350   24.7100   38.3650 H   0  0  0  0  0  0  0  0  0  0  0  0
   40.8320   23.3020   37.8980 H   0  0  0  0  0  0  0  0  0  0  0  0
   39.9890   21.8330   38.4830 H   0  0  0  0  0  0  0  0  0  0  0  0
   39.7850   21.3440   36.2600 H   0  0  0  0  0  0  0  0  0  0  0  0
   40.3640   23.2620   35.4580 C   0  0  0  0  0  0  0  0  0  0  0  0
   39.7730   23.6110   34.6130 H   0  0  0  0  0  0  0  0  0  0  0  0
   41.5490   23.4410   35.7470 O   0  0  0  0  0  0  0  0  0  0  0  0
  1  2  2  0  0  0  0
  1  6  1  0  0  0  0
  2  3  1  0  0  0  0
  3 14  1  0  0  0  0
  3  4  2  0  0  0  0
  5  4  1  0  0  0  0
  5  7  1  0  0  0  0
  6  5  2  0  0  0  0
  7 11  1  0  0  0  0
  7  8  1  0  0  0  0
  8 15  1  0  0  0  0
  8  9  1  0  0  0  0
  9 18  1  0  0  0  0
  9 17  1  0  0  0  0
 10 19  1  0  0  0  0
 10  9  1  0  0  0  0
 10 20  1  0  0  0  0
 11 21  1  6  0  0  0
 11 10  1  0  0  0  0
 12  1  1  0  0  0  0
 13  2  1  0  0  0  0
 16  8  1  0  0  0  0
 22 24  2  0  0  0  0
 22 11  1  0  0  0  0
 23 22  1  0  0  0  0
M  END
>  <minimizedAffinity>
-3.9584341

$$$$

 OpenBabel03262523203D

 24 25  0  0  1  0  0  0  0  0999 V2000
   35.9130   24.0550   31.5420 C   0  0  0  0  0  0  0  0  0  0  0  0
   35.2530   25.0570   30.8210 C   0  0  0  0  0  0  0  0  0  0  0  0
   35.5280   26.3830   31.1640 C   0  0  0  0  0  0  0  0  0  0  0  0
   36.4120   26.6650   32.1690 N   0  0  0  0  0  0  0  0  0  0  0  0
   37.0230   25.6540   32.8340 C   0  0  0  0  0  0  0  0  0  0  0  0
   36.7800   24.3740   32.5290 N   0  0  0  0  0  0  0  0  0  0  0  0
   37.9430   26.0100   33.8820 N   0  0  0  0  0  0  0  0  0  0  0  0
   39.1390   26.7950   33.6830 C   0  0  0  0  0  0  0  0  0  0  0  0
   39.5960   27.1340   35.0660 C   0  0  0  0  0  0  0  0  0  0  0  0
   38.5240   26.6530   36.0140 C   0  0  0  0  0  0  0  0  0  0  0  0
   37.7740   25.6220   35.2760 C   0  0  2  0  0  0  0  0  0  0  0  0
   35.7230   23.0330   31.3030 H   0  0  0  0  0  0  0  0  0  0  0  0
   34.5600   24.7860   30.0330 H   0  0  0  0  0  0  0  0  0  0  0  0
   35.0310   27.1720   30.6210 H   0  0  0  0  0  0  0  0  0  0  0  0
   38.8600   27.7170   33.1300 H   0  0  0  0  0  0  0  0  0  0  0  0
   39.9010   26.2340   33.0870 H   0  0  0  0  0  0  0  0  0  0  0  0
   39.6760   28.2240   35.1960 H   0  0  0  0  0  0  0  0  0  0  0  0
   40.5940   26.7290   35.3130 H   0  0  0  0  0  0  0  0  0  0  0  0
   39.0590   26.1420   36.8560 H   0  0  0  0  0  0  0  0  0  0  0  0
   37.9090   27.4550   36.4480 H   0  0  0  0  0  0  0  0  0  0  0  0
   36.6890   25.7760   35.4910 H   0  0  0  0  0  0  0  0  0  0  0  0
   38.1930   24.2290   35.5290 C   0  0  0  0  0  0  0  0  0  0  0  0
   38.0360   23.5560   34.6870 H   0  0  0  0  0  0  0  0  0  0  0  0
   38.6610   24.0270   36.6520 O   0  0  0  0  0  0  0  0  0  0  0  0
  1  6  1  0  0  0  0
  2  3  1  0  0  0  0
  2  1  2  0  0  0  0
  3  4  2  0  0  0  0
  4  5  1  0  0  0  0
  5  7  1  0  0  0  0
  6  5  2  0  0  0  0
  7 11  1  0  0  0  0
  8  7  1  0  0  0  0
  8  9  1  0  0  0  0
  9 17  1  0  0  0  0
  9 18  1  0  0  0  0
  9 10  1  0  0  0  0
 10 20  1  0  0  0  0
 10 19  1  0  0  0  0
 11 21  1  1  0  0  0
 11 22  1  0  0  0  0
 11 10  1  0  0  0  0
 12  1  1  0  0  0  0
 13  2  1  0  0  0  0
 14  3  1  0  0  0  0
 15  8  1  0  0  0  0
 16  8  1  0  0  0  0
 22 24  2  0  0  0  0
 23 22  1  0  0  0  0
M  END
>  <minimizedAffinity>
-3.94428396

$$$$

 OpenBabel03262523203D

 24 25  0  0  1  0  0  0  0  0999 V2000
   37.9830   24.2440   38.1070 C   0  0  0  0  0  0  0  0  0  0  0  0
   38.7940   23.1030   38.1500 C   0  0  0  0  0  0  0  0  0  0  0  0
   39.6880   22.9100   37.0950 C   0  0  0  0  0  0  0  0  0  0  0  0
   39.7490   23.8140   36.0700 N   0  0  0  0  0  0  0  0  0  0  0  0
   38.9390   24.9010   36.0800 C   0  0  0  0  0  0  0  0  0  0  0  0
   38.0720   25.1140   37.0770 N   0  0  0  0  0  0  0  0  0  0  0  0
   39.0460   25.8180   34.9750 N   0  0  0  0  0  0  0  0  0  0  0  0
   40.2490   26.5380   34.6290 C   0  0  0  0  0  0  0  0  0  0  0  0
   39.9600   27.1220   33.2840 C   0  0  0  0  0  0  0  0  0  0  0  0
   38.6310   26.5600   32.8370 C   0  0  0  0  0  0  0  0  0  0  0  0
   37.9490   26.1270   34.0690 C   0  0  2  0  0  0  0  0  0  0  0  0
   37.2900   24.4180   38.9000 H   0  0  0  0  0  0  0  0  0  0  0  0
   38.7110   22.4150   38.9830 H   0  0  0  0  0  0  0  0  0  0  0  0
   40.3240   22.0380   37.1070 H   0  0  0  0  0  0  0  0  0  0  0  0
   41.0840   25.8070   34.5630 H   0  0  0  0  0  0  0  0  0  0  0  0
   40.5030   27.3050   35.4020 H   0  0  0  0  0  0  0  0  0  0  0  0
   40.7100   26.7980   32.5460 H   0  0  0  0  0  0  0  0  0  0  0  0
   39.9810   28.2260   33.2680 H   0  0  0  0  0  0  0  0  0  0  0  0
   38.0530   27.4250   32.4180 H   0  0  0  0  0  0  0  0  0  0  0  0
   38.7020   25.7960   32.0500 H   0  0  0  0  0  0  0  0  0  0  0  0
   37.4620   25.1450   33.8560 H   0  0  0  0  0  0  0  0  0  0  0  0
   36.9980   27.1000   34.6440 C   0  0  0  0  0  0  0  0  0  0  0  0
   36.8270   26.9770   35.7120 H   0  0  0  0  0  0  0  0  0  0  0  0
   36.5370   27.9100   33.8360 O   0  0  0  0  0  0  0  0  0  0  0  0
  1  2  1  0  0  0  0
  1 12  1  0  0  0  0
  2 13  1  0  0  0  0
  3 14  1  0  0  0  0
  3  2  2  0  0  0  0
  4  5  2  0  0  0  0
  4  3  1  0  0  0  0
  5  6  1  0  0  0  0
  6  1  2  0  0  0  0
  7  5  1  0  0  0  0
  8  7  1  0  0  0  0
  8 16  1  0  0  0  0
  9  8  1  0  0  0  0
 10  9  1  0  0  0  0
 10 11  1  0  0  0  0
 11 21  1  6  0  0  0
 11 22  1  0  0  0  0
 11  7  1  0  0  0  0
 15  8  1  0  0  0  0
 17  9  1  0  0  0  0
 18  9  1  0  0  0  0
 19 10  1  0  0  0  0
 20 10  1  0  0  0  0
 22 23  1  0  0  0  0
 24 22  2  0  0  0  0
M  END
>  <minimizedAffinity>
-3.77817225

$$$$

 OpenBabel03262523203D

 24 25  0  0  1  0  0  0  0  0999 V2000
   37.3420   27.6790   34.8890 C   0  0  0  0  0  0  0  0  0  0  0  0
   38.1670   27.1580   35.8940 C   0  0  0  0  0  0  0  0  0  0  0  0
   38.7780   25.9260   35.6500 C   0  0  0  0  0  0  0  0  0  0  0  0
   38.5620   25.2730   34.4680 N   0  0  0  0  0  0  0  0  0  0  0  0
   37.7530   25.8250   33.5290 C   0  0  0  0  0  0  0  0  0  0  0  0
   37.1540   27.0040   33.7340 N   0  0  0  0  0  0  0  0  0  0  0  0
   37.5630   25.0920   32.3050 N   0  0  0  0  0  0  0  0  0  0  0  0
   38.6260   24.7440   31.3910 C   0  0  0  0  0  0  0  0  0  0  0  0
   38.0000   23.7700   30.4450 C   0  0  0  0  0  0  0  0  0  0  0  0
   36.6160   23.4730   30.9720 C   0  0  0  0  0  0  0  0  0  0  0  0
   36.2680   24.6110   31.8410 C   0  0  2  0  0  0  0  0  0  0  0  0
   36.8620   28.6180   35.0480 H   0  0  0  0  0  0  0  0  0  0  0  0
   38.3080   27.7120   36.8150 H   0  0  0  0  0  0  0  0  0  0  0  0
   39.4180   25.5060   36.4100 H   0  0  0  0  0  0  0  0  0  0  0  0
   39.4350   24.2540   31.9730 H   0  0  0  0  0  0  0  0  0  0  0  0
   39.0430   25.6500   30.8860 H   0  0  0  0  0  0  0  0  0  0  0  0
   38.5520   22.8190   30.4400 H   0  0  0  0  0  0  0  0  0  0  0  0
   37.9890   24.1170   29.3970 H   0  0  0  0  0  0  0  0  0  0  0  0
   35.9310   23.5060   30.0850 H   0  0  0  0  0  0  0  0  0  0  0  0
   36.5100   22.4830   31.4380 H   0  0  0  0  0  0  0  0  0  0  0  0
   35.7680   24.2000   32.7510 H   0  0  0  0  0  0  0  0  0  0  0  0
   35.4650   25.6740   31.2040 C   0  0  0  0  0  0  0  0  0  0  0  0
   35.7950   26.6850   31.4420 H   0  0  0  0  0  0  0  0  0  0  0  0
   34.5420   25.2680   30.4960 O   0  0  0  0  0  0  0  0  0  0  0  0
  1 12  1  0  0  0  0
  1  2  1  0  0  0  0
  2 13  1  0  0  0  0
  3  2  2  0  0  0  0
  3 14  1  0  0  0  0
  4  3  1  0  0  0  0
  5  6  1  0  0  0  0
  5  4  2  0  0  0  0
  6  1  2  0  0  0  0
  7  5  1  0  0  0  0
  8 15  1  0  0  0  0
  8  7  1  0  0  0  0
  9 10  1  0  0  0  0
  9  8  1  0  0  0  0
 10 20  1  0  0  0  0
 10 11  1  0  0  0  0
 11  7  1  0  0  0  0
 11 21  1  1  0  0  0
 16  8  1  0  0  0  0
 17  9  1  0  0  0  0
 18  9  1  0  0  0  0
 19 10  1  0  0  0  0
 22 23  1  0  0  0  0
 22 11  1  0  0  0  0
 24 22  2  0  0  0  0
M  END
>  <minimizedAffinity>
-3.73568797

$$$$

 OpenBabel03262523203D

 24 25  0  0  1  0  0  0  0  0999 V2000
   38.8240   25.8530   32.9580 C   0  0  0  0  0  0  0  0  0  0  0  0
   39.7140   26.9330   32.9720 C   0  0  0  0  0  0  0  0  0  0  0  0
   40.6870   26.9510   33.9750 C   0  0  0  0  0  0  0  0  0  0  0  0
   40.7460   25.9400   34.8950 N   0  0  0  0  0  0  0  0  0  0  0  0
   39.8570   24.9180   34.8320 C   0  0  0  0  0  0  0  0  0  0  0  0
   38.9140   24.8730   33.8840 N   0  0  0  0  0  0  0  0  0  0  0  0
   39.9660   23.8830   35.8260 N   0  0  0  0  0  0  0  0  0  0  0  0
   41.1310   23.0490   36.0090 C   0  0  0  0  0  0  0  0  0  0  0  0
   40.8860   22.3450   37.3050 C   0  0  0  0  0  0  0  0  0  0  0  0
   39.6360   22.9450   37.9010 C   0  0  0  0  0  0  0  0  0  0  0  0
   38.9090   23.5540   36.7730 C   0  0  2  0  0  0  0  0  0  0  0  0
   38.0700   25.8130   32.2040 H   0  0  0  0  0  0  0  0  0  0  0  0
   39.6300   27.7110   32.2230 H   0  0  0  0  0  0  0  0  0  0  0  0
   41.3850   27.7730   34.0060 H   0  0  0  0  0  0  0  0  0  0  0  0
   42.0210   23.7100   36.0880 H   0  0  0  0  0  0  0  0  0  0  0  0
   41.2750   22.3540   35.1450 H   0  0  0  0  0  0  0  0  0  0  0  0
   41.7040   22.5350   38.0150 H   0  0  0  0  0  0  0  0  0  0  0  0
   40.8250   21.2470   37.2060 H   0  0  0  0  0  0  0  0  0  0  0  0
   39.0220   22.0820   38.2710 H   0  0  0  0  0  0  0  0  0  0  0  0
   39.8150   23.6140   38.7550 H   0  0  0  0  0  0  0  0  0  0  0  0
   38.5130   24.5380   37.1200 H   0  0  0  0  0  0  0  0  0  0  0  0
   37.8520   22.7150   36.1720 C   0  0  0  0  0  0  0  0  0  0  0  0
   38.0660   22.3900   35.1550 H   0  0  0  0  0  0  0  0  0  0  0  0
   36.8840   22.5030   36.9040 O   0  0  0  0  0  0  0  0  0  0  0  0
  1  2  2  0  0  0  0
  1  6  1  0  0  0  0
  2  3  1  0  0  0  0
  3 14  1  0  0  0  0
  3  4  2  0  0  0  0
  5  4  1  0  0  0  0
  5  7  1  0  0  0  0
  6  5  2  0  0  0  0
  7  8  1  0  0  0  0
  7 11  1  0  0  0  0
  8 15  1  0  0  0  0
  8  9  1  0  0  0  0
  9 10  1  0  0  0  0
  9 17  1  0  0  0  0
 10 19  1  0  0  0  0
 10 20  1  0  0  0  0
 11 21  1  1  0  0  0
 11 10  1  0  0  0  0
 12  1  1  0  0  0  0
 13  2  1  0  0  0  0
 16  8  1  0  0  0  0
 18  9  1  0  0  0  0
 22 11  1  0  0  0  0
 22 24  2  0  0  0  0
 23 22  1  0  0  0  0
M  END
>  <minimizedAffinity>
-3.69073081

$$$$

 OpenBabel03262523203D

 24 25  0  0  1  0  0  0  0  0999 V2000
   39.7960   21.3650   33.1600 C   0  0  0  0  0  0  0  0  0  0  0  0
   38.5850   21.0220   32.5470 C   0  0  0  0  0  0  0  0  0  0  0  0
   37.4070   21.4020   33.1950 C   0  0  0  0  0  0  0  0  0  0  0  0
   37.4620   22.0800   34.3810 N   0  0  0  0  0  0  0  0  0  0  0  0
   38.6650   22.3860   34.9300 C   0  0  0  0  0  0  0  0  0  0  0  0
   39.8100   22.0360   34.3330 N   0  0  0  0  0  0  0  0  0  0  0  0
   38.6610   23.1000   36.1790 N   0  0  0  0  0  0  0  0  0  0  0  0
   38.0810   24.4090   36.3660 C   0  0  0  0  0  0  0  0  0  0  0  0
   38.0680   24.6030   37.8490 C   0  0  0  0  0  0  0  0  0  0  0  0
   38.5020   23.2950   38.4670 C   0  0  0  0  0  0  0  0  0  0  0  0
   39.2430   22.5830   37.4100 C   0  0  2  0  0  0  0  0  0  0  0  0
   40.7130   21.0880   32.6880 H   0  0  0  0  0  0  0  0  0  0  0  0
   38.5910   20.4840   31.6070 H   0  0  0  0  0  0  0  0  0  0  0  0
   36.4620   21.1490   32.7410 H   0  0  0  0  0  0  0  0  0  0  0  0
   37.0430   24.3880   35.9690 H   0  0  0  0  0  0  0  0  0  0  0  0
   38.6590   25.1950   35.8200 H   0  0  0  0  0  0  0  0  0  0  0  0
   37.0480   24.8050   38.2090 H   0  0  0  0  0  0  0  0  0  0  0  0
   38.6810   25.4560   38.1880 H   0  0  0  0  0  0  0  0  0  0  0  0
   39.2360   23.5590   39.2720 H   0  0  0  0  0  0  0  0  0  0  0  0
   37.6890   22.7200   38.9330 H   0  0  0  0  0  0  0  0  0  0  0  0
   38.9360   21.5100   37.4490 H   0  0  0  0  0  0  0  0  0  0  0  0
   40.7110   22.7380   37.4500 C   0  0  0  0  0  0  0  0  0  0  0  0
   41.0510   23.7720   37.4290 H   0  0  0  0  0  0  0  0  0  0  0  0
   41.3400   21.6790   37.5020 O   0  0  0  0  0  0  0  0  0  0  0  0
  1  6  1  0  0  0  0
  2  1  2  0  0  0  0
  2  3  1  0  0  0  0
  3  4  2  0  0  0  0
  4  5  1  0  0  0  0
  5  7  1  0  0  0  0
  6  5  2  0  0  0  0
  7  8  1  0  0  0  0
  7 11  1  0  0  0  0
  8  9  1  0  0  0  0
  9 18  1  0  0  0  0
  9 17  1  0  0  0  0
  9 10  1  0  0  0  0
 10 20  1  0  0  0  0
 10 19  1  0  0  0  0
 11 21  1  1  0  0  0
 11 22  1  0  0  0  0
 11 10  1  0  0  0  0
 12  1  1  0  0  0  0
 13  2  1  0  0  0  0
 14  3  1  0  0  0  0
 15  8  1  0  0  0  0
 16  8  1  0  0  0  0
 22 24  2  0  0  0  0
 23 22  1  0  0  0  0
M  END
>  <minimizedAffinity>
-3.64091182

$$$$

 OpenBabel03262523203D

 24 25  0  0  1  0  0  0  0  0999 V2000
   37.3050   21.8110   33.2540 C   0  0  0  0  0  0  0  0  0  0  0  0
   36.7880   22.1640   32.0020 C   0  0  0  0  0  0  0  0  0  0  0  0
   36.8320   23.5140   31.6450 C   0  0  0  0  0  0  0  0  0  0  0  0
   37.3640   24.4350   32.5050 N   0  0  0  0  0  0  0  0  0  0  0  0
   37.8510   24.0360   33.7060 C   0  0  0  0  0  0  0  0  0  0  0  0
   37.8230   22.7510   34.0760 N   0  0  0  0  0  0  0  0  0  0  0  0
   38.3980   25.0500   34.5690 N   0  0  0  0  0  0  0  0  0  0  0  0
   39.5240   25.8870   34.2290 C   0  0  0  0  0  0  0  0  0  0  0  0
   39.5370   26.9440   35.2870 C   0  0  0  0  0  0  0  0  0  0  0  0
   38.2880   26.7520   36.1140 C   0  0  0  0  0  0  0  0  0  0  0  0
   37.8760   25.3540   35.8940 C   0  0  2  0  0  0  0  0  0  0  0  0
   37.2850   20.7870   33.5540 H   0  0  0  0  0  0  0  0  0  0  0  0
   36.3760   21.3990   31.3550 H   0  0  0  0  0  0  0  0  0  0  0  0
   36.4400   23.8090   30.6850 H   0  0  0  0  0  0  0  0  0  0  0  0
   39.3310   26.3390   33.2320 H   0  0  0  0  0  0  0  0  0  0  0  0
   40.4730   25.2970   34.1780 H   0  0  0  0  0  0  0  0  0  0  0  0
   39.4760   27.9470   34.8400 H   0  0  0  0  0  0  0  0  0  0  0  0
   40.4560   26.9430   35.9000 H   0  0  0  0  0  0  0  0  0  0  0  0
   38.6060   26.8450   37.1850 H   0  0  0  0  0  0  0  0  0  0  0  0
   37.5040   27.5020   35.9340 H   0  0  0  0  0  0  0  0  0  0  0  0
   36.7660   25.3450   35.7790 H   0  0  0  0  0  0  0  0  0  0  0  0
   38.3320   24.3910   36.9170 C   0  0  0  0  0  0  0  0  0  0  0  0
   38.8860   23.5430   36.5150 H   0  0  0  0  0  0  0  0  0  0  0  0
   38.0230   24.6820   38.0740 O   0  0  0  0  0  0  0  0  0  0  0  0
  1 12  1  0  0  0  0
  1  6  1  0  0  0  0
  2  1  2  0  0  0  0
  3  2  1  0  0  0  0
  3  4  2  0  0  0  0
  4  5  1  0  0  0  0
  5  6  2  0  0  0  0
  5  7  1  0  0  0  0
  7 11  1  0  0  0  0
  8  7  1  0  0  0  0
  8  9  1  0  0  0  0
  9 18  1  0  0  0  0
  9 10  1  0  0  0  0
 10 19  1  0  0  0  0
 11 21  1  6  0  0  0
 11 10  1  0  0  0  0
 11 22  1  0  0  0  0
 13  2  1  0  0  0  0
 14  3  1  0  0  0  0
 15  8  1  0  0  0  0
 16  8  1  0  0  0  0
 17  9  1  0  0  0  0
 20 10  1  0  0  0  0
 22 24  2  0  0  0  0
 23 22  1  0  0  0  0
M  END
>  <minimizedAffinity>
-3.62545824

$$$$

 OpenBabel03262523203D

 24 25  0  0  1  0  0  0  0  0999 V2000
   37.1150   26.2920   33.9610 C   0  0  0  0  0  0  0  0  0  0  0  0
   37.3320   27.5300   34.5790 C   0  0  0  0  0  0  0  0  0  0  0  0
   38.3340   27.5970   35.5490 C   0  0  0  0  0  0  0  0  0  0  0  0
   39.0620   26.4830   35.8650 N   0  0  0  0  0  0  0  0  0  0  0  0
   38.8090   25.3100   35.2340 C   0  0  0  0  0  0  0  0  0  0  0  0
   37.8550   25.2140   34.3010 N   0  0  0  0  0  0  0  0  0  0  0  0
   39.6050   24.1710   35.6090 N   0  0  0  0  0  0  0  0  0  0  0  0
   41.0410   24.1010   35.4710 C   0  0  0  0  0  0  0  0  0  0  0  0
   41.4300   22.8760   36.2350 C   0  0  0  0  0  0  0  0  0  0  0  0
   40.1850   22.3780   36.9300 C   0  0  0  0  0  0  0  0  0  0  0  0
   39.0540   22.9480   36.1760 C   0  0  2  0  0  0  0  0  0  0  0  0
   36.3560   26.2100   33.2160 H   0  0  0  0  0  0  0  0  0  0  0  0
   36.7300   28.3850   34.2950 H   0  0  0  0  0  0  0  0  0  0  0  0
   38.5190   28.5410   36.0380 H   0  0  0  0  0  0  0  0  0  0  0  0
   41.4790   25.0070   35.9420 H   0  0  0  0  0  0  0  0  0  0  0  0
   41.3480   24.0710   34.3960 H   0  0  0  0  0  0  0  0  0  0  0  0
   42.1610   23.1200   37.0210 H   0  0  0  0  0  0  0  0  0  0  0  0
   41.9080   22.1000   35.6120 H   0  0  0  0  0  0  0  0  0  0  0  0
   40.1670   21.2670   36.7770 H   0  0  0  0  0  0  0  0  0  0  0  0
   40.1640   22.5650   38.0130 H   0  0  0  0  0  0  0  0  0  0  0  0
   38.2930   23.2880   36.9180 H   0  0  0  0  0  0  0  0  0  0  0  0
   38.4660   22.0630   35.1500 C   0  0  0  0  0  0  0  0  0  0  0  0
   39.1630   21.7620   34.3690 H   0  0  0  0  0  0  0  0  0  0  0  0
   37.2760   21.7920   35.3230 O   0  0  0  0  0  0  0  0  0  0  0  0
  1  6  2  0  0  0  0
  1  2  1  0  0  0  0
  2  3  2  0  0  0  0
  3  4  1  0  0  0  0
  3 14  1  0  0  0  0
  5  7  1  0  0  0  0
  5  4  2  0  0  0  0
  6  5  1  0  0  0  0
  7 11  1  0  0  0  0
  8  7  1  0  0  0  0
  8 15  1  0  0  0  0
  8  9  1  0  0  0  0
  9 10  1  0  0  0  0
  9 17  1  0  0  0  0
 10 20  1  0  0  0  0
 11 21  1  1  0  0  0
 11 10  1  0  0  0  0
 12  1  1  0  0  0  0
 13  2  1  0  0  0  0
 16  8  1  0  0  0  0
 18  9  1  0  0  0  0
 19 10  1  0  0  0  0
 22 24  2  0  0  0  0
 22 11  1  0  0  0  0
 23 22  1  0  0  0  0
M  END
>  <minimizedAffinity>
-3.5816896

$$$$

 OpenBabel03262523203D

 24 25  0  0  1  0  0  0  0  0999 V2000
   38.0730   23.3320   31.7040 C   0  0  0  0  0  0  0  0  0  0  0  0
   36.9220   22.7360   31.1760 C   0  0  0  0  0  0  0  0  0  0  0  0
   35.7410   23.4820   31.2030 C   0  0  0  0  0  0  0  0  0  0  0  0
   35.7360   24.7440   31.7310 N   0  0  0  0  0  0  0  0  0  0  0  0
   36.8820   25.2720   32.2290 C   0  0  0  0  0  0  0  0  0  0  0  0
   38.0280   24.5810   32.2180 N   0  0  0  0  0  0  0  0  0  0  0  0
   36.8170   26.6030   32.7730 N   0  0  0  0  0  0  0  0  0  0  0  0
   36.4370   27.7730   32.0170 C   0  0  0  0  0  0  0  0  0  0  0  0
   36.2450   28.8370   33.0490 C   0  0  0  0  0  0  0  0  0  0  0  0
   36.3690   28.1690   34.3980 C   0  0  0  0  0  0  0  0  0  0  0  0
   37.1260   26.9280   34.1590 C   0  0  2  0  0  0  0  0  0  0  0  0
   38.9900   22.7860   31.6970 H   0  0  0  0  0  0  0  0  0  0  0  0
   36.9740   21.7330   30.7680 H   0  0  0  0  0  0  0  0  0  0  0  0
   34.8420   23.0430   30.8010 H   0  0  0  0  0  0  0  0  0  0  0  0
   35.4770   27.5550   31.5010 H   0  0  0  0  0  0  0  0  0  0  0  0
   37.2070   28.0310   31.2490 H   0  0  0  0  0  0  0  0  0  0  0  0
   35.2310   29.2610   32.9920 H   0  0  0  0  0  0  0  0  0  0  0  0
   36.9340   29.6930   32.9350 H   0  0  0  0  0  0  0  0  0  0  0  0
   37.0140   28.8430   35.0210 H   0  0  0  0  0  0  0  0  0  0  0  0
   35.4150   28.0380   34.9290 H   0  0  0  0  0  0  0  0  0  0  0  0
   36.6460   26.1200   34.7620 H   0  0  0  0  0  0  0  0  0  0  0  0
   38.5790   27.0130   34.4090 C   0  0  0  0  0  0  0  0  0  0  0  0
   39.1950   26.6950   33.5690 H   0  0  0  0  0  0  0  0  0  0  0  0
   38.8870   27.4330   35.5270 O   0  0  0  0  0  0  0  0  0  0  0  0
  1  6  1  0  0  0  0
  2  3  1  0  0  0  0
  2  1  2  0  0  0  0
  3  4  2  0  0  0  0
  4  5  1  0  0  0  0
  5  7  1  0  0  0  0
  6  5  2  0  0  0  0
  7 11  1  0  0  0  0
  8  7  1  0  0  0  0
  8  9  1  0  0  0  0
  9 10  1  0  0  0  0
 10 20  1  0  0  0  0
 10 19  1  0  0  0  0
 11 10  1  0  0  0  0
 11 22  1  0  0  0  0
 11 21  1  1  0  0  0
 12  1  1  0  0  0  0
 13  2  1  0  0  0  0
 14  3  1  0  0  0  0
 15  8  1  0  0  0  0
 16  8  1  0  0  0  0
 17  9  1  0  0  0  0
 18  9  1  0  0  0  0
 22 24  2  0  0  0  0
 23 22  1  0  0  0  0
M  END
>  <minimizedAffinity>
-3.55289245

$$$$
