
 OpenBabel03272500013D

 22 23  0  0  0  0  0  0  0  0999 V2000
   37.2680   31.5660   48.4450 N   0  0  0  0  0  0  0  0  0  0  0  0
   37.3800   32.3490   49.5480 C   0  0  0  0  0  0  0  0  0  0  0  0
   38.3380   33.3640   49.5750 C   0  0  0  0  0  0  0  0  0  0  0  0
   39.0870   33.4460   48.4280 C   0  0  0  0  0  0  0  0  0  0  0  0
   39.9680   34.3690   48.4350 O   0  0  0  0  0  0  0  0  0  0  0  0
   38.9950   32.6860   47.3290 N   0  0  0  0  0  0  0  0  0  0  0  0
   38.0480   31.7240   47.3690 C   0  0  0  0  0  0  0  0  0  0  0  0
   37.9390   30.9890   46.3430 O   0  0  0  0  0  0  0  0  0  0  0  0
   36.7400   32.2080   50.4140 H   0  0  0  0  0  0  0  0  0  0  0  0
   38.4850   34.0220   50.4100 H   0  0  0  0  0  0  0  0  0  0  0  0
   39.6210   32.8410   46.5100 H   0  0  0  0  0  0  0  0  0  0  0  0
   36.4100   29.4490   49.3140 C   0  0  0  0  0  0  0  0  0  0  0  0
   36.3000   30.5220   48.3880 C   0  0  0  0  0  0  0  0  0  0  0  0
   35.2430   30.4730   47.4820 C   0  0  0  0  0  0  0  0  0  0  0  0
   34.3830   29.4180   47.5290 N   0  0  0  0  0  0  0  0  0  0  0  0
   34.5150   28.4130   48.4230 C   0  0  0  0  0  0  0  0  0  0  0  0
   35.5250   28.4310   49.3110 N   0  0  0  0  0  0  0  0  0  0  0  0
   37.2200   29.4340   50.0500 H   0  0  0  0  0  0  0  0  0  0  0  0
   35.1550   31.2830   46.7780 H   0  0  0  0  0  0  0  0  0  0  0  0
   33.5440   27.3240   48.3990 C   0  0  0  0  0  0  0  0  0  0  0  0
   33.9000   26.3240   48.1050 H   0  0  0  0  0  0  0  0  0  0  0  0
   32.3520   27.5770   48.7140 O   0  0  0  0  0  0  0  0  0  0  0  0
  1  2  1  0  0  0  0
  2  3  2  0  0  0  0
  2  9  1  0  0  0  0
  3 10  1  0  0  0  0
  4  5  2  0  0  0  0
  4  3  1  0  0  0  0
  6  7  1  0  0  0  0
  6  4  1  0  0  0  0
  7  1  1  0  0  0  0
  8  7  2  0  0  0  0
 11  6  1  0  0  0  0
 12 18  1  0  0  0  0
 13  1  1  0  0  0  0
 13 12  2  0  0  0  0
 14 15  2  0  0  0  0
 14 13  1  0  0  0  0
 15 16  1  0  0  0  0
 16 17  2  0  0  0  0
 17 12  1  0  0  0  0
 19 14  1  0  0  0  0
 20 16  1  0  0  0  0
 20 22  2  0  0  0  0
 21 20  1  0  0  0  0
M  END
>  <minimizedAffinity>
-4.89884377

>  <minimizedRMSD>
0.468450397

$$$$
