
 OpenBabel03262520293D

 32 34  0  0  1  0  0  0  0  0999 V2000
   38.5520   24.7630   36.4820 C   0  0  1  0  0  0  0  0  0  0  0  0
   38.0560   23.8010   37.1140 N   0  0  0  0  0  0  0  0  0  0  0  0
   37.8400   23.4820   38.3090 C   0  0  0  0  0  0  0  0  0  0  0  0
   38.8380   22.5980   38.3200 N   0  0  0  0  0  0  0  0  0  0  0  0
   39.8260   22.8070   37.4030 C   0  0  0  0  0  0  0  0  0  0  0  0
   40.9150   21.8960   37.4960 C   0  0  0  0  0  0  0  0  0  0  0  0
   41.9220   22.0370   36.6000 C   0  0  0  0  0  0  0  0  0  0  0  0
   41.9650   22.9830   35.6210 C   0  0  0  0  0  0  0  0  0  0  0  0
   40.8550   23.8110   35.6270 C   0  0  0  0  0  0  0  0  0  0  0  0
   39.7070   23.8580   36.4450 C   0  0  0  0  0  0  0  0  0  0  0  0
   38.8540   25.5070   37.3270 H   0  0  0  0  0  0  0  0  0  0  0  0
   37.4630   23.1940   36.4650 H   0  0  0  0  0  0  0  0  0  0  0  0
   37.9520   24.2630   39.1000 H   0  0  0  0  0  0  0  0  0  0  0  0
   36.8510   23.0040   38.5570 H   0  0  0  0  0  0  0  0  0  0  0  0
   38.8090   21.7980   39.0250 H   0  0  0  0  0  0  0  0  0  0  0  0
   41.0030   21.1090   38.2170 H   0  0  0  0  0  0  0  0  0  0  0  0
   42.7740   21.3600   36.6380 H   0  0  0  0  0  0  0  0  0  0  0  0
   42.7150   23.1400   34.9020 H   0  0  0  0  0  0  0  0  0  0  0  0
   40.8430   24.5740   34.8480 H   0  0  0  0  0  0  0  0  0  0  0  0
   39.6210   27.0820   33.7660 C   0  0  0  0  0  0  0  0  0  0  0  0
   38.6050   26.7550   32.8880 C   0  0  0  0  0  0  0  0  0  0  0  0
   37.7300   25.7970   33.3390 C   0  0  0  0  0  0  0  0  0  0  0  0
   37.9310   25.2700   34.5680 N   0  0  0  0  0  0  0  0  0  0  0  0
   38.9260   25.6100   35.3950 C   0  0  0  0  0  0  0  0  0  0  0  0
   39.7250   26.5140   34.9300 N   0  0  0  0  0  0  0  0  0  0  0  0
   36.6630   25.4230   32.4520 N   0  0  0  0  0  0  0  0  0  0  0  0
   40.3690   27.8250   33.5150 H   0  0  0  0  0  0  0  0  0  0  0  0
   35.7410   25.8090   32.7240 H   0  0  0  0  0  0  0  0  0  0  0  0
   36.8370   24.8150   31.6170 H   0  0  0  0  0  0  0  0  0  0  0  0
   38.4870   27.3910   31.5800 C   0  0  0  0  0  0  0  0  0  0  0  0
   39.2060   27.1220   30.8200 H   0  0  0  0  0  0  0  0  0  0  0  0
   37.5500   28.2120   31.4390 O   0  0  0  0  0  0  0  0  0  0  0  0
  1  2  1  0  0  0  0
  1 11  1  1  0  0  0
  2  3  1  0  0  0  0
  3  4  1  0  0  0  0
  3 14  1  0  0  0  0
  3 13  1  0  0  0  0
  4 15  1  0  0  0  0
  5  6  1  0  0  0  0
  5  4  1  0  0  0  0
  6 16  1  0  0  0  0
  7 17  1  0  0  0  0
  7  6  2  0  0  0  0
  8  9  2  0  0  0  0
  8  7  1  0  0  0  0
  9 10  1  0  0  0  0
 10  1  1  0  0  0  0
 10  5  2  0  0  0  0
 12  2  1  0  0  0  0
 18  8  1  0  0  0  0
 19  9  1  0  0  0  0
 20 25  1  0  0  0  0
 21 22  1  0  0  0  0
 21 20  2  0  0  0  0
 22 23  2  0  0  0  0
 23 24  1  0  0  0  0
 24  1  1  0  0  0  0
 25 24  2  0  0  0  0
 26 28  1  0  0  0  0
 26 22  1  0  0  0  0
 27 20  1  0  0  0  0
 29 26  1  0  0  0  0
 30 21  1  0  0  0  0
 31 30  1  0  0  0  0
 32 30  2  0  0  0  0
M  END
>  <minimizedAffinity>
-5.45041704

$$$$

 OpenBabel03262520293D

 32 34  0  0  1  0  0  0  0  0999 V2000
   38.1160   22.8660   36.0170 C   0  0  1  0  0  0  0  0  0  0  0  0
   38.2750   22.5690   37.2250 N   0  0  0  0  0  0  0  0  0  0  0  0
   38.5170   23.1590   38.3060 C   0  0  0  0  0  0  0  0  0  0  0  0
   39.7790   22.7280   38.3330 N   0  0  0  0  0  0  0  0  0  0  0  0
   40.3160   22.3890   37.1260 C   0  0  0  0  0  0  0  0  0  0  0  0
   41.6870   22.0130   37.1800 C   0  0  0  0  0  0  0  0  0  0  0  0
   42.2770   21.6460   36.0160 C   0  0  0  0  0  0  0  0  0  0  0  0
   41.6530   21.6100   34.8060 C   0  0  0  0  0  0  0  0  0  0  0  0
   40.3250   21.9960   34.8760 C   0  0  0  0  0  0  0  0  0  0  0  0
   39.5110   22.4130   35.9480 C   0  0  0  0  0  0  0  0  0  0  0  0
   38.2370   24.0260   36.0130 H   0  0  0  0  0  0  0  0  0  0  0  0
   37.8880   21.5930   37.4230 H   0  0  0  0  0  0  0  0  0  0  0  0
   38.4450   24.2740   38.3360 H   0  0  0  0  0  0  0  0  0  0  0  0
   37.9430   22.8400   39.2210 H   0  0  0  0  0  0  0  0  0  0  0  0
   40.2840   22.6720   39.2720 H   0  0  0  0  0  0  0  0  0  0  0  0
   42.2900   21.9980   38.0640 H   0  0  0  0  0  0  0  0  0  0  0  0
   43.3250   21.3520   36.0140 H   0  0  0  0  0  0  0  0  0  0  0  0
   42.0560   21.3350   33.8750 H   0  0  0  0  0  0  0  0  0  0  0  0
   39.7850   21.9670   33.9290 H   0  0  0  0  0  0  0  0  0  0  0  0
   37.3250   22.7220   32.3770 C   0  0  0  0  0  0  0  0  0  0  0  0
   36.4820   21.6300   32.4550 C   0  0  0  0  0  0  0  0  0  0  0  0
   36.3220   21.1050   33.7140 C   0  0  0  0  0  0  0  0  0  0  0  0
   36.9860   21.6830   34.7410 N   0  0  0  0  0  0  0  0  0  0  0  0
   37.7960   22.7420   34.6310 C   0  0  0  0  0  0  0  0  0  0  0  0
   37.9160   23.2030   33.4290 N   0  0  0  0  0  0  0  0  0  0  0  0
   35.4590   19.9630   33.8370 N   0  0  0  0  0  0  0  0  0  0  0  0
   37.5250   23.2170   31.4340 H   0  0  0  0  0  0  0  0  0  0  0  0
   34.5370   20.1810   34.2560 H   0  0  0  0  0  0  0  0  0  0  0  0
   35.7650   19.0120   33.5210 H   0  0  0  0  0  0  0  0  0  0  0  0
   35.8170   21.0880   31.2750 C   0  0  0  0  0  0  0  0  0  0  0  0
   35.0600   21.6930   30.7980 H   0  0  0  0  0  0  0  0  0  0  0  0
   36.1800   19.9480   30.9010 O   0  0  0  0  0  0  0  0  0  0  0  0
  1 11  1  1  0  0  0
  1  2  1  0  0  0  0
  2 12  1  0  0  0  0
  2  3  1  0  0  0  0
  3  4  1  0  0  0  0
  3 13  1  0  0  0  0
  3 14  1  0  0  0  0
  4 15  1  0  0  0  0
  5  6  1  0  0  0  0
  5  4  1  0  0  0  0
  6 16  1  0  0  0  0
  7  6  2  0  0  0  0
  8  9  2  0  0  0  0
  8  7  1  0  0  0  0
  9 10  1  0  0  0  0
 10  1  1  0  0  0  0
 10  5  2  0  0  0  0
 17  7  1  0  0  0  0
 18  8  1  0  0  0  0
 19  9  1  0  0  0  0
 20 21  2  0  0  0  0
 20 25  1  0  0  0  0
 21 22  1  0  0  0  0
 22 26  1  0  0  0  0
 22 23  2  0  0  0  0
 24 23  1  0  0  0  0
 24  1  1  0  0  0  0
 25 24  2  0  0  0  0
 26 28  1  0  0  0  0
 27 20  1  0  0  0  0
 29 26  1  0  0  0  0
 30 21  1  0  0  0  0
 31 30  1  0  0  0  0
 32 30  2  0  0  0  0
M  END
>  <minimizedAffinity>
-5.41052961

$$$$

 OpenBabel03262520293D

 32 34  0  0  1  0  0  0  0  0999 V2000
   40.0860   22.6860   35.1410 C   0  0  1  0  0  0  0  0  0  0  0  0
   40.8860   22.3960   36.0610 N   0  0  0  0  0  0  0  0  0  0  0  0
   41.1640   21.4030   36.7770 C   0  0  0  0  0  0  0  0  0  0  0  0
   40.5730   21.9320   37.8490 N   0  0  0  0  0  0  0  0  0  0  0  0
   39.6130   22.8660   37.5980 C   0  0  0  0  0  0  0  0  0  0  0  0
   38.9460   23.3490   38.7590 C   0  0  0  0  0  0  0  0  0  0  0  0
   37.9930   24.2950   38.5800 C   0  0  0  0  0  0  0  0  0  0  0  0
   37.6300   24.8150   37.3750 C   0  0  0  0  0  0  0  0  0  0  0  0
   38.3440   24.2720   36.3200 C   0  0  0  0  0  0  0  0  0  0  0  0
   39.3590   23.2960   36.2610 C   0  0  0  0  0  0  0  0  0  0  0  0
   39.4960   21.6930   34.9820 H   0  0  0  0  0  0  0  0  0  0  0  0
   41.6860   23.1030   36.0950 H   0  0  0  0  0  0  0  0  0  0  0  0
   40.7370   20.4080   36.5010 H   0  0  0  0  0  0  0  0  0  0  0  0
   42.2510   21.1750   36.9630 H   0  0  0  0  0  0  0  0  0  0  0  0
   40.8780   21.6030   38.8190 H   0  0  0  0  0  0  0  0  0  0  0  0
   39.1370   23.0240   39.7620 H   0  0  0  0  0  0  0  0  0  0  0  0
   37.4590   24.6900   39.4430 H   0  0  0  0  0  0  0  0  0  0  0  0
   36.9020   25.5470   37.1760 H   0  0  0  0  0  0  0  0  0  0  0  0
   38.0940   24.6740   35.3370 H   0  0  0  0  0  0  0  0  0  0  0  0
   38.5150   24.7250   32.4430 C   0  0  0  0  0  0  0  0  0  0  0  0
   37.5440   23.7990   32.1090 C   0  0  0  0  0  0  0  0  0  0  0  0
   37.5780   22.6310   32.8310 C   0  0  0  0  0  0  0  0  0  0  0  0
   38.5320   22.4890   33.7800 N   0  0  0  0  0  0  0  0  0  0  0  0
   39.4580   23.4060   34.0790 C   0  0  0  0  0  0  0  0  0  0  0  0
   39.3890   24.4880   33.3750 N   0  0  0  0  0  0  0  0  0  0  0  0
   36.5890   21.6400   32.5090 N   0  0  0  0  0  0  0  0  0  0  0  0
   38.5830   25.6810   31.9390 H   0  0  0  0  0  0  0  0  0  0  0  0
   35.8270   21.5690   33.2070 H   0  0  0  0  0  0  0  0  0  0  0  0
   36.6630   21.0590   31.6400 H   0  0  0  0  0  0  0  0  0  0  0  0
   36.5620   24.0620   31.0620 C   0  0  0  0  0  0  0  0  0  0  0  0
   36.9160   24.1370   30.0450 H   0  0  0  0  0  0  0  0  0  0  0  0
   35.3700   24.1810   31.4300 O   0  0  0  0  0  0  0  0  0  0  0  0
  1 11  1  6  0  0  0
  1  2  1  0  0  0  0
  1 10  1  0  0  0  0
  2 12  1  0  0  0  0
  2  3  1  0  0  0  0
  3 14  1  0  0  0  0
  3  4  1  0  0  0  0
  4 15  1  0  0  0  0
  5  4  1  0  0  0  0
  5  6  1  0  0  0  0
  6 16  1  0  0  0  0
  7  6  2  0  0  0  0
  7 17  1  0  0  0  0
  8  7  1  0  0  0  0
  9  8  2  0  0  0  0
 10  9  1  0  0  0  0
 10  5  2  0  0  0  0
 13  3  1  0  0  0  0
 18  8  1  0  0  0  0
 19  9  1  0  0  0  0
 20 25  1  0  0  0  0
 21 20  2  0  0  0  0
 21 22  1  0  0  0  0
 22 23  2  0  0  0  0
 23 24  1  0  0  0  0
 24  1  1  0  0  0  0
 25 24  2  0  0  0  0
 26 22  1  0  0  0  0
 26 28  1  0  0  0  0
 27 20  1  0  0  0  0
 29 26  1  0  0  0  0
 30 32  2  0  0  0  0
 30 21  1  0  0  0  0
 31 30  1  0  0  0  0
M  END
>  <minimizedAffinity>
-5.36181593

$$$$

 OpenBabel03262520293D

 32 34  0  0  1  0  0  0  0  0999 V2000
   38.3790   24.5050   36.4030 C   0  0  1  0  0  0  0  0  0  0  0  0
   38.0800   23.8070   37.4000 N   0  0  0  0  0  0  0  0  0  0  0  0
   38.2130   23.8560   38.6470 C   0  0  0  0  0  0  0  0  0  0  0  0
   39.1690   22.9270   38.6460 N   0  0  0  0  0  0  0  0  0  0  0  0
   39.8540   22.7830   37.4760 C   0  0  0  0  0  0  0  0  0  0  0  0
   40.9210   21.8420   37.5330 C   0  0  0  0  0  0  0  0  0  0  0  0
   41.6300   21.6360   36.3970 C   0  0  0  0  0  0  0  0  0  0  0  0
   41.3960   22.2630   35.2100 C   0  0  0  0  0  0  0  0  0  0  0  0
   40.3370   23.1530   35.2730 C   0  0  0  0  0  0  0  0  0  0  0  0
   39.4720   23.5280   36.3210 C   0  0  0  0  0  0  0  0  0  0  0  0
   38.9130   25.4270   36.8770 H   0  0  0  0  0  0  0  0  0  0  0  0
   37.3230   23.0970   37.1450 H   0  0  0  0  0  0  0  0  0  0  0  0
   38.5500   24.8160   39.1120 H   0  0  0  0  0  0  0  0  0  0  0  0
   37.3340   23.5560   39.2840 H   0  0  0  0  0  0  0  0  0  0  0  0
   39.3390   22.3620   39.5360 H   0  0  0  0  0  0  0  0  0  0  0  0
   41.2080   21.2840   38.4010 H   0  0  0  0  0  0  0  0  0  0  0  0
   42.4550   20.9250   36.3990 H   0  0  0  0  0  0  0  0  0  0  0  0
   41.9100   22.1440   34.3010 H   0  0  0  0  0  0  0  0  0  0  0  0
   40.1070   23.6650   34.3380 H   0  0  0  0  0  0  0  0  0  0  0  0
   38.4280   25.5790   32.8330 C   0  0  0  0  0  0  0  0  0  0  0  0
   39.4740   26.4720   32.9650 C   0  0  0  0  0  0  0  0  0  0  0  0
   39.9890   26.5850   34.2330 C   0  0  0  0  0  0  0  0  0  0  0  0
   39.4440   25.8340   35.2180 N   0  0  0  0  0  0  0  0  0  0  0  0
   38.4300   24.9770   35.0560 C   0  0  0  0  0  0  0  0  0  0  0  0
   37.9770   24.9040   33.8480 N   0  0  0  0  0  0  0  0  0  0  0  0
   41.0740   27.5090   34.4140 N   0  0  0  0  0  0  0  0  0  0  0  0
   37.9450   25.4100   31.8780 H   0  0  0  0  0  0  0  0  0  0  0  0
   41.9980   27.0510   34.5220 H   0  0  0  0  0  0  0  0  0  0  0  0
   40.9110   28.5440   34.4310 H   0  0  0  0  0  0  0  0  0  0  0  0
   39.9820   27.2320   31.8280 C   0  0  0  0  0  0  0  0  0  0  0  0
   39.3390   27.9840   31.3940 H   0  0  0  0  0  0  0  0  0  0  0  0
   41.1390   26.9490   31.4370 O   0  0  0  0  0  0  0  0  0  0  0  0
  1 11  1  1  0  0  0
  1  2  1  0  0  0  0
  2  3  1  0  0  0  0
  3 13  1  0  0  0  0
  3 14  1  0  0  0  0
  4  3  1  0  0  0  0
  4 15  1  0  0  0  0
  5  6  1  0  0  0  0
  5  4  1  0  0  0  0
  6 16  1  0  0  0  0
  7 17  1  0  0  0  0
  7  6  2  0  0  0  0
  8  9  2  0  0  0  0
  8  7  1  0  0  0  0
  9 10  1  0  0  0  0
 10  1  1  0  0  0  0
 10  5  2  0  0  0  0
 12  2  1  0  0  0  0
 18  8  1  0  0  0  0
 19  9  1  0  0  0  0
 20 21  2  0  0  0  0
 20 25  1  0  0  0  0
 21 22  1  0  0  0  0
 22 26  1  0  0  0  0
 22 23  2  0  0  0  0
 24 23  1  0  0  0  0
 24  1  1  0  0  0  0
 25 24  2  0  0  0  0
 26 29  1  0  0  0  0
 26 28  1  0  0  0  0
 27 20  1  0  0  0  0
 30 21  1  0  0  0  0
 31 30  1  0  0  0  0
 32 30  2  0  0  0  0
M  END
>  <minimizedAffinity>
-5.24788284

$$$$

 OpenBabel03262520293D

 32 34  0  0  1  0  0  0  0  0999 V2000
   41.1730   23.1670   35.4380 C   0  0  1  0  0  0  0  0  0  0  0  0
   41.5510   22.6870   36.5320 N   0  0  0  0  0  0  0  0  0  0  0  0
   41.5770   21.5680   37.1010 C   0  0  0  0  0  0  0  0  0  0  0  0
   40.5740   21.8880   37.9180 N   0  0  0  0  0  0  0  0  0  0  0  0
   39.7400   22.8720   37.4760 C   0  0  0  0  0  0  0  0  0  0  0  0
   38.6330   23.1310   38.3330 C   0  0  0  0  0  0  0  0  0  0  0  0
   37.7760   24.1130   37.9610 C   0  0  0  0  0  0  0  0  0  0  0  0
   37.8980   24.8650   36.8320 C   0  0  0  0  0  0  0  0  0  0  0  0
   39.0090   24.5260   36.0790 C   0  0  0  0  0  0  0  0  0  0  0  0
   40.0200   23.5600   36.2580 C   0  0  0  0  0  0  0  0  0  0  0  0
   40.7600   22.2360   34.8700 H   0  0  0  0  0  0  0  0  0  0  0  0
   42.2240   23.3580   37.0210 H   0  0  0  0  0  0  0  0  0  0  0  0
   41.3610   20.6540   36.4950 H   0  0  0  0  0  0  0  0  0  0  0  0
   42.5090   21.2870   37.6680 H   0  0  0  0  0  0  0  0  0  0  0  0
   40.4820   21.3710   38.8470 H   0  0  0  0  0  0  0  0  0  0  0  0
   38.4230   22.6130   39.2460 H   0  0  0  0  0  0  0  0  0  0  0  0
   36.9160   24.3410   38.5890 H   0  0  0  0  0  0  0  0  0  0  0  0
   37.2680   25.6360   36.4940 H   0  0  0  0  0  0  0  0  0  0  0  0
   39.1510   25.1160   35.1730 H   0  0  0  0  0  0  0  0  0  0  0  0
   40.6070   25.4430   32.5400 C   0  0  0  0  0  0  0  0  0  0  0  0
   41.5310   26.3970   32.9230 C   0  0  0  0  0  0  0  0  0  0  0  0
   42.1880   26.1340   34.1000 C   0  0  0  0  0  0  0  0  0  0  0  0
   41.8830   24.9970   34.7660 N   0  0  0  0  0  0  0  0  0  0  0  0
   40.9820   24.0930   34.3670 C   0  0  0  0  0  0  0  0  0  0  0  0
   40.3890   24.3810   33.2550 N   0  0  0  0  0  0  0  0  0  0  0  0
   43.1520   27.1050   34.5370 N   0  0  0  0  0  0  0  0  0  0  0  0
   40.0310   25.5480   31.6290 H   0  0  0  0  0  0  0  0  0  0  0  0
   44.1350   26.8080   34.3980 H   0  0  0  0  0  0  0  0  0  0  0  0
   42.8540   28.0190   34.9530 H   0  0  0  0  0  0  0  0  0  0  0  0
   41.7780   27.5910   32.1220 C   0  0  0  0  0  0  0  0  0  0  0  0
   40.9870   28.3230   32.0490 H   0  0  0  0  0  0  0  0  0  0  0  0
   42.9020   27.6750   31.5730 O   0  0  0  0  0  0  0  0  0  0  0  0
  1 11  1  6  0  0  0
  1 10  1  0  0  0  0
  1  2  1  0  0  0  0
  2 12  1  0  0  0  0
  2  3  1  0  0  0  0
  3 14  1  0  0  0  0
  3  4  1  0  0  0  0
  4 15  1  0  0  0  0
  5  4  1  0  0  0  0
  5  6  1  0  0  0  0
  6 16  1  0  0  0  0
  7  6  2  0  0  0  0
  7 17  1  0  0  0  0
  8  7  1  0  0  0  0
  9 10  1  0  0  0  0
  9  8  2  0  0  0  0
 10  5  2  0  0  0  0
 13  3  1  0  0  0  0
 18  8  1  0  0  0  0
 19  9  1  0  0  0  0
 20 21  2  0  0  0  0
 20 25  1  0  0  0  0
 21 22  1  0  0  0  0
 22 26  1  0  0  0  0
 22 23  2  0  0  0  0
 24 23  1  0  0  0  0
 24  1  1  0  0  0  0
 25 24  2  0  0  0  0
 26 29  1  0  0  0  0
 27 20  1  0  0  0  0
 28 26  1  0  0  0  0
 30 21  1  0  0  0  0
 31 30  1  0  0  0  0
 32 30  2  0  0  0  0
M  END
>  <minimizedAffinity>
-5.21316528

$$$$

 OpenBabel03262520293D

 32 34  0  0  1  0  0  0  0  0999 V2000
   37.9460   24.1260   32.7110 C   0  0  1  0  0  0  0  0  0  0  0  0
   36.9550   24.0210   31.9500 N   0  0  0  0  0  0  0  0  0  0  0  0
   36.7140   24.0750   30.7190 C   0  0  0  0  0  0  0  0  0  0  0  0
   36.1460   25.2770   30.8190 N   0  0  0  0  0  0  0  0  0  0  0  0
   36.5230   26.0250   31.8950 C   0  0  0  0  0  0  0  0  0  0  0  0
   35.9620   27.3330   31.9260 C   0  0  0  0  0  0  0  0  0  0  0  0
   36.2820   28.1210   32.9810 C   0  0  0  0  0  0  0  0  0  0  0  0
   37.0970   27.7530   34.0080 C   0  0  0  0  0  0  0  0  0  0  0  0
   37.5830   26.4630   33.8710 C   0  0  0  0  0  0  0  0  0  0  0  0
   37.3960   25.4760   32.8820 C   0  0  0  0  0  0  0  0  0  0  0  0
   38.8270   24.3150   31.9720 H   0  0  0  0  0  0  0  0  0  0  0  0
   36.1440   23.5440   32.4570 H   0  0  0  0  0  0  0  0  0  0  0  0
   37.5730   24.0660   30.0050 H   0  0  0  0  0  0  0  0  0  0  0  0
   36.0100   23.3100   30.2860 H   0  0  0  0  0  0  0  0  0  0  0  0
   35.4450   25.5780   30.0720 H   0  0  0  0  0  0  0  0  0  0  0  0
   35.3090   27.7430   31.1830 H   0  0  0  0  0  0  0  0  0  0  0  0
   35.8740   29.1290   33.0410 H   0  0  0  0  0  0  0  0  0  0  0  0
   37.3790   28.3180   34.8480 H   0  0  0  0  0  0  0  0  0  0  0  0
   38.2280   26.1240   34.6820 H   0  0  0  0  0  0  0  0  0  0  0  0
   40.1860   24.0570   35.6910 C   0  0  0  0  0  0  0  0  0  0  0  0
   39.3590   23.2740   36.4740 C   0  0  0  0  0  0  0  0  0  0  0  0
   38.1740   22.9050   35.8860 C   0  0  0  0  0  0  0  0  0  0  0  0
   37.9230   23.3270   34.6260 N   0  0  0  0  0  0  0  0  0  0  0  0
   38.7460   24.0850   33.8930 C   0  0  0  0  0  0  0  0  0  0  0  0
   39.8490   24.4080   34.4860 N   0  0  0  0  0  0  0  0  0  0  0  0
   37.2830   22.0970   36.6710 N   0  0  0  0  0  0  0  0  0  0  0  0
   41.1450   24.4060   36.0530 H   0  0  0  0  0  0  0  0  0  0  0  0
   37.2620   21.1010   36.3850 H   0  0  0  0  0  0  0  0  0  0  0  0
   36.7210   22.5090   37.4540 H   0  0  0  0  0  0  0  0  0  0  0  0
   39.7350   22.8790   37.8280 C   0  0  0  0  0  0  0  0  0  0  0  0
   40.5820   22.2190   37.9450 H   0  0  0  0  0  0  0  0  0  0  0  0
   39.0360   23.3400   38.7610 O   0  0  0  0  0  0  0  0  0  0  0  0
  1 11  1  6  0  0  0
  1 10  1  0  0  0  0
  1 24  1  0  0  0  0
  2 12  1  0  0  0  0
  2  1  1  0  0  0  0
  3  4  1  0  0  0  0
  3  2  1  0  0  0  0
  4  5  1  0  0  0  0
  5  6  2  0  0  0  0
  5 10  1  0  0  0  0
  6  7  1  0  0  0  0
  7 17  1  0  0  0  0
  7  8  2  0  0  0  0
  8 18  1  0  0  0  0
  9  8  1  0  0  0  0
  9 19  1  0  0  0  0
 10  9  2  0  0  0  0
 13  3  1  0  0  0  0
 14  3  1  0  0  0  0
 15  4  1  0  0  0  0
 16  6  1  0  0  0  0
 20 27  1  0  0  0  0
 20 21  1  0  0  0  0
 21 30  1  0  0  0  0
 22 21  2  0  0  0  0
 22 26  1  0  0  0  0
 23 22  1  0  0  0  0
 24 25  1  0  0  0  0
 24 23  2  0  0  0  0
 25 20  2  0  0  0  0
 26 29  1  0  0  0  0
 28 26  1  0  0  0  0
 30 31  1  0  0  0  0
 30 32  2  0  0  0  0
M  END
>  <minimizedAffinity>
-5.19669342

$$$$

 OpenBabel03262520293D

 32 34  0  0  1  0  0  0  0  0999 V2000
   38.4930   24.2340   36.1890 C   0  0  1  0  0  0  0  0  0  0  0  0
   38.1610   23.4690   37.1240 N   0  0  0  0  0  0  0  0  0  0  0  0
   38.1310   23.4880   38.3790 C   0  0  0  0  0  0  0  0  0  0  0  0
   39.1870   22.6810   38.4800 N   0  0  0  0  0  0  0  0  0  0  0  0
   40.0260   22.6640   37.4050 C   0  0  0  0  0  0  0  0  0  0  0  0
   41.1860   21.8580   37.5790 C   0  0  0  0  0  0  0  0  0  0  0  0
   42.0510   21.7810   36.5390 C   0  0  0  0  0  0  0  0  0  0  0  0
   41.8910   22.4180   35.3460 C   0  0  0  0  0  0  0  0  0  0  0  0
   40.7300   23.1710   35.2910 C   0  0  0  0  0  0  0  0  0  0  0  0
   39.7000   23.4000   36.2270 C   0  0  0  0  0  0  0  0  0  0  0  0
   38.8450   25.1960   36.7470 H   0  0  0  0  0  0  0  0  0  0  0  0
   37.5370   22.6820   36.7580 H   0  0  0  0  0  0  0  0  0  0  0  0
   38.2840   24.4630   38.9030 H   0  0  0  0  0  0  0  0  0  0  0  0
   37.2230   23.0600   38.8910 H   0  0  0  0  0  0  0  0  0  0  0  0
   39.3140   22.1090   39.3720 H   0  0  0  0  0  0  0  0  0  0  0  0
   41.4290   21.3070   38.4640 H   0  0  0  0  0  0  0  0  0  0  0  0
   42.9510   21.1760   36.6320 H   0  0  0  0  0  0  0  0  0  0  0  0
   42.5250   22.3960   34.5070 H   0  0  0  0  0  0  0  0  0  0  0  0
   40.5560   23.6850   34.3450 H   0  0  0  0  0  0  0  0  0  0  0  0
   38.9560   25.7680   32.8220 C   0  0  0  0  0  0  0  0  0  0  0  0
   38.1630   24.8630   32.1410 C   0  0  0  0  0  0  0  0  0  0  0  0
   37.6090   23.8730   32.9150 C   0  0  0  0  0  0  0  0  0  0  0  0
   37.8800   23.8660   34.2410 N   0  0  0  0  0  0  0  0  0  0  0  0
   38.6530   24.7580   34.8690 C   0  0  0  0  0  0  0  0  0  0  0  0
   39.1520   25.6720   34.1030 N   0  0  0  0  0  0  0  0  0  0  0  0
   36.7840   22.9080   32.2440 N   0  0  0  0  0  0  0  0  0  0  0  0
   39.4420   26.5900   32.3120 H   0  0  0  0  0  0  0  0  0  0  0  0
   35.7700   23.0390   32.4100 H   0  0  0  0  0  0  0  0  0  0  0  0
   37.2020   22.1540   31.6480 H   0  0  0  0  0  0  0  0  0  0  0  0
   37.9410   24.9680   30.7030 C   0  0  0  0  0  0  0  0  0  0  0  0
   37.3940   25.8250   30.3370 H   0  0  0  0  0  0  0  0  0  0  0  0
   38.4060   24.0450   29.9950 O   0  0  0  0  0  0  0  0  0  0  0  0
  1 10  1  0  0  0  0
  1 11  1  1  0  0  0
  1  2  1  0  0  0  0
  2  3  1  0  0  0  0
  3  4  1  0  0  0  0
  3 14  1  0  0  0  0
  3 13  1  0  0  0  0
  4 15  1  0  0  0  0
  5  6  1  0  0  0  0
  5  4  1  0  0  0  0
  6 16  1  0  0  0  0
  7 17  1  0  0  0  0
  7  6  2  0  0  0  0
  8  7  1  0  0  0  0
  9  8  2  0  0  0  0
  9 10  1  0  0  0  0
 10  5  2  0  0  0  0
 12  2  1  0  0  0  0
 18  8  1  0  0  0  0
 19  9  1  0  0  0  0
 20 25  1  0  0  0  0
 21 20  2  0  0  0  0
 21 22  1  0  0  0  0
 22 23  2  0  0  0  0
 23 24  1  0  0  0  0
 24  1  1  0  0  0  0
 25 24  2  0  0  0  0
 26 28  1  0  0  0  0
 26 22  1  0  0  0  0
 27 20  1  0  0  0  0
 29 26  1  0  0  0  0
 30 21  1  0  0  0  0
 31 30  1  0  0  0  0
 32 30  2  0  0  0  0
M  END
>  <minimizedAffinity>
-5.12219381

$$$$

 OpenBabel03262520293D

 32 34  0  0  1  0  0  0  0  0999 V2000
   36.0060   28.3250   32.4380 C   0  0  1  0  0  0  0  0  0  0  0  0
   35.7230   29.5280   32.2260 N   0  0  0  0  0  0  0  0  0  0  0  0
   34.8030   30.1880   31.6850 C   0  0  0  0  0  0  0  0  0  0  0  0
   35.5490   30.4760   30.6190 N   0  0  0  0  0  0  0  0  0  0  0  0
   36.5760   29.6160   30.3630 C   0  0  0  0  0  0  0  0  0  0  0  0
   37.3000   29.9050   29.1720 C   0  0  0  0  0  0  0  0  0  0  0  0
   38.3470   29.0990   28.8710 C   0  0  0  0  0  0  0  0  0  0  0  0
   38.7520   28.0370   29.6220 C   0  0  0  0  0  0  0  0  0  0  0  0
   37.9750   27.8530   30.7540 C   0  0  0  0  0  0  0  0  0  0  0  0
   36.8590   28.5460   31.2640 C   0  0  0  0  0  0  0  0  0  0  0  0
   35.1000   27.7560   31.9750 H   0  0  0  0  0  0  0  0  0  0  0  0
   36.3000   30.1640   32.8610 H   0  0  0  0  0  0  0  0  0  0  0  0
   33.8540   29.6620   31.4140 H   0  0  0  0  0  0  0  0  0  0  0  0
   34.4410   31.1170   32.2100 H   0  0  0  0  0  0  0  0  0  0  0  0
   35.3090   31.3410   30.0410 H   0  0  0  0  0  0  0  0  0  0  0  0
   37.0850   30.7070   28.4970 H   0  0  0  0  0  0  0  0  0  0  0  0
   38.9260   29.2850   27.9680 H   0  0  0  0  0  0  0  0  0  0  0  0
   39.5520   27.3800   29.4390 H   0  0  0  0  0  0  0  0  0  0  0  0
   38.2770   27.0210   31.3910 H   0  0  0  0  0  0  0  0  0  0  0  0
   37.6100   25.1970   33.6790 C   0  0  0  0  0  0  0  0  0  0  0  0
   38.1650   25.7590   34.8130 C   0  0  0  0  0  0  0  0  0  0  0  0
   37.9260   27.1020   34.9760 C   0  0  0  0  0  0  0  0  0  0  0  0
   37.1900   27.7420   34.0390 N   0  0  0  0  0  0  0  0  0  0  0  0
   36.6660   27.1670   32.9510 C   0  0  0  0  0  0  0  0  0  0  0  0
   36.9160   25.9040   32.8380 N   0  0  0  0  0  0  0  0  0  0  0  0
   38.4920   27.7260   36.1390 N   0  0  0  0  0  0  0  0  0  0  0  0
   37.7340   24.1460   33.4490 H   0  0  0  0  0  0  0  0  0  0  0  0
   37.7990   27.9300   36.8810 H   0  0  0  0  0  0  0  0  0  0  0  0
   39.5160   27.9410   36.1980 H   0  0  0  0  0  0  0  0  0  0  0  0
   38.9450   24.9670   35.7580 C   0  0  0  0  0  0  0  0  0  0  0  0
   39.9500   24.6900   35.4760 H   0  0  0  0  0  0  0  0  0  0  0  0
   38.3810   24.6660   36.8360 O   0  0  0  0  0  0  0  0  0  0  0  0
  1 11  1  6  0  0  0
  1 24  1  0  0  0  0
  2  1  1  0  0  0  0
  2 12  1  0  0  0  0
  3 14  1  0  0  0  0
  3  2  1  0  0  0  0
  4  3  1  0  0  0  0
  5  4  1  0  0  0  0
  5 10  1  0  0  0  0
  6  5  2  0  0  0  0
  7  6  1  0  0  0  0
  7  8  2  0  0  0  0
  8  9  1  0  0  0  0
  9 10  2  0  0  0  0
  9 19  1  0  0  0  0
 10  1  1  0  0  0  0
 13  3  1  0  0  0  0
 15  4  1  0  0  0  0
 16  6  1  0  0  0  0
 17  7  1  0  0  0  0
 18  8  1  0  0  0  0
 20 21  1  0  0  0  0
 21 22  2  0  0  0  0
 21 30  1  0  0  0  0
 22 26  1  0  0  0  0
 23 22  1  0  0  0  0
 24 23  2  0  0  0  0
 25 24  1  0  0  0  0
 25 20  2  0  0  0  0
 26 29  1  0  0  0  0
 26 28  1  0  0  0  0
 27 20  1  0  0  0  0
 30 32  2  0  0  0  0
 31 30  1  0  0  0  0
M  END
>  <minimizedAffinity>
-5.05748415

$$$$

 OpenBabel03262520293D

 32 34  0  0  1  0  0  0  0  0999 V2000
   38.0250   25.9310   33.6110 C   0  0  1  0  0  0  0  0  0  0  0  0
   37.5890   26.6930   32.7170 N   0  0  0  0  0  0  0  0  0  0  0  0
   36.6380   27.4980   32.5590 C   0  0  0  0  0  0  0  0  0  0  0  0
   35.9750   26.6590   31.7630 N   0  0  0  0  0  0  0  0  0  0  0  0
   36.2790   25.3370   31.9100 C   0  0  0  0  0  0  0  0  0  0  0  0
   35.4950   24.4630   31.1060 C   0  0  0  0  0  0  0  0  0  0  0  0
   35.7600   23.1370   31.1900 C   0  0  0  0  0  0  0  0  0  0  0  0
   36.7180   22.5840   31.9850 C   0  0  0  0  0  0  0  0  0  0  0  0
   37.4150   23.5280   32.7200 C   0  0  0  0  0  0  0  0  0  0  0  0
   37.3190   24.9330   32.7990 C   0  0  0  0  0  0  0  0  0  0  0  0
   37.2780   26.1010   34.4900 H   0  0  0  0  0  0  0  0  0  0  0  0
   38.3410   26.8730   31.9800 H   0  0  0  0  0  0  0  0  0  0  0  0
   36.0400   27.8020   33.4530 H   0  0  0  0  0  0  0  0  0  0  0  0
   36.8560   28.4790   32.0500 H   0  0  0  0  0  0  0  0  0  0  0  0
   35.2640   27.0570   31.0730 H   0  0  0  0  0  0  0  0  0  0  0  0
   34.7140   24.7690   30.4400 H   0  0  0  0  0  0  0  0  0  0  0  0
   35.1820   22.4340   30.5910 H   0  0  0  0  0  0  0  0  0  0  0  0
   36.9670   21.5690   32.0910 H   0  0  0  0  0  0  0  0  0  0  0  0
   38.2020   23.1270   33.3590 H   0  0  0  0  0  0  0  0  0  0  0  0
   40.3440   23.5430   35.2900 C   0  0  0  0  0  0  0  0  0  0  0  0
   39.6540   23.4880   36.4860 C   0  0  0  0  0  0  0  0  0  0  0  0
   38.5270   24.2710   36.5470 C   0  0  0  0  0  0  0  0  0  0  0  0
   38.1990   25.0100   35.4620 N   0  0  0  0  0  0  0  0  0  0  0  0
   38.8890   25.0400   34.3180 C   0  0  0  0  0  0  0  0  0  0  0  0
   39.9410   24.2880   34.3050 N   0  0  0  0  0  0  0  0  0  0  0  0
   37.7850   24.2480   37.7760 N   0  0  0  0  0  0  0  0  0  0  0  0
   41.2470   22.9660   35.1300 H   0  0  0  0  0  0  0  0  0  0  0  0
   36.9060   23.7030   37.7220 H   0  0  0  0  0  0  0  0  0  0  0  0
   38.1310   24.7470   38.6310 H   0  0  0  0  0  0  0  0  0  0  0  0
   40.1040   22.6510   37.5930 C   0  0  0  0  0  0  0  0  0  0  0  0
   39.8090   22.9340   38.5930 H   0  0  0  0  0  0  0  0  0  0  0  0
   40.8090   21.6580   37.2950 O   0  0  0  0  0  0  0  0  0  0  0  0
  1 24  1  0  0  0  0
  1 11  1  1  0  0  0
  2  1  1  0  0  0  0
  3  2  1  0  0  0  0
  3 13  1  0  0  0  0
  4  5  1  0  0  0  0
  4  3  1  0  0  0  0
  5 10  1  0  0  0  0
  6  7  1  0  0  0  0
  6  5  2  0  0  0  0
  7  8  2  0  0  0  0
  8 18  1  0  0  0  0
  8  9  1  0  0  0  0
  9 10  2  0  0  0  0
  9 19  1  0  0  0  0
 10  1  1  0  0  0  0
 12  2  1  0  0  0  0
 14  3  1  0  0  0  0
 15  4  1  0  0  0  0
 16  6  1  0  0  0  0
 17  7  1  0  0  0  0
 20 21  1  0  0  0  0
 21 22  2  0  0  0  0
 21 30  1  0  0  0  0
 22 26  1  0  0  0  0
 23 22  1  0  0  0  0
 24 23  2  0  0  0  0
 25 24  1  0  0  0  0
 25 20  2  0  0  0  0
 26 29  1  0  0  0  0
 27 20  1  0  0  0  0
 28 26  1  0  0  0  0
 30 31  1  0  0  0  0
 32 30  2  0  0  0  0
M  END
>  <minimizedAffinity>
-5.05266047

$$$$
