
 OpenBabel03272506523D

 28 29  0  0  1  0  0  0  0  0999 V2000
   39.1910   26.7140   35.2610 C   0  0  1  0  0  0  0  0  0  0  0  0
   39.7130   26.9820   33.9230 C   0  0  0  0  0  0  0  0  0  0  0  0
   38.7130   27.1030   32.8060 C   0  0  0  0  0  0  0  0  0  0  0  0
   37.4300   27.7570   33.1530 C   0  0  2  0  0  0  0  0  0  0  0  0
   36.8910   27.5280   34.5240 C   0  0  0  0  0  0  0  0  0  0  0  0
   37.9600   27.5170   35.5660 C   0  0  0  0  0  0  0  0  0  0  0  0
   39.9470   27.0970   36.0170 H   0  0  0  0  0  0  0  0  0  0  0  0
   40.5300   26.3770   33.5460 H   0  0  0  0  0  0  0  0  0  0  0  0
   40.1650   28.0270   33.9700 H   0  0  0  0  0  0  0  0  0  0  0  0
   39.1920   27.6550   31.9710 H   0  0  0  0  0  0  0  0  0  0  0  0
   38.5000   26.0720   32.4200 H   0  0  0  0  0  0  0  0  0  0  0  0
   37.5390   28.8470   32.9710 H   0  0  0  0  0  0  0  0  0  0  0  0
   36.2440   26.6220   34.5410 H   0  0  0  0  0  0  0  0  0  0  0  0
   36.2370   28.4080   34.7800 H   0  0  0  0  0  0  0  0  0  0  0  0
   37.5120   27.3910   36.5380 H   0  0  0  0  0  0  0  0  0  0  0  0
   38.3410   28.5900   35.5780 H   0  0  0  0  0  0  0  0  0  0  0  0
   38.1450   24.8530   36.6130 C   0  0  0  0  0  0  0  0  0  0  0  0
   39.0700   25.2840   35.6510 C   0  0  0  0  0  0  0  0  0  0  0  0
   39.8800   24.3270   35.0730 C   0  0  0  0  0  0  0  0  0  0  0  0
   39.7540   23.0270   35.4510 N   0  0  0  0  0  0  0  0  0  0  0  0
   38.8450   22.6500   36.3870 C   0  0  0  0  0  0  0  0  0  0  0  0
   38.0370   23.5750   36.9700 N   0  0  0  0  0  0  0  0  0  0  0  0
   37.4750   25.5340   37.1140 H   0  0  0  0  0  0  0  0  0  0  0  0
   40.6190   24.5030   34.3350 H   0  0  0  0  0  0  0  0  0  0  0  0
   38.7230   21.6230   36.7070 H   0  0  0  0  0  0  0  0  0  0  0  0
   36.3730   27.2610   32.2120 C   0  0  0  0  0  0  0  0  0  0  0  0
   36.3970   26.3330   31.6650 H   0  0  0  0  0  0  0  0  0  0  0  0
   35.3300   27.8720   31.9460 O   0  0  0  0  0  0  0  0  0  0  0  0
  1  6  1  0  0  0  0
  1 18  1  0  0  0  0
  1  7  1  1  0  0  0
  2  9  1  0  0  0  0
  2  1  1  0  0  0  0
  3  4  1  0  0  0  0
  3  2  1  0  0  0  0
  4 12  1  6  0  0  0
  4  5  1  0  0  0  0
  5 13  1  0  0  0  0
  5 14  1  0  0  0  0
  5  6  1  0  0  0  0
  6 16  1  0  0  0  0
  6 15  1  0  0  0  0
  8  2  1  0  0  0  0
 10  3  1  0  0  0  0
 11  3  1  0  0  0  0
 17 22  1  0  0  0  0
 17 23  1  0  0  0  0
 18 17  2  0  0  0  0
 19 20  2  0  0  0  0
 19 18  1  0  0  0  0
 20 21  1  0  0  0  0
 21 25  1  0  0  0  0
 21 22  2  0  0  0  0
 24 19  1  0  0  0  0
 26  4  1  0  0  0  0
 27 26  1  0  0  0  0
 28 26  2  0  0  0  0
M  END
>  <minimizedAffinity>
-4.2802372

$$$$

 OpenBabel03272506523D

 28 29  0  0  1  0  0  0  0  0999 V2000
   37.3200   27.3360   32.4310 C   0  0  1  0  0  0  0  0  0  0  0  0
   36.6050   28.1160   33.4380 C   0  0  0  0  0  0  0  0  0  0  0  0
   36.9320   27.8410   34.8800 C   0  0  0  0  0  0  0  0  0  0  0  0
   38.3490   27.5300   35.1750 C   0  0  2  0  0  0  0  0  0  0  0  0
   39.1130   26.7640   34.1500 C   0  0  0  0  0  0  0  0  0  0  0  0
   38.7770   27.1810   32.7550 C   0  0  0  0  0  0  0  0  0  0  0  0
   37.3290   27.9330   31.4650 H   0  0  0  0  0  0  0  0  0  0  0  0
   35.5260   28.1960   33.3730 H   0  0  0  0  0  0  0  0  0  0  0  0
   36.9530   29.1920   33.3020 H   0  0  0  0  0  0  0  0  0  0  0  0
   36.6160   28.7190   35.4800 H   0  0  0  0  0  0  0  0  0  0  0  0
   36.2950   26.9830   35.2220 H   0  0  0  0  0  0  0  0  0  0  0  0
   38.8720   28.4850   35.3960 H   0  0  0  0  0  0  0  0  0  0  0  0
   39.0090   25.6700   34.3250 H   0  0  0  0  0  0  0  0  0  0  0  0
   40.2030   27.0190   34.2800 H   0  0  0  0  0  0  0  0  0  0  0  0
   39.3860   26.6280   32.0600 H   0  0  0  0  0  0  0  0  0  0  0  0
   39.1780   28.2440   32.6840 H   0  0  0  0  0  0  0  0  0  0  0  0
   37.1710   24.8130   32.3880 C   0  0  0  0  0  0  0  0  0  0  0  0
   36.6780   26.0660   31.9960 C   0  0  0  0  0  0  0  0  0  0  0  0
   35.5660   26.0860   31.1780 C   0  0  0  0  0  0  0  0  0  0  0  0
   35.0010   24.9120   30.7900 N   0  0  0  0  0  0  0  0  0  0  0  0
   35.5080   23.7180   31.1910 C   0  0  0  0  0  0  0  0  0  0  0  0
   36.6030   23.6740   31.9970 N   0  0  0  0  0  0  0  0  0  0  0  0
   38.0340   24.7070   33.0250 H   0  0  0  0  0  0  0  0  0  0  0  0
   35.0840   26.9530   30.8060 H   0  0  0  0  0  0  0  0  0  0  0  0
   35.0790   22.7690   30.8980 H   0  0  0  0  0  0  0  0  0  0  0  0
   38.4050   26.7040   36.4260 C   0  0  0  0  0  0  0  0  0  0  0  0
   38.6930   27.0540   37.4040 H   0  0  0  0  0  0  0  0  0  0  0  0
   38.1230   25.5000   36.4830 O   0  0  0  0  0  0  0  0  0  0  0  0
  1  7  1  6  0  0  0
  1  6  1  0  0  0  0
  1  2  1  0  0  0  0
  2  3  1  0  0  0  0
  3  4  1  0  0  0  0
  3 11  1  0  0  0  0
  3 10  1  0  0  0  0
  4 12  1  1  0  0  0
  4 26  1  0  0  0  0
  5 14  1  0  0  0  0
  5 13  1  0  0  0  0
  5  4  1  0  0  0  0
  6  5  1  0  0  0  0
  8  2  1  0  0  0  0
  9  2  1  0  0  0  0
 15  6  1  0  0  0  0
 16  6  1  0  0  0  0
 17 23  1  0  0  0  0
 18 17  2  0  0  0  0
 18  1  1  0  0  0  0
 19 18  1  0  0  0  0
 20 19  2  0  0  0  0
 20 21  1  0  0  0  0
 21 22  2  0  0  0  0
 22 17  1  0  0  0  0
 24 19  1  0  0  0  0
 25 21  1  0  0  0  0
 26 28  2  0  0  0  0
 26 27  1  0  0  0  0
M  END
>  <minimizedAffinity>
-4.20353031

$$$$

 OpenBabel03272506523D

 28 29  0  0  1  0  0  0  0  0999 V2000
   39.2220   27.0000   34.8300 C   0  0  1  0  0  0  0  0  0  0  0  0
   38.4330   26.8400   36.0500 C   0  0  0  0  0  0  0  0  0  0  0  0
   38.0630   25.4380   36.4490 C   0  0  0  0  0  0  0  0  0  0  0  0
   39.0840   24.3990   36.1870 C   0  0  2  0  0  0  0  0  0  0  0  0
   39.9260   24.5550   34.9680 C   0  0  0  0  0  0  0  0  0  0  0  0
   40.3120   25.9760   34.7160 C   0  0  0  0  0  0  0  0  0  0  0  0
   39.7910   27.9800   34.9060 H   0  0  0  0  0  0  0  0  0  0  0  0
   37.5460   27.4480   36.1850 H   0  0  0  0  0  0  0  0  0  0  0  0
   39.1090   27.1750   36.9030 H   0  0  0  0  0  0  0  0  0  0  0  0
   37.8110   25.4420   37.5300 H   0  0  0  0  0  0  0  0  0  0  0  0
   37.1190   25.1630   35.9090 H   0  0  0  0  0  0  0  0  0  0  0  0
   39.7340   24.3210   37.0840 H   0  0  0  0  0  0  0  0  0  0  0  0
   39.4410   24.0630   34.0940 H   0  0  0  0  0  0  0  0  0  0  0  0
   40.8960   24.0140   35.1560 H   0  0  0  0  0  0  0  0  0  0  0  0
   40.9530   26.0250   33.8500 H   0  0  0  0  0  0  0  0  0  0  0  0
   41.0050   26.2280   35.5830 H   0  0  0  0  0  0  0  0  0  0  0  0
   37.0780   27.4300   33.5620 C   0  0  0  0  0  0  0  0  0  0  0  0
   38.4600   27.1890   33.5670 C   0  0  0  0  0  0  0  0  0  0  0  0
   39.0990   27.1260   32.3450 C   0  0  0  0  0  0  0  0  0  0  0  0
   38.3790   27.2970   31.2040 N   0  0  0  0  0  0  0  0  0  0  0  0
   37.0420   27.5290   31.2420 C   0  0  0  0  0  0  0  0  0  0  0  0
   36.3900   27.5940   32.4350 N   0  0  0  0  0  0  0  0  0  0  0  0
   36.5020   27.4940   34.4720 H   0  0  0  0  0  0  0  0  0  0  0  0
   40.1330   26.9540   32.1930 H   0  0  0  0  0  0  0  0  0  0  0  0
   36.4440   27.6680   30.3510 H   0  0  0  0  0  0  0  0  0  0  0  0
   38.3900   23.0770   36.0370 C   0  0  0  0  0  0  0  0  0  0  0  0
   38.6970   22.2710   35.3900 H   0  0  0  0  0  0  0  0  0  0  0  0
   37.3650   22.7510   36.6480 O   0  0  0  0  0  0  0  0  0  0  0  0
  1  7  1  1  0  0  0
  1  2  1  0  0  0  0
  2  8  1  0  0  0  0
  2  3  1  0  0  0  0
  2  9  1  0  0  0  0
  3 10  1  0  0  0  0
  4  3  1  0  0  0  0
  4 12  1  1  0  0  0
  5 14  1  0  0  0  0
  5  4  1  0  0  0  0
  6  1  1  0  0  0  0
  6  5  1  0  0  0  0
  6 16  1  0  0  0  0
 11  3  1  0  0  0  0
 13  5  1  0  0  0  0
 15  6  1  0  0  0  0
 17 18  1  0  0  0  0
 17 23  1  0  0  0  0
 18  1  1  0  0  0  0
 19 18  2  0  0  0  0
 20 21  2  0  0  0  0
 20 19  1  0  0  0  0
 21 22  1  0  0  0  0
 22 17  2  0  0  0  0
 24 19  1  0  0  0  0
 25 21  1  0  0  0  0
 26  4  1  0  0  0  0
 26 28  2  0  0  0  0
 27 26  1  0  0  0  0
M  END
>  <minimizedAffinity>
-3.97928572

$$$$

 OpenBabel03272506523D

 28 29  0  0  1  0  0  0  0  0999 V2000
   39.2140   26.7800   35.3040 C   0  0  1  0  0  0  0  0  0  0  0  0
   40.0650   27.0590   34.1490 C   0  0  0  0  0  0  0  0  0  0  0  0
   39.4410   26.9250   32.7880 C   0  0  0  0  0  0  0  0  0  0  0  0
   38.0260   27.3490   32.6780 C   0  0  2  0  0  0  0  0  0  0  0  0
   37.1440   27.1070   33.8550 C   0  0  0  0  0  0  0  0  0  0  0  0
   37.8370   27.3580   35.1530 C   0  0  0  0  0  0  0  0  0  0  0  0
   39.6370   27.3420   36.1960 H   0  0  0  0  0  0  0  0  0  0  0  0
   41.0430   26.5940   34.0920 H   0  0  0  0  0  0  0  0  0  0  0  0
   40.3100   28.1700   34.2050 H   0  0  0  0  0  0  0  0  0  0  0  0
   40.0540   27.5040   32.0670 H   0  0  0  0  0  0  0  0  0  0  0  0
   39.5210   25.8500   32.4750 H   0  0  0  0  0  0  0  0  0  0  0  0
   38.0100   28.4270   32.4130 H   0  0  0  0  0  0  0  0  0  0  0  0
   36.6740   26.1000   33.7880 H   0  0  0  0  0  0  0  0  0  0  0  0
   36.3110   27.8650   33.8130 H   0  0  0  0  0  0  0  0  0  0  0  0
   37.1440   27.2100   35.9640 H   0  0  0  0  0  0  0  0  0  0  0  0
   38.0210   28.4810   35.1520 H   0  0  0  0  0  0  0  0  0  0  0  0
   40.1300   24.4250   35.3430 C   0  0  0  0  0  0  0  0  0  0  0  0
   39.2100   25.3790   35.8020 C   0  0  0  0  0  0  0  0  0  0  0  0
   38.2840   24.9690   36.7410 C   0  0  0  0  0  0  0  0  0  0  0  0
   38.2980   23.6810   37.1760 N   0  0  0  0  0  0  0  0  0  0  0  0
   39.2060   22.7880   36.7070 C   0  0  0  0  0  0  0  0  0  0  0  0
   40.1280   23.1690   35.7820 N   0  0  0  0  0  0  0  0  0  0  0  0
   40.8870   24.6610   34.6110 H   0  0  0  0  0  0  0  0  0  0  0  0
   37.5330   25.5760   37.1770 H   0  0  0  0  0  0  0  0  0  0  0  0
   39.2410   21.7570   37.0360 H   0  0  0  0  0  0  0  0  0  0  0  0
   37.3940   26.6100   31.5360 C   0  0  0  0  0  0  0  0  0  0  0  0
   36.4550   26.8520   31.0670 H   0  0  0  0  0  0  0  0  0  0  0  0
   37.8870   25.6150   30.9880 O   0  0  0  0  0  0  0  0  0  0  0  0
  1 18  1  0  0  0  0
  1  7  1  1  0  0  0
  2  9  1  0  0  0  0
  2  1  1  0  0  0  0
  3  2  1  0  0  0  0
  4 12  1  6  0  0  0
  4  3  1  0  0  0  0
  4  5  1  0  0  0  0
  5  6  1  0  0  0  0
  6  1  1  0  0  0  0
  6 15  1  0  0  0  0
  8  2  1  0  0  0  0
 10  3  1  0  0  0  0
 11  3  1  0  0  0  0
 13  5  1  0  0  0  0
 14  5  1  0  0  0  0
 16  6  1  0  0  0  0
 17 22  2  0  0  0  0
 17 18  1  0  0  0  0
 18 19  2  0  0  0  0
 19 20  1  0  0  0  0
 19 24  1  0  0  0  0
 21 25  1  0  0  0  0
 21 20  2  0  0  0  0
 22 21  1  0  0  0  0
 23 17  1  0  0  0  0
 26  4  1  0  0  0  0
 27 26  1  0  0  0  0
 28 26  2  0  0  0  0
M  END
>  <minimizedAffinity>
-3.97353864

$$$$

 OpenBabel03272506523D

 28 29  0  0  1  0  0  0  0  0999 V2000
   38.6930   26.4640   35.6010 C   0  0  1  0  0  0  0  0  0  0  0  0
   39.7900   27.0000   34.7990 C   0  0  0  0  0  0  0  0  0  0  0  0
   39.5750   27.0860   33.3130 C   0  0  0  0  0  0  0  0  0  0  0  0
   38.2060   27.4430   32.8750 C   0  0  2  0  0  0  0  0  0  0  0  0
   37.0690   26.9380   33.6950 C   0  0  0  0  0  0  0  0  0  0  0  0
   37.3550   26.9810   35.1610 C   0  0  0  0  0  0  0  0  0  0  0  0
   38.7960   26.8730   36.6560 H   0  0  0  0  0  0  0  0  0  0  0  0
   40.7900   26.6100   34.9480 H   0  0  0  0  0  0  0  0  0  0  0  0
   39.8910   28.0940   35.1020 H   0  0  0  0  0  0  0  0  0  0  0  0
   40.2960   27.8230   32.9020 H   0  0  0  0  0  0  0  0  0  0  0  0
   39.8510   26.0950   32.8660 H   0  0  0  0  0  0  0  0  0  0  0  0
   38.1470   28.5490   32.7960 H   0  0  0  0  0  0  0  0  0  0  0  0
   36.7450   25.9350   33.3350 H   0  0  0  0  0  0  0  0  0  0  0  0
   36.2030   27.6420   33.5420 H   0  0  0  0  0  0  0  0  0  0  0  0
   36.4870   26.6460   35.7050 H   0  0  0  0  0  0  0  0  0  0  0  0
   37.4110   28.0940   35.3950 H   0  0  0  0  0  0  0  0  0  0  0  0
   37.7110   24.3620   36.6050 C   0  0  0  0  0  0  0  0  0  0  0  0
   38.7030   24.9960   35.8430 C   0  0  0  0  0  0  0  0  0  0  0  0
   39.7080   24.2060   35.3220 C   0  0  0  0  0  0  0  0  0  0  0  0
   39.6990   22.8670   35.5620 N   0  0  0  0  0  0  0  0  0  0  0  0
   38.7190   22.2910   36.3050 C   0  0  0  0  0  0  0  0  0  0  0  0
   37.7190   23.0500   36.8290 N   0  0  0  0  0  0  0  0  0  0  0  0
   36.8910   24.9040   37.0480 H   0  0  0  0  0  0  0  0  0  0  0  0
   40.5190   24.5430   34.7290 H   0  0  0  0  0  0  0  0  0  0  0  0
   38.6860   21.2290   36.5120 H   0  0  0  0  0  0  0  0  0  0  0  0
   37.9890   26.8950   31.4960 C   0  0  0  0  0  0  0  0  0  0  0  0
   37.3300   27.3050   30.7480 H   0  0  0  0  0  0  0  0  0  0  0  0
   38.5510   25.8870   31.0470 O   0  0  0  0  0  0  0  0  0  0  0  0
  1 18  1  0  0  0  0
  1  7  1  1  0  0  0
  2  8  1  0  0  0  0
  2  9  1  0  0  0  0
  2  1  1  0  0  0  0
  3  2  1  0  0  0  0
  4 12  1  6  0  0  0
  4  3  1  0  0  0  0
  4  5  1  0  0  0  0
  5  6  1  0  0  0  0
  6 16  1  0  0  0  0
  6  1  1  0  0  0  0
  6 15  1  0  0  0  0
 10  3  1  0  0  0  0
 11  3  1  0  0  0  0
 13  5  1  0  0  0  0
 14  5  1  0  0  0  0
 17 22  1  0  0  0  0
 17 23  1  0  0  0  0
 18 17  2  0  0  0  0
 19 20  2  0  0  0  0
 19 18  1  0  0  0  0
 20 21  1  0  0  0  0
 21 25  1  0  0  0  0
 21 22  2  0  0  0  0
 24 19  1  0  0  0  0
 26  4  1  0  0  0  0
 27 26  1  0  0  0  0
 28 26  2  0  0  0  0
M  END
>  <minimizedAffinity>
-3.92926645

$$$$

 OpenBabel03272506523D

 28 29  0  0  1  0  0  0  0  0999 V2000
   38.6410   25.8430   33.4110 C   0  0  1  0  0  0  0  0  0  0  0  0
   38.5860   26.7640   34.5440 C   0  0  0  0  0  0  0  0  0  0  0  0
   38.1440   26.2010   35.8660 C   0  0  0  0  0  0  0  0  0  0  0  0
   38.5890   24.8200   36.1640 C   0  0  2  0  0  0  0  0  0  0  0  0
   38.6870   23.8680   35.0210 C   0  0  0  0  0  0  0  0  0  0  0  0
   39.2230   24.5110   33.7840 C   0  0  0  0  0  0  0  0  0  0  0  0
   39.3890   26.2530   32.6600 H   0  0  0  0  0  0  0  0  0  0  0  0
   38.0800   27.7150   34.4240 H   0  0  0  0  0  0  0  0  0  0  0  0
   39.6650   27.0690   34.7480 H   0  0  0  0  0  0  0  0  0  0  0  0
   38.4980   26.8810   36.6680 H   0  0  0  0  0  0  0  0  0  0  0  0
   37.0240   26.2340   35.8990 H   0  0  0  0  0  0  0  0  0  0  0  0
   39.5670   24.8780   36.6870 H   0  0  0  0  0  0  0  0  0  0  0  0
   37.7160   23.3450   34.8660 H   0  0  0  0  0  0  0  0  0  0  0  0
   39.4460   23.0830   35.2990 H   0  0  0  0  0  0  0  0  0  0  0  0
   39.3120   23.7710   33.0060 H   0  0  0  0  0  0  0  0  0  0  0  0
   40.3010   24.7580   34.0500 H   0  0  0  0  0  0  0  0  0  0  0  0
   36.9280   24.4990   32.1290 C   0  0  0  0  0  0  0  0  0  0  0  0
   37.4100   25.7340   32.5840 C   0  0  0  0  0  0  0  0  0  0  0  0
   36.6990   26.8640   32.2300 C   0  0  0  0  0  0  0  0  0  0  0  0
   35.5790   26.7390   31.4690 N   0  0  0  0  0  0  0  0  0  0  0  0
   35.1450   25.5230   31.0490 C   0  0  0  0  0  0  0  0  0  0  0  0
   35.8290   24.3960   31.3840 N   0  0  0  0  0  0  0  0  0  0  0  0
   37.4220   23.5680   32.3580 H   0  0  0  0  0  0  0  0  0  0  0  0
   36.9400   27.8590   32.5020 H   0  0  0  0  0  0  0  0  0  0  0  0
   34.2580   25.3940   30.4420 H   0  0  0  0  0  0  0  0  0  0  0  0
   37.6170   24.2030   37.1250 C   0  0  0  0  0  0  0  0  0  0  0  0
   36.7350   23.6410   36.8620 H   0  0  0  0  0  0  0  0  0  0  0  0
   37.7140   24.2690   38.3580 O   0  0  0  0  0  0  0  0  0  0  0  0
  1  7  1  6  0  0  0
  1  6  1  0  0  0  0
  1  2  1  0  0  0  0
  2  9  1  0  0  0  0
  2  3  1  0  0  0  0
  3 11  1  0  0  0  0
  3  4  1  0  0  0  0
  3 10  1  0  0  0  0
  4 12  1  1  0  0  0
  4 26  1  0  0  0  0
  5 14  1  0  0  0  0
  5  4  1  0  0  0  0
  6 16  1  0  0  0  0
  6  5  1  0  0  0  0
  8  2  1  0  0  0  0
 13  5  1  0  0  0  0
 15  6  1  0  0  0  0
 17 23  1  0  0  0  0
 17 18  1  0  0  0  0
 18  1  1  0  0  0  0
 19 24  1  0  0  0  0
 19 18  2  0  0  0  0
 20 19  1  0  0  0  0
 21 22  1  0  0  0  0
 21 20  2  0  0  0  0
 22 17  2  0  0  0  0
 25 21  1  0  0  0  0
 26 28  2  0  0  0  0
 27 26  1  0  0  0  0
M  END
>  <minimizedAffinity>
-3.92879343

$$$$

 OpenBabel03272506523D

 28 29  0  0  1  0  0  0  0  0999 V2000
   37.3720   27.4520   32.4060 C   0  0  1  0  0  0  0  0  0  0  0  0
   37.0460   28.6380   31.6170 C   0  0  0  0  0  0  0  0  0  0  0  0
   35.8880   29.4770   32.0840 C   0  0  0  0  0  0  0  0  0  0  0  0
   35.7270   29.5990   33.5510 C   0  0  2  0  0  0  0  0  0  0  0  0
   36.0840   28.4160   34.3830 C   0  0  0  0  0  0  0  0  0  0  0  0
   37.3020   27.7100   33.8820 C   0  0  0  0  0  0  0  0  0  0  0  0
   38.4680   27.2070   32.2350 H   0  0  0  0  0  0  0  0  0  0  0  0
   36.9500   28.5440   30.5410 H   0  0  0  0  0  0  0  0  0  0  0  0
   37.9320   29.3440   31.7370 H   0  0  0  0  0  0  0  0  0  0  0  0
   35.9930   30.4880   31.6400 H   0  0  0  0  0  0  0  0  0  0  0  0
   34.9500   29.0410   31.6520 H   0  0  0  0  0  0  0  0  0  0  0  0
   36.3080   30.4840   33.8880 H   0  0  0  0  0  0  0  0  0  0  0  0
   35.2020   27.7470   34.5080 H   0  0  0  0  0  0  0  0  0  0  0  0
   36.3610   28.7940   35.4070 H   0  0  0  0  0  0  0  0  0  0  0  0
   37.5380   26.8920   34.5430 H   0  0  0  0  0  0  0  0  0  0  0  0
   38.1420   28.4560   34.0610 H   0  0  0  0  0  0  0  0  0  0  0  0
   37.1670   24.9340   32.4440 C   0  0  0  0  0  0  0  0  0  0  0  0
   36.7110   26.1830   32.0000 C   0  0  0  0  0  0  0  0  0  0  0  0
   35.6170   26.1990   31.1580 C   0  0  0  0  0  0  0  0  0  0  0  0
   35.0330   25.0260   30.7970 N   0  0  0  0  0  0  0  0  0  0  0  0
   35.5050   23.8350   31.2490 C   0  0  0  0  0  0  0  0  0  0  0  0
   36.5820   23.7950   32.0790 N   0  0  0  0  0  0  0  0  0  0  0  0
   38.0140   24.8310   33.1030 H   0  0  0  0  0  0  0  0  0  0  0  0
   35.1630   27.0640   30.7470 H   0  0  0  0  0  0  0  0  0  0  0  0
   35.0610   22.8860   30.9780 H   0  0  0  0  0  0  0  0  0  0  0  0
   34.2850   29.8860   33.8480 C   0  0  0  0  0  0  0  0  0  0  0  0
   33.5970   30.4090   33.2040 H   0  0  0  0  0  0  0  0  0  0  0  0
   33.7040   29.5500   34.8890 O   0  0  0  0  0  0  0  0  0  0  0  0
  1  7  1  6  0  0  0
  1  6  1  0  0  0  0
  2  9  1  0  0  0  0
  2  3  1  0  0  0  0
  2  1  1  0  0  0  0
  3  4  1  0  0  0  0
  4 26  1  0  0  0  0
  4 12  1  1  0  0  0
  4  5  1  0  0  0  0
  5 13  1  0  0  0  0
  5 14  1  0  0  0  0
  6 16  1  0  0  0  0
  6  5  1  0  0  0  0
  6 15  1  0  0  0  0
  8  2  1  0  0  0  0
 10  3  1  0  0  0  0
 11  3  1  0  0  0  0
 17 23  1  0  0  0  0
 18  1  1  0  0  0  0
 18 17  2  0  0  0  0
 19 18  1  0  0  0  0
 20 19  2  0  0  0  0
 20 21  1  0  0  0  0
 21 22  2  0  0  0  0
 22 17  1  0  0  0  0
 24 19  1  0  0  0  0
 25 21  1  0  0  0  0
 26 28  2  0  0  0  0
 27 26  1  0  0  0  0
M  END
>  <minimizedAffinity>
-3.91144109

$$$$

 OpenBabel03272506523D

 28 29  0  0  1  0  0  0  0  0999 V2000
   38.7590   22.6830   35.9720 C   0  0  1  0  0  0  0  0  0  0  0  0
   39.7410   23.3410   35.1130 C   0  0  0  0  0  0  0  0  0  0  0  0
   39.4750   24.7730   34.7380 C   0  0  0  0  0  0  0  0  0  0  0  0
   38.8510   25.6120   35.7860 C   0  0  2  0  0  0  0  0  0  0  0  0
   37.8710   24.9580   36.6980 C   0  0  0  0  0  0  0  0  0  0  0  0
   38.2790   23.5730   37.0800 C   0  0  0  0  0  0  0  0  0  0  0  0
   39.2840   21.8390   36.5230 H   0  0  0  0  0  0  0  0  0  0  0  0
   40.0730   22.8380   34.2120 H   0  0  0  0  0  0  0  0  0  0  0  0
   40.6940   23.4170   35.7330 H   0  0  0  0  0  0  0  0  0  0  0  0
   40.4340   25.2320   34.4220 H   0  0  0  0  0  0  0  0  0  0  0  0
   38.8140   24.7750   33.8320 H   0  0  0  0  0  0  0  0  0  0  0  0
   39.6640   26.0780   36.3830 H   0  0  0  0  0  0  0  0  0  0  0  0
   36.8440   25.0170   36.2720 H   0  0  0  0  0  0  0  0  0  0  0  0
   37.8650   25.5410   37.6620 H   0  0  0  0  0  0  0  0  0  0  0  0
   37.5600   23.1650   37.7710 H   0  0  0  0  0  0  0  0  0  0  0  0
   39.2100   23.7290   37.7160 H   0  0  0  0  0  0  0  0  0  0  0  0
   36.5610   21.4360   35.9850 C   0  0  0  0  0  0  0  0  0  0  0  0
   37.6580   21.9560   35.2840 C   0  0  0  0  0  0  0  0  0  0  0  0
   37.6890   21.7660   33.9170 C   0  0  0  0  0  0  0  0  0  0  0  0
   36.6730   21.0940   33.3120 N   0  0  0  0  0  0  0  0  0  0  0  0
   35.6270   20.6050   34.0270 C   0  0  0  0  0  0  0  0  0  0  0  0
   35.5760   20.7800   35.3750 N   0  0  0  0  0  0  0  0  0  0  0  0
   36.4590   21.5400   37.0540 H   0  0  0  0  0  0  0  0  0  0  0  0
   38.4490   22.1030   33.2600 H   0  0  0  0  0  0  0  0  0  0  0  0
   34.8050   20.0670   33.5730 H   0  0  0  0  0  0  0  0  0  0  0  0
   38.1040   26.7300   35.1200 C   0  0  0  0  0  0  0  0  0  0  0  0
   37.6710   26.7020   34.1330 H   0  0  0  0  0  0  0  0  0  0  0  0
   37.8950   27.8360   35.6340 O   0  0  0  0  0  0  0  0  0  0  0  0
  1  7  1  1  0  0  0
  1  6  1  0  0  0  0
  2  9  1  0  0  0  0
  2  1  1  0  0  0  0
  3  2  1  0  0  0  0
  3  4  1  0  0  0  0
  4 12  1  1  0  0  0
  4  5  1  0  0  0  0
  5  6  1  0  0  0  0
  5 14  1  0  0  0  0
  6 16  1  0  0  0  0
  6 15  1  0  0  0  0
  8  2  1  0  0  0  0
 10  3  1  0  0  0  0
 11  3  1  0  0  0  0
 13  5  1  0  0  0  0
 17 23  1  0  0  0  0
 18  1  1  0  0  0  0
 18 17  2  0  0  0  0
 19 18  1  0  0  0  0
 20 19  2  0  0  0  0
 20 21  1  0  0  0  0
 21 22  2  0  0  0  0
 22 17  1  0  0  0  0
 24 19  1  0  0  0  0
 25 21  1  0  0  0  0
 26 28  2  0  0  0  0
 26  4  1  0  0  0  0
 27 26  1  0  0  0  0
M  END
>  <minimizedAffinity>
-3.87706614

$$$$

 OpenBabel03272506523D

 28 29  0  0  1  0  0  0  0  0999 V2000
   37.2840   26.9600   32.8900 C   0  0  1  0  0  0  0  0  0  0  0  0
   37.3310   27.1150   34.3420 C   0  0  0  0  0  0  0  0  0  0  0  0
   38.6170   26.7480   35.0300 C   0  0  0  0  0  0  0  0  0  0  0  0
   39.8610   27.0690   34.2940 C   0  0  2  0  0  0  0  0  0  0  0  0
   39.8310   26.9530   32.8090 C   0  0  0  0  0  0  0  0  0  0  0  0
   38.5430   27.4300   32.2220 C   0  0  0  0  0  0  0  0  0  0  0  0
   36.4940   27.6700   32.4860 H   0  0  0  0  0  0  0  0  0  0  0  0
   36.5270   26.7040   34.9410 H   0  0  0  0  0  0  0  0  0  0  0  0
   37.2530   28.2350   34.5370 H   0  0  0  0  0  0  0  0  0  0  0  0
   38.6350   27.2490   36.0200 H   0  0  0  0  0  0  0  0  0  0  0  0
   38.5940   25.6460   35.2380 H   0  0  0  0  0  0  0  0  0  0  0  0
   40.1760   28.0950   34.5830 H   0  0  0  0  0  0  0  0  0  0  0  0
   40.1080   25.9210   32.4940 H   0  0  0  0  0  0  0  0  0  0  0  0
   40.6180   27.6470   32.4000 H   0  0  0  0  0  0  0  0  0  0  0  0
   38.5920   27.3630   31.1480 H   0  0  0  0  0  0  0  0  0  0  0  0
   38.5490   28.5500   32.4270 H   0  0  0  0  0  0  0  0  0  0  0  0
   37.3730   24.4360   32.7910 C   0  0  0  0  0  0  0  0  0  0  0  0
   36.8030   25.6490   32.3780 C   0  0  0  0  0  0  0  0  0  0  0  0
   35.7700   25.5880   31.4640 C   0  0  0  0  0  0  0  0  0  0  0  0
   35.3520   24.3780   31.0070 N   0  0  0  0  0  0  0  0  0  0  0  0
   35.9310   23.2250   31.4320 C   0  0  0  0  0  0  0  0  0  0  0  0
   36.9500   23.2610   32.3320 N   0  0  0  0  0  0  0  0  0  0  0  0
   38.1840   24.3940   33.5020 H   0  0  0  0  0  0  0  0  0  0  0  0
   35.2440   26.4170   31.0650 H   0  0  0  0  0  0  0  0  0  0  0  0
   35.6190   22.2480   31.0860 H   0  0  0  0  0  0  0  0  0  0  0  0
   40.9410   26.1360   34.7550 C   0  0  0  0  0  0  0  0  0  0  0  0
   41.8650   26.4220   35.2310 H   0  0  0  0  0  0  0  0  0  0  0  0
   40.8990   24.9040   34.6380 O   0  0  0  0  0  0  0  0  0  0  0  0
  1  7  1  6  0  0  0
  1  2  1  0  0  0  0
  2  9  1  0  0  0  0
  2  8  1  0  0  0  0
  2  3  1  0  0  0  0
  3 11  1  0  0  0  0
  3 10  1  0  0  0  0
  4 12  1  1  0  0  0
  4 26  1  0  0  0  0
  4  3  1  0  0  0  0
  5  4  1  0  0  0  0
  6 16  1  0  0  0  0
  6  5  1  0  0  0  0
  6  1  1  0  0  0  0
 13  5  1  0  0  0  0
 14  5  1  0  0  0  0
 15  6  1  0  0  0  0
 17 23  1  0  0  0  0
 18 17  1  0  0  0  0
 18  1  1  0  0  0  0
 19 18  2  0  0  0  0
 20 21  2  0  0  0  0
 20 19  1  0  0  0  0
 21 22  1  0  0  0  0
 22 17  2  0  0  0  0
 24 19  1  0  0  0  0
 25 21  1  0  0  0  0
 26 27  1  0  0  0  0
 28 26  2  0  0  0  0
M  END
>  <minimizedAffinity>
-3.8735044

$$$$
