
 OpenBabel03262523213D

 35 37  0  0  1  0  0  0  0  0999 V2000
   31.2100   29.0390   33.6360 C   0  0  0  0  0  0  0  0  0  0  0  0
   30.7710   28.0690   34.5320 C   0  0  0  0  0  0  0  0  0  0  0  0
   31.3410   28.0320   35.7970 C   0  0  0  0  0  0  0  0  0  0  0  0
   32.3000   28.9380   36.1110 N   0  0  0  0  0  0  0  0  0  0  0  0
   32.7160   29.8510   35.2740 C   0  0  0  0  0  0  0  0  0  0  0  0
   32.1440   29.8380   34.1010 N   0  0  0  0  0  0  0  0  0  0  0  0
   33.7110   30.7790   35.6420 N   0  0  0  0  0  0  0  0  0  0  0  0
   33.5570   31.6850   36.7870 C   0  0  0  0  0  0  0  0  0  0  0  0
   34.8420   32.3850   36.8990 C   0  0  0  0  0  0  0  0  0  0  0  0
   35.8100   31.5510   36.0570 C   0  0  0  0  0  0  0  0  0  0  0  0
   34.9900   31.0480   34.9700 C   0  0  1  0  0  0  0  0  0  0  0  0
   30.7560   29.0520   32.6620 H   0  0  0  0  0  0  0  0  0  0  0  0
   30.0270   27.3350   34.3420 H   0  0  0  0  0  0  0  0  0  0  0  0
   31.0250   27.2910   36.5240 H   0  0  0  0  0  0  0  0  0  0  0  0
   32.7560   32.3950   36.4910 H   0  0  0  0  0  0  0  0  0  0  0  0
   33.1970   31.1460   37.6830 H   0  0  0  0  0  0  0  0  0  0  0  0
   34.7510   33.4410   36.5130 H   0  0  0  0  0  0  0  0  0  0  0  0
   35.1420   32.5030   37.9420 H   0  0  0  0  0  0  0  0  0  0  0  0
   36.5560   32.2850   35.8630 H   0  0  0  0  0  0  0  0  0  0  0  0
   35.9200   30.7480   36.8040 H   0  0  0  0  0  0  0  0  0  0  0  0
   34.6090   31.8490   34.2620 H   0  0  0  0  0  0  0  0  0  0  0  0
   35.6750   30.0490   32.7480 C   0  0  0  0  0  0  0  0  0  0  0  0
   35.5350   30.0050   34.1470 C   0  0  0  0  0  0  0  0  0  0  0  0
   36.0910   28.8520   34.6820 C   0  0  0  0  0  0  0  0  0  0  0  0
   36.7210   27.8570   33.9540 C   0  0  0  0  0  0  0  0  0  0  0  0
   36.8170   27.9890   32.5540 C   0  0  0  0  0  0  0  0  0  0  0  0
   36.2830   29.1070   31.9420 C   0  0  0  0  0  0  0  0  0  0  0  0
   36.0680   28.4970   35.6820 H   0  0  0  0  0  0  0  0  0  0  0  0
   37.1720   26.9560   34.2810 H   0  0  0  0  0  0  0  0  0  0  0  0
   37.2880   27.2680   31.9030 H   0  0  0  0  0  0  0  0  0  0  0  0
   36.3730   29.2580   30.5000 C   0  0  0  0  0  0  0  0  0  0  0  0
   36.1170   30.2060   30.0480 H   0  0  0  0  0  0  0  0  0  0  0  0
   36.7450   28.3000   29.7760 O   0  0  0  0  0  0  0  0  0  0  0  0
   34.5270   31.9930   31.5180 N   0  0  0  0  0  0  0  0  0  0  0  0
   35.0370   31.1390   32.0490 C   0  0  0  0  0  0  0  0  0  0  0  0
  1  6  2  0  0  0  0
  1  2  1  0  0  0  0
  2  3  2  0  0  0  0
  3  4  1  0  0  0  0
  3 14  1  0  0  0  0
  5  7  1  0  0  0  0
  5  4  2  0  0  0  0
  6  5  1  0  0  0  0
  7  8  1  0  0  0  0
  8  9  1  0  0  0  0
  8 16  1  0  0  0  0
  9 18  1  0  0  0  0
 10 20  1  0  0  0  0
 10  9  1  0  0  0  0
 11 21  1  6  0  0  0
 11  7  1  0  0  0  0
 11 10  1  0  0  0  0
 12  1  1  0  0  0  0
 13  2  1  0  0  0  0
 15  8  1  0  0  0  0
 17  9  1  0  0  0  0
 19 10  1  0  0  0  0
 22 23  1  0  0  0  0
 23 24  2  0  0  0  0
 23 11  1  0  0  0  0
 24 28  1  0  0  0  0
 25 29  1  0  0  0  0
 25 24  1  0  0  0  0
 26 25  2  0  0  0  0
 27 26  1  0  0  0  0
 27 22  2  0  0  0  0
 30 26  1  0  0  0  0
 31 27  1  0  0  0  0
 32 31  1  0  0  0  0
 33 31  2  0  0  0  0
 34 35  3  0  0  0  0
 35 22  1  0  0  0  0
M  END
>  <minimizedAffinity>
-5.3330121

$$$$

 OpenBabel03262523213D

 35 37  0  0  1  0  0  0  0  0999 V2000
   40.1730   27.1230   33.5730 C   0  0  0  0  0  0  0  0  0  0  0  0
   40.0360   26.8040   34.9200 C   0  0  0  0  0  0  0  0  0  0  0  0
   38.8930   26.1290   35.3270 C   0  0  0  0  0  0  0  0  0  0  0  0
   37.9560   25.8090   34.4000 N   0  0  0  0  0  0  0  0  0  0  0  0
   38.0780   26.1060   33.1340 C   0  0  0  0  0  0  0  0  0  0  0  0
   39.1740   26.7390   32.8100 N   0  0  0  0  0  0  0  0  0  0  0  0
   37.0840   25.7490   32.2020 N   0  0  0  0  0  0  0  0  0  0  0  0
   36.6680   24.3570   31.9890 C   0  0  0  0  0  0  0  0  0  0  0  0
   35.5460   24.4310   31.0450 C   0  0  0  0  0  0  0  0  0  0  0  0
   35.1140   25.8980   31.0740 C   0  0  0  0  0  0  0  0  0  0  0  0
   36.3520   26.6280   31.2790 C   0  0  1  0  0  0  0  0  0  0  0  0
   41.0650   27.6440   33.2770 H   0  0  0  0  0  0  0  0  0  0  0  0
   40.7340   27.0290   35.6880 H   0  0  0  0  0  0  0  0  0  0  0  0
   38.7510   25.8620   36.3690 H   0  0  0  0  0  0  0  0  0  0  0  0
   37.5400   23.8620   31.5130 H   0  0  0  0  0  0  0  0  0  0  0  0
   36.4860   23.8390   32.9480 H   0  0  0  0  0  0  0  0  0  0  0  0
   35.8760   24.1100   30.0160 H   0  0  0  0  0  0  0  0  0  0  0  0
   34.7560   23.7260   31.3090 H   0  0  0  0  0  0  0  0  0  0  0  0
   34.6130   25.9550   30.1370 H   0  0  0  0  0  0  0  0  0  0  0  0
   34.5940   25.8260   32.0440 H   0  0  0  0  0  0  0  0  0  0  0  0
   37.0830   26.5610   30.4140 H   0  0  0  0  0  0  0  0  0  0  0  0
   36.5820   29.1000   30.7840 C   0  0  0  0  0  0  0  0  0  0  0  0
   36.2610   28.0190   31.6250 C   0  0  0  0  0  0  0  0  0  0  0  0
   35.7280   28.4490   32.8320 C   0  0  0  0  0  0  0  0  0  0  0  0
   35.5200   29.7710   33.1870 C   0  0  0  0  0  0  0  0  0  0  0  0
   35.8700   30.7870   32.2770 C   0  0  0  0  0  0  0  0  0  0  0  0
   36.4120   30.4430   31.0530 C   0  0  0  0  0  0  0  0  0  0  0  0
   35.4720   27.8830   33.6930 H   0  0  0  0  0  0  0  0  0  0  0  0
   35.1180   30.1820   34.0770 H   0  0  0  0  0  0  0  0  0  0  0  0
   35.7460   31.8440   32.4630 H   0  0  0  0  0  0  0  0  0  0  0  0
   36.7790   31.4790   30.1030 C   0  0  0  0  0  0  0  0  0  0  0  0
   36.2420   31.5590   29.1700 H   0  0  0  0  0  0  0  0  0  0  0  0
   37.7140   32.2810   30.3580 O   0  0  0  0  0  0  0  0  0  0  0  0
   37.7890   28.5800   28.5740 N   0  0  0  0  0  0  0  0  0  0  0  0
   37.2530   28.8000   29.5420 C   0  0  0  0  0  0  0  0  0  0  0  0
  1  2  1  0  0  0  0
  2  3  2  0  0  0  0
  2 13  1  0  0  0  0
  3 14  1  0  0  0  0
  4  3  1  0  0  0  0
  5  4  2  0  0  0  0
  6  5  1  0  0  0  0
  6  1  2  0  0  0  0
  7  5  1  0  0  0  0
  8  7  1  0  0  0  0
  8 16  1  0  0  0  0
  9 10  1  0  0  0  0
  9 18  1  0  0  0  0
  9  8  1  0  0  0  0
 10 11  1  0  0  0  0
 10 20  1  0  0  0  0
 11 21  1  6  0  0  0
 11 23  1  0  0  0  0
 11  7  1  0  0  0  0
 12  1  1  0  0  0  0
 15  8  1  0  0  0  0
 17  9  1  0  0  0  0
 19 10  1  0  0  0  0
 22 27  2  0  0  0  0
 22 23  1  0  0  0  0
 23 24  2  0  0  0  0
 24 25  1  0  0  0  0
 24 28  1  0  0  0  0
 25 29  1  0  0  0  0
 26 30  1  0  0  0  0
 26 25  2  0  0  0  0
 27 26  1  0  0  0  0
 31 33  2  0  0  0  0
 31 27  1  0  0  0  0
 32 31  1  0  0  0  0
 34 35  3  0  0  0  0
 35 22  1  0  0  0  0
M  END
>  <minimizedAffinity>
-5.0245676

$$$$

 OpenBabel03262523213D

 35 37  0  0  1  0  0  0  0  0999 V2000
   37.8890   23.1230   36.5530 C   0  0  0  0  0  0  0  0  0  0  0  0
   37.6860   22.0920   35.6420 C   0  0  0  0  0  0  0  0  0  0  0  0
   38.5150   22.0190   34.5310 C   0  0  0  0  0  0  0  0  0  0  0  0
   39.4850   22.9540   34.3740 N   0  0  0  0  0  0  0  0  0  0  0  0
   39.6800   23.9250   35.2250 C   0  0  0  0  0  0  0  0  0  0  0  0
   38.8720   23.9410   36.2510 N   0  0  0  0  0  0  0  0  0  0  0  0
   40.7040   24.8730   35.0290 N   0  0  0  0  0  0  0  0  0  0  0  0
   42.1170   24.4910   34.9120 C   0  0  0  0  0  0  0  0  0  0  0  0
   42.8270   25.7370   34.5970 C   0  0  0  0  0  0  0  0  0  0  0  0
   41.7290   26.7040   34.1510 C   0  0  0  0  0  0  0  0  0  0  0  0
   40.5820   26.3360   34.9620 C   0  0  1  0  0  0  0  0  0  0  0  0
   37.2380   23.1620   37.4080 H   0  0  0  0  0  0  0  0  0  0  0  0
   36.9440   21.3340   35.7120 H   0  0  0  0  0  0  0  0  0  0  0  0
   38.3880   21.2290   33.7980 H   0  0  0  0  0  0  0  0  0  0  0  0
   42.4050   24.1280   35.9200 H   0  0  0  0  0  0  0  0  0  0  0  0
   42.2500   23.6450   34.2130 H   0  0  0  0  0  0  0  0  0  0  0  0
   43.3790   26.1160   35.5040 H   0  0  0  0  0  0  0  0  0  0  0  0
   43.6090   25.5720   33.8530 H   0  0  0  0  0  0  0  0  0  0  0  0
   42.2250   27.6290   34.3230 H   0  0  0  0  0  0  0  0  0  0  0  0
   41.6020   26.2530   33.1530 H   0  0  0  0  0  0  0  0  0  0  0  0
   40.7100   26.5370   36.0710 H   0  0  0  0  0  0  0  0  0  0  0  0
   38.6620   26.7070   33.3550 C   0  0  0  0  0  0  0  0  0  0  0  0
   39.3020   26.8750   34.5960 C   0  0  0  0  0  0  0  0  0  0  0  0
   38.4960   27.5510   35.5010 C   0  0  0  0  0  0  0  0  0  0  0  0
   37.2140   28.0070   35.2440 C   0  0  0  0  0  0  0  0  0  0  0  0
   36.6540   27.7900   33.9700 C   0  0  0  0  0  0  0  0  0  0  0  0
   37.3940   27.1280   33.0090 C   0  0  0  0  0  0  0  0  0  0  0  0
   38.7280   27.8980   36.4770 H   0  0  0  0  0  0  0  0  0  0  0  0
   36.5360   28.5220   35.8730 H   0  0  0  0  0  0  0  0  0  0  0  0
   35.6640   28.1080   33.6750 H   0  0  0  0  0  0  0  0  0  0  0  0
   36.8310   26.8970   31.6890 C   0  0  0  0  0  0  0  0  0  0  0  0
   36.6220   25.8860   31.3710 H   0  0  0  0  0  0  0  0  0  0  0  0
   36.5840   27.8590   30.9190 O   0  0  0  0  0  0  0  0  0  0  0  0
   40.0490   25.6750   31.4520 N   0  0  0  0  0  0  0  0  0  0  0  0
   39.4320   26.1220   32.2830 C   0  0  0  0  0  0  0  0  0  0  0  0
  1 12  1  0  0  0  0
  2 13  1  0  0  0  0
  2  1  2  0  0  0  0
  3  2  1  0  0  0  0
  4  3  2  0  0  0  0
  4  5  1  0  0  0  0
  5  6  2  0  0  0  0
  6  1  1  0  0  0  0
  7  5  1  0  0  0  0
  8  7  1  0  0  0  0
  8 15  1  0  0  0  0
  9  8  1  0  0  0  0
  9 17  1  0  0  0  0
 10 19  1  0  0  0  0
 10  9  1  0  0  0  0
 10 11  1  0  0  0  0
 11  7  1  0  0  0  0
 11 21  1  1  0  0  0
 14  3  1  0  0  0  0
 16  8  1  0  0  0  0
 18  9  1  0  0  0  0
 20 10  1  0  0  0  0
 22 23  1  0  0  0  0
 23 11  1  0  0  0  0
 23 24  2  0  0  0  0
 24 28  1  0  0  0  0
 25 24  1  0  0  0  0
 25 29  1  0  0  0  0
 26 25  2  0  0  0  0
 27 22  2  0  0  0  0
 27 26  1  0  0  0  0
 30 26  1  0  0  0  0
 31 27  1  0  0  0  0
 32 31  1  0  0  0  0
 33 31  2  0  0  0  0
 34 35  3  0  0  0  0
 35 22  1  0  0  0  0
M  END
>  <minimizedAffinity>
-4.99663401

$$$$

 OpenBabel03262523213D

 35 37  0  0  1  0  0  0  0  0999 V2000
   35.6480   29.8100   32.6960 C   0  0  0  0  0  0  0  0  0  0  0  0
   36.1350   30.4570   31.5650 C   0  0  0  0  0  0  0  0  0  0  0  0
   36.5740   29.6840   30.4990 C   0  0  0  0  0  0  0  0  0  0  0  0
   36.5140   28.3330   30.6010 N   0  0  0  0  0  0  0  0  0  0  0  0
   36.0580   27.7190   31.6600 C   0  0  0  0  0  0  0  0  0  0  0  0
   35.6580   28.4980   32.6290 N   0  0  0  0  0  0  0  0  0  0  0  0
   36.0060   26.3130   31.7220 N   0  0  0  0  0  0  0  0  0  0  0  0
   35.2550   25.5090   30.7490 C   0  0  0  0  0  0  0  0  0  0  0  0
   35.5550   24.1130   31.0900 C   0  0  0  0  0  0  0  0  0  0  0  0
   36.7870   24.1940   31.9930 C   0  0  0  0  0  0  0  0  0  0  0  0
   36.6040   25.4290   32.7330 C   0  0  1  0  0  0  0  0  0  0  0  0
   35.3120   30.4250   33.5110 H   0  0  0  0  0  0  0  0  0  0  0  0
   36.2070   31.5090   31.4300 H   0  0  0  0  0  0  0  0  0  0  0  0
   36.9600   30.1520   29.5990 H   0  0  0  0  0  0  0  0  0  0  0  0
   34.1860   25.7340   30.9500 H   0  0  0  0  0  0  0  0  0  0  0  0
   35.4630   25.8310   29.7130 H   0  0  0  0  0  0  0  0  0  0  0  0
   34.6780   23.6390   31.6160 H   0  0  0  0  0  0  0  0  0  0  0  0
   35.6950   23.5060   30.1940 H   0  0  0  0  0  0  0  0  0  0  0  0
   36.7030   23.2580   32.4930 H   0  0  0  0  0  0  0  0  0  0  0  0
   37.4960   24.3880   31.1720 H   0  0  0  0  0  0  0  0  0  0  0  0
   35.7230   25.4200   33.4480 H   0  0  0  0  0  0  0  0  0  0  0  0
   38.9560   26.3430   32.9300 C   0  0  0  0  0  0  0  0  0  0  0  0
   37.7230   25.9390   33.4750 C   0  0  0  0  0  0  0  0  0  0  0  0
   37.6590   26.1880   34.8380 C   0  0  0  0  0  0  0  0  0  0  0  0
   38.6630   26.7700   35.5930 C   0  0  0  0  0  0  0  0  0  0  0  0
   39.8640   27.1460   34.9590 C   0  0  0  0  0  0  0  0  0  0  0  0
   40.0110   26.9270   33.6030 C   0  0  0  0  0  0  0  0  0  0  0  0
   36.9030   25.9200   35.5340 H   0  0  0  0  0  0  0  0  0  0  0  0
   38.6930   26.9980   36.6260 H   0  0  0  0  0  0  0  0  0  0  0  0
   40.7030   27.6050   35.4620 H   0  0  0  0  0  0  0  0  0  0  0  0
   41.2440   27.3090   32.9340 C   0  0  0  0  0  0  0  0  0  0  0  0
   41.2260   27.5410   31.8800 H   0  0  0  0  0  0  0  0  0  0  0  0
   42.3260   27.3700   33.5710 O   0  0  0  0  0  0  0  0  0  0  0  0
   39.3840   25.7810   30.4580 N   0  0  0  0  0  0  0  0  0  0  0  0
   39.2040   26.0350   31.5420 C   0  0  0  0  0  0  0  0  0  0  0  0
  1 12  1  0  0  0  0
  2  1  2  0  0  0  0
  3  4  2  0  0  0  0
  3  2  1  0  0  0  0
  4  5  1  0  0  0  0
  5  7  1  0  0  0  0
  5  6  2  0  0  0  0
  6  1  1  0  0  0  0
  7 11  1  0  0  0  0
  8 15  1  0  0  0  0
  8  9  1  0  0  0  0
  8  7  1  0  0  0  0
  9 17  1  0  0  0  0
  9 10  1  0  0  0  0
 10 19  1  0  0  0  0
 10 11  1  0  0  0  0
 11 21  1  1  0  0  0
 11 23  1  0  0  0  0
 13  2  1  0  0  0  0
 14  3  1  0  0  0  0
 16  8  1  0  0  0  0
 18  9  1  0  0  0  0
 20 10  1  0  0  0  0
 22 23  2  0  0  0  0
 22 27  1  0  0  0  0
 23 24  1  0  0  0  0
 24 28  1  0  0  0  0
 24 25  2  0  0  0  0
 25 29  1  0  0  0  0
 26 30  1  0  0  0  0
 26 25  1  0  0  0  0
 27 26  2  0  0  0  0
 31 33  2  0  0  0  0
 31 27  1  0  0  0  0
 32 31  1  0  0  0  0
 34 35  3  0  0  0  0
 35 22  1  0  0  0  0
M  END
>  <minimizedAffinity>
-4.99011278

$$$$

 OpenBabel03262523213D

 35 37  0  0  1  0  0  0  0  0999 V2000
   36.2460   23.9950   31.5480 C   0  0  0  0  0  0  0  0  0  0  0  0
   35.2340   24.8780   31.1850 C   0  0  0  0  0  0  0  0  0  0  0  0
   35.5600   26.2120   30.9850 C   0  0  0  0  0  0  0  0  0  0  0  0
   36.8480   26.6040   31.1520 N   0  0  0  0  0  0  0  0  0  0  0  0
   37.8030   25.7810   31.4930 C   0  0  0  0  0  0  0  0  0  0  0  0
   37.4360   24.5390   31.6650 N   0  0  0  0  0  0  0  0  0  0  0  0
   39.1290   26.2270   31.6500 N   0  0  0  0  0  0  0  0  0  0  0  0
   39.8740   26.8780   30.5640 C   0  0  0  0  0  0  0  0  0  0  0  0
   41.1470   27.2920   31.1660 C   0  0  0  0  0  0  0  0  0  0  0  0
   40.9040   27.2150   32.6740 C   0  0  0  0  0  0  0  0  0  0  0  0
   39.9960   26.0930   32.8300 C   0  0  1  0  0  0  0  0  0  0  0  0
   35.9740   22.9660   31.6970 H   0  0  0  0  0  0  0  0  0  0  0  0
   34.2110   24.6290   31.0410 H   0  0  0  0  0  0  0  0  0  0  0  0
   34.7980   26.9310   30.7000 H   0  0  0  0  0  0  0  0  0  0  0  0
   40.0450   26.0810   29.8100 H   0  0  0  0  0  0  0  0  0  0  0  0
   39.2700   27.6630   30.0740 H   0  0  0  0  0  0  0  0  0  0  0  0
   41.9800   26.6050   30.8380 H   0  0  0  0  0  0  0  0  0  0  0  0
   41.4540   28.2780   30.8110 H   0  0  0  0  0  0  0  0  0  0  0  0
   41.9100   27.1340   33.0130 H   0  0  0  0  0  0  0  0  0  0  0  0
   40.3140   28.1440   32.7240 H   0  0  0  0  0  0  0  0  0  0  0  0
   40.4450   25.0870   32.5580 H   0  0  0  0  0  0  0  0  0  0  0  0
   39.2510   24.7130   34.8160 C   0  0  0  0  0  0  0  0  0  0  0  0
   39.3550   25.9210   34.1030 C   0  0  0  0  0  0  0  0  0  0  0  0
   38.8470   26.9900   34.8280 C   0  0  0  0  0  0  0  0  0  0  0  0
   38.3080   26.9070   36.1010 C   0  0  0  0  0  0  0  0  0  0  0  0
   38.2490   25.6530   36.7380 C   0  0  0  0  0  0  0  0  0  0  0  0
   38.7290   24.5360   36.0810 C   0  0  0  0  0  0  0  0  0  0  0  0
   38.7080   27.9990   34.5280 H   0  0  0  0  0  0  0  0  0  0  0  0
   37.9070   27.6660   36.7200 H   0  0  0  0  0  0  0  0  0  0  0  0
   37.8470   25.4880   37.7280 H   0  0  0  0  0  0  0  0  0  0  0  0
   38.6750   23.2340   36.7260 C   0  0  0  0  0  0  0  0  0  0  0  0
   38.0600   22.4560   36.2980 H   0  0  0  0  0  0  0  0  0  0  0  0
   39.3350   23.0080   37.7710 O   0  0  0  0  0  0  0  0  0  0  0  0
   39.9300   22.5630   33.5810 N   0  0  0  0  0  0  0  0  0  0  0  0
   39.6350   23.5010   34.1320 C   0  0  0  0  0  0  0  0  0  0  0  0
  1  6  1  0  0  0  0
  1 12  1  0  0  0  0
  2  1  2  0  0  0  0
  3  4  2  0  0  0  0
  3  2  1  0  0  0  0
  4  5  1  0  0  0  0
  5  7  1  0  0  0  0
  5  6  2  0  0  0  0
  7 11  1  0  0  0  0
  8  9  1  0  0  0  0
  8  7  1  0  0  0  0
  9 10  1  0  0  0  0
 10 20  1  0  0  0  0
 10 11  1  0  0  0  0
 10 19  1  0  0  0  0
 11 21  1  6  0  0  0
 11 23  1  0  0  0  0
 13  2  1  0  0  0  0
 14  3  1  0  0  0  0
 15  8  1  0  0  0  0
 16  8  1  0  0  0  0
 17  9  1  0  0  0  0
 18  9  1  0  0  0  0
 22 27  1  0  0  0  0
 23 22  2  0  0  0  0
 23 24  1  0  0  0  0
 24 25  2  0  0  0  0
 25 29  1  0  0  0  0
 25 26  1  0  0  0  0
 26 30  1  0  0  0  0
 27 31  1  0  0  0  0
 27 26  2  0  0  0  0
 28 24  1  0  0  0  0
 31 33  2  0  0  0  0
 32 31  1  0  0  0  0
 34 35  3  0  0  0  0
 35 22  1  0  0  0  0
M  END
>  <minimizedAffinity>
-4.93087387

$$$$

 OpenBabel03262523213D

 35 37  0  0  1  0  0  0  0  0999 V2000
   35.9340   23.9090   31.3360 C   0  0  0  0  0  0  0  0  0  0  0  0
   36.6300   22.7130   31.1970 C   0  0  0  0  0  0  0  0  0  0  0  0
   37.7310   22.4900   32.0120 C   0  0  0  0  0  0  0  0  0  0  0  0
   38.0860   23.4430   32.9090 N   0  0  0  0  0  0  0  0  0  0  0  0
   37.4370   24.5690   33.0450 C   0  0  0  0  0  0  0  0  0  0  0  0
   36.4110   24.7220   32.2530 N   0  0  0  0  0  0  0  0  0  0  0  0
   37.8360   25.5300   33.9940 N   0  0  0  0  0  0  0  0  0  0  0  0
   37.9190   25.2310   35.4300 C   0  0  0  0  0  0  0  0  0  0  0  0
   38.4800   26.4410   36.0420 C   0  0  0  0  0  0  0  0  0  0  0  0
   39.0680   27.2290   34.8710 C   0  0  0  0  0  0  0  0  0  0  0  0
   38.1720   26.9430   33.7650 C   0  0  1  0  0  0  0  0  0  0  0  0
   35.0840   24.0640   30.6970 H   0  0  0  0  0  0  0  0  0  0  0  0
   36.4000   21.9330   30.5130 H   0  0  0  0  0  0  0  0  0  0  0  0
   38.3000   21.5690   31.9330 H   0  0  0  0  0  0  0  0  0  0  0  0
   36.8680   25.0850   35.7580 H   0  0  0  0  0  0  0  0  0  0  0  0
   38.4500   24.2800   35.6140 H   0  0  0  0  0  0  0  0  0  0  0  0
   37.6750   27.0210   36.5780 H   0  0  0  0  0  0  0  0  0  0  0  0
   39.2020   26.1940   36.8230 H   0  0  0  0  0  0  0  0  0  0  0  0
   39.0860   28.2030   35.3010 H   0  0  0  0  0  0  0  0  0  0  0  0
   39.9600   26.5910   34.7630 H   0  0  0  0  0  0  0  0  0  0  0  0
   37.1240   27.3570   33.8940 H   0  0  0  0  0  0  0  0  0  0  0  0
   37.8240   28.0130   31.4990 C   0  0  0  0  0  0  0  0  0  0  0  0
   38.5960   27.3140   32.4450 C   0  0  0  0  0  0  0  0  0  0  0  0
   39.8910   27.1020   31.9940 C   0  0  0  0  0  0  0  0  0  0  0  0
   40.3910   27.5240   30.7740 C   0  0  0  0  0  0  0  0  0  0  0  0
   39.5430   28.2210   29.8910 C   0  0  0  0  0  0  0  0  0  0  0  0
   38.2360   28.4690   30.2620 C   0  0  0  0  0  0  0  0  0  0  0  0
   40.6720   26.5390   32.4390 H   0  0  0  0  0  0  0  0  0  0  0  0
   41.3590   27.4090   30.3590 H   0  0  0  0  0  0  0  0  0  0  0  0
   39.8410   28.5890   28.9200 H   0  0  0  0  0  0  0  0  0  0  0  0
   37.3480   29.1860   29.3630 C   0  0  0  0  0  0  0  0  0  0  0  0
   36.3340   29.3930   29.6710 H   0  0  0  0  0  0  0  0  0  0  0  0
   37.7490   29.5660   28.2330 O   0  0  0  0  0  0  0  0  0  0  0  0
   35.3270   28.3270   32.0260 N   0  0  0  0  0  0  0  0  0  0  0  0
   36.4230   28.1990   31.7890 C   0  0  0  0  0  0  0  0  0  0  0  0
  1  6  1  0  0  0  0
  2  1  2  0  0  0  0
  2  3  1  0  0  0  0
  3  4  2  0  0  0  0
  4  5  1  0  0  0  0
  5  7  1  0  0  0  0
  6  5  2  0  0  0  0
  7  8  1  0  0  0  0
  8 16  1  0  0  0  0
  8 15  1  0  0  0  0
  8  9  1  0  0  0  0
  9 17  1  0  0  0  0
  9 18  1  0  0  0  0
 10 19  1  0  0  0  0
 10  9  1  0  0  0  0
 11 21  1  1  0  0  0
 11  7  1  0  0  0  0
 11 10  1  0  0  0  0
 12  1  1  0  0  0  0
 13  2  1  0  0  0  0
 14  3  1  0  0  0  0
 20 10  1  0  0  0  0
 22 35  1  0  0  0  0
 22 23  1  0  0  0  0
 23 11  1  0  0  0  0
 24 28  1  0  0  0  0
 24 23  2  0  0  0  0
 25 24  1  0  0  0  0
 26 27  1  0  0  0  0
 26 25  2  0  0  0  0
 27 22  2  0  0  0  0
 29 25  1  0  0  0  0
 30 26  1  0  0  0  0
 31 32  1  0  0  0  0
 31 27  1  0  0  0  0
 33 31  2  0  0  0  0
 35 34  3  0  0  0  0
M  END
>  <minimizedAffinity>
-4.89303112

$$$$

 OpenBabel03262523213D

 35 37  0  0  1  0  0  0  0  0999 V2000
   39.1670   24.2050   30.8770 C   0  0  0  0  0  0  0  0  0  0  0  0
   38.1750   23.2300   30.8580 C   0  0  0  0  0  0  0  0  0  0  0  0
   37.1730   23.2870   31.8180 C   0  0  0  0  0  0  0  0  0  0  0  0
   37.2010   24.2860   32.7340 N   0  0  0  0  0  0  0  0  0  0  0  0
   38.1300   25.2050   32.7580 C   0  0  0  0  0  0  0  0  0  0  0  0
   39.0430   25.1000   31.8300 N   0  0  0  0  0  0  0  0  0  0  0  0
   38.1170   26.2300   33.7230 N   0  0  0  0  0  0  0  0  0  0  0  0
   36.9880   27.1570   33.8730 C   0  0  0  0  0  0  0  0  0  0  0  0
   37.3140   27.9740   35.0480 C   0  0  0  0  0  0  0  0  0  0  0  0
   38.4310   27.2040   35.7550 C   0  0  0  0  0  0  0  0  0  0  0  0
   39.1800   26.5920   34.6730 C   0  0  1  0  0  0  0  0  0  0  0  0
   39.9330   24.1440   30.1250 H   0  0  0  0  0  0  0  0  0  0  0  0
   38.1030   22.4250   30.1670 H   0  0  0  0  0  0  0  0  0  0  0  0
   36.3820   22.5450   31.8360 H   0  0  0  0  0  0  0  0  0  0  0  0
   36.9990   27.7810   32.9550 H   0  0  0  0  0  0  0  0  0  0  0  0
   36.0230   26.6180   33.8860 H   0  0  0  0  0  0  0  0  0  0  0  0
   37.6480   29.0030   34.7310 H   0  0  0  0  0  0  0  0  0  0  0  0
   36.4320   28.1530   35.6660 H   0  0  0  0  0  0  0  0  0  0  0  0
   38.8640   27.9950   36.3190 H   0  0  0  0  0  0  0  0  0  0  0  0
   37.7630   26.4390   36.1850 H   0  0  0  0  0  0  0  0  0  0  0  0
   39.7200   27.3310   34.0020 H   0  0  0  0  0  0  0  0  0  0  0  0
   39.8560   24.3720   35.6820 C   0  0  0  0  0  0  0  0  0  0  0  0
   40.1360   25.5760   35.0100 C   0  0  0  0  0  0  0  0  0  0  0  0
   41.4600   25.6370   34.5990 C   0  0  0  0  0  0  0  0  0  0  0  0
   42.4070   24.6470   34.8030 C   0  0  0  0  0  0  0  0  0  0  0  0
   42.0330   23.4730   35.4840 C   0  0  0  0  0  0  0  0  0  0  0  0
   40.7320   23.3350   35.9310 C   0  0  0  0  0  0  0  0  0  0  0  0
   41.9870   26.4420   34.1500 H   0  0  0  0  0  0  0  0  0  0  0  0
   43.4270   24.6120   34.5200 H   0  0  0  0  0  0  0  0  0  0  0  0
   42.6980   22.6470   35.6910 H   0  0  0  0  0  0  0  0  0  0  0  0
   40.3300   22.1290   36.6370 C   0  0  0  0  0  0  0  0  0  0  0  0
   39.4170   21.6280   36.3540 H   0  0  0  0  0  0  0  0  0  0  0  0
   41.0350   21.6670   37.5700 O   0  0  0  0  0  0  0  0  0  0  0  0
   37.5230   24.0920   36.7260 N   0  0  0  0  0  0  0  0  0  0  0  0
   38.5450   24.2250   36.2660 C   0  0  0  0  0  0  0  0  0  0  0  0
  1  6  1  0  0  0  0
  2  1  2  0  0  0  0
  2  3  1  0  0  0  0
  3 14  1  0  0  0  0
  3  4  2  0  0  0  0
  4  5  1  0  0  0  0
  5  7  1  0  0  0  0
  6  5  2  0  0  0  0
  7  8  1  0  0  0  0
  7 11  1  0  0  0  0
  8 16  1  0  0  0  0
  8  9  1  0  0  0  0
  9 18  1  0  0  0  0
  9 10  1  0  0  0  0
 10 20  1  0  0  0  0
 10 19  1  0  0  0  0
 11 21  1  6  0  0  0
 11 23  1  0  0  0  0
 11 10  1  0  0  0  0
 12  1  1  0  0  0  0
 13  2  1  0  0  0  0
 15  8  1  0  0  0  0
 17  9  1  0  0  0  0
 22 27  1  0  0  0  0
 22 35  1  0  0  0  0
 23 22  2  0  0  0  0
 24 25  2  0  0  0  0
 24 23  1  0  0  0  0
 25 26  1  0  0  0  0
 26 30  1  0  0  0  0
 26 27  2  0  0  0  0
 27 31  1  0  0  0  0
 28 24  1  0  0  0  0
 29 25  1  0  0  0  0
 31 33  2  0  0  0  0
 32 31  1  0  0  0  0
 35 34  3  0  0  0  0
M  END
>  <minimizedAffinity>
-4.89090824

$$$$

 OpenBabel03262523213D

 35 37  0  0  1  0  0  0  0  0999 V2000
   42.0630   24.6720   32.6000 C   0  0  0  0  0  0  0  0  0  0  0  0
   43.1560   25.4260   33.0130 C   0  0  0  0  0  0  0  0  0  0  0  0
   43.3520   25.6150   34.3750 C   0  0  0  0  0  0  0  0  0  0  0  0
   42.4720   25.0620   35.2460 N   0  0  0  0  0  0  0  0  0  0  0  0
   41.4430   24.3530   34.8650 C   0  0  0  0  0  0  0  0  0  0  0  0
   41.3120   24.2080   33.5740 N   0  0  0  0  0  0  0  0  0  0  0  0
   40.5570   23.7900   35.8030 N   0  0  0  0  0  0  0  0  0  0  0  0
   41.0040   22.8550   36.8450 C   0  0  0  0  0  0  0  0  0  0  0  0
   39.8170   22.6070   37.6730 C   0  0  0  0  0  0  0  0  0  0  0  0
   38.8460   23.7290   37.3010 C   0  0  0  0  0  0  0  0  0  0  0  0
   39.1000   23.9650   35.8910 C   0  0  1  0  0  0  0  0  0  0  0  0
   41.9280   24.5350   31.5420 H   0  0  0  0  0  0  0  0  0  0  0  0
   43.8750   25.8830   32.3790 H   0  0  0  0  0  0  0  0  0  0  0  0
   44.1930   26.1970   34.7360 H   0  0  0  0  0  0  0  0  0  0  0  0
   41.2950   21.9320   36.3030 H   0  0  0  0  0  0  0  0  0  0  0  0
   41.9080   23.2270   37.3600 H   0  0  0  0  0  0  0  0  0  0  0  0
   39.3880   21.5880   37.4510 H   0  0  0  0  0  0  0  0  0  0  0  0
   40.0730   22.5690   38.7340 H   0  0  0  0  0  0  0  0  0  0  0  0
   37.9300   23.2810   37.6070 H   0  0  0  0  0  0  0  0  0  0  0  0
   39.3710   24.5070   37.8790 H   0  0  0  0  0  0  0  0  0  0  0  0
   38.8150   23.1010   35.2140 H   0  0  0  0  0  0  0  0  0  0  0  0
   37.8390   25.2040   34.0810 C   0  0  0  0  0  0  0  0  0  0  0  0
   38.5420   25.1470   35.2980 C   0  0  0  0  0  0  0  0  0  0  0  0
   38.5510   26.3760   35.9420 C   0  0  0  0  0  0  0  0  0  0  0  0
   37.9440   27.5290   35.4730 C   0  0  0  0  0  0  0  0  0  0  0  0
   37.2600   27.4890   34.2430 C   0  0  0  0  0  0  0  0  0  0  0  0
   37.2080   26.3040   33.5350 C   0  0  0  0  0  0  0  0  0  0  0  0
   39.0640   26.6680   36.8250 H   0  0  0  0  0  0  0  0  0  0  0  0
   37.9000   28.4970   35.9000 H   0  0  0  0  0  0  0  0  0  0  0  0
   36.7570   28.3340   33.7950 H   0  0  0  0  0  0  0  0  0  0  0  0
   36.5060   26.2460   32.2630 C   0  0  0  0  0  0  0  0  0  0  0  0
   36.5750   25.3540   31.6590 H   0  0  0  0  0  0  0  0  0  0  0  0
   35.8220   27.2220   31.8640 O   0  0  0  0  0  0  0  0  0  0  0  0
   37.8790   23.0990   32.6050 N   0  0  0  0  0  0  0  0  0  0  0  0
   37.8510   24.0240   33.2500 C   0  0  0  0  0  0  0  0  0  0  0  0
  1  2  2  0  0  0  0
  1  6  1  0  0  0  0
  2  3  1  0  0  0  0
  3 14  1  0  0  0  0
  3  4  2  0  0  0  0
  5  4  1  0  0  0  0
  5  7  1  0  0  0  0
  6  5  2  0  0  0  0
  7 11  1  0  0  0  0
  7  8  1  0  0  0  0
  8 16  1  0  0  0  0
  8  9  1  0  0  0  0
  9 18  1  0  0  0  0
 10 19  1  0  0  0  0
 10  9  1  0  0  0  0
 10 20  1  0  0  0  0
 11 21  1  6  0  0  0
 11 10  1  0  0  0  0
 12  1  1  0  0  0  0
 13  2  1  0  0  0  0
 15  8  1  0  0  0  0
 17  9  1  0  0  0  0
 22 23  1  0  0  0  0
 23 11  1  0  0  0  0
 23 24  2  0  0  0  0
 24 28  1  0  0  0  0
 25 29  1  0  0  0  0
 25 24  1  0  0  0  0
 26 25  2  0  0  0  0
 27 22  2  0  0  0  0
 27 26  1  0  0  0  0
 30 26  1  0  0  0  0
 31 27  1  0  0  0  0
 32 31  1  0  0  0  0
 33 31  2  0  0  0  0
 34 35  3  0  0  0  0
 35 22  1  0  0  0  0
M  END
>  <minimizedAffinity>
-4.81004524

$$$$

 OpenBabel03262523213D

 35 37  0  0  1  0  0  0  0  0999 V2000
   33.5400   29.4890   34.7910 C   0  0  0  0  0  0  0  0  0  0  0  0
   33.8390   30.7400   35.3210 C   0  0  0  0  0  0  0  0  0  0  0  0
   34.8860   31.4610   34.7630 C   0  0  0  0  0  0  0  0  0  0  0  0
   35.5750   30.9200   33.7280 N   0  0  0  0  0  0  0  0  0  0  0  0
   35.3000   29.7460   33.2260 C   0  0  0  0  0  0  0  0  0  0  0  0
   34.3050   29.1160   33.7900 N   0  0  0  0  0  0  0  0  0  0  0  0
   36.0370   29.2230   32.1450 N   0  0  0  0  0  0  0  0  0  0  0  0
   36.1400   29.9170   30.8540 C   0  0  0  0  0  0  0  0  0  0  0  0
   37.0800   29.1150   30.0620 C   0  0  0  0  0  0  0  0  0  0  0  0
   37.7800   28.2180   31.0840 C   0  0  0  0  0  0  0  0  0  0  0  0
   36.7550   27.9430   32.0750 C   0  0  1  0  0  0  0  0  0  0  0  0
   32.7250   28.9460   35.2360 H   0  0  0  0  0  0  0  0  0  0  0  0
   33.3360   31.2120   36.1290 H   0  0  0  0  0  0  0  0  0  0  0  0
   35.1500   32.4410   35.1480 H   0  0  0  0  0  0  0  0  0  0  0  0
   35.1220   29.8650   30.4140 H   0  0  0  0  0  0  0  0  0  0  0  0
   36.3800   30.9870   30.9890 H   0  0  0  0  0  0  0  0  0  0  0  0
   36.5260   28.5140   29.2840 H   0  0  0  0  0  0  0  0  0  0  0  0
   37.7550   29.7480   29.4840 H   0  0  0  0  0  0  0  0  0  0  0  0
   38.1170   27.4410   30.4400 H   0  0  0  0  0  0  0  0  0  0  0  0
   38.4330   29.0140   31.4790 H   0  0  0  0  0  0  0  0  0  0  0  0
   35.8890   27.3190   31.6900 H   0  0  0  0  0  0  0  0  0  0  0  0
   37.3650   25.9740   33.5430 C   0  0  0  0  0  0  0  0  0  0  0  0
   37.1640   27.3480   33.3160 C   0  0  0  0  0  0  0  0  0  0  0  0
   37.5150   28.1070   34.4230 C   0  0  0  0  0  0  0  0  0  0  0  0
   38.0120   27.6030   35.6130 C   0  0  0  0  0  0  0  0  0  0  0  0
   38.1820   26.2110   35.7480 C   0  0  0  0  0  0  0  0  0  0  0  0
   37.8520   25.3830   34.6920 C   0  0  0  0  0  0  0  0  0  0  0  0
   37.3980   29.1500   34.5860 H   0  0  0  0  0  0  0  0  0  0  0  0
   38.3060   28.1080   36.4960 H   0  0  0  0  0  0  0  0  0  0  0  0
   38.5620   25.7250   36.6340 H   0  0  0  0  0  0  0  0  0  0  0  0
   38.0210   23.9450   34.8160 C   0  0  0  0  0  0  0  0  0  0  0  0
   38.1490   23.3470   33.9250 H   0  0  0  0  0  0  0  0  0  0  0  0
   38.0200   23.3940   35.9450 O   0  0  0  0  0  0  0  0  0  0  0  0
   36.5730   24.3500   31.7140 N   0  0  0  0  0  0  0  0  0  0  0  0
   36.9310   25.0590   32.5150 C   0  0  0  0  0  0  0  0  0  0  0  0
  1 12  1  0  0  0  0
  1  2  1  0  0  0  0
  2 13  1  0  0  0  0
  3 14  1  0  0  0  0
  3  2  2  0  0  0  0
  4  3  1  0  0  0  0
  5  4  2  0  0  0  0
  5  6  1  0  0  0  0
  6  1  2  0  0  0  0
  7  5  1  0  0  0  0
  8 16  1  0  0  0  0
  8  7  1  0  0  0  0
  9  8  1  0  0  0  0
  9 10  1  0  0  0  0
 10 20  1  0  0  0  0
 10 11  1  0  0  0  0
 11 21  1  6  0  0  0
 11  7  1  0  0  0  0
 11 23  1  0  0  0  0
 15  8  1  0  0  0  0
 17  9  1  0  0  0  0
 18  9  1  0  0  0  0
 19 10  1  0  0  0  0
 22 27  1  0  0  0  0
 23 22  2  0  0  0  0
 23 24  1  0  0  0  0
 24 28  1  0  0  0  0
 24 25  2  0  0  0  0
 25 26  1  0  0  0  0
 25 29  1  0  0  0  0
 26 30  1  0  0  0  0
 27 31  1  0  0  0  0
 27 26  2  0  0  0  0
 31 33  2  0  0  0  0
 32 31  1  0  0  0  0
 34 35  3  0  0  0  0
 35 22  1  0  0  0  0
M  END
>  <minimizedAffinity>
-4.71005917

$$$$
