
 OpenBabel03272510263D

 39 42  0  0  1  0  0  0  0  0999 V2000
   35.9710   30.0700   46.9590 C   0  0  0  0  0  0  0  0  0  0  0  0
   36.8940   30.6310   47.8110 C   0  0  0  0  0  0  0  0  0  0  0  0
   37.8730   31.5230   47.3390 C   0  0  0  0  0  0  0  0  0  0  0  0
   37.8430   31.7910   45.9740 C   0  0  0  0  0  0  0  0  0  0  0  0
   38.6870   32.6250   45.2780 N   0  0  0  0  0  0  0  0  0  0  0  0
   38.2790   32.5740   43.9970 C   0  0  0  0  0  0  0  0  0  0  0  0
   37.2470   31.7620   43.8870 N   0  0  0  0  0  0  0  0  0  0  0  0
   36.9440   31.2550   45.0950 C   0  0  0  0  0  0  0  0  0  0  0  0
   35.9830   30.3700   45.6040 C   0  0  0  0  0  0  0  0  0  0  0  0
   35.2050   29.3780   47.2990 H   0  0  0  0  0  0  0  0  0  0  0  0
   38.6100   31.9760   47.9970 H   0  0  0  0  0  0  0  0  0  0  0  0
   39.4860   33.1850   45.6790 H   0  0  0  0  0  0  0  0  0  0  0  0
   35.2690   29.9410   44.9180 H   0  0  0  0  0  0  0  0  0  0  0  0
   37.5820   30.1900   51.4830 C   0  0  0  0  0  0  0  0  0  0  0  0
   37.8100   30.5900   50.1680 C   0  0  0  0  0  0  0  0  0  0  0  0
   36.8560   30.3030   49.2280 C   0  0  0  0  0  0  0  0  0  0  0  0
   35.7270   29.6320   49.6520 N   0  0  0  0  0  0  0  0  0  0  0  0
   35.5180   29.2490   50.9230 C   0  0  0  0  0  0  0  0  0  0  0  0
   36.4430   29.5300   51.8240 N   0  0  0  0  0  0  0  0  0  0  0  0
   38.3470   30.4250   52.2160 H   0  0  0  0  0  0  0  0  0  0  0  0
   38.6780   31.1140   49.8140 H   0  0  0  0  0  0  0  0  0  0  0  0
   34.5870   28.7310   51.1110 H   0  0  0  0  0  0  0  0  0  0  0  0
   38.9050   33.3030   42.9840 O   0  0  0  0  0  0  0  0  0  0  0  0
   39.8560   31.2330   42.6240 N   0  0  0  0  0  0  0  0  0  0  0  0
   39.6210   32.5390   42.0230 C   0  0  1  0  0  0  0  0  0  0  0  0
   38.8530   32.4010   40.7960 C   0  0  0  0  0  0  0  0  0  0  0  0
   39.6060   31.6580   39.8720 O   0  0  0  0  0  0  0  0  0  0  0  0
   40.0480   30.4460   40.3160 C   0  0  0  0  0  0  0  0  0  0  0  0
   40.7070   30.5500   41.6800 C   0  0  2  0  0  0  0  0  0  0  0  0
   39.0620   30.6250   42.7520 H   0  0  0  0  0  0  0  0  0  0  0  0
   40.6240   32.9570   41.8100 H   0  0  0  0  0  0  0  0  0  0  0  0
   38.8010   33.4260   40.3140 H   0  0  0  0  0  0  0  0  0  0  0  0
   37.8860   31.9850   40.7180 H   0  0  0  0  0  0  0  0  0  0  0  0
   39.1670   29.7820   40.4390 H   0  0  0  0  0  0  0  0  0  0  0  0
   40.7860   30.0680   39.6110 H   0  0  0  0  0  0  0  0  0  0  0  0
   41.6450   31.1260   41.5480 H   0  0  0  0  0  0  0  0  0  0  0  0
   40.9690   29.1870   42.2100 C   0  0  0  0  0  0  0  0  0  0  0  0
   41.1820   29.0490   43.2810 H   0  0  0  0  0  0  0  0  0  0  0  0
   40.9380   28.2340   41.4220 O   0  0  0  0  0  0  0  0  0  0  0  0
  1 10  1  0  0  0  0
  1  2  1  0  0  0  0
  2 16  1  0  0  0  0
  3  2  2  0  0  0  0
  3 11  1  0  0  0  0
  4  3  1  0  0  0  0
  5 12  1  0  0  0  0
  5  4  1  0  0  0  0
  6  5  1  0  0  0  0
  7  6  2  0  0  0  0
  7  8  1  0  0  0  0
  8  9  1  0  0  0  0
  8  4  2  0  0  0  0
  9  1  2  0  0  0  0
 13  9  1  0  0  0  0
 14 19  1  0  0  0  0
 14 20  1  0  0  0  0
 15 14  2  0  0  0  0
 16 17  2  0  0  0  0
 16 15  1  0  0  0  0
 17 18  1  0  0  0  0
 18 22  1  0  0  0  0
 18 19  2  0  0  0  0
 21 15  1  0  0  0  0
 23  6  1  0  0  0  0
 24 30  1  0  0  0  0
 25 31  1  6  0  0  0
 25 24  1  0  0  0  0
 25 23  1  0  0  0  0
 26 25  1  0  0  0  0
 27 28  1  0  0  0  0
 27 26  1  0  0  0  0
 28 34  1  0  0  0  0
 28 29  1  0  0  0  0
 29 36  1  6  0  0  0
 29 37  1  0  0  0  0
 29 24  1  0  0  0  0
 32 26  1  0  0  0  0
 33 26  1  0  0  0  0
 35 28  1  0  0  0  0
 37 38  1  0  0  0  0
 39 37  2  0  0  0  0
M  END
>  <minimizedAffinity>
-5.5493803

>  <minimizedRMSD>
1.29599023

$$$$
