
 OpenBabel03272507503D

 22 23  0  0  0  0  0  0  0  0999 V2000
   37.1080   31.4500   48.7640 N   0  0  0  0  0  0  0  0  0  0  0  0
   37.0700   32.4700   49.6370 C   0  0  0  0  0  0  0  0  0  0  0  0
   38.0270   33.4680   49.6010 C   0  0  0  0  0  0  0  0  0  0  0  0
   38.9620   33.2880   48.6140 C   0  0  0  0  0  0  0  0  0  0  0  0
   39.8770   34.1820   48.5310 O   0  0  0  0  0  0  0  0  0  0  0  0
   39.0400   32.2900   47.7250 N   0  0  0  0  0  0  0  0  0  0  0  0
   38.0700   31.3390   47.8110 C   0  0  0  0  0  0  0  0  0  0  0  0
   38.1120   30.3910   46.9920 O   0  0  0  0  0  0  0  0  0  0  0  0
   36.2660   32.4980   50.3780 H   0  0  0  0  0  0  0  0  0  0  0  0
   38.0280   34.2880   50.2730 H   0  0  0  0  0  0  0  0  0  0  0  0
   39.7760   32.2240   47.0120 H   0  0  0  0  0  0  0  0  0  0  0  0
   36.2550   29.3960   49.7500 C   0  0  0  0  0  0  0  0  0  0  0  0
   36.1380   30.4100   48.7890 C   0  0  0  0  0  0  0  0  0  0  0  0
   35.0470   30.3160   47.9110 C   0  0  0  0  0  0  0  0  0  0  0  0
   34.1930   29.2740   48.0420 N   0  0  0  0  0  0  0  0  0  0  0  0
   34.3390   28.3270   48.9710 C   0  0  0  0  0  0  0  0  0  0  0  0
   35.3690   28.3810   49.8310 N   0  0  0  0  0  0  0  0  0  0  0  0
   34.9530   31.1000   47.1660 H   0  0  0  0  0  0  0  0  0  0  0  0
   33.6390   27.5070   49.0500 H   0  0  0  0  0  0  0  0  0  0  0  0
   37.3350   29.3650   50.7200 C   0  0  0  0  0  0  0  0  0  0  0  0
   38.2840   28.8860   50.5490 H   0  0  0  0  0  0  0  0  0  0  0  0
   37.4610   29.8240   51.8800 O   0  0  0  0  0  0  0  0  0  0  0  0
  1 13  1  0  0  0  0
  1  2  1  0  0  0  0
  2  9  1  0  0  0  0
  3  2  2  0  0  0  0
  3 10  1  0  0  0  0
  4  3  1  0  0  0  0
  5  4  2  0  0  0  0
  6  7  1  0  0  0  0
  6  4  1  0  0  0  0
  7  1  1  0  0  0  0
  8  7  2  0  0  0  0
 11  6  1  0  0  0  0
 12 17  1  0  0  0  0
 12 20  1  0  0  0  0
 13 12  2  0  0  0  0
 14 15  2  0  0  0  0
 14 13  1  0  0  0  0
 15 16  1  0  0  0  0
 16 19  1  0  0  0  0
 16 17  2  0  0  0  0
 18 14  1  0  0  0  0
 20 22  2  0  0  0  0
 21 20  1  0  0  0  0
M  END
>  <minimizedAffinity>
-5.21611595

>  <minimizedRMSD>
0.482393324

$$$$
