
 OpenBabel03272510263D

 39 42  0  0  1  0  0  0  0  0999 V2000
   36.2410   30.2010   46.8510 C   0  0  0  0  0  0  0  0  0  0  0  0
   37.0870   30.7400   47.7930 C   0  0  0  0  0  0  0  0  0  0  0  0
   38.0940   31.6520   47.4310 C   0  0  0  0  0  0  0  0  0  0  0  0
   38.1720   31.9650   46.0780 C   0  0  0  0  0  0  0  0  0  0  0  0
   39.0620   32.8260   45.4790 N   0  0  0  0  0  0  0  0  0  0  0  0
   38.7600   32.8150   44.1680 C   0  0  0  0  0  0  0  0  0  0  0  0
   37.7460   32.0010   43.9490 N   0  0  0  0  0  0  0  0  0  0  0  0
   37.3520   31.4520   45.1120 C   0  0  0  0  0  0  0  0  0  0  0  0
   36.3600   30.5460   45.5120 C   0  0  0  0  0  0  0  0  0  0  0  0
   35.4560   29.4940   47.1060 H   0  0  0  0  0  0  0  0  0  0  0  0
   38.7720   32.0880   48.1600 H   0  0  0  0  0  0  0  0  0  0  0  0
   39.8210   33.3770   45.9610 H   0  0  0  0  0  0  0  0  0  0  0  0
   35.7070   30.1350   44.7580 H   0  0  0  0  0  0  0  0  0  0  0  0
   37.4910   30.1640   51.4890 C   0  0  0  0  0  0  0  0  0  0  0  0
   37.8230   30.6040   50.2090 C   0  0  0  0  0  0  0  0  0  0  0  0
   36.9380   30.3650   49.1910 C   0  0  0  0  0  0  0  0  0  0  0  0
   35.7710   29.6990   49.5060 N   0  0  0  0  0  0  0  0  0  0  0  0
   35.4610   29.2780   50.7450 C   0  0  0  0  0  0  0  0  0  0  0  0
   36.3200   29.5130   51.7210 N   0  0  0  0  0  0  0  0  0  0  0  0
   38.2030   30.3610   52.2850 H   0  0  0  0  0  0  0  0  0  0  0  0
   38.7230   31.1240   49.9400 H   0  0  0  0  0  0  0  0  0  0  0  0
   34.5120   28.7700   50.8440 H   0  0  0  0  0  0  0  0  0  0  0  0
   39.4590   33.5800   43.2330 O   0  0  0  0  0  0  0  0  0  0  0  0
   39.5660   31.8360   41.7280 N   0  0  0  0  0  0  0  0  0  0  0  0
   39.2360   33.2480   41.8700 C   0  0  1  0  0  0  0  0  0  0  0  0
   37.8480   33.4830   41.5010 C   0  0  0  0  0  0  0  0  0  0  0  0
   37.6810   33.1600   40.1430 O   0  0  0  0  0  0  0  0  0  0  0  0
   38.0810   31.9060   39.7860 C   0  0  0  0  0  0  0  0  0  0  0  0
   39.4680   31.5840   40.3100 C   0  0  2  0  0  0  0  0  0  0  0  0
   38.9500   31.1640   42.1590 H   0  0  0  0  0  0  0  0  0  0  0  0
   39.9180   33.7860   41.1840 H   0  0  0  0  0  0  0  0  0  0  0  0
   37.6810   34.6040   41.5170 H   0  0  0  0  0  0  0  0  0  0  0  0
   37.0050   33.0480   41.9640 H   0  0  0  0  0  0  0  0  0  0  0  0
   37.3870   31.1770   40.2540 H   0  0  0  0  0  0  0  0  0  0  0  0
   38.1080   31.8490   38.6990 H   0  0  0  0  0  0  0  0  0  0  0  0
   40.1830   32.2380   39.7710 H   0  0  0  0  0  0  0  0  0  0  0  0
   39.7630   30.1450   40.0860 C   0  0  0  0  0  0  0  0  0  0  0  0
   40.2270   29.8240   39.1400 H   0  0  0  0  0  0  0  0  0  0  0  0
   39.4750   29.3390   40.9780 O   0  0  0  0  0  0  0  0  0  0  0  0
  1 10  1  0  0  0  0
  1  2  1  0  0  0  0
  2 16  1  0  0  0  0
  3  2  2  0  0  0  0
  3 11  1  0  0  0  0
  4  3  1  0  0  0  0
  5 12  1  0  0  0  0
  5  4  1  0  0  0  0
  6  5  1  0  0  0  0
  7  6  2  0  0  0  0
  7  8  1  0  0  0  0
  8  9  1  0  0  0  0
  8  4  2  0  0  0  0
  9  1  2  0  0  0  0
 13  9  1  0  0  0  0
 14 19  1  0  0  0  0
 14 20  1  0  0  0  0
 15 14  2  0  0  0  0
 16 17  2  0  0  0  0
 16 15  1  0  0  0  0
 17 18  1  0  0  0  0
 18 22  1  0  0  0  0
 18 19  2  0  0  0  0
 21 15  1  0  0  0  0
 23  6  1  0  0  0  0
 24 25  1  0  0  0  0
 24 30  1  0  0  0  0
 25 31  1  6  0  0  0
 25 23  1  0  0  0  0
 26 32  1  0  0  0  0
 26 25  1  0  0  0  0
 26 33  1  0  0  0  0
 27 26  1  0  0  0  0
 28 27  1  0  0  0  0
 28 34  1  0  0  0  0
 28 29  1  0  0  0  0
 29 36  1  6  0  0  0
 29 24  1  0  0  0  0
 35 28  1  0  0  0  0
 37 29  1  0  0  0  0
 37 39  2  0  0  0  0
 38 37  1  0  0  0  0
M  END
>  <minimizedAffinity>
-5.50501633

>  <minimizedRMSD>
0.0347540565

$$$$
