
 OpenBabel03272508533D

 32 34  0  0  1  0  0  0  0  0999 V2000
   38.4400   31.1210   48.1660 C   0  0  2  0  0  0  0  0  0  0  0  0
   38.7160   32.5650   48.0950 C   0  0  0  0  0  0  0  0  0  0  0  0
   38.0650   31.7700   46.9350 C   0  0  1  0  0  0  0  0  0  0  0  0
   39.3410   30.4760   48.2200 H   0  0  0  0  0  0  0  0  0  0  0  0
   38.0750   33.2760   48.6500 H   0  0  0  0  0  0  0  0  0  0  0  0
   39.7600   32.8900   47.9620 H   0  0  0  0  0  0  0  0  0  0  0  0
   37.0140   32.0860   46.7660 H   0  0  0  0  0  0  0  0  0  0  0  0
   35.0890   30.2410   49.4950 C   0  0  0  0  0  0  0  0  0  0  0  0
   35.4200   29.5540   50.7030 C   0  0  0  0  0  0  0  0  0  0  0  0
   36.8170   29.4160   51.0380 C   0  0  0  0  0  0  0  0  0  0  0  0
   37.7560   29.9420   50.2000 N   0  0  0  0  0  0  0  0  0  0  0  0
   37.3640   30.5830   49.0670 C   0  0  0  0  0  0  0  0  0  0  0  0
   36.0470   30.7480   48.6900 N   0  0  0  0  0  0  0  0  0  0  0  0
   34.0390   30.3150   49.2940 H   0  0  0  0  0  0  0  0  0  0  0  0
   34.6810   29.1500   51.3450 H   0  0  0  0  0  0  0  0  0  0  0  0
   37.0770   28.8990   51.9510 H   0  0  0  0  0  0  0  0  0  0  0  0
   38.3550   31.9010   44.4860 C   0  0  0  0  0  0  0  0  0  0  0  0
   37.2440   32.4550   44.3850 O   0  0  0  0  0  0  0  0  0  0  0  0
   38.9360   31.6260   45.7830 N   0  0  0  0  0  0  0  0  0  0  0  0
   39.9100   31.3400   45.9300 H   0  0  0  0  0  0  0  0  0  0  0  0
   39.1280   31.5030   43.2920 C   0  0  0  0  0  0  0  0  0  0  0  0
   40.1390   30.5800   43.4350 C   0  0  0  0  0  0  0  0  0  0  0  0
   40.8560   30.2240   42.3040 C   0  0  0  0  0  0  0  0  0  0  0  0
   40.5200   30.8130   41.1100 C   0  0  0  0  0  0  0  0  0  0  0  0
   39.4980   31.7460   40.9620 C   0  0  0  0  0  0  0  0  0  0  0  0
   38.8330   32.0550   42.0940 N   0  0  0  0  0  0  0  0  0  0  0  0
   40.3920   30.1240   44.3890 H   0  0  0  0  0  0  0  0  0  0  0  0
   41.6460   29.5060   42.4050 H   0  0  0  0  0  0  0  0  0  0  0  0
   41.0730   30.5450   40.2100 H   0  0  0  0  0  0  0  0  0  0  0  0
   39.1830   32.3380   39.6650 C   0  0  0  0  0  0  0  0  0  0  0  0
   39.2620   31.6830   38.8070 H   0  0  0  0  0  0  0  0  0  0  0  0
   38.8460   33.5540   39.6300 O   0  0  0  0  0  0  0  0  0  0  0  0
  1  4  1  6  0  0  0
  1 12  1  0  0  0  0
  2  1  1  0  0  0  0
  2  5  1  0  0  0  0
  3  7  1  6  0  0  0
  3  2  1  0  0  0  0
  3  1  1  0  0  0  0
  6  2  1  0  0  0  0
  8  9  1  0  0  0  0
  9 10  2  0  0  0  0
  9 15  1  0  0  0  0
 10 16  1  0  0  0  0
 11 10  1  0  0  0  0
 12 11  2  0  0  0  0
 13 12  1  0  0  0  0
 13  8  2  0  0  0  0
 14  8  1  0  0  0  0
 17 19  1  0  0  0  0
 18 17  2  0  0  0  0
 19 20  1  0  0  0  0
 19  3  1  0  0  0  0
 21 22  1  0  0  0  0
 21 17  1  0  0  0  0
 22 27  1  0  0  0  0
 23 28  1  0  0  0  0
 23 22  2  0  0  0  0
 24 23  1  0  0  0  0
 25 24  2  0  0  0  0
 25 26  1  0  0  0  0
 26 21  2  0  0  0  0
 29 24  1  0  0  0  0
 30 25  1  0  0  0  0
 31 30  1  0  0  0  0
 32 30  2  0  0  0  0
M  END
>  <minimizedAffinity>
-4.98254585

>  <minimizedRMSD>
0.106977157

$$$$
