
 OpenBabel03272506113D

 38 40  0  0  1  0  0  0  0  0999 V2000
   38.9230   32.4950   47.2720 C   0  0  0  0  0  0  0  0  0  0  0  0
   39.6390   33.6720   47.2090 C   0  0  0  0  0  0  0  0  0  0  0  0
   39.9360   34.4550   48.3020 C   0  0  0  0  0  0  0  0  0  0  0  0
   39.5080   34.0690   49.5490 C   0  0  0  0  0  0  0  0  0  0  0  0
   38.8020   32.9120   49.6230 C   0  0  0  0  0  0  0  0  0  0  0  0
   38.4780   32.0820   48.5310 C   0  0  0  0  0  0  0  0  0  0  0  0
   40.0210   34.0740   46.2580 H   0  0  0  0  0  0  0  0  0  0  0  0
   40.5020   35.3660   48.1720 H   0  0  0  0  0  0  0  0  0  0  0  0
   39.7510   34.6970   50.3830 H   0  0  0  0  0  0  0  0  0  0  0  0
   38.5090   32.6830   50.6500 H   0  0  0  0  0  0  0  0  0  0  0  0
   37.7010   30.8820   48.6930 C   0  0  1  0  0  0  0  0  0  0  0  0
   37.9610   30.4520   50.2170 C   0  0  0  0  0  0  0  0  0  0  0  0
   37.3520   29.0800   50.4940 C   0  0  0  0  0  0  0  0  0  0  0  0
   35.9670   28.9960   49.9250 C   0  0  0  0  0  0  0  0  0  0  0  0
   35.4820   30.3990   49.7850 C   0  0  0  0  0  0  0  0  0  0  0  0
   36.2290   31.0090   48.5990 C   0  0  2  0  0  0  0  0  0  0  0  0
   37.8880   29.9320   48.3100 H   0  0  0  0  0  0  0  0  0  0  0  0
   39.0470   30.3540   50.3030 H   0  0  0  0  0  0  0  0  0  0  0  0
   37.5850   31.2210   50.8650 H   0  0  0  0  0  0  0  0  0  0  0  0
   37.9750   28.2930   50.0100 H   0  0  0  0  0  0  0  0  0  0  0  0
   37.3560   28.9960   51.5960 H   0  0  0  0  0  0  0  0  0  0  0  0
   35.8990   28.4580   48.9820 H   0  0  0  0  0  0  0  0  0  0  0  0
   35.3410   28.4920   50.7010 H   0  0  0  0  0  0  0  0  0  0  0  0
   34.4090   30.3520   49.4630 H   0  0  0  0  0  0  0  0  0  0  0  0
   35.5680   30.9940   50.6890 H   0  0  0  0  0  0  0  0  0  0  0  0
   35.7500   31.9680   48.5820 H   0  0  0  0  0  0  0  0  0  0  0  0
   35.6820   30.3010   47.3650 C   0  0  0  0  0  0  0  0  0  0  0  0
   36.2250   29.7100   46.6380 H   0  0  0  0  0  0  0  0  0  0  0  0
   34.5290   30.2680   46.9660 O   0  0  0  0  0  0  0  0  0  0  0  0
   39.6430   30.7070   45.8070 C   0  0  0  0  0  0  0  0  0  0  0  0
   38.7350   31.7890   46.0510 C   0  0  0  0  0  0  0  0  0  0  0  0
   37.7800   32.0280   45.0950 C   0  0  0  0  0  0  0  0  0  0  0  0
   37.7290   31.2520   43.9900 N   0  0  0  0  0  0  0  0  0  0  0  0
   38.6180   30.2180   43.7850 C   0  0  0  0  0  0  0  0  0  0  0  0
   39.6040   29.9340   44.7140 N   0  0  0  0  0  0  0  0  0  0  0  0
   40.4470   30.3720   46.4410 H   0  0  0  0  0  0  0  0  0  0  0  0
   37.0730   32.7920   45.0150 H   0  0  0  0  0  0  0  0  0  0  0  0
   38.5470   29.6060   42.8710 H   0  0  0  0  0  0  0  0  0  0  0  0
  1  6  1  0  0  0  0
  2  1  2  0  0  0  0
  2  3  1  0  0  0  0
  3  4  2  0  0  0  0
  4  5  1  0  0  0  0
  4  9  1  0  0  0  0
  5 10  1  0  0  0  0
  6 11  1  0  0  0  0
  6  5  2  0  0  0  0
  7  2  1  0  0  0  0
  8  3  1  0  0  0  0
 11 17  1  6  0  0  0
 11 12  1  0  0  0  0
 12 18  1  0  0  0  0
 12 13  1  0  0  0  0
 12 19  1  0  0  0  0
 13 21  1  0  0  0  0
 14 13  1  0  0  0  0
 14 23  1  0  0  0  0
 15 14  1  0  0  0  0
 15 25  1  0  0  0  0
 16 26  1  6  0  0  0
 16 11  1  0  0  0  0
 16 15  1  0  0  0  0
 20 13  1  0  0  0  0
 22 14  1  0  0  0  0
 24 15  1  0  0  0  0
 27 16  1  0  0  0  0
 28 27  1  0  0  0  0
 29 27  2  0  0  0  0
 30 31  1  0  0  0  0
 30 36  1  0  0  0  0
 31  1  1  0  0  0  0
 32 31  2  0  0  0  0
 33 32  1  0  0  0  0
 34 33  2  0  0  0  0
 34 35  1  0  0  0  0
 35 30  2  0  0  0  0
 37 32  1  0  0  0  0
 38 34  1  0  0  0  0
M  END
>  <minimizedAffinity>
-6.6910429

>  <minimizedRMSD>
2.65875936

$$$$
