
 OpenBabel03272506123D

 38 40  0  0  1  0  0  0  0  0999 V2000
   34.6340   30.8890   35.3240 C   0  0  0  0  0  0  0  0  0  0  0  0
   35.3280   31.9670   35.8360 C   0  0  0  0  0  0  0  0  0  0  0  0
   34.8720   32.7630   36.8630 C   0  0  0  0  0  0  0  0  0  0  0  0
   33.6520   32.4950   37.4380 C   0  0  0  0  0  0  0  0  0  0  0  0
   32.9610   31.4370   36.9430 C   0  0  0  0  0  0  0  0  0  0  0  0
   33.3920   30.5980   35.8950 C   0  0  0  0  0  0  0  0  0  0  0  0
   36.3090   32.2710   35.4410 H   0  0  0  0  0  0  0  0  0  0  0  0
   35.4730   33.5900   37.2090 H   0  0  0  0  0  0  0  0  0  0  0  0
   33.3190   33.1300   38.2340 H   0  0  0  0  0  0  0  0  0  0  0  0
   32.0100   31.2980   37.4620 H   0  0  0  0  0  0  0  0  0  0  0  0
   32.5840   29.5110   35.4110 C   0  0  1  0  0  0  0  0  0  0  0  0
   31.9180   28.8990   36.7380 C   0  0  0  0  0  0  0  0  0  0  0  0
   31.1730   27.6080   36.4120 C   0  0  0  0  0  0  0  0  0  0  0  0
   30.3420   27.7780   35.1760 C   0  0  0  0  0  0  0  0  0  0  0  0
   30.1090   29.2420   35.0220 C   0  0  0  0  0  0  0  0  0  0  0  0
   31.4290   29.8540   34.5520 C   0  0  2  0  0  0  0  0  0  0  0  0
   32.8930   28.5870   35.0450 H   0  0  0  0  0  0  0  0  0  0  0  0
   32.7600   28.6400   37.3850 H   0  0  0  0  0  0  0  0  0  0  0  0
   31.2930   29.6470   37.1890 H   0  0  0  0  0  0  0  0  0  0  0  0
   31.9090   26.7920   36.2270 H   0  0  0  0  0  0  0  0  0  0  0  0
   30.5540   27.4150   37.3080 H   0  0  0  0  0  0  0  0  0  0  0  0
   30.7800   27.3510   34.2760 H   0  0  0  0  0  0  0  0  0  0  0  0
   29.3580   27.2940   35.3920 H   0  0  0  0  0  0  0  0  0  0  0  0
   29.4000   29.3810   34.1640 H   0  0  0  0  0  0  0  0  0  0  0  0
   29.7110   29.7270   35.9090 H   0  0  0  0  0  0  0  0  0  0  0  0
   31.1020   30.8680   34.4310 H   0  0  0  0  0  0  0  0  0  0  0  0
   31.6230   29.3560   33.1250 C   0  0  0  0  0  0  0  0  0  0  0  0
   30.9690   29.4980   32.2730 H   0  0  0  0  0  0  0  0  0  0  0  0
   32.5510   28.7050   32.6750 O   0  0  0  0  0  0  0  0  0  0  0  0
   35.3020   30.7830   33.0000 C   0  0  0  0  0  0  0  0  0  0  0  0
   35.2650   30.1510   34.2860 C   0  0  0  0  0  0  0  0  0  0  0  0
   35.8440   28.9100   34.3860 C   0  0  0  0  0  0  0  0  0  0  0  0
   36.4170   28.3480   33.3000 N   0  0  0  0  0  0  0  0  0  0  0  0
   36.4350   28.9830   32.0760 C   0  0  0  0  0  0  0  0  0  0  0  0
   35.8640   30.2340   31.9150 N   0  0  0  0  0  0  0  0  0  0  0  0
   34.9070   31.7500   32.7350 H   0  0  0  0  0  0  0  0  0  0  0  0
   35.8730   28.2350   35.1820 H   0  0  0  0  0  0  0  0  0  0  0  0
   36.9110   28.4940   31.2100 H   0  0  0  0  0  0  0  0  0  0  0  0
  1  2  2  0  0  0  0
  1  6  1  0  0  0  0
  2  3  1  0  0  0  0
  3  8  1  0  0  0  0
  3  4  2  0  0  0  0
  4  9  1  0  0  0  0
  5  4  1  0  0  0  0
  5 10  1  0  0  0  0
  6  5  2  0  0  0  0
  7  2  1  0  0  0  0
 11 17  1  6  0  0  0
 11  6  1  0  0  0  0
 11 12  1  0  0  0  0
 12 19  1  0  0  0  0
 12 18  1  0  0  0  0
 13 12  1  0  0  0  0
 13 21  1  0  0  0  0
 14 23  1  0  0  0  0
 14 13  1  0  0  0  0
 15 14  1  0  0  0  0
 15 25  1  0  0  0  0
 16 26  1  6  0  0  0
 16 15  1  0  0  0  0
 16 11  1  0  0  0  0
 20 13  1  0  0  0  0
 22 14  1  0  0  0  0
 24 15  1  0  0  0  0
 27 16  1  0  0  0  0
 28 27  1  0  0  0  0
 29 27  2  0  0  0  0
 30 31  1  0  0  0  0
 31 32  2  0  0  0  0
 31  1  1  0  0  0  0
 32 37  1  0  0  0  0
 33 32  1  0  0  0  0
 34 33  2  0  0  0  0
 35 34  1  0  0  0  0
 35 30  2  0  0  0  0
 36 30  1  0  0  0  0
 38 34  1  0  0  0  0
M  END
>  <minimizedAffinity>
-5.24618387

$$$$

 OpenBabel03272506123D

 38 40  0  0  1  0  0  0  0  0999 V2000
   36.0600   26.3360   31.6030 C   0  0  0  0  0  0  0  0  0  0  0  0
   35.1800   25.5540   30.8830 C   0  0  0  0  0  0  0  0  0  0  0  0
   35.1680   24.1770   30.9120 C   0  0  0  0  0  0  0  0  0  0  0  0
   36.0770   23.5070   31.6960 C   0  0  0  0  0  0  0  0  0  0  0  0
   36.9470   24.2670   32.4090 C   0  0  0  0  0  0  0  0  0  0  0  0
   36.9920   25.6750   32.4080 C   0  0  0  0  0  0  0  0  0  0  0  0
   34.4190   25.9900   30.2180 H   0  0  0  0  0  0  0  0  0  0  0  0
   34.4480   23.6330   30.3190 H   0  0  0  0  0  0  0  0  0  0  0  0
   36.0470   22.4360   31.7000 H   0  0  0  0  0  0  0  0  0  0  0  0
   37.6250   23.6520   33.0050 H   0  0  0  0  0  0  0  0  0  0  0  0
   37.9670   26.4050   33.1750 C   0  0  1  0  0  0  0  0  0  0  0  0
   37.4080   26.3410   34.6780 C   0  0  0  0  0  0  0  0  0  0  0  0
   38.2380   27.2380   35.5920 C   0  0  0  0  0  0  0  0  0  0  0  0
   39.7020   27.0380   35.3360 C   0  0  0  0  0  0  0  0  0  0  0  0
   39.8410   25.6950   34.7030 C   0  0  0  0  0  0  0  0  0  0  0  0
   39.3260   25.8270   33.2690 C   0  0  2  0  0  0  0  0  0  0  0  0
   38.1380   27.4310   33.1970 H   0  0  0  0  0  0  0  0  0  0  0  0
   36.4020   26.7660   34.6250 H   0  0  0  0  0  0  0  0  0  0  0  0
   37.3850   25.3160   34.9970 H   0  0  0  0  0  0  0  0  0  0  0  0
   37.9920   28.3050   35.3880 H   0  0  0  0  0  0  0  0  0  0  0  0
   37.9480   26.9310   36.6140 H   0  0  0  0  0  0  0  0  0  0  0  0
   40.1630   27.8120   34.7260 H   0  0  0  0  0  0  0  0  0  0  0  0
   40.1920   26.9970   36.3390 H   0  0  0  0  0  0  0  0  0  0  0  0
   40.9370   25.4830   34.6020 H   0  0  0  0  0  0  0  0  0  0  0  0
   39.3600   24.8910   35.2520 H   0  0  0  0  0  0  0  0  0  0  0  0
   39.5360   24.8310   32.9310 H   0  0  0  0  0  0  0  0  0  0  0  0
   40.3550   26.6870   32.5450 C   0  0  0  0  0  0  0  0  0  0  0  0
   41.4140   26.7750   32.7480 H   0  0  0  0  0  0  0  0  0  0  0  0
   40.1750   27.4390   31.6010 O   0  0  0  0  0  0  0  0  0  0  0  0
   36.6130   28.3600   30.3970 C   0  0  0  0  0  0  0  0  0  0  0  0
   35.9130   27.7450   31.4860 C   0  0  0  0  0  0  0  0  0  0  0  0
   35.1720   28.5700   32.2950 C   0  0  0  0  0  0  0  0  0  0  0  0
   35.1270   29.8960   32.0390 N   0  0  0  0  0  0  0  0  0  0  0  0
   35.8130   30.4570   30.9820 C   0  0  0  0  0  0  0  0  0  0  0  0
   36.5790   29.6740   30.1360 N   0  0  0  0  0  0  0  0  0  0  0  0
   37.2350   27.8760   29.6620 H   0  0  0  0  0  0  0  0  0  0  0  0
   34.6500   28.3690   33.1760 H   0  0  0  0  0  0  0  0  0  0  0  0
   35.7530   31.5430   30.8030 H   0  0  0  0  0  0  0  0  0  0  0  0
  1  6  1  0  0  0  0
  2  3  1  0  0  0  0
  2  1  2  0  0  0  0
  3  4  2  0  0  0  0
  4  9  1  0  0  0  0
  4  5  1  0  0  0  0
  5 10  1  0  0  0  0
  6  5  2  0  0  0  0
  6 11  1  0  0  0  0
  7  2  1  0  0  0  0
  8  3  1  0  0  0  0
 11 17  1  6  0  0  0
 11 16  1  0  0  0  0
 11 12  1  0  0  0  0
 12 19  1  0  0  0  0
 12 13  1  0  0  0  0
 13 21  1  0  0  0  0
 14 13  1  0  0  0  0
 14 23  1  0  0  0  0
 15 25  1  0  0  0  0
 15 14  1  0  0  0  0
 16 26  1  6  0  0  0
 16 15  1  0  0  0  0
 18 12  1  0  0  0  0
 20 13  1  0  0  0  0
 22 14  1  0  0  0  0
 24 15  1  0  0  0  0
 27 28  1  0  0  0  0
 27 16  1  0  0  0  0
 29 27  2  0  0  0  0
 30 31  1  0  0  0  0
 31  1  1  0  0  0  0
 31 32  2  0  0  0  0
 32 37  1  0  0  0  0
 33 32  1  0  0  0  0
 34 33  2  0  0  0  0
 35 30  2  0  0  0  0
 35 34  1  0  0  0  0
 36 30  1  0  0  0  0
 38 34  1  0  0  0  0
M  END
>  <minimizedAffinity>
-5.05583

$$$$

 OpenBabel03272506123D

 38 40  0  0  1  0  0  0  0  0999 V2000
   39.3050   25.4830   34.4320 C   0  0  0  0  0  0  0  0  0  0  0  0
   40.2900   26.4400   34.5640 C   0  0  0  0  0  0  0  0  0  0  0  0
   40.7230   27.2500   33.5380 C   0  0  0  0  0  0  0  0  0  0  0  0
   40.1620   27.1220   32.2900 C   0  0  0  0  0  0  0  0  0  0  0  0
   39.1910   26.1830   32.1490 C   0  0  0  0  0  0  0  0  0  0  0  0
   38.7190   25.3370   33.1710 C   0  0  0  0  0  0  0  0  0  0  0  0
   40.8090   26.6170   35.5190 H   0  0  0  0  0  0  0  0  0  0  0  0
   41.5010   27.9770   33.7190 H   0  0  0  0  0  0  0  0  0  0  0  0
   40.5180   27.7620   31.5080 H   0  0  0  0  0  0  0  0  0  0  0  0
   38.8020   26.1570   31.1280 H   0  0  0  0  0  0  0  0  0  0  0  0
   37.7030   24.3480   32.9300 C   0  0  1  0  0  0  0  0  0  0  0  0
   36.7980   24.9920   31.7710 C   0  0  0  0  0  0  0  0  0  0  0  0
   35.5550   24.1410   31.5310 C   0  0  0  0  0  0  0  0  0  0  0  0
   35.9170   22.6870   31.4670 C   0  0  0  0  0  0  0  0  0  0  0  0
   37.3660   22.6280   31.1190 C   0  0  0  0  0  0  0  0  0  0  0  0
   38.1390   23.0500   32.3680 C   0  0  2  0  0  0  0  0  0  0  0  0
   36.8910   24.0920   33.5300 H   0  0  0  0  0  0  0  0  0  0  0  0
   36.4670   25.9540   32.1710 H   0  0  0  0  0  0  0  0  0  0  0  0
   37.4000   25.1200   30.8910 H   0  0  0  0  0  0  0  0  0  0  0  0
   34.8390   24.2840   32.3730 H   0  0  0  0  0  0  0  0  0  0  0  0
   35.1490   24.5120   30.5720 H   0  0  0  0  0  0  0  0  0  0  0  0
   35.7070   22.1290   32.3770 H   0  0  0  0  0  0  0  0  0  0  0  0
   35.3410   22.2590   30.6110 H   0  0  0  0  0  0  0  0  0  0  0  0
   37.6300   21.5500   30.9600 H   0  0  0  0  0  0  0  0  0  0  0  0
   37.6380   23.2050   30.2390 H   0  0  0  0  0  0  0  0  0  0  0  0
   39.1350   22.9070   31.9970 H   0  0  0  0  0  0  0  0  0  0  0  0
   37.9510   21.9140   33.3660 C   0  0  0  0  0  0  0  0  0  0  0  0
   38.3120   20.8960   33.2960 H   0  0  0  0  0  0  0  0  0  0  0  0
   37.3550   21.9390   34.4310 O   0  0  0  0  0  0  0  0  0  0  0  0
   39.8600   23.7230   35.9970 C   0  0  0  0  0  0  0  0  0  0  0  0
   38.9500   24.7570   35.6020 C   0  0  0  0  0  0  0  0  0  0  0  0
   37.8430   24.9460   36.3900 C   0  0  0  0  0  0  0  0  0  0  0  0
   37.6580   24.1750   37.4830 N   0  0  0  0  0  0  0  0  0  0  0  0
   38.5530   23.1860   37.8360 C   0  0  0  0  0  0  0  0  0  0  0  0
   39.6850   22.9480   37.0770 N   0  0  0  0  0  0  0  0  0  0  0  0
   40.7760   23.4350   35.5080 H   0  0  0  0  0  0  0  0  0  0  0  0
   37.0170   25.5730   36.2650 H   0  0  0  0  0  0  0  0  0  0  0  0
   38.3700   22.5750   38.7350 H   0  0  0  0  0  0  0  0  0  0  0  0
  1  2  1  0  0  0  0
  1 31  1  0  0  0  0
  2  7  1  0  0  0  0
  3  8  1  0  0  0  0
  3  2  2  0  0  0  0
  4  3  1  0  0  0  0
  5  4  2  0  0  0  0
  5  6  1  0  0  0  0
  6  1  2  0  0  0  0
  9  4  1  0  0  0  0
 10  5  1  0  0  0  0
 11  6  1  0  0  0  0
 11 17  1  1  0  0  0
 12 18  1  0  0  0  0
 12 11  1  0  0  0  0
 13 12  1  0  0  0  0
 13 20  1  0  0  0  0
 14 13  1  0  0  0  0
 14 22  1  0  0  0  0
 15 14  1  0  0  0  0
 15 16  1  0  0  0  0
 16 26  1  6  0  0  0
 16 11  1  0  0  0  0
 16 27  1  0  0  0  0
 19 12  1  0  0  0  0
 21 13  1  0  0  0  0
 23 14  1  0  0  0  0
 24 15  1  0  0  0  0
 25 15  1  0  0  0  0
 27 29  2  0  0  0  0
 28 27  1  0  0  0  0
 30 35  1  0  0  0  0
 31 30  2  0  0  0  0
 31 32  1  0  0  0  0
 32 33  2  0  0  0  0
 33 34  1  0  0  0  0
 34 38  1  0  0  0  0
 35 34  2  0  0  0  0
 36 30  1  0  0  0  0
 37 32  1  0  0  0  0
M  END
>  <minimizedAffinity>
-5.01821136

$$$$

 OpenBabel03272506123D

 38 40  0  0  1  0  0  0  0  0999 V2000
   40.0720   23.3720   36.5570 C   0  0  0  0  0  0  0  0  0  0  0  0
   39.7610   22.8770   37.8070 C   0  0  0  0  0  0  0  0  0  0  0  0
   38.6800   23.2880   38.5550 C   0  0  0  0  0  0  0  0  0  0  0  0
   37.8370   24.2510   38.0550 C   0  0  0  0  0  0  0  0  0  0  0  0
   38.1330   24.7450   36.8250 C   0  0  0  0  0  0  0  0  0  0  0  0
   39.2270   24.3510   36.0290 C   0  0  0  0  0  0  0  0  0  0  0  0
   40.3770   22.1090   38.3020 H   0  0  0  0  0  0  0  0  0  0  0  0
   38.5030   22.8530   39.5270 H   0  0  0  0  0  0  0  0  0  0  0  0
   37.0040   24.5550   38.6570 H   0  0  0  0  0  0  0  0  0  0  0  0
   37.4090   25.4990   36.5080 H   0  0  0  0  0  0  0  0  0  0  0  0
   39.4840   24.9460   34.7440 C   0  0  1  0  0  0  0  0  0  0  0  0
   38.1370   24.6790   33.9140 C   0  0  0  0  0  0  0  0  0  0  0  0
   38.3220   25.0860   32.4540 C   0  0  0  0  0  0  0  0  0  0  0  0
   38.9960   26.4220   32.3630 C   0  0  0  0  0  0  0  0  0  0  0  0
   38.7580   27.1050   33.6670 C   0  0  0  0  0  0  0  0  0  0  0  0
   39.6520   26.4160   34.6980 C   0  0  2  0  0  0  0  0  0  0  0  0
   40.1120   24.6060   33.9870 H   0  0  0  0  0  0  0  0  0  0  0  0
   37.9980   23.5940   33.9380 H   0  0  0  0  0  0  0  0  0  0  0  0
   37.3240   25.1880   34.3960 H   0  0  0  0  0  0  0  0  0  0  0  0
   38.9640   24.3360   31.9390 H   0  0  0  0  0  0  0  0  0  0  0  0
   37.2950   25.1080   32.0440 H   0  0  0  0  0  0  0  0  0  0  0  0
   40.0580   26.3760   32.1300 H   0  0  0  0  0  0  0  0  0  0  0  0
   38.4530   26.9930   31.5720 H   0  0  0  0  0  0  0  0  0  0  0  0
   39.1630   28.1470   33.5790 H   0  0  0  0  0  0  0  0  0  0  0  0
   37.7150   27.1410   33.9690 H   0  0  0  0  0  0  0  0  0  0  0  0
   39.4240   27.0320   35.5460 H   0  0  0  0  0  0  0  0  0  0  0  0
   41.0770   26.8070   34.3280 C   0  0  0  0  0  0  0  0  0  0  0  0
   41.4330   27.7600   33.9590 H   0  0  0  0  0  0  0  0  0  0  0  0
   42.0840   26.1200   34.3790 O   0  0  0  0  0  0  0  0  0  0  0  0
   42.4830   23.2530   36.3790 C   0  0  0  0  0  0  0  0  0  0  0  0
   41.2050   22.8110   35.9050 C   0  0  0  0  0  0  0  0  0  0  0  0
   41.2030   21.8930   34.8850 C   0  0  0  0  0  0  0  0  0  0  0  0
   42.3740   21.4490   34.3810 N   0  0  0  0  0  0  0  0  0  0  0  0
   43.5880   21.8950   34.8590 C   0  0  0  0  0  0  0  0  0  0  0  0
   43.6510   22.8230   35.8850 N   0  0  0  0  0  0  0  0  0  0  0  0
   42.6790   23.9600   37.1690 H   0  0  0  0  0  0  0  0  0  0  0  0
   40.4130   21.4900   34.3340 H   0  0  0  0  0  0  0  0  0  0  0  0
   44.5260   21.5110   34.4230 H   0  0  0  0  0  0  0  0  0  0  0  0
  1  2  1  0  0  0  0
  2  7  1  0  0  0  0
  2  3  2  0  0  0  0
  3  8  1  0  0  0  0
  4  3  1  0  0  0  0
  4  9  1  0  0  0  0
  5  4  2  0  0  0  0
  6  1  2  0  0  0  0
  6  5  1  0  0  0  0
 10  5  1  0  0  0  0
 11 17  1  6  0  0  0
 11  6  1  0  0  0  0
 12 18  1  0  0  0  0
 12 19  1  0  0  0  0
 12 11  1  0  0  0  0
 13 12  1  0  0  0  0
 14 13  1  0  0  0  0
 14 15  1  0  0  0  0
 15 25  1  0  0  0  0
 15 16  1  0  0  0  0
 16 11  1  0  0  0  0
 16 26  1  1  0  0  0
 20 13  1  0  0  0  0
 21 13  1  0  0  0  0
 22 14  1  0  0  0  0
 23 14  1  0  0  0  0
 24 15  1  0  0  0  0
 27 29  2  0  0  0  0
 27 16  1  0  0  0  0
 28 27  1  0  0  0  0
 30 36  1  0  0  0  0
 31 30  1  0  0  0  0
 31  1  1  0  0  0  0
 32 31  2  0  0  0  0
 33 34  2  0  0  0  0
 33 32  1  0  0  0  0
 34 35  1  0  0  0  0
 35 30  2  0  0  0  0
 37 32  1  0  0  0  0
 38 34  1  0  0  0  0
M  END
>  <minimizedAffinity>
-4.89347839

$$$$

 OpenBabel03272506123D

 38 40  0  0  1  0  0  0  0  0999 V2000
   36.7080   24.2800   31.9380 C   0  0  0  0  0  0  0  0  0  0  0  0
   35.6080   24.2640   31.1050 C   0  0  0  0  0  0  0  0  0  0  0  0
   34.8770   25.3820   30.7700 C   0  0  0  0  0  0  0  0  0  0  0  0
   35.2370   26.6060   31.2810 C   0  0  0  0  0  0  0  0  0  0  0  0
   36.3190   26.6330   32.1010 C   0  0  0  0  0  0  0  0  0  0  0  0
   37.0940   25.5140   32.4670 C   0  0  0  0  0  0  0  0  0  0  0  0
   35.2310   23.3350   30.6510 H   0  0  0  0  0  0  0  0  0  0  0  0
   34.0260   25.2900   30.1120 H   0  0  0  0  0  0  0  0  0  0  0  0
   34.6510   27.4600   31.0070 H   0  0  0  0  0  0  0  0  0  0  0  0
   36.5330   27.6440   32.4540 H   0  0  0  0  0  0  0  0  0  0  0  0
   38.2110   25.6250   33.3660 C   0  0  1  0  0  0  0  0  0  0  0  0
   38.9990   26.9260   32.8500 C   0  0  0  0  0  0  0  0  0  0  0  0
   40.3260   27.0710   33.5880 C   0  0  0  0  0  0  0  0  0  0  0  0
   40.1350   26.8560   35.0600 C   0  0  0  0  0  0  0  0  0  0  0  0
   38.6940   27.1140   35.3410 C   0  0  0  0  0  0  0  0  0  0  0  0
   37.9140   25.9220   34.7850 C   0  0  2  0  0  0  0  0  0  0  0  0
   39.0640   25.0310   33.4160 H   0  0  0  0  0  0  0  0  0  0  0  0
   39.2260   26.7220   31.8000 H   0  0  0  0  0  0  0  0  0  0  0  0
   38.3600   27.7830   32.9530 H   0  0  0  0  0  0  0  0  0  0  0  0
   41.0450   26.3060   33.2150 H   0  0  0  0  0  0  0  0  0  0  0  0
   40.6570   28.1010   33.3570 H   0  0  0  0  0  0  0  0  0  0  0  0
   40.4370   25.8720   35.4140 H   0  0  0  0  0  0  0  0  0  0  0  0
   40.7320   27.6490   35.5720 H   0  0  0  0  0  0  0  0  0  0  0  0
   38.5540   27.0630   36.4530 H   0  0  0  0  0  0  0  0  0  0  0  0
   38.3300   28.0670   34.9690 H   0  0  0  0  0  0  0  0  0  0  0  0
   36.9310   26.2110   35.1030 H   0  0  0  0  0  0  0  0  0  0  0  0
   38.2650   24.7480   35.6910 C   0  0  0  0  0  0  0  0  0  0  0  0
   39.1010   24.0660   35.6070 H   0  0  0  0  0  0  0  0  0  0  0  0
   37.6670   24.3560   36.6800 O   0  0  0  0  0  0  0  0  0  0  0  0
   38.3480   22.6750   31.1680 C   0  0  0  0  0  0  0  0  0  0  0  0
   37.3720   23.0400   32.1510 C   0  0  0  0  0  0  0  0  0  0  0  0
   37.1820   22.1680   33.1930 C   0  0  0  0  0  0  0  0  0  0  0  0
   37.9070   21.0300   33.2560 N   0  0  0  0  0  0  0  0  0  0  0  0
   38.8400   20.7070   32.2920 C   0  0  0  0  0  0  0  0  0  0  0  0
   39.0710   21.5470   31.2170 N   0  0  0  0  0  0  0  0  0  0  0  0
   38.6340   23.2320   30.2900 H   0  0  0  0  0  0  0  0  0  0  0  0
   36.4870   22.1790   33.9730 H   0  0  0  0  0  0  0  0  0  0  0  0
   39.4130   19.7690   32.3750 H   0  0  0  0  0  0  0  0  0  0  0  0
  1 31  1  0  0  0  0
  1  6  1  0  0  0  0
  2  1  2  0  0  0  0
  3  2  1  0  0  0  0
  3  4  2  0  0  0  0
  4  5  1  0  0  0  0
  5 10  1  0  0  0  0
  5  6  2  0  0  0  0
  6 11  1  0  0  0  0
  7  2  1  0  0  0  0
  8  3  1  0  0  0  0
  9  4  1  0  0  0  0
 11 17  1  6  0  0  0
 11 16  1  0  0  0  0
 12 19  1  0  0  0  0
 12 11  1  0  0  0  0
 12 13  1  0  0  0  0
 13 14  1  0  0  0  0
 14 15  1  0  0  0  0
 14 22  1  0  0  0  0
 14 23  1  0  0  0  0
 15 24  1  0  0  0  0
 16 26  1  1  0  0  0
 16 15  1  0  0  0  0
 16 27  1  0  0  0  0
 18 12  1  0  0  0  0
 20 13  1  0  0  0  0
 21 13  1  0  0  0  0
 25 15  1  0  0  0  0
 27 29  2  0  0  0  0
 28 27  1  0  0  0  0
 30 35  2  0  0  0  0
 30 31  1  0  0  0  0
 31 32  2  0  0  0  0
 32 33  1  0  0  0  0
 32 37  1  0  0  0  0
 34 38  1  0  0  0  0
 34 33  2  0  0  0  0
 35 34  1  0  0  0  0
 36 30  1  0  0  0  0
M  END
>  <minimizedAffinity>
-4.87892866

$$$$

 OpenBabel03272506123D

 38 40  0  0  1  0  0  0  0  0999 V2000
   37.7480   26.7590   33.6960 C   0  0  0  0  0  0  0  0  0  0  0  0
   37.9230   27.4340   34.8870 C   0  0  0  0  0  0  0  0  0  0  0  0
   38.2090   26.8230   36.0870 C   0  0  0  0  0  0  0  0  0  0  0  0
   38.3340   25.4550   36.1390 C   0  0  0  0  0  0  0  0  0  0  0  0
   38.1630   24.7810   34.9730 C   0  0  0  0  0  0  0  0  0  0  0  0
   37.8720   25.3670   33.7250 C   0  0  0  0  0  0  0  0  0  0  0  0
   37.8360   28.5300   34.9560 H   0  0  0  0  0  0  0  0  0  0  0  0
   38.3320   27.4200   36.9780 H   0  0  0  0  0  0  0  0  0  0  0  0
   38.5550   25.0040   37.0850 H   0  0  0  0  0  0  0  0  0  0  0  0
   38.2850   23.7040   35.1090 H   0  0  0  0  0  0  0  0  0  0  0  0
   37.6800   24.5750   32.5400 C   0  0  1  0  0  0  0  0  0  0  0  0
   38.4640   23.2100   32.8520 C   0  0  0  0  0  0  0  0  0  0  0  0
   38.5160   22.3300   31.6060 C   0  0  0  0  0  0  0  0  0  0  0  0
   37.1720   22.2780   30.9430 C   0  0  0  0  0  0  0  0  0  0  0  0
   36.1710   22.6330   31.9890 C   0  0  0  0  0  0  0  0  0  0  0  0
   36.3000   24.1370   32.2320 C   0  0  2  0  0  0  0  0  0  0  0  0
   38.1100   24.7000   31.6000 H   0  0  0  0  0  0  0  0  0  0  0  0
   39.4880   23.5170   33.0820 H   0  0  0  0  0  0  0  0  0  0  0  0
   38.0020   22.7270   33.6930 H   0  0  0  0  0  0  0  0  0  0  0  0
   39.2460   22.7570   30.8810 H   0  0  0  0  0  0  0  0  0  0  0  0
   38.8340   21.3400   31.9830 H   0  0  0  0  0  0  0  0  0  0  0  0
   37.0760   22.9190   30.0690 H   0  0  0  0  0  0  0  0  0  0  0  0
   37.0060   21.2110   30.6570 H   0  0  0  0  0  0  0  0  0  0  0  0
   35.1530   22.4950   31.5400 H   0  0  0  0  0  0  0  0  0  0  0  0
   36.2520   22.0500   32.9010 H   0  0  0  0  0  0  0  0  0  0  0  0
   35.5040   24.2540   32.9410 H   0  0  0  0  0  0  0  0  0  0  0  0
   35.7680   24.8010   30.9680 C   0  0  0  0  0  0  0  0  0  0  0  0
   36.2930   24.9870   30.0400 H   0  0  0  0  0  0  0  0  0  0  0  0
   34.6510   25.2480   30.7650 O   0  0  0  0  0  0  0  0  0  0  0  0
   36.1930   28.1440   32.4620 C   0  0  0  0  0  0  0  0  0  0  0  0
   37.4930   27.5470   32.5400 C   0  0  0  0  0  0  0  0  0  0  0  0
   38.3570   27.7990   31.5030 C   0  0  0  0  0  0  0  0  0  0  0  0
   37.9620   28.5840   30.4780 N   0  0  0  0  0  0  0  0  0  0  0  0
   36.7020   29.1440   30.4330 C   0  0  0  0  0  0  0  0  0  0  0  0
   35.7880   28.9210   31.4490 N   0  0  0  0  0  0  0  0  0  0  0  0
   35.3910   28.0620   33.1780 H   0  0  0  0  0  0  0  0  0  0  0  0
   39.3090   27.4210   31.3030 H   0  0  0  0  0  0  0  0  0  0  0  0
   36.4130   29.7800   29.5800 H   0  0  0  0  0  0  0  0  0  0  0  0
  1  6  2  0  0  0  0
  1  2  1  0  0  0  0
  2  7  1  0  0  0  0
  2  3  2  0  0  0  0
  3  4  1  0  0  0  0
  3  8  1  0  0  0  0
  4  9  1  0  0  0  0
  5 10  1  0  0  0  0
  5  4  2  0  0  0  0
  6  5  1  0  0  0  0
 11 17  1  6  0  0  0
 11 12  1  0  0  0  0
 11  6  1  0  0  0  0
 12 18  1  0  0  0  0
 12 19  1  0  0  0  0
 13 21  1  0  0  0  0
 13 12  1  0  0  0  0
 14 13  1  0  0  0  0
 14 15  1  0  0  0  0
 15 16  1  0  0  0  0
 15 25  1  0  0  0  0
 16 11  1  0  0  0  0
 16 26  1  1  0  0  0
 20 13  1  0  0  0  0
 22 14  1  0  0  0  0
 23 14  1  0  0  0  0
 24 15  1  0  0  0  0
 27 16  1  0  0  0  0
 28 27  1  0  0  0  0
 29 27  2  0  0  0  0
 30 31  1  0  0  0  0
 30 36  1  0  0  0  0
 31  1  1  0  0  0  0
 32 31  2  0  0  0  0
 33 32  1  0  0  0  0
 34 33  2  0  0  0  0
 34 35  1  0  0  0  0
 35 30  2  0  0  0  0
 37 32  1  0  0  0  0
 38 34  1  0  0  0  0
M  END
>  <minimizedAffinity>
-4.85848761

$$$$

 OpenBabel03272506123D

 38 40  0  0  1  0  0  0  0  0999 V2000
   37.2660   24.3820   32.6700 C   0  0  0  0  0  0  0  0  0  0  0  0
   37.0310   25.7130   32.3960 C   0  0  0  0  0  0  0  0  0  0  0  0
   36.0490   26.1650   31.5430 C   0  0  0  0  0  0  0  0  0  0  0  0
   35.2340   25.2590   30.9070 C   0  0  0  0  0  0  0  0  0  0  0  0
   35.4560   23.9460   31.1700 C   0  0  0  0  0  0  0  0  0  0  0  0
   36.4480   23.4430   32.0350 C   0  0  0  0  0  0  0  0  0  0  0  0
   37.6330   26.5180   32.8460 H   0  0  0  0  0  0  0  0  0  0  0  0
   35.9270   27.2250   31.3780 H   0  0  0  0  0  0  0  0  0  0  0  0
   34.4790   25.6360   30.2470 H   0  0  0  0  0  0  0  0  0  0  0  0
   34.7610   23.3030   30.6270 H   0  0  0  0  0  0  0  0  0  0  0  0
   36.6340   22.0310   32.2380 C   0  0  1  0  0  0  0  0  0  0  0  0
   35.1410   21.4450   32.2950 C   0  0  0  0  0  0  0  0  0  0  0  0
   35.1630   19.9730   32.6980 C   0  0  0  0  0  0  0  0  0  0  0  0
   36.2210   19.2340   31.9340 C   0  0  0  0  0  0  0  0  0  0  0  0
   36.4920   20.0360   30.7060 C   0  0  0  0  0  0  0  0  0  0  0  0
   37.2810   21.2680   31.1470 C   0  0  2  0  0  0  0  0  0  0  0  0
   36.9460   21.5360   33.0990 H   0  0  0  0  0  0  0  0  0  0  0  0
   34.6490   22.0000   33.0980 H   0  0  0  0  0  0  0  0  0  0  0  0
   34.6630   21.6190   31.3490 H   0  0  0  0  0  0  0  0  0  0  0  0
   35.3950   19.8900   33.7850 H   0  0  0  0  0  0  0  0  0  0  0  0
   34.1460   19.6090   32.4600 H   0  0  0  0  0  0  0  0  0  0  0  0
   37.1350   19.0490   32.4950 H   0  0  0  0  0  0  0  0  0  0  0  0
   35.7600   18.2670   31.6180 H   0  0  0  0  0  0  0  0  0  0  0  0
   37.2020   19.4450   30.0700 H   0  0  0  0  0  0  0  0  0  0  0  0
   35.6050   20.2850   30.1310 H   0  0  0  0  0  0  0  0  0  0  0  0
   37.4500   21.7050   30.1820 H   0  0  0  0  0  0  0  0  0  0  0  0
   38.6520   20.7480   31.5610 C   0  0  0  0  0  0  0  0  0  0  0  0
   39.4010   20.2720   30.9420 H   0  0  0  0  0  0  0  0  0  0  0  0
   39.1610   20.7680   32.6700 O   0  0  0  0  0  0  0  0  0  0  0  0
   39.6360   24.1340   33.0940 C   0  0  0  0  0  0  0  0  0  0  0  0
   38.2980   24.0890   33.6040 C   0  0  0  0  0  0  0  0  0  0  0  0
   38.1490   23.7770   34.9320 C   0  0  0  0  0  0  0  0  0  0  0  0
   39.2400   23.5360   35.6910 N   0  0  0  0  0  0  0  0  0  0  0  0
   40.5150   23.5870   35.1690 C   0  0  0  0  0  0  0  0  0  0  0  0
   40.7260   23.8930   33.8350 N   0  0  0  0  0  0  0  0  0  0  0  0
   39.9460   24.3630   32.0870 H   0  0  0  0  0  0  0  0  0  0  0  0
   37.2880   23.6120   35.5000 H   0  0  0  0  0  0  0  0  0  0  0  0
   41.3830   23.3840   35.8180 H   0  0  0  0  0  0  0  0  0  0  0  0
  1 31  1  0  0  0  0
  2  1  1  0  0  0  0
  2  7  1  0  0  0  0
  3  2  2  0  0  0  0
  4  5  2  0  0  0  0
  4  3  1  0  0  0  0
  5  6  1  0  0  0  0
  6 11  1  0  0  0  0
  6  1  2  0  0  0  0
  8  3  1  0  0  0  0
  9  4  1  0  0  0  0
 10  5  1  0  0  0  0
 11 12  1  0  0  0  0
 11 17  1  1  0  0  0
 12 13  1  0  0  0  0
 12 18  1  0  0  0  0
 13 20  1  0  0  0  0
 14 22  1  0  0  0  0
 14 13  1  0  0  0  0
 15 16  1  0  0  0  0
 15 14  1  0  0  0  0
 16 26  1  6  0  0  0
 16 27  1  0  0  0  0
 16 11  1  0  0  0  0
 19 12  1  0  0  0  0
 21 13  1  0  0  0  0
 23 14  1  0  0  0  0
 24 15  1  0  0  0  0
 25 15  1  0  0  0  0
 27 29  2  0  0  0  0
 28 27  1  0  0  0  0
 30 31  2  0  0  0  0
 30 35  1  0  0  0  0
 31 32  1  0  0  0  0
 32 37  1  0  0  0  0
 32 33  2  0  0  0  0
 34 33  1  0  0  0  0
 34 38  1  0  0  0  0
 35 34  2  0  0  0  0
 36 30  1  0  0  0  0
M  END
>  <minimizedAffinity>
-4.79152489

$$$$

 OpenBabel03272506123D

 38 40  0  0  1  0  0  0  0  0999 V2000
   37.6980   25.4650   33.4790 C   0  0  0  0  0  0  0  0  0  0  0  0
   37.1630   26.6910   33.1380 C   0  0  0  0  0  0  0  0  0  0  0  0
   37.0550   27.7540   34.0060 C   0  0  0  0  0  0  0  0  0  0  0  0
   37.4980   27.6210   35.3010 C   0  0  0  0  0  0  0  0  0  0  0  0
   38.0270   26.4190   35.6460 C   0  0  0  0  0  0  0  0  0  0  0  0
   38.1560   25.3080   34.7900 C   0  0  0  0  0  0  0  0  0  0  0  0
   36.7720   26.8990   32.1300 H   0  0  0  0  0  0  0  0  0  0  0  0
   36.6240   28.6840   33.6660 H   0  0  0  0  0  0  0  0  0  0  0  0
   37.4020   28.4630   35.9560 H   0  0  0  0  0  0  0  0  0  0  0  0
   38.3560   26.4080   36.6880 H   0  0  0  0  0  0  0  0  0  0  0  0
   38.7050   24.0580   35.2440 C   0  0  1  0  0  0  0  0  0  0  0  0
   40.2400   24.4000   35.5640 C   0  0  0  0  0  0  0  0  0  0  0  0
   41.0150   23.1240   35.8800 C   0  0  0  0  0  0  0  0  0  0  0  0
   40.2360   22.2570   36.8240 C   0  0  0  0  0  0  0  0  0  0  0  0
   39.2750   23.1540   37.5260 C   0  0  0  0  0  0  0  0  0  0  0  0
   38.1840   23.5110   36.5170 C   0  0  2  0  0  0  0  0  0  0  0  0
   38.9280   23.2080   34.6870 H   0  0  0  0  0  0  0  0  0  0  0  0
   40.6410   24.8070   34.6320 H   0  0  0  0  0  0  0  0  0  0  0  0
   40.2770   25.1260   36.3560 H   0  0  0  0  0  0  0  0  0  0  0  0
   41.1840   22.5510   34.9400 H   0  0  0  0  0  0  0  0  0  0  0  0
   41.9610   23.4810   36.3270 H   0  0  0  0  0  0  0  0  0  0  0  0
   39.7240   21.4220   36.3500 H   0  0  0  0  0  0  0  0  0  0  0  0
   40.9680   21.8800   37.5780 H   0  0  0  0  0  0  0  0  0  0  0  0
   38.7580   22.5430   38.3120 H   0  0  0  0  0  0  0  0  0  0  0  0
   39.7310   24.0280   37.9820 H   0  0  0  0  0  0  0  0  0  0  0  0
   37.5540   24.0930   37.1600 H   0  0  0  0  0  0  0  0  0  0  0  0
   37.3980   22.2250   36.2950 C   0  0  0  0  0  0  0  0  0  0  0  0
   36.9420   21.5840   37.0390 H   0  0  0  0  0  0  0  0  0  0  0  0
   37.1350   21.6760   35.2370 O   0  0  0  0  0  0  0  0  0  0  0  0
   38.9290   24.5380   31.6120 C   0  0  0  0  0  0  0  0  0  0  0  0
   37.7680   24.4850   32.4500 C   0  0  0  0  0  0  0  0  0  0  0  0
   36.8520   23.4990   32.1830 C   0  0  0  0  0  0  0  0  0  0  0  0
   37.0750   22.6340   31.1700 N   0  0  0  0  0  0  0  0  0  0  0  0
   38.2030   22.7110   30.3810 C   0  0  0  0  0  0  0  0  0  0  0  0
   39.1590   23.6880   30.6020 N   0  0  0  0  0  0  0  0  0  0  0  0
   39.7500   25.2340   31.6740 H   0  0  0  0  0  0  0  0  0  0  0  0
   35.9120   23.3120   32.5980 H   0  0  0  0  0  0  0  0  0  0  0  0
   38.3520   21.9880   29.5620 H   0  0  0  0  0  0  0  0  0  0  0  0
  1  6  1  0  0  0  0
  2  1  2  0  0  0  0
  2  3  1  0  0  0  0
  3  4  2  0  0  0  0
  4  5  1  0  0  0  0
  4  9  1  0  0  0  0
  5 10  1  0  0  0  0
  6 11  1  0  0  0  0
  6  5  2  0  0  0  0
  7  2  1  0  0  0  0
  8  3  1  0  0  0  0
 11 17  1  6  0  0  0
 11 12  1  0  0  0  0
 11 16  1  0  0  0  0
 12 13  1  0  0  0  0
 12 19  1  0  0  0  0
 13 21  1  0  0  0  0
 13 14  1  0  0  0  0
 14 15  1  0  0  0  0
 14 23  1  0  0  0  0
 15 25  1  0  0  0  0
 15 24  1  0  0  0  0
 16 26  1  1  0  0  0
 16 15  1  0  0  0  0
 18 12  1  0  0  0  0
 20 13  1  0  0  0  0
 22 14  1  0  0  0  0
 27 16  1  0  0  0  0
 27 28  1  0  0  0  0
 29 27  2  0  0  0  0
 30 36  1  0  0  0  0
 30 31  1  0  0  0  0
 31  1  1  0  0  0  0
 32 31  2  0  0  0  0
 32 37  1  0  0  0  0
 33 32  1  0  0  0  0
 34 35  1  0  0  0  0
 34 33  2  0  0  0  0
 35 30  2  0  0  0  0
 38 34  1  0  0  0  0
M  END
>  <minimizedAffinity>
-4.7835598

$$$$

 OpenBabel03272506123D

 38 40  0  0  1  0  0  0  0  0999 V2000
   36.3050   23.4780   31.8020 C   0  0  0  0  0  0  0  0  0  0  0  0
   35.4080   24.2620   31.1040 C   0  0  0  0  0  0  0  0  0  0  0  0
   35.4080   25.6380   31.1220 C   0  0  0  0  0  0  0  0  0  0  0  0
   36.3460   26.3070   31.8720 C   0  0  0  0  0  0  0  0  0  0  0  0
   37.2330   25.5460   32.5630 C   0  0  0  0  0  0  0  0  0  0  0  0
   37.2680   24.1380   32.5710 C   0  0  0  0  0  0  0  0  0  0  0  0
   34.6130   23.8260   30.4800 H   0  0  0  0  0  0  0  0  0  0  0  0
   34.6730   26.1830   30.5480 H   0  0  0  0  0  0  0  0  0  0  0  0
   36.3230   27.3790   31.8710 H   0  0  0  0  0  0  0  0  0  0  0  0
   37.9400   26.1610   33.1240 H   0  0  0  0  0  0  0  0  0  0  0  0
   38.2270   23.4060   33.3540 C   0  0  1  0  0  0  0  0  0  0  0  0
   39.6480   23.9200   32.8100 C   0  0  0  0  0  0  0  0  0  0  0  0
   40.7790   23.0930   33.4130 C   0  0  0  0  0  0  0  0  0  0  0  0
   40.5710   22.9130   34.8880 C   0  0  0  0  0  0  0  0  0  0  0  0
   39.6720   24.0200   35.3250 C   0  0  0  0  0  0  0  0  0  0  0  0
   38.2730   23.6860   34.8060 C   0  0  2  0  0  0  0  0  0  0  0  0
   38.4800   22.3980   33.2930 H   0  0  0  0  0  0  0  0  0  0  0  0
   39.6290   23.7190   31.7350 H   0  0  0  0  0  0  0  0  0  0  0  0
   39.7370   24.9710   33.0110 H   0  0  0  0  0  0  0  0  0  0  0  0
   40.7950   22.0850   32.9390 H   0  0  0  0  0  0  0  0  0  0  0  0
   41.6930   23.6740   33.1890 H   0  0  0  0  0  0  0  0  0  0  0  0
   40.1680   21.9430   35.1710 H   0  0  0  0  0  0  0  0  0  0  0  0
   41.5680   23.0710   35.3660 H   0  0  0  0  0  0  0  0  0  0  0  0
   39.5920   23.9660   36.4420 H   0  0  0  0  0  0  0  0  0  0  0  0
   40.0070   25.0100   35.0290 H   0  0  0  0  0  0  0  0  0  0  0  0
   37.7420   24.5140   35.2340 H   0  0  0  0  0  0  0  0  0  0  0  0
   37.8110   22.4870   35.6250 C   0  0  0  0  0  0  0  0  0  0  0  0
   38.0960   22.2170   36.6340 H   0  0  0  0  0  0  0  0  0  0  0  0
   37.0340   21.6060   35.2970 O   0  0  0  0  0  0  0  0  0  0  0  0
   35.1160   21.4460   32.3620 C   0  0  0  0  0  0  0  0  0  0  0  0
   36.1880   22.0700   31.6440 C   0  0  0  0  0  0  0  0  0  0  0  0
   36.9820   21.2530   30.8790 C   0  0  0  0  0  0  0  0  0  0  0  0
   36.7280   19.9280   30.8270 N   0  0  0  0  0  0  0  0  0  0  0  0
   35.6880   19.3580   31.5310 C   0  0  0  0  0  0  0  0  0  0  0  0
   34.8560   20.1320   32.3220 N   0  0  0  0  0  0  0  0  0  0  0  0
   34.3930   21.9230   33.0040 H   0  0  0  0  0  0  0  0  0  0  0  0
   37.8520   21.4610   30.3400 H   0  0  0  0  0  0  0  0  0  0  0  0
   35.5100   18.2720   31.4650 H   0  0  0  0  0  0  0  0  0  0  0  0
  1  6  1  0  0  0  0
  2  3  1  0  0  0  0
  2  1  2  0  0  0  0
  3  4  2  0  0  0  0
  4  5  1  0  0  0  0
  5  6  2  0  0  0  0
  5 10  1  0  0  0  0
  6 11  1  0  0  0  0
  7  2  1  0  0  0  0
  8  3  1  0  0  0  0
  9  4  1  0  0  0  0
 11 17  1  6  0  0  0
 11 16  1  0  0  0  0
 12 19  1  0  0  0  0
 12 11  1  0  0  0  0
 12 13  1  0  0  0  0
 13 14  1  0  0  0  0
 14 22  1  0  0  0  0
 14 15  1  0  0  0  0
 14 23  1  0  0  0  0
 15 24  1  0  0  0  0
 16 26  1  1  0  0  0
 16 15  1  0  0  0  0
 16 27  1  0  0  0  0
 18 12  1  0  0  0  0
 20 13  1  0  0  0  0
 21 13  1  0  0  0  0
 25 15  1  0  0  0  0
 27 28  1  0  0  0  0
 29 27  2  0  0  0  0
 30 36  1  0  0  0  0
 31  1  1  0  0  0  0
 31 30  2  0  0  0  0
 32 31  1  0  0  0  0
 33 32  2  0  0  0  0
 33 34  1  0  0  0  0
 34 35  2  0  0  0  0
 35 30  1  0  0  0  0
 37 32  1  0  0  0  0
 38 34  1  0  0  0  0
M  END
>  <minimizedAffinity>
-4.73990631

$$$$
