
 OpenBabel03262523083D

 14 14  0  0  0  0  0  0  0  0999 V2000
   37.4140   30.0930   50.7310 C   0  0  0  0  0  0  0  0  0  0  0  0
   37.8670   31.2590   50.0670 C   0  0  0  0  0  0  0  0  0  0  0  0
   37.2730   31.5680   48.8480 C   0  0  0  0  0  0  0  0  0  0  0  0
   36.2980   30.7330   48.3740 N   0  0  0  0  0  0  0  0  0  0  0  0
   35.8940   29.6390   49.0280 C   0  0  0  0  0  0  0  0  0  0  0  0
   36.4550   29.3170   50.2130 N   0  0  0  0  0  0  0  0  0  0  0  0
   38.6480   31.8410   50.5430 H   0  0  0  0  0  0  0  0  0  0  0  0
   37.6050   32.4400   48.3390 H   0  0  0  0  0  0  0  0  0  0  0  0
   37.9570   29.6810   51.9930 N   0  0  0  0  0  0  0  0  0  0  0  0
   37.3610   29.3820   52.7790 H   0  0  0  0  0  0  0  0  0  0  0  0
   38.9650   29.6430   52.2320 H   0  0  0  0  0  0  0  0  0  0  0  0
   34.8480   28.7880   48.4710 C   0  0  0  0  0  0  0  0  0  0  0  0
   34.4820   28.9490   47.4690 H   0  0  0  0  0  0  0  0  0  0  0  0
   34.4380   27.8780   49.2640 O   0  0  0  0  0  0  0  0  0  0  0  0
  1  9  1  0  0  0  0
  2  7  1  0  0  0  0
  2  1  2  0  0  0  0
  3  2  1  0  0  0  0
  4  3  2  0  0  0  0
  4  5  1  0  0  0  0
  5  6  2  0  0  0  0
  6  1  1  0  0  0  0
  8  3  1  0  0  0  0
  9 11  1  0  0  0  0
  9 10  1  0  0  0  0
 12  5  1  0  0  0  0
 12 14  2  0  0  0  0
 13 12  1  0  0  0  0
M  END
>  <minimizedAffinity>
-3.60326052

>  <minimizedRMSD>
0.248722777

$$$$
