
 OpenBabel03272502443D

 29 31  0  0  0  0  0  0  0  0999 V2000
   38.1010   32.6070   49.5120 C   0  0  0  0  0  0  0  0  0  0  0  0
   38.7990   32.9340   48.3530 C   0  0  0  0  0  0  0  0  0  0  0  0
   38.4000   32.2600   47.1800 C   0  0  0  0  0  0  0  0  0  0  0  0
   37.3880   31.3560   47.2460 N   0  0  0  0  0  0  0  0  0  0  0  0
   36.7430   31.0770   48.4060 C   0  0  0  0  0  0  0  0  0  0  0  0
   37.1200   31.7150   49.5220 N   0  0  0  0  0  0  0  0  0  0  0  0
   38.3930   33.1150   50.4310 H   0  0  0  0  0  0  0  0  0  0  0  0
   39.5910   33.6350   48.2760 H   0  0  0  0  0  0  0  0  0  0  0  0
   37.0280   28.9350   50.4340 Cl  0  0  0  0  0  0  0  0  0  0  0  0
   35.7060   29.0550   49.3220 C   0  0  0  0  0  0  0  0  0  0  0  0
   35.6710   30.1010   48.4120 C   0  0  0  0  0  0  0  0  0  0  0  0
   34.6450   30.2200   47.5260 C   0  0  0  0  0  0  0  0  0  0  0  0
   33.6020   29.3130   47.4970 C   0  0  0  0  0  0  0  0  0  0  0  0
   33.6120   28.2630   48.3920 C   0  0  0  0  0  0  0  0  0  0  0  0
   32.3550   27.0430   48.4620 Cl  0  0  0  0  0  0  0  0  0  0  0  0
   34.6610   28.1650   49.2750 C   0  0  0  0  0  0  0  0  0  0  0  0
   34.6500   31.0460   46.8320 H   0  0  0  0  0  0  0  0  0  0  0  0
   32.7800   29.3940   46.7980 H   0  0  0  0  0  0  0  0  0  0  0  0
   34.6870   27.3420   49.9900 H   0  0  0  0  0  0  0  0  0  0  0  0
   39.0470   32.5090   45.8950 C   0  0  0  0  0  0  0  0  0  0  0  0
   40.4140   32.5620   45.7180 C   0  0  0  0  0  0  0  0  0  0  0  0
   40.7090   32.8100   44.4110 N   0  0  0  0  0  0  0  0  0  0  0  0
   39.5300   32.9110   43.7810 C   0  0  0  0  0  0  0  0  0  0  0  0
   38.5620   32.7300   44.6760 N   0  0  0  0  0  0  0  0  0  0  0  0
   41.2210   32.4360   46.4540 H   0  0  0  0  0  0  0  0  0  0  0  0
   41.6450   32.9080   43.9570 H   0  0  0  0  0  0  0  0  0  0  0  0
   39.2430   33.1690   42.3740 C   0  0  0  0  0  0  0  0  0  0  0  0
   38.9000   34.1080   41.9830 H   0  0  0  0  0  0  0  0  0  0  0  0
   39.3700   32.3010   41.4490 O   0  0  0  0  0  0  0  0  0  0  0  0
  1  6  1  0  0  0  0
  1  7  1  0  0  0  0
  2  1  2  0  0  0  0
  3  4  2  0  0  0  0
  3  2  1  0  0  0  0
  4  5  1  0  0  0  0
  5 11  1  0  0  0  0
  5  6  2  0  0  0  0
  8  2  1  0  0  0  0
 10  9  1  0  0  0  0
 11 10  2  0  0  0  0
 12 11  1  0  0  0  0
 13 12  2  0  0  0  0
 13 14  1  0  0  0  0
 14 15  1  0  0  0  0
 14 16  2  0  0  0  0
 16 10  1  0  0  0  0
 16 19  1  0  0  0  0
 17 12  1  0  0  0  0
 18 13  1  0  0  0  0
 20  3  1  0  0  0  0
 21 20  2  0  0  0  0
 21 25  1  0  0  0  0
 22 21  1  0  0  0  0
 23 22  1  0  0  0  0
 23 24  2  0  0  0  0
 24 20  1  0  0  0  0
 26 22  1  0  0  0  0
 27 23  1  0  0  0  0
 28 27  1  0  0  0  0
 29 27  2  0  0  0  0
M  END
>  <minimizedAffinity>
-6.46724367

>  <minimizedRMSD>
1.26608276

$$$$
