
 OpenBabel03272507513D

 22 23  0  0  0  0  0  0  0  0999 V2000
   39.3470   24.3180   35.9450 N   0  0  0  0  0  0  0  0  0  0  0  0
   40.6230   24.1050   35.5840 C   0  0  0  0  0  0  0  0  0  0  0  0
   41.3610   23.0880   36.1620 C   0  0  0  0  0  0  0  0  0  0  0  0
   40.6580   22.3680   37.0940 C   0  0  0  0  0  0  0  0  0  0  0  0
   41.2910   21.4110   37.6650 O   0  0  0  0  0  0  0  0  0  0  0  0
   39.3890   22.5440   37.4840 N   0  0  0  0  0  0  0  0  0  0  0  0
   38.7160   23.5600   36.8800 C   0  0  0  0  0  0  0  0  0  0  0  0
   37.5250   23.7520   37.2210 O   0  0  0  0  0  0  0  0  0  0  0  0
   41.0700   24.7520   34.8240 H   0  0  0  0  0  0  0  0  0  0  0  0
   42.3700   22.8900   35.9020 H   0  0  0  0  0  0  0  0  0  0  0  0
   38.9300   21.9610   38.1940 H   0  0  0  0  0  0  0  0  0  0  0  0
   37.9270   25.1330   34.1450 C   0  0  0  0  0  0  0  0  0  0  0  0
   38.5730   25.3630   35.3680 C   0  0  0  0  0  0  0  0  0  0  0  0
   38.4000   26.6340   35.9380 C   0  0  0  0  0  0  0  0  0  0  0  0
   37.6360   27.5410   35.2850 N   0  0  0  0  0  0  0  0  0  0  0  0
   37.0360   27.2830   34.1200 C   0  0  0  0  0  0  0  0  0  0  0  0
   37.1770   26.0800   33.5430 N   0  0  0  0  0  0  0  0  0  0  0  0
   38.8980   26.8150   36.8850 H   0  0  0  0  0  0  0  0  0  0  0  0
   36.4330   28.0310   33.6240 H   0  0  0  0  0  0  0  0  0  0  0  0
   38.0220   23.8660   33.4410 C   0  0  0  0  0  0  0  0  0  0  0  0
   38.6940   23.6820   32.6200 H   0  0  0  0  0  0  0  0  0  0  0  0
   37.4310   22.7680   33.5680 O   0  0  0  0  0  0  0  0  0  0  0  0
  1  7  1  0  0  0  0
  2  1  1  0  0  0  0
  2  3  2  0  0  0  0
  3  4  1  0  0  0  0
  4  6  1  0  0  0  0
  4  5  2  0  0  0  0
  6 11  1  0  0  0  0
  7  8  2  0  0  0  0
  7  6  1  0  0  0  0
  9  2  1  0  0  0  0
 10  3  1  0  0  0  0
 12 13  1  0  0  0  0
 13 14  2  0  0  0  0
 13  1  1  0  0  0  0
 14 18  1  0  0  0  0
 15 14  1  0  0  0  0
 16 15  2  0  0  0  0
 17 16  1  0  0  0  0
 17 12  2  0  0  0  0
 19 16  1  0  0  0  0
 20 22  2  0  0  0  0
 20 12  1  0  0  0  0
 21 20  1  0  0  0  0
M  END
>  <minimizedAffinity>
-4.44533014

$$$$

 OpenBabel03272507513D

 22 23  0  0  0  0  0  0  0  0999 V2000
   39.2570   23.5390   35.1230 N   0  0  0  0  0  0  0  0  0  0  0  0
   40.5720   23.7940   35.2160 C   0  0  0  0  0  0  0  0  0  0  0  0
   41.3610   23.1190   36.1300 C   0  0  0  0  0  0  0  0  0  0  0  0
   40.6640   22.2090   36.8810 C   0  0  0  0  0  0  0  0  0  0  0  0
   41.3430   21.5520   37.7480 O   0  0  0  0  0  0  0  0  0  0  0  0
   39.3580   21.9220   36.8240 N   0  0  0  0  0  0  0  0  0  0  0  0
   38.6350   22.6190   35.9060 C   0  0  0  0  0  0  0  0  0  0  0  0
   37.4080   22.3740   35.8250 O   0  0  0  0  0  0  0  0  0  0  0  0
   41.0100   24.5480   34.5540 H   0  0  0  0  0  0  0  0  0  0  0  0
   42.4020   23.2950   36.2300 H   0  0  0  0  0  0  0  0  0  0  0  0
   38.9050   21.2230   37.4260 H   0  0  0  0  0  0  0  0  0  0  0  0
   37.9070   25.4800   34.5500 C   0  0  0  0  0  0  0  0  0  0  0  0
   38.4270   24.2270   34.1950 C   0  0  0  0  0  0  0  0  0  0  0  0
   38.0800   23.7430   32.9250 C   0  0  0  0  0  0  0  0  0  0  0  0
   37.2810   24.4990   32.1360 N   0  0  0  0  0  0  0  0  0  0  0  0
   36.8050   25.6890   32.5100 C   0  0  0  0  0  0  0  0  0  0  0  0
   37.1140   26.1870   33.7180 N   0  0  0  0  0  0  0  0  0  0  0  0
   38.4810   22.7730   32.6470 H   0  0  0  0  0  0  0  0  0  0  0  0
   36.1680   26.2680   31.8560 H   0  0  0  0  0  0  0  0  0  0  0  0
   38.1810   26.1010   35.8340 C   0  0  0  0  0  0  0  0  0  0  0  0
   37.8900   25.6790   36.7810 H   0  0  0  0  0  0  0  0  0  0  0  0
   38.7570   27.1620   36.1680 O   0  0  0  0  0  0  0  0  0  0  0  0
  1  2  1  0  0  0  0
  1  7  1  0  0  0  0
  2  3  2  0  0  0  0
  3 10  1  0  0  0  0
  3  4  1  0  0  0  0
  4  5  2  0  0  0  0
  6  4  1  0  0  0  0
  6 11  1  0  0  0  0
  7  6  1  0  0  0  0
  8  7  2  0  0  0  0
  9  2  1  0  0  0  0
 12 20  1  0  0  0  0
 13 12  1  0  0  0  0
 13  1  1  0  0  0  0
 14 13  2  0  0  0  0
 15 16  2  0  0  0  0
 15 14  1  0  0  0  0
 16 17  1  0  0  0  0
 17 12  2  0  0  0  0
 18 14  1  0  0  0  0
 19 16  1  0  0  0  0
 20 22  2  0  0  0  0
 20 21  1  0  0  0  0
M  END
>  <minimizedAffinity>
-4.31449366

$$$$

 OpenBabel03272507513D

 22 23  0  0  0  0  0  0  0  0999 V2000
   38.8300   25.2820   35.3880 N   0  0  0  0  0  0  0  0  0  0  0  0
   38.8630   26.4940   35.9680 C   0  0  0  0  0  0  0  0  0  0  0  0
   38.0460   27.5150   35.5190 C   0  0  0  0  0  0  0  0  0  0  0  0
   37.2460   27.1480   34.4670 C   0  0  0  0  0  0  0  0  0  0  0  0
   36.4650   28.0550   34.0070 O   0  0  0  0  0  0  0  0  0  0  0  0
   37.1800   25.9570   33.8590 N   0  0  0  0  0  0  0  0  0  0  0  0
   38.0080   24.9930   34.3460 C   0  0  0  0  0  0  0  0  0  0  0  0
   37.9710   23.8650   33.8010 O   0  0  0  0  0  0  0  0  0  0  0  0
   39.5490   26.6580   36.8040 H   0  0  0  0  0  0  0  0  0  0  0  0
   38.0450   28.4830   35.9520 H   0  0  0  0  0  0  0  0  0  0  0  0
   36.5510   25.7580   33.0710 H   0  0  0  0  0  0  0  0  0  0  0  0
   39.2550   23.4400   36.9200 C   0  0  0  0  0  0  0  0  0  0  0  0
   39.6680   24.2210   35.8310 C   0  0  0  0  0  0  0  0  0  0  0  0
   40.9010   23.8840   35.2520 C   0  0  0  0  0  0  0  0  0  0  0  0
   41.6020   22.8480   35.7690 N   0  0  0  0  0  0  0  0  0  0  0  0
   41.1740   22.1280   36.8090 C   0  0  0  0  0  0  0  0  0  0  0  0
   39.9990   22.4180   37.3900 N   0  0  0  0  0  0  0  0  0  0  0  0
   41.2230   24.4860   34.4080 H   0  0  0  0  0  0  0  0  0  0  0  0
   41.7580   21.3060   37.1990 H   0  0  0  0  0  0  0  0  0  0  0  0
   38.0030   23.6780   37.6170 C   0  0  0  0  0  0  0  0  0  0  0  0
   37.0630   23.2350   37.3350 H   0  0  0  0  0  0  0  0  0  0  0  0
   37.6950   24.3720   38.6140 O   0  0  0  0  0  0  0  0  0  0  0  0
  1 13  1  0  0  0  0
  1  2  1  0  0  0  0
  2  9  1  0  0  0  0
  3 10  1  0  0  0  0
  3  2  2  0  0  0  0
  4  3  1  0  0  0  0
  5  4  2  0  0  0  0
  6  7  1  0  0  0  0
  6  4  1  0  0  0  0
  7  1  1  0  0  0  0
  8  7  2  0  0  0  0
 11  6  1  0  0  0  0
 12 17  1  0  0  0  0
 12 20  1  0  0  0  0
 13 12  2  0  0  0  0
 14 15  2  0  0  0  0
 14 13  1  0  0  0  0
 15 16  1  0  0  0  0
 16 19  1  0  0  0  0
 16 17  2  0  0  0  0
 18 14  1  0  0  0  0
 20 22  2  0  0  0  0
 21 20  1  0  0  0  0
M  END
>  <minimizedAffinity>
-4.27102184

$$$$

 OpenBabel03272507513D

 22 23  0  0  0  0  0  0  0  0999 V2000
   38.7080   23.0590   35.5830 N   0  0  0  0  0  0  0  0  0  0  0  0
   38.2330   22.2770   34.6000 C   0  0  0  0  0  0  0  0  0  0  0  0
   37.1080   21.4970   34.7970 C   0  0  0  0  0  0  0  0  0  0  0  0
   36.5730   21.6240   36.0530 C   0  0  0  0  0  0  0  0  0  0  0  0
   35.5270   20.9240   36.2960 O   0  0  0  0  0  0  0  0  0  0  0  0
   37.0110   22.3890   37.0610 N   0  0  0  0  0  0  0  0  0  0  0  0
   38.1220   23.1320   36.8060 C   0  0  0  0  0  0  0  0  0  0  0  0
   38.5580   23.8610   37.7280 O   0  0  0  0  0  0  0  0  0  0  0  0
   38.7540   22.2660   33.6370 H   0  0  0  0  0  0  0  0  0  0  0  0
   36.7050   20.8690   34.0440 H   0  0  0  0  0  0  0  0  0  0  0  0
   36.5530   22.4290   37.9810 H   0  0  0  0  0  0  0  0  0  0  0  0
   41.1190   23.3370   35.7560 C   0  0  0  0  0  0  0  0  0  0  0  0
   39.8680   23.8630   35.4020 C   0  0  0  0  0  0  0  0  0  0  0  0
   39.8620   25.1670   34.8860 C   0  0  0  0  0  0  0  0  0  0  0  0
   41.0380   25.8260   34.7630 N   0  0  0  0  0  0  0  0  0  0  0  0
   42.2100   25.2900   35.1120 C   0  0  0  0  0  0  0  0  0  0  0  0
   42.2590   24.0440   35.6100 N   0  0  0  0  0  0  0  0  0  0  0  0
   38.8950   25.5770   34.6100 H   0  0  0  0  0  0  0  0  0  0  0  0
   43.1330   25.8420   35.0020 H   0  0  0  0  0  0  0  0  0  0  0  0
   41.2740   22.0020   36.3050 C   0  0  0  0  0  0  0  0  0  0  0  0
   41.4970   21.1300   35.7140 H   0  0  0  0  0  0  0  0  0  0  0  0
   41.2040   21.5390   37.4680 O   0  0  0  0  0  0  0  0  0  0  0  0
  1  7  1  0  0  0  0
  2  3  2  0  0  0  0
  2  1  1  0  0  0  0
  3  4  1  0  0  0  0
  4  5  2  0  0  0  0
  4  6  1  0  0  0  0
  6 11  1  0  0  0  0
  7  6  1  0  0  0  0
  7  8  2  0  0  0  0
  9  2  1  0  0  0  0
 10  3  1  0  0  0  0
 12 20  1  0  0  0  0
 13  1  1  0  0  0  0
 13 12  2  0  0  0  0
 14 13  1  0  0  0  0
 15 14  2  0  0  0  0
 15 16  1  0  0  0  0
 16 17  2  0  0  0  0
 17 12  1  0  0  0  0
 18 14  1  0  0  0  0
 19 16  1  0  0  0  0
 20 22  2  0  0  0  0
 21 20  1  0  0  0  0
M  END
>  <minimizedAffinity>
-4.00135088

$$$$

 OpenBabel03272507513D

 22 23  0  0  0  0  0  0  0  0999 V2000
   38.5670   25.4620   35.3260 N   0  0  0  0  0  0  0  0  0  0  0  0
   38.5180   26.6480   35.9570 C   0  0  0  0  0  0  0  0  0  0  0  0
   37.7460   27.6820   35.4610 C   0  0  0  0  0  0  0  0  0  0  0  0
   37.0770   27.3560   34.3090 C   0  0  0  0  0  0  0  0  0  0  0  0
   36.3440   28.2770   33.8010 O   0  0  0  0  0  0  0  0  0  0  0  0
   37.0950   26.1930   33.6470 N   0  0  0  0  0  0  0  0  0  0  0  0
   37.8730   25.2140   34.1840 C   0  0  0  0  0  0  0  0  0  0  0  0
   37.9120   24.1110   33.5900 O   0  0  0  0  0  0  0  0  0  0  0  0
   39.1020   26.7800   36.8730 H   0  0  0  0  0  0  0  0  0  0  0  0
   37.6840   28.6290   35.9320 H   0  0  0  0  0  0  0  0  0  0  0  0
   36.5640   26.0240   32.7840 H   0  0  0  0  0  0  0  0  0  0  0  0
   40.6830   24.2630   35.3680 C   0  0  0  0  0  0  0  0  0  0  0  0
   39.3600   24.3880   35.8160 C   0  0  0  0  0  0  0  0  0  0  0  0
   38.9160   23.4230   36.7320 C   0  0  0  0  0  0  0  0  0  0  0  0
   39.7740   22.4500   37.1210 N   0  0  0  0  0  0  0  0  0  0  0  0
   41.0280   22.3640   36.6700 C   0  0  0  0  0  0  0  0  0  0  0  0
   41.4910   23.2690   35.7930 N   0  0  0  0  0  0  0  0  0  0  0  0
   37.8930   23.5180   37.0810 H   0  0  0  0  0  0  0  0  0  0  0  0
   41.6880   21.5740   37.0000 H   0  0  0  0  0  0  0  0  0  0  0  0
   41.2740   25.1880   34.4170 C   0  0  0  0  0  0  0  0  0  0  0  0
   41.3270   25.0090   33.3570 H   0  0  0  0  0  0  0  0  0  0  0  0
   41.8170   26.3110   34.5370 O   0  0  0  0  0  0  0  0  0  0  0  0
  1 13  1  0  0  0  0
  1  2  1  0  0  0  0
  2  9  1  0  0  0  0
  3 10  1  0  0  0  0
  3  2  2  0  0  0  0
  4  3  1  0  0  0  0
  5  4  2  0  0  0  0
  6  7  1  0  0  0  0
  6  4  1  0  0  0  0
  7  1  1  0  0  0  0
  8  7  2  0  0  0  0
 11  6  1  0  0  0  0
 12 17  2  0  0  0  0
 12 13  1  0  0  0  0
 13 14  2  0  0  0  0
 14 18  1  0  0  0  0
 14 15  1  0  0  0  0
 16 19  1  0  0  0  0
 16 15  2  0  0  0  0
 17 16  1  0  0  0  0
 20 22  2  0  0  0  0
 20 12  1  0  0  0  0
 21 20  1  0  0  0  0
M  END
>  <minimizedAffinity>
-3.95038867

$$$$

 OpenBabel03272507513D

 22 23  0  0  0  0  0  0  0  0999 V2000
   38.4910   23.2830   35.4050 N   0  0  0  0  0  0  0  0  0  0  0  0
   38.0340   22.5090   34.4070 C   0  0  0  0  0  0  0  0  0  0  0  0
   37.0300   21.5850   34.6320 C   0  0  0  0  0  0  0  0  0  0  0  0
   36.5900   21.5660   35.9300 C   0  0  0  0  0  0  0  0  0  0  0  0
   35.6590   20.7270   36.2000 O   0  0  0  0  0  0  0  0  0  0  0  0
   37.0150   22.3150   36.9550 N   0  0  0  0  0  0  0  0  0  0  0  0
   38.0040   23.2060   36.6710 C   0  0  0  0  0  0  0  0  0  0  0  0
   38.4250   23.9250   37.6080 O   0  0  0  0  0  0  0  0  0  0  0  0
   38.4700   22.6240   33.4100 H   0  0  0  0  0  0  0  0  0  0  0  0
   36.6440   20.9580   33.8690 H   0  0  0  0  0  0  0  0  0  0  0  0
   36.6340   22.2410   37.9060 H   0  0  0  0  0  0  0  0  0  0  0  0
   39.1830   25.5440   34.8330 C   0  0  0  0  0  0  0  0  0  0  0  0
   39.5280   24.2350   35.1960 C   0  0  0  0  0  0  0  0  0  0  0  0
   40.8980   23.9630   35.3280 C   0  0  0  0  0  0  0  0  0  0  0  0
   41.7850   24.9600   35.1010 N   0  0  0  0  0  0  0  0  0  0  0  0
   41.4170   26.1960   34.7560 C   0  0  0  0  0  0  0  0  0  0  0  0
   40.1150   26.4970   34.6210 N   0  0  0  0  0  0  0  0  0  0  0  0
   41.1690   22.9500   35.6090 H   0  0  0  0  0  0  0  0  0  0  0  0
   42.1500   26.9710   34.5810 H   0  0  0  0  0  0  0  0  0  0  0  0
   37.8040   25.9660   34.6590 C   0  0  0  0  0  0  0  0  0  0  0  0
   37.2000   26.3890   35.4430 H   0  0  0  0  0  0  0  0  0  0  0  0
   37.0230   25.9600   33.6790 O   0  0  0  0  0  0  0  0  0  0  0  0
  1  7  1  0  0  0  0
  2  3  2  0  0  0  0
  2  1  1  0  0  0  0
  3  4  1  0  0  0  0
  4  5  2  0  0  0  0
  4  6  1  0  0  0  0
  6 11  1  0  0  0  0
  7  6  1  0  0  0  0
  7  8  2  0  0  0  0
  9  2  1  0  0  0  0
 10  3  1  0  0  0  0
 12 13  1  0  0  0  0
 13 14  2  0  0  0  0
 13  1  1  0  0  0  0
 14 18  1  0  0  0  0
 15 14  1  0  0  0  0
 16 15  2  0  0  0  0
 17 16  1  0  0  0  0
 17 12  2  0  0  0  0
 19 16  1  0  0  0  0
 20 12  1  0  0  0  0
 20 21  1  0  0  0  0
 22 20  2  0  0  0  0
M  END
>  <minimizedAffinity>
-3.93822622

$$$$

 OpenBabel03272507513D

 22 23  0  0  0  0  0  0  0  0999 V2000
   35.0230   30.4060   34.3450 N   0  0  0  0  0  0  0  0  0  0  0  0
   35.7550   31.2410   35.1010 C   0  0  0  0  0  0  0  0  0  0  0  0
   35.2290   31.7990   36.2520 C   0  0  0  0  0  0  0  0  0  0  0  0
   33.9380   31.4100   36.5030 C   0  0  0  0  0  0  0  0  0  0  0  0
   33.3950   31.8970   37.5580 O   0  0  0  0  0  0  0  0  0  0  0  0
   33.1720   30.5840   35.7800 N   0  0  0  0  0  0  0  0  0  0  0  0
   33.7450   30.0670   34.6600 C   0  0  0  0  0  0  0  0  0  0  0  0
   33.0560   29.2880   33.9600 O   0  0  0  0  0  0  0  0  0  0  0  0
   36.7780   31.4710   34.7900 H   0  0  0  0  0  0  0  0  0  0  0  0
   35.7770   32.4610   36.8720 H   0  0  0  0  0  0  0  0  0  0  0  0
   32.2070   30.3400   36.0350 H   0  0  0  0  0  0  0  0  0  0  0  0
   36.3090   28.6570   33.2490 C   0  0  0  0  0  0  0  0  0  0  0  0
   35.5430   29.8270   33.1550 C   0  0  0  0  0  0  0  0  0  0  0  0
   35.3470   30.3440   31.8650 C   0  0  0  0  0  0  0  0  0  0  0  0
   35.8970   29.6950   30.8120 N   0  0  0  0  0  0  0  0  0  0  0  0
   36.6220   28.5810   30.9430 C   0  0  0  0  0  0  0  0  0  0  0  0
   36.8320   28.0550   32.1600 N   0  0  0  0  0  0  0  0  0  0  0  0
   34.7530   31.2500   31.7890 H   0  0  0  0  0  0  0  0  0  0  0  0
   37.0480   28.0860   30.0820 H   0  0  0  0  0  0  0  0  0  0  0  0
   36.5950   28.0140   34.5190 C   0  0  0  0  0  0  0  0  0  0  0  0
   36.6910   28.5420   35.4530 H   0  0  0  0  0  0  0  0  0  0  0  0
   36.7880   26.8220   34.8540 O   0  0  0  0  0  0  0  0  0  0  0  0
  1  7  1  0  0  0  0
  1  2  1  0  0  0  0
  2  3  2  0  0  0  0
  3  4  1  0  0  0  0
  3 10  1  0  0  0  0
  4  5  2  0  0  0  0
  6 11  1  0  0  0  0
  6  4  1  0  0  0  0
  7  6  1  0  0  0  0
  8  7  2  0  0  0  0
  9  2  1  0  0  0  0
 12 20  1  0  0  0  0
 13 12  1  0  0  0  0
 13  1  1  0  0  0  0
 14 13  2  0  0  0  0
 15 16  2  0  0  0  0
 15 14  1  0  0  0  0
 16 17  1  0  0  0  0
 17 12  2  0  0  0  0
 18 14  1  0  0  0  0
 19 16  1  0  0  0  0
 20 22  2  0  0  0  0
 20 21  1  0  0  0  0
M  END
>  <minimizedAffinity>
-3.90962505

$$$$

 OpenBabel03272507513D

 22 23  0  0  0  0  0  0  0  0999 V2000
   38.1180   25.4700   34.8160 N   0  0  0  0  0  0  0  0  0  0  0  0
   37.6920   25.1920   33.5720 C   0  0  0  0  0  0  0  0  0  0  0  0
   37.0120   26.1400   32.8290 C   0  0  0  0  0  0  0  0  0  0  0  0
   36.8410   27.3290   33.4910 C   0  0  0  0  0  0  0  0  0  0  0  0
   36.2160   28.2480   32.8520 O   0  0  0  0  0  0  0  0  0  0  0  0
   37.2470   27.6500   34.7260 N   0  0  0  0  0  0  0  0  0  0  0  0
   37.9100   26.6750   35.4070 C   0  0  0  0  0  0  0  0  0  0  0  0
   38.3050   26.9430   36.5660 O   0  0  0  0  0  0  0  0  0  0  0  0
   37.8940   24.2010   33.1560 H   0  0  0  0  0  0  0  0  0  0  0  0
   36.6620   25.9560   31.8460 H   0  0  0  0  0  0  0  0  0  0  0  0
   37.0790   28.5670   35.1560 H   0  0  0  0  0  0  0  0  0  0  0  0
   40.2050   24.4020   35.4670 C   0  0  0  0  0  0  0  0  0  0  0  0
   38.8130   24.5070   35.5990 C   0  0  0  0  0  0  0  0  0  0  0  0
   38.2040   23.6340   36.5140 C   0  0  0  0  0  0  0  0  0  0  0  0
   38.9810   22.7630   37.1990 N   0  0  0  0  0  0  0  0  0  0  0  0
   40.3060   22.6930   37.0440 C   0  0  0  0  0  0  0  0  0  0  0  0
   40.9260   23.5110   36.1790 N   0  0  0  0  0  0  0  0  0  0  0  0
   37.1270   23.7130   36.6200 H   0  0  0  0  0  0  0  0  0  0  0  0
   40.8980   21.9850   37.6070 H   0  0  0  0  0  0  0  0  0  0  0  0
   40.9650   25.2390   34.5550 C   0  0  0  0  0  0  0  0  0  0  0  0
   41.2810   24.9270   33.5740 H   0  0  0  0  0  0  0  0  0  0  0  0
   41.4120   26.4070   34.6330 O   0  0  0  0  0  0  0  0  0  0  0  0
  1  7  1  0  0  0  0
  1 13  1  0  0  0  0
  2  1  1  0  0  0  0
  3  4  1  0  0  0  0
  3  2  2  0  0  0  0
  4  6  1  0  0  0  0
  5  4  2  0  0  0  0
  6 11  1  0  0  0  0
  6  7  1  0  0  0  0
  7  8  2  0  0  0  0
  9  2  1  0  0  0  0
 10  3  1  0  0  0  0
 12 13  2  0  0  0  0
 12 17  1  0  0  0  0
 13 14  1  0  0  0  0
 14 18  1  0  0  0  0
 14 15  2  0  0  0  0
 16 15  1  0  0  0  0
 16 19  1  0  0  0  0
 17 16  2  0  0  0  0
 20 22  2  0  0  0  0
 20 12  1  0  0  0  0
 21 20  1  0  0  0  0
M  END
>  <minimizedAffinity>
-3.87524962

$$$$

 OpenBabel03272507513D

 22 23  0  0  0  0  0  0  0  0999 V2000
   39.2550   24.4510   36.0430 N   0  0  0  0  0  0  0  0  0  0  0  0
   38.7080   23.6850   37.0010 C   0  0  0  0  0  0  0  0  0  0  0  0
   39.4180   22.6390   37.5620 C   0  0  0  0  0  0  0  0  0  0  0  0
   40.6790   22.4980   37.0430 C   0  0  0  0  0  0  0  0  0  0  0  0
   41.3860   21.5440   37.5240 O   0  0  0  0  0  0  0  0  0  0  0  0
   41.2650   23.2360   36.0910 N   0  0  0  0  0  0  0  0  0  0  0  0
   40.5160   24.2500   35.5780 C   0  0  0  0  0  0  0  0  0  0  0  0
   41.0340   24.9610   34.6860 O   0  0  0  0  0  0  0  0  0  0  0  0
   37.6880   23.9030   37.3300 H   0  0  0  0  0  0  0  0  0  0  0  0
   39.0180   22.0140   38.3190 H   0  0  0  0  0  0  0  0  0  0  0  0
   42.2200   23.0670   35.7520 H   0  0  0  0  0  0  0  0  0  0  0  0
   37.8160   25.2920   34.2710 C   0  0  0  0  0  0  0  0  0  0  0  0
   38.5390   25.5270   35.4490 C   0  0  0  0  0  0  0  0  0  0  0  0
   38.4970   26.8340   35.9580 C   0  0  0  0  0  0  0  0  0  0  0  0
   37.7750   27.7680   35.2950 N   0  0  0  0  0  0  0  0  0  0  0  0
   37.0990   27.5040   34.1740 C   0  0  0  0  0  0  0  0  0  0  0  0
   37.1140   26.2660   33.6560 N   0  0  0  0  0  0  0  0  0  0  0  0
   39.0560   27.0200   36.8700 H   0  0  0  0  0  0  0  0  0  0  0  0
   36.5320   28.2730   33.6680 H   0  0  0  0  0  0  0  0  0  0  0  0
   37.7740   23.9880   33.6320 C   0  0  0  0  0  0  0  0  0  0  0  0
   37.0480   23.2270   33.8630 H   0  0  0  0  0  0  0  0  0  0  0  0
   38.4730   23.4440   32.7460 O   0  0  0  0  0  0  0  0  0  0  0  0
  1  2  1  0  0  0  0
  2  9  1  0  0  0  0
  2  3  2  0  0  0  0
  3 10  1  0  0  0  0
  4  5  2  0  0  0  0
  4  3  1  0  0  0  0
  6  4  1  0  0  0  0
  7  1  1  0  0  0  0
  7  6  1  0  0  0  0
  8  7  2  0  0  0  0
 11  6  1  0  0  0  0
 12 13  1  0  0  0  0
 13 14  2  0  0  0  0
 13  1  1  0  0  0  0
 14 18  1  0  0  0  0
 15 14  1  0  0  0  0
 16 15  2  0  0  0  0
 17 16  1  0  0  0  0
 17 12  2  0  0  0  0
 19 16  1  0  0  0  0
 20 21  1  0  0  0  0
 20 12  1  0  0  0  0
 22 20  2  0  0  0  0
M  END
>  <minimizedAffinity>
-3.85920477

$$$$
