
 OpenBabel03272505193D

 27 28  0  0  0  0  0  0  0  0999 V2000
   38.5260   25.9060   34.1810 C   0  0  0  0  0  0  0  0  0  0  0  0
   38.2940   24.5850   34.4060 C   0  0  0  0  0  0  0  0  0  0  0  0
   37.7650   23.8560   33.3620 C   0  0  0  0  0  0  0  0  0  0  0  0
   37.4810   24.4090   32.1650 C   0  0  0  0  0  0  0  0  0  0  0  0
   37.7040   25.7470   31.9050 C   0  0  0  0  0  0  0  0  0  0  0  0
   38.2340   26.4830   32.9450 C   0  0  0  0  0  0  0  0  0  0  0  0
   37.5790   22.8020   33.5360 H   0  0  0  0  0  0  0  0  0  0  0  0
   37.0660   23.7600   31.3960 H   0  0  0  0  0  0  0  0  0  0  0  0
   37.4620   26.1500   30.9310 H   0  0  0  0  0  0  0  0  0  0  0  0
   38.3800   27.5200   32.6710 H   0  0  0  0  0  0  0  0  0  0  0  0
   37.9280   23.7790   38.0200 C   0  0  0  0  0  0  0  0  0  0  0  0
   37.7130   24.2870   36.7230 C   0  0  0  0  0  0  0  0  0  0  0  0
   38.5950   24.0220   35.6960 C   0  0  0  0  0  0  0  0  0  0  0  0
   39.6450   23.2500   36.0660 N   0  0  0  0  0  0  0  0  0  0  0  0
   39.8660   22.7600   37.2850 C   0  0  0  0  0  0  0  0  0  0  0  0
   38.9950   23.0280   38.2720 N   0  0  0  0  0  0  0  0  0  0  0  0
   37.2210   23.9960   38.8240 H   0  0  0  0  0  0  0  0  0  0  0  0
   36.8150   24.9000   36.5720 H   0  0  0  0  0  0  0  0  0  0  0  0
   41.0430   21.9390   37.5420 C   0  0  0  0  0  0  0  0  0  0  0  0
   41.0230   21.1880   38.3160 H   0  0  0  0  0  0  0  0  0  0  0  0
   42.0920   22.0960   36.8660 O   0  0  0  0  0  0  0  0  0  0  0  0
   40.3660   27.1560   35.0770 N   0  0  0  0  0  0  0  0  0  0  0  0
   39.0810   26.8640   35.0930 C   0  0  0  0  0  0  0  0  0  0  0  0
   38.7640   27.7340   36.1450 N   0  0  0  0  0  0  0  0  0  0  0  0
   40.7560   27.8500   35.7550 H   0  0  0  0  0  0  0  0  0  0  0  0
   38.3680   28.7180   36.1450 H   0  0  0  0  0  0  0  0  0  0  0  0
   38.8630   27.5670   37.1750 H   0  0  0  0  0  0  0  0  0  0  0  0
  1  2  1  0  0  0  0
  1 23  1  0  0  0  0
  2 13  1  0  0  0  0
  3  7  1  0  0  0  0
  3  2  2  0  0  0  0
  4  3  1  0  0  0  0
  5  4  2  0  0  0  0
  5  6  1  0  0  0  0
  6  1  2  0  0  0  0
  8  4  1  0  0  0  0
  9  5  1  0  0  0  0
 10  6  1  0  0  0  0
 11 16  1  0  0  0  0
 11 17  1  0  0  0  0
 12 11  2  0  0  0  0
 13 14  2  0  0  0  0
 13 12  1  0  0  0  0
 14 15  1  0  0  0  0
 15 19  1  0  0  0  0
 15 16  2  0  0  0  0
 18 12  1  0  0  0  0
 19 20  1  0  0  0  0
 21 19  2  0  0  0  0
 22 23  2  0  0  0  0
 22 25  1  0  0  0  0
 23 24  1  0  0  0  0
 24 26  1  0  0  0  0
 24 27  1  0  0  0  0
M  END
>  <minimizedAffinity>
-4.84388733

$$$$

 OpenBabel03272505193D

 27 28  0  0  0  0  0  0  0  0999 V2000
   36.3090   21.6880   33.2790 C   0  0  0  0  0  0  0  0  0  0  0  0
   37.3410   22.5630   33.4200 C   0  0  0  0  0  0  0  0  0  0  0  0
   37.6300   23.3690   32.3390 C   0  0  0  0  0  0  0  0  0  0  0  0
   36.9350   23.3070   31.1840 C   0  0  0  0  0  0  0  0  0  0  0  0
   35.8830   22.4290   31.0090 C   0  0  0  0  0  0  0  0  0  0  0  0
   35.5870   21.6200   32.0870 C   0  0  0  0  0  0  0  0  0  0  0  0
   38.4520   24.0680   32.4470 H   0  0  0  0  0  0  0  0  0  0  0  0
   37.2300   23.9800   30.3820 H   0  0  0  0  0  0  0  0  0  0  0  0
   35.3520   22.4130   30.0670 H   0  0  0  0  0  0  0  0  0  0  0  0
   34.7550   20.9600   31.8780 H   0  0  0  0  0  0  0  0  0  0  0  0
   40.1800   22.1780   35.7940 C   0  0  0  0  0  0  0  0  0  0  0  0
   39.3860   22.1770   34.6290 C   0  0  0  0  0  0  0  0  0  0  0  0
   38.0730   22.6010   34.6570 C   0  0  0  0  0  0  0  0  0  0  0  0
   37.6580   23.0000   35.8840 N   0  0  0  0  0  0  0  0  0  0  0  0
   38.3910   23.0090   36.9950 C   0  0  0  0  0  0  0  0  0  0  0  0
   39.6680   22.5930   36.9470 N   0  0  0  0  0  0  0  0  0  0  0  0
   41.2180   21.8410   35.7570 H   0  0  0  0  0  0  0  0  0  0  0  0
   39.8610   21.8240   33.7040 H   0  0  0  0  0  0  0  0  0  0  0  0
   37.8110   23.4670   38.2510 C   0  0  0  0  0  0  0  0  0  0  0  0
   37.1140   22.8430   38.7880 H   0  0  0  0  0  0  0  0  0  0  0  0
   38.1160   24.5930   38.7240 O   0  0  0  0  0  0  0  0  0  0  0  0
   35.4290   19.5490   33.9120 N   0  0  0  0  0  0  0  0  0  0  0  0
   35.8060   20.7640   34.2540 C   0  0  0  0  0  0  0  0  0  0  0  0
   35.5100   20.6130   35.6160 N   0  0  0  0  0  0  0  0  0  0  0  0
   35.0560   18.8910   34.6340 H   0  0  0  0  0  0  0  0  0  0  0  0
   36.1260   20.3700   36.4440 H   0  0  0  0  0  0  0  0  0  0  0  0
   34.5820   20.7170   36.0910 H   0  0  0  0  0  0  0  0  0  0  0  0
  1  2  1  0  0  0  0
  1 23  1  0  0  0  0
  2 13  1  0  0  0  0
  3  7  1  0  0  0  0
  3  2  2  0  0  0  0
  4  3  1  0  0  0  0
  5  4  2  0  0  0  0
  5  6  1  0  0  0  0
  6  1  2  0  0  0  0
  8  4  1  0  0  0  0
  9  5  1  0  0  0  0
 10  6  1  0  0  0  0
 11 16  1  0  0  0  0
 12 13  1  0  0  0  0
 12 11  2  0  0  0  0
 13 14  2  0  0  0  0
 14 15  1  0  0  0  0
 15 19  1  0  0  0  0
 16 15  2  0  0  0  0
 17 11  1  0  0  0  0
 18 12  1  0  0  0  0
 19 21  2  0  0  0  0
 19 20  1  0  0  0  0
 22 23  2  0  0  0  0
 22 25  1  0  0  0  0
 23 24  1  0  0  0  0
 24 27  1  0  0  0  0
 24 26  1  0  0  0  0
M  END
>  <minimizedAffinity>
-4.75157166

$$$$

 OpenBabel03272505193D

 27 28  0  0  0  0  0  0  0  0999 V2000
   39.5340   23.3190   36.6040 C   0  0  0  0  0  0  0  0  0  0  0  0
   39.9200   24.1970   35.6400 C   0  0  0  0  0  0  0  0  0  0  0  0
   41.2540   24.1990   35.2930 C   0  0  0  0  0  0  0  0  0  0  0  0
   42.1530   23.3770   35.8740 C   0  0  0  0  0  0  0  0  0  0  0  0
   41.7930   22.4750   36.8560 C   0  0  0  0  0  0  0  0  0  0  0  0
   40.4590   22.4680   37.2080 C   0  0  0  0  0  0  0  0  0  0  0  0
   41.5670   24.8960   34.5250 H   0  0  0  0  0  0  0  0  0  0  0  0
   43.1860   23.4440   35.5400 H   0  0  0  0  0  0  0  0  0  0  0  0
   42.5460   21.8340   37.2950 H   0  0  0  0  0  0  0  0  0  0  0  0
   40.2510   21.7390   37.9810 H   0  0  0  0  0  0  0  0  0  0  0  0
   37.7660   27.1940   35.1640 C   0  0  0  0  0  0  0  0  0  0  0  0
   38.7060   26.2760   35.6740 C   0  0  0  0  0  0  0  0  0  0  0  0
   38.9440   25.0710   35.0450 C   0  0  0  0  0  0  0  0  0  0  0  0
   38.1990   24.8840   33.9280 N   0  0  0  0  0  0  0  0  0  0  0  0
   37.3070   25.7380   33.4300 C   0  0  0  0  0  0  0  0  0  0  0  0
   37.0900   26.9070   34.0570 N   0  0  0  0  0  0  0  0  0  0  0  0
   37.5880   28.1440   35.6720 H   0  0  0  0  0  0  0  0  0  0  0  0
   39.2360   26.5640   36.5910 H   0  0  0  0  0  0  0  0  0  0  0  0
   36.5740   25.4060   32.2150 C   0  0  0  0  0  0  0  0  0  0  0  0
   36.3210   26.1770   31.5040 H   0  0  0  0  0  0  0  0  0  0  0  0
   36.2290   24.2180   31.9800 O   0  0  0  0  0  0  0  0  0  0  0  0
   37.7920   23.7570   38.1940 N   0  0  0  0  0  0  0  0  0  0  0  0
   38.2120   23.1150   37.1230 C   0  0  0  0  0  0  0  0  0  0  0  0
   37.0200   22.4050   36.9220 N   0  0  0  0  0  0  0  0  0  0  0  0
   36.8290   23.5900   38.5640 H   0  0  0  0  0  0  0  0  0  0  0  0
   36.1940   22.5890   36.2830 H   0  0  0  0  0  0  0  0  0  0  0  0
   36.7090   21.5190   37.3890 H   0  0  0  0  0  0  0  0  0  0  0  0
  1 23  1  0  0  0  0
  1  6  1  0  0  0  0
  2  1  2  0  0  0  0
  3  2  1  0  0  0  0
  3  4  2  0  0  0  0
  4  5  1  0  0  0  0
  5  6  2  0  0  0  0
  5  9  1  0  0  0  0
  6 10  1  0  0  0  0
  7  3  1  0  0  0  0
  8  4  1  0  0  0  0
 11 17  1  0  0  0  0
 11 12  1  0  0  0  0
 12 18  1  0  0  0  0
 13  2  1  0  0  0  0
 13 12  2  0  0  0  0
 14 13  1  0  0  0  0
 15 14  2  0  0  0  0
 15 16  1  0  0  0  0
 16 11  2  0  0  0  0
 19 15  1  0  0  0  0
 20 19  1  0  0  0  0
 21 19  2  0  0  0  0
 22 25  1  0  0  0  0
 23 22  2  0  0  0  0
 24 23  1  0  0  0  0
 24 27  1  0  0  0  0
 26 24  1  0  0  0  0
M  END
>  <minimizedAffinity>
-4.72508335

$$$$

 OpenBabel03272505193D

 27 28  0  0  0  0  0  0  0  0999 V2000
   38.3680   26.5650   33.7510 C   0  0  0  0  0  0  0  0  0  0  0  0
   37.8120   25.3260   33.6570 C   0  0  0  0  0  0  0  0  0  0  0  0
   36.9190   25.1180   32.6280 C   0  0  0  0  0  0  0  0  0  0  0  0
   36.5960   26.0840   31.7440 C   0  0  0  0  0  0  0  0  0  0  0  0
   37.1410   27.3520   31.8130 C   0  0  0  0  0  0  0  0  0  0  0  0
   38.0360   27.5680   32.8400 C   0  0  0  0  0  0  0  0  0  0  0  0
   36.4750   24.1320   32.5480 H   0  0  0  0  0  0  0  0  0  0  0  0
   35.8820   25.8330   30.9610 H   0  0  0  0  0  0  0  0  0  0  0  0
   36.8540   28.0970   31.0830 H   0  0  0  0  0  0  0  0  0  0  0  0
   38.4210   28.5800   32.8320 H   0  0  0  0  0  0  0  0  0  0  0  0
   39.1830   22.1450   35.0160 C   0  0  0  0  0  0  0  0  0  0  0  0
   38.8010   23.1870   34.1470 C   0  0  0  0  0  0  0  0  0  0  0  0
   38.1660   24.3170   34.6190 C   0  0  0  0  0  0  0  0  0  0  0  0
   37.9630   24.3060   35.9590 N   0  0  0  0  0  0  0  0  0  0  0  0
   38.3160   23.3330   36.7970 C   0  0  0  0  0  0  0  0  0  0  0  0
   38.9350   22.2410   36.3170 N   0  0  0  0  0  0  0  0  0  0  0  0
   39.6860   21.2570   34.6280 H   0  0  0  0  0  0  0  0  0  0  0  0
   39.0320   23.0560   33.0810 H   0  0  0  0  0  0  0  0  0  0  0  0
   38.0340   23.4550   38.2220 C   0  0  0  0  0  0  0  0  0  0  0  0
   37.8500   22.5750   38.8170 H   0  0  0  0  0  0  0  0  0  0  0  0
   38.0030   24.5860   38.7730 O   0  0  0  0  0  0  0  0  0  0  0  0
   38.9460   27.5340   35.8670 N   0  0  0  0  0  0  0  0  0  0  0  0
   39.3270   27.0230   34.7140 C   0  0  0  0  0  0  0  0  0  0  0  0
   40.7000   27.1690   34.9550 N   0  0  0  0  0  0  0  0  0  0  0  0
   39.6580   27.8710   36.5540 H   0  0  0  0  0  0  0  0  0  0  0  0
   41.4260   26.4810   35.3080 H   0  0  0  0  0  0  0  0  0  0  0  0
   41.2920   28.0240   34.8250 H   0  0  0  0  0  0  0  0  0  0  0  0
  1 23  1  0  0  0  0
  2  1  1  0  0  0  0
  2 13  1  0  0  0  0
  3  2  2  0  0  0  0
  4  5  2  0  0  0  0
  4  3  1  0  0  0  0
  5  6  1  0  0  0  0
  6  1  2  0  0  0  0
  7  3  1  0  0  0  0
  8  4  1  0  0  0  0
  9  5  1  0  0  0  0
 10  6  1  0  0  0  0
 11 16  1  0  0  0  0
 12 13  1  0  0  0  0
 12 11  2  0  0  0  0
 13 14  2  0  0  0  0
 14 15  1  0  0  0  0
 15 19  1  0  0  0  0
 16 15  2  0  0  0  0
 17 11  1  0  0  0  0
 18 12  1  0  0  0  0
 19 21  2  0  0  0  0
 19 20  1  0  0  0  0
 22 25  1  0  0  0  0
 23 24  1  0  0  0  0
 23 22  2  0  0  0  0
 24 26  1  0  0  0  0
 27 24  1  0  0  0  0
M  END
>  <minimizedAffinity>
-4.70756531

$$$$

 OpenBabel03272505193D

 27 28  0  0  0  0  0  0  0  0999 V2000
   38.0910   25.3830   35.7730 C   0  0  0  0  0  0  0  0  0  0  0  0
   38.1380   24.4470   34.7860 C   0  0  0  0  0  0  0  0  0  0  0  0
   38.3090   23.1350   35.1750 C   0  0  0  0  0  0  0  0  0  0  0  0
   38.4260   22.7750   36.4700 C   0  0  0  0  0  0  0  0  0  0  0  0
   38.3830   23.7010   37.4950 C   0  0  0  0  0  0  0  0  0  0  0  0
   38.2130   25.0150   37.1120 C   0  0  0  0  0  0  0  0  0  0  0  0
   38.3470   22.3860   34.3930 H   0  0  0  0  0  0  0  0  0  0  0  0
   38.5570   21.7170   36.6890 H   0  0  0  0  0  0  0  0  0  0  0  0
   38.4810   23.3690   38.5190 H   0  0  0  0  0  0  0  0  0  0  0  0
   38.1890   25.6820   37.9650 H   0  0  0  0  0  0  0  0  0  0  0  0
   39.1510   25.2290   31.2920 C   0  0  0  0  0  0  0  0  0  0  0  0
   39.1690   24.8410   32.6470 C   0  0  0  0  0  0  0  0  0  0  0  0
   38.0220   24.8590   33.4130 C   0  0  0  0  0  0  0  0  0  0  0  0
   36.9240   25.2760   32.7370 N   0  0  0  0  0  0  0  0  0  0  0  0
   36.8850   25.6470   31.4580 C   0  0  0  0  0  0  0  0  0  0  0  0
   38.0130   25.6210   30.7290 N   0  0  0  0  0  0  0  0  0  0  0  0
   40.0660   25.2100   30.6970 H   0  0  0  0  0  0  0  0  0  0  0  0
   40.1370   24.5260   33.0600 H   0  0  0  0  0  0  0  0  0  0  0  0
   35.6270   26.0740   30.8580 C   0  0  0  0  0  0  0  0  0  0  0  0
   35.5420   27.0540   30.4140 H   0  0  0  0  0  0  0  0  0  0  0  0
   34.6290   25.3090   30.8490 O   0  0  0  0  0  0  0  0  0  0  0  0
   38.6320   27.6540   36.3160 N   0  0  0  0  0  0  0  0  0  0  0  0
   37.9060   26.7980   35.6270 C   0  0  0  0  0  0  0  0  0  0  0  0
   37.1560   27.7730   34.9560 N   0  0  0  0  0  0  0  0  0  0  0  0
   38.4790   28.6830   36.2050 H   0  0  0  0  0  0  0  0  0  0  0  0
   37.2660   28.1990   33.9910 H   0  0  0  0  0  0  0  0  0  0  0  0
   36.3100   28.2870   35.2990 H   0  0  0  0  0  0  0  0  0  0  0  0
  1  6  1  0  0  0  0
  2  3  1  0  0  0  0
  2  1  2  0  0  0  0
  3  4  2  0  0  0  0
  4  8  1  0  0  0  0
  4  5  1  0  0  0  0
  5  9  1  0  0  0  0
  6  5  2  0  0  0  0
  6 10  1  0  0  0  0
  7  3  1  0  0  0  0
 11 12  1  0  0  0  0
 12 18  1  0  0  0  0
 12 13  2  0  0  0  0
 13  2  1  0  0  0  0
 14 13  1  0  0  0  0
 15 14  2  0  0  0  0
 16 11  2  0  0  0  0
 16 15  1  0  0  0  0
 17 11  1  0  0  0  0
 19 15  1  0  0  0  0
 20 19  1  0  0  0  0
 21 19  2  0  0  0  0
 23  1  1  0  0  0  0
 23 22  2  0  0  0  0
 24 27  1  0  0  0  0
 24 23  1  0  0  0  0
 25 22  1  0  0  0  0
 26 24  1  0  0  0  0
M  END
>  <minimizedAffinity>
-4.6888175

$$$$

 OpenBabel03272505193D

 27 28  0  0  0  0  0  0  0  0999 V2000
   33.7410   30.3900   35.0660 C   0  0  0  0  0  0  0  0  0  0  0  0
   35.0950   30.4290   34.9420 C   0  0  0  0  0  0  0  0  0  0  0  0
   35.7770   31.2740   35.7920 C   0  0  0  0  0  0  0  0  0  0  0  0
   35.1490   32.0380   36.7100 C   0  0  0  0  0  0  0  0  0  0  0  0
   33.7760   32.0220   36.8600 C   0  0  0  0  0  0  0  0  0  0  0  0
   33.0870   31.1780   36.0130 C   0  0  0  0  0  0  0  0  0  0  0  0
   36.8560   31.3090   35.6970 H   0  0  0  0  0  0  0  0  0  0  0  0
   35.7640   32.6760   37.3400 H   0  0  0  0  0  0  0  0  0  0  0  0
   33.3120   32.6500   37.6090 H   0  0  0  0  0  0  0  0  0  0  0  0
   32.0190   31.2180   36.1860 H   0  0  0  0  0  0  0  0  0  0  0  0
   36.9830   27.5800   33.4720 C   0  0  0  0  0  0  0  0  0  0  0  0
   36.3280   28.4400   34.3750 C   0  0  0  0  0  0  0  0  0  0  0  0
   35.7390   29.6130   33.9480 C   0  0  0  0  0  0  0  0  0  0  0  0
   35.8610   29.8280   32.6150 N   0  0  0  0  0  0  0  0  0  0  0  0
   36.4750   29.0280   31.7450 C   0  0  0  0  0  0  0  0  0  0  0  0
   37.0420   27.8900   32.1810 N   0  0  0  0  0  0  0  0  0  0  0  0
   37.4440   26.6540   33.8240 H   0  0  0  0  0  0  0  0  0  0  0  0
   36.3090   28.1340   35.4300 H   0  0  0  0  0  0  0  0  0  0  0  0
   36.5300   29.3860   30.3340 C   0  0  0  0  0  0  0  0  0  0  0  0
   36.2140   30.3650   30.0080 H   0  0  0  0  0  0  0  0  0  0  0  0
   36.9440   28.5600   29.4800 O   0  0  0  0  0  0  0  0  0  0  0  0
   31.8460   28.9280   34.9160 N   0  0  0  0  0  0  0  0  0  0  0  0
   32.8170   29.5870   34.3180 C   0  0  0  0  0  0  0  0  0  0  0  0
   32.4880   29.1570   33.0250 N   0  0  0  0  0  0  0  0  0  0  0  0
   31.1870   28.3390   34.3570 H   0  0  0  0  0  0  0  0  0  0  0  0
   31.9260   29.6210   32.2550 H   0  0  0  0  0  0  0  0  0  0  0  0
   32.7480   28.2560   32.5570 H   0  0  0  0  0  0  0  0  0  0  0  0
  1  6  1  0  0  0  0
  2  1  2  0  0  0  0
  2  3  1  0  0  0  0
  3  4  2  0  0  0  0
  4  5  1  0  0  0  0
  4  8  1  0  0  0  0
  5  9  1  0  0  0  0
  6 10  1  0  0  0  0
  6  5  2  0  0  0  0
  7  3  1  0  0  0  0
 11 17  1  0  0  0  0
 11 12  1  0  0  0  0
 12 18  1  0  0  0  0
 13 12  2  0  0  0  0
 13  2  1  0  0  0  0
 14 13  1  0  0  0  0
 15 16  1  0  0  0  0
 15 14  2  0  0  0  0
 16 11  2  0  0  0  0
 19 15  1  0  0  0  0
 20 19  1  0  0  0  0
 21 19  2  0  0  0  0
 23 22  2  0  0  0  0
 23  1  1  0  0  0  0
 24 23  1  0  0  0  0
 25 22  1  0  0  0  0
 26 24  1  0  0  0  0
 27 24  1  0  0  0  0
M  END
>  <minimizedAffinity>
-4.68423605

$$$$

 OpenBabel03272505193D

 27 28  0  0  0  0  0  0  0  0999 V2000
   39.6790   26.9160   34.0860 C   0  0  0  0  0  0  0  0  0  0  0  0
   39.3970   26.9920   32.7570 C   0  0  0  0  0  0  0  0  0  0  0  0
   40.4640   27.1600   31.9000 C   0  0  0  0  0  0  0  0  0  0  0  0
   41.7370   27.2480   32.3390 C   0  0  0  0  0  0  0  0  0  0  0  0
   42.0560   27.1760   33.6810 C   0  0  0  0  0  0  0  0  0  0  0  0
   40.9930   27.0080   34.5450 C   0  0  0  0  0  0  0  0  0  0  0  0
   40.2450   27.2200   30.8400 H   0  0  0  0  0  0  0  0  0  0  0  0
   42.5190   27.3790   31.5940 H   0  0  0  0  0  0  0  0  0  0  0  0
   43.0900   27.2510   33.9900 H   0  0  0  0  0  0  0  0  0  0  0  0
   41.3170   26.9610   35.5770 H   0  0  0  0  0  0  0  0  0  0  0  0
   35.9880   28.1010   31.7610 C   0  0  0  0  0  0  0  0  0  0  0  0
   37.3320   28.0890   32.1850 C   0  0  0  0  0  0  0  0  0  0  0  0
   38.0310   26.9060   32.3170 C   0  0  0  0  0  0  0  0  0  0  0  0
   37.3020   25.8070   32.0030 N   0  0  0  0  0  0  0  0  0  0  0  0
   36.0330   25.7970   31.6010 C   0  0  0  0  0  0  0  0  0  0  0  0
   35.3700   26.9600   31.4780 N   0  0  0  0  0  0  0  0  0  0  0  0
   35.4480   29.0450   31.6610 H   0  0  0  0  0  0  0  0  0  0  0  0
   37.7940   29.0610   32.4050 H   0  0  0  0  0  0  0  0  0  0  0  0
   35.3710   24.5350   31.2960 C   0  0  0  0  0  0  0  0  0  0  0  0
   34.4480   24.5260   30.7380 H   0  0  0  0  0  0  0  0  0  0  0  0
   35.8680   23.4430   31.6770 O   0  0  0  0  0  0  0  0  0  0  0  0
   38.6150   27.6350   36.1110 N   0  0  0  0  0  0  0  0  0  0  0  0
   38.7550   26.7280   35.1670 C   0  0  0  0  0  0  0  0  0  0  0  0
   37.8100   25.8400   35.6990 N   0  0  0  0  0  0  0  0  0  0  0  0
   37.9430   27.4780   36.8970 H   0  0  0  0  0  0  0  0  0  0  0  0
   36.7870   25.6830   35.4660 H   0  0  0  0  0  0  0  0  0  0  0  0
   37.9430   25.1340   36.4630 H   0  0  0  0  0  0  0  0  0  0  0  0
  1  6  1  0  0  0  0
  1 23  1  0  0  0  0
  2  1  2  0  0  0  0
  3  4  2  0  0  0  0
  3  2  1  0  0  0  0
  4  5  1  0  0  0  0
  5  9  1  0  0  0  0
  5  6  2  0  0  0  0
  6 10  1  0  0  0  0
  7  3  1  0  0  0  0
  8  4  1  0  0  0  0
 11 12  1  0  0  0  0
 12 13  2  0  0  0  0
 12 18  1  0  0  0  0
 13  2  1  0  0  0  0
 14 13  1  0  0  0  0
 15 14  2  0  0  0  0
 16 15  1  0  0  0  0
 16 11  2  0  0  0  0
 17 11  1  0  0  0  0
 19 15  1  0  0  0  0
 19 21  2  0  0  0  0
 20 19  1  0  0  0  0
 22 25  1  0  0  0  0
 23 24  1  0  0  0  0
 23 22  2  0  0  0  0
 24 27  1  0  0  0  0
 26 24  1  0  0  0  0
M  END
>  <minimizedAffinity>
-4.68417215

$$$$

 OpenBabel03272505193D

 27 28  0  0  0  0  0  0  0  0999 V2000
   39.6520   23.0510   37.0100 C   0  0  0  0  0  0  0  0  0  0  0  0
   39.9040   23.3630   35.7100 C   0  0  0  0  0  0  0  0  0  0  0  0
   41.0340   22.8130   35.1430 C   0  0  0  0  0  0  0  0  0  0  0  0
   41.8660   22.0010   35.8280 C   0  0  0  0  0  0  0  0  0  0  0  0
   41.6380   21.6670   37.1490 C   0  0  0  0  0  0  0  0  0  0  0  0
   40.5090   22.2130   37.7230 C   0  0  0  0  0  0  0  0  0  0  0  0
   41.2390   23.0570   34.1070 H   0  0  0  0  0  0  0  0  0  0  0  0
   42.7350   21.6100   35.3030 H   0  0  0  0  0  0  0  0  0  0  0  0
   42.3300   21.0120   37.6620 H   0  0  0  0  0  0  0  0  0  0  0  0
   40.3960   21.9090   38.7560 H   0  0  0  0  0  0  0  0  0  0  0  0
   37.5700   24.5600   33.0710 C   0  0  0  0  0  0  0  0  0  0  0  0
   38.4580   23.7700   33.8290 C   0  0  0  0  0  0  0  0  0  0  0  0
   39.0080   24.2390   35.0050 C   0  0  0  0  0  0  0  0  0  0  0  0
   38.6100   25.4940   35.3280 N   0  0  0  0  0  0  0  0  0  0  0  0
   37.7730   26.2560   34.6260 C   0  0  0  0  0  0  0  0  0  0  0  0
   37.2470   25.7800   33.4840 N   0  0  0  0  0  0  0  0  0  0  0  0
   37.1420   24.1750   32.1430 H   0  0  0  0  0  0  0  0  0  0  0  0
   38.6890   22.7690   33.4410 H   0  0  0  0  0  0  0  0  0  0  0  0
   37.4310   27.5920   35.0950 C   0  0  0  0  0  0  0  0  0  0  0  0
   38.0020   28.0540   35.8870 H   0  0  0  0  0  0  0  0  0  0  0  0
   36.4690   28.2240   34.5850 O   0  0  0  0  0  0  0  0  0  0  0  0
   37.5710   22.6490   38.1320 N   0  0  0  0  0  0  0  0  0  0  0  0
   38.5430   23.4790   37.8120 C   0  0  0  0  0  0  0  0  0  0  0  0
   37.9980   24.5820   38.4850 N   0  0  0  0  0  0  0  0  0  0  0  0
   36.7650   22.9800   38.7100 H   0  0  0  0  0  0  0  0  0  0  0  0
   38.1970   24.9850   39.4460 H   0  0  0  0  0  0  0  0  0  0  0  0
   37.2580   25.2440   38.1480 H   0  0  0  0  0  0  0  0  0  0  0  0
  1  6  1  0  0  0  0
  1 23  1  0  0  0  0
  2  1  2  0  0  0  0
  3  2  1  0  0  0  0
  3  4  2  0  0  0  0
  4  5  1  0  0  0  0
  5  9  1  0  0  0  0
  5  6  2  0  0  0  0
  6 10  1  0  0  0  0
  7  3  1  0  0  0  0
  8  4  1  0  0  0  0
 11 16  2  0  0  0  0
 11 12  1  0  0  0  0
 12 13  2  0  0  0  0
 13 14  1  0  0  0  0
 13  2  1  0  0  0  0
 15 19  1  0  0  0  0
 15 14  2  0  0  0  0
 16 15  1  0  0  0  0
 17 11  1  0  0  0  0
 18 12  1  0  0  0  0
 19 20  1  0  0  0  0
 21 19  2  0  0  0  0
 22 25  1  0  0  0  0
 23 22  2  0  0  0  0
 23 24  1  0  0  0  0
 24 26  1  0  0  0  0
 27 24  1  0  0  0  0
M  END
>  <minimizedAffinity>
-4.67325306

$$$$

 OpenBabel03272505193D

 27 28  0  0  0  0  0  0  0  0999 V2000
   38.8750   24.4620   36.4860 C   0  0  0  0  0  0  0  0  0  0  0  0
   39.9060   24.4540   35.5980 C   0  0  0  0  0  0  0  0  0  0  0  0
   40.1230   25.6120   34.8820 C   0  0  0  0  0  0  0  0  0  0  0  0
   39.3590   26.7130   35.0380 C   0  0  0  0  0  0  0  0  0  0  0  0
   38.3050   26.7520   35.9290 C   0  0  0  0  0  0  0  0  0  0  0  0
   38.0820   25.5970   36.6500 C   0  0  0  0  0  0  0  0  0  0  0  0
   40.9440   25.6110   34.1740 H   0  0  0  0  0  0  0  0  0  0  0  0
   39.6000   27.5840   34.4320 H   0  0  0  0  0  0  0  0  0  0  0  0
   37.7170   27.6560   36.0230 H   0  0  0  0  0  0  0  0  0  0  0  0
   37.2420   25.7010   37.3270 H   0  0  0  0  0  0  0  0  0  0  0  0
   41.6890   21.6590   33.9100 C   0  0  0  0  0  0  0  0  0  0  0  0
   40.9250   22.8170   34.1580 C   0  0  0  0  0  0  0  0  0  0  0  0
   40.6980   23.2630   35.4440 C   0  0  0  0  0  0  0  0  0  0  0  0
   41.2720   22.4900   36.3970 N   0  0  0  0  0  0  0  0  0  0  0  0
   41.9970   21.3930   36.1840 C   0  0  0  0  0  0  0  0  0  0  0  0
   42.2070   20.9750   34.9240 N   0  0  0  0  0  0  0  0  0  0  0  0
   41.8610   21.3170   32.8870 H   0  0  0  0  0  0  0  0  0  0  0  0
   40.5220   23.3430   33.2820 H   0  0  0  0  0  0  0  0  0  0  0  0
   42.5560   20.6550   37.3090 C   0  0  0  0  0  0  0  0  0  0  0  0
   42.4610   21.0400   38.3130 H   0  0  0  0  0  0  0  0  0  0  0  0
   43.1550   19.5640   37.1260 O   0  0  0  0  0  0  0  0  0  0  0  0
   37.3810   22.6880   37.0960 N   0  0  0  0  0  0  0  0  0  0  0  0
   38.4600   23.3980   37.3540 C   0  0  0  0  0  0  0  0  0  0  0  0
   38.7850   22.7150   38.5350 N   0  0  0  0  0  0  0  0  0  0  0  0
   37.0880   21.9220   37.7440 H   0  0  0  0  0  0  0  0  0  0  0  0
   39.4650   21.9240   38.7220 H   0  0  0  0  0  0  0  0  0  0  0  0
   38.3980   22.8670   39.4970 H   0  0  0  0  0  0  0  0  0  0  0  0
  1  6  1  0  0  0  0
  1 23  1  0  0  0  0
  2  1  2  0  0  0  0
  3  4  2  0  0  0  0
  3  2  1  0  0  0  0
  4  5  1  0  0  0  0
  5  9  1  0  0  0  0
  5  6  2  0  0  0  0
  6 10  1  0  0  0  0
  7  3  1  0  0  0  0
  8  4  1  0  0  0  0
 11 12  2  0  0  0  0
 11 16  1  0  0  0  0
 12 13  1  0  0  0  0
 13  2  1  0  0  0  0
 13 14  2  0  0  0  0
 15 14  1  0  0  0  0
 15 19  1  0  0  0  0
 16 15  2  0  0  0  0
 17 11  1  0  0  0  0
 18 12  1  0  0  0  0
 19 20  1  0  0  0  0
 21 19  2  0  0  0  0
 22 23  2  0  0  0  0
 22 25  1  0  0  0  0
 23 24  1  0  0  0  0
 24 26  1  0  0  0  0
 24 27  1  0  0  0  0
M  END
>  <minimizedAffinity>
-4.61230564

$$$$
