
 OpenBabel03272508203D

 35 37  0  0  0  0  0  0  0  0999 V2000
   36.2160   28.9380   33.0950 C   0  0  0  0  0  0  0  0  0  0  0  0
   36.2430   29.3620   32.0220 H   0  0  0  0  0  0  0  0  0  0  0  0
   36.9880   29.5260   33.5630 H   0  0  0  0  0  0  0  0  0  0  0  0
   37.1610   26.7270   33.7360 C   0  0  0  0  0  0  0  0  0  0  0  0
   36.4460   27.5380   32.8750 C   0  0  0  0  0  0  0  0  0  0  0  0
   36.0410   26.8750   31.7450 C   0  0  0  0  0  0  0  0  0  0  0  0
   36.3050   25.5890   31.4960 N   0  0  0  0  0  0  0  0  0  0  0  0
   36.9980   24.8270   32.3390 C   0  0  0  0  0  0  0  0  0  0  0  0
   37.4300   25.3950   33.4650 N   0  0  0  0  0  0  0  0  0  0  0  0
   35.4670   27.3690   30.9680 H   0  0  0  0  0  0  0  0  0  0  0  0
   37.3080   23.7980   32.3210 H   0  0  0  0  0  0  0  0  0  0  0  0
   37.5650   27.3060   35.0950 C   0  0  0  0  0  0  0  0  0  0  0  0
   38.1820   26.5410   36.0900 C   0  0  0  0  0  0  0  0  0  0  0  0
   39.1470   27.2450   35.1490 C   0  0  0  0  0  0  0  0  0  0  0  0
   37.2480   28.3570   35.3060 H   0  0  0  0  0  0  0  0  0  0  0  0
   38.2440   26.8610   37.1250 H   0  0  0  0  0  0  0  0  0  0  0  0
   38.1680   25.4160   36.0050 H   0  0  0  0  0  0  0  0  0  0  0  0
   39.6200   28.1700   35.4530 H   0  0  0  0  0  0  0  0  0  0  0  0
   39.6720   26.6660   34.4020 H   0  0  0  0  0  0  0  0  0  0  0  0
   34.8800   29.3350   33.5850 C   0  0  0  0  0  0  0  0  0  0  0  0
   34.1950   29.7300   32.8070 H   0  0  0  0  0  0  0  0  0  0  0  0
   34.3670   28.3880   33.9290 H   0  0  0  0  0  0  0  0  0  0  0  0
   32.4630   29.6630   34.8420 F   0  0  0  0  0  0  0  0  0  0  0  0
   33.5590   30.3490   35.2740 C   0  0  0  0  0  0  0  0  0  0  0  0
   34.8290   30.2540   34.7070 C   0  0  0  0  0  0  0  0  0  0  0  0
   35.8360   31.0200   35.2550 C   0  0  0  0  0  0  0  0  0  0  0  0
   35.5950   31.8430   36.3220 C   0  0  0  0  0  0  0  0  0  0  0  0
   34.3220   31.9340   36.8880 C   0  0  0  0  0  0  0  0  0  0  0  0
   33.3090   31.1840   36.3560 C   0  0  0  0  0  0  0  0  0  0  0  0
   36.8060   30.9470   34.8120 H   0  0  0  0  0  0  0  0  0  0  0  0
   36.3830   32.4290   36.7380 H   0  0  0  0  0  0  0  0  0  0  0  0
   34.1540   32.5810   37.7170 H   0  0  0  0  0  0  0  0  0  0  0  0
   31.9830   31.2910   36.9590 C   0  0  0  0  0  0  0  0  0  0  0  0
   31.5540   30.5720   37.6350 H   0  0  0  0  0  0  0  0  0  0  0  0
   31.2260   32.2580   36.7270 O   0  0  0  0  0  0  0  0  0  0  0  0
  1  3  1  0  0  0  0
  1 20  1  0  0  0  0
  2  1  1  0  0  0  0
  4 12  1  0  0  0  0
  5  1  1  0  0  0  0
  5  4  2  0  0  0  0
  6  5  1  0  0  0  0
  7  6  2  0  0  0  0
  7  8  1  0  0  0  0
  8  9  2  0  0  0  0
  9  4  1  0  0  0  0
 10  6  1  0  0  0  0
 11  8  1  0  0  0  0
 12 14  1  0  0  0  0
 12 15  1  0  0  0  0
 12 13  1  0  0  0  0
 13 16  1  0  0  0  0
 14 18  1  0  0  0  0
 14 13  1  0  0  0  0
 17 13  1  0  0  0  0
 19 14  1  0  0  0  0
 20 22  1  0  0  0  0
 20 25  1  0  0  0  0
 21 20  1  0  0  0  0
 23 24  1  0  0  0  0
 24 29  1  0  0  0  0
 25 26  1  0  0  0  0
 25 24  2  0  0  0  0
 26 27  2  0  0  0  0
 27 31  1  0  0  0  0
 27 28  1  0  0  0  0
 28 32  1  0  0  0  0
 29 28  2  0  0  0  0
 29 33  1  0  0  0  0
 30 26  1  0  0  0  0
 33 34  1  0  0  0  0
 35 33  2  0  0  0  0
M  END
>  <minimizedAffinity>
-5.24684477

$$$$

 OpenBabel03272508203D

 35 37  0  0  0  0  0  0  0  0999 V2000
   35.8950   29.3920   32.9210 C   0  0  0  0  0  0  0  0  0  0  0  0
   36.6440   29.8990   33.6380 H   0  0  0  0  0  0  0  0  0  0  0  0
   36.1430   29.8780   31.9930 H   0  0  0  0  0  0  0  0  0  0  0  0
   34.5010   30.2950   34.7760 C   0  0  0  0  0  0  0  0  0  0  0  0
   34.6340   29.6850   33.5420 C   0  0  0  0  0  0  0  0  0  0  0  0
   33.4250   29.3210   33.0050 C   0  0  0  0  0  0  0  0  0  0  0  0
   32.2470   29.5270   33.6010 N   0  0  0  0  0  0  0  0  0  0  0  0
   32.1440   30.1140   34.7910 C   0  0  0  0  0  0  0  0  0  0  0  0
   33.2730   30.5000   35.3840 N   0  0  0  0  0  0  0  0  0  0  0  0
   33.3540   28.8320   32.0390 H   0  0  0  0  0  0  0  0  0  0  0  0
   31.3100   30.3630   35.4210 H   0  0  0  0  0  0  0  0  0  0  0  0
   35.7620   30.8660   35.4310 C   0  0  0  0  0  0  0  0  0  0  0  0
   36.1220   32.2130   35.3300 C   0  0  0  0  0  0  0  0  0  0  0  0
   35.2620   31.8810   36.5400 C   0  0  0  0  0  0  0  0  0  0  0  0
   36.4520   30.1310   35.9140 H   0  0  0  0  0  0  0  0  0  0  0  0
   37.1170   32.5760   35.5680 H   0  0  0  0  0  0  0  0  0  0  0  0
   35.6220   32.8590   34.5520 H   0  0  0  0  0  0  0  0  0  0  0  0
   35.7230   31.7460   37.5100 H   0  0  0  0  0  0  0  0  0  0  0  0
   34.2220   32.1780   36.5450 H   0  0  0  0  0  0  0  0  0  0  0  0
   36.3320   27.9810   32.9130 C   0  0  0  0  0  0  0  0  0  0  0  0
   35.5240   27.2400   33.0790 H   0  0  0  0  0  0  0  0  0  0  0  0
   36.6810   27.7560   31.8610 H   0  0  0  0  0  0  0  0  0  0  0  0
   38.7290   27.3380   31.7410 F   0  0  0  0  0  0  0  0  0  0  0  0
   38.6000   27.3110   33.0980 C   0  0  0  0  0  0  0  0  0  0  0  0
   37.4300   27.6190   33.7900 C   0  0  0  0  0  0  0  0  0  0  0  0
   37.4580   27.5380   35.1670 C   0  0  0  0  0  0  0  0  0  0  0  0
   38.5980   27.1690   35.8290 C   0  0  0  0  0  0  0  0  0  0  0  0
   39.7680   26.8620   35.1310 C   0  0  0  0  0  0  0  0  0  0  0  0
   39.7600   26.9350   33.7650 C   0  0  0  0  0  0  0  0  0  0  0  0
   36.5560   27.7700   35.6910 H   0  0  0  0  0  0  0  0  0  0  0  0
   38.6070   27.1120   36.8930 H   0  0  0  0  0  0  0  0  0  0  0  0
   40.6450   26.5760   35.6640 H   0  0  0  0  0  0  0  0  0  0  0  0
   40.9910   26.6100   33.0500 C   0  0  0  0  0  0  0  0  0  0  0  0
   41.0810   26.5330   31.9800 H   0  0  0  0  0  0  0  0  0  0  0  0
   42.0670   26.3910   33.6490 O   0  0  0  0  0  0  0  0  0  0  0  0
  1  5  1  0  0  0  0
  1  2  1  0  0  0  0
  3  1  1  0  0  0  0
  4  9  1  0  0  0  0
  4 12  1  0  0  0  0
  5  4  2  0  0  0  0
  6  5  1  0  0  0  0
  6  7  2  0  0  0  0
  7  8  1  0  0  0  0
  8  9  2  0  0  0  0
  8 11  1  0  0  0  0
 10  6  1  0  0  0  0
 12 15  1  0  0  0  0
 12 14  1  0  0  0  0
 13 12  1  0  0  0  0
 13 16  1  0  0  0  0
 13 14  1  0  0  0  0
 14 19  1  0  0  0  0
 14 18  1  0  0  0  0
 17 13  1  0  0  0  0
 20  1  1  0  0  0  0
 20 21  1  0  0  0  0
 20 25  1  0  0  0  0
 22 20  1  0  0  0  0
 23 24  1  0  0  0  0
 24 29  2  0  0  0  0
 24 25  1  0  0  0  0
 25 26  2  0  0  0  0
 26 30  1  0  0  0  0
 26 27  1  0  0  0  0
 27 31  1  0  0  0  0
 28 32  1  0  0  0  0
 28 27  2  0  0  0  0
 29 28  1  0  0  0  0
 33 35  2  0  0  0  0
 33 29  1  0  0  0  0
 34 33  1  0  0  0  0
M  END
>  <minimizedAffinity>
-5.06764364

$$$$

 OpenBabel03272508203D

 35 37  0  0  0  0  0  0  0  0999 V2000
   35.2890   29.1090   34.1550 C   0  0  0  0  0  0  0  0  0  0  0  0
   35.3530   28.3510   35.0220 H   0  0  0  0  0  0  0  0  0  0  0  0
   34.2450   29.0390   33.9020 H   0  0  0  0  0  0  0  0  0  0  0  0
   37.1980   27.6320   33.5480 C   0  0  0  0  0  0  0  0  0  0  0  0
   36.2630   28.6000   33.2320 C   0  0  0  0  0  0  0  0  0  0  0  0
   36.4150   29.0770   31.9550 C   0  0  0  0  0  0  0  0  0  0  0  0
   37.3580   28.6600   31.1060 N   0  0  0  0  0  0  0  0  0  0  0  0
   38.2500   27.7280   31.4330 C   0  0  0  0  0  0  0  0  0  0  0  0
   38.1730   27.2100   32.6590 N   0  0  0  0  0  0  0  0  0  0  0  0
   35.7590   29.8410   31.5490 H   0  0  0  0  0  0  0  0  0  0  0  0
   39.0670   27.2700   30.9060 H   0  0  0  0  0  0  0  0  0  0  0  0
   37.0650   26.9220   34.8990 C   0  0  0  0  0  0  0  0  0  0  0  0
   38.0130   26.0100   35.3700 C   0  0  0  0  0  0  0  0  0  0  0  0
   38.2600   27.4490   35.7950 C   0  0  0  0  0  0  0  0  0  0  0  0
   36.1100   27.0850   35.4580 H   0  0  0  0  0  0  0  0  0  0  0  0
   37.8140   25.3240   36.1880 H   0  0  0  0  0  0  0  0  0  0  0  0
   38.7730   25.5860   34.6510 H   0  0  0  0  0  0  0  0  0  0  0  0
   37.9670   27.7790   36.7830 H   0  0  0  0  0  0  0  0  0  0  0  0
   39.0570   28.0070   35.3240 H   0  0  0  0  0  0  0  0  0  0  0  0
   35.5880   30.4010   34.8080 C   0  0  0  0  0  0  0  0  0  0  0  0
   36.4970   30.4040   35.4430 H   0  0  0  0  0  0  0  0  0  0  0  0
   35.8420   31.1300   33.9830 H   0  0  0  0  0  0  0  0  0  0  0  0
   36.1700   32.7390   36.1210 F   0  0  0  0  0  0  0  0  0  0  0  0
   34.9230   32.1970   36.2070 C   0  0  0  0  0  0  0  0  0  0  0  0
   34.5250   31.0170   35.5810 C   0  0  0  0  0  0  0  0  0  0  0  0
   33.2260   30.5960   35.7710 C   0  0  0  0  0  0  0  0  0  0  0  0
   32.3570   31.3140   36.5480 C   0  0  0  0  0  0  0  0  0  0  0  0
   32.7600   32.4970   37.1720 C   0  0  0  0  0  0  0  0  0  0  0  0
   34.0450   32.9300   36.9970 C   0  0  0  0  0  0  0  0  0  0  0  0
   32.9290   29.6860   35.2930 H   0  0  0  0  0  0  0  0  0  0  0  0
   31.3550   30.9780   36.6850 H   0  0  0  0  0  0  0  0  0  0  0  0
   32.0690   33.0410   37.7730 H   0  0  0  0  0  0  0  0  0  0  0  0
   34.4500   34.1680   37.6580 C   0  0  0  0  0  0  0  0  0  0  0  0
   35.2890   34.7770   37.3650 H   0  0  0  0  0  0  0  0  0  0  0  0
   33.8320   34.6260   38.6430 O   0  0  0  0  0  0  0  0  0  0  0  0
  1 20  1  0  0  0  0
  1  2  1  0  0  0  0
  3  1  1  0  0  0  0
  4 12  1  0  0  0  0
  5  4  1  0  0  0  0
  5  1  1  0  0  0  0
  6  5  2  0  0  0  0
  7  8  2  0  0  0  0
  7  6  1  0  0  0  0
  8  9  1  0  0  0  0
  9  4  2  0  0  0  0
 10  6  1  0  0  0  0
 11  8  1  0  0  0  0
 12 13  1  0  0  0  0
 12 15  1  0  0  0  0
 12 14  1  0  0  0  0
 13 14  1  0  0  0  0
 13 16  1  0  0  0  0
 14 18  1  0  0  0  0
 17 13  1  0  0  0  0
 19 14  1  0  0  0  0
 20 21  1  0  0  0  0
 20 25  1  0  0  0  0
 22 20  1  0  0  0  0
 23 24  1  0  0  0  0
 24 29  1  0  0  0  0
 25 26  1  0  0  0  0
 25 24  2  0  0  0  0
 26 27  2  0  0  0  0
 27 31  1  0  0  0  0
 27 28  1  0  0  0  0
 28 32  1  0  0  0  0
 29 28  2  0  0  0  0
 29 33  1  0  0  0  0
 30 26  1  0  0  0  0
 33 35  2  0  0  0  0
 34 33  1  0  0  0  0
M  END
>  <minimizedAffinity>
-5.05497932

$$$$

 OpenBabel03272508203D

 35 37  0  0  0  0  0  0  0  0999 V2000
   38.0850   27.1550   35.5040 C   0  0  0  0  0  0  0  0  0  0  0  0
   38.5950   28.1020   35.0870 H   0  0  0  0  0  0  0  0  0  0  0  0
   37.8350   27.4810   36.4990 H   0  0  0  0  0  0  0  0  0  0  0  0
   39.0690   24.9060   35.9150 C   0  0  0  0  0  0  0  0  0  0  0  0
   39.1070   26.1610   35.3360 C   0  0  0  0  0  0  0  0  0  0  0  0
   40.2690   26.3810   34.6400 C   0  0  0  0  0  0  0  0  0  0  0  0
   41.2580   25.4900   34.5310 N   0  0  0  0  0  0  0  0  0  0  0  0
   41.2000   24.2880   35.1000 C   0  0  0  0  0  0  0  0  0  0  0  0
   40.1030   23.9920   35.7960 N   0  0  0  0  0  0  0  0  0  0  0  0
   40.4560   27.3180   34.1240 H   0  0  0  0  0  0  0  0  0  0  0  0
   41.8750   23.4510   35.1290 H   0  0  0  0  0  0  0  0  0  0  0  0
   37.7750   24.4800   36.6160 C   0  0  0  0  0  0  0  0  0  0  0  0
   37.6620   23.2860   37.3330 C   0  0  0  0  0  0  0  0  0  0  0  0
   38.0920   24.4820   38.1680 C   0  0  0  0  0  0  0  0  0  0  0  0
   36.8770   25.1220   36.4410 H   0  0  0  0  0  0  0  0  0  0  0  0
   36.7060   22.8570   37.6150 H   0  0  0  0  0  0  0  0  0  0  0  0
   38.4490   22.4880   37.2000 H   0  0  0  0  0  0  0  0  0  0  0  0
   37.3650   25.0080   38.7720 H   0  0  0  0  0  0  0  0  0  0  0  0
   39.1210   24.5570   38.4890 H   0  0  0  0  0  0  0  0  0  0  0  0
   36.8730   27.0250   34.6700 C   0  0  0  0  0  0  0  0  0  0  0  0
   36.8460   26.1260   34.0210 H   0  0  0  0  0  0  0  0  0  0  0  0
   36.0070   26.8630   35.3790 H   0  0  0  0  0  0  0  0  0  0  0  0
   37.9060   27.1210   32.1300 F   0  0  0  0  0  0  0  0  0  0  0  0
   37.0860   28.1150   32.5730 C   0  0  0  0  0  0  0  0  0  0  0  0
   36.5100   28.1610   33.8420 C   0  0  0  0  0  0  0  0  0  0  0  0
   35.7050   29.2400   34.1430 C   0  0  0  0  0  0  0  0  0  0  0  0
   35.4800   30.2300   33.2250 C   0  0  0  0  0  0  0  0  0  0  0  0
   36.0580   30.1780   31.9550 C   0  0  0  0  0  0  0  0  0  0  0  0
   36.8610   29.1170   31.6380 C   0  0  0  0  0  0  0  0  0  0  0  0
   35.2720   29.2730   35.1200 H   0  0  0  0  0  0  0  0  0  0  0  0
   34.8550   31.0570   33.4700 H   0  0  0  0  0  0  0  0  0  0  0  0
   35.8700   30.9590   31.2550 H   0  0  0  0  0  0  0  0  0  0  0  0
   37.4580   29.0790   30.3060 C   0  0  0  0  0  0  0  0  0  0  0  0
   38.3680   29.5810   30.0240 H   0  0  0  0  0  0  0  0  0  0  0  0
   36.9380   28.4410   29.3640 O   0  0  0  0  0  0  0  0  0  0  0  0
  1  3  1  0  0  0  0
  2  1  1  0  0  0  0
  4 12  1  0  0  0  0
  5  1  1  0  0  0  0
  5  4  2  0  0  0  0
  6  5  1  0  0  0  0
  7  6  2  0  0  0  0
  7  8  1  0  0  0  0
  8 11  1  0  0  0  0
  8  9  2  0  0  0  0
  9  4  1  0  0  0  0
 10  6  1  0  0  0  0
 12 13  1  0  0  0  0
 12 14  1  0  0  0  0
 13 16  1  0  0  0  0
 13 14  1  0  0  0  0
 14 19  1  0  0  0  0
 14 18  1  0  0  0  0
 15 12  1  0  0  0  0
 17 13  1  0  0  0  0
 20 22  1  0  0  0  0
 20  1  1  0  0  0  0
 21 20  1  0  0  0  0
 23 24  1  0  0  0  0
 24 25  1  0  0  0  0
 25 26  2  0  0  0  0
 25 20  1  0  0  0  0
 26 30  1  0  0  0  0
 27 31  1  0  0  0  0
 27 26  1  0  0  0  0
 28 27  2  0  0  0  0
 29 28  1  0  0  0  0
 29 24  2  0  0  0  0
 32 28  1  0  0  0  0
 33 29  1  0  0  0  0
 34 33  1  0  0  0  0
 35 33  2  0  0  0  0
M  END
>  <minimizedAffinity>
-5.02081347

$$$$

 OpenBabel03272508203D

 35 37  0  0  0  0  0  0  0  0999 V2000
   36.7590   27.3950   34.6440 C   0  0  0  0  0  0  0  0  0  0  0  0
   36.8580   26.3240   34.2290 H   0  0  0  0  0  0  0  0  0  0  0  0
   35.8750   27.2960   35.2510 H   0  0  0  0  0  0  0  0  0  0  0  0
   35.9480   29.3410   33.3200 C   0  0  0  0  0  0  0  0  0  0  0  0
   36.6920   28.1820   33.4450 C   0  0  0  0  0  0  0  0  0  0  0  0
   37.3030   27.8220   32.2710 C   0  0  0  0  0  0  0  0  0  0  0  0
   37.1960   28.5080   31.1290 N   0  0  0  0  0  0  0  0  0  0  0  0
   36.4720   29.6210   31.0310 C   0  0  0  0  0  0  0  0  0  0  0  0
   35.8430   30.0410   32.1290 N   0  0  0  0  0  0  0  0  0  0  0  0
   37.9260   26.9370   32.2000 H   0  0  0  0  0  0  0  0  0  0  0  0
   36.2650   30.2990   30.2230 H   0  0  0  0  0  0  0  0  0  0  0  0
   35.3150   29.9260   34.5860 C   0  0  0  0  0  0  0  0  0  0  0  0
   34.3870   30.9700   34.5530 C   0  0  0  0  0  0  0  0  0  0  0  0
   33.7720   29.5800   34.5090 C   0  0  0  0  0  0  0  0  0  0  0  0
   35.7100   29.5500   35.5620 H   0  0  0  0  0  0  0  0  0  0  0  0
   34.1250   31.5520   35.4310 H   0  0  0  0  0  0  0  0  0  0  0  0
   34.2720   31.5740   33.6070 H   0  0  0  0  0  0  0  0  0  0  0  0
   33.3660   29.1390   35.4100 H   0  0  0  0  0  0  0  0  0  0  0  0
   33.3660   29.2140   33.5760 H   0  0  0  0  0  0  0  0  0  0  0  0
   37.9630   27.5480   35.4860 C   0  0  0  0  0  0  0  0  0  0  0  0
   38.4160   28.5600   35.4730 H   0  0  0  0  0  0  0  0  0  0  0  0
   37.6260   27.4260   36.5580 H   0  0  0  0  0  0  0  0  0  0  0  0
   37.6250   25.0270   36.5140 F   0  0  0  0  0  0  0  0  0  0  0  0
   38.7690   25.3470   35.8470 C   0  0  0  0  0  0  0  0  0  0  0  0
   39.0390   26.5950   35.2880 C   0  0  0  0  0  0  0  0  0  0  0  0
   40.2490   26.7640   34.6480 C   0  0  0  0  0  0  0  0  0  0  0  0
   41.1520   25.7390   34.5640 C   0  0  0  0  0  0  0  0  0  0  0  0
   40.8770   24.4900   35.1250 C   0  0  0  0  0  0  0  0  0  0  0  0
   39.6830   24.3030   35.7660 C   0  0  0  0  0  0  0  0  0  0  0  0
   40.4520   27.7260   34.2270 H   0  0  0  0  0  0  0  0  0  0  0  0
   42.0830   25.8820   34.0660 H   0  0  0  0  0  0  0  0  0  0  0  0
   41.5940   23.7050   35.0500 H   0  0  0  0  0  0  0  0  0  0  0  0
   39.4120   22.9910   36.3470 C   0  0  0  0  0  0  0  0  0  0  0  0
   38.9410   22.1730   35.8290 H   0  0  0  0  0  0  0  0  0  0  0  0
   39.7160   22.7130   37.5270 O   0  0  0  0  0  0  0  0  0  0  0  0
  1  3  1  0  0  0  0
  1 20  1  0  0  0  0
  2  1  1  0  0  0  0
  4  5  1  0  0  0  0
  4 12  1  0  0  0  0
  5  1  1  0  0  0  0
  6  5  2  0  0  0  0
  7  6  1  0  0  0  0
  8  7  2  0  0  0  0
  8  9  1  0  0  0  0
  9  4  2  0  0  0  0
 10  6  1  0  0  0  0
 11  8  1  0  0  0  0
 12 15  1  0  0  0  0
 13 12  1  0  0  0  0
 13 16  1  0  0  0  0
 14 13  1  0  0  0  0
 14 12  1  0  0  0  0
 14 18  1  0  0  0  0
 17 13  1  0  0  0  0
 19 14  1  0  0  0  0
 20 22  1  0  0  0  0
 21 20  1  0  0  0  0
 24 23  1  0  0  0  0
 25 20  1  0  0  0  0
 25 24  2  0  0  0  0
 26 25  1  0  0  0  0
 27 26  2  0  0  0  0
 27 28  1  0  0  0  0
 28 29  2  0  0  0  0
 29 24  1  0  0  0  0
 29 33  1  0  0  0  0
 30 26  1  0  0  0  0
 31 27  1  0  0  0  0
 32 28  1  0  0  0  0
 33 35  2  0  0  0  0
 34 33  1  0  0  0  0
M  END
>  <minimizedAffinity>
-4.95983839

$$$$

 OpenBabel03272508203D

 35 37  0  0  0  0  0  0  0  0999 V2000
   38.6290   25.8690   35.0850 C   0  0  0  0  0  0  0  0  0  0  0  0
   39.3170   26.0380   34.1760 H   0  0  0  0  0  0  0  0  0  0  0  0
   39.2990   26.1070   35.8940 H   0  0  0  0  0  0  0  0  0  0  0  0
   38.0630   23.6000   35.9390 C   0  0  0  0  0  0  0  0  0  0  0  0
   38.2140   24.5060   34.9060 C   0  0  0  0  0  0  0  0  0  0  0  0
   37.9960   23.9400   33.6760 C   0  0  0  0  0  0  0  0  0  0  0  0
   37.6750   22.6560   33.4880 N   0  0  0  0  0  0  0  0  0  0  0  0
   37.5380   21.8010   34.4980 C   0  0  0  0  0  0  0  0  0  0  0  0
   37.7330   22.2710   35.7300 N   0  0  0  0  0  0  0  0  0  0  0  0
   38.0730   24.5170   32.7600 H   0  0  0  0  0  0  0  0  0  0  0  0
   37.2910   20.7560   34.5530 H   0  0  0  0  0  0  0  0  0  0  0  0
   38.1540   24.1290   37.3730 C   0  0  0  0  0  0  0  0  0  0  0  0
   37.8080   23.3570   38.4860 C   0  0  0  0  0  0  0  0  0  0  0  0
   39.2740   23.2690   38.0910 C   0  0  0  0  0  0  0  0  0  0  0  0
   38.4120   25.2100   37.4930 H   0  0  0  0  0  0  0  0  0  0  0  0
   37.6280   23.7860   39.4670 H   0  0  0  0  0  0  0  0  0  0  0  0
   37.2140   22.4090   38.3350 H   0  0  0  0  0  0  0  0  0  0  0  0
   40.0130   23.8520   38.6240 H   0  0  0  0  0  0  0  0  0  0  0  0
   39.6350   22.3730   37.6050 H   0  0  0  0  0  0  0  0  0  0  0  0
   37.5970   26.9150   34.9310 C   0  0  0  0  0  0  0  0  0  0  0  0
   36.5840   26.6270   35.2790 H   0  0  0  0  0  0  0  0  0  0  0  0
   37.8820   27.7580   35.6280 H   0  0  0  0  0  0  0  0  0  0  0  0
   35.4450   28.5710   34.5340 F   0  0  0  0  0  0  0  0  0  0  0  0
   36.3230   28.3330   33.5190 C   0  0  0  0  0  0  0  0  0  0  0  0
   37.4440   27.5110   33.6170 C   0  0  0  0  0  0  0  0  0  0  0  0
   38.2340   27.3660   32.4950 C   0  0  0  0  0  0  0  0  0  0  0  0
   37.9250   28.0090   31.3270 C   0  0  0  0  0  0  0  0  0  0  0  0
   36.8020   28.8330   31.2340 C   0  0  0  0  0  0  0  0  0  0  0  0
   36.0050   28.9880   32.3360 C   0  0  0  0  0  0  0  0  0  0  0  0
   39.0890   26.7280   32.5750 H   0  0  0  0  0  0  0  0  0  0  0  0
   38.5450   27.8900   30.4680 H   0  0  0  0  0  0  0  0  0  0  0  0
   36.5780   29.3250   30.3160 H   0  0  0  0  0  0  0  0  0  0  0  0
   34.8330   29.8520   32.2210 C   0  0  0  0  0  0  0  0  0  0  0  0
   34.0500   29.9290   32.9560 H   0  0  0  0  0  0  0  0  0  0  0  0
   34.6480   30.5900   31.2290 O   0  0  0  0  0  0  0  0  0  0  0  0
  1  3  1  0  0  0  0
  2  1  1  0  0  0  0
  4 12  1  0  0  0  0
  5  1  1  0  0  0  0
  5  4  2  0  0  0  0
  6  5  1  0  0  0  0
  7  6  2  0  0  0  0
  7  8  1  0  0  0  0
  8 11  1  0  0  0  0
  8  9  2  0  0  0  0
  9  4  1  0  0  0  0
 10  6  1  0  0  0  0
 12 15  1  0  0  0  0
 12 14  1  0  0  0  0
 12 13  1  0  0  0  0
 13 16  1  0  0  0  0
 14 13  1  0  0  0  0
 14 18  1  0  0  0  0
 17 13  1  0  0  0  0
 19 14  1  0  0  0  0
 20  1  1  0  0  0  0
 20 21  1  0  0  0  0
 20 22  1  0  0  0  0
 24 25  1  0  0  0  0
 24 23  1  0  0  0  0
 25 20  1  0  0  0  0
 26 30  1  0  0  0  0
 26 25  2  0  0  0  0
 27 26  1  0  0  0  0
 28 27  2  0  0  0  0
 28 29  1  0  0  0  0
 29 24  2  0  0  0  0
 31 27  1  0  0  0  0
 32 28  1  0  0  0  0
 33 29  1  0  0  0  0
 33 34  1  0  0  0  0
 35 33  2  0  0  0  0
M  END
>  <minimizedAffinity>
-4.95297956

$$$$

 OpenBabel03272508203D

 35 37  0  0  0  0  0  0  0  0999 V2000
   38.7620   24.2050   32.6080 C   0  0  0  0  0  0  0  0  0  0  0  0
   39.4960   24.4990   31.7680 H   0  0  0  0  0  0  0  0  0  0  0  0
   38.9520   23.1470   32.6810 H   0  0  0  0  0  0  0  0  0  0  0  0
   36.4190   23.8180   31.8600 C   0  0  0  0  0  0  0  0  0  0  0  0
   37.5020   24.6490   32.0810 C   0  0  0  0  0  0  0  0  0  0  0  0
   37.2670   25.9360   31.6710 C   0  0  0  0  0  0  0  0  0  0  0  0
   36.1230   26.3500   31.1170 N   0  0  0  0  0  0  0  0  0  0  0  0
   35.0940   25.5300   30.9120 C   0  0  0  0  0  0  0  0  0  0  0  0
   35.2390   24.2580   31.2820 N   0  0  0  0  0  0  0  0  0  0  0  0
   38.0160   26.7150   31.7750 H   0  0  0  0  0  0  0  0  0  0  0  0
   34.1140   25.6660   30.4900 H   0  0  0  0  0  0  0  0  0  0  0  0
   36.5000   22.3820   32.3860 C   0  0  0  0  0  0  0  0  0  0  0  0
   35.4990   21.4340   32.1530 C   0  0  0  0  0  0  0  0  0  0  0  0
   36.6060   21.4480   31.1110 C   0  0  0  0  0  0  0  0  0  0  0  0
   37.3550   22.1450   33.0660 H   0  0  0  0  0  0  0  0  0  0  0  0
   35.4200   20.5100   32.7180 H   0  0  0  0  0  0  0  0  0  0  0  0
   34.4900   21.7800   31.7840 H   0  0  0  0  0  0  0  0  0  0  0  0
   37.4020   20.7170   31.1580 H   0  0  0  0  0  0  0  0  0  0  0  0
   36.4060   21.8730   30.1370 H   0  0  0  0  0  0  0  0  0  0  0  0
   39.2900   24.9190   33.7880 C   0  0  0  0  0  0  0  0  0  0  0  0
   40.1480   25.5910   33.5830 H   0  0  0  0  0  0  0  0  0  0  0  0
   38.4780   25.6290   34.1280 H   0  0  0  0  0  0  0  0  0  0  0  0
   37.6320   25.0590   35.9700 F   0  0  0  0  0  0  0  0  0  0  0  0
   38.7370   24.2620   35.9990 C   0  0  0  0  0  0  0  0  0  0  0  0
   39.6400   24.1200   34.9470 C   0  0  0  0  0  0  0  0  0  0  0  0
   40.7160   23.2770   35.1350 C   0  0  0  0  0  0  0  0  0  0  0  0
   40.8880   22.6030   36.3130 C   0  0  0  0  0  0  0  0  0  0  0  0
   39.9790   22.7470   37.3640 C   0  0  0  0  0  0  0  0  0  0  0  0
   38.9060   23.5800   37.1980 C   0  0  0  0  0  0  0  0  0  0  0  0
   41.4090   23.1780   34.3270 H   0  0  0  0  0  0  0  0  0  0  0  0
   41.7220   21.9540   36.4450 H   0  0  0  0  0  0  0  0  0  0  0  0
   40.1300   22.2140   38.2740 H   0  0  0  0  0  0  0  0  0  0  0  0
   37.9660   23.7200   38.3070 C   0  0  0  0  0  0  0  0  0  0  0  0
   37.2420   22.9790   38.5980 H   0  0  0  0  0  0  0  0  0  0  0  0
   37.9320   24.7460   39.0210 O   0  0  0  0  0  0  0  0  0  0  0  0
  1  3  1  0  0  0  0
  1 20  1  0  0  0  0
  2  1  1  0  0  0  0
  4  5  1  0  0  0  0
  4 12  1  0  0  0  0
  5  1  1  0  0  0  0
  6 10  1  0  0  0  0
  6  5  2  0  0  0  0
  7  6  1  0  0  0  0
  8  7  2  0  0  0  0
  8  9  1  0  0  0  0
  9  4  2  0  0  0  0
 11  8  1  0  0  0  0
 12 15  1  0  0  0  0
 13 12  1  0  0  0  0
 13 16  1  0  0  0  0
 14 18  1  0  0  0  0
 14 13  1  0  0  0  0
 14 12  1  0  0  0  0
 17 13  1  0  0  0  0
 19 14  1  0  0  0  0
 20 22  1  0  0  0  0
 20 25  1  0  0  0  0
 21 20  1  0  0  0  0
 23 24  1  0  0  0  0
 24 29  1  0  0  0  0
 25 26  1  0  0  0  0
 25 24  2  0  0  0  0
 26 27  2  0  0  0  0
 27 31  1  0  0  0  0
 27 28  1  0  0  0  0
 28 32  1  0  0  0  0
 29 28  2  0  0  0  0
 29 33  1  0  0  0  0
 30 26  1  0  0  0  0
 33 34  1  0  0  0  0
 33 35  2  0  0  0  0
M  END
>  <minimizedAffinity>
-4.92456913

$$$$

 OpenBabel03272508203D

 35 37  0  0  0  0  0  0  0  0999 V2000
   35.9270   28.2300   33.8390 C   0  0  0  0  0  0  0  0  0  0  0  0
   35.3420   28.0050   34.8070 H   0  0  0  0  0  0  0  0  0  0  0  0
   35.3570   27.6640   33.1220 H   0  0  0  0  0  0  0  0  0  0  0  0
   38.1650   27.3130   33.2540 C   0  0  0  0  0  0  0  0  0  0  0  0
   37.2520   27.7920   34.1750 C   0  0  0  0  0  0  0  0  0  0  0  0
   37.7250   27.7330   35.4610 C   0  0  0  0  0  0  0  0  0  0  0  0
   38.9310   27.2650   35.7960 N   0  0  0  0  0  0  0  0  0  0  0  0
   39.7930   26.8060   34.8920 C   0  0  0  0  0  0  0  0  0  0  0  0
   39.4120   26.8280   33.6150 N   0  0  0  0  0  0  0  0  0  0  0  0
   37.1310   28.0720   36.3040 H   0  0  0  0  0  0  0  0  0  0  0  0
   40.7850   26.3980   34.9580 H   0  0  0  0  0  0  0  0  0  0  0  0
   37.8170   27.4380   31.7680 C   0  0  0  0  0  0  0  0  0  0  0  0
   38.5850   26.8500   30.7600 C   0  0  0  0  0  0  0  0  0  0  0  0
   37.4510   25.9780   31.2750 C   0  0  0  0  0  0  0  0  0  0  0  0
   36.9680   28.1180   31.5090 H   0  0  0  0  0  0  0  0  0  0  0  0
   38.5000   27.1320   29.7150 H   0  0  0  0  0  0  0  0  0  0  0  0
   39.6220   26.4790   31.0040 H   0  0  0  0  0  0  0  0  0  0  0  0
   36.5240   25.9130   30.7200 H   0  0  0  0  0  0  0  0  0  0  0  0
   37.6810   25.1390   31.9160 H   0  0  0  0  0  0  0  0  0  0  0  0
   35.7240   29.6810   33.6470 C   0  0  0  0  0  0  0  0  0  0  0  0
   36.6050   30.2280   33.2560 H   0  0  0  0  0  0  0  0  0  0  0  0
   34.9580   29.7950   32.8230 H   0  0  0  0  0  0  0  0  0  0  0  0
   33.0430   29.4910   34.1990 F   0  0  0  0  0  0  0  0  0  0  0  0
   33.8470   30.2730   34.9720 C   0  0  0  0  0  0  0  0  0  0  0  0
   35.2180   30.4380   34.7770 C   0  0  0  0  0  0  0  0  0  0  0  0
   35.8940   31.2710   35.6430 C   0  0  0  0  0  0  0  0  0  0  0  0
   35.2400   31.9130   36.6610 C   0  0  0  0  0  0  0  0  0  0  0  0
   33.8670   31.7440   36.8530 C   0  0  0  0  0  0  0  0  0  0  0  0
   33.1790   30.9220   36.0030 C   0  0  0  0  0  0  0  0  0  0  0  0
   36.9440   31.3980   35.4840 H   0  0  0  0  0  0  0  0  0  0  0  0
   35.7750   32.5530   37.3240 H   0  0  0  0  0  0  0  0  0  0  0  0
   33.3760   32.2520   37.6500 H   0  0  0  0  0  0  0  0  0  0  0  0
   31.7430   30.7570   36.2170 C   0  0  0  0  0  0  0  0  0  0  0  0
   30.9810   31.3940   35.8010 H   0  0  0  0  0  0  0  0  0  0  0  0
   31.2800   29.8350   36.9220 O   0  0  0  0  0  0  0  0  0  0  0  0
  1  5  1  0  0  0  0
  1  2  1  0  0  0  0
  3  1  1  0  0  0  0
  4  9  2  0  0  0  0
  4  5  1  0  0  0  0
  5  6  2  0  0  0  0
  6  7  1  0  0  0  0
  6 10  1  0  0  0  0
  8 11  1  0  0  0  0
  8  7  2  0  0  0  0
  9  8  1  0  0  0  0
 12  4  1  0  0  0  0
 13 17  1  0  0  0  0
 13 14  1  0  0  0  0
 13 12  1  0  0  0  0
 14 12  1  0  0  0  0
 14 19  1  0  0  0  0
 15 12  1  0  0  0  0
 16 13  1  0  0  0  0
 18 14  1  0  0  0  0
 20  1  1  0  0  0  0
 20 25  1  0  0  0  0
 21 20  1  0  0  0  0
 22 20  1  0  0  0  0
 23 24  1  0  0  0  0
 24 29  1  0  0  0  0
 25 24  2  0  0  0  0
 25 26  1  0  0  0  0
 26 27  2  0  0  0  0
 27 28  1  0  0  0  0
 27 31  1  0  0  0  0
 28 32  1  0  0  0  0
 29 33  1  0  0  0  0
 29 28  2  0  0  0  0
 30 26  1  0  0  0  0
 33 35  2  0  0  0  0
 34 33  1  0  0  0  0
M  END
>  <minimizedAffinity>
-4.85952806

$$$$

 OpenBabel03272508203D

 35 37  0  0  0  0  0  0  0  0999 V2000
   40.5580   24.9890   35.2490 C   0  0  0  0  0  0  0  0  0  0  0  0
   41.5470   24.5420   34.8580 H   0  0  0  0  0  0  0  0  0  0  0  0
   40.7990   25.1360   36.2880 H   0  0  0  0  0  0  0  0  0  0  0  0
   38.6580   23.4650   35.7620 C   0  0  0  0  0  0  0  0  0  0  0  0
   39.6050   23.9760   34.8940 C   0  0  0  0  0  0  0  0  0  0  0  0
   39.5840   23.3540   33.6710 C   0  0  0  0  0  0  0  0  0  0  0  0
   38.7470   22.3640   33.3470 N   0  0  0  0  0  0  0  0  0  0  0  0
   37.8440   21.8860   34.2020 C   0  0  0  0  0  0  0  0  0  0  0  0
   37.7980   22.4360   35.4150 N   0  0  0  0  0  0  0  0  0  0  0  0
   40.2640   23.6390   32.8740 H   0  0  0  0  0  0  0  0  0  0  0  0
   37.1010   21.1130   34.1340 H   0  0  0  0  0  0  0  0  0  0  0  0
   38.4870   24.1530   37.1200 C   0  0  0  0  0  0  0  0  0  0  0  0
   37.7110   23.6110   38.1490 C   0  0  0  0  0  0  0  0  0  0  0  0
   39.1760   23.2060   38.1850 C   0  0  0  0  0  0  0  0  0  0  0  0
   38.9290   25.1750   37.2220 H   0  0  0  0  0  0  0  0  0  0  0  0
   37.3810   24.1920   39.0040 H   0  0  0  0  0  0  0  0  0  0  0  0
   36.9900   22.7770   37.9120 H   0  0  0  0  0  0  0  0  0  0  0  0
   39.8610   23.7100   38.8560 H   0  0  0  0  0  0  0  0  0  0  0  0
   39.4530   22.2030   37.8900 H   0  0  0  0  0  0  0  0  0  0  0  0
   40.4650   26.2820   34.5410 C   0  0  0  0  0  0  0  0  0  0  0  0
   41.1780   27.0570   34.8880 H   0  0  0  0  0  0  0  0  0  0  0  0
   40.7840   26.0920   33.4730 H   0  0  0  0  0  0  0  0  0  0  0  0
   39.3190   26.5290   32.0600 F   0  0  0  0  0  0  0  0  0  0  0  0
   38.6650   26.9850   33.1650 C   0  0  0  0  0  0  0  0  0  0  0  0
   39.1570   26.9070   34.4670 C   0  0  0  0  0  0  0  0  0  0  0  0
   38.3760   27.4210   35.4810 C   0  0  0  0  0  0  0  0  0  0  0  0
   37.1570   27.9840   35.2160 C   0  0  0  0  0  0  0  0  0  0  0  0
   36.6670   28.0580   33.9100 C   0  0  0  0  0  0  0  0  0  0  0  0
   37.4280   27.5570   32.8900 C   0  0  0  0  0  0  0  0  0  0  0  0
   38.7620   27.3640   36.4760 H   0  0  0  0  0  0  0  0  0  0  0  0
   36.5620   28.3760   36.0080 H   0  0  0  0  0  0  0  0  0  0  0  0
   35.7160   28.5020   33.7240 H   0  0  0  0  0  0  0  0  0  0  0  0
   36.9020   27.6430   31.5310 C   0  0  0  0  0  0  0  0  0  0  0  0
   37.2170   28.3590   30.7920 H   0  0  0  0  0  0  0  0  0  0  0  0
   36.0170   26.8650   31.1120 O   0  0  0  0  0  0  0  0  0  0  0  0
  1  3  1  0  0  0  0
  2  1  1  0  0  0  0
  4 12  1  0  0  0  0
  5  1  1  0  0  0  0
  5  4  2  0  0  0  0
  6  5  1  0  0  0  0
  7  6  2  0  0  0  0
  7  8  1  0  0  0  0
  8  9  2  0  0  0  0
  9  4  1  0  0  0  0
 10  6  1  0  0  0  0
 11  8  1  0  0  0  0
 12 15  1  0  0  0  0
 12 13  1  0  0  0  0
 12 14  1  0  0  0  0
 13 14  1  0  0  0  0
 13 16  1  0  0  0  0
 14 18  1  0  0  0  0
 17 13  1  0  0  0  0
 19 14  1  0  0  0  0
 20 21  1  0  0  0  0
 20  1  1  0  0  0  0
 22 20  1  0  0  0  0
 23 24  1  0  0  0  0
 24 25  1  0  0  0  0
 25 20  1  0  0  0  0
 25 26  2  0  0  0  0
 26 30  1  0  0  0  0
 27 26  1  0  0  0  0
 27 31  1  0  0  0  0
 28 27  2  0  0  0  0
 29 24  2  0  0  0  0
 29 28  1  0  0  0  0
 32 28  1  0  0  0  0
 33 29  1  0  0  0  0
 34 33  1  0  0  0  0
 35 33  2  0  0  0  0
M  END
>  <minimizedAffinity>
-4.8500824

$$$$
