
 OpenBabel03272501363D

 30 32  0  0  1  0  0  0  0  0999 V2000
   38.2450   26.2160   34.4580 C   0  0  2  0  0  0  0  0  0  0  0  0
   39.6880   26.5010   34.8950 C   0  0  0  0  0  0  0  0  0  0  0  0
   39.0920   25.0860   34.8570 C   0  0  1  0  0  0  0  0  0  0  0  0
   37.3870   26.4720   35.1020 H   0  0  0  0  0  0  0  0  0  0  0  0
   39.8150   26.9740   35.9040 H   0  0  0  0  0  0  0  0  0  0  0  0
   40.4450   26.6980   34.1460 H   0  0  0  0  0  0  0  0  0  0  0  0
   39.4830   24.4210   34.0690 H   0  0  0  0  0  0  0  0  0  0  0  0
   38.9750   24.4630   36.1860 C   0  0  0  0  0  0  0  0  0  0  0  0
   38.0130   24.8610   37.1160 C   0  0  0  0  0  0  0  0  0  0  0  0
   38.0010   24.2230   38.3200 C   0  0  0  0  0  0  0  0  0  0  0  0
   38.8740   23.2270   38.6580 C   0  0  0  0  0  0  0  0  0  0  0  0
   39.8240   22.8480   37.7170 C   0  0  0  0  0  0  0  0  0  0  0  0
   39.8510   23.4690   36.5130 N   0  0  0  0  0  0  0  0  0  0  0  0
   37.3110   25.6510   36.8630 H   0  0  0  0  0  0  0  0  0  0  0  0
   37.2720   24.4970   39.0760 H   0  0  0  0  0  0  0  0  0  0  0  0
   38.9120   22.6860   39.5970 H   0  0  0  0  0  0  0  0  0  0  0  0
   40.5430   22.0610   37.9290 H   0  0  0  0  0  0  0  0  0  0  0  0
   38.0220   26.5610   33.0370 C   0  0  0  0  0  0  0  0  0  0  0  0
   38.7630   27.4520   32.5330 O   0  0  0  0  0  0  0  0  0  0  0  0
   35.0670   25.8880   30.8570 C   0  0  0  0  0  0  0  0  0  0  0  0
   36.0490   26.5800   31.5660 C   0  0  0  0  0  0  0  0  0  0  0  0
   36.9830   25.8670   32.2930 C   0  0  0  0  0  0  0  0  0  0  0  0
   36.8970   24.5250   32.2830 N   0  0  0  0  0  0  0  0  0  0  0  0
   35.9250   23.8840   31.5790 C   0  0  0  0  0  0  0  0  0  0  0  0
   35.0160   24.5320   30.8710 N   0  0  0  0  0  0  0  0  0  0  0  0
   34.3110   26.4080   30.2690 H   0  0  0  0  0  0  0  0  0  0  0  0
   36.0390   27.6570   31.5150 H   0  0  0  0  0  0  0  0  0  0  0  0
   35.9570   22.4300   31.6590 C   0  0  0  0  0  0  0  0  0  0  0  0
   36.7220   21.8260   31.2020 H   0  0  0  0  0  0  0  0  0  0  0  0
   35.0630   21.8020   32.2840 O   0  0  0  0  0  0  0  0  0  0  0  0
  1  3  1  0  0  0  0
  1  2  1  0  0  0  0
  1  4  1  1  0  0  0
  2  5  1  0  0  0  0
  3  7  1  6  0  0  0
  3  2  1  0  0  0  0
  3  8  1  0  0  0  0
  6  2  1  0  0  0  0
  8 13  2  0  0  0  0
  8  9  1  0  0  0  0
  9 10  2  0  0  0  0
 10 11  1  0  0  0  0
 10 15  1  0  0  0  0
 11 16  1  0  0  0  0
 12 17  1  0  0  0  0
 12 11  2  0  0  0  0
 13 12  1  0  0  0  0
 14  9  1  0  0  0  0
 18  1  1  0  0  0  0
 19 18  2  0  0  0  0
 20 25  2  0  0  0  0
 20 21  1  0  0  0  0
 21 22  2  0  0  0  0
 22 18  1  0  0  0  0
 23 22  1  0  0  0  0
 24 28  1  0  0  0  0
 24 23  2  0  0  0  0
 25 24  1  0  0  0  0
 26 20  1  0  0  0  0
 27 21  1  0  0  0  0
 28 30  2  0  0  0  0
 29 28  1  0  0  0  0
M  END
>  <minimizedAffinity>
-5.10280323

$$$$

 OpenBabel03272501373D

 30 32  0  0  1  0  0  0  0  0999 V2000
   37.4040   26.8650   35.0220 C   0  0  2  0  0  0  0  0  0  0  0  0
   38.9090   27.1280   35.1670 C   0  0  0  0  0  0  0  0  0  0  0  0
   38.3230   25.7200   34.9850 C   0  0  1  0  0  0  0  0  0  0  0  0
   36.7190   26.9500   35.8820 H   0  0  0  0  0  0  0  0  0  0  0  0
   39.2660   27.4020   36.1940 H   0  0  0  0  0  0  0  0  0  0  0  0
   39.4710   27.5010   34.3210 H   0  0  0  0  0  0  0  0  0  0  0  0
   38.5200   25.2400   34.0130 H   0  0  0  0  0  0  0  0  0  0  0  0
   38.5170   24.8480   36.1540 C   0  0  0  0  0  0  0  0  0  0  0  0
   37.7760   24.9910   37.3270 C   0  0  0  0  0  0  0  0  0  0  0  0
   38.0460   24.1350   38.3520 C   0  0  0  0  0  0  0  0  0  0  0  0
   38.9970   23.1560   38.2890 C   0  0  0  0  0  0  0  0  0  0  0  0
   39.7250   23.0310   37.1110 C   0  0  0  0  0  0  0  0  0  0  0  0
   39.4690   23.8720   36.0800 N   0  0  0  0  0  0  0  0  0  0  0  0
   37.0150   25.7650   37.3940 H   0  0  0  0  0  0  0  0  0  0  0  0
   37.4950   24.2080   39.2840 H   0  0  0  0  0  0  0  0  0  0  0  0
   39.2560   22.4490   39.0690 H   0  0  0  0  0  0  0  0  0  0  0  0
   40.4940   22.2690   37.0030 H   0  0  0  0  0  0  0  0  0  0  0  0
   36.8570   27.4660   33.7860 C   0  0  0  0  0  0  0  0  0  0  0  0
   37.1200   26.8880   32.6940 O   0  0  0  0  0  0  0  0  0  0  0  0
   34.2900   30.0820   33.0780 C   0  0  0  0  0  0  0  0  0  0  0  0
   35.0520   28.9200   32.9580 C   0  0  0  0  0  0  0  0  0  0  0  0
   36.0500   28.6720   33.8810 C   0  0  0  0  0  0  0  0  0  0  0  0
   36.2400   29.5740   34.8600 N   0  0  0  0  0  0  0  0  0  0  0  0
   35.4760   30.6970   34.9440 C   0  0  0  0  0  0  0  0  0  0  0  0
   34.5130   30.9670   34.0810 N   0  0  0  0  0  0  0  0  0  0  0  0
   33.4920   30.3190   32.3730 H   0  0  0  0  0  0  0  0  0  0  0  0
   34.8280   28.2540   32.1400 H   0  0  0  0  0  0  0  0  0  0  0  0
   35.7950   31.5820   36.0570 C   0  0  0  0  0  0  0  0  0  0  0  0
   36.7550   32.0540   36.1850 H   0  0  0  0  0  0  0  0  0  0  0  0
   34.9360   31.8370   36.9400 O   0  0  0  0  0  0  0  0  0  0  0  0
  1  2  1  0  0  0  0
  1  4  1  1  0  0  0
  2  5  1  0  0  0  0
  3  7  1  6  0  0  0
  3  1  1  0  0  0  0
  3  2  1  0  0  0  0
  3  8  1  0  0  0  0
  6  2  1  0  0  0  0
  8  9  1  0  0  0  0
  9 14  1  0  0  0  0
  9 10  2  0  0  0  0
 10 15  1  0  0  0  0
 11 10  1  0  0  0  0
 11 16  1  0  0  0  0
 12 11  2  0  0  0  0
 13  8  2  0  0  0  0
 13 12  1  0  0  0  0
 17 12  1  0  0  0  0
 18 22  1  0  0  0  0
 18  1  1  0  0  0  0
 19 18  2  0  0  0  0
 20 25  1  0  0  0  0
 21 20  2  0  0  0  0
 21 22  1  0  0  0  0
 22 23  2  0  0  0  0
 23 24  1  0  0  0  0
 24 28  1  0  0  0  0
 25 24  2  0  0  0  0
 26 20  1  0  0  0  0
 27 21  1  0  0  0  0
 28 29  1  0  0  0  0
 28 30  2  0  0  0  0
M  END
>  <minimizedAffinity>
-5.08629227

$$$$

 OpenBabel03272501373D

 30 32  0  0  1  0  0  0  0  0999 V2000
   37.4600   26.8410   35.3630 C   0  0  2  0  0  0  0  0  0  0  0  0
   38.9320   27.1880   35.6220 C   0  0  0  0  0  0  0  0  0  0  0  0
   38.4570   25.7650   35.2880 C   0  0  1  0  0  0  0  0  0  0  0  0
   36.7230   26.8060   36.1820 H   0  0  0  0  0  0  0  0  0  0  0  0
   39.2100   27.3950   36.6890 H   0  0  0  0  0  0  0  0  0  0  0  0
   39.5140   27.6690   34.8460 H   0  0  0  0  0  0  0  0  0  0  0  0
   38.7430   25.3850   34.2940 H   0  0  0  0  0  0  0  0  0  0  0  0
   38.6460   24.8100   36.3920 C   0  0  0  0  0  0  0  0  0  0  0  0
   37.8970   24.8670   37.5670 C   0  0  0  0  0  0  0  0  0  0  0  0
   38.1630   23.9380   38.5290 C   0  0  0  0  0  0  0  0  0  0  0  0
   39.1150   22.9660   38.4000 C   0  0  0  0  0  0  0  0  0  0  0  0
   39.8500   22.9290   37.2210 C   0  0  0  0  0  0  0  0  0  0  0  0
   39.6000   23.8430   36.2530 N   0  0  0  0  0  0  0  0  0  0  0  0
   37.1350   25.6330   37.6870 H   0  0  0  0  0  0  0  0  0  0  0  0
   37.6060   23.9410   39.4600 H   0  0  0  0  0  0  0  0  0  0  0  0
   39.3700   22.2040   39.1280 H   0  0  0  0  0  0  0  0  0  0  0  0
   40.6210   22.1780   37.0620 H   0  0  0  0  0  0  0  0  0  0  0  0
   36.9430   27.5100   34.1490 C   0  0  0  0  0  0  0  0  0  0  0  0
   36.2310   28.5410   34.3140 O   0  0  0  0  0  0  0  0  0  0  0  0
   38.4390   27.0930   30.7550 C   0  0  0  0  0  0  0  0  0  0  0  0
   38.1340   27.6420   32.0000 C   0  0  0  0  0  0  0  0  0  0  0  0
   37.2740   26.9650   32.8420 C   0  0  0  0  0  0  0  0  0  0  0  0
   36.7660   25.7950   32.4160 N   0  0  0  0  0  0  0  0  0  0  0  0
   37.0870   25.2900   31.1930 C   0  0  0  0  0  0  0  0  0  0  0  0
   37.9060   25.9090   30.3610 N   0  0  0  0  0  0  0  0  0  0  0  0
   39.1120   27.5910   30.0570 H   0  0  0  0  0  0  0  0  0  0  0  0
   38.5890   28.5860   32.2570 H   0  0  0  0  0  0  0  0  0  0  0  0
   36.4630   24.0150   30.8660 C   0  0  0  0  0  0  0  0  0  0  0  0
   36.8460   23.3400   30.1190 H   0  0  0  0  0  0  0  0  0  0  0  0
   35.4190   23.6400   31.4610 O   0  0  0  0  0  0  0  0  0  0  0  0
  1  2  1  0  0  0  0
  1  4  1  1  0  0  0
  2  5  1  0  0  0  0
  3  7  1  6  0  0  0
  3  1  1  0  0  0  0
  3  2  1  0  0  0  0
  3  8  1  0  0  0  0
  6  2  1  0  0  0  0
  8  9  1  0  0  0  0
  9 14  1  0  0  0  0
  9 10  2  0  0  0  0
 10 15  1  0  0  0  0
 11 10  1  0  0  0  0
 11 16  1  0  0  0  0
 12 11  2  0  0  0  0
 13  8  2  0  0  0  0
 13 12  1  0  0  0  0
 17 12  1  0  0  0  0
 18 19  2  0  0  0  0
 18  1  1  0  0  0  0
 20 21  1  0  0  0  0
 21 27  1  0  0  0  0
 21 22  2  0  0  0  0
 22 18  1  0  0  0  0
 23 22  1  0  0  0  0
 24 23  2  0  0  0  0
 25 20  2  0  0  0  0
 25 24  1  0  0  0  0
 26 20  1  0  0  0  0
 28 24  1  0  0  0  0
 28 30  2  0  0  0  0
 29 28  1  0  0  0  0
M  END
>  <minimizedAffinity>
-4.96844578

$$$$

 OpenBabel03272501373D

 30 32  0  0  1  0  0  0  0  0999 V2000
   37.5030   26.2360   34.7150 C   0  0  2  0  0  0  0  0  0  0  0  0
   38.9900   26.5840   34.8660 C   0  0  0  0  0  0  0  0  0  0  0  0
   38.4650   25.1400   34.8820 C   0  0  1  0  0  0  0  0  0  0  0  0
   36.7830   26.4200   35.5290 H   0  0  0  0  0  0  0  0  0  0  0  0
   39.2970   27.0250   35.8500 H   0  0  0  0  0  0  0  0  0  0  0  0
   39.5700   26.8490   33.9900 H   0  0  0  0  0  0  0  0  0  0  0  0
   38.7180   24.5270   34.0010 H   0  0  0  0  0  0  0  0  0  0  0  0
   38.6490   24.4640   36.1760 C   0  0  0  0  0  0  0  0  0  0  0  0
   37.8530   24.7460   37.2870 C   0  0  0  0  0  0  0  0  0  0  0  0
   38.1170   24.0670   38.4390 C   0  0  0  0  0  0  0  0  0  0  0  0
   39.1110   23.1370   38.5580 C   0  0  0  0  0  0  0  0  0  0  0  0
   39.8920   22.8730   37.4400 C   0  0  0  0  0  0  0  0  0  0  0  0
   39.6440   23.5360   36.2850 N   0  0  0  0  0  0  0  0  0  0  0  0
   37.0570   25.4830   37.2090 H   0  0  0  0  0  0  0  0  0  0  0  0
   37.5250   24.2520   39.3300 H   0  0  0  0  0  0  0  0  0  0  0  0
   39.3670   22.5690   39.4460 H   0  0  0  0  0  0  0  0  0  0  0  0
   40.6970   22.1420   37.4760 H   0  0  0  0  0  0  0  0  0  0  0  0
   36.9810   26.6200   33.3850 C   0  0  0  0  0  0  0  0  0  0  0  0
   36.9350   25.7200   32.4980 O   0  0  0  0  0  0  0  0  0  0  0  0
   35.5600   30.0270   33.9410 C   0  0  0  0  0  0  0  0  0  0  0  0
   35.9620   28.7130   34.1820 C   0  0  0  0  0  0  0  0  0  0  0  0
   36.5450   27.9890   33.1610 C   0  0  0  0  0  0  0  0  0  0  0  0
   36.6980   28.5920   31.9690 N   0  0  0  0  0  0  0  0  0  0  0  0
   36.2930   29.8770   31.7700 C   0  0  0  0  0  0  0  0  0  0  0  0
   35.7320   30.6000   32.7230 N   0  0  0  0  0  0  0  0  0  0  0  0
   35.0960   30.6360   34.7160 H   0  0  0  0  0  0  0  0  0  0  0  0
   35.8000   28.3130   35.1710 H   0  0  0  0  0  0  0  0  0  0  0  0
   36.5220   30.3990   30.4300 C   0  0  0  0  0  0  0  0  0  0  0  0
   36.3430   31.4240   30.1520 H   0  0  0  0  0  0  0  0  0  0  0  0
   36.9500   29.6500   29.5140 O   0  0  0  0  0  0  0  0  0  0  0  0
  1  2  1  0  0  0  0
  1  3  1  0  0  0  0
  1  4  1  1  0  0  0
  2  3  1  0  0  0  0
  2  5  1  0  0  0  0
  3  7  1  6  0  0  0
  3  8  1  0  0  0  0
  6  2  1  0  0  0  0
  8 13  2  0  0  0  0
  8  9  1  0  0  0  0
  9 10  2  0  0  0  0
 10 11  1  0  0  0  0
 10 15  1  0  0  0  0
 11 16  1  0  0  0  0
 12 17  1  0  0  0  0
 12 11  2  0  0  0  0
 13 12  1  0  0  0  0
 14  9  1  0  0  0  0
 18  1  1  0  0  0  0
 19 18  2  0  0  0  0
 20 21  1  0  0  0  0
 20 26  1  0  0  0  0
 21 27  1  0  0  0  0
 22 18  1  0  0  0  0
 22 21  2  0  0  0  0
 23 22  1  0  0  0  0
 24 23  2  0  0  0  0
 24 25  1  0  0  0  0
 25 20  2  0  0  0  0
 28 24  1  0  0  0  0
 29 28  1  0  0  0  0
 30 28  2  0  0  0  0
M  END
>  <minimizedAffinity>
-4.88312054

$$$$

 OpenBabel03272501373D

 30 32  0  0  1  0  0  0  0  0999 V2000
   37.7370   26.2390   34.5400 C   0  0  2  0  0  0  0  0  0  0  0  0
   39.2210   26.5440   34.7830 C   0  0  0  0  0  0  0  0  0  0  0  0
   38.6490   25.1180   34.8010 C   0  0  1  0  0  0  0  0  0  0  0  0
   36.9690   26.4680   35.2980 H   0  0  0  0  0  0  0  0  0  0  0  0
   39.4750   27.0040   35.7740 H   0  0  0  0  0  0  0  0  0  0  0  0
   39.8660   26.7660   33.9430 H   0  0  0  0  0  0  0  0  0  0  0  0
   38.9400   24.4730   33.9570 H   0  0  0  0  0  0  0  0  0  0  0  0
   38.7220   24.4740   36.1230 C   0  0  0  0  0  0  0  0  0  0  0  0
   37.8580   24.8070   37.1660 C   0  0  0  0  0  0  0  0  0  0  0  0
   38.0220   24.1550   38.3510 C   0  0  0  0  0  0  0  0  0  0  0  0
   38.9800   23.2040   38.5660 C   0  0  0  0  0  0  0  0  0  0  0  0
   39.8310   22.8880   37.5130 C   0  0  0  0  0  0  0  0  0  0  0  0
   39.6820   23.5250   36.3260 N   0  0  0  0  0  0  0  0  0  0  0  0
   37.0900   25.5610   37.0130 H   0  0  0  0  0  0  0  0  0  0  0  0
   37.3740   24.3790   39.1930 H   0  0  0  0  0  0  0  0  0  0  0  0
   39.1580   22.6540   39.4840 H   0  0  0  0  0  0  0  0  0  0  0  0
   40.6110   22.1400   37.6250 H   0  0  0  0  0  0  0  0  0  0  0  0
   37.3180   26.6000   33.1680 C   0  0  0  0  0  0  0  0  0  0  0  0
   37.4620   25.7240   32.2680 O   0  0  0  0  0  0  0  0  0  0  0  0
   36.4740   29.8400   31.5170 C   0  0  0  0  0  0  0  0  0  0  0  0
   37.0240   28.5760   31.7310 C   0  0  0  0  0  0  0  0  0  0  0  0
   36.7650   27.9210   32.9190 C   0  0  0  0  0  0  0  0  0  0  0  0
   35.9860   28.5420   33.8230 N   0  0  0  0  0  0  0  0  0  0  0  0
   35.4670   29.7770   33.5790 C   0  0  0  0  0  0  0  0  0  0  0  0
   35.6930   30.4330   32.4540 N   0  0  0  0  0  0  0  0  0  0  0  0
   36.6510   30.3930   30.5950 H   0  0  0  0  0  0  0  0  0  0  0  0
   37.6360   28.1560   30.9480 H   0  0  0  0  0  0  0  0  0  0  0  0
   34.6430   30.3250   34.6480 C   0  0  0  0  0  0  0  0  0  0  0  0
   34.8840   31.2300   35.1810 H   0  0  0  0  0  0  0  0  0  0  0  0
   33.5840   29.7450   35.0030 O   0  0  0  0  0  0  0  0  0  0  0  0
  1  2  1  0  0  0  0
  1  3  1  0  0  0  0
  1  4  1  1  0  0  0
  2  3  1  0  0  0  0
  2  5  1  0  0  0  0
  3  7  1  6  0  0  0
  3  8  1  0  0  0  0
  6  2  1  0  0  0  0
  8 13  2  0  0  0  0
  8  9  1  0  0  0  0
  9 10  2  0  0  0  0
 10 11  1  0  0  0  0
 10 15  1  0  0  0  0
 11 16  1  0  0  0  0
 12 17  1  0  0  0  0
 12 11  2  0  0  0  0
 13 12  1  0  0  0  0
 14  9  1  0  0  0  0
 18  1  1  0  0  0  0
 19 18  2  0  0  0  0
 20 21  2  0  0  0  0
 20 25  1  0  0  0  0
 21 22  1  0  0  0  0
 22 18  1  0  0  0  0
 22 23  2  0  0  0  0
 24 23  1  0  0  0  0
 24 28  1  0  0  0  0
 25 24  2  0  0  0  0
 26 20  1  0  0  0  0
 27 21  1  0  0  0  0
 28 30  2  0  0  0  0
 28 29  1  0  0  0  0
M  END
>  <minimizedAffinity>
-4.80038023

$$$$

 OpenBabel03272501373D

 30 32  0  0  1  0  0  0  0  0999 V2000
   35.5290   29.2850   33.9440 C   0  0  2  0  0  0  0  0  0  0  0  0
   36.2250   29.3210   32.5770 C   0  0  0  0  0  0  0  0  0  0  0  0
   36.1580   28.0550   33.4450 C   0  0  1  0  0  0  0  0  0  0  0  0
   35.9720   29.7700   34.8290 H   0  0  0  0  0  0  0  0  0  0  0  0
   37.2080   29.8590   32.5370 H   0  0  0  0  0  0  0  0  0  0  0  0
   35.6310   29.2850   31.6720 H   0  0  0  0  0  0  0  0  0  0  0  0
   35.5060   27.2490   33.0700 H   0  0  0  0  0  0  0  0  0  0  0  0
   37.4720   27.6080   33.9330 C   0  0  0  0  0  0  0  0  0  0  0  0
   37.7930   27.5690   35.2900 C   0  0  0  0  0  0  0  0  0  0  0  0
   39.0440   27.1470   35.6290 C   0  0  0  0  0  0  0  0  0  0  0  0
   39.9880   26.7670   34.7170 C   0  0  0  0  0  0  0  0  0  0  0  0
   39.6470   26.8150   33.3700 C   0  0  0  0  0  0  0  0  0  0  0  0
   38.4080   27.2300   33.0130 N   0  0  0  0  0  0  0  0  0  0  0  0
   37.0540   27.8670   36.0290 H   0  0  0  0  0  0  0  0  0  0  0  0
   39.3400   27.1000   36.6720 H   0  0  0  0  0  0  0  0  0  0  0  0
   40.9950   26.4260   34.9270 H   0  0  0  0  0  0  0  0  0  0  0  0
   40.3570   26.5250   32.6000 H   0  0  0  0  0  0  0  0  0  0  0  0
   34.0730   29.5190   33.8260 C   0  0  0  0  0  0  0  0  0  0  0  0
   33.5770   29.5170   32.6630 O   0  0  0  0  0  0  0  0  0  0  0  0
   32.6810   31.0610   36.9270 C   0  0  0  0  0  0  0  0  0  0  0  0
   33.4530   30.8810   35.7790 C   0  0  0  0  0  0  0  0  0  0  0  0
   33.2880   29.7310   35.0310 C   0  0  0  0  0  0  0  0  0  0  0  0
   32.3820   28.8310   35.4510 N   0  0  0  0  0  0  0  0  0  0  0  0
   31.6470   29.0420   36.5780 C   0  0  0  0  0  0  0  0  0  0  0  0
   31.7770   30.1290   37.3180 N   0  0  0  0  0  0  0  0  0  0  0  0
   32.7770   31.9520   37.5480 H   0  0  0  0  0  0  0  0  0  0  0  0
   34.1550   31.6570   35.5190 H   0  0  0  0  0  0  0  0  0  0  0  0
   30.7040   27.9820   36.9100 C   0  0  0  0  0  0  0  0  0  0  0  0
   29.6780   28.1630   37.1850 H   0  0  0  0  0  0  0  0  0  0  0  0
   31.0620   26.7760   36.8900 O   0  0  0  0  0  0  0  0  0  0  0  0
  1  4  1  1  0  0  0
  2  3  1  0  0  0  0
  2  1  1  0  0  0  0
  3  7  1  6  0  0  0
  3  8  1  0  0  0  0
  3  1  1  0  0  0  0
  5  2  1  0  0  0  0
  6  2  1  0  0  0  0
  8  9  1  0  0  0  0
  9 10  2  0  0  0  0
  9 14  1  0  0  0  0
 10 15  1  0  0  0  0
 11 16  1  0  0  0  0
 11 10  1  0  0  0  0
 12 11  2  0  0  0  0
 13 12  1  0  0  0  0
 13  8  2  0  0  0  0
 17 12  1  0  0  0  0
 18  1  1  0  0  0  0
 18 22  1  0  0  0  0
 19 18  2  0  0  0  0
 20 25  1  0  0  0  0
 20 26  1  0  0  0  0
 21 20  2  0  0  0  0
 22 23  2  0  0  0  0
 22 21  1  0  0  0  0
 23 24  1  0  0  0  0
 24 28  1  0  0  0  0
 24 25  2  0  0  0  0
 27 21  1  0  0  0  0
 28 29  1  0  0  0  0
 30 28  2  0  0  0  0
M  END
>  <minimizedAffinity>
-4.7842598

$$$$

 OpenBabel03272501373D

 30 32  0  0  1  0  0  0  0  0999 V2000
   37.0180   24.2970   30.8950 C   0  0  2  0  0  0  0  0  0  0  0  0
   35.4940   24.3990   31.0430 C   0  0  0  0  0  0  0  0  0  0  0  0
   36.3590   23.4890   31.9290 C   0  0  1  0  0  0  0  0  0  0  0  0
   37.4800   23.7690   30.0440 H   0  0  0  0  0  0  0  0  0  0  0  0
   34.8860   23.9020   30.2430 H   0  0  0  0  0  0  0  0  0  0  0  0
   35.0620   25.2520   31.5510 H   0  0  0  0  0  0  0  0  0  0  0  0
   36.4620   23.8010   32.9810 H   0  0  0  0  0  0  0  0  0  0  0  0
   36.0900   22.0550   31.7350 C   0  0  0  0  0  0  0  0  0  0  0  0
   35.0520   21.3930   32.3900 C   0  0  0  0  0  0  0  0  0  0  0  0
   34.9000   20.0610   32.1430 C   0  0  0  0  0  0  0  0  0  0  0  0
   35.7060   19.3510   31.2970 C   0  0  0  0  0  0  0  0  0  0  0  0
   36.7340   20.0310   30.6560 C   0  0  0  0  0  0  0  0  0  0  0  0
   36.9000   21.3560   30.8870 N   0  0  0  0  0  0  0  0  0  0  0  0
   34.4020   21.9420   33.0660 H   0  0  0  0  0  0  0  0  0  0  0  0
   34.1070   19.5020   32.6290 H   0  0  0  0  0  0  0  0  0  0  0  0
   35.6340   18.2950   31.0640 H   0  0  0  0  0  0  0  0  0  0  0  0
   37.4070   19.5190   29.9720 H   0  0  0  0  0  0  0  0  0  0  0  0
   37.6890   25.5760   31.2150 C   0  0  0  0  0  0  0  0  0  0  0  0
   38.4680   26.0560   30.3420 O   0  0  0  0  0  0  0  0  0  0  0  0
   36.5220   28.0160   33.7870 C   0  0  0  0  0  0  0  0  0  0  0  0
   36.7670   27.4290   32.5460 C   0  0  0  0  0  0  0  0  0  0  0  0
   37.4260   26.2160   32.4940 C   0  0  0  0  0  0  0  0  0  0  0  0
   37.8040   25.6540   33.6560 N   0  0  0  0  0  0  0  0  0  0  0  0
   37.5470   26.2570   34.8490 C   0  0  0  0  0  0  0  0  0  0  0  0
   36.9190   27.4170   34.9380 N   0  0  0  0  0  0  0  0  0  0  0  0
   36.0050   28.9720   33.8770 H   0  0  0  0  0  0  0  0  0  0  0  0
   36.4270   27.9530   31.6670 H   0  0  0  0  0  0  0  0  0  0  0  0
   38.0130   25.5330   36.0230 C   0  0  0  0  0  0  0  0  0  0  0  0
   38.1670   25.9940   36.9840 H   0  0  0  0  0  0  0  0  0  0  0  0
   38.2650   24.3010   35.9590 O   0  0  0  0  0  0  0  0  0  0  0  0
  1  4  1  6  0  0  0
  1  2  1  0  0  0  0
  1 18  1  0  0  0  0
  1  3  1  0  0  0  0
  2  6  1  0  0  0  0
  2  3  1  0  0  0  0
  3  7  1  1  0  0  0
  5  2  1  0  0  0  0
  8  3  1  0  0  0  0
  8  9  1  0  0  0  0
  9 14  1  0  0  0  0
 10  9  2  0  0  0  0
 10 15  1  0  0  0  0
 11 10  1  0  0  0  0
 12 13  1  0  0  0  0
 12 11  2  0  0  0  0
 13  8  2  0  0  0  0
 16 11  1  0  0  0  0
 17 12  1  0  0  0  0
 18 22  1  0  0  0  0
 19 18  2  0  0  0  0
 20 26  1  0  0  0  0
 20 25  1  0  0  0  0
 21 20  2  0  0  0  0
 22 21  1  0  0  0  0
 22 23  2  0  0  0  0
 23 24  1  0  0  0  0
 24 25  2  0  0  0  0
 24 28  1  0  0  0  0
 27 21  1  0  0  0  0
 28 29  1  0  0  0  0
 30 28  2  0  0  0  0
M  END
>  <minimizedAffinity>
-4.75852489

$$$$

 OpenBabel03272501373D

 30 32  0  0  1  0  0  0  0  0999 V2000
   35.6920   29.2210   33.9180 C   0  0  2  0  0  0  0  0  0  0  0  0
   36.2680   29.1250   32.4990 C   0  0  0  0  0  0  0  0  0  0  0  0
   36.2680   27.9430   33.4800 C   0  0  1  0  0  0  0  0  0  0  0  0
   36.2130   29.7770   34.7150 H   0  0  0  0  0  0  0  0  0  0  0  0
   37.2470   29.6440   32.3270 H   0  0  0  0  0  0  0  0  0  0  0  0
   35.5980   29.0170   31.6550 H   0  0  0  0  0  0  0  0  0  0  0  0
   35.5820   27.1160   33.2360 H   0  0  0  0  0  0  0  0  0  0  0  0
   37.6170   27.5230   33.8920 C   0  0  0  0  0  0  0  0  0  0  0  0
   38.0030   27.4510   35.2310 C   0  0  0  0  0  0  0  0  0  0  0  0
   39.2800   27.0590   35.4980 C   0  0  0  0  0  0  0  0  0  0  0  0
   40.1920   26.7400   34.5310 C   0  0  0  0  0  0  0  0  0  0  0  0
   39.7870   26.8200   33.2040 C   0  0  0  0  0  0  0  0  0  0  0  0
   38.5200   27.2050   32.9180 N   0  0  0  0  0  0  0  0  0  0  0  0
   37.2900   27.7010   36.0130 H   0  0  0  0  0  0  0  0  0  0  0  0
   39.6270   26.9880   36.5240 H   0  0  0  0  0  0  0  0  0  0  0  0
   41.2180   26.4240   34.6830 H   0  0  0  0  0  0  0  0  0  0  0  0
   40.4690   26.5770   32.3920 H   0  0  0  0  0  0  0  0  0  0  0  0
   34.2330   29.4630   33.9040 C   0  0  0  0  0  0  0  0  0  0  0  0
   33.5990   29.1300   32.8620 O   0  0  0  0  0  0  0  0  0  0  0  0
   31.8550   30.1140   36.7070 C   0  0  0  0  0  0  0  0  0  0  0  0
   32.4350   29.5260   35.5840 C   0  0  0  0  0  0  0  0  0  0  0  0
   33.6010   30.0590   35.0710 C   0  0  0  0  0  0  0  0  0  0  0  0
   34.1260   31.1330   35.6860 N   0  0  0  0  0  0  0  0  0  0  0  0
   33.5310   31.6800   36.7820 C   0  0  0  0  0  0  0  0  0  0  0  0
   32.4160   31.1970   37.3010 N   0  0  0  0  0  0  0  0  0  0  0  0
   30.9350   29.7270   37.1470 H   0  0  0  0  0  0  0  0  0  0  0  0
   31.9430   28.6660   35.1560 H   0  0  0  0  0  0  0  0  0  0  0  0
   34.2130   32.8390   37.3430 C   0  0  0  0  0  0  0  0  0  0  0  0
   34.0350   33.2080   38.3400 H   0  0  0  0  0  0  0  0  0  0  0  0
   35.0610   33.4750   36.6660 O   0  0  0  0  0  0  0  0  0  0  0  0
  1  4  1  1  0  0  0
  2  3  1  0  0  0  0
  2  1  1  0  0  0  0
  3  7  1  6  0  0  0
  3  8  1  0  0  0  0
  3  1  1  0  0  0  0
  5  2  1  0  0  0  0
  6  2  1  0  0  0  0
  8  9  1  0  0  0  0
  9 10  2  0  0  0  0
  9 14  1  0  0  0  0
 10 15  1  0  0  0  0
 11 16  1  0  0  0  0
 11 10  1  0  0  0  0
 12 11  2  0  0  0  0
 13 12  1  0  0  0  0
 13  8  2  0  0  0  0
 17 12  1  0  0  0  0
 18  1  1  0  0  0  0
 18 22  1  0  0  0  0
 19 18  2  0  0  0  0
 20 26  1  0  0  0  0
 20 25  1  0  0  0  0
 21 20  2  0  0  0  0
 22 21  1  0  0  0  0
 22 23  2  0  0  0  0
 23 24  1  0  0  0  0
 24 25  2  0  0  0  0
 24 28  1  0  0  0  0
 27 21  1  0  0  0  0
 28 29  1  0  0  0  0
 30 28  2  0  0  0  0
M  END
>  <minimizedAffinity>
-4.74940014

$$$$

 OpenBabel03272501373D

 30 32  0  0  1  0  0  0  0  0999 V2000
   39.1050   26.7680   34.2120 C   0  0  2  0  0  0  0  0  0  0  0  0
   38.5690   27.4890   35.4560 C   0  0  0  0  0  0  0  0  0  0  0  0
   37.6520   26.9110   34.3670 C   0  0  1  0  0  0  0  0  0  0  0  0
   39.5950   27.3190   33.3920 H   0  0  0  0  0  0  0  0  0  0  0  0
   38.6970   28.6030   35.4740 H   0  0  0  0  0  0  0  0  0  0  0  0
   38.5350   26.9690   36.4040 H   0  0  0  0  0  0  0  0  0  0  0  0
   37.0670   26.0220   34.6540 H   0  0  0  0  0  0  0  0  0  0  0  0
   36.8950   27.9360   33.6320 C   0  0  0  0  0  0  0  0  0  0  0  0
   35.9190   28.7260   34.2410 C   0  0  0  0  0  0  0  0  0  0  0  0
   35.2720   29.6390   33.4630 C   0  0  0  0  0  0  0  0  0  0  0  0
   35.5270   29.8150   32.1320 C   0  0  0  0  0  0  0  0  0  0  0  0
   36.5020   29.0170   31.5450 C   0  0  0  0  0  0  0  0  0  0  0  0
   37.1580   28.1050   32.3030 N   0  0  0  0  0  0  0  0  0  0  0  0
   35.7030   28.5990   35.2990 H   0  0  0  0  0  0  0  0  0  0  0  0
   34.5050   30.2760   33.8910 H   0  0  0  0  0  0  0  0  0  0  0  0
   35.0460   30.5220   31.4650 H   0  0  0  0  0  0  0  0  0  0  0  0
   36.7490   29.1140   30.4900 H   0  0  0  0  0  0  0  0  0  0  0  0
   39.8070   25.5140   34.5640 C   0  0  0  0  0  0  0  0  0  0  0  0
   41.0590   25.4820   34.3910 O   0  0  0  0  0  0  0  0  0  0  0  0
   37.8340   22.3520   34.7740 C   0  0  0  0  0  0  0  0  0  0  0  0
   38.5600   23.4170   34.2410 C   0  0  0  0  0  0  0  0  0  0  0  0
   39.0420   24.3950   35.0890 C   0  0  0  0  0  0  0  0  0  0  0  0
   38.7830   24.2720   36.4030 N   0  0  0  0  0  0  0  0  0  0  0  0
   38.0710   23.2170   36.8870 C   0  0  0  0  0  0  0  0  0  0  0  0
   37.5950   22.2630   36.1060 N   0  0  0  0  0  0  0  0  0  0  0  0
   37.4350   21.5580   34.1430 H   0  0  0  0  0  0  0  0  0  0  0  0
   38.7180   23.4330   33.1740 H   0  0  0  0  0  0  0  0  0  0  0  0
   37.8690   23.2140   38.3300 C   0  0  0  0  0  0  0  0  0  0  0  0
   36.9880   22.8180   38.8060 H   0  0  0  0  0  0  0  0  0  0  0  0
   38.7430   23.6910   39.1000 O   0  0  0  0  0  0  0  0  0  0  0  0
  1  4  1  6  0  0  0
  1  3  1  0  0  0  0
  1 18  1  0  0  0  0
  1  2  1  0  0  0  0
  2  5  1  0  0  0  0
  2  6  1  0  0  0  0
  3  7  1  1  0  0  0
  3  2  1  0  0  0  0
  8  9  1  0  0  0  0
  8  3  1  0  0  0  0
  9 14  1  0  0  0  0
 10 15  1  0  0  0  0
 10  9  2  0  0  0  0
 11 10  1  0  0  0  0
 12 11  2  0  0  0  0
 12 13  1  0  0  0  0
 13  8  2  0  0  0  0
 16 11  1  0  0  0  0
 17 12  1  0  0  0  0
 18 22  1  0  0  0  0
 19 18  2  0  0  0  0
 20 25  1  0  0  0  0
 21 20  2  0  0  0  0
 21 22  1  0  0  0  0
 22 23  2  0  0  0  0
 23 24  1  0  0  0  0
 24 28  1  0  0  0  0
 25 24  2  0  0  0  0
 26 20  1  0  0  0  0
 27 21  1  0  0  0  0
 28 29  1  0  0  0  0
 28 30  2  0  0  0  0
M  END
>  <minimizedAffinity>
-4.73402929

$$$$
