
 OpenBabel03272510223D

 25 27  0  0  0  0  0  0  0  0999 V2000
   36.3070   30.2350   46.9310 C   0  0  0  0  0  0  0  0  0  0  0  0
   37.1140   30.7640   47.9170 C   0  0  0  0  0  0  0  0  0  0  0  0
   38.1100   31.6510   47.5920 C   0  0  0  0  0  0  0  0  0  0  0  0
   38.2700   31.9890   46.2540 C   0  0  0  0  0  0  0  0  0  0  0  0
   39.1840   32.8410   45.7050 N   0  0  0  0  0  0  0  0  0  0  0  0
   38.9500   32.8450   44.3810 C   0  0  0  0  0  0  0  0  0  0  0  0
   37.9310   32.0330   44.0770 N   0  0  0  0  0  0  0  0  0  0  0  0
   37.4820   31.4830   45.2230 C   0  0  0  0  0  0  0  0  0  0  0  0
   36.4820   30.5870   45.5860 C   0  0  0  0  0  0  0  0  0  0  0  0
   35.4990   29.5310   47.0900 H   0  0  0  0  0  0  0  0  0  0  0  0
   38.7450   32.0690   48.3530 H   0  0  0  0  0  0  0  0  0  0  0  0
   39.9190   33.3800   46.2160 H   0  0  0  0  0  0  0  0  0  0  0  0
   35.8600   30.1830   44.8070 H   0  0  0  0  0  0  0  0  0  0  0  0
   37.3740   30.0990   51.6110 C   0  0  0  0  0  0  0  0  0  0  0  0
   37.7180   30.5470   50.3370 C   0  0  0  0  0  0  0  0  0  0  0  0
   36.8540   30.3380   49.2830 C   0  0  0  0  0  0  0  0  0  0  0  0
   35.6820   29.6930   49.5320 N   0  0  0  0  0  0  0  0  0  0  0  0
   35.3540   29.2570   50.7810 C   0  0  0  0  0  0  0  0  0  0  0  0
   36.1940   29.4600   51.8080 N   0  0  0  0  0  0  0  0  0  0  0  0
   38.0530   30.2660   52.4250 H   0  0  0  0  0  0  0  0  0  0  0  0
   38.6390   31.0510   50.1600 H   0  0  0  0  0  0  0  0  0  0  0  0
   34.4200   28.7460   50.9630 H   0  0  0  0  0  0  0  0  0  0  0  0
   39.6640   33.5990   43.3590 C   0  0  0  0  0  0  0  0  0  0  0  0
   40.5700   34.1570   43.5160 H   0  0  0  0  0  0  0  0  0  0  0  0
   39.2920   33.6880   42.1490 O   0  0  0  0  0  0  0  0  0  0  0  0
  1 10  1  0  0  0  0
  1  2  1  0  0  0  0
  2 16  1  0  0  0  0
  3  2  2  0  0  0  0
  3 11  1  0  0  0  0
  4  3  1  0  0  0  0
  5 12  1  0  0  0  0
  5  4  1  0  0  0  0
  6  5  1  0  0  0  0
  7  6  2  0  0  0  0
  7  8  1  0  0  0  0
  8  9  1  0  0  0  0
  8  4  2  0  0  0  0
  9  1  2  0  0  0  0
 13  9  1  0  0  0  0
 14 19  1  0  0  0  0
 14 20  1  0  0  0  0
 15 14  2  0  0  0  0
 16 17  2  0  0  0  0
 16 15  1  0  0  0  0
 17 18  1  0  0  0  0
 18 22  1  0  0  0  0
 18 19  2  0  0  0  0
 21 15  1  0  0  0  0
 23 24  1  0  0  0  0
 23  6  1  0  0  0  0
 25 23  2  0  0  0  0
M  END
>  <minimizedAffinity>
-5.18011999

>  <minimizedRMSD>
1.03169239

$$$$
