
 OpenBabel03262522393D

 35 38  0  0  0  0  0  0  0  0999 V2000
   38.5330   31.3060   47.7190 C   0  0  0  0  0  0  0  0  0  0  0  0
   38.9810   32.5900   47.6980 C   0  0  0  0  0  0  0  0  0  0  0  0
   39.6410   33.1430   46.6250 C   0  0  0  0  0  0  0  0  0  0  0  0
   39.8780   32.3910   45.5000 C   0  0  0  0  0  0  0  0  0  0  0  0
   39.4170   31.0990   45.5460 C   0  0  0  0  0  0  0  0  0  0  0  0
   38.7810   30.5850   46.5950 N   0  0  0  0  0  0  0  0  0  0  0  0
   38.8240   33.2330   48.5550 H   0  0  0  0  0  0  0  0  0  0  0  0
   39.9860   34.1720   46.6400 H   0  0  0  0  0  0  0  0  0  0  0  0
   40.3940   32.7890   44.6350 H   0  0  0  0  0  0  0  0  0  0  0  0
   38.8360   29.1450   44.0690 C   0  0  0  0  0  0  0  0  0  0  0  0
   39.6220   30.2290   44.4010 C   0  0  0  0  0  0  0  0  0  0  0  0
   40.6750   30.4280   43.5070 C   0  0  0  0  0  0  0  0  0  0  0  0
   40.9210   29.6370   42.4050 C   0  0  0  0  0  0  0  0  0  0  0  0
   41.8730   29.6800   41.4500 N   0  0  0  0  0  0  0  0  0  0  0  0
   41.6420   28.6590   40.6020 C   0  0  0  0  0  0  0  0  0  0  0  0
   40.5390   27.9490   41.0030 C   0  0  0  0  0  0  0  0  0  0  0  0
   40.0930   28.5820   42.1480 C   0  0  0  0  0  0  0  0  0  0  0  0
   39.0470   28.3350   42.9820 C   0  0  0  0  0  0  0  0  0  0  0  0
   37.9890   28.9300   44.7300 H   0  0  0  0  0  0  0  0  0  0  0  0
   41.3610   31.2510   43.6660 H   0  0  0  0  0  0  0  0  0  0  0  0
   42.6440   30.3930   41.4020 H   0  0  0  0  0  0  0  0  0  0  0  0
   42.2900   28.4910   39.7420 H   0  0  0  0  0  0  0  0  0  0  0  0
   40.1370   27.0870   40.5050 H   0  0  0  0  0  0  0  0  0  0  0  0
   38.4100   27.4930   42.7520 H   0  0  0  0  0  0  0  0  0  0  0  0
   37.4340   30.3390   51.2000 C   0  0  0  0  0  0  0  0  0  0  0  0
   38.1770   30.9660   50.1870 C   0  0  0  0  0  0  0  0  0  0  0  0
   37.8350   30.7140   48.8480 C   0  0  0  0  0  0  0  0  0  0  0  0
   36.8050   29.8780   48.6200 N   0  0  0  0  0  0  0  0  0  0  0  0
   36.1060   29.2880   49.6140 C   0  0  0  0  0  0  0  0  0  0  0  0
   36.4120   29.5120   50.8780 N   0  0  0  0  0  0  0  0  0  0  0  0
   37.7510   30.5770   52.2060 H   0  0  0  0  0  0  0  0  0  0  0  0
   39.0060   31.6400   50.3470 H   0  0  0  0  0  0  0  0  0  0  0  0
   35.0220   28.4110   49.1840 C   0  0  0  0  0  0  0  0  0  0  0  0
   35.1270   27.5550   48.5320 H   0  0  0  0  0  0  0  0  0  0  0  0
   33.8540   28.6100   49.5620 O   0  0  0  0  0  0  0  0  0  0  0  0
  1 27  1  0  0  0  0
  2  1  1  0  0  0  0
  2  7  1  0  0  0  0
  3  8  1  0  0  0  0
  3  2  2  0  0  0  0
  4  5  2  0  0  0  0
  4  3  1  0  0  0  0
  5  6  1  0  0  0  0
  6  1  2  0  0  0  0
  9  4  1  0  0  0  0
 10 11  1  0  0  0  0
 10 19  1  0  0  0  0
 11  5  1  0  0  0  0
 12 20  1  0  0  0  0
 12 11  2  0  0  0  0
 13 12  1  0  0  0  0
 14 13  1  0  0  0  0
 15 16  2  0  0  0  0
 15 14  1  0  0  0  0
 16 17  1  0  0  0  0
 17 13  2  0  0  0  0
 17 18  1  0  0  0  0
 18 10  2  0  0  0  0
 21 14  1  0  0  0  0
 22 15  1  0  0  0  0
 23 16  1  0  0  0  0
 24 18  1  0  0  0  0
 25 31  1  0  0  0  0
 26 32  1  0  0  0  0
 26 25  2  0  0  0  0
 27 26  1  0  0  0  0
 28 27  2  0  0  0  0
 28 29  1  0  0  0  0
 29 30  2  0  0  0  0
 30 25  1  0  0  0  0
 33 35  2  0  0  0  0
 33 29  1  0  0  0  0
 34 33  1  0  0  0  0
M  END
>  <minimizedAffinity>
-6.82205343

>  <minimizedRMSD>
0.0588146485

$$$$
