
 OpenBabel03272500523D

 39 43  0  0  1  0  0  0  0  0999 V2000
   37.7260   25.9570   35.7750 C   0  0  1  0  0  0  0  0  0  0  0  0
   38.4370   27.3490   35.9730 C   0  0  0  0  0  0  0  0  0  0  0  0
   38.3260   26.6650   34.6440 C   0  0  2  0  0  0  0  0  0  0  0  0
   36.6230   26.0240   35.9830 H   0  0  0  0  0  0  0  0  0  0  0  0
   37.7870   28.2140   36.1300 H   0  0  0  0  0  0  0  0  0  0  0  0
   39.4220   27.3050   36.4440 H   0  0  0  0  0  0  0  0  0  0  0  0
   39.2620   26.2510   34.2120 H   0  0  0  0  0  0  0  0  0  0  0  0
   39.8260   23.1410   36.5620 C   0  0  0  0  0  0  0  0  0  0  0  0
   38.9750   23.1370   37.6590 C   0  0  0  0  0  0  0  0  0  0  0  0
   38.0620   24.2060   37.5070 C   0  0  0  0  0  0  0  0  0  0  0  0
   38.3850   24.8050   36.3540 N   0  0  0  0  0  0  0  0  0  0  0  0
   39.4050   24.1580   35.8450 N   0  0  0  0  0  0  0  0  0  0  0  0
   38.9430   22.4720   38.5200 H   0  0  0  0  0  0  0  0  0  0  0  0
   37.2640   24.4730   38.2000 H   0  0  0  0  0  0  0  0  0  0  0  0
   41.3940   21.8570   35.0770 C   0  0  0  0  0  0  0  0  0  0  0  0
   40.8860   22.1900   36.3780 C   0  0  0  0  0  0  0  0  0  0  0  0
   41.4570   21.5600   37.4420 C   0  0  0  0  0  0  0  0  0  0  0  0
   42.4610   20.6620   37.2280 N   0  0  0  0  0  0  0  0  0  0  0  0
   42.9130   20.3740   36.0000 C   0  0  0  0  0  0  0  0  0  0  0  0
   42.3770   20.9780   34.8950 N   0  0  0  0  0  0  0  0  0  0  0  0
   40.9490   22.3520   34.2260 H   0  0  0  0  0  0  0  0  0  0  0  0
   41.0940   21.7910   38.4340 H   0  0  0  0  0  0  0  0  0  0  0  0
   43.7120   19.6380   36.0550 H   0  0  0  0  0  0  0  0  0  0  0  0
   37.4430   27.2660   33.5890 C   0  0  0  0  0  0  0  0  0  0  0  0
   37.5240   27.0190   32.2340 C   0  0  0  0  0  0  0  0  0  0  0  0
   36.5490   27.7300   31.6130 N   0  0  0  0  0  0  0  0  0  0  0  0
   35.8530   28.4260   32.5620 C   0  0  0  0  0  0  0  0  0  0  0  0
   36.4080   28.1320   33.7520 N   0  0  0  0  0  0  0  0  0  0  0  0
   38.2530   26.3650   31.7950 H   0  0  0  0  0  0  0  0  0  0  0  0
   36.3570   27.7500   30.5920 H   0  0  0  0  0  0  0  0  0  0  0  0
   34.6930   29.3360   32.3300 C   0  0  0  0  0  0  0  0  0  0  0  0
   34.8120   30.4530   31.4980 C   0  0  0  0  0  0  0  0  0  0  0  0
   33.1320   31.1860   31.5780 S   0  0  0  0  0  0  0  0  0  0  0  0
   32.5600   29.8180   32.7480 C   0  0  0  0  0  0  0  0  0  0  0  0
   33.4990   29.2130   32.8430 N   0  0  0  0  0  0  0  0  0  0  0  0
   35.7510   30.7590   30.9460 H   0  0  0  0  0  0  0  0  0  0  0  0
   31.1410   29.8910   33.2020 C   0  0  0  0  0  0  0  0  0  0  0  0
   30.6220   30.6690   32.7050 H   0  0  0  0  0  0  0  0  0  0  0  0
   30.6680   29.1260   34.0520 O   0  0  0  0  0  0  0  0  0  0  0  0
  1  2  1  0  0  0  0
  1  4  1  1  0  0  0
  1 11  1  0  0  0  0
  2  5  1  0  0  0  0
  2  6  1  0  0  0  0
  3  7  1  6  0  0  0
  3  1  1  0  0  0  0
  3  2  1  0  0  0  0
  8  9  1  0  0  0  0
  9 13  1  0  0  0  0
 10  9  2  0  0  0  0
 10 14  1  0  0  0  0
 11 10  1  0  0  0  0
 12 11  1  0  0  0  0
 12  8  2  0  0  0  0
 15 16  1  0  0  0  0
 16  8  1  0  0  0  0
 16 17  2  0  0  0  0
 17 22  1  0  0  0  0
 18 17  1  0  0  0  0
 19 23  1  0  0  0  0
 19 18  2  0  0  0  0
 20 15  2  0  0  0  0
 20 19  1  0  0  0  0
 21 15  1  0  0  0  0
 24 28  1  0  0  0  0
 24  3  1  0  0  0  0
 25 24  2  0  0  0  0
 26 25  1  0  0  0  0
 26 27  1  0  0  0  0
 27 28  2  0  0  0  0
 29 25  1  0  0  0  0
 30 26  1  0  0  0  0
 31 27  1  0  0  0  0
 31 35  1  0  0  0  0
 32 33  1  0  0  0  0
 32 31  2  0  0  0  0
 33 34  1  0  0  0  0
 34 35  2  0  0  0  0
 34 37  1  0  0  0  0
 36 32  1  0  0  0  0
 37 39  2  0  0  0  0
 38 37  1  0  0  0  0
M  END
>  <minimizedAffinity>
-5.682724

$$$$

 OpenBabel03272500523D

 39 43  0  0  1  0  0  0  0  0999 V2000
   34.9330   29.3690   34.4260 C   0  0  1  0  0  0  0  0  0  0  0  0
   34.7000   29.5320   32.8760 C   0  0  0  0  0  0  0  0  0  0  0  0
   36.0200   29.1470   33.4720 C   0  0  2  0  0  0  0  0  0  0  0  0
   34.3420   28.5080   34.8430 H   0  0  0  0  0  0  0  0  0  0  0  0
   34.1400   28.7370   32.3770 H   0  0  0  0  0  0  0  0  0  0  0  0
   34.6270   30.5650   32.5230 H   0  0  0  0  0  0  0  0  0  0  0  0
   36.8320   29.9030   33.4260 H   0  0  0  0  0  0  0  0  0  0  0  0
   34.0320   32.3070   36.2990 C   0  0  0  0  0  0  0  0  0  0  0  0
   35.4140   32.3460   36.4170 C   0  0  0  0  0  0  0  0  0  0  0  0
   35.9430   31.2340   35.7210 C   0  0  0  0  0  0  0  0  0  0  0  0
   34.8890   30.5790   35.2190 N   0  0  0  0  0  0  0  0  0  0  0  0
   33.8110   31.2320   35.5770 N   0  0  0  0  0  0  0  0  0  0  0  0
   36.0560   33.0610   36.9290 H   0  0  0  0  0  0  0  0  0  0  0  0
   36.9980   30.9800   35.6240 H   0  0  0  0  0  0  0  0  0  0  0  0
   31.7400   33.2720   36.6620 C   0  0  0  0  0  0  0  0  0  0  0  0
   33.1580   33.2860   36.8840 C   0  0  0  0  0  0  0  0  0  0  0  0
   33.6480   34.2760   37.6820 C   0  0  0  0  0  0  0  0  0  0  0  0
   32.7890   35.1880   38.2190 N   0  0  0  0  0  0  0  0  0  0  0  0
   31.4690   35.1470   37.9930 C   0  0  0  0  0  0  0  0  0  0  0  0
   30.9220   34.1740   37.2000 N   0  0  0  0  0  0  0  0  0  0  0  0
   31.3410   32.4910   36.0320 H   0  0  0  0  0  0  0  0  0  0  0  0
   34.7130   34.3100   37.8660 H   0  0  0  0  0  0  0  0  0  0  0  0
   30.9710   35.9620   38.5140 H   0  0  0  0  0  0  0  0  0  0  0  0
   36.5400   27.7560   33.2450 C   0  0  0  0  0  0  0  0  0  0  0  0
   36.5900   27.1020   32.0320 C   0  0  0  0  0  0  0  0  0  0  0  0
   37.1400   25.8770   32.2300 N   0  0  0  0  0  0  0  0  0  0  0  0
   37.4370   25.7500   33.5590 C   0  0  0  0  0  0  0  0  0  0  0  0
   37.0680   26.8970   34.1580 N   0  0  0  0  0  0  0  0  0  0  0  0
   36.2410   27.5340   31.1130 H   0  0  0  0  0  0  0  0  0  0  0  0
   37.3090   25.1530   31.5040 H   0  0  0  0  0  0  0  0  0  0  0  0
   38.0590   24.5670   34.2250 C   0  0  0  0  0  0  0  0  0  0  0  0
   38.5550   23.4990   33.4730 C   0  0  0  0  0  0  0  0  0  0  0  0
   39.1820   22.3610   34.7690 S   0  0  0  0  0  0  0  0  0  0  0  0
   38.6470   23.5640   36.1230 C   0  0  0  0  0  0  0  0  0  0  0  0
   38.2050   24.3930   35.5100 N   0  0  0  0  0  0  0  0  0  0  0  0
   38.5370   23.4300   32.3430 H   0  0  0  0  0  0  0  0  0  0  0  0
   38.9220   23.1410   37.5270 C   0  0  0  0  0  0  0  0  0  0  0  0
   38.0220   23.0440   38.0770 H   0  0  0  0  0  0  0  0  0  0  0  0
   40.0650   22.9410   37.9560 O   0  0  0  0  0  0  0  0  0  0  0  0
  1  4  1  1  0  0  0
  1 11  1  0  0  0  0
  2  3  1  0  0  0  0
  2  1  1  0  0  0  0
  3  7  1  6  0  0  0
  3  1  1  0  0  0  0
  5  2  1  0  0  0  0
  6  2  1  0  0  0  0
  8  9  1  0  0  0  0
  8 16  1  0  0  0  0
  9 13  1  0  0  0  0
 10  9  2  0  0  0  0
 11 12  1  0  0  0  0
 11 10  1  0  0  0  0
 12  8  2  0  0  0  0
 14 10  1  0  0  0  0
 15 16  2  0  0  0  0
 15 20  1  0  0  0  0
 16 17  1  0  0  0  0
 17 22  1  0  0  0  0
 17 18  2  0  0  0  0
 19 18  1  0  0  0  0
 19 23  1  0  0  0  0
 20 19  2  0  0  0  0
 21 15  1  0  0  0  0
 24  3  1  0  0  0  0
 24 28  1  0  0  0  0
 25 26  1  0  0  0  0
 25 24  2  0  0  0  0
 26 27  1  0  0  0  0
 27 28  2  0  0  0  0
 27 31  1  0  0  0  0
 29 25  1  0  0  0  0
 30 26  1  0  0  0  0
 31 35  1  0  0  0  0
 32 31  2  0  0  0  0
 32 33  1  0  0  0  0
 33 34  1  0  0  0  0
 34 37  1  0  0  0  0
 35 34  2  0  0  0  0
 36 32  1  0  0  0  0
 37 39  2  0  0  0  0
 37 38  1  0  0  0  0
M  END
>  <minimizedAffinity>
-5.38907719

$$$$

 OpenBabel03272500523D

 39 43  0  0  1  0  0  0  0  0999 V2000
   38.1290   26.5690   34.4730 C   0  0  1  0  0  0  0  0  0  0  0  0
   38.9690   27.1570   35.6700 C   0  0  0  0  0  0  0  0  0  0  0  0
   37.9640   26.0560   35.8330 C   0  0  2  0  0  0  0  0  0  0  0  0
   38.7870   26.0390   33.7300 H   0  0  0  0  0  0  0  0  0  0  0  0
   40.0210   26.8660   35.7220 H   0  0  0  0  0  0  0  0  0  0  0  0
   38.6490   28.1410   36.0220 H   0  0  0  0  0  0  0  0  0  0  0  0
   37.0250   26.3080   36.3710 H   0  0  0  0  0  0  0  0  0  0  0  0
   35.4940   28.9220   33.7870 C   0  0  0  0  0  0  0  0  0  0  0  0
   35.8340   28.5390   32.4970 C   0  0  0  0  0  0  0  0  0  0  0  0
   36.8820   27.5930   32.5830 C   0  0  0  0  0  0  0  0  0  0  0  0
   37.1320   27.4410   33.8900 N   0  0  0  0  0  0  0  0  0  0  0  0
   36.3100   28.2250   34.5440 N   0  0  0  0  0  0  0  0  0  0  0  0
   35.4240   28.8550   31.5390 H   0  0  0  0  0  0  0  0  0  0  0  0
   37.3730   27.0990   31.7450 H   0  0  0  0  0  0  0  0  0  0  0  0
   34.6850   30.9920   34.9600 C   0  0  0  0  0  0  0  0  0  0  0  0
   34.4620   29.8760   34.0850 C   0  0  0  0  0  0  0  0  0  0  0  0
   33.2190   29.7570   33.5410 C   0  0  0  0  0  0  0  0  0  0  0  0
   32.2650   30.6810   33.8480 N   0  0  0  0  0  0  0  0  0  0  0  0
   32.5040   31.7120   34.6690 C   0  0  0  0  0  0  0  0  0  0  0  0
   33.7360   31.8810   35.2430 N   0  0  0  0  0  0  0  0  0  0  0  0
   35.6670   31.0960   35.3960 H   0  0  0  0  0  0  0  0  0  0  0  0
   33.0230   28.9260   32.8780 H   0  0  0  0  0  0  0  0  0  0  0  0
   31.6120   32.3250   34.7760 H   0  0  0  0  0  0  0  0  0  0  0  0
   38.4480   24.6760   36.1740 C   0  0  0  0  0  0  0  0  0  0  0  0
   37.6860   23.6700   36.7300 C   0  0  0  0  0  0  0  0  0  0  0  0
   38.4700   22.5710   36.8710 N   0  0  0  0  0  0  0  0  0  0  0  0
   39.7210   22.8730   36.4080 C   0  0  0  0  0  0  0  0  0  0  0  0
   39.6890   24.1520   35.9900 N   0  0  0  0  0  0  0  0  0  0  0  0
   36.6510   23.7870   36.9900 H   0  0  0  0  0  0  0  0  0  0  0  0
   38.1790   21.6530   37.2610 H   0  0  0  0  0  0  0  0  0  0  0  0
   40.9020   21.9600   36.3680 C   0  0  0  0  0  0  0  0  0  0  0  0
   41.4470   21.4390   37.5450 C   0  0  0  0  0  0  0  0  0  0  0  0
   42.8360   20.4170   36.9180 S   0  0  0  0  0  0  0  0  0  0  0  0
   42.4180   20.8910   35.1380 C   0  0  0  0  0  0  0  0  0  0  0  0
   41.5340   21.5620   35.2980 N   0  0  0  0  0  0  0  0  0  0  0  0
   41.0640   21.6450   38.5900 H   0  0  0  0  0  0  0  0  0  0  0  0
   43.2900   20.3060   34.0790 C   0  0  0  0  0  0  0  0  0  0  0  0
   43.8220   21.0640   33.5630 H   0  0  0  0  0  0  0  0  0  0  0  0
   43.3580   19.0910   33.8580 O   0  0  0  0  0  0  0  0  0  0  0  0
  1  4  1  6  0  0  0
  1  2  1  0  0  0  0
  1  3  1  0  0  0  0
  2  5  1  0  0  0  0
  2  3  1  0  0  0  0
  2  6  1  0  0  0  0
  3 24  1  0  0  0  0
  3  7  1  1  0  0  0
  8 16  1  0  0  0  0
  8 12  2  0  0  0  0
  9 10  2  0  0  0  0
  9  8  1  0  0  0  0
 10 11  1  0  0  0  0
 11  1  1  0  0  0  0
 11 12  1  0  0  0  0
 13  9  1  0  0  0  0
 14 10  1  0  0  0  0
 15 20  1  0  0  0  0
 15 21  1  0  0  0  0
 16 15  2  0  0  0  0
 17 18  2  0  0  0  0
 17 16  1  0  0  0  0
 18 19  1  0  0  0  0
 19 23  1  0  0  0  0
 19 20  2  0  0  0  0
 22 17  1  0  0  0  0
 24 25  2  0  0  0  0
 25 26  1  0  0  0  0
 25 29  1  0  0  0  0
 26 30  1  0  0  0  0
 27 26  1  0  0  0  0
 28 24  1  0  0  0  0
 28 27  2  0  0  0  0
 31 27  1  0  0  0  0
 31 32  2  0  0  0  0
 32 36  1  0  0  0  0
 33 32  1  0  0  0  0
 34 35  2  0  0  0  0
 34 33  1  0  0  0  0
 35 31  1  0  0  0  0
 37 34  1  0  0  0  0
 38 37  1  0  0  0  0
 39 37  2  0  0  0  0
M  END
>  <minimizedAffinity>
-5.34963417

$$$$

 OpenBabel03272500523D

 39 43  0  0  1  0  0  0  0  0999 V2000
   36.6710   27.2060   32.0660 C   0  0  1  0  0  0  0  0  0  0  0  0
   38.2030   27.2680   31.7020 C   0  0  0  0  0  0  0  0  0  0  0  0
   37.6720   26.5410   32.9000 C   0  0  2  0  0  0  0  0  0  0  0  0
   36.0870   26.6330   31.2930 H   0  0  0  0  0  0  0  0  0  0  0  0
   38.5340   26.6480   30.8640 H   0  0  0  0  0  0  0  0  0  0  0  0
   38.6920   28.2230   31.9090 H   0  0  0  0  0  0  0  0  0  0  0  0
   37.8930   26.9830   33.8950 H   0  0  0  0  0  0  0  0  0  0  0  0
   35.2110   29.9560   33.8720 C   0  0  0  0  0  0  0  0  0  0  0  0
   35.1380   30.4390   32.5720 C   0  0  0  0  0  0  0  0  0  0  0  0
   35.6840   29.4590   31.7110 C   0  0  0  0  0  0  0  0  0  0  0  0
   36.0570   28.4430   32.4990 N   0  0  0  0  0  0  0  0  0  0  0  0
   35.7660   28.7730   33.7340 N   0  0  0  0  0  0  0  0  0  0  0  0
   34.7500   31.3830   32.1950 H   0  0  0  0  0  0  0  0  0  0  0  0
   35.7730   29.5330   30.6270 H   0  0  0  0  0  0  0  0  0  0  0  0
   33.3650   30.6980   35.4060 C   0  0  0  0  0  0  0  0  0  0  0  0
   34.7470   30.6880   35.0170 C   0  0  0  0  0  0  0  0  0  0  0  0
   35.6100   31.4090   35.7860 C   0  0  0  0  0  0  0  0  0  0  0  0
   35.1320   32.0920   36.8650 N   0  0  0  0  0  0  0  0  0  0  0  0
   33.8350   32.0800   37.2030 C   0  0  0  0  0  0  0  0  0  0  0  0
   32.9240   31.3720   36.4660 N   0  0  0  0  0  0  0  0  0  0  0  0
   32.6730   30.1290   34.8040 H   0  0  0  0  0  0  0  0  0  0  0  0
   36.6560   31.4200   35.5160 H   0  0  0  0  0  0  0  0  0  0  0  0
   33.6710   32.6860   38.0910 H   0  0  0  0  0  0  0  0  0  0  0  0
   37.7410   25.0410   32.9290 C   0  0  0  0  0  0  0  0  0  0  0  0
   38.7080   24.2920   33.5660 C   0  0  0  0  0  0  0  0  0  0  0  0
   38.4190   22.9780   33.3820 N   0  0  0  0  0  0  0  0  0  0  0  0
   37.2770   22.8910   32.6340 C   0  0  0  0  0  0  0  0  0  0  0  0
   36.8810   24.1490   32.3700 N   0  0  0  0  0  0  0  0  0  0  0  0
   39.5310   24.7230   34.1040 H   0  0  0  0  0  0  0  0  0  0  0  0
   38.9640   22.1710   33.7420 H   0  0  0  0  0  0  0  0  0  0  0  0
   36.5920   21.6390   32.1950 C   0  0  0  0  0  0  0  0  0  0  0  0
   35.4190   21.2060   32.8180 C   0  0  0  0  0  0  0  0  0  0  0  0
   35.0310   19.6640   31.9030 S   0  0  0  0  0  0  0  0  0  0  0  0
   36.5610   19.8890   30.8180 C   0  0  0  0  0  0  0  0  0  0  0  0
   36.9800   20.8420   31.2360 N   0  0  0  0  0  0  0  0  0  0  0  0
   34.8990   21.7360   33.6720 H   0  0  0  0  0  0  0  0  0  0  0  0
   36.7960   18.8410   29.7840 C   0  0  0  0  0  0  0  0  0  0  0  0
   37.3340   18.0220   30.1890 H   0  0  0  0  0  0  0  0  0  0  0  0
   36.4000   18.9480   28.6170 O   0  0  0  0  0  0  0  0  0  0  0  0
  1  4  1  6  0  0  0
  1 11  1  0  0  0  0
  1  3  1  0  0  0  0
  2  6  1  0  0  0  0
  2  1  1  0  0  0  0
  2  3  1  0  0  0  0
  3 24  1  0  0  0  0
  3  7  1  1  0  0  0
  5  2  1  0  0  0  0
  8 16  1  0  0  0  0
  9  8  1  0  0  0  0
 10 11  1  0  0  0  0
 10  9  2  0  0  0  0
 11 12  1  0  0  0  0
 12  8  2  0  0  0  0
 13  9  1  0  0  0  0
 14 10  1  0  0  0  0
 15 20  1  0  0  0  0
 16 15  2  0  0  0  0
 16 17  1  0  0  0  0
 17 18  2  0  0  0  0
 18 19  1  0  0  0  0
 19 23  1  0  0  0  0
 20 19  2  0  0  0  0
 21 15  1  0  0  0  0
 22 17  1  0  0  0  0
 24 25  2  0  0  0  0
 25 29  1  0  0  0  0
 26 25  1  0  0  0  0
 26 30  1  0  0  0  0
 27 26  1  0  0  0  0
 28 27  2  0  0  0  0
 28 24  1  0  0  0  0
 31 27  1  0  0  0  0
 31 32  2  0  0  0  0
 32 36  1  0  0  0  0
 33 32  1  0  0  0  0
 34 35  2  0  0  0  0
 34 33  1  0  0  0  0
 35 31  1  0  0  0  0
 37 38  1  0  0  0  0
 37 34  1  0  0  0  0
 39 37  2  0  0  0  0
M  END
>  <minimizedAffinity>
-5.27786541

$$$$

 OpenBabel03272500523D

 39 43  0  0  1  0  0  0  0  0999 V2000
   37.2790   27.0220   33.0080 C   0  0  1  0  0  0  0  0  0  0  0  0
   38.8510   27.1140   33.0600 C   0  0  0  0  0  0  0  0  0  0  0  0
   38.0340   26.4240   34.1090 C   0  0  2  0  0  0  0  0  0  0  0  0
   36.9310   26.3990   32.1380 H   0  0  0  0  0  0  0  0  0  0  0  0
   39.4040   26.4700   32.3720 H   0  0  0  0  0  0  0  0  0  0  0  0
   39.2500   28.0920   33.3420 H   0  0  0  0  0  0  0  0  0  0  0  0
   37.9740   26.9140   35.1040 H   0  0  0  0  0  0  0  0  0  0  0  0
   35.4640   29.8680   34.2590 C   0  0  0  0  0  0  0  0  0  0  0  0
   35.5180   30.1760   32.9060 C   0  0  0  0  0  0  0  0  0  0  0  0
   36.2150   29.1360   32.2490 C   0  0  0  0  0  0  0  0  0  0  0  0
   36.5500   28.2570   33.2020 N   0  0  0  0  0  0  0  0  0  0  0  0
   36.0970   28.7190   34.3420 N   0  0  0  0  0  0  0  0  0  0  0  0
   35.1240   31.0340   32.3660 H   0  0  0  0  0  0  0  0  0  0  0  0
   36.4270   29.0780   31.1810 H   0  0  0  0  0  0  0  0  0  0  0  0
   35.5780   31.5580   36.1140 C   0  0  0  0  0  0  0  0  0  0  0  0
   34.8280   30.7040   35.2380 C   0  0  0  0  0  0  0  0  0  0  0  0
   33.4720   30.7180   35.3730 C   0  0  0  0  0  0  0  0  0  0  0  0
   32.9040   31.5250   36.3140 N   0  0  0  0  0  0  0  0  0  0  0  0
   33.6320   32.3120   37.1170 C   0  0  0  0  0  0  0  0  0  0  0  0
   34.9980   32.3370   37.0250 N   0  0  0  0  0  0  0  0  0  0  0  0
   36.6530   31.5540   36.0150 H   0  0  0  0  0  0  0  0  0  0  0  0
   32.8820   30.0850   34.7250 H   0  0  0  0  0  0  0  0  0  0  0  0
   32.9830   32.8690   37.7890 H   0  0  0  0  0  0  0  0  0  0  0  0
   38.1190   24.9290   34.2300 C   0  0  0  0  0  0  0  0  0  0  0  0
   38.2610   24.2230   35.4060 C   0  0  0  0  0  0  0  0  0  0  0  0
   38.2810   22.8990   35.1070 N   0  0  0  0  0  0  0  0  0  0  0  0
   38.1530   22.7610   33.7530 C   0  0  0  0  0  0  0  0  0  0  0  0
   38.0560   24.0010   33.2380 N   0  0  0  0  0  0  0  0  0  0  0  0
   38.3380   24.6890   36.3700 H   0  0  0  0  0  0  0  0  0  0  0  0
   38.3760   22.1160   35.7840 H   0  0  0  0  0  0  0  0  0  0  0  0
   38.1210   21.4820   32.9850 C   0  0  0  0  0  0  0  0  0  0  0  0
   39.3020   20.8870   32.5330 C   0  0  0  0  0  0  0  0  0  0  0  0
   38.6860   19.3860   31.6750 S   0  0  0  0  0  0  0  0  0  0  0  0
   36.9020   19.8470   32.0930 C   0  0  0  0  0  0  0  0  0  0  0  0
   37.0550   20.8030   32.6570 N   0  0  0  0  0  0  0  0  0  0  0  0
   40.3450   21.2950   32.6980 H   0  0  0  0  0  0  0  0  0  0  0  0
   35.8490   18.9080   31.6080 C   0  0  0  0  0  0  0  0  0  0  0  0
   36.1000   18.5140   30.6570 H   0  0  0  0  0  0  0  0  0  0  0  0
   34.8280   18.6500   32.2580 O   0  0  0  0  0  0  0  0  0  0  0  0
  1  4  1  6  0  0  0
  1  2  1  0  0  0  0
  1 11  1  0  0  0  0
  1  3  1  0  0  0  0
  2  6  1  0  0  0  0
  2  3  1  0  0  0  0
  3 24  1  0  0  0  0
  3  7  1  1  0  0  0
  5  2  1  0  0  0  0
  8 12  2  0  0  0  0
  8 16  1  0  0  0  0
  9  8  1  0  0  0  0
 10  9  2  0  0  0  0
 10 11  1  0  0  0  0
 11 12  1  0  0  0  0
 13  9  1  0  0  0  0
 14 10  1  0  0  0  0
 15 20  1  0  0  0  0
 16 17  1  0  0  0  0
 16 15  2  0  0  0  0
 17 18  2  0  0  0  0
 18 19  1  0  0  0  0
 19 23  1  0  0  0  0
 20 19  2  0  0  0  0
 21 15  1  0  0  0  0
 22 17  1  0  0  0  0
 24 25  2  0  0  0  0
 25 29  1  0  0  0  0
 26 25  1  0  0  0  0
 26 30  1  0  0  0  0
 27 26  1  0  0  0  0
 28 27  2  0  0  0  0
 28 24  1  0  0  0  0
 31 27  1  0  0  0  0
 32 36  1  0  0  0  0
 32 31  2  0  0  0  0
 33 34  1  0  0  0  0
 33 32  1  0  0  0  0
 34 35  2  0  0  0  0
 35 31  1  0  0  0  0
 37 34  1  0  0  0  0
 37 39  2  0  0  0  0
 38 37  1  0  0  0  0
M  END
>  <minimizedAffinity>
-5.22042227

$$$$

 OpenBabel03272500523D

 39 43  0  0  1  0  0  0  0  0999 V2000
   36.5060   28.1870   31.6370 C   0  0  1  0  0  0  0  0  0  0  0  0
   37.9920   27.7210   31.8820 C   0  0  0  0  0  0  0  0  0  0  0  0
   36.8020   27.0030   32.4440 C   0  0  2  0  0  0  0  0  0  0  0  0
   36.2190   28.0930   30.5530 H   0  0  0  0  0  0  0  0  0  0  0  0
   38.5000   27.2390   31.0440 H   0  0  0  0  0  0  0  0  0  0  0  0
   38.5560   28.3270   32.5960 H   0  0  0  0  0  0  0  0  0  0  0  0
   36.6450   27.0710   33.5410 H   0  0  0  0  0  0  0  0  0  0  0  0
   35.2800   30.7820   33.8080 C   0  0  0  0  0  0  0  0  0  0  0  0
   35.6920   31.5370   32.7190 C   0  0  0  0  0  0  0  0  0  0  0  0
   36.2150   30.6520   31.7470 C   0  0  0  0  0  0  0  0  0  0  0  0
   36.1020   29.4240   32.2690 N   0  0  0  0  0  0  0  0  0  0  0  0
   35.5590   29.5470   33.4560 N   0  0  0  0  0  0  0  0  0  0  0  0
   35.6580   32.6120   32.5570 H   0  0  0  0  0  0  0  0  0  0  0  0
   36.6210   30.9320   30.7750 H   0  0  0  0  0  0  0  0  0  0  0  0
   33.2820   31.5770   35.1080 C   0  0  0  0  0  0  0  0  0  0  0  0
   34.6940   31.3500   34.9910 C   0  0  0  0  0  0  0  0  0  0  0  0
   35.4660   31.6990   36.0570 C   0  0  0  0  0  0  0  0  0  0  0  0
   34.8750   32.2360   37.1630 N   0  0  0  0  0  0  0  0  0  0  0  0
   33.5530   32.4340   37.2420 C   0  0  0  0  0  0  0  0  0  0  0  0
   32.7290   32.1020   36.2000 N   0  0  0  0  0  0  0  0  0  0  0  0
   32.6610   31.3030   34.2690 H   0  0  0  0  0  0  0  0  0  0  0  0
   36.5340   31.5380   35.9960 H   0  0  0  0  0  0  0  0  0  0  0  0
   33.2930   32.8700   38.2040 H   0  0  0  0  0  0  0  0  0  0  0  0
   36.4640   25.6380   31.9180 C   0  0  0  0  0  0  0  0  0  0  0  0
   35.3370   25.3110   31.1920 C   0  0  0  0  0  0  0  0  0  0  0  0
   35.3980   23.9910   30.8830 N   0  0  0  0  0  0  0  0  0  0  0  0
   36.5530   23.4790   31.4070 C   0  0  0  0  0  0  0  0  0  0  0  0
   37.1850   24.4910   32.0290 N   0  0  0  0  0  0  0  0  0  0  0  0
   34.5710   26.0190   30.9400 H   0  0  0  0  0  0  0  0  0  0  0  0
   34.6930   23.4520   30.3420 H   0  0  0  0  0  0  0  0  0  0  0  0
   37.0300   22.0680   31.3070 C   0  0  0  0  0  0  0  0  0  0  0  0
   38.2510   21.7650   30.7000 C   0  0  0  0  0  0  0  0  0  0  0  0
   38.3250   19.9370   30.8520 S   0  0  0  0  0  0  0  0  0  0  0  0
   36.6530   19.9150   31.7290 C   0  0  0  0  0  0  0  0  0  0  0  0
   36.4050   21.0080   31.7430 N   0  0  0  0  0  0  0  0  0  0  0  0
   38.9630   22.5210   30.2500 H   0  0  0  0  0  0  0  0  0  0  0  0
   36.1400   18.5750   32.1360 C   0  0  0  0  0  0  0  0  0  0  0  0
   36.6100   17.8040   31.5810 H   0  0  0  0  0  0  0  0  0  0  0  0
   35.2780   18.4220   33.0110 O   0  0  0  0  0  0  0  0  0  0  0  0
  1  4  1  6  0  0  0
  1  2  1  0  0  0  0
  1 11  1  0  0  0  0
  1  3  1  0  0  0  0
  2  3  1  0  0  0  0
  2  6  1  0  0  0  0
  3  7  1  1  0  0  0
  5  2  1  0  0  0  0
  8 16  1  0  0  0  0
  9  8  1  0  0  0  0
 10 11  1  0  0  0  0
 10  9  2  0  0  0  0
 11 12  1  0  0  0  0
 12  8  2  0  0  0  0
 13  9  1  0  0  0  0
 14 10  1  0  0  0  0
 15 20  1  0  0  0  0
 16 15  2  0  0  0  0
 16 17  1  0  0  0  0
 17 18  2  0  0  0  0
 18 19  1  0  0  0  0
 19 23  1  0  0  0  0
 20 19  2  0  0  0  0
 21 15  1  0  0  0  0
 22 17  1  0  0  0  0
 24 28  1  0  0  0  0
 24  3  1  0  0  0  0
 25 24  2  0  0  0  0
 26 25  1  0  0  0  0
 26 27  1  0  0  0  0
 27 28  2  0  0  0  0
 29 25  1  0  0  0  0
 30 26  1  0  0  0  0
 31 27  1  0  0  0  0
 31 35  1  0  0  0  0
 32 33  1  0  0  0  0
 32 31  2  0  0  0  0
 33 34  1  0  0  0  0
 34 35  2  0  0  0  0
 34 37  1  0  0  0  0
 36 32  1  0  0  0  0
 37 39  2  0  0  0  0
 38 37  1  0  0  0  0
M  END
>  <minimizedAffinity>
-5.15874434

$$$$

 OpenBabel03272500523D

 39 43  0  0  1  0  0  0  0  0999 V2000
   37.9650   25.8610   33.9200 C   0  0  1  0  0  0  0  0  0  0  0  0
   38.7430   26.5010   32.7080 C   0  0  0  0  0  0  0  0  0  0  0  0
   37.2480   26.4890   32.8100 C   0  0  2  0  0  0  0  0  0  0  0  0
   38.1580   26.4220   34.8760 H   0  0  0  0  0  0  0  0  0  0  0  0
   39.2350   27.4590   32.8920 H   0  0  0  0  0  0  0  0  0  0  0  0
   39.1720   25.7850   32.0030 H   0  0  0  0  0  0  0  0  0  0  0  0
   36.7010   25.8260   32.1060 H   0  0  0  0  0  0  0  0  0  0  0  0
   37.5620   22.2970   33.6230 C   0  0  0  0  0  0  0  0  0  0  0  0
   38.5000   22.3610   34.6440 C   0  0  0  0  0  0  0  0  0  0  0  0
   38.7800   23.7250   34.8950 C   0  0  0  0  0  0  0  0  0  0  0  0
   38.0200   24.4200   34.0380 N   0  0  0  0  0  0  0  0  0  0  0  0
   37.3370   23.5570   33.3260 N   0  0  0  0  0  0  0  0  0  0  0  0
   38.9840   21.5640   35.2050 H   0  0  0  0  0  0  0  0  0  0  0  0
   39.4750   24.1120   35.6390 H   0  0  0  0  0  0  0  0  0  0  0  0
   37.7490   20.2880   32.1250 C   0  0  0  0  0  0  0  0  0  0  0  0
   37.0400   21.0640   33.1020 C   0  0  0  0  0  0  0  0  0  0  0  0
   35.8390   20.5780   33.5230 C   0  0  0  0  0  0  0  0  0  0  0  0
   35.3760   19.4040   33.0060 N   0  0  0  0  0  0  0  0  0  0  0  0
   36.0620   18.7030   32.0940 C   0  0  0  0  0  0  0  0  0  0  0  0
   37.2750   19.1440   31.6360 N   0  0  0  0  0  0  0  0  0  0  0  0
   38.7030   20.6640   31.7850 H   0  0  0  0  0  0  0  0  0  0  0  0
   35.2830   21.1420   34.2590 H   0  0  0  0  0  0  0  0  0  0  0  0
   35.5150   17.8040   31.8190 H   0  0  0  0  0  0  0  0  0  0  0  0
   36.5240   27.7860   33.0280 C   0  0  0  0  0  0  0  0  0  0  0  0
   35.9760   28.5790   32.0410 C   0  0  0  0  0  0  0  0  0  0  0  0
   35.3940   29.6530   32.6320 N   0  0  0  0  0  0  0  0  0  0  0  0
   35.5680   29.5470   33.9840 C   0  0  0  0  0  0  0  0  0  0  0  0
   36.2540   28.4100   34.2060 N   0  0  0  0  0  0  0  0  0  0  0  0
   36.0290   28.3420   30.9960 H   0  0  0  0  0  0  0  0  0  0  0  0
   34.8980   30.4280   32.1500 H   0  0  0  0  0  0  0  0  0  0  0  0
   35.0870   30.5040   35.0240 C   0  0  0  0  0  0  0  0  0  0  0  0
   35.9850   31.3180   35.7200 C   0  0  0  0  0  0  0  0  0  0  0  0
   34.8770   32.2610   36.8390 S   0  0  0  0  0  0  0  0  0  0  0  0
   33.3670   31.3630   36.1460 C   0  0  0  0  0  0  0  0  0  0  0  0
   33.8480   30.6880   35.3910 N   0  0  0  0  0  0  0  0  0  0  0  0
   37.1060   31.3310   35.5700 H   0  0  0  0  0  0  0  0  0  0  0  0
   32.0480   31.7470   36.7280 C   0  0  0  0  0  0  0  0  0  0  0  0
   32.0940   32.7070   37.1720 H   0  0  0  0  0  0  0  0  0  0  0  0
   31.0530   31.0120   36.6800 O   0  0  0  0  0  0  0  0  0  0  0  0
  1 11  1  0  0  0  0
  1  4  1  1  0  0  0
  2  3  1  0  0  0  0
  2  5  1  0  0  0  0
  2  1  1  0  0  0  0
  3  7  1  6  0  0  0
  3 24  1  0  0  0  0
  3  1  1  0  0  0  0
  6  2  1  0  0  0  0
  8  9  1  0  0  0  0
  9 10  2  0  0  0  0
  9 13  1  0  0  0  0
 10 14  1  0  0  0  0
 11 10  1  0  0  0  0
 12  8  2  0  0  0  0
 12 11  1  0  0  0  0
 15 16  1  0  0  0  0
 16 17  2  0  0  0  0
 16  8  1  0  0  0  0
 17 22  1  0  0  0  0
 18 17  1  0  0  0  0
 19 18  2  0  0  0  0
 20 19  1  0  0  0  0
 20 15  2  0  0  0  0
 21 15  1  0  0  0  0
 23 19  1  0  0  0  0
 24 28  1  0  0  0  0
 25 26  1  0  0  0  0
 25 24  2  0  0  0  0
 26 27  1  0  0  0  0
 27 28  2  0  0  0  0
 27 31  1  0  0  0  0
 29 25  1  0  0  0  0
 30 26  1  0  0  0  0
 31 35  1  0  0  0  0
 31 32  2  0  0  0  0
 32 33  1  0  0  0  0
 34 37  1  0  0  0  0
 34 33  1  0  0  0  0
 35 34  2  0  0  0  0
 36 32  1  0  0  0  0
 37 38  1  0  0  0  0
 39 37  2  0  0  0  0
M  END
>  <minimizedAffinity>
-5.13710356

$$$$

 OpenBabel03272500523D

 39 43  0  0  1  0  0  0  0  0999 V2000
   36.9990   26.0700   32.8160 C   0  0  1  0  0  0  0  0  0  0  0  0
   38.3510   26.8750   32.9050 C   0  0  0  0  0  0  0  0  0  0  0  0
   37.1820   27.3220   32.0810 C   0  0  2  0  0  0  0  0  0  0  0  0
   36.4660   26.0510   33.8060 H   0  0  0  0  0  0  0  0  0  0  0  0
   38.5350   27.4280   33.8300 H   0  0  0  0  0  0  0  0  0  0  0  0
   39.1850   26.4450   32.3430 H   0  0  0  0  0  0  0  0  0  0  0  0
   37.2920   27.2630   30.9770 H   0  0  0  0  0  0  0  0  0  0  0  0
   36.7340   22.6430   31.7500 C   0  0  0  0  0  0  0  0  0  0  0  0
   37.3940   23.1960   30.6610 C   0  0  0  0  0  0  0  0  0  0  0  0
   37.5840   24.5740   30.9200 C   0  0  0  0  0  0  0  0  0  0  0  0
   37.0460   24.7990   32.1260 N   0  0  0  0  0  0  0  0  0  0  0  0
   36.5690   23.6600   32.5650 N   0  0  0  0  0  0  0  0  0  0  0  0
   37.7400   22.7330   29.7390 H   0  0  0  0  0  0  0  0  0  0  0  0
   38.0710   25.2910   30.2600 H   0  0  0  0  0  0  0  0  0  0  0  0
   35.8600   20.6750   33.0450 C   0  0  0  0  0  0  0  0  0  0  0  0
   36.3740   21.2550   31.8360 C   0  0  0  0  0  0  0  0  0  0  0  0
   36.5080   20.4270   30.7630 C   0  0  0  0  0  0  0  0  0  0  0  0
   36.1560   19.1150   30.8830 N   0  0  0  0  0  0  0  0  0  0  0  0
   35.6780   18.6040   32.0250 C   0  0  0  0  0  0  0  0  0  0  0  0
   35.5220   19.3900   33.1360 N   0  0  0  0  0  0  0  0  0  0  0  0
   35.7490   21.3230   33.9010 H   0  0  0  0  0  0  0  0  0  0  0  0
   36.8920   20.8380   29.8390 H   0  0  0  0  0  0  0  0  0  0  0  0
   35.4610   17.5450   31.9040 H   0  0  0  0  0  0  0  0  0  0  0  0
   36.4250   28.5500   32.5000 C   0  0  0  0  0  0  0  0  0  0  0  0
   35.8750   29.4860   31.6500 C   0  0  0  0  0  0  0  0  0  0  0  0
   35.2590   30.4340   32.4020 N   0  0  0  0  0  0  0  0  0  0  0  0
   35.4150   30.1050   33.7200 C   0  0  0  0  0  0  0  0  0  0  0  0
   36.1230   28.9610   33.7600 N   0  0  0  0  0  0  0  0  0  0  0  0
   35.9490   29.4290   30.5810 H   0  0  0  0  0  0  0  0  0  0  0  0
   34.7530   31.2690   32.0470 H   0  0  0  0  0  0  0  0  0  0  0  0
   34.8960   30.8640   34.8960 C   0  0  0  0  0  0  0  0  0  0  0  0
   35.7710   31.4270   35.8290 C   0  0  0  0  0  0  0  0  0  0  0  0
   34.6210   32.2140   37.0240 S   0  0  0  0  0  0  0  0  0  0  0  0
   33.1320   31.6240   36.0220 C   0  0  0  0  0  0  0  0  0  0  0  0
   33.6410   31.0800   35.1840 N   0  0  0  0  0  0  0  0  0  0  0  0
   36.9000   31.3690   35.7850 H   0  0  0  0  0  0  0  0  0  0  0  0
   31.7900   31.9970   36.5550 C   0  0  0  0  0  0  0  0  0  0  0  0
   31.1040   31.1960   36.4520 H   0  0  0  0  0  0  0  0  0  0  0  0
   31.5470   33.1070   37.0450 O   0  0  0  0  0  0  0  0  0  0  0  0
  1  2  1  0  0  0  0
  1  4  1  1  0  0  0
  2  5  1  0  0  0  0
  3  7  1  6  0  0  0
  3 24  1  0  0  0  0
  3  1  1  0  0  0  0
  3  2  1  0  0  0  0
  6  2  1  0  0  0  0
  8 16  1  0  0  0  0
  8 12  2  0  0  0  0
  9 10  2  0  0  0  0
  9  8  1  0  0  0  0
 10 11  1  0  0  0  0
 11 12  1  0  0  0  0
 11  1  1  0  0  0  0
 13  9  1  0  0  0  0
 14 10  1  0  0  0  0
 15 20  1  0  0  0  0
 15 21  1  0  0  0  0
 16 15  2  0  0  0  0
 17 18  2  0  0  0  0
 17 16  1  0  0  0  0
 18 19  1  0  0  0  0
 19 20  2  0  0  0  0
 22 17  1  0  0  0  0
 23 19  1  0  0  0  0
 24 28  1  0  0  0  0
 25 26  1  0  0  0  0
 25 24  2  0  0  0  0
 26 27  1  0  0  0  0
 27 28  2  0  0  0  0
 27 31  1  0  0  0  0
 29 25  1  0  0  0  0
 30 26  1  0  0  0  0
 31 35  1  0  0  0  0
 31 32  2  0  0  0  0
 32 33  1  0  0  0  0
 34 37  1  0  0  0  0
 34 33  1  0  0  0  0
 35 34  2  0  0  0  0
 36 32  1  0  0  0  0
 37 39  2  0  0  0  0
 38 37  1  0  0  0  0
M  END
>  <minimizedAffinity>
-5.12260628

$$$$

 OpenBabel03272500523D

 39 43  0  0  1  0  0  0  0  0999 V2000
   37.7280   25.8970   35.1480 C   0  0  1  0  0  0  0  0  0  0  0  0
   38.2850   27.3420   35.4420 C   0  0  0  0  0  0  0  0  0  0  0  0
   38.5040   26.6250   34.1440 C   0  0  2  0  0  0  0  0  0  0  0  0
   36.6040   25.8870   35.1170 H   0  0  0  0  0  0  0  0  0  0  0  0
   37.5600   28.1600   35.4300 H   0  0  0  0  0  0  0  0  0  0  0  0
   39.1500   27.3790   36.1100 H   0  0  0  0  0  0  0  0  0  0  0  0
   39.5360   26.2730   33.9310 H   0  0  0  0  0  0  0  0  0  0  0  0
   39.7430   23.1870   36.3930 C   0  0  0  0  0  0  0  0  0  0  0  0
   38.7810   23.2660   37.3900 C   0  0  0  0  0  0  0  0  0  0  0  0
   37.8850   24.3070   37.0520 C   0  0  0  0  0  0  0  0  0  0  0  0
   38.3260   24.8080   35.8900 N   0  0  0  0  0  0  0  0  0  0  0  0
   39.3970   24.1330   35.5500 N   0  0  0  0  0  0  0  0  0  0  0  0
   38.6600   22.6780   38.2980 H   0  0  0  0  0  0  0  0  0  0  0  0
   37.0180   24.6230   37.6310 H   0  0  0  0  0  0  0  0  0  0  0  0
   41.5050   21.8460   35.2050 C   0  0  0  0  0  0  0  0  0  0  0  0
   40.8200   22.2370   36.4040 C   0  0  0  0  0  0  0  0  0  0  0  0
   41.2380   21.6640   37.5670 C   0  0  0  0  0  0  0  0  0  0  0  0
   42.2640   20.7660   37.5390 N   0  0  0  0  0  0  0  0  0  0  0  0
   42.8830   20.4220   36.4020 C   0  0  0  0  0  0  0  0  0  0  0  0
   42.5040   20.9670   35.2040 N   0  0  0  0  0  0  0  0  0  0  0  0
   41.1810   22.2950   34.2770 H   0  0  0  0  0  0  0  0  0  0  0  0
   40.7410   21.9400   38.4870 H   0  0  0  0  0  0  0  0  0  0  0  0
   43.6670   19.6960   36.6030 H   0  0  0  0  0  0  0  0  0  0  0  0
   37.8260   27.1400   32.9070 C   0  0  0  0  0  0  0  0  0  0  0  0
   36.5540   26.8090   32.4880 C   0  0  0  0  0  0  0  0  0  0  0  0
   36.2920   27.4890   31.3430 N   0  0  0  0  0  0  0  0  0  0  0  0
   37.3860   28.2480   31.0340 C   0  0  0  0  0  0  0  0  0  0  0  0
   38.3050   28.0240   31.9920 N   0  0  0  0  0  0  0  0  0  0  0  0
   35.9180   26.1230   33.0150 H   0  0  0  0  0  0  0  0  0  0  0  0
   35.4140   27.4470   30.7890 H   0  0  0  0  0  0  0  0  0  0  0  0
   37.5390   29.1570   29.8600 C   0  0  0  0  0  0  0  0  0  0  0  0
   38.2750   28.7650   28.7390 C   0  0  0  0  0  0  0  0  0  0  0  0
   38.1330   30.2290   27.6410 S   0  0  0  0  0  0  0  0  0  0  0  0
   37.0800   31.1260   28.9270 C   0  0  0  0  0  0  0  0  0  0  0  0
   37.0380   30.3570   29.7420 N   0  0  0  0  0  0  0  0  0  0  0  0
   38.7990   27.7690   28.6170 H   0  0  0  0  0  0  0  0  0  0  0  0
   36.6210   32.4970   28.5620 C   0  0  0  0  0  0  0  0  0  0  0  0
   36.7240   33.1630   29.3800 H   0  0  0  0  0  0  0  0  0  0  0  0
   36.1810   32.7820   27.4410 O   0  0  0  0  0  0  0  0  0  0  0  0
  1  4  1  6  0  0  0
  1  2  1  0  0  0  0
  1 11  1  0  0  0  0
  2  6  1  0  0  0  0
  3  7  1  6  0  0  0
  3  1  1  0  0  0  0
  3  2  1  0  0  0  0
  5  2  1  0  0  0  0
  8 16  1  0  0  0  0
  8  9  1  0  0  0  0
  9 13  1  0  0  0  0
 10  9  2  0  0  0  0
 10 14  1  0  0  0  0
 11 10  1  0  0  0  0
 12 11  1  0  0  0  0
 12  8  2  0  0  0  0
 15 16  1  0  0  0  0
 16 17  2  0  0  0  0
 17 22  1  0  0  0  0
 18 17  1  0  0  0  0
 19 23  1  0  0  0  0
 19 18  2  0  0  0  0
 20 15  2  0  0  0  0
 20 19  1  0  0  0  0
 21 15  1  0  0  0  0
 24  3  1  0  0  0  0
 25 24  2  0  0  0  0
 25 29  1  0  0  0  0
 26 25  1  0  0  0  0
 27 26  1  0  0  0  0
 27 28  2  0  0  0  0
 28 24  1  0  0  0  0
 30 26  1  0  0  0  0
 31 27  1  0  0  0  0
 32 31  2  0  0  0  0
 33 32  1  0  0  0  0
 33 34  1  0  0  0  0
 34 35  2  0  0  0  0
 35 31  1  0  0  0  0
 36 32  1  0  0  0  0
 37 34  1  0  0  0  0
 37 38  1  0  0  0  0
 39 37  2  0  0  0  0
M  END
>  <minimizedAffinity>
-5.06865978

$$$$
