
 OpenBabel03272508203D

 35 37  0  0  0  0  0  0  0  0999 V2000
   34.1580   28.5790   47.5190 C   0  0  0  0  0  0  0  0  0  0  0  0
   34.4660   27.7420   46.7880 H   0  0  0  0  0  0  0  0  0  0  0  0
   34.1690   28.0460   48.4540 H   0  0  0  0  0  0  0  0  0  0  0  0
   31.6750   28.4860   47.3610 C   0  0  0  0  0  0  0  0  0  0  0  0
   32.8980   29.0060   46.9790 C   0  0  0  0  0  0  0  0  0  0  0  0
   32.7820   29.9280   45.9690 C   0  0  0  0  0  0  0  0  0  0  0  0
   31.6230   30.2870   45.4110 N   0  0  0  0  0  0  0  0  0  0  0  0
   30.4570   29.7700   45.7940 C   0  0  0  0  0  0  0  0  0  0  0  0
   30.4800   28.8650   46.7720 N   0  0  0  0  0  0  0  0  0  0  0  0
   33.6500   30.4320   45.5550 H   0  0  0  0  0  0  0  0  0  0  0  0
   29.4420   29.9230   45.4770 H   0  0  0  0  0  0  0  0  0  0  0  0
   31.6450   27.5400   48.5660 C   0  0  0  0  0  0  0  0  0  0  0  0
   30.5070   26.8140   48.9270 C   0  0  0  0  0  0  0  0  0  0  0  0
   31.4440   26.0830   47.9780 C   0  0  0  0  0  0  0  0  0  0  0  0
   32.5520   27.5330   49.2190 H   0  0  0  0  0  0  0  0  0  0  0  0
   30.3920   26.3450   49.9000 H   0  0  0  0  0  0  0  0  0  0  0  0
   29.5090   27.1010   48.4870 H   0  0  0  0  0  0  0  0  0  0  0  0
   32.1360   25.3460   48.3630 H   0  0  0  0  0  0  0  0  0  0  0  0
   31.1620   25.9740   46.9400 H   0  0  0  0  0  0  0  0  0  0  0  0
   35.2840   29.5320   47.4410 C   0  0  0  0  0  0  0  0  0  0  0  0
   36.0340   29.3060   46.6570 H   0  0  0  0  0  0  0  0  0  0  0  0
   34.8500   30.5220   47.1100 H   0  0  0  0  0  0  0  0  0  0  0  0
   37.0690   31.6160   47.4200 F   0  0  0  0  0  0  0  0  0  0  0  0
   36.8930   30.8760   48.5510 C   0  0  0  0  0  0  0  0  0  0  0  0
   36.0140   29.8010   48.6660 C   0  0  0  0  0  0  0  0  0  0  0  0
   35.9550   29.1470   49.8790 C   0  0  0  0  0  0  0  0  0  0  0  0
   36.7330   29.5440   50.9340 C   0  0  0  0  0  0  0  0  0  0  0  0
   37.6110   30.6230   50.8130 C   0  0  0  0  0  0  0  0  0  0  0  0
   37.6860   31.2830   49.6170 C   0  0  0  0  0  0  0  0  0  0  0  0
   35.2840   28.3190   49.9600 H   0  0  0  0  0  0  0  0  0  0  0  0
   36.6770   29.0320   51.8660 H   0  0  0  0  0  0  0  0  0  0  0  0
   38.2090   30.9160   51.6450 H   0  0  0  0  0  0  0  0  0  0  0  0
   38.6100   32.4090   49.5080 C   0  0  0  0  0  0  0  0  0  0  0  0
   39.6820   32.3250   49.4800 H   0  0  0  0  0  0  0  0  0  0  0  0
   38.2090   33.5910   49.4370 O   0  0  0  0  0  0  0  0  0  0  0  0
  1  3  1  0  0  0  0
  2  1  1  0  0  0  0
  4 12  1  0  0  0  0
  5  4  1  0  0  0  0
  5  1  1  0  0  0  0
  6  5  2  0  0  0  0
  7  8  2  0  0  0  0
  7  6  1  0  0  0  0
  8  9  1  0  0  0  0
  9  4  2  0  0  0  0
 10  6  1  0  0  0  0
 11  8  1  0  0  0  0
 12 13  1  0  0  0  0
 12 15  1  0  0  0  0
 13 16  1  0  0  0  0
 14 18  1  0  0  0  0
 14 12  1  0  0  0  0
 14 13  1  0  0  0  0
 17 13  1  0  0  0  0
 19 14  1  0  0  0  0
 20  1  1  0  0  0  0
 20 25  1  0  0  0  0
 21 20  1  0  0  0  0
 22 20  1  0  0  0  0
 23 24  1  0  0  0  0
 24 25  2  0  0  0  0
 24 29  1  0  0  0  0
 25 26  1  0  0  0  0
 26 30  1  0  0  0  0
 26 27  2  0  0  0  0
 27 31  1  0  0  0  0
 28 27  1  0  0  0  0
 28 32  1  0  0  0  0
 29 28  2  0  0  0  0
 33 29  1  0  0  0  0
 34 33  1  0  0  0  0
 35 33  2  0  0  0  0
M  END
>  <minimizedAffinity>
-5.49861288

>  <minimizedRMSD>
4.08042431

$$$$
