
 OpenBabel03272506353D

 13 13  0  0  0  0  0  0  0  0999 V2000
   39.6530   22.7520   37.5220 C   0  0  0  0  0  0  0  0  0  0  0  0
   38.8850   23.3000   38.5660 C   0  0  0  0  0  0  0  0  0  0  0  0
   37.9700   24.2970   38.2400 C   0  0  0  0  0  0  0  0  0  0  0  0
   37.8620   24.6930   36.9430 N   0  0  0  0  0  0  0  0  0  0  0  0
   38.6250   24.1360   35.9600 C   0  0  0  0  0  0  0  0  0  0  0  0
   39.5020   23.1820   36.2600 N   0  0  0  0  0  0  0  0  0  0  0  0
   38.9510   23.0040   39.6080 H   0  0  0  0  0  0  0  0  0  0  0  0
   37.3420   24.7700   38.9860 H   0  0  0  0  0  0  0  0  0  0  0  0
   38.5210   24.5490   34.5650 C   0  0  0  0  0  0  0  0  0  0  0  0
   39.1550   24.1690   33.7650 H   0  0  0  0  0  0  0  0  0  0  0  0
   37.6760   25.3920   34.1670 O   0  0  0  0  0  0  0  0  0  0  0  0
   40.5170   21.7730   37.9880 O   0  0  0  0  0  0  0  0  0  0  0  0
   41.4770   21.9650   38.3050 H   0  0  0  0  0  0  0  0  0  0  0  0
  1 12  1  0  0  0  0
  1  2  1  0  0  0  0
  2  7  1  0  0  0  0
  3  2  2  0  0  0  0
  3  8  1  0  0  0  0
  4  3  1  0  0  0  0
  5  6  1  0  0  0  0
  5  4  2  0  0  0  0
  6  1  2  0  0  0  0
  9  5  1  0  0  0  0
 10  9  1  0  0  0  0
 11  9  2  0  0  0  0
 12 13  1  0  0  0  0
M  END
>  <minimizedAffinity>
-3.52171302

$$$$

 OpenBabel03272506353D

 13 13  0  0  0  0  0  0  0  0999 V2000
   38.8040   23.3050   37.8260 C   0  0  0  0  0  0  0  0  0  0  0  0
   39.9100   22.7300   37.1740 C   0  0  0  0  0  0  0  0  0  0  0  0
   40.3360   23.3180   35.9870 C   0  0  0  0  0  0  0  0  0  0  0  0
   39.6710   24.4080   35.5160 N   0  0  0  0  0  0  0  0  0  0  0  0
   38.6030   24.9350   36.1790 C   0  0  0  0  0  0  0  0  0  0  0  0
   38.1880   24.3810   37.3150 N   0  0  0  0  0  0  0  0  0  0  0  0
   40.4580   21.8620   37.5260 H   0  0  0  0  0  0  0  0  0  0  0  0
   41.1790   22.9360   35.4240 H   0  0  0  0  0  0  0  0  0  0  0  0
   37.8800   26.1020   35.6890 C   0  0  0  0  0  0  0  0  0  0  0  0
   36.9900   26.0530   35.0620 H   0  0  0  0  0  0  0  0  0  0  0  0
   38.2310   27.2810   35.9540 O   0  0  0  0  0  0  0  0  0  0  0  0
   38.4910   22.6210   38.9920 O   0  0  0  0  0  0  0  0  0  0  0  0
   37.8320   21.8320   39.0300 H   0  0  0  0  0  0  0  0  0  0  0  0
  1 12  1  0  0  0  0
  2  7  1  0  0  0  0
  2  1  2  0  0  0  0
  3  2  1  0  0  0  0
  4  3  2  0  0  0  0
  4  5  1  0  0  0  0
  5  6  2  0  0  0  0
  6  1  1  0  0  0  0
  8  3  1  0  0  0  0
  9 11  2  0  0  0  0
  9  5  1  0  0  0  0
 10  9  1  0  0  0  0
 12 13  1  0  0  0  0
M  END
>  <minimizedAffinity>
-3.32984877

$$$$

 OpenBabel03272506353D

 13 13  0  0  0  0  0  0  0  0999 V2000
   38.7370   26.7870   35.8530 C   0  0  0  0  0  0  0  0  0  0  0  0
   39.8750   26.7560   35.0260 C   0  0  0  0  0  0  0  0  0  0  0  0
   40.3960   25.5080   34.6940 C   0  0  0  0  0  0  0  0  0  0  0  0
   39.7900   24.3910   35.1790 N   0  0  0  0  0  0  0  0  0  0  0  0
   38.6880   24.4650   35.9780 C   0  0  0  0  0  0  0  0  0  0  0  0
   38.1810   25.6510   36.3000 N   0  0  0  0  0  0  0  0  0  0  0  0
   40.3780   27.6300   34.6260 H   0  0  0  0  0  0  0  0  0  0  0  0
   41.2710   25.3980   34.0630 H   0  0  0  0  0  0  0  0  0  0  0  0
   38.0270   23.2780   36.5050 C   0  0  0  0  0  0  0  0  0  0  0  0
   37.9630   22.3260   35.9780 H   0  0  0  0  0  0  0  0  0  0  0  0
   37.4670   23.2550   37.6320 O   0  0  0  0  0  0  0  0  0  0  0  0
   38.3260   28.0890   36.1000 O   0  0  0  0  0  0  0  0  0  0  0  0
   38.6570   28.6490   36.8970 H   0  0  0  0  0  0  0  0  0  0  0  0
  1 12  1  0  0  0  0
  1  6  1  0  0  0  0
  2  1  2  0  0  0  0
  3  2  1  0  0  0  0
  3  4  2  0  0  0  0
  4  5  1  0  0  0  0
  5  6  2  0  0  0  0
  5  9  1  0  0  0  0
  7  2  1  0  0  0  0
  8  3  1  0  0  0  0
  9 11  2  0  0  0  0
 10  9  1  0  0  0  0
 12 13  1  0  0  0  0
M  END
>  <minimizedAffinity>
-3.23702979

$$$$

 OpenBabel03272506353D

 13 13  0  0  0  0  0  0  0  0999 V2000
   39.3320   22.9820   37.8870 C   0  0  0  0  0  0  0  0  0  0  0  0
   38.6260   23.7880   36.9750 C   0  0  0  0  0  0  0  0  0  0  0  0
   39.2820   24.1640   35.8060 C   0  0  0  0  0  0  0  0  0  0  0  0
   40.5590   23.7420   35.6020 N   0  0  0  0  0  0  0  0  0  0  0  0
   41.2080   22.9610   36.5120 C   0  0  0  0  0  0  0  0  0  0  0  0
   40.5910   22.5950   37.6310 N   0  0  0  0  0  0  0  0  0  0  0  0
   37.6090   24.1380   37.1120 H   0  0  0  0  0  0  0  0  0  0  0  0
   38.8080   24.7840   35.0540 H   0  0  0  0  0  0  0  0  0  0  0  0
   42.5760   22.5000   36.3080 C   0  0  0  0  0  0  0  0  0  0  0  0
   42.8410   21.5730   35.8000 H   0  0  0  0  0  0  0  0  0  0  0  0
   43.5780   23.1470   36.7080 O   0  0  0  0  0  0  0  0  0  0  0  0
   38.5620   22.6830   39.0010 O   0  0  0  0  0  0  0  0  0  0  0  0
   38.5440   23.2600   39.8530 H   0  0  0  0  0  0  0  0  0  0  0  0
  1 12  1  0  0  0  0
  2  7  1  0  0  0  0
  2  1  2  0  0  0  0
  3  2  1  0  0  0  0
  4  3  2  0  0  0  0
  4  5  1  0  0  0  0
  5  6  2  0  0  0  0
  6  1  1  0  0  0  0
  8  3  1  0  0  0  0
  9  5  1  0  0  0  0
  9 11  2  0  0  0  0
 10  9  1  0  0  0  0
 12 13  1  0  0  0  0
M  END
>  <minimizedAffinity>
-3.12991667

$$$$

 OpenBabel03272506353D

 13 13  0  0  0  0  0  0  0  0999 V2000
   38.8740   23.2560   37.8040 C   0  0  0  0  0  0  0  0  0  0  0  0
   37.9150   24.2580   37.5660 C   0  0  0  0  0  0  0  0  0  0  0  0
   38.0440   25.0110   36.4030 C   0  0  0  0  0  0  0  0  0  0  0  0
   39.0800   24.7490   35.5600 N   0  0  0  0  0  0  0  0  0  0  0  0
   39.9890   23.7690   35.8280 C   0  0  0  0  0  0  0  0  0  0  0  0
   39.8740   23.0430   36.9360 N   0  0  0  0  0  0  0  0  0  0  0  0
   37.0800   24.4880   38.2200 H   0  0  0  0  0  0  0  0  0  0  0  0
   37.3480   25.8010   36.1470 H   0  0  0  0  0  0  0  0  0  0  0  0
   41.1040   23.4760   34.9360 C   0  0  0  0  0  0  0  0  0  0  0  0
   41.0350   22.8290   34.0610 H   0  0  0  0  0  0  0  0  0  0  0  0
   42.2550   23.9530   35.1070 O   0  0  0  0  0  0  0  0  0  0  0  0
   38.6230   22.5860   38.9920 O   0  0  0  0  0  0  0  0  0  0  0  0
   39.0100   22.8730   39.9010 H   0  0  0  0  0  0  0  0  0  0  0  0
  1 12  1  0  0  0  0
  2  1  1  0  0  0  0
  2  7  1  0  0  0  0
  3  2  2  0  0  0  0
  4  5  2  0  0  0  0
  4  3  1  0  0  0  0
  5  6  1  0  0  0  0
  6  1  2  0  0  0  0
  8  3  1  0  0  0  0
  9 11  2  0  0  0  0
  9  5  1  0  0  0  0
 10  9  1  0  0  0  0
 12 13  1  0  0  0  0
M  END
>  <minimizedAffinity>
-3.12808013

$$$$

 OpenBabel03272506353D

 13 13  0  0  0  0  0  0  0  0999 V2000
   35.7550   21.1640   36.2640 C   0  0  0  0  0  0  0  0  0  0  0  0
   35.5930   20.7160   34.9400 C   0  0  0  0  0  0  0  0  0  0  0  0
   36.5480   21.1100   34.0060 C   0  0  0  0  0  0  0  0  0  0  0  0
   37.5790   21.9000   34.4100 N   0  0  0  0  0  0  0  0  0  0  0  0
   37.6990   22.3120   35.7040 C   0  0  0  0  0  0  0  0  0  0  0  0
   36.7930   21.9420   36.6040 N   0  0  0  0  0  0  0  0  0  0  0  0
   34.7820   20.0870   34.5900 H   0  0  0  0  0  0  0  0  0  0  0  0
   36.4950   20.8080   32.9660 H   0  0  0  0  0  0  0  0  0  0  0  0
   38.7970   23.1580   36.1530 C   0  0  0  0  0  0  0  0  0  0  0  0
   39.1090   23.2580   37.1930 H   0  0  0  0  0  0  0  0  0  0  0  0
   39.4870   23.8540   35.3630 O   0  0  0  0  0  0  0  0  0  0  0  0
   34.7380   20.6980   37.0840 O   0  0  0  0  0  0  0  0  0  0  0  0
   33.8580   21.2070   37.2450 H   0  0  0  0  0  0  0  0  0  0  0  0
  1  6  1  0  0  0  0
  1 12  1  0  0  0  0
  2  1  2  0  0  0  0
  3  4  2  0  0  0  0
  3  2  1  0  0  0  0
  4  5  1  0  0  0  0
  5  9  1  0  0  0  0
  5  6  2  0  0  0  0
  7  2  1  0  0  0  0
  8  3  1  0  0  0  0
  9 10  1  0  0  0  0
 11  9  2  0  0  0  0
 12 13  1  0  0  0  0
M  END
>  <minimizedAffinity>
-3.10354924

$$$$

 OpenBabel03272506353D

 13 13  0  0  0  0  0  0  0  0999 V2000
   35.9260   20.9440   35.6570 C   0  0  0  0  0  0  0  0  0  0  0  0
   37.0980   21.7170   35.7590 C   0  0  0  0  0  0  0  0  0  0  0  0
   37.7360   22.0790   34.5760 C   0  0  0  0  0  0  0  0  0  0  0  0
   37.2060   21.6730   33.3900 N   0  0  0  0  0  0  0  0  0  0  0  0
   36.0680   20.9250   33.3350 C   0  0  0  0  0  0  0  0  0  0  0  0
   35.4500   20.5740   34.4590 N   0  0  0  0  0  0  0  0  0  0  0  0
   37.5420   22.0540   36.6890 H   0  0  0  0  0  0  0  0  0  0  0  0
   38.6430   22.6720   34.5680 H   0  0  0  0  0  0  0  0  0  0  0  0
   35.4870   20.4820   32.0740 C   0  0  0  0  0  0  0  0  0  0  0  0
   35.8350   20.8040   31.0920 H   0  0  0  0  0  0  0  0  0  0  0  0
   34.5200   19.6790   32.0150 O   0  0  0  0  0  0  0  0  0  0  0  0
   35.3970   20.6590   36.9070 O   0  0  0  0  0  0  0  0  0  0  0  0
   35.6450   19.8230   37.4530 H   0  0  0  0  0  0  0  0  0  0  0  0
  1  2  1  0  0  0  0
  1 12  1  0  0  0  0
  2  7  1  0  0  0  0
  3  2  2  0  0  0  0
  4  3  1  0  0  0  0
  5  4  2  0  0  0  0
  5  6  1  0  0  0  0
  6  1  2  0  0  0  0
  8  3  1  0  0  0  0
  9  5  1  0  0  0  0
 10  9  1  0  0  0  0
 11  9  2  0  0  0  0
 12 13  1  0  0  0  0
M  END
>  <minimizedAffinity>
-3.06333828

$$$$

 OpenBabel03272506353D

 13 13  0  0  0  0  0  0  0  0999 V2000
   38.5370   23.9990   35.8710 C   0  0  0  0  0  0  0  0  0  0  0  0
   37.7190   24.4560   36.9210 C   0  0  0  0  0  0  0  0  0  0  0  0
   38.0250   24.0290   38.2100 C   0  0  0  0  0  0  0  0  0  0  0  0
   39.0870   23.1980   38.3940 N   0  0  0  0  0  0  0  0  0  0  0  0
   39.8550   22.7770   37.3490 C   0  0  0  0  0  0  0  0  0  0  0  0
   39.5720   23.1800   36.1140 N   0  0  0  0  0  0  0  0  0  0  0  0
   36.8680   25.1180   36.8030 H   0  0  0  0  0  0  0  0  0  0  0  0
   37.4440   24.3350   39.0720 H   0  0  0  0  0  0  0  0  0  0  0  0
   40.9950   21.8880   37.5290 C   0  0  0  0  0  0  0  0  0  0  0  0
   41.4420   21.6510   38.4950 H   0  0  0  0  0  0  0  0  0  0  0  0
   41.5660   21.3110   36.5680 O   0  0  0  0  0  0  0  0  0  0  0  0
   38.1200   24.5020   34.6480 O   0  0  0  0  0  0  0  0  0  0  0  0
   37.4410   24.0270   34.0390 H   0  0  0  0  0  0  0  0  0  0  0  0
  1  6  2  0  0  0  0
  1  2  1  0  0  0  0
  2  3  2  0  0  0  0
  3  4  1  0  0  0  0
  3  8  1  0  0  0  0
  5  9  1  0  0  0  0
  5  4  2  0  0  0  0
  6  5  1  0  0  0  0
  7  2  1  0  0  0  0
  9 10  1  0  0  0  0
 11  9  2  0  0  0  0
 12  1  1  0  0  0  0
 13 12  1  0  0  0  0
M  END
>  <minimizedAffinity>
-3.02276182

$$$$

 OpenBabel03272506353D

 13 13  0  0  0  0  0  0  0  0999 V2000
   34.5930   31.6910   36.6530 C   0  0  0  0  0  0  0  0  0  0  0  0
   35.7610   31.4250   35.9150 C   0  0  0  0  0  0  0  0  0  0  0  0
   35.6480   30.5900   34.8070 C   0  0  0  0  0  0  0  0  0  0  0  0
   34.4280   30.0750   34.4930 N   0  0  0  0  0  0  0  0  0  0  0  0
   33.3200   30.3580   35.2340 C   0  0  0  0  0  0  0  0  0  0  0  0
   33.4170   31.1550   36.2940 N   0  0  0  0  0  0  0  0  0  0  0  0
   36.7450   31.8210   36.1430 H   0  0  0  0  0  0  0  0  0  0  0  0
   36.4990   30.3350   34.1880 H   0  0  0  0  0  0  0  0  0  0  0  0
   32.0060   29.8150   34.9100 C   0  0  0  0  0  0  0  0  0  0  0  0
   31.0760   30.1450   35.3720 H   0  0  0  0  0  0  0  0  0  0  0  0
   31.8380   28.9070   34.0560 O   0  0  0  0  0  0  0  0  0  0  0  0
   34.8510   32.5340   37.7240 O   0  0  0  0  0  0  0  0  0  0  0  0
   35.1100   32.2000   38.6620 H   0  0  0  0  0  0  0  0  0  0  0  0
  1 12  1  0  0  0  0
  2  7  1  0  0  0  0
  2  1  2  0  0  0  0
  3  2  1  0  0  0  0
  4  3  2  0  0  0  0
  4  5  1  0  0  0  0
  5  6  2  0  0  0  0
  6  1  1  0  0  0  0
  8  3  1  0  0  0  0
  9  5  1  0  0  0  0
  9 10  1  0  0  0  0
 11  9  2  0  0  0  0
 12 13  1  0  0  0  0
M  END
>  <minimizedAffinity>
-2.92964435

$$$$
