
 OpenBabel03272510223D

 25 27  0  0  0  0  0  0  0  0999 V2000
   36.4660   30.3400   46.9940 C   0  0  0  0  0  0  0  0  0  0  0  0
   37.2140   30.8130   48.0510 C   0  0  0  0  0  0  0  0  0  0  0  0
   38.2360   31.7030   47.8300 C   0  0  0  0  0  0  0  0  0  0  0  0
   38.4810   32.1020   46.5230 C   0  0  0  0  0  0  0  0  0  0  0  0
   39.4340   32.9680   46.0710 N   0  0  0  0  0  0  0  0  0  0  0  0
   39.2820   33.0360   44.7370 C   0  0  0  0  0  0  0  0  0  0  0  0
   38.2770   32.2520   44.3330 N   0  0  0  0  0  0  0  0  0  0  0  0
   37.7540   31.6530   45.4220 C   0  0  0  0  0  0  0  0  0  0  0  0
   36.7260   30.7520   45.6810 C   0  0  0  0  0  0  0  0  0  0  0  0
   35.6430   29.6390   47.0700 H   0  0  0  0  0  0  0  0  0  0  0  0
   38.8270   32.0780   48.6470 H   0  0  0  0  0  0  0  0  0  0  0  0
   40.1400   33.4750   46.6520 H   0  0  0  0  0  0  0  0  0  0  0  0
   36.1500   30.3920   44.8460 H   0  0  0  0  0  0  0  0  0  0  0  0
   37.2530   29.9480   51.7130 C   0  0  0  0  0  0  0  0  0  0  0  0
   37.6800   30.4500   50.4850 C   0  0  0  0  0  0  0  0  0  0  0  0
   36.8680   30.3260   49.3770 C   0  0  0  0  0  0  0  0  0  0  0  0
   35.6630   29.7120   49.5300 N   0  0  0  0  0  0  0  0  0  0  0  0
   35.2540   29.2240   50.7340 C   0  0  0  0  0  0  0  0  0  0  0  0
   36.0440   29.3430   51.8130 N   0  0  0  0  0  0  0  0  0  0  0  0
   37.8920   30.0480   52.5690 H   0  0  0  0  0  0  0  0  0  0  0  0
   38.6250   30.9280   50.3830 H   0  0  0  0  0  0  0  0  0  0  0  0
   34.2950   28.7380   50.8400 H   0  0  0  0  0  0  0  0  0  0  0  0
   40.0640   33.8300   43.7980 C   0  0  0  0  0  0  0  0  0  0  0  0
   40.4800   33.4700   42.8740 H   0  0  0  0  0  0  0  0  0  0  0  0
   40.3460   35.0570   43.9630 O   0  0  0  0  0  0  0  0  0  0  0  0
  1 10  1  0  0  0  0
  1  2  1  0  0  0  0
  2 16  1  0  0  0  0
  3  2  2  0  0  0  0
  3 11  1  0  0  0  0
  4  3  1  0  0  0  0
  5  4  1  0  0  0  0
  5 12  1  0  0  0  0
  6  5  1  0  0  0  0
  7  6  2  0  0  0  0
  7  8  1  0  0  0  0
  8  9  1  0  0  0  0
  8  4  2  0  0  0  0
  9  1  2  0  0  0  0
 13  9  1  0  0  0  0
 14 19  1  0  0  0  0
 14 20  1  0  0  0  0
 15 14  2  0  0  0  0
 16 17  2  0  0  0  0
 16 15  1  0  0  0  0
 17 18  1  0  0  0  0
 18 22  1  0  0  0  0
 18 19  2  0  0  0  0
 21 15  1  0  0  0  0
 23 25  2  0  0  0  0
 23  6  1  0  0  0  0
 24 23  1  0  0  0  0
M  END
>  <minimizedAffinity>
-4.94899464

>  <minimizedRMSD>
0.805544794

$$$$
