
 OpenBabel03272501383D

 39 42  0  0  1  0  0  0  0  0999 V2000
   39.0340   32.1250   47.4500 C   0  0  1  0  0  0  0  0  0  0  0  0
   40.0160   31.7920   47.9810 H   0  0  0  0  0  0  0  0  0  0  0  0
   37.6950   30.8680   50.6540 C   0  0  0  0  0  0  0  0  0  0  0  0
   38.4330   31.5140   49.6900 C   0  0  0  0  0  0  0  0  0  0  0  0
   38.0990   31.4770   48.3310 C   0  0  0  0  0  0  0  0  0  0  0  0
   37.0330   30.7950   47.9990 N   0  0  0  0  0  0  0  0  0  0  0  0
   36.3030   30.1540   48.9660 C   0  0  0  0  0  0  0  0  0  0  0  0
   36.6230   30.1870   50.2560 N   0  0  0  0  0  0  0  0  0  0  0  0
   37.9490   30.8920   51.7050 H   0  0  0  0  0  0  0  0  0  0  0  0
   39.3050   32.0610   50.0610 H   0  0  0  0  0  0  0  0  0  0  0  0
   35.1070   29.3910   48.6150 C   0  0  0  0  0  0  0  0  0  0  0  0
   34.5600   28.2560   49.1810 C   0  0  0  0  0  0  0  0  0  0  0  0
   33.4250   27.7430   48.6690 C   0  0  0  0  0  0  0  0  0  0  0  0
   32.8710   28.4100   47.5780 C   0  0  0  0  0  0  0  0  0  0  0  0
   34.0210   29.8150   47.2830 S   0  0  0  0  0  0  0  0  0  0  0  0
   35.0930   27.8370   50.0250 H   0  0  0  0  0  0  0  0  0  0  0  0
   32.9230   26.8630   49.0400 H   0  0  0  0  0  0  0  0  0  0  0  0
   31.7050   28.1830   46.7760 C   0  0  0  0  0  0  0  0  0  0  0  0
   31.9480   27.8230   45.7900 H   0  0  0  0  0  0  0  0  0  0  0  0
   30.5710   28.4120   47.2640 O   0  0  0  0  0  0  0  0  0  0  0  0
   39.1270   31.5710   46.0430 C   0  0  2  0  0  0  0  0  0  0  0  0
   40.5980   31.2290   45.8060 C   0  0  0  0  0  0  0  0  0  0  0  0
   39.8740   32.2740   45.0310 C   0  0  1  0  0  0  0  0  0  0  0  0
   38.3840   30.7930   45.8020 H   0  0  0  0  0  0  0  0  0  0  0  0
   41.4180   31.5960   46.4150 H   0  0  0  0  0  0  0  0  0  0  0  0
   40.7630   30.2360   45.3490 H   0  0  0  0  0  0  0  0  0  0  0  0
   40.0060   33.3570   45.2390 H   0  0  0  0  0  0  0  0  0  0  0  0
   39.8220   32.0070   43.5890 C   0  0  0  0  0  0  0  0  0  0  0  0
   39.1300   32.8890   42.8010 C   0  0  0  0  0  0  0  0  0  0  0  0
   39.1190   32.6330   41.4540 C   0  0  0  0  0  0  0  0  0  0  0  0
   39.7550   31.5590   40.8810 C   0  0  0  0  0  0  0  0  0  0  0  0
   40.4500   30.6820   41.7090 C   0  0  0  0  0  0  0  0  0  0  0  0
   40.4670   30.9240   43.0320 N   0  0  0  0  0  0  0  0  0  0  0  0
   38.6230   33.7380   43.2270 H   0  0  0  0  0  0  0  0  0  0  0  0
   38.5780   33.3130   40.7890 H   0  0  0  0  0  0  0  0  0  0  0  0
   39.7400   31.3700   39.8320 H   0  0  0  0  0  0  0  0  0  0  0  0
   40.9680   29.8250   41.3260 H   0  0  0  0  0  0  0  0  0  0  0  0
   39.2900   33.4000   47.5320 O   0  0  0  0  0  0  0  0  0  0  0  0
   38.8720   34.0140   46.9010 H   0  0  0  0  0  0  0  0  0  0  0  0
  1 38  1  0  0  0  0
  1  2  1  1  0  0  0
  1  5  1  0  0  0  0
  3  9  1  0  0  0  0
  4 10  1  0  0  0  0
  4  3  2  0  0  0  0
  5  4  1  0  0  0  0
  6  5  2  0  0  0  0
  6  7  1  0  0  0  0
  7  8  2  0  0  0  0
  8  3  1  0  0  0  0
 11  7  1  0  0  0  0
 11 12  2  0  0  0  0
 12 16  1  0  0  0  0
 13 17  1  0  0  0  0
 13 12  1  0  0  0  0
 14 13  2  0  0  0  0
 15 14  1  0  0  0  0
 15 11  1  0  0  0  0
 18 20  2  0  0  0  0
 18 14  1  0  0  0  0
 19 18  1  0  0  0  0
 21 24  1  6  0  0  0
 21  1  1  0  0  0  0
 22 21  1  0  0  0  0
 22 25  1  0  0  0  0
 23 27  1  1  0  0  0
 23 22  1  0  0  0  0
 23 21  1  0  0  0  0
 26 22  1  0  0  0  0
 28 23  1  0  0  0  0
 29 34  1  0  0  0  0
 29 28  2  0  0  0  0
 30 29  1  0  0  0  0
 31 30  2  0  0  0  0
 31 32  1  0  0  0  0
 32 33  2  0  0  0  0
 33 28  1  0  0  0  0
 35 30  1  0  0  0  0
 36 31  1  0  0  0  0
 37 32  1  0  0  0  0
 39 38  1  0  0  0  0
M  END
>  <minimizedAffinity>
-6.34237623

>  <minimizedRMSD>
0.477141619

$$$$
