
 OpenBabel03272507113D

 21 22  0  0  0  0  0  0  0  0999 V2000
   38.3440   26.3740   35.4700 C   0  0  0  0  0  0  0  0  0  0  0  0
   38.7570   27.3970   36.0430 O   0  0  0  0  0  0  0  0  0  0  0  0
   37.6060   26.3880   34.2190 C   0  0  0  0  0  0  0  0  0  0  0  0
   37.0510   27.6100   33.8360 C   0  0  0  0  0  0  0  0  0  0  0  0
   36.3370   27.6620   32.6430 C   0  0  0  0  0  0  0  0  0  0  0  0
   36.2200   26.5120   31.9090 N   0  0  0  0  0  0  0  0  0  0  0  0
   36.7690   25.3510   32.3080 C   0  0  0  0  0  0  0  0  0  0  0  0
   37.4570   25.2920   33.4540 N   0  0  0  0  0  0  0  0  0  0  0  0
   37.1720   28.4950   34.4550 H   0  0  0  0  0  0  0  0  0  0  0  0
   35.9080   28.6100   32.3520 H   0  0  0  0  0  0  0  0  0  0  0  0
   36.6540   24.4560   31.6950 H   0  0  0  0  0  0  0  0  0  0  0  0
   38.6040   25.0800   36.0680 C   0  0  0  0  0  0  0  0  0  0  0  0
   37.7790   24.5340   37.0080 C   0  0  0  0  0  0  0  0  0  0  0  0
   38.3000   23.2960   37.3810 C   0  0  0  0  0  0  0  0  0  0  0  0
   39.4610   23.1640   36.6050 C   0  0  0  0  0  0  0  0  0  0  0  0
   39.5720   24.2330   35.8710 O   0  0  0  0  0  0  0  0  0  0  0  0
   36.8580   24.8890   37.4720 H   0  0  0  0  0  0  0  0  0  0  0  0
   37.9370   22.5810   38.0840 H   0  0  0  0  0  0  0  0  0  0  0  0
   40.3840   22.0090   36.6290 C   0  0  0  0  0  0  0  0  0  0  0  0
   40.5260   21.4440   35.7180 H   0  0  0  0  0  0  0  0  0  0  0  0
   40.9730   21.7310   37.7210 O   0  0  0  0  0  0  0  0  0  0  0  0
  1  2  2  0  0  0  0
  1 12  1  0  0  0  0
  3  1  1  0  0  0  0
  4  3  1  0  0  0  0
  4  9  1  0  0  0  0
  5  4  2  0  0  0  0
  6  7  2  0  0  0  0
  6  5  1  0  0  0  0
  7  8  1  0  0  0  0
  8  3  2  0  0  0  0
 10  5  1  0  0  0  0
 11  7  1  0  0  0  0
 12 13  2  0  0  0  0
 13 14  1  0  0  0  0
 13 17  1  0  0  0  0
 14 18  1  0  0  0  0
 15 19  1  0  0  0  0
 15 14  2  0  0  0  0
 16 12  1  0  0  0  0
 16 15  1  0  0  0  0
 19 21  2  0  0  0  0
 20 19  1  0  0  0  0
M  END
>  <minimizedAffinity>
-4.17887926

$$$$

 OpenBabel03272507113D

 21 22  0  0  0  0  0  0  0  0999 V2000
   38.1870   24.2540   36.7690 C   0  0  0  0  0  0  0  0  0  0  0  0
   37.3410   23.9590   37.6300 O   0  0  0  0  0  0  0  0  0  0  0  0
   39.3760   23.4650   36.4960 C   0  0  0  0  0  0  0  0  0  0  0  0
   39.9100   22.7520   37.5700 C   0  0  0  0  0  0  0  0  0  0  0  0
   41.0500   21.9840   37.3480 C   0  0  0  0  0  0  0  0  0  0  0  0
   41.5820   21.9700   36.0870 N   0  0  0  0  0  0  0  0  0  0  0  0
   41.0410   22.6690   35.0740 C   0  0  0  0  0  0  0  0  0  0  0  0
   39.9450   23.4100   35.2800 N   0  0  0  0  0  0  0  0  0  0  0  0
   39.4490   22.7970   38.5540 H   0  0  0  0  0  0  0  0  0  0  0  0
   41.4600   21.4350   38.1830 H   0  0  0  0  0  0  0  0  0  0  0  0
   41.4950   22.6320   34.0840 H   0  0  0  0  0  0  0  0  0  0  0  0
   37.9950   25.4520   35.9770 C   0  0  0  0  0  0  0  0  0  0  0  0
   38.4410   26.6740   36.3870 C   0  0  0  0  0  0  0  0  0  0  0  0
   38.1030   27.6120   35.4120 C   0  0  0  0  0  0  0  0  0  0  0  0
   37.4440   26.8630   34.4270 C   0  0  0  0  0  0  0  0  0  0  0  0
   37.4200   25.6220   34.8220 O   0  0  0  0  0  0  0  0  0  0  0  0
   38.9730   27.0000   37.2820 H   0  0  0  0  0  0  0  0  0  0  0  0
   38.2830   28.6630   35.3790 H   0  0  0  0  0  0  0  0  0  0  0  0
   36.8830   27.4010   33.1690 C   0  0  0  0  0  0  0  0  0  0  0  0
   36.8840   28.4720   33.0210 H   0  0  0  0  0  0  0  0  0  0  0  0
   36.4230   26.5790   32.3150 O   0  0  0  0  0  0  0  0  0  0  0  0
  1  2  2  0  0  0  0
  3  1  1  0  0  0  0
  3  4  1  0  0  0  0
  4  9  1  0  0  0  0
  5  4  2  0  0  0  0
  5 10  1  0  0  0  0
  6  5  1  0  0  0  0
  7  8  1  0  0  0  0
  7  6  2  0  0  0  0
  8  3  2  0  0  0  0
 11  7  1  0  0  0  0
 12 13  2  0  0  0  0
 12  1  1  0  0  0  0
 13 17  1  0  0  0  0
 14 13  1  0  0  0  0
 15 16  1  0  0  0  0
 15 14  2  0  0  0  0
 16 12  1  0  0  0  0
 18 14  1  0  0  0  0
 19 15  1  0  0  0  0
 20 19  1  0  0  0  0
 21 19  2  0  0  0  0
M  END
>  <minimizedAffinity>
-4.11531925

$$$$

 OpenBabel03272507113D

 21 22  0  0  0  0  0  0  0  0999 V2000
   38.2710   26.4480   35.2800 C   0  0  0  0  0  0  0  0  0  0  0  0
   38.5300   27.5330   35.8280 O   0  0  0  0  0  0  0  0  0  0  0  0
   38.6650   25.1560   35.8130 C   0  0  0  0  0  0  0  0  0  0  0  0
   37.8200   24.5920   36.7700 C   0  0  0  0  0  0  0  0  0  0  0  0
   38.1650   23.3540   37.3030 C   0  0  0  0  0  0  0  0  0  0  0  0
   39.3150   22.7570   36.8590 N   0  0  0  0  0  0  0  0  0  0  0  0
   40.1060   23.3290   35.9360 C   0  0  0  0  0  0  0  0  0  0  0  0
   39.7820   24.5200   35.4180 N   0  0  0  0  0  0  0  0  0  0  0  0
   36.9180   25.1070   37.0890 H   0  0  0  0  0  0  0  0  0  0  0  0
   37.5080   22.9220   38.0440 H   0  0  0  0  0  0  0  0  0  0  0  0
   41.0140   22.8220   35.6080 H   0  0  0  0  0  0  0  0  0  0  0  0
   37.5320   26.4500   34.0340 C   0  0  0  0  0  0  0  0  0  0  0  0
   37.0740   27.6000   33.4610 C   0  0  0  0  0  0  0  0  0  0  0  0
   36.4080   27.2660   32.2820 C   0  0  0  0  0  0  0  0  0  0  0  0
   36.5110   25.8690   32.2130 C   0  0  0  0  0  0  0  0  0  0  0  0
   37.1740   25.4680   33.2590 O   0  0  0  0  0  0  0  0  0  0  0  0
   37.1430   28.6470   33.7580 H   0  0  0  0  0  0  0  0  0  0  0  0
   35.9210   27.8900   31.5680 H   0  0  0  0  0  0  0  0  0  0  0  0
   35.9600   25.0190   31.1360 C   0  0  0  0  0  0  0  0  0  0  0  0
   36.5360   24.1640   30.8090 H   0  0  0  0  0  0  0  0  0  0  0  0
   34.8310   25.3300   30.6410 O   0  0  0  0  0  0  0  0  0  0  0  0
  1  3  1  0  0  0  0
  1  2  2  0  0  0  0
  3  4  1  0  0  0  0
  4  9  1  0  0  0  0
  4  5  2  0  0  0  0
  5 10  1  0  0  0  0
  6  5  1  0  0  0  0
  7  6  2  0  0  0  0
  8  3  2  0  0  0  0
  8  7  1  0  0  0  0
 11  7  1  0  0  0  0
 12  1  1  0  0  0  0
 13 17  1  0  0  0  0
 13 12  2  0  0  0  0
 14 13  1  0  0  0  0
 15 14  2  0  0  0  0
 15 16  1  0  0  0  0
 16 12  1  0  0  0  0
 18 14  1  0  0  0  0
 19 15  1  0  0  0  0
 20 19  1  0  0  0  0
 21 19  2  0  0  0  0
M  END
>  <minimizedAffinity>
-4.10153294

$$$$

 OpenBabel03272507113D

 21 22  0  0  0  0  0  0  0  0999 V2000
   36.8880   27.3950   32.6930 C   0  0  0  0  0  0  0  0  0  0  0  0
   36.3300   28.4910   32.5140 O   0  0  0  0  0  0  0  0  0  0  0  0
   38.0910   27.2170   33.4870 C   0  0  0  0  0  0  0  0  0  0  0  0
   37.9270   27.2110   34.8730 C   0  0  0  0  0  0  0  0  0  0  0  0
   39.0570   27.0430   35.6680 C   0  0  0  0  0  0  0  0  0  0  0  0
   40.2670   26.8920   35.0460 N   0  0  0  0  0  0  0  0  0  0  0  0
   40.3890   26.9030   33.7070 C   0  0  0  0  0  0  0  0  0  0  0  0
   39.3070   27.0650   32.9360 N   0  0  0  0  0  0  0  0  0  0  0  0
   36.9430   27.3350   35.3190 H   0  0  0  0  0  0  0  0  0  0  0  0
   38.9250   27.0390   36.7400 H   0  0  0  0  0  0  0  0  0  0  0  0
   41.3710   26.7800   33.2490 H   0  0  0  0  0  0  0  0  0  0  0  0
   36.3210   26.2100   32.0810 C   0  0  0  0  0  0  0  0  0  0  0  0
   35.3240   26.2760   31.1520 C   0  0  0  0  0  0  0  0  0  0  0  0
   35.0010   24.9770   30.7630 C   0  0  0  0  0  0  0  0  0  0  0  0
   35.8650   24.1680   31.5160 C   0  0  0  0  0  0  0  0  0  0  0  0
   36.5980   24.9500   32.2550 O   0  0  0  0  0  0  0  0  0  0  0  0
   34.7890   27.1170   30.7080 H   0  0  0  0  0  0  0  0  0  0  0  0
   34.2780   24.6300   30.0620 H   0  0  0  0  0  0  0  0  0  0  0  0
   35.9200   22.6910   31.4680 C   0  0  0  0  0  0  0  0  0  0  0  0
   36.5930   22.2240   30.7620 H   0  0  0  0  0  0  0  0  0  0  0  0
   35.1740   22.0340   32.2610 O   0  0  0  0  0  0  0  0  0  0  0  0
  1  3  1  0  0  0  0
  2  1  2  0  0  0  0
  3  4  1  0  0  0  0
  4  9  1  0  0  0  0
  4  5  2  0  0  0  0
  5 10  1  0  0  0  0
  6  5  1  0  0  0  0
  7  6  2  0  0  0  0
  8  3  2  0  0  0  0
  8  7  1  0  0  0  0
 11  7  1  0  0  0  0
 12 16  1  0  0  0  0
 12  1  1  0  0  0  0
 13 12  2  0  0  0  0
 14 13  1  0  0  0  0
 14 15  2  0  0  0  0
 15 16  1  0  0  0  0
 17 13  1  0  0  0  0
 18 14  1  0  0  0  0
 19 15  1  0  0  0  0
 19 21  2  0  0  0  0
 20 19  1  0  0  0  0
M  END
>  <minimizedAffinity>
-4.01556826

$$$$

 OpenBabel03272507113D

 21 22  0  0  0  0  0  0  0  0999 V2000
   38.8740   26.4020   34.9220 C   0  0  0  0  0  0  0  0  0  0  0  0
   39.9590   26.9210   35.2340 O   0  0  0  0  0  0  0  0  0  0  0  0
   38.4610   25.0730   35.3370 C   0  0  0  0  0  0  0  0  0  0  0  0
   38.0800   24.9280   36.6720 C   0  0  0  0  0  0  0  0  0  0  0  0
   37.6780   23.6680   37.1070 C   0  0  0  0  0  0  0  0  0  0  0  0
   37.6770   22.6420   36.2010 N   0  0  0  0  0  0  0  0  0  0  0  0
   38.0490   22.8180   34.9220 C   0  0  0  0  0  0  0  0  0  0  0  0
   38.4380   24.0260   34.4950 N   0  0  0  0  0  0  0  0  0  0  0  0
   38.0990   25.7750   37.3530 H   0  0  0  0  0  0  0  0  0  0  0  0
   37.3860   23.5610   38.1420 H   0  0  0  0  0  0  0  0  0  0  0  0
   38.0340   21.9750   34.2300 H   0  0  0  0  0  0  0  0  0  0  0  0
   37.9500   27.1510   34.0940 C   0  0  0  0  0  0  0  0  0  0  0  0
   36.8790   27.8150   34.6160 C   0  0  0  0  0  0  0  0  0  0  0  0
   36.1930   28.4310   33.5700 C   0  0  0  0  0  0  0  0  0  0  0  0
   36.9270   28.0840   32.4270 C   0  0  0  0  0  0  0  0  0  0  0  0
   37.9290   27.3440   32.8070 O   0  0  0  0  0  0  0  0  0  0  0  0
   36.5110   27.9280   35.6370 H   0  0  0  0  0  0  0  0  0  0  0  0
   35.3140   29.0330   33.5850 H   0  0  0  0  0  0  0  0  0  0  0  0
   36.6080   28.4950   31.0420 C   0  0  0  0  0  0  0  0  0  0  0  0
   37.0660   27.9530   30.2260 H   0  0  0  0  0  0  0  0  0  0  0  0
   35.8080   29.4680   30.8720 O   0  0  0  0  0  0  0  0  0  0  0  0
  1  2  2  0  0  0  0
  1  3  1  0  0  0  0
  3  4  1  0  0  0  0
  4  5  2  0  0  0  0
  4  9  1  0  0  0  0
  5 10  1  0  0  0  0
  6  5  1  0  0  0  0
  7  6  2  0  0  0  0
  8  7  1  0  0  0  0
  8  3  2  0  0  0  0
 11  7  1  0  0  0  0
 12 13  2  0  0  0  0
 12  1  1  0  0  0  0
 13 17  1  0  0  0  0
 14 18  1  0  0  0  0
 14 13  1  0  0  0  0
 15 16  1  0  0  0  0
 15 14  2  0  0  0  0
 16 12  1  0  0  0  0
 19 15  1  0  0  0  0
 20 19  1  0  0  0  0
 21 19  2  0  0  0  0
M  END
>  <minimizedAffinity>
-3.93241811

$$$$

 OpenBabel03272507113D

 21 22  0  0  0  0  0  0  0  0999 V2000
   38.6450   23.5800   34.3120 C   0  0  0  0  0  0  0  0  0  0  0  0
   39.3700   24.3250   33.6300 O   0  0  0  0  0  0  0  0  0  0  0  0
   38.7100   23.4910   35.7600 C   0  0  0  0  0  0  0  0  0  0  0  0
   39.8280   22.8510   36.2960 C   0  0  0  0  0  0  0  0  0  0  0  0
   39.9250   22.7470   37.6810 C   0  0  0  0  0  0  0  0  0  0  0  0
   38.9170   23.2780   38.4400 N   0  0  0  0  0  0  0  0  0  0  0  0
   37.8530   23.8870   37.8900 C   0  0  0  0  0  0  0  0  0  0  0  0
   37.7520   23.9920   36.5600 N   0  0  0  0  0  0  0  0  0  0  0  0
   40.6020   22.4460   35.6490 H   0  0  0  0  0  0  0  0  0  0  0  0
   40.7920   22.2500   38.0910 H   0  0  0  0  0  0  0  0  0  0  0  0
   37.0710   24.2980   38.5300 H   0  0  0  0  0  0  0  0  0  0  0  0
   37.6710   22.7420   33.6420 C   0  0  0  0  0  0  0  0  0  0  0  0
   37.1130   23.0880   32.4470 C   0  0  0  0  0  0  0  0  0  0  0  0
   36.2220   22.0830   32.0720 C   0  0  0  0  0  0  0  0  0  0  0  0
   36.3020   21.1470   33.1140 C   0  0  0  0  0  0  0  0  0  0  0  0
   37.1600   21.5960   33.9850 O   0  0  0  0  0  0  0  0  0  0  0  0
   37.2450   23.9550   31.7980 H   0  0  0  0  0  0  0  0  0  0  0  0
   35.6050   22.0000   31.2070 H   0  0  0  0  0  0  0  0  0  0  0  0
   35.5430   19.8810   33.1930 C   0  0  0  0  0  0  0  0  0  0  0  0
   35.6740   19.2550   34.0640 H   0  0  0  0  0  0  0  0  0  0  0  0
   34.7660   19.5840   32.2300 O   0  0  0  0  0  0  0  0  0  0  0  0
  1  3  1  0  0  0  0
  2  1  2  0  0  0  0
  3  4  2  0  0  0  0
  3  8  1  0  0  0  0
  4  5  1  0  0  0  0
  5 10  1  0  0  0  0
  5  6  2  0  0  0  0
  7  6  1  0  0  0  0
  7 11  1  0  0  0  0
  8  7  2  0  0  0  0
  9  4  1  0  0  0  0
 12 16  1  0  0  0  0
 12  1  1  0  0  0  0
 13 12  2  0  0  0  0
 14 13  1  0  0  0  0
 14 15  2  0  0  0  0
 15 19  1  0  0  0  0
 15 16  1  0  0  0  0
 17 13  1  0  0  0  0
 18 14  1  0  0  0  0
 19 20  1  0  0  0  0
 21 19  2  0  0  0  0
M  END
>  <minimizedAffinity>
-3.92611456

$$$$

 OpenBabel03272507113D

 21 22  0  0  0  0  0  0  0  0999 V2000
   38.1880   23.7520   34.6230 C   0  0  0  0  0  0  0  0  0  0  0  0
   37.9250   22.8010   33.8670 O   0  0  0  0  0  0  0  0  0  0  0  0
   38.5130   23.6010   36.0310 C   0  0  0  0  0  0  0  0  0  0  0  0
   37.6550   24.2230   36.9390 C   0  0  0  0  0  0  0  0  0  0  0  0
   37.9350   24.1010   38.2970 C   0  0  0  0  0  0  0  0  0  0  0  0
   39.0360   23.3760   38.6670 N   0  0  0  0  0  0  0  0  0  0  0  0
   39.8410   22.7900   37.7650 C   0  0  0  0  0  0  0  0  0  0  0  0
   39.5800   22.9030   36.4570 N   0  0  0  0  0  0  0  0  0  0  0  0
   36.7930   24.7880   36.5940 H   0  0  0  0  0  0  0  0  0  0  0  0
   37.2680   24.5860   38.9960 H   0  0  0  0  0  0  0  0  0  0  0  0
   40.7090   22.2200   38.1000 H   0  0  0  0  0  0  0  0  0  0  0  0
   38.1760   25.0990   34.0900 C   0  0  0  0  0  0  0  0  0  0  0  0
   39.3190   25.8190   33.9070 C   0  0  0  0  0  0  0  0  0  0  0  0
   38.9720   27.0650   33.3840 C   0  0  0  0  0  0  0  0  0  0  0  0
   37.5750   27.0160   33.2780 C   0  0  0  0  0  0  0  0  0  0  0  0
   37.1850   25.8490   33.7040 O   0  0  0  0  0  0  0  0  0  0  0  0
   40.3690   25.5900   34.0910 H   0  0  0  0  0  0  0  0  0  0  0  0
   39.5880   27.8910   33.1120 H   0  0  0  0  0  0  0  0  0  0  0  0
   36.7120   28.1050   32.7710 C   0  0  0  0  0  0  0  0  0  0  0  0
   36.7380   28.3320   31.7140 H   0  0  0  0  0  0  0  0  0  0  0  0
   35.9770   28.7270   33.6010 O   0  0  0  0  0  0  0  0  0  0  0  0
  1  3  1  0  0  0  0
  2  1  2  0  0  0  0
  3  8  2  0  0  0  0
  3  4  1  0  0  0  0
  4  5  2  0  0  0  0
  5  6  1  0  0  0  0
  5 10  1  0  0  0  0
  7 11  1  0  0  0  0
  7  6  2  0  0  0  0
  8  7  1  0  0  0  0
  9  4  1  0  0  0  0
 12  1  1  0  0  0  0
 13 12  2  0  0  0  0
 13 17  1  0  0  0  0
 14 13  1  0  0  0  0
 15 14  2  0  0  0  0
 15 16  1  0  0  0  0
 16 12  1  0  0  0  0
 18 14  1  0  0  0  0
 19 15  1  0  0  0  0
 19 21  2  0  0  0  0
 20 19  1  0  0  0  0
M  END
>  <minimizedAffinity>
-3.90358067

$$$$

 OpenBabel03272507113D

 21 22  0  0  0  0  0  0  0  0999 V2000
   38.2670   23.9190   36.4210 C   0  0  0  0  0  0  0  0  0  0  0  0
   37.3270   23.3380   36.9910 O   0  0  0  0  0  0  0  0  0  0  0  0
   38.1070   25.1040   35.5960 C   0  0  0  0  0  0  0  0  0  0  0  0
   38.2750   26.3340   36.2330 C   0  0  0  0  0  0  0  0  0  0  0  0
   38.1300   27.4920   35.4750 C   0  0  0  0  0  0  0  0  0  0  0  0
   37.8320   27.3600   34.1450 N   0  0  0  0  0  0  0  0  0  0  0  0
   37.6770   26.1590   33.5630 C   0  0  0  0  0  0  0  0  0  0  0  0
   37.8150   25.0400   34.2850 N   0  0  0  0  0  0  0  0  0  0  0  0
   38.5120   26.3850   37.2930 H   0  0  0  0  0  0  0  0  0  0  0  0
   38.2600   28.4420   35.9730 H   0  0  0  0  0  0  0  0  0  0  0  0
   37.4400   26.0950   32.5010 H   0  0  0  0  0  0  0  0  0  0  0  0
   39.6100   23.3980   36.5750 C   0  0  0  0  0  0  0  0  0  0  0  0
   39.9180   22.4390   37.4940 C   0  0  0  0  0  0  0  0  0  0  0  0
   41.2800   22.1570   37.3930 C   0  0  0  0  0  0  0  0  0  0  0  0
   41.7310   23.0040   36.3700 C   0  0  0  0  0  0  0  0  0  0  0  0
   40.7110   23.6910   35.9440 O   0  0  0  0  0  0  0  0  0  0  0  0
   39.3150   21.9060   38.2300 H   0  0  0  0  0  0  0  0  0  0  0  0
   41.8820   21.4680   37.9410 H   0  0  0  0  0  0  0  0  0  0  0  0
   43.1220   23.0880   35.8740 C   0  0  0  0  0  0  0  0  0  0  0  0
   43.3400   22.7110   34.8840 H   0  0  0  0  0  0  0  0  0  0  0  0
   44.0020   23.6020   36.6350 O   0  0  0  0  0  0  0  0  0  0  0  0
  1 12  1  0  0  0  0
  1  2  2  0  0  0  0
  3  4  1  0  0  0  0
  3  1  1  0  0  0  0
  4  9  1  0  0  0  0
  5 10  1  0  0  0  0
  5  4  2  0  0  0  0
  6  5  1  0  0  0  0
  7  6  2  0  0  0  0
  7  8  1  0  0  0  0
  8  3  2  0  0  0  0
 11  7  1  0  0  0  0
 12 13  2  0  0  0  0
 13 17  1  0  0  0  0
 14 13  1  0  0  0  0
 14 18  1  0  0  0  0
 15 14  2  0  0  0  0
 16 15  1  0  0  0  0
 16 12  1  0  0  0  0
 19 15  1  0  0  0  0
 19 21  2  0  0  0  0
 20 19  1  0  0  0  0
M  END
>  <minimizedAffinity>
-3.86640143

$$$$

 OpenBabel03272507113D

 21 22  0  0  0  0  0  0  0  0999 V2000
   37.9110   26.8500   34.8380 C   0  0  0  0  0  0  0  0  0  0  0  0
   37.8580   27.8160   35.6170 O   0  0  0  0  0  0  0  0  0  0  0  0
   37.1570   26.7650   33.5990 C   0  0  0  0  0  0  0  0  0  0  0  0
   36.6210   27.9580   33.1120 C   0  0  0  0  0  0  0  0  0  0  0  0
   35.8920   27.9160   31.9280 C   0  0  0  0  0  0  0  0  0  0  0  0
   35.7420   26.7070   31.3050 N   0  0  0  0  0  0  0  0  0  0  0  0
   36.2710   25.5760   31.8020 C   0  0  0  0  0  0  0  0  0  0  0  0
   36.9740   25.6070   32.9410 N   0  0  0  0  0  0  0  0  0  0  0  0
   36.7700   28.8940   33.6450 H   0  0  0  0  0  0  0  0  0  0  0  0
   35.4790   28.8420   31.5560 H   0  0  0  0  0  0  0  0  0  0  0  0
   36.1290   24.6310   31.2760 H   0  0  0  0  0  0  0  0  0  0  0  0
   38.7700   25.7290   35.1650 C   0  0  0  0  0  0  0  0  0  0  0  0
   40.0530   25.6390   34.7100 C   0  0  0  0  0  0  0  0  0  0  0  0
   40.6070   24.4550   35.1950 C   0  0  0  0  0  0  0  0  0  0  0  0
   39.5760   23.8770   35.9490 C   0  0  0  0  0  0  0  0  0  0  0  0
   38.5450   24.6700   35.8860 O   0  0  0  0  0  0  0  0  0  0  0  0
   40.6560   26.2940   34.0800 H   0  0  0  0  0  0  0  0  0  0  0  0
   41.5800   24.0440   35.0540 H   0  0  0  0  0  0  0  0  0  0  0  0
   39.6600   22.5950   36.6810 C   0  0  0  0  0  0  0  0  0  0  0  0
   39.2470   21.7090   36.2170 H   0  0  0  0  0  0  0  0  0  0  0  0
   40.2170   22.5890   37.8240 O   0  0  0  0  0  0  0  0  0  0  0  0
  1 12  1  0  0  0  0
  1  2  2  0  0  0  0
  3  1  1  0  0  0  0
  4  3  1  0  0  0  0
  4  9  1  0  0  0  0
  5  4  2  0  0  0  0
  6  7  2  0  0  0  0
  6  5  1  0  0  0  0
  7  8  1  0  0  0  0
  8  3  2  0  0  0  0
 10  5  1  0  0  0  0
 11  7  1  0  0  0  0
 12 16  1  0  0  0  0
 13 12  2  0  0  0  0
 13 14  1  0  0  0  0
 14 15  2  0  0  0  0
 15 19  1  0  0  0  0
 16 15  1  0  0  0  0
 17 13  1  0  0  0  0
 18 14  1  0  0  0  0
 19 21  2  0  0  0  0
 20 19  1  0  0  0  0
M  END
>  <minimizedAffinity>
-3.86037803

$$$$
