
 OpenBabel03272509033D

 27 28  0  0  0  0  0  0  0  0999 V2000
   33.2700   27.3440   48.0500 C   0  0  0  0  0  0  0  0  0  0  0  0
   32.4880   27.9830   47.5930 H   0  0  0  0  0  0  0  0  0  0  0  0
   32.7990   26.8420   48.9270 H   0  0  0  0  0  0  0  0  0  0  0  0
   33.7010   26.3020   47.0690 C   0  0  0  0  0  0  0  0  0  0  0  0
   33.9500   24.9750   47.3390 C   0  0  0  0  0  0  0  0  0  0  0  0
   34.3420   24.1200   46.3290 C   0  0  0  0  0  0  0  0  0  0  0  0
   34.5010   24.5490   45.0200 C   0  0  0  0  0  0  0  0  0  0  0  0
   34.2540   25.8810   44.7370 C   0  0  0  0  0  0  0  0  0  0  0  0
   33.8630   26.7310   45.7450 C   0  0  0  0  0  0  0  0  0  0  0  0
   33.8130   24.6870   48.3720 H   0  0  0  0  0  0  0  0  0  0  0  0
   34.5240   23.1020   46.5840 H   0  0  0  0  0  0  0  0  0  0  0  0
   34.8060   23.8780   44.2440 H   0  0  0  0  0  0  0  0  0  0  0  0
   34.3620   26.2630   43.7330 H   0  0  0  0  0  0  0  0  0  0  0  0
   33.6760   27.7700   45.4900 H   0  0  0  0  0  0  0  0  0  0  0  0
   34.8290   28.3240   49.7240 C   0  0  0  0  0  0  0  0  0  0  0  0
   34.3830   28.1800   48.5250 C   0  0  0  0  0  0  0  0  0  0  0  0
   37.4480   30.2980   51.3450 C   0  0  0  0  0  0  0  0  0  0  0  0
   38.1210   30.8370   50.2280 C   0  0  0  0  0  0  0  0  0  0  0  0
   37.6490   30.5080   48.9410 C   0  0  0  0  0  0  0  0  0  0  0  0
   36.5570   29.6780   48.8460 N   0  0  0  0  0  0  0  0  0  0  0  0
   35.9610   29.1980   49.9570 C   0  0  0  0  0  0  0  0  0  0  0  0
   36.3920   29.4980   51.2010 N   0  0  0  0  0  0  0  0  0  0  0  0
   37.8130   30.5530   52.3310 H   0  0  0  0  0  0  0  0  0  0  0  0
   38.9760   31.4850   50.3580 H   0  0  0  0  0  0  0  0  0  0  0  0
   38.3070   31.0370   47.7520 C   0  0  0  0  0  0  0  0  0  0  0  0
   38.1450   30.5090   46.8240 H   0  0  0  0  0  0  0  0  0  0  0  0
   39.0170   32.0670   47.8730 O   0  0  0  0  0  0  0  0  0  0  0  0
  1 16  1  0  0  0  0
  1  3  1  0  0  0  0
  2  1  1  0  0  0  0
  4  5  1  0  0  0  0
  4  1  1  0  0  0  0
  5 10  1  0  0  0  0
  6 11  1  0  0  0  0
  6  5  2  0  0  0  0
  7  6  1  0  0  0  0
  8  7  2  0  0  0  0
  8  9  1  0  0  0  0
  9  4  2  0  0  0  0
 12  7  1  0  0  0  0
 13  8  1  0  0  0  0
 14  9  1  0  0  0  0
 15 21  1  0  0  0  0
 16 15  2  0  0  0  0
 17 23  1  0  0  0  0
 18 24  1  0  0  0  0
 18 17  2  0  0  0  0
 19 18  1  0  0  0  0
 20 19  2  0  0  0  0
 20 21  1  0  0  0  0
 21 22  2  0  0  0  0
 22 17  1  0  0  0  0
 25 27  2  0  0  0  0
 25 19  1  0  0  0  0
 26 25  1  0  0  0  0
M  END
>  <minimizedAffinity>
-4.98452473

>  <minimizedRMSD>
0.345701486

$$$$
