
 OpenBabel03272502303D

 23 24  0  0  1  0  0  0  0  0999 V2000
   39.5650   32.7710   46.5820 C   0  0  0  0  0  0  0  0  0  0  0  0
   39.6380   33.8760   46.6420 H   0  0  0  0  0  0  0  0  0  0  0  0
   40.5910   32.3390   46.4710 H   0  0  0  0  0  0  0  0  0  0  0  0
   38.3490   31.0190   47.8090 C   0  0  0  0  0  3  0  0  0  0  0  0
   38.8910   32.2090   47.7930 C   0  0  0  0  0  3  0  0  0  0  0  0
   37.4210   30.3130   51.3350 C   0  0  0  0  0  0  0  0  0  0  0  0
   38.1080   30.8720   50.2460 C   0  0  0  0  0  0  0  0  0  0  0  0
   37.7100   30.5020   48.9820 C   0  0  0  0  0  0  0  0  0  0  0  0
   36.6840   29.6220   48.8200 N   0  0  0  0  0  0  0  0  0  0  0  0
   36.0470   29.1060   49.8980 C   0  0  0  0  0  0  0  0  0  0  0  0
   36.4070   29.4430   51.1480 N   0  0  0  0  0  0  0  0  0  0  0  0
   37.7440   30.6120   52.3440 H   0  0  0  0  0  0  0  0  0  0  0  0
   38.9200   31.5680   50.4080 H   0  0  0  0  0  0  0  0  0  0  0  0
   35.2400   28.4140   49.6850 H   0  0  0  0  0  0  0  0  0  0  0  0
   38.5760   32.4070   45.1000 S   0  0  0  0  0  0  0  0  0  0  0  0
   39.6810   32.3900   43.6760 C   0  0  1  0  0  3  0  0  0  0  0  0
   40.0370   30.9660   43.2470 C   0  0  0  0  0  3  0  0  0  0  0  0
   39.1210   30.3470   43.3370 H   0  0  0  0  0  0  0  0  0  0  0  0
   40.2740   31.1750   41.7660 C   0  0  0  0  0  3  0  0  0  0  0  0
   41.2690   31.6570   41.6300 H   0  0  0  0  0  0  0  0  0  0  0  0
   39.2300   32.0190   41.4240 O   0  0  0  0  0  0  0  0  0  0  0  0
   39.0450   32.9300   42.4320 C   0  0  0  0  0  3  0  0  0  0  0  0
   37.9490   32.9900   42.6450 H   0  0  0  0  0  0  0  0  0  0  0  0
  1  2  1  0  0  0  0
  1  5  1  0  0  0  0
  3  1  1  0  0  0  0
  4  8  1  0  0  0  0
  5  4  2  0  0  0  0
  6 12  1  0  0  0  0
  7 13  1  0  0  0  0
  7  6  2  0  0  0  0
  8  7  1  0  0  0  0
  9  8  2  0  0  0  0
  9 10  1  0  0  0  0
 10 11  2  0  0  0  0
 11  6  1  0  0  0  0
 14 10  1  0  0  0  0
 15  1  1  0  0  0  0
 16 15  1  1  0  0  0
 17 18  1  0  0  0  0
 17 16  1  0  0  0  0
 19 17  1  0  0  0  0
 20 19  1  0  0  0  0
 21 19  1  0  0  0  0
 21 22  1  0  0  0  0
 22 23  1  0  0  0  0
 22 16  1  0  0  0  0
M  END
>  <minimizedAffinity>
-4.72745943

>  <minimizedRMSD>
0.54891026

$$$$
