
 OpenBabel03262520353D

 41 43  0  0  1  0  0  0  0  0999 V2000
   27.1850   28.2940   49.4980 C   0  0  0  0  0  0  0  0  0  0  0  0
   28.5420   27.9410   49.4860 C   0  0  0  0  0  0  0  0  0  0  0  0
   29.1230   27.2820   50.5510 C   0  0  0  0  0  0  0  0  0  0  0  0
   28.3500   26.9680   51.6400 C   0  0  0  0  0  0  0  0  0  0  0  0
   27.0380   27.3040   51.6580 C   0  0  0  0  0  0  0  0  0  0  0  0
   26.4110   27.9600   50.6270 C   0  0  0  0  0  0  0  0  0  0  0  0
   30.1710   27.0470   50.4630 H   0  0  0  0  0  0  0  0  0  0  0  0
   28.8870   26.4490   52.4310 H   0  0  0  0  0  0  0  0  0  0  0  0
   26.4930   27.0220   52.5540 H   0  0  0  0  0  0  0  0  0  0  0  0
   25.3560   28.2250   50.6570 H   0  0  0  0  0  0  0  0  0  0  0  0
   26.3810   29.1250   48.1860 S   0  0  0  0  0  0  0  0  0  0  0  0
   26.3750   28.2990   46.9550 O   0  0  0  0  0  0  0  0  0  0  0  0
   24.9540   29.4510   48.6400 O   0  0  0  0  0  0  0  0  0  0  0  0
   27.1390   30.6750   47.8430 C   0  0  1  0  0  0  0  0  0  0  0  0
   27.5920   30.6550   46.3980 C   0  0  0  0  0  0  0  0  0  0  0  0
   28.5750   31.0970   46.2330 H   0  0  0  0  0  0  0  0  0  0  0  0
   26.4520   31.3740   45.7170 C   0  0  0  0  0  0  0  0  0  0  0  0
   25.5920   30.6790   45.6230 H   0  0  0  0  0  0  0  0  0  0  0  0
   26.1240   32.3670   46.6040 O   0  0  0  0  0  0  0  0  0  0  0  0
   26.2020   31.8460   47.8960 C   0  0  0  0  0  0  0  0  0  0  0  0
   26.6920   32.6700   48.4960 H   0  0  0  0  0  0  0  0  0  0  0  0
   29.1690   28.3290   48.3260 O   0  0  0  0  0  0  0  0  0  0  0  0
   30.3940   26.1740   47.4220 O   0  0  0  0  0  0  0  0  0  0  0  0
   30.5720   27.6730   47.6590 P   0  0  1  0  0  0  0  0  0  0  0  0
   30.9860   28.4800   46.2220 O   0  0  0  0  0  0  0  0  0  0  0  0
   30.8590   29.4440   46.4160 H   0  0  0  0  0  0  0  0  0  0  0  0
   31.8840   27.7960   48.7380 O   0  0  0  0  0  0  0  0  0  0  0  0
   33.0420   27.3610   48.0650 C   0  0  0  0  0  0  0  0  0  0  0  0
   33.2150   26.3290   48.4890 H   0  0  0  0  0  0  0  0  0  0  0  0
   32.8960   27.3380   46.9880 H   0  0  0  0  0  0  0  0  0  0  0  0
   34.5810   28.3670   49.6950 C   0  0  0  0  0  0  0  0  0  0  0  0
   34.2400   28.1450   48.4590 C   0  0  0  0  0  0  0  0  0  0  0  0
   37.3060   30.1870   51.3430 C   0  0  0  0  0  0  0  0  0  0  0  0
   38.0580   30.6390   50.2520 C   0  0  0  0  0  0  0  0  0  0  0  0
   37.6120   30.3100   48.9620 C   0  0  0  0  0  0  0  0  0  0  0  0
   36.4710   29.5660   48.9030 N   0  0  0  0  0  0  0  0  0  0  0  0
   35.7810   29.1530   49.9480 C   0  0  0  0  0  0  0  0  0  0  0  0
   36.2180   29.4760   51.1590 N   0  0  0  0  0  0  0  0  0  0  0  0
   37.5840   30.4010   52.3710 H   0  0  0  0  0  0  0  0  0  0  0  0
   38.9490   31.2230   50.4370 H   0  0  0  0  0  0  0  0  0  0  0  0
   38.1670   30.6410   48.1190 H   0  0  0  0  0  0  0  0  0  0  0  0
  1  6  1  0  0  0  0
  2  1  2  0  0  0  0
  2  3  1  0  0  0  0
  3  4  2  0  0  0  0
  4  5  1  0  0  0  0
  4  8  1  0  0  0  0
  5  9  1  0  0  0  0
  6 10  1  0  0  0  0
  6  5  2  0  0  0  0
  7  3  1  0  0  0  0
 11 13  2  0  0  0  0
 11  1  1  0  0  0  0
 12 11  2  0  0  0  0
 14 20  1  0  0  0  0
 14 11  1  6  0  0  0
 15 14  1  0  0  0  0
 16 15  1  0  0  0  0
 17 15  1  0  0  0  0
 17 19  1  0  0  0  0
 18 17  1  0  0  0  0
 19 20  1  0  0  0  0
 20 21  1  0  0  0  0
 22  2  1  0  0  0  0
 24 23  2  6  0  0  0
 24 22  1  0  0  0  0
 24 27  1  0  0  0  0
 25 26  1  0  0  0  0
 25 24  1  0  0  0  0
 28 32  1  0  0  0  0
 28 29  1  0  0  0  0
 28 27  1  0  0  0  0
 30 28  1  0  0  0  0
 31 37  1  0  0  0  0
 32 31  2  0  0  0  0
 33 39  1  0  0  0  0
 34 40  1  0  0  0  0
 34 33  2  0  0  0  0
 35 34  1  0  0  0  0
 36 35  2  0  0  0  0
 36 37  1  0  0  0  0
 37 38  2  0  0  0  0
 38 33  1  0  0  0  0
 41 35  1  0  0  0  0
M  END
>  <minimizedAffinity>
-6.82562923

>  <minimizedRMSD>
2.02669954

$$$$
