
 OpenBabel03262523313D

 32 35  0  0  1  0  0  0  0  0999 V2000
   37.0280   28.3080   31.9190 C   0  0  0  0  0  0  0  0  0  0  0  0
   37.6300   27.2480   32.5970 C   0  0  0  0  0  0  0  0  0  0  0  0
   37.3660   27.0920   33.9650 C   0  0  0  0  0  0  0  0  0  0  0  0
   36.5270   27.9890   34.5800 N   0  0  0  0  0  0  0  0  0  0  0  0
   35.9700   28.9960   33.8830 C   0  0  0  0  0  0  0  0  0  0  0  0
   36.2170   29.1530   32.5730 N   0  0  0  0  0  0  0  0  0  0  0  0
   37.2070   28.4610   30.8660 H   0  0  0  0  0  0  0  0  0  0  0  0
   38.2770   26.5570   32.1160 H   0  0  0  0  0  0  0  0  0  0  0  0
   38.8760   25.2140   34.1590 C   0  0  0  0  0  0  0  0  0  0  0  0
   37.9310   26.0280   34.7730 C   0  0  0  0  0  0  0  0  0  0  0  0
   37.5770   25.8040   36.0860 C   0  0  0  0  0  0  0  0  0  0  0  0
   38.1800   24.7640   36.7600 C   0  0  0  0  0  0  0  0  0  0  0  0
   37.9980   24.3530   38.0420 N   0  0  0  0  0  0  0  0  0  0  0  0
   38.8060   23.3030   38.2400 C   0  0  0  0  0  0  0  0  0  0  0  0
   39.4960   23.0320   37.1280 N   0  0  0  0  0  0  0  0  0  0  0  0
   39.1270   23.9270   36.1850 C   0  0  0  0  0  0  0  0  0  0  0  0
   39.4800   24.1610   34.8560 C   0  0  0  0  0  0  0  0  0  0  0  0
   39.2070   25.3280   33.1270 H   0  0  0  0  0  0  0  0  0  0  0  0
   36.8560   26.4210   36.5630 H   0  0  0  0  0  0  0  0  0  0  0  0
   37.3380   24.7920   38.7360 H   0  0  0  0  0  0  0  0  0  0  0  0
   38.8790   22.7610   39.1740 H   0  0  0  0  0  0  0  0  0  0  0  0
   40.2140   23.5230   34.3890 H   0  0  0  0  0  0  0  0  0  0  0  0
   35.0890   29.9090   34.6010 C   0  0  0  0  0  0  0  0  0  0  0  0
   33.8470   29.7660   34.5990 O   0  0  0  0  0  0  0  0  0  0  0  0
   35.8110   30.9990   35.3170 C   0  0  1  0  0  3  0  0  0  0  0  0
   35.9710   32.2330   34.4350 C   0  0  0  0  0  3  0  0  0  0  0  0
   35.0130   32.5690   34.0000 H   0  0  0  0  0  0  0  0  0  0  0  0
   36.2550   33.2450   35.5530 C   0  0  0  0  0  3  0  0  0  0  0  0
   37.2920   33.0960   35.9100 H   0  0  0  0  0  0  0  0  0  0  0  0
   35.3890   32.9100   36.5810 O   0  0  0  0  0  0  0  0  0  0  0  0
   34.9920   31.6030   36.4220 C   0  0  0  0  0  3  0  0  0  0  0  0
   35.1000   30.9980   37.3290 H   0  0  0  0  0  0  0  0  0  0  0  0
  1  6  2  0  0  0  0
  1  2  1  0  0  0  0
  2  3  2  0  0  0  0
  3  4  1  0  0  0  0
  3 10  1  0  0  0  0
  5  4  2  0  0  0  0
  5 23  1  0  0  0  0
  6  5  1  0  0  0  0
  7  1  1  0  0  0  0
  8  2  1  0  0  0  0
  9 10  2  0  0  0  0
  9 17  1  0  0  0  0
 10 11  1  0  0  0  0
 11 19  1  0  0  0  0
 11 12  2  0  0  0  0
 12 13  1  0  0  0  0
 13 14  1  0  0  0  0
 13 20  1  0  0  0  0
 14 21  1  0  0  0  0
 15 14  2  0  0  0  0
 16 12  1  0  0  0  0
 16 15  1  0  0  0  0
 17 16  2  0  0  0  0
 18  9  1  0  0  0  0
 22 17  1  0  0  0  0
 24 23  2  0  0  0  0
 25 23  1  6  0  0  0
 25 31  1  0  0  0  0
 26 25  1  0  0  0  0
 26 28  1  0  0  0  0
 27 26  1  0  0  0  0
 28 29  1  0  0  0  0
 28 30  1  0  0  0  0
 31 30  1  0  0  0  0
 31 32  1  0  0  0  0
M  END
>  <minimizedAffinity>
-5.63849926

$$$$

 OpenBabel03262523313D

 32 35  0  0  1  0  0  0  0  0999 V2000
   37.0770   27.8620   32.0280 C   0  0  0  0  0  0  0  0  0  0  0  0
   36.2080   28.7850   32.6070 C   0  0  0  0  0  0  0  0  0  0  0  0
   36.1610   28.8770   34.0060 C   0  0  0  0  0  0  0  0  0  0  0  0
   36.9740   28.0530   34.7460 N   0  0  0  0  0  0  0  0  0  0  0  0
   37.7960   27.1770   34.1410 C   0  0  0  0  0  0  0  0  0  0  0  0
   37.8470   27.0830   32.8030 N   0  0  0  0  0  0  0  0  0  0  0  0
   37.1410   27.7620   30.9560 H   0  0  0  0  0  0  0  0  0  0  0  0
   35.5820   29.4200   32.0290 H   0  0  0  0  0  0  0  0  0  0  0  0
   33.9400   29.7210   34.4450 C   0  0  0  0  0  0  0  0  0  0  0  0
   35.3000   29.8000   34.7190 C   0  0  0  0  0  0  0  0  0  0  0  0
   35.7670   30.7220   35.6320 C   0  0  0  0  0  0  0  0  0  0  0  0
   34.8570   31.5490   36.2530 C   0  0  0  0  0  0  0  0  0  0  0  0
   35.0740   32.5220   37.1750 N   0  0  0  0  0  0  0  0  0  0  0  0
   33.8820   33.0510   37.4820 C   0  0  0  0  0  0  0  0  0  0  0  0
   32.9140   32.4470   36.7860 N   0  0  0  0  0  0  0  0  0  0  0  0
   33.4910   31.5040   36.0090 C   0  0  0  0  0  0  0  0  0  0  0  0
   33.0260   30.5690   35.0840 C   0  0  0  0  0  0  0  0  0  0  0  0
   33.4950   29.0210   33.7400 H   0  0  0  0  0  0  0  0  0  0  0  0
   36.8050   30.7890   35.8470 H   0  0  0  0  0  0  0  0  0  0  0  0
   36.0140   32.7970   37.5660 H   0  0  0  0  0  0  0  0  0  0  0  0
   33.7380   33.8530   38.1940 H   0  0  0  0  0  0  0  0  0  0  0  0
   31.9680   30.5160   34.8790 H   0  0  0  0  0  0  0  0  0  0  0  0
   38.6300   26.3350   34.9900 C   0  0  0  0  0  0  0  0  0  0  0  0
   39.7790   26.6820   35.3390 O   0  0  0  0  0  0  0  0  0  0  0  0
   37.9800   25.0530   35.3860 C   0  0  1  0  0  3  0  0  0  0  0  0
   38.7870   23.8500   34.9070 C   0  0  0  0  0  3  0  0  0  0  0  0
   39.8470   23.9040   35.2130 H   0  0  0  0  0  0  0  0  0  0  0  0
   38.1730   22.8070   35.8520 C   0  0  0  0  0  3  0  0  0  0  0  0
   37.1610   22.5510   35.4850 H   0  0  0  0  0  0  0  0  0  0  0  0
   38.0440   23.4480   37.0730 O   0  0  0  0  0  0  0  0  0  0  0  0
   38.0450   24.8080   36.8660 C   0  0  0  0  0  3  0  0  0  0  0  0
   37.2150   25.3270   37.3590 H   0  0  0  0  0  0  0  0  0  0  0  0
  1  2  2  0  0  0  0
  1  6  1  0  0  0  0
  2  3  1  0  0  0  0
  3 10  1  0  0  0  0
  3  4  2  0  0  0  0
  5  4  1  0  0  0  0
  5 23  1  0  0  0  0
  6  5  2  0  0  0  0
  7  1  1  0  0  0  0
  8  2  1  0  0  0  0
  9 10  2  0  0  0  0
  9 17  1  0  0  0  0
 10 11  1  0  0  0  0
 11 19  1  0  0  0  0
 11 12  2  0  0  0  0
 12 13  1  0  0  0  0
 13 14  1  0  0  0  0
 13 20  1  0  0  0  0
 14 21  1  0  0  0  0
 15 14  2  0  0  0  0
 16 12  1  0  0  0  0
 16 15  1  0  0  0  0
 17 16  2  0  0  0  0
 18  9  1  0  0  0  0
 22 17  1  0  0  0  0
 23 24  2  0  0  0  0
 25 23  1  1  0  0  0
 25 31  1  0  0  0  0
 26 27  1  0  0  0  0
 26 25  1  0  0  0  0
 26 28  1  0  0  0  0
 28 30  1  0  0  0  0
 29 28  1  0  0  0  0
 31 30  1  0  0  0  0
 31 32  1  0  0  0  0
M  END
>  <minimizedAffinity>
-5.52814865

$$$$

 OpenBabel03262523313D

 32 35  0  0  1  0  0  0  0  0999 V2000
   40.0010   25.7050   32.2970 C   0  0  0  0  0  0  0  0  0  0  0  0
   39.1350   26.7880   32.1530 C   0  0  0  0  0  0  0  0  0  0  0  0
   37.9770   26.8300   32.9420 C   0  0  0  0  0  0  0  0  0  0  0  0
   37.7440   25.8010   33.8240 N   0  0  0  0  0  0  0  0  0  0  0  0
   38.6100   24.7770   33.9260 C   0  0  0  0  0  0  0  0  0  0  0  0
   39.7210   24.7290   33.1750 N   0  0  0  0  0  0  0  0  0  0  0  0
   40.9020   25.6380   31.7070 H   0  0  0  0  0  0  0  0  0  0  0  0
   39.3210   27.5800   31.4700 H   0  0  0  0  0  0  0  0  0  0  0  0
   36.3910   28.2560   34.0780 C   0  0  0  0  0  0  0  0  0  0  0  0
   37.0050   27.9040   32.8820 C   0  0  0  0  0  0  0  0  0  0  0  0
   36.6800   28.5680   31.7180 C   0  0  0  0  0  0  0  0  0  0  0  0
   35.7420   29.5760   31.7780 C   0  0  0  0  0  0  0  0  0  0  0  0
   35.2650   30.3620   30.7790 N   0  0  0  0  0  0  0  0  0  0  0  0
   34.3680   31.1950   31.3250 C   0  0  0  0  0  0  0  0  0  0  0  0
   34.2590   30.9660   32.6370 N   0  0  0  0  0  0  0  0  0  0  0  0
   35.1050   29.9590   32.9510 C   0  0  0  0  0  0  0  0  0  0  0  0
   35.4390   29.2820   34.1240 C   0  0  0  0  0  0  0  0  0  0  0  0
   36.5950   27.7800   35.0370 H   0  0  0  0  0  0  0  0  0  0  0  0
   37.1440   28.3060   30.8000 H   0  0  0  0  0  0  0  0  0  0  0  0
   35.5570   30.3120   29.7680 H   0  0  0  0  0  0  0  0  0  0  0  0
   33.8180   31.9440   30.7690 H   0  0  0  0  0  0  0  0  0  0  0  0
   34.9560   29.5640   35.0470 H   0  0  0  0  0  0  0  0  0  0  0  0
   38.2990   23.7230   34.8830 C   0  0  0  0  0  0  0  0  0  0  0  0
   37.7270   22.6660   34.5370 O   0  0  0  0  0  0  0  0  0  0  0  0
   38.7240   24.0330   36.2780 C   0  0  1  0  0  3  0  0  0  0  0  0
   37.5800   23.8330   37.2660 C   0  0  0  0  0  3  0  0  0  0  0  0
   37.1110   22.8370   37.1740 H   0  0  0  0  0  0  0  0  0  0  0  0
   38.4290   23.7370   38.5410 C   0  0  0  0  0  3  0  0  0  0  0  0
   38.7760   24.7520   38.8120 H   0  0  0  0  0  0  0  0  0  0  0  0
   39.5340   22.9780   38.1910 O   0  0  0  0  0  0  0  0  0  0  0  0
   39.6890   23.0200   36.8250 C   0  0  0  0  0  3  0  0  0  0  0  0
   40.7060   23.2750   36.5060 H   0  0  0  0  0  0  0  0  0  0  0  0
  1  6  1  0  0  0  0
  2  1  2  0  0  0  0
  2  3  1  0  0  0  0
  3  4  2  0  0  0  0
  4  5  1  0  0  0  0
  5 23  1  0  0  0  0
  6  5  2  0  0  0  0
  7  1  1  0  0  0  0
  8  2  1  0  0  0  0
  9 17  1  0  0  0  0
  9 18  1  0  0  0  0
 10  3  1  0  0  0  0
 10  9  2  0  0  0  0
 11 12  2  0  0  0  0
 11 10  1  0  0  0  0
 12 16  1  0  0  0  0
 13 14  1  0  0  0  0
 13 12  1  0  0  0  0
 14 15  2  0  0  0  0
 15 16  1  0  0  0  0
 16 17  2  0  0  0  0
 17 22  1  0  0  0  0
 19 11  1  0  0  0  0
 20 13  1  0  0  0  0
 21 14  1  0  0  0  0
 24 23  2  0  0  0  0
 25 23  1  6  0  0  0
 25 31  1  0  0  0  0
 25 26  1  0  0  0  0
 26 28  1  0  0  0  0
 27 26  1  0  0  0  0
 28 29  1  0  0  0  0
 30 28  1  0  0  0  0
 31 30  1  0  0  0  0
 32 31  1  0  0  0  0
M  END
>  <minimizedAffinity>
-5.44599962

$$$$

 OpenBabel03262523313D

 32 35  0  0  1  0  0  0  0  0999 V2000
   37.4210   27.0730   35.2560 C   0  0  0  0  0  0  0  0  0  0  0  0
   38.3090   26.1620   35.8240 C   0  0  0  0  0  0  0  0  0  0  0  0
   39.1250   25.4020   34.9730 C   0  0  0  0  0  0  0  0  0  0  0  0
   39.0130   25.5870   33.6160 N   0  0  0  0  0  0  0  0  0  0  0  0
   38.1390   26.4800   33.1160 C   0  0  0  0  0  0  0  0  0  0  0  0
   37.3550   27.2110   33.9230 N   0  0  0  0  0  0  0  0  0  0  0  0
   36.7770   27.6760   35.8780 H   0  0  0  0  0  0  0  0  0  0  0  0
   38.3920   26.0230   36.8740 H   0  0  0  0  0  0  0  0  0  0  0  0
   41.3640   24.4950   34.9020 C   0  0  0  0  0  0  0  0  0  0  0  0
   40.0870   24.4260   35.4470 C   0  0  0  0  0  0  0  0  0  0  0  0
   39.7900   23.4640   36.3890 C   0  0  0  0  0  0  0  0  0  0  0  0
   40.7840   22.5870   36.7670 C   0  0  0  0  0  0  0  0  0  0  0  0
   40.7330   21.5690   37.6650 N   0  0  0  0  0  0  0  0  0  0  0  0
   41.9470   21.0030   37.6910 C   0  0  0  0  0  0  0  0  0  0  0  0
   42.7690   21.6260   36.8420 N   0  0  0  0  0  0  0  0  0  0  0  0
   42.0720   22.6210   36.2490 C   0  0  0  0  0  0  0  0  0  0  0  0
   42.3640   23.5970   35.2960 C   0  0  0  0  0  0  0  0  0  0  0  0
   41.6750   25.2250   34.1560 H   0  0  0  0  0  0  0  0  0  0  0  0
   38.8180   23.4040   36.8100 H   0  0  0  0  0  0  0  0  0  0  0  0
   39.8850   21.2910   38.2260 H   0  0  0  0  0  0  0  0  0  0  0  0
   42.2100   20.1610   38.3180 H   0  0  0  0  0  0  0  0  0  0  0  0
   43.3590   23.6410   34.8800 H   0  0  0  0  0  0  0  0  0  0  0  0
   38.0760   26.6230   31.6670 C   0  0  0  0  0  0  0  0  0  0  0  0
   38.8170   27.4190   31.0500 O   0  0  0  0  0  0  0  0  0  0  0  0
   37.0600   25.7440   31.0210 C   0  0  1  0  0  3  0  0  0  0  0  0
   36.7820   24.5040   31.8650 C   0  0  0  0  0  3  0  0  0  0  0  0
   36.5280   24.7520   32.9110 H   0  0  0  0  0  0  0  0  0  0  0  0
   35.4370   24.1250   31.2290 C   0  0  0  0  0  3  0  0  0  0  0  0
   35.6300   23.6750   30.2370 H   0  0  0  0  0  0  0  0  0  0  0  0
   34.7680   25.3240   31.0410 O   0  0  0  0  0  0  0  0  0  0  0  0
   35.6860   26.3490   31.0300 C   0  0  0  0  0  3  0  0  0  0  0  0
   35.5790   27.0240   30.1730 H   0  0  0  0  0  0  0  0  0  0  0  0
  1  2  1  0  0  0  0
  1  7  1  0  0  0  0
  2  8  1  0  0  0  0
  3 10  1  0  0  0  0
  3  2  2  0  0  0  0
  4  3  1  0  0  0  0
  5  4  2  0  0  0  0
  5  6  1  0  0  0  0
  6  1  2  0  0  0  0
  9 17  2  0  0  0  0
  9 10  1  0  0  0  0
 10 11  2  0  0  0  0
 11 12  1  0  0  0  0
 11 19  1  0  0  0  0
 12 13  1  0  0  0  0
 13 14  1  0  0  0  0
 13 20  1  0  0  0  0
 14 21  1  0  0  0  0
 15 14  2  0  0  0  0
 16 12  2  0  0  0  0
 16 15  1  0  0  0  0
 17 16  1  0  0  0  0
 18  9  1  0  0  0  0
 22 17  1  0  0  0  0
 23  5  1  0  0  0  0
 24 23  2  0  0  0  0
 25 31  1  0  0  0  0
 25 23  1  1  0  0  0
 25 26  1  0  0  0  0
 26 27  1  0  0  0  0
 28 26  1  0  0  0  0
 29 28  1  0  0  0  0
 30 28  1  0  0  0  0
 31 30  1  0  0  0  0
 32 31  1  0  0  0  0
M  END
>  <minimizedAffinity>
-5.35753536

$$$$

 OpenBabel03262523313D

 32 35  0  0  1  0  0  0  0  0999 V2000
   36.8690   28.5730   30.9610 C   0  0  0  0  0  0  0  0  0  0  0  0
   37.3900   27.5780   31.7880 C   0  0  0  0  0  0  0  0  0  0  0  0
   37.0720   27.6080   33.1540 C   0  0  0  0  0  0  0  0  0  0  0  0
   36.2630   28.6160   33.6190 N   0  0  0  0  0  0  0  0  0  0  0  0
   35.7850   29.5540   32.7810 C   0  0  0  0  0  0  0  0  0  0  0  0
   36.0840   29.5330   31.4730 N   0  0  0  0  0  0  0  0  0  0  0  0
   37.0910   28.5840   29.9050 H   0  0  0  0  0  0  0  0  0  0  0  0
   38.0150   26.8010   31.4220 H   0  0  0  0  0  0  0  0  0  0  0  0
   37.8340   27.0910   35.3880 C   0  0  0  0  0  0  0  0  0  0  0  0
   37.5520   26.6280   34.1090 C   0  0  0  0  0  0  0  0  0  0  0  0
   37.7320   25.2950   33.8020 C   0  0  0  0  0  0  0  0  0  0  0  0
   38.1920   24.4510   34.7900 C   0  0  0  0  0  0  0  0  0  0  0  0
   38.4430   23.1180   34.7290 N   0  0  0  0  0  0  0  0  0  0  0  0
   38.8750   22.7410   35.9400 C   0  0  0  0  0  0  0  0  0  0  0  0
   38.9060   23.7880   36.7690 N   0  0  0  0  0  0  0  0  0  0  0  0
   38.4850   24.8730   36.0800 C   0  0  0  0  0  0  0  0  0  0  0  0
   38.3010   26.2220   36.3820 C   0  0  0  0  0  0  0  0  0  0  0  0
   37.7170   28.1260   35.7060 H   0  0  0  0  0  0  0  0  0  0  0  0
   37.5190   24.9330   32.8280 H   0  0  0  0  0  0  0  0  0  0  0  0
   38.3160   22.5100   33.8780 H   0  0  0  0  0  0  0  0  0  0  0  0
   39.1550   21.7270   36.1960 H   0  0  0  0  0  0  0  0  0  0  0  0
   38.5230   26.5700   37.3790 H   0  0  0  0  0  0  0  0  0  0  0  0
   34.9320   30.5920   33.3460 C   0  0  0  0  0  0  0  0  0  0  0  0
   34.2270   31.3310   32.6250 O   0  0  0  0  0  0  0  0  0  0  0  0
   34.9900   30.6730   34.8330 C   0  0  1  0  0  3  0  0  0  0  0  0
   35.6340   31.9760   35.2940 C   0  0  0  0  0  3  0  0  0  0  0  0
   35.1640   32.8650   34.8360 H   0  0  0  0  0  0  0  0  0  0  0  0
   35.1010   31.9660   36.7340 C   0  0  0  0  0  3  0  0  0  0  0  0
   35.6750   31.2210   37.3170 H   0  0  0  0  0  0  0  0  0  0  0  0
   33.7900   31.5280   36.6380 O   0  0  0  0  0  0  0  0  0  0  0  0
   33.6330   30.8470   35.4540 C   0  0  0  0  0  3  0  0  0  0  0  0
   33.1570   29.8670   35.5710 H   0  0  0  0  0  0  0  0  0  0  0  0
  1  6  2  0  0  0  0
  1  2  1  0  0  0  0
  2  3  2  0  0  0  0
  3  4  1  0  0  0  0
  3 10  1  0  0  0  0
  5 23  1  0  0  0  0
  5  4  2  0  0  0  0
  6  5  1  0  0  0  0
  7  1  1  0  0  0  0
  8  2  1  0  0  0  0
  9 18  1  0  0  0  0
  9 17  1  0  0  0  0
 10  9  2  0  0  0  0
 11 10  1  0  0  0  0
 11 12  2  0  0  0  0
 12 16  1  0  0  0  0
 13 12  1  0  0  0  0
 13 14  1  0  0  0  0
 14 21  1  0  0  0  0
 14 15  2  0  0  0  0
 16 17  2  0  0  0  0
 16 15  1  0  0  0  0
 17 22  1  0  0  0  0
 19 11  1  0  0  0  0
 20 13  1  0  0  0  0
 24 23  2  0  0  0  0
 25 23  1  6  0  0  0
 25 26  1  0  0  0  0
 25 31  1  0  0  0  0
 26 28  1  0  0  0  0
 27 26  1  0  0  0  0
 28 29  1  0  0  0  0
 30 28  1  0  0  0  0
 31 32  1  0  0  0  0
 31 30  1  0  0  0  0
M  END
>  <minimizedAffinity>
-5.33385897

$$$$

 OpenBabel03262523313D

 32 35  0  0  1  0  0  0  0  0999 V2000
   37.2940   25.3060   32.4670 C   0  0  0  0  0  0  0  0  0  0  0  0
   36.7090   26.5220   32.1190 C   0  0  0  0  0  0  0  0  0  0  0  0
   36.5990   27.5180   33.1000 C   0  0  0  0  0  0  0  0  0  0  0  0
   37.0710   27.2530   34.3630 N   0  0  0  0  0  0  0  0  0  0  0  0
   37.6280   26.0620   34.6500 C   0  0  0  0  0  0  0  0  0  0  0  0
   37.7370   25.1040   33.7170 N   0  0  0  0  0  0  0  0  0  0  0  0
   37.3970   24.5160   31.7400 H   0  0  0  0  0  0  0  0  0  0  0  0
   36.3460   26.7220   31.1410 H   0  0  0  0  0  0  0  0  0  0  0  0
   35.6340   29.5540   33.9750 C   0  0  0  0  0  0  0  0  0  0  0  0
   36.0120   28.8220   32.8560 C   0  0  0  0  0  0  0  0  0  0  0  0
   35.8230   29.3440   31.5940 C   0  0  0  0  0  0  0  0  0  0  0  0
   35.2570   30.5950   31.4800 C   0  0  0  0  0  0  0  0  0  0  0  0
   34.9750   31.3090   30.3590 N   0  0  0  0  0  0  0  0  0  0  0  0
   34.4310   32.4670   30.7540 C   0  0  0  0  0  0  0  0  0  0  0  0
   34.3560   32.5150   32.0870 N   0  0  0  0  0  0  0  0  0  0  0  0
   34.8650   31.3590   32.5710 C   0  0  0  0  0  0  0  0  0  0  0  0
   35.0590   30.8240   33.8440 C   0  0  0  0  0  0  0  0  0  0  0  0
   35.7510   29.2110   35.0020 H   0  0  0  0  0  0  0  0  0  0  0  0
   36.1090   28.7920   30.7340 H   0  0  0  0  0  0  0  0  0  0  0  0
   35.1580   30.9930   29.3710 H   0  0  0  0  0  0  0  0  0  0  0  0
   34.1020   33.2460   30.0770 H   0  0  0  0  0  0  0  0  0  0  0  0
   34.7620   31.4020   34.7050 H   0  0  0  0  0  0  0  0  0  0  0  0
   38.1080   25.8520   36.0100 C   0  0  0  0  0  0  0  0  0  0  0  0
   38.3960   26.8070   36.7640 O   0  0  0  0  0  0  0  0  0  0  0  0
   38.2150   24.4150   36.3930 C   0  0  1  0  0  3  0  0  0  0  0  0
   39.6450   23.9050   36.2440 C   0  0  0  0  0  3  0  0  0  0  0  0
   40.3780   24.5420   36.7690 H   0  0  0  0  0  0  0  0  0  0  0  0
   39.5110   22.6650   37.1390 C   0  0  0  0  0  3  0  0  0  0  0  0
   38.9440   21.8910   36.5880 H   0  0  0  0  0  0  0  0  0  0  0  0
   38.7490   23.0730   38.2220 O   0  0  0  0  0  0  0  0  0  0  0  0
   38.0390   24.1980   37.8690 C   0  0  0  0  0  3  0  0  0  0  0  0
   36.9710   24.1330   38.1040 H   0  0  0  0  0  0  0  0  0  0  0  0
  1  6  1  0  0  0  0
  2  1  2  0  0  0  0
  2  3  1  0  0  0  0
  3  4  2  0  0  0  0
  4  5  1  0  0  0  0
  5 23  1  0  0  0  0
  6  5  2  0  0  0  0
  7  1  1  0  0  0  0
  8  2  1  0  0  0  0
  9 18  1  0  0  0  0
 10  3  1  0  0  0  0
 10  9  2  0  0  0  0
 11 10  1  0  0  0  0
 12 11  2  0  0  0  0
 12 16  1  0  0  0  0
 13 14  1  0  0  0  0
 13 12  1  0  0  0  0
 14 15  2  0  0  0  0
 15 16  1  0  0  0  0
 16 17  2  0  0  0  0
 17  9  1  0  0  0  0
 17 22  1  0  0  0  0
 19 11  1  0  0  0  0
 20 13  1  0  0  0  0
 21 14  1  0  0  0  0
 23 24  2  0  0  0  0
 25 23  1  1  0  0  0
 25 31  1  0  0  0  0
 26 25  1  0  0  0  0
 26 27  1  0  0  0  0
 26 28  1  0  0  0  0
 28 30  1  0  0  0  0
 29 28  1  0  0  0  0
 31 32  1  0  0  0  0
 31 30  1  0  0  0  0
M  END
>  <minimizedAffinity>
-5.32514429

$$$$

 OpenBabel03262523313D

 32 35  0  0  1  0  0  0  0  0999 V2000
   36.6130   27.5580   31.9080 C   0  0  0  0  0  0  0  0  0  0  0  0
   35.8720   28.5800   32.4990 C   0  0  0  0  0  0  0  0  0  0  0  0
   35.8790   28.6910   33.8970 C   0  0  0  0  0  0  0  0  0  0  0  0
   36.6150   27.7880   34.6250 N   0  0  0  0  0  0  0  0  0  0  0  0
   37.3140   26.8180   34.0080 C   0  0  0  0  0  0  0  0  0  0  0  0
   37.3120   26.7050   32.6710 N   0  0  0  0  0  0  0  0  0  0  0  0
   36.6320   27.4410   30.8360 H   0  0  0  0  0  0  0  0  0  0  0  0
   35.3050   29.2760   31.9310 H   0  0  0  0  0  0  0  0  0  0  0  0
   33.7660   29.7040   34.4910 C   0  0  0  0  0  0  0  0  0  0  0  0
   35.1500   29.7130   34.6230 C   0  0  0  0  0  0  0  0  0  0  0  0
   35.7610   30.6630   35.4150 C   0  0  0  0  0  0  0  0  0  0  0  0
   34.9680   31.5870   36.0610 C   0  0  0  0  0  0  0  0  0  0  0  0
   35.3350   32.6040   36.8830 N   0  0  0  0  0  0  0  0  0  0  0  0
   34.2120   33.2270   37.2660 C   0  0  0  0  0  0  0  0  0  0  0  0
   33.1450   32.6420   36.7150 N   0  0  0  0  0  0  0  0  0  0  0  0
   33.5840   31.6130   35.9560 C   0  0  0  0  0  0  0  0  0  0  0  0
   32.9740   30.6500   35.1530 C   0  0  0  0  0  0  0  0  0  0  0  0
   33.2120   28.9880   33.8860 H   0  0  0  0  0  0  0  0  0  0  0  0
   36.8170   30.6780   35.5210 H   0  0  0  0  0  0  0  0  0  0  0  0
   36.3240   32.8420   37.1570 H   0  0  0  0  0  0  0  0  0  0  0  0
   34.1890   34.0830   37.9280 H   0  0  0  0  0  0  0  0  0  0  0  0
   31.8990   30.6520   35.0580 H   0  0  0  0  0  0  0  0  0  0  0  0
   38.0720   25.8960   34.8440 C   0  0  0  0  0  0  0  0  0  0  0  0
   37.5820   25.3830   35.8740 O   0  0  0  0  0  0  0  0  0  0  0  0
   39.4560   25.6400   34.3520 C   0  0  1  0  0  3  0  0  0  0  0  0
   40.3970   26.7830   34.7190 C   0  0  0  0  0  3  0  0  0  0  0  0
   40.3650   27.0270   35.7960 H   0  0  0  0  0  0  0  0  0  0  0  0
   41.7180   26.0200   34.5430 C   0  0  0  0  0  3  0  0  0  0  0  0
   41.9200   25.9100   33.4610 H   0  0  0  0  0  0  0  0  0  0  0  0
   41.4900   24.7610   35.0740 O   0  0  0  0  0  0  0  0  0  0  0  0
   40.1350   24.5260   35.0970 C   0  0  0  0  0  3  0  0  0  0  0  0
   39.8490   23.5640   34.6560 H   0  0  0  0  0  0  0  0  0  0  0  0
  1  2  2  0  0  0  0
  1  6  1  0  0  0  0
  2  3  1  0  0  0  0
  3 10  1  0  0  0  0
  3  4  2  0  0  0  0
  5  4  1  0  0  0  0
  5 23  1  0  0  0  0
  6  5  2  0  0  0  0
  7  1  1  0  0  0  0
  8  2  1  0  0  0  0
  9 10  2  0  0  0  0
  9 17  1  0  0  0  0
 10 11  1  0  0  0  0
 11 19  1  0  0  0  0
 11 12  2  0  0  0  0
 12 13  1  0  0  0  0
 13 20  1  0  0  0  0
 13 14  1  0  0  0  0
 14 21  1  0  0  0  0
 15 14  2  0  0  0  0
 16 12  1  0  0  0  0
 16 15  1  0  0  0  0
 17 16  2  0  0  0  0
 18  9  1  0  0  0  0
 22 17  1  0  0  0  0
 23 24  2  0  0  0  0
 25 26  1  0  0  0  0
 25 23  1  1  0  0  0
 25 31  1  0  0  0  0
 26 27  1  0  0  0  0
 28 26  1  0  0  0  0
 28 30  1  0  0  0  0
 29 28  1  0  0  0  0
 30 31  1  0  0  0  0
 32 31  1  0  0  0  0
M  END
>  <minimizedAffinity>
-5.28816032

$$$$

 OpenBabel03262523313D

 32 35  0  0  1  0  0  0  0  0999 V2000
   37.1690   28.1740   31.8350 C   0  0  0  0  0  0  0  0  0  0  0  0
   37.7430   27.1250   32.5510 C   0  0  0  0  0  0  0  0  0  0  0  0
   37.4180   26.9830   33.9080 C   0  0  0  0  0  0  0  0  0  0  0  0
   36.5490   27.8840   34.4740 N   0  0  0  0  0  0  0  0  0  0  0  0
   36.0210   28.8810   33.7410 C   0  0  0  0  0  0  0  0  0  0  0  0
   36.3270   29.0240   32.4420 N   0  0  0  0  0  0  0  0  0  0  0  0
   37.3950   28.3160   30.7890 H   0  0  0  0  0  0  0  0  0  0  0  0
   38.4140   26.4310   32.1080 H   0  0  0  0  0  0  0  0  0  0  0  0
   38.8490   25.0510   34.1610 C   0  0  0  0  0  0  0  0  0  0  0  0
   37.9490   25.9310   34.7530 C   0  0  0  0  0  0  0  0  0  0  0  0
   37.6060   25.7780   36.0800 C   0  0  0  0  0  0  0  0  0  0  0  0
   38.1750   24.7420   36.7890 C   0  0  0  0  0  0  0  0  0  0  0  0
   37.9950   24.3940   38.0890 N   0  0  0  0  0  0  0  0  0  0  0  0
   38.7600   23.3190   38.3210 C   0  0  0  0  0  0  0  0  0  0  0  0
   39.4210   22.9710   37.2130 N   0  0  0  0  0  0  0  0  0  0  0  0
   39.0760   23.8410   36.2370 C   0  0  0  0  0  0  0  0  0  0  0  0
   39.4180   24.0030   34.8940 C   0  0  0  0  0  0  0  0  0  0  0  0
   39.1680   25.1070   33.1220 H   0  0  0  0  0  0  0  0  0  0  0  0
   36.9210   26.4450   36.5400 H   0  0  0  0  0  0  0  0  0  0  0  0
   37.3660   24.8900   38.7740 H   0  0  0  0  0  0  0  0  0  0  0  0
   38.8250   22.8140   39.2760 H   0  0  0  0  0  0  0  0  0  0  0  0
   40.1170   23.3140   34.4460 H   0  0  0  0  0  0  0  0  0  0  0  0
   35.1070   29.7990   34.4080 C   0  0  0  0  0  0  0  0  0  0  0  0
   35.5100   30.6590   35.2200 O   0  0  0  0  0  0  0  0  0  0  0  0
   33.6780   29.6050   34.0260 C   0  0  1  0  0  3  0  0  0  0  0  0
   32.8140   29.2980   35.2450 C   0  0  0  0  0  3  0  0  0  0  0  0
   32.9430   30.0400   36.0530 H   0  0  0  0  0  0  0  0  0  0  0  0
   31.4550   29.6490   34.6220 C   0  0  0  0  0  3  0  0  0  0  0  0
   31.1610   28.8330   33.9340 H   0  0  0  0  0  0  0  0  0  0  0  0
   31.6790   30.7920   33.8710 O   0  0  0  0  0  0  0  0  0  0  0  0
   33.0220   30.8830   33.5860 C   0  0  0  0  0  3  0  0  0  0  0  0
   33.2340   31.0550   32.5250 H   0  0  0  0  0  0  0  0  0  0  0  0
  1  6  2  0  0  0  0
  1  2  1  0  0  0  0
  2  3  2  0  0  0  0
  3  4  1  0  0  0  0
  3 10  1  0  0  0  0
  5 23  1  0  0  0  0
  5  4  2  0  0  0  0
  6  5  1  0  0  0  0
  7  1  1  0  0  0  0
  8  2  1  0  0  0  0
  9 10  2  0  0  0  0
  9 17  1  0  0  0  0
 10 11  1  0  0  0  0
 11 19  1  0  0  0  0
 11 12  2  0  0  0  0
 12 13  1  0  0  0  0
 13 14  1  0  0  0  0
 13 20  1  0  0  0  0
 14 21  1  0  0  0  0
 15 14  2  0  0  0  0
 16 12  1  0  0  0  0
 16 15  1  0  0  0  0
 17 16  2  0  0  0  0
 18  9  1  0  0  0  0
 22 17  1  0  0  0  0
 23 24  2  0  0  0  0
 25 23  1  1  0  0  0
 25 26  1  0  0  0  0
 26 27  1  0  0  0  0
 28 26  1  0  0  0  0
 29 28  1  0  0  0  0
 30 28  1  0  0  0  0
 31 30  1  0  0  0  0
 31 25  1  0  0  0  0
 32 31  1  0  0  0  0
M  END
>  <minimizedAffinity>
-5.27905989

$$$$

 OpenBabel03262523313D

 32 35  0  0  1  0  0  0  0  0999 V2000
   35.2400   29.9510   32.0820 C   0  0  0  0  0  0  0  0  0  0  0  0
   36.1910   28.9850   32.4080 C   0  0  0  0  0  0  0  0  0  0  0  0
   36.1930   28.4580   33.7070 C   0  0  0  0  0  0  0  0  0  0  0  0
   35.2580   28.9150   34.6040 N   0  0  0  0  0  0  0  0  0  0  0  0
   34.3600   29.8500   34.2420 C   0  0  0  0  0  0  0  0  0  0  0  0
   34.3510   30.3590   33.0010 N   0  0  0  0  0  0  0  0  0  0  0  0
   35.2070   30.3800   31.0930 H   0  0  0  0  0  0  0  0  0  0  0  0
   36.9110   28.6350   31.7100 H   0  0  0  0  0  0  0  0  0  0  0  0
   37.8040   27.7130   35.3480 C   0  0  0  0  0  0  0  0  0  0  0  0
   37.1310   27.4490   34.1610 C   0  0  0  0  0  0  0  0  0  0  0  0
   37.3700   26.2750   33.4790 C   0  0  0  0  0  0  0  0  0  0  0  0
   38.2830   25.3850   34.0040 C   0  0  0  0  0  0  0  0  0  0  0  0
   38.6800   24.1800   33.5200 N   0  0  0  0  0  0  0  0  0  0  0  0
   39.5840   23.6880   34.3780 C   0  0  0  0  0  0  0  0  0  0  0  0
   39.7760   24.5390   35.3900 N   0  0  0  0  0  0  0  0  0  0  0  0
   38.9770   25.6100   35.1850 C   0  0  0  0  0  0  0  0  0  0  0  0
   38.7300   26.8010   35.8690 C   0  0  0  0  0  0  0  0  0  0  0  0
   37.6700   28.6160   35.9420 H   0  0  0  0  0  0  0  0  0  0  0  0
   36.8600   26.0650   32.5720 H   0  0  0  0  0  0  0  0  0  0  0  0
   38.3300   23.7320   32.6330 H   0  0  0  0  0  0  0  0  0  0  0  0
   40.0810   22.7340   34.2550 H   0  0  0  0  0  0  0  0  0  0  0  0
   39.2580   26.9950   36.7890 H   0  0  0  0  0  0  0  0  0  0  0  0
   33.3980   30.2860   35.2460 C   0  0  0  0  0  0  0  0  0  0  0  0
   32.4790   29.5400   35.6490 O   0  0  0  0  0  0  0  0  0  0  0  0
   33.6230   31.6800   35.7250 C   0  0  1  0  0  3  0  0  0  0  0  0
   32.7300   32.0080   36.9180 C   0  0  0  0  0  3  0  0  0  0  0  0
   32.8130   31.2600   37.7260 H   0  0  0  0  0  0  0  0  0  0  0  0
   33.5240   33.2160   37.4370 C   0  0  0  0  0  3  0  0  0  0  0  0
   33.3280   34.0790   36.7730 H   0  0  0  0  0  0  0  0  0  0  0  0
   34.8570   32.8620   37.3090 O   0  0  0  0  0  0  0  0  0  0  0  0
   34.9640   31.8550   36.3790 C   0  0  0  0  0  3  0  0  0  0  0  0
   35.7220   32.0460   35.6100 H   0  0  0  0  0  0  0  0  0  0  0  0
  1  2  2  0  0  0  0
  1  6  1  0  0  0  0
  2  3  1  0  0  0  0
  3 10  1  0  0  0  0
  3  4  2  0  0  0  0
  5  4  1  0  0  0  0
  5 23  1  0  0  0  0
  6  5  2  0  0  0  0
  7  1  1  0  0  0  0
  8  2  1  0  0  0  0
  9 17  1  0  0  0  0
  9 18  1  0  0  0  0
 10  9  2  0  0  0  0
 11 12  2  0  0  0  0
 11 10  1  0  0  0  0
 12 16  1  0  0  0  0
 13 12  1  0  0  0  0
 13 14  1  0  0  0  0
 14 15  2  0  0  0  0
 16 15  1  0  0  0  0
 16 17  2  0  0  0  0
 17 22  1  0  0  0  0
 19 11  1  0  0  0  0
 20 13  1  0  0  0  0
 21 14  1  0  0  0  0
 23 24  2  0  0  0  0
 25 23  1  1  0  0  0
 25 31  1  0  0  0  0
 25 26  1  0  0  0  0
 26 28  1  0  0  0  0
 26 27  1  0  0  0  0
 29 28  1  0  0  0  0
 30 28  1  0  0  0  0
 31 30  1  0  0  0  0
 32 31  1  0  0  0  0
M  END
>  <minimizedAffinity>
-5.25139713

$$$$
