
 OpenBabel03272507413D

 40 43  0  0  1  0  0  0  0  0999 V2000
   36.7250   32.2990   49.2930 O   0  0  0  0  0  0  0  0  0  0  0  0
   38.2490   32.2660   47.3310 C   0  0  0  0  0  0  0  0  0  0  0  0
   37.8510   32.7080   48.5770 C   0  0  0  0  0  0  0  0  0  0  0  0
   38.5990   33.6610   49.2590 C   0  0  0  0  0  0  0  0  0  0  0  0
   39.7520   34.1660   48.6750 C   0  0  0  0  0  0  0  0  0  0  0  0
   40.1460   33.7200   47.4270 C   0  0  0  0  0  0  0  0  0  0  0  0
   39.3770   32.7750   46.7850 C   0  0  0  0  0  0  0  0  0  0  0  0
   38.3630   34.0540   50.2200 H   0  0  0  0  0  0  0  0  0  0  0  0
   40.3620   34.9120   49.1760 H   0  0  0  0  0  0  0  0  0  0  0  0
   41.0280   34.0830   46.9390 H   0  0  0  0  0  0  0  0  0  0  0  0
   39.8110   32.3070   45.4490 C   0  0  0  0  0  0  0  0  0  0  0  0
   40.6550   31.2760   45.1140 C   0  0  0  0  0  0  0  0  0  0  0  0
   40.7310   31.2550   43.7240 C   0  0  0  0  0  0  0  0  0  0  0  0
   39.9210   32.2820   43.2960 C   0  0  0  0  0  0  0  0  0  0  0  0
   39.3870   32.8920   44.3390 O   0  0  0  0  0  0  0  0  0  0  0  0
   41.1420   30.6340   45.8470 H   0  0  0  0  0  0  0  0  0  0  0  0
   41.3260   30.5440   43.1620 H   0  0  0  0  0  0  0  0  0  0  0  0
   39.7600   32.5360   42.2500 H   0  0  0  0  0  0  0  0  0  0  0  0
   36.7680   30.5000   46.1880 N   0  0  0  0  0  0  0  0  0  0  0  0
   37.4250   31.2900   46.7080 C   0  0  0  0  0  0  0  0  0  0  0  0
   36.6760   31.2030   50.0830 C   0  0  0  0  0  0  0  0  0  0  0  0
   35.5620   30.4140   49.8160 C   0  0  0  0  0  0  0  0  0  0  0  0
   35.3340   29.2420   50.5250 C   0  0  0  0  0  0  0  0  0  0  0  0
   36.2460   28.9040   51.4870 N   0  0  0  0  0  0  0  0  0  0  0  0
   37.3260   29.6920   51.7290 C   0  0  0  0  0  0  0  0  0  0  0  0
   37.5240   30.8110   51.0360 N   0  0  0  0  0  0  0  0  0  0  0  0
   34.5170   28.5760   50.3960 H   0  0  0  0  0  0  0  0  0  0  0  0
   38.0500   29.4320   52.4860 H   0  0  0  0  0  0  0  0  0  0  0  0
   34.1780   29.6390   47.9560 C   0  0  0  0  0  0  0  0  0  0  0  0
   34.5960   28.4350   47.7520 O   0  0  0  0  0  0  0  0  0  0  0  0
   34.5740   30.6580   48.8640 N   0  0  0  0  0  0  0  0  0  0  0  0
   34.0780   31.5700   48.7580 H   0  0  0  0  0  0  0  0  0  0  0  0
   33.0530   29.8980   46.9820 C   0  0  1  0  0  3  0  0  0  0  0  0
   33.5370   30.0700   45.5820 C   0  0  0  0  0  3  0  0  0  0  0  0
   34.3380   29.3000   45.4100 H   0  0  0  0  0  0  0  0  0  0  0  0
   32.2950   29.6920   44.8090 C   0  0  0  0  0  3  0  0  0  0  0  0
   31.6660   30.6280   44.7550 H   0  0  0  0  0  0  0  0  0  0  0  0
   31.6110   28.7560   45.5660 O   0  0  0  0  0  0  0  0  0  0  0  0
   32.1610   28.6950   46.8280 C   0  0  0  0  0  3  0  0  0  0  0  0
   31.3470   28.6690   47.5910 H   0  0  0  0  0  0  0  0  0  0  0  0
  1 21  1  0  0  0  0
  2  3  1  0  0  0  0
  3  4  2  0  0  0  0
  3  1  1  0  0  0  0
  4  8  1  0  0  0  0
  5  9  1  0  0  0  0
  5  4  1  0  0  0  0
  6  5  2  0  0  0  0
  7  2  2  0  0  0  0
  7  6  1  0  0  0  0
 10  6  1  0  0  0  0
 11  7  1  0  0  0  0
 12 11  2  0  0  0  0
 12 16  1  0  0  0  0
 13 12  1  0  0  0  0
 14 13  2  0  0  0  0
 14 15  1  0  0  0  0
 15 11  1  0  0  0  0
 17 13  1  0  0  0  0
 18 14  1  0  0  0  0
 19 20  3  0  0  0  0
 20  2  1  0  0  0  0
 21 26  1  0  0  0  0
 22 21  2  0  0  0  0
 22 23  1  0  0  0  0
 23 24  2  0  0  0  0
 24 25  1  0  0  0  0
 25 28  1  0  0  0  0
 26 25  2  0  0  0  0
 27 23  1  0  0  0  0
 29 31  1  0  0  0  0
 30 29  2  0  0  0  0
 31 22  1  0  0  0  0
 32 31  1  0  0  0  0
 33 29  1  1  0  0  0
 34 33  1  0  0  0  0
 35 34  1  0  0  0  0
 36 38  1  0  0  0  0
 36 34  1  0  0  0  0
 37 36  1  0  0  0  0
 38 39  1  0  0  0  0
 39 33  1  0  0  0  0
 39 40  1  0  0  0  0
M  END
>  <minimizedAffinity>
-5.87734842

>  <minimizedRMSD>
0.217831507

$$$$
