
 OpenBabel03272503413D

 40 43  0  0  1  0  0  0  0  0999 V2000
   38.4730   31.1220   45.9050 C   0  0  0  0  0  0  0  0  0  0  0  0
   39.8100   31.0230   46.1750 C   0  0  0  0  0  0  0  0  0  0  0  0
   40.4350   31.3960   44.9750 C   0  0  0  0  0  0  0  0  0  0  0  0
   39.4970   31.6920   44.0660 N   0  0  0  0  0  0  0  0  0  0  0  0
   38.3030   31.5260   44.6320 N   0  0  0  0  0  0  0  0  0  0  0  0
   40.3180   30.7310   47.0860 H   0  0  0  0  0  0  0  0  0  0  0  0
   41.5150   31.4130   44.8890 H   0  0  0  0  0  0  0  0  0  0  0  0
   39.7530   30.9360   41.7640 C   0  0  2  0  0  0  0  0  0  0  0  0
   39.8150   32.1130   42.7250 C   0  0  1  0  0  0  0  0  0  0  0  0
   38.7220   32.9600   42.1080 C   0  0  0  0  0  0  0  0  0  0  0  0
   38.7890   32.7920   40.7460 O   0  0  0  0  0  0  0  0  0  0  0  0
   39.5890   31.7310   40.4510 C   0  0  0  0  0  0  0  0  0  0  0  0
   40.6500   30.3370   41.7100 H   0  0  0  0  0  0  0  0  0  0  0  0
   40.7570   32.6500   42.6850 H   0  0  0  0  0  0  0  0  0  0  0  0
   37.7330   32.5380   42.4200 H   0  0  0  0  0  0  0  0  0  0  0  0
   38.8270   34.0180   42.3690 H   0  0  0  0  0  0  0  0  0  0  0  0
   39.1460   31.0200   39.7150 H   0  0  0  0  0  0  0  0  0  0  0  0
   40.6010   32.0600   40.1130 H   0  0  0  0  0  0  0  0  0  0  0  0
   38.5840   30.2550   42.0130 O   0  0  0  0  0  0  0  0  0  0  0  0
   38.6630   28.9090   42.0790 C   0  0  1  0  0  3  0  0  0  0  0  0
   38.4510   28.1540   40.7880 C   0  0  0  0  0  3  0  0  0  0  0  0
   39.1030   28.5180   39.9800 H   0  0  0  0  0  0  0  0  0  0  0  0
   38.9650   26.7960   41.2360 C   0  0  0  0  0  3  0  0  0  0  0  0
   38.1020   26.3130   41.7720 H   0  0  0  0  0  0  0  0  0  0  0  0
   39.9580   27.0040   42.1580 O   0  0  0  0  0  0  0  0  0  0  0  0
   39.9770   28.3370   42.5080 C   0  0  0  0  0  3  0  0  0  0  0  0
   40.8510   28.7870   42.0230 H   0  0  0  0  0  0  0  0  0  0  0  0
   36.5220   30.6340   49.0720 C   0  0  0  0  0  0  0  0  0  0  0  0
   37.5600   30.9160   48.2180 C   0  0  0  0  0  0  0  0  0  0  0  0
   37.4090   30.8340   46.8500 C   0  0  0  0  0  0  0  0  0  0  0  0
   36.1970   30.4630   46.3940 N   0  0  0  0  0  0  0  0  0  0  0  0
   35.1680   30.1830   47.2470 C   0  0  0  0  0  0  0  0  0  0  0  0
   35.3140   30.2630   48.5530 N   0  0  0  0  0  0  0  0  0  0  0  0
   38.5650   31.2220   48.5490 H   0  0  0  0  0  0  0  0  0  0  0  0
   34.2070   29.8880   46.8210 H   0  0  0  0  0  0  0  0  0  0  0  0
   36.8450   30.7660   50.4110 O   0  0  0  0  0  0  0  0  0  0  0  0
   36.8930   29.6860   51.3170 C   0  0  0  0  0  0  0  0  0  0  0  0
   35.6090   29.2480   51.6290 F   0  0  0  0  0  0  0  0  0  0  0  0
   37.5690   30.0830   52.4440 F   0  0  0  0  0  0  0  0  0  0  0  0
   37.6060   28.6670   50.7280 F   0  0  0  0  0  0  0  0  0  0  0  0
  1  2  1  0  0  0  0
  1 30  1  0  0  0  0
  2  6  1  0  0  0  0
  3  2  2  0  0  0  0
  4  5  1  0  0  0  0
  4  3  1  0  0  0  0
  5  1  2  0  0  0  0
  7  3  1  0  0  0  0
  8 13  1  1  0  0  0
  8 19  1  0  0  0  0
  8  9  1  0  0  0  0
  9 14  1  6  0  0  0
  9  4  1  0  0  0  0
 10 16  1  0  0  0  0
 10 15  1  0  0  0  0
 10  9  1  0  0  0  0
 11 10  1  0  0  0  0
 12 11  1  0  0  0  0
 12  8  1  0  0  0  0
 17 12  1  0  0  0  0
 18 12  1  0  0  0  0
 20 19  1  6  0  0  0
 20 26  1  0  0  0  0
 21 23  1  0  0  0  0
 21 20  1  0  0  0  0
 22 21  1  0  0  0  0
 23 24  1  0  0  0  0
 23 25  1  0  0  0  0
 25 26  1  0  0  0  0
 27 26  1  0  0  0  0
 28 36  1  0  0  0  0
 29 34  1  0  0  0  0
 29 28  2  0  0  0  0
 30 29  1  0  0  0  0
 31 30  2  0  0  0  0
 31 32  1  0  0  0  0
 32 33  2  0  0  0  0
 33 28  1  0  0  0  0
 35 32  1  0  0  0  0
 36 37  1  0  0  0  0
 37 38  1  0  0  0  0
 37 39  1  0  0  0  0
 40 37  1  0  0  0  0
M  END
>  <minimizedAffinity>
-6.05207443

>  <minimizedRMSD>
0.314367294

$$$$
