
 OpenBabel03272503413D

 40 43  0  0  1  0  0  0  0  0999 V2000
   38.4740   31.1220   45.8900 C   0  0  0  0  0  0  0  0  0  0  0  0
   39.8110   31.0030   46.1530 C   0  0  0  0  0  0  0  0  0  0  0  0
   40.4360   31.3880   44.9570 C   0  0  0  0  0  0  0  0  0  0  0  0
   39.4980   31.7100   44.0570 N   0  0  0  0  0  0  0  0  0  0  0  0
   38.3040   31.5480   44.6240 N   0  0  0  0  0  0  0  0  0  0  0  0
   40.3190   30.6900   47.0570 H   0  0  0  0  0  0  0  0  0  0  0  0
   41.5150   31.3940   44.8660 H   0  0  0  0  0  0  0  0  0  0  0  0
   39.7710   30.9810   41.7470 C   0  0  2  0  0  0  0  0  0  0  0  0
   39.8160   32.1490   42.7210 C   0  0  1  0  0  0  0  0  0  0  0  0
   38.7150   32.9900   42.1090 C   0  0  0  0  0  0  0  0  0  0  0  0
   38.7890   32.8360   40.7450 O   0  0  0  0  0  0  0  0  0  0  0  0
   39.6030   31.7880   40.4430 C   0  0  0  0  0  0  0  0  0  0  0  0
   40.6750   30.3930   41.6910 H   0  0  0  0  0  0  0  0  0  0  0  0
   40.7520   32.6980   42.6900 H   0  0  0  0  0  0  0  0  0  0  0  0
   37.7300   32.5530   42.4130 H   0  0  0  0  0  0  0  0  0  0  0  0
   38.8060   34.0460   42.3810 H   0  0  0  0  0  0  0  0  0  0  0  0
   39.1700   31.0800   39.6980 H   0  0  0  0  0  0  0  0  0  0  0  0
   40.6120   32.1330   40.1110 H   0  0  0  0  0  0  0  0  0  0  0  0
   38.6100   30.2840   41.9850 O   0  0  0  0  0  0  0  0  0  0  0  0
   38.6940   28.9370   41.9800 C   0  0  1  0  0  3  0  0  0  0  0  0
   39.9910   28.3380   42.4730 C   0  0  0  0  0  3  0  0  0  0  0  0
   40.2760   28.7160   43.4660 H   0  0  0  0  0  0  0  0  0  0  0  0
   39.5260   26.8990   42.6300 C   0  0  0  0  0  3  0  0  0  0  0  0
   39.5970   26.4490   41.6020 H   0  0  0  0  0  0  0  0  0  0  0  0
   38.2020   26.9200   42.9820 O   0  0  0  0  0  0  0  0  0  0  0  0
   37.7180   28.2030   42.8460 C   0  0  0  0  0  3  0  0  0  0  0  0
   37.6030   28.6160   43.8550 H   0  0  0  0  0  0  0  0  0  0  0  0
   36.5230   30.6290   49.0560 C   0  0  0  0  0  0  0  0  0  0  0  0
   37.5610   30.9140   48.2020 C   0  0  0  0  0  0  0  0  0  0  0  0
   37.4110   30.8320   46.8340 C   0  0  0  0  0  0  0  0  0  0  0  0
   36.2000   30.4570   46.3780 N   0  0  0  0  0  0  0  0  0  0  0  0
   35.1710   30.1750   47.2300 C   0  0  0  0  0  0  0  0  0  0  0  0
   35.3160   30.2550   48.5360 N   0  0  0  0  0  0  0  0  0  0  0  0
   38.5640   31.2220   48.5340 H   0  0  0  0  0  0  0  0  0  0  0  0
   34.2110   29.8770   46.8040 H   0  0  0  0  0  0  0  0  0  0  0  0
   36.8440   30.7610   50.3950 O   0  0  0  0  0  0  0  0  0  0  0  0
   36.8990   29.6810   51.3010 C   0  0  0  0  0  0  0  0  0  0  0  0
   35.6170   29.2500   51.6300 F   0  0  0  0  0  0  0  0  0  0  0  0
   37.5920   30.0750   52.4180 F   0  0  0  0  0  0  0  0  0  0  0  0
   37.5990   28.6580   50.7020 F   0  0  0  0  0  0  0  0  0  0  0  0
  1  2  1  0  0  0  0
  1 30  1  0  0  0  0
  2  6  1  0  0  0  0
  3  2  2  0  0  0  0
  4  5  1  0  0  0  0
  4  3  1  0  0  0  0
  5  1  2  0  0  0  0
  7  3  1  0  0  0  0
  8 13  1  1  0  0  0
  8 19  1  0  0  0  0
  8  9  1  0  0  0  0
  9 14  1  6  0  0  0
  9  4  1  0  0  0  0
 10 16  1  0  0  0  0
 10 15  1  0  0  0  0
 10  9  1  0  0  0  0
 11 10  1  0  0  0  0
 12 11  1  0  0  0  0
 12  8  1  0  0  0  0
 17 12  1  0  0  0  0
 18 12  1  0  0  0  0
 20 19  1  1  0  0  0
 20 21  1  0  0  0  0
 20 26  1  0  0  0  0
 21 23  1  0  0  0  0
 21 22  1  0  0  0  0
 23 25  1  0  0  0  0
 24 23  1  0  0  0  0
 26 25  1  0  0  0  0
 26 27  1  0  0  0  0
 28 36  1  0  0  0  0
 29 34  1  0  0  0  0
 29 28  2  0  0  0  0
 30 29  1  0  0  0  0
 31 30  2  0  0  0  0
 31 32  1  0  0  0  0
 32 33  2  0  0  0  0
 33 28  1  0  0  0  0
 35 32  1  0  0  0  0
 36 37  1  0  0  0  0
 37 38  1  0  0  0  0
 37 39  1  0  0  0  0
 40 37  1  0  0  0  0
M  END
>  <minimizedAffinity>
-6.13799524

>  <minimizedRMSD>
0.346592575

$$$$
