
 OpenBabel03262521483D

 29 30  0  0  1  0  0  0  0  0999 V2000
   37.4820   21.9610   35.5590 C   0  0  0  0  0  0  0  0  0  0  0  0
   37.7230   22.7100   34.8020 H   0  0  0  0  0  0  0  0  0  0  0  0
   38.4160   21.3610   35.7280 H   0  0  0  0  0  0  0  0  0  0  0  0
   36.3250   21.0940   35.1890 C   0  0  0  0  0  0  0  0  0  0  0  0
   36.3920   20.0680   35.6340 H   0  0  0  0  0  0  0  0  0  0  0  0
   35.3710   21.5260   35.6080 H   0  0  0  0  0  0  0  0  0  0  0  0
   36.1230   20.9250   33.7550 C   0  0  0  0  0  0  0  0  0  0  0  0
   35.4920   19.8220   33.1950 C   0  0  0  0  0  0  0  0  0  0  0  0
   35.3500   19.7600   31.8020 C   0  0  0  0  0  0  0  0  0  0  0  0
   35.8450   20.7990   31.0660 N   0  0  0  0  0  0  0  0  0  0  0  0
   36.4590   21.8700   31.6450 C   0  0  0  0  0  0  0  0  0  0  0  0
   36.5880   21.9100   33.0050 N   0  0  0  0  0  0  0  0  0  0  0  0
   35.1210   19.0300   33.8360 H   0  0  0  0  0  0  0  0  0  0  0  0
   34.8640   18.9170   31.3300 H   0  0  0  0  0  0  0  0  0  0  0  0
   36.8390   22.6770   31.0140 H   0  0  0  0  0  0  0  0  0  0  0  0
   37.1810   22.5840   36.7750 O   0  0  0  0  0  0  0  0  0  0  0  0
   39.5770   22.7410   37.7960 O   0  0  0  0  0  0  0  0  0  0  0  0
   38.4430   23.6070   37.2690 P   0  0  2  0  0  0  0  0  0  0  0  0
   37.9870   24.5740   38.5690 O   0  0  0  0  0  0  0  0  0  0  0  0
   37.7340   25.4680   38.2280 H   0  0  0  0  0  0  0  0  0  0  0  0
   38.9600   24.5960   36.0190 O   0  0  0  0  0  0  0  0  0  0  0  0
   38.0090   25.5680   35.8080 C   0  0  1  0  0  3  0  0  0  0  0  0
   38.4970   26.9820   36.0230 C   0  0  0  0  0  3  0  0  0  0  0  0
   38.4040   27.2710   37.0910 H   0  0  0  0  0  0  0  0  0  0  0  0
   37.5180   27.7390   35.1480 C   0  0  0  0  0  3  0  0  0  0  0  0
   38.0600   28.6000   34.6760 H   0  0  0  0  0  0  0  0  0  0  0  0
   37.1300   26.9110   34.1210 O   0  0  0  0  0  0  0  0  0  0  0  0
   37.5980   25.6460   34.3540 C   0  0  0  0  0  3  0  0  0  0  0  0
   38.5050   25.3940   33.7400 H   0  0  0  0  0  0  0  0  0  0  0  0
  1  3  1  0  0  0  0
  1 16  1  0  0  0  0
  2  1  1  0  0  0  0
  4  1  1  0  0  0  0
  4  6  1  0  0  0  0
  4  5  1  0  0  0  0
  7  4  1  0  0  0  0
  8  7  1  0  0  0  0
  8 13  1  0  0  0  0
  9  8  2  0  0  0  0
 10 11  2  0  0  0  0
 10  9  1  0  0  0  0
 11 12  1  0  0  0  0
 12  7  2  0  0  0  0
 14  9  1  0  0  0  0
 15 11  1  0  0  0  0
 16 18  1  0  0  0  0
 18 17  2  1  0  0  0
 18 19  1  0  0  0  0
 20 19  1  0  0  0  0
 21 18  1  0  0  0  0
 22 21  1  6  0  0  0
 22 23  1  0  0  0  0
 23 24  1  0  0  0  0
 25 23  1  0  0  0  0
 26 25  1  0  0  0  0
 27 28  1  0  0  0  0
 27 25  1  0  0  0  0
 28 22  1  0  0  0  0
 29 28  1  0  0  0  0
M  END
>  <minimizedAffinity>
-4.46941042

$$$$

 OpenBabel03262521483D

 29 30  0  0  1  0  0  0  0  0999 V2000
   38.2410   25.2400   35.8790 C   0  0  0  0  0  0  0  0  0  0  0  0
   39.2310   24.9720   35.5030 H   0  0  0  0  0  0  0  0  0  0  0  0
   37.5020   24.6020   35.3250 H   0  0  0  0  0  0  0  0  0  0  0  0
   37.9300   26.6940   35.7460 C   0  0  0  0  0  0  0  0  0  0  0  0
   37.3240   27.0860   36.6030 H   0  0  0  0  0  0  0  0  0  0  0  0
   38.8830   27.2950   35.7700 H   0  0  0  0  0  0  0  0  0  0  0  0
   37.2260   27.0580   34.5230 C   0  0  0  0  0  0  0  0  0  0  0  0
   36.5310   28.2490   34.3650 C   0  0  0  0  0  0  0  0  0  0  0  0
   35.8890   28.5000   33.1440 C   0  0  0  0  0  0  0  0  0  0  0  0
   35.9840   27.5480   32.1690 N   0  0  0  0  0  0  0  0  0  0  0  0
   36.6740   26.3870   32.3540 C   0  0  0  0  0  0  0  0  0  0  0  0
   37.2930   26.1620   33.5510 N   0  0  0  0  0  0  0  0  0  0  0  0
   36.4940   28.9640   35.1790 H   0  0  0  0  0  0  0  0  0  0  0  0
   35.3390   29.4170   32.9850 H   0  0  0  0  0  0  0  0  0  0  0  0
   36.7220   25.6550   31.5440 H   0  0  0  0  0  0  0  0  0  0  0  0
   38.1320   24.8980   37.2310 O   0  0  0  0  0  0  0  0  0  0  0  0
   38.0470   22.5160   36.1710 O   0  0  0  0  0  0  0  0  0  0  0  0
   38.3850   23.2350   37.4660 P   0  0  2  0  0  0  0  0  0  0  0  0
   37.3290   22.6010   38.6120 O   0  0  0  0  0  0  0  0  0  0  0  0
   37.7980   22.5390   39.4810 H   0  0  0  0  0  0  0  0  0  0  0  0
   39.9570   22.9150   37.9500 O   0  0  0  0  0  0  0  0  0  0  0  0
   40.6290   22.3330   36.9000 C   0  0  1  0  0  3  0  0  0  0  0  0
   41.5190   23.2740   36.1230 C   0  0  0  0  0  3  0  0  0  0  0  0
   40.9430   23.7930   35.3300 H   0  0  0  0  0  0  0  0  0  0  0  0
   42.5120   22.2860   35.5430 C   0  0  0  0  0  3  0  0  0  0  0  0
   43.5210   22.7770   35.5160 H   0  0  0  0  0  0  0  0  0  0  0  0
   42.6170   21.2240   36.4090 O   0  0  0  0  0  0  0  0  0  0  0  0
   41.6560   21.3280   37.3770 C   0  0  0  0  0  3  0  0  0  0  0  0
   42.0580   21.7060   38.3560 H   0  0  0  0  0  0  0  0  0  0  0  0
  1 16  1  0  0  0  0
  2  1  1  0  0  0  0
  3  1  1  0  0  0  0
  4  6  1  0  0  0  0
  4  1  1  0  0  0  0
  4  5  1  0  0  0  0
  7  4  1  0  0  0  0
  8  7  1  0  0  0  0
  8 13  1  0  0  0  0
  9  8  2  0  0  0  0
 10 11  2  0  0  0  0
 10  9  1  0  0  0  0
 11 12  1  0  0  0  0
 12  7  2  0  0  0  0
 14  9  1  0  0  0  0
 15 11  1  0  0  0  0
 16 18  1  0  0  0  0
 18 17  2  6  0  0  0
 18 21  1  0  0  0  0
 18 19  1  0  0  0  0
 19 20  1  0  0  0  0
 22 28  1  0  0  0  0
 22 21  1  1  0  0  0
 23 22  1  0  0  0  0
 24 23  1  0  0  0  0
 25 23  1  0  0  0  0
 25 27  1  0  0  0  0
 26 25  1  0  0  0  0
 27 28  1  0  0  0  0
 28 29  1  0  0  0  0
M  END
>  <minimizedAffinity>
-4.34232616

$$$$

 OpenBabel03262521483D

 29 30  0  0  1  0  0  0  0  0999 V2000
   39.1260   26.8320   32.6210 C   0  0  0  0  0  0  0  0  0  0  0  0
   38.2530   27.4820   32.5280 H   0  0  0  0  0  0  0  0  0  0  0  0
   39.9600   27.3280   32.0560 H   0  0  0  0  0  0  0  0  0  0  0  0
   38.8830   25.4390   32.1430 C   0  0  0  0  0  0  0  0  0  0  0  0
   39.5270   25.1630   31.2690 H   0  0  0  0  0  0  0  0  0  0  0  0
   39.1620   24.7010   32.9490 H   0  0  0  0  0  0  0  0  0  0  0  0
   37.5040   25.1560   31.7650 C   0  0  0  0  0  0  0  0  0  0  0  0
   36.9420   23.8870   31.8110 C   0  0  0  0  0  0  0  0  0  0  0  0
   35.6040   23.7260   31.4240 C   0  0  0  0  0  0  0  0  0  0  0  0
   34.9210   24.8380   31.0200 N   0  0  0  0  0  0  0  0  0  0  0  0
   35.5000   26.0720   30.9860 C   0  0  0  0  0  0  0  0  0  0  0  0
   36.8060   26.2060   31.3670 N   0  0  0  0  0  0  0  0  0  0  0  0
   37.5390   23.0440   32.1410 H   0  0  0  0  0  0  0  0  0  0  0  0
   35.1330   22.7530   31.4480 H   0  0  0  0  0  0  0  0  0  0  0  0
   34.9140   26.9320   30.6560 H   0  0  0  0  0  0  0  0  0  0  0  0
   39.5340   26.7620   33.9580 O   0  0  0  0  0  0  0  0  0  0  0  0
   37.2120   27.8880   34.3440 O   0  0  0  0  0  0  0  0  0  0  0  0
   38.2180   26.9650   35.0120 P   0  0  2  0  0  0  0  0  0  0  0  0
   38.6710   27.7560   36.4270 O   0  0  0  0  0  0  0  0  0  0  0  0
   38.8140   27.0830   37.1380 H   0  0  0  0  0  0  0  0  0  0  0  0
   37.5230   25.4960   35.4180 O   0  0  0  0  0  0  0  0  0  0  0  0
   38.4540   24.7420   36.0960 C   0  0  1  0  0  3  0  0  0  0  0  0
   38.0750   24.4050   37.5190 C   0  0  0  0  0  3  0  0  0  0  0  0
   38.3840   25.2170   38.2100 H   0  0  0  0  0  0  0  0  0  0  0  0
   38.8970   23.1480   37.7240 C   0  0  0  0  0  3  0  0  0  0  0  0
   38.3090   22.4440   38.3710 H   0  0  0  0  0  0  0  0  0  0  0  0
   39.0450   22.5280   36.5060 O   0  0  0  0  0  0  0  0  0  0  0  0
   38.5800   23.3490   35.5160 C   0  0  0  0  0  3  0  0  0  0  0  0
   37.5620   23.0540   35.1430 H   0  0  0  0  0  0  0  0  0  0  0  0
  1 16  1  0  0  0  0
  2  1  1  0  0  0  0
  3  1  1  0  0  0  0
  4  1  1  0  0  0  0
  4  6  1  0  0  0  0
  5  4  1  0  0  0  0
  7  8  1  0  0  0  0
  7  4  1  0  0  0  0
  8 13  1  0  0  0  0
  9 14  1  0  0  0  0
  9  8  2  0  0  0  0
 10  9  1  0  0  0  0
 11 10  2  0  0  0  0
 11 12  1  0  0  0  0
 12  7  2  0  0  0  0
 15 11  1  0  0  0  0
 16 18  1  0  0  0  0
 18 17  2  6  0  0  0
 18 21  1  0  0  0  0
 18 19  1  0  0  0  0
 19 20  1  0  0  0  0
 22 21  1  6  0  0  0
 22 23  1  0  0  0  0
 23 25  1  0  0  0  0
 23 24  1  0  0  0  0
 25 26  1  0  0  0  0
 27 25  1  0  0  0  0
 28 22  1  0  0  0  0
 28 27  1  0  0  0  0
 29 28  1  0  0  0  0
M  END
>  <minimizedAffinity>
-4.32381392

$$$$

 OpenBabel03262521483D

 29 30  0  0  1  0  0  0  0  0999 V2000
   38.1820   25.1000   33.8280 C   0  0  0  0  0  0  0  0  0  0  0  0
   38.5310   24.0750   33.6840 H   0  0  0  0  0  0  0  0  0  0  0  0
   38.9660   25.7730   33.3900 H   0  0  0  0  0  0  0  0  0  0  0  0
   37.8970   25.4340   35.2550 C   0  0  0  0  0  0  0  0  0  0  0  0
   38.2210   26.4710   35.5290 H   0  0  0  0  0  0  0  0  0  0  0  0
   36.7850   25.4230   35.4380 H   0  0  0  0  0  0  0  0  0  0  0  0
   38.4990   24.5280   36.2260 C   0  0  0  0  0  0  0  0  0  0  0  0
   37.9940   24.3300   37.5040 C   0  0  0  0  0  0  0  0  0  0  0  0
   38.6510   23.4340   38.3580 C   0  0  0  0  0  0  0  0  0  0  0  0
   39.7630   22.8000   37.8810 N   0  0  0  0  0  0  0  0  0  0  0  0
   40.2350   23.0150   36.6200 C   0  0  0  0  0  0  0  0  0  0  0  0
   39.5800   23.8930   35.8030 N   0  0  0  0  0  0  0  0  0  0  0  0
   37.1060   24.8650   37.8220 H   0  0  0  0  0  0  0  0  0  0  0  0
   38.2860   23.2540   39.3600 H   0  0  0  0  0  0  0  0  0  0  0  0
   41.1280   22.4850   36.2830 H   0  0  0  0  0  0  0  0  0  0  0  0
   37.0110   25.3170   33.0940 O   0  0  0  0  0  0  0  0  0  0  0  0
   38.3820   25.4840   30.8800 O   0  0  0  0  0  0  0  0  0  0  0  0
   37.1820   24.7790   31.4930 P   0  0  2  0  0  0  0  0  0  0  0  0
   35.8710   25.2340   30.5400 O   0  0  0  0  0  0  0  0  0  0  0  0
   35.2490   24.4680   30.4650 H   0  0  0  0  0  0  0  0  0  0  0  0
   37.3480   23.1140   31.4170 O   0  0  0  0  0  0  0  0  0  0  0  0
   36.2450   22.5360   32.0040 C   0  0  1  0  0  3  0  0  0  0  0  0
   35.5200   21.5360   31.1340 C   0  0  0  0  0  3  0  0  0  0  0  0
   34.7780   22.0450   30.4860 H   0  0  0  0  0  0  0  0  0  0  0  0
   34.8520   20.6900   32.2000 C   0  0  0  0  0  3  0  0  0  0  0  0
   34.8390   19.6250   31.8480 H   0  0  0  0  0  0  0  0  0  0  0  0
   35.6370   20.7200   33.3280 O   0  0  0  0  0  0  0  0  0  0  0  0
   36.6290   21.6480   33.1690 C   0  0  0  0  0  3  0  0  0  0  0  0
   37.6240   21.1900   32.9210 H   0  0  0  0  0  0  0  0  0  0  0  0
  1  4  1  0  0  0  0
  2  1  1  0  0  0  0
  3  1  1  0  0  0  0
  4  6  1  0  0  0  0
  4  5  1  0  0  0  0
  4  7  1  0  0  0  0
  7  8  1  0  0  0  0
  8 13  1  0  0  0  0
  8  9  2  0  0  0  0
  9 14  1  0  0  0  0
 10  9  1  0  0  0  0
 11 10  2  0  0  0  0
 12  7  2  0  0  0  0
 12 11  1  0  0  0  0
 15 11  1  0  0  0  0
 16  1  1  0  0  0  0
 18 17  2  6  0  0  0
 18 16  1  0  0  0  0
 19 18  1  0  0  0  0
 20 19  1  0  0  0  0
 21 18  1  0  0  0  0
 22 21  1  6  0  0  0
 22 28  1  0  0  0  0
 23 22  1  0  0  0  0
 23 25  1  0  0  0  0
 24 23  1  0  0  0  0
 25 27  1  0  0  0  0
 26 25  1  0  0  0  0
 28 27  1  0  0  0  0
 29 28  1  0  0  0  0
M  END
>  <minimizedAffinity>
-4.26124001

$$$$

 OpenBabel03262521483D

 29 30  0  0  1  0  0  0  0  0999 V2000
   38.8790   26.3080   32.6990 C   0  0  0  0  0  0  0  0  0  0  0  0
   39.0420   25.2460   32.8930 H   0  0  0  0  0  0  0  0  0  0  0  0
   37.7710   26.4510   32.5920 H   0  0  0  0  0  0  0  0  0  0  0  0
   39.6220   26.8140   31.5070 C   0  0  0  0  0  0  0  0  0  0  0  0
   40.5120   27.4360   31.7830 H   0  0  0  0  0  0  0  0  0  0  0  0
   40.0480   25.9480   30.9230 H   0  0  0  0  0  0  0  0  0  0  0  0
   38.8210   27.6020   30.5780 C   0  0  0  0  0  0  0  0  0  0  0  0
   37.6140   28.1960   30.9220 C   0  0  0  0  0  0  0  0  0  0  0  0
   36.9230   28.9340   29.9500 C   0  0  0  0  0  0  0  0  0  0  0  0
   37.4830   29.0280   28.7070 N   0  0  0  0  0  0  0  0  0  0  0  0
   38.6700   28.4340   28.4000 C   0  0  0  0  0  0  0  0  0  0  0  0
   39.3270   27.7190   29.3620 N   0  0  0  0  0  0  0  0  0  0  0  0
   37.2240   28.0830   31.9280 H   0  0  0  0  0  0  0  0  0  0  0  0
   35.9810   29.4110   30.1820 H   0  0  0  0  0  0  0  0  0  0  0  0
   39.0780   28.5370   27.3920 H   0  0  0  0  0  0  0  0  0  0  0  0
   39.2750   27.0670   33.8060 O   0  0  0  0  0  0  0  0  0  0  0  0
   36.9260   27.8860   34.5910 O   0  0  0  0  0  0  0  0  0  0  0  0
   38.1000   27.0250   35.0300 P   0  0  2  0  0  0  0  0  0  0  0  0
   38.6570   27.7310   36.4520 O   0  0  0  0  0  0  0  0  0  0  0  0
   38.9600   27.0180   37.0670 H   0  0  0  0  0  0  0  0  0  0  0  0
   37.6150   25.4560   35.3650 O   0  0  0  0  0  0  0  0  0  0  0  0
   38.4450   24.9380   36.3330 C   0  0  1  0  0  3  0  0  0  0  0  0
   37.7310   24.2250   37.4580 C   0  0  0  0  0  3  0  0  0  0  0  0
   37.4310   24.9430   38.2490 H   0  0  0  0  0  0  0  0  0  0  0  0
   38.8340   23.2980   37.9280 C   0  0  0  0  0  3  0  0  0  0  0  0
   38.3670   22.3270   38.2450 H   0  0  0  0  0  0  0  0  0  0  0  0
   39.6420   23.0100   36.8540 O   0  0  0  0  0  0  0  0  0  0  0  0
   39.2950   23.8060   35.7970 C   0  0  0  0  0  3  0  0  0  0  0  0
   38.6810   23.2690   35.0250 H   0  0  0  0  0  0  0  0  0  0  0  0
  1  2  1  0  0  0  0
  1 16  1  0  0  0  0
  3  1  1  0  0  0  0
  4  5  1  0  0  0  0
  4  1  1  0  0  0  0
  6  4  1  0  0  0  0
  7  8  1  0  0  0  0
  7  4  1  0  0  0  0
  8 13  1  0  0  0  0
  9 14  1  0  0  0  0
  9  8  2  0  0  0  0
 10  9  1  0  0  0  0
 11 10  2  0  0  0  0
 11 12  1  0  0  0  0
 12  7  2  0  0  0  0
 15 11  1  0  0  0  0
 16 18  1  0  0  0  0
 18 17  2  6  0  0  0
 18 21  1  0  0  0  0
 18 19  1  0  0  0  0
 19 20  1  0  0  0  0
 22 21  1  6  0  0  0
 22 23  1  0  0  0  0
 23 25  1  0  0  0  0
 23 24  1  0  0  0  0
 25 26  1  0  0  0  0
 27 25  1  0  0  0  0
 28 22  1  0  0  0  0
 28 27  1  0  0  0  0
 29 28  1  0  0  0  0
M  END
>  <minimizedAffinity>
-4.20747423

$$$$

 OpenBabel03262521483D

 29 30  0  0  1  0  0  0  0  0999 V2000
   40.7890   21.7100   36.9600 C   0  0  0  0  0  0  0  0  0  0  0  0
   40.4650   20.7040   37.2350 H   0  0  0  0  0  0  0  0  0  0  0  0
   40.3350   21.9330   35.9580 H   0  0  0  0  0  0  0  0  0  0  0  0
   42.2730   21.8720   36.9450 C   0  0  0  0  0  0  0  0  0  0  0  0
   42.7140   21.9130   37.9740 H   0  0  0  0  0  0  0  0  0  0  0  0
   42.7530   20.9730   36.4630 H   0  0  0  0  0  0  0  0  0  0  0  0
   42.7510   23.0470   36.2270 C   0  0  0  0  0  0  0  0  0  0  0  0
   43.6680   23.9460   36.7550 C   0  0  0  0  0  0  0  0  0  0  0  0
   44.0610   25.0450   35.9780 C   0  0  0  0  0  0  0  0  0  0  0  0
   43.5150   25.1700   34.7310 N   0  0  0  0  0  0  0  0  0  0  0  0
   42.6170   24.2690   34.2400 C   0  0  0  0  0  0  0  0  0  0  0  0
   42.2470   23.2050   35.0140 N   0  0  0  0  0  0  0  0  0  0  0  0
   44.0640   23.7900   37.7530 H   0  0  0  0  0  0  0  0  0  0  0  0
   44.7730   25.7660   36.3560 H   0  0  0  0  0  0  0  0  0  0  0  0
   42.2070   24.4110   33.2370 H   0  0  0  0  0  0  0  0  0  0  0  0
   40.2640   22.6470   37.8560 O   0  0  0  0  0  0  0  0  0  0  0  0
   38.1360   24.0710   38.3570 O   0  0  0  0  0  0  0  0  0  0  0  0
   38.8830   23.4000   37.2150 P   0  0  2  0  0  0  0  0  0  0  0  0
   37.8010   22.2790   36.5790 O   0  0  0  0  0  0  0  0  0  0  0  0
   37.9240   22.2370   35.5980 H   0  0  0  0  0  0  0  0  0  0  0  0
   39.2820   24.5010   36.0170 O   0  0  0  0  0  0  0  0  0  0  0  0
   38.1900   25.3040   35.7790 C   0  0  1  0  0  3  0  0  0  0  0  0
   38.4320   26.7780   36.0040 C   0  0  0  0  0  3  0  0  0  0  0  0
   38.2640   27.0460   37.0670 H   0  0  0  0  0  0  0  0  0  0  0  0
   37.3650   27.3650   35.1000 C   0  0  0  0  0  3  0  0  0  0  0  0
   37.7710   28.3060   34.6420 H   0  0  0  0  0  0  0  0  0  0  0  0
   37.1470   26.4880   34.0650 O   0  0  0  0  0  0  0  0  0  0  0  0
   37.8110   25.3170   34.3130 C   0  0  0  0  0  3  0  0  0  0  0  0
   38.7630   25.2190   33.7250 H   0  0  0  0  0  0  0  0  0  0  0  0
  1  2  1  0  0  0  0
  1 16  1  0  0  0  0
  3  1  1  0  0  0  0
  4  1  1  0  0  0  0
  4  5  1  0  0  0  0
  6  4  1  0  0  0  0
  7  8  1  0  0  0  0
  7  4  1  0  0  0  0
  8 13  1  0  0  0  0
  9 14  1  0  0  0  0
  9  8  2  0  0  0  0
 10  9  1  0  0  0  0
 11 10  2  0  0  0  0
 11 12  1  0  0  0  0
 12  7  2  0  0  0  0
 15 11  1  0  0  0  0
 18 16  1  0  0  0  0
 18 17  2  1  0  0  0
 19 18  1  0  0  0  0
 20 19  1  0  0  0  0
 21 18  1  0  0  0  0
 22 23  1  0  0  0  0
 22 21  1  6  0  0  0
 23 24  1  0  0  0  0
 25 23  1  0  0  0  0
 26 25  1  0  0  0  0
 27 28  1  0  0  0  0
 27 25  1  0  0  0  0
 28 22  1  0  0  0  0
 29 28  1  0  0  0  0
M  END
>  <minimizedAffinity>
-4.19946623

$$$$

 OpenBabel03262521483D

 29 30  0  0  1  0  0  0  0  0999 V2000
   36.7830   27.9420   34.7030 C   0  0  0  0  0  0  0  0  0  0  0  0
   36.1850   27.3920   35.4330 H   0  0  0  0  0  0  0  0  0  0  0  0
   37.6330   28.4100   35.2680 H   0  0  0  0  0  0  0  0  0  0  0  0
   35.9990   28.9580   33.9390 C   0  0  0  0  0  0  0  0  0  0  0  0
   36.6190   29.4990   33.1790 H   0  0  0  0  0  0  0  0  0  0  0  0
   35.1910   28.4490   33.3400 H   0  0  0  0  0  0  0  0  0  0  0  0
   35.3480   29.9700   34.7610 C   0  0  0  0  0  0  0  0  0  0  0  0
   36.0410   30.8710   35.5590 C   0  0  0  0  0  0  0  0  0  0  0  0
   35.3150   31.8050   36.3100 C   0  0  0  0  0  0  0  0  0  0  0  0
   33.9520   31.7780   36.2130 N   0  0  0  0  0  0  0  0  0  0  0  0
   33.3000   30.8810   35.4200 C   0  0  0  0  0  0  0  0  0  0  0  0
   34.0270   29.9790   34.6960 N   0  0  0  0  0  0  0  0  0  0  0  0
   37.1250   30.8400   35.5920 H   0  0  0  0  0  0  0  0  0  0  0  0
   35.8200   32.5220   36.9430 H   0  0  0  0  0  0  0  0  0  0  0  0
   32.2080   30.8980   35.3750 H   0  0  0  0  0  0  0  0  0  0  0  0
   37.3530   27.0570   33.7820 O   0  0  0  0  0  0  0  0  0  0  0  0
   39.2900   26.9960   35.5300 O   0  0  0  0  0  0  0  0  0  0  0  0
   38.5800   26.1290   34.5020 P   0  0  2  0  0  0  0  0  0  0  0  0
   39.7690   25.7000   33.3910 O   0  0  0  0  0  0  0  0  0  0  0  0
   39.5980   24.7760   33.0810 H   0  0  0  0  0  0  0  0  0  0  0  0
   37.9680   24.7340   35.1990 O   0  0  0  0  0  0  0  0  0  0  0  0
   38.6210   24.5160   36.3910 C   0  0  1  0  0  3  0  0  0  0  0  0
   37.7190   24.1330   37.5410 C   0  0  0  0  0  3  0  0  0  0  0  0
   37.3200   25.0380   38.0450 H   0  0  0  0  0  0  0  0  0  0  0  0
   38.7060   23.3890   38.4180 C   0  0  0  0  0  3  0  0  0  0  0  0
   38.1660   22.5380   38.9130 H   0  0  0  0  0  0  0  0  0  0  0  0
   39.6630   22.8270   37.6070 O   0  0  0  0  0  0  0  0  0  0  0  0
   39.5100   23.2930   36.3300 C   0  0  0  0  0  3  0  0  0  0  0  0
   39.0080   22.5540   35.6500 H   0  0  0  0  0  0  0  0  0  0  0  0
  1  3  1  0  0  0  0
  1  2  1  0  0  0  0
  4  1  1  0  0  0  0
  4  7  1  0  0  0  0
  5  4  1  0  0  0  0
  6  4  1  0  0  0  0
  7  8  1  0  0  0  0
  8 13  1  0  0  0  0
  8  9  2  0  0  0  0
  9 14  1  0  0  0  0
 10  9  1  0  0  0  0
 11 10  2  0  0  0  0
 12  7  2  0  0  0  0
 12 11  1  0  0  0  0
 15 11  1  0  0  0  0
 16 18  1  0  0  0  0
 16  1  1  0  0  0  0
 18 21  1  0  0  0  0
 18 17  2  1  0  0  0
 19 18  1  0  0  0  0
 20 19  1  0  0  0  0
 22 21  1  6  0  0  0
 22 23  1  0  0  0  0
 23 24  1  0  0  0  0
 23 25  1  0  0  0  0
 25 26  1  0  0  0  0
 27 25  1  0  0  0  0
 28 22  1  0  0  0  0
 28 27  1  0  0  0  0
 29 28  1  0  0  0  0
M  END
>  <minimizedAffinity>
-4.18050003

$$$$

 OpenBabel03262521483D

 29 30  0  0  1  0  0  0  0  0999 V2000
   37.7670   25.3560   35.9880 C   0  0  0  0  0  0  0  0  0  0  0  0
   37.9080   24.6720   35.1490 H   0  0  0  0  0  0  0  0  0  0  0  0
   36.6840   25.2970   36.2750 H   0  0  0  0  0  0  0  0  0  0  0  0
   38.1880   26.7570   35.6890 C   0  0  0  0  0  0  0  0  0  0  0  0
   37.3210   27.4330   35.4760 H   0  0  0  0  0  0  0  0  0  0  0  0
   38.6880   27.2090   36.5930 H   0  0  0  0  0  0  0  0  0  0  0  0
   39.1180   26.8900   34.5750 C   0  0  0  0  0  0  0  0  0  0  0  0
   38.7150   27.0170   33.2520 C   0  0  0  0  0  0  0  0  0  0  0  0
   39.6950   27.1380   32.2570 C   0  0  0  0  0  0  0  0  0  0  0  0
   41.0040   27.1260   32.6480 N   0  0  0  0  0  0  0  0  0  0  0  0
   41.3680   27.0010   33.9550 C   0  0  0  0  0  0  0  0  0  0  0  0
   40.3980   26.8830   34.9100 N   0  0  0  0  0  0  0  0  0  0  0  0
   37.6580   27.0190   33.0080 H   0  0  0  0  0  0  0  0  0  0  0  0
   39.4180   27.2390   31.2160 H   0  0  0  0  0  0  0  0  0  0  0  0
   42.4280   26.9960   34.2200 H   0  0  0  0  0  0  0  0  0  0  0  0
   38.4990   24.9150   37.0960 O   0  0  0  0  0  0  0  0  0  0  0  0
   37.0180   22.7710   36.9580 O   0  0  0  0  0  0  0  0  0  0  0  0
   38.4430   23.2230   37.2350 P   0  0  2  0  0  0  0  0  0  0  0  0
   38.7690   22.7160   38.8060 O   0  0  0  0  0  0  0  0  0  0  0  0
   39.7170   22.4380   38.8620 H   0  0  0  0  0  0  0  0  0  0  0  0
   39.5310   22.4850   36.1960 O   0  0  0  0  0  0  0  0  0  0  0  0
   40.6410   23.2890   36.0790 C   0  0  1  0  0  3  0  0  0  0  0  0
   41.8760   22.7620   36.7720 C   0  0  0  0  0  3  0  0  0  0  0  0
   41.8910   23.0740   37.8370 H   0  0  0  0  0  0  0  0  0  0  0  0
   42.9530   23.4590   35.9650 C   0  0  0  0  0  3  0  0  0  0  0  0
   43.8280   22.7620   35.8700 H   0  0  0  0  0  0  0  0  0  0  0  0
   42.4750   23.6610   34.6930 O   0  0  0  0  0  0  0  0  0  0  0  0
   41.1420   23.3520   34.6520 C   0  0  0  0  0  3  0  0  0  0  0  0
   40.9380   22.3500   34.1860 H   0  0  0  0  0  0  0  0  0  0  0  0
  1  3  1  0  0  0  0
  1 16  1  0  0  0  0
  2  1  1  0  0  0  0
  4  1  1  0  0  0  0
  4  6  1  0  0  0  0
  5  4  1  0  0  0  0
  7 12  1  0  0  0  0
  7  4  1  0  0  0  0
  8  7  2  0  0  0  0
  9 10  2  0  0  0  0
  9  8  1  0  0  0  0
 10 11  1  0  0  0  0
 11 15  1  0  0  0  0
 11 12  2  0  0  0  0
 13  8  1  0  0  0  0
 14  9  1  0  0  0  0
 16 18  1  0  0  0  0
 18 17  2  6  0  0  0
 18 19  1  0  0  0  0
 19 20  1  0  0  0  0
 21 18  1  0  0  0  0
 22 21  1  6  0  0  0
 22 23  1  0  0  0  0
 23 24  1  0  0  0  0
 25 23  1  0  0  0  0
 26 25  1  0  0  0  0
 27 25  1  0  0  0  0
 28 27  1  0  0  0  0
 28 22  1  0  0  0  0
 29 28  1  0  0  0  0
M  END
>  <minimizedAffinity>
-4.10292912

$$$$

 OpenBabel03262521483D

 29 30  0  0  1  0  0  0  0  0999 V2000
   38.3940   24.9850   33.6730 C   0  0  0  0  0  0  0  0  0  0  0  0
   39.3050   24.3830   33.6530 H   0  0  0  0  0  0  0  0  0  0  0  0
   38.6060   25.9120   33.0770 H   0  0  0  0  0  0  0  0  0  0  0  0
   37.9240   25.3060   35.0520 C   0  0  0  0  0  0  0  0  0  0  0  0
   38.1240   26.3700   35.3410 H   0  0  0  0  0  0  0  0  0  0  0  0
   36.8030   25.2000   35.1110 H   0  0  0  0  0  0  0  0  0  0  0  0
   38.4880   24.4640   36.1010 C   0  0  0  0  0  0  0  0  0  0  0  0
   37.9350   24.3480   37.3690 C   0  0  0  0  0  0  0  0  0  0  0  0
   38.5590   23.5090   38.3030 C   0  0  0  0  0  0  0  0  0  0  0  0
   39.6870   22.8460   37.9080 N   0  0  0  0  0  0  0  0  0  0  0  0
   40.2050   22.9800   36.6550 C   0  0  0  0  0  0  0  0  0  0  0  0
   39.5820   23.8040   35.7600 N   0  0  0  0  0  0  0  0  0  0  0  0
   37.0370   24.9030   37.6200 H   0  0  0  0  0  0  0  0  0  0  0  0
   38.1570   23.3930   39.3000 H   0  0  0  0  0  0  0  0  0  0  0  0
   41.1090   22.4300   36.3850 H   0  0  0  0  0  0  0  0  0  0  0  0
   37.3600   24.3130   33.0120 O   0  0  0  0  0  0  0  0  0  0  0  0
   35.3840   25.0400   31.4710 O   0  0  0  0  0  0  0  0  0  0  0  0
   36.8960   25.1370   31.6010 P   0  0  2  0  0  0  0  0  0  0  0  0
   37.5060   24.3960   30.2180 O   0  0  0  0  0  0  0  0  0  0  0  0
   38.3200   24.8780   29.9300 H   0  0  0  0  0  0  0  0  0  0  0  0
   37.4060   26.7330   31.6240 O   0  0  0  0  0  0  0  0  0  0  0  0
   36.3110   27.5400   31.8350 C   0  0  1  0  0  3  0  0  0  0  0  0
   36.3320   28.3000   33.1410 C   0  0  0  0  0  3  0  0  0  0  0  0
   35.9050   27.6850   33.9590 H   0  0  0  0  0  0  0  0  0  0  0  0
   35.4330   29.4670   32.7850 C   0  0  0  0  0  3  0  0  0  0  0  0
   35.8230   30.3830   33.3040 H   0  0  0  0  0  0  0  0  0  0  0  0
   35.5480   29.7030   31.4360 O   0  0  0  0  0  0  0  0  0  0  0  0
   36.2660   28.6930   30.8560 C   0  0  0  0  0  3  0  0  0  0  0  0
   37.3290   28.9810   30.6360 H   0  0  0  0  0  0  0  0  0  0  0  0
  1  4  1  0  0  0  0
  2  1  1  0  0  0  0
  3  1  1  0  0  0  0
  4  6  1  0  0  0  0
  4  5  1  0  0  0  0
  4  7  1  0  0  0  0
  7  8  1  0  0  0  0
  8 13  1  0  0  0  0
  8  9  2  0  0  0  0
  9 14  1  0  0  0  0
 10  9  1  0  0  0  0
 11 10  2  0  0  0  0
 12  7  2  0  0  0  0
 12 11  1  0  0  0  0
 15 11  1  0  0  0  0
 16  1  1  0  0  0  0
 18 17  2  6  0  0  0
 18 21  1  0  0  0  0
 18 16  1  0  0  0  0
 19 18  1  0  0  0  0
 20 19  1  0  0  0  0
 22 21  1  6  0  0  0
 22 23  1  0  0  0  0
 23 24  1  0  0  0  0
 25 23  1  0  0  0  0
 25 26  1  0  0  0  0
 27 25  1  0  0  0  0
 28 27  1  0  0  0  0
 28 22  1  0  0  0  0
 29 28  1  0  0  0  0
M  END
>  <minimizedAffinity>
-4.09418821

$$$$
