
 OpenBabel03272509433D

 37 39  0  0  1  0  0  0  0  0999 V2000
   37.0950   30.9470   49.0040 C   0  0  0  0  0  0  0  0  0  0  0  0
   36.8420   31.8670   50.0250 C   0  0  0  0  0  0  0  0  0  0  0  0
   37.4440   33.1180   50.0450 C   0  0  0  0  0  0  0  0  0  0  0  0
   38.3260   33.4720   49.0220 C   0  0  0  0  0  0  0  0  0  0  0  0
   38.5650   32.5640   48.0300 C   0  0  0  0  0  0  0  0  0  0  0  0
   37.9460   31.3220   48.0430 C   0  0  0  0  0  0  0  0  0  0  0  0
   36.1520   31.5770   50.8150 H   0  0  0  0  0  0  0  0  0  0  0  0
   37.1920   33.7540   50.8630 H   0  0  0  0  0  0  0  0  0  0  0  0
   38.7440   34.4570   49.1190 H   0  0  0  0  0  0  0  0  0  0  0  0
   39.2700   32.9790   47.3130 H   0  0  0  0  0  0  0  0  0  0  0  0
   36.4970   29.6300   49.0000 C   0  0  2  0  0  0  0  0  0  0  0  0
   36.9970   29.0720   48.1180 H   0  0  0  0  0  0  0  0  0  0  0  0
   33.6080   30.0340   46.8340 C   0  0  0  0  0  0  0  0  0  0  0  0
   32.8890   28.8670   47.0130 C   0  0  0  0  0  0  0  0  0  0  0  0
   33.3590   27.9500   47.9330 C   0  0  0  0  0  0  0  0  0  0  0  0
   34.5130   28.2220   48.6340 N   0  0  0  0  0  0  0  0  0  0  0  0
   35.1550   29.3530   48.4150 C   0  0  0  0  0  0  0  0  0  0  0  0
   34.7100   30.2650   47.5210 N   0  0  0  0  0  0  0  0  0  0  0  0
   33.2030   30.7220   46.1040 H   0  0  0  0  0  0  0  0  0  0  0  0
   31.9850   28.5610   46.5200 H   0  0  0  0  0  0  0  0  0  0  0  0
   32.9040   27.0010   48.1800 H   0  0  0  0  0  0  0  0  0  0  0  0
   36.9560   28.8770   49.9370 O   0  0  0  0  0  0  0  0  0  0  0  0
   36.4770   28.1010   50.2790 H   0  0  0  0  0  0  0  0  0  0  0  0
   38.3090   30.4470   46.9510 C   0  0  0  0  0  3  0  0  0  0  0  0
   39.0290   30.8350   45.8920 C   0  0  0  0  0  3  0  0  0  0  0  0
   39.4920   30.0240   44.7450 C   0  0  0  0  0  0  0  0  0  0  0  0
   40.5990   29.9720   44.8020 H   0  0  0  0  0  0  0  0  0  0  0  0
   39.0970   28.9770   44.7920 H   0  0  0  0  0  0  0  0  0  0  0  0
   39.0250   30.8280   43.2070 S   0  0  0  0  0  0  0  0  0  0  0  0
   37.2390   31.1160   43.2520 C   0  0  1  0  0  3  0  0  0  0  0  0
   36.8720   32.5640   43.4130 C   0  0  0  0  0  3  0  0  0  0  0  0
   37.7010   33.2690   43.1670 H   0  0  0  0  0  0  0  0  0  0  0  0
   35.6820   32.6990   42.5220 C   0  0  0  0  0  3  0  0  0  0  0  0
   34.7360   32.6530   43.1030 H   0  0  0  0  0  0  0  0  0  0  0  0
   35.6600   31.6780   41.6120 O   0  0  0  0  0  0  0  0  0  0  0  0
   36.6760   30.8020   41.8870 C   0  0  0  0  0  3  0  0  0  0  0  0
   37.4920   30.8640   41.1100 H   0  0  0  0  0  0  0  0  0  0  0  0
  1  2  1  0  0  0  0
  2  3  2  0  0  0  0
  2  7  1  0  0  0  0
  3  8  1  0  0  0  0
  4  9  1  0  0  0  0
  4  3  1  0  0  0  0
  5  6  1  0  0  0  0
  5  4  2  0  0  0  0
  6  1  2  0  0  0  0
 10  5  1  0  0  0  0
 11 12  1  6  0  0  0
 11  1  1  0  0  0  0
 11 22  1  0  0  0  0
 13 14  2  0  0  0  0
 13 18  1  0  0  0  0
 14 15  1  0  0  0  0
 15 21  1  0  0  0  0
 15 16  2  0  0  0  0
 17 16  1  0  0  0  0
 17 11  1  0  0  0  0
 18 17  2  0  0  0  0
 19 13  1  0  0  0  0
 20 14  1  0  0  0  0
 22 23  1  0  0  0  0
 24  6  1  0  0  0  0
 25 24  2  0  0  0  0
 26 28  1  0  0  0  0
 26 27  1  0  0  0  0
 26 25  1  0  0  0  0
 29 26  1  0  0  0  0
 30 29  1  6  0  0  0
 30 31  1  0  0  0  0
 32 31  1  0  0  0  0
 33 34  1  0  0  0  0
 33 31  1  0  0  0  0
 35 36  1  0  0  0  0
 35 33  1  0  0  0  0
 36 30  1  0  0  0  0
 37 36  1  0  0  0  0
M  END
>  <minimizedAffinity>
-5.42645979

>  <minimizedRMSD>
0.425956547

$$$$
