
 OpenBabel03262521533D

 22 23  0  0  1  0  0  0  0  0999 V2000
   35.4140   29.5360   50.3750 C   0  0  0  0  0  0  0  0  0  0  0  0
   34.9870   30.5190   50.0460 H   0  0  0  0  0  0  0  0  0  0  0  0
   35.0590   29.3570   51.4280 H   0  0  0  0  0  0  0  0  0  0  0  0
   37.2000   29.5190   50.3970 S   0  0  0  0  0  0  0  0  0  0  0  0
   37.8170   30.6440   49.1750 C   0  0  0  0  0  0  0  0  0  0  0  0
   38.2140   31.8810   49.6740 C   0  0  0  0  0  0  0  0  0  0  0  0
   38.7140   32.8300   48.7680 C   0  0  0  0  0  0  0  0  0  0  0  0
   38.7830   32.4820   47.4340 N   0  0  0  0  0  0  0  0  0  0  0  0
   38.3860   31.2740   47.0150 C   0  0  0  0  0  0  0  0  0  0  0  0
   37.9090   30.3680   47.8690 N   0  0  0  0  0  0  0  0  0  0  0  0
   38.2000   32.2420   50.6760 H   0  0  0  0  0  0  0  0  0  0  0  0
   39.0430   33.8120   49.0650 H   0  0  0  0  0  0  0  0  0  0  0  0
   38.4640   31.0560   45.9570 H   0  0  0  0  0  0  0  0  0  0  0  0
   34.7010   28.2160   49.3580 S   0  0  0  0  0  0  0  0  0  0  0  0
   34.1640   28.7420   47.7490 C   0  0  2  0  0  0  0  0  0  0  0  0
   34.2130   30.2380   47.5190 C   0  0  0  0  0  0  0  0  0  0  0  0
   35.2420   30.5690   47.2730 H   0  0  0  0  0  0  0  0  0  0  0  0
   33.3010   30.3250   46.2960 C   0  0  0  0  0  0  0  0  0  0  0  0
   32.9230   31.3380   46.1050 H   0  0  0  0  0  0  0  0  0  0  0  0
   32.3240   29.3610   46.4490 O   0  0  0  0  0  0  0  0  0  0  0  0
   32.7220   28.4600   47.4240 C   0  0  0  0  0  0  0  0  0  0  0  0
   32.0950   28.6140   48.3120 H   0  0  0  0  0  0  0  0  0  0  0  0
  1  4  1  0  0  0  0
  1  3  1  0  0  0  0
  2  1  1  0  0  0  0
  5  6  1  0  0  0  0
  5  4  1  0  0  0  0
  6 11  1  0  0  0  0
  7 12  1  0  0  0  0
  7  6  2  0  0  0  0
  8  7  1  0  0  0  0
  9  8  2  0  0  0  0
  9 10  1  0  0  0  0
 10  5  2  0  0  0  0
 13  9  1  0  0  0  0
 14  1  1  0  0  0  0
 15 14  1  1  0  0  0
 16 15  1  0  0  0  0
 17 16  1  0  0  0  0
 18 20  1  0  0  0  0
 18 16  1  0  0  0  0
 19 18  1  0  0  0  0
 20 21  1  0  0  0  0
 21 15  1  0  0  0  0
 21 22  1  0  0  0  0
M  END
>  <minimizedAffinity>
-4.00636244

>  <minimizedRMSD>
2.30708933

$$$$
