
 OpenBabel03272509433D

 37 39  0  0  1  0  0  0  0  0999 V2000
   37.0310   30.9220   49.0360 C   0  0  0  0  0  0  0  0  0  0  0  0
   36.7430   31.8060   50.0790 C   0  0  0  0  0  0  0  0  0  0  0  0
   37.3360   33.0590   50.1570 C   0  0  0  0  0  0  0  0  0  0  0  0
   38.2440   33.4510   49.1720 C   0  0  0  0  0  0  0  0  0  0  0  0
   38.5160   32.5770   48.1580 C   0  0  0  0  0  0  0  0  0  0  0  0
   37.9050   31.3330   48.1130 C   0  0  0  0  0  0  0  0  0  0  0  0
   36.0330   31.4870   50.8390 H   0  0  0  0  0  0  0  0  0  0  0  0
   37.0570   33.6660   50.9880 H   0  0  0  0  0  0  0  0  0  0  0  0
   38.6530   34.4340   49.3120 H   0  0  0  0  0  0  0  0  0  0  0  0
   39.2390   33.0200   47.4740 H   0  0  0  0  0  0  0  0  0  0  0  0
   36.4410   29.6020   48.9720 C   0  0  2  0  0  0  0  0  0  0  0  0
   36.9690   29.0760   48.0860 H   0  0  0  0  0  0  0  0  0  0  0  0
   33.5790   30.1020   46.7920 C   0  0  0  0  0  0  0  0  0  0  0  0
   32.8910   28.9060   46.8620 C   0  0  0  0  0  0  0  0  0  0  0  0
   33.3710   27.9290   47.7130 C   0  0  0  0  0  0  0  0  0  0  0  0
   34.5050   28.1750   48.4550 N   0  0  0  0  0  0  0  0  0  0  0  0
   35.1180   29.3370   48.3410 C   0  0  0  0  0  0  0  0  0  0  0  0
   34.6620   30.3070   47.5160 N   0  0  0  0  0  0  0  0  0  0  0  0
   33.1660   30.8370   46.1120 H   0  0  0  0  0  0  0  0  0  0  0  0
   32.0040   28.6170   46.3280 H   0  0  0  0  0  0  0  0  0  0  0  0
   32.9400   26.9520   47.8730 H   0  0  0  0  0  0  0  0  0  0  0  0
   36.8800   28.8210   49.8960 O   0  0  0  0  0  0  0  0  0  0  0  0
   36.3960   28.0310   50.1990 H   0  0  0  0  0  0  0  0  0  0  0  0
   38.3050   30.4970   47.0030 C   0  0  0  0  0  3  0  0  0  0  0  0
   39.0240   30.9310   45.9630 C   0  0  0  0  0  3  0  0  0  0  0  0
   39.5230   30.1620   44.8000 C   0  0  0  0  0  0  0  0  0  0  0  0
   40.5020   29.7270   45.0870 H   0  0  0  0  0  0  0  0  0  0  0  0
   38.8360   29.3180   44.5370 H   0  0  0  0  0  0  0  0  0  0  0  0
   39.7630   31.2660   43.4030 S   0  0  0  0  0  0  0  0  0  0  0  0
   38.1820   31.4160   42.5350 C   0  0  1  0  0  3  0  0  0  0  0  0
   37.2170   30.3110   42.8590 C   0  0  0  0  0  3  0  0  0  0  0  0
   37.4680   29.7520   43.7910 H   0  0  0  0  0  0  0  0  0  0  0  0
   35.9090   31.0280   42.9180 C   0  0  0  0  0  3  0  0  0  0  0  0
   35.3410   30.9090   41.9710 H   0  0  0  0  0  0  0  0  0  0  0  0
   36.1160   32.3660   43.1120 O   0  0  0  0  0  0  0  0  0  0  0  0
   37.4610   32.6280   43.0760 C   0  0  0  0  0  3  0  0  0  0  0  0
   37.8560   32.8850   44.1010 H   0  0  0  0  0  0  0  0  0  0  0  0
  1  2  1  0  0  0  0
  2  3  2  0  0  0  0
  2  7  1  0  0  0  0
  3  8  1  0  0  0  0
  4  9  1  0  0  0  0
  4  3  1  0  0  0  0
  5  4  2  0  0  0  0
  6  5  1  0  0  0  0
  6  1  2  0  0  0  0
 10  5  1  0  0  0  0
 11 12  1  6  0  0  0
 11  1  1  0  0  0  0
 11 22  1  0  0  0  0
 13 14  2  0  0  0  0
 13 18  1  0  0  0  0
 14 15  1  0  0  0  0
 15 21  1  0  0  0  0
 15 16  2  0  0  0  0
 17 16  1  0  0  0  0
 17 11  1  0  0  0  0
 18 17  2  0  0  0  0
 19 13  1  0  0  0  0
 20 14  1  0  0  0  0
 22 23  1  0  0  0  0
 24  6  1  0  0  0  0
 25 24  2  0  0  0  0
 26 27  1  0  0  0  0
 26 25  1  0  0  0  0
 28 26  1  0  0  0  0
 29 26  1  0  0  0  0
 30 31  1  0  0  0  0
 30 36  1  0  0  0  0
 30 29  1  1  0  0  0
 31 33  1  0  0  0  0
 31 32  1  0  0  0  0
 33 35  1  0  0  0  0
 34 33  1  0  0  0  0
 36 35  1  0  0  0  0
 36 37  1  0  0  0  0
M  END
>  <minimizedAffinity>
-5.53457785

>  <minimizedRMSD>
0.558492243

$$$$
