
 OpenBabel03272503423D

 40 43  0  0  1  0  0  0  0  0999 V2000
   38.3630   31.1730   45.8800 C   0  0  0  0  0  0  0  0  0  0  0  0
   39.7050   31.0220   46.0960 C   0  0  0  0  0  0  0  0  0  0  0  0
   40.3000   31.4500   44.8980 C   0  0  0  0  0  0  0  0  0  0  0  0
   39.3390   31.8260   44.0430 N   0  0  0  0  0  0  0  0  0  0  0  0
   38.1610   31.6570   44.6400 N   0  0  0  0  0  0  0  0  0  0  0  0
   40.2360   30.6620   46.9690 H   0  0  0  0  0  0  0  0  0  0  0  0
   41.3760   31.4430   44.7740 H   0  0  0  0  0  0  0  0  0  0  0  0
   39.6610   31.1740   41.7170 C   0  0  2  0  0  0  0  0  0  0  0  0
   39.6240   32.3180   42.7190 C   0  0  1  0  0  0  0  0  0  0  0  0
   38.4650   33.0930   42.1260 C   0  0  0  0  0  0  0  0  0  0  0  0
   38.5470   32.9780   40.7600 O   0  0  0  0  0  0  0  0  0  0  0  0
   39.4340   31.9990   40.4320 C   0  0  0  0  0  0  0  0  0  0  0  0
   40.6050   30.6540   41.6460 H   0  0  0  0  0  0  0  0  0  0  0  0
   40.5180   32.9330   42.7010 H   0  0  0  0  0  0  0  0  0  0  0  0
   37.5140   32.5790   42.4190 H   0  0  0  0  0  0  0  0  0  0  0  0
   38.4810   34.1460   42.4250 H   0  0  0  0  0  0  0  0  0  0  0  0
   39.0520   31.2800   39.6700 H   0  0  0  0  0  0  0  0  0  0  0  0
   40.4150   32.4220   40.1100 H   0  0  0  0  0  0  0  0  0  0  0  0
   38.5530   30.3900   41.9370 O   0  0  0  0  0  0  0  0  0  0  0  0
   38.7460   29.0550   41.9740 C   0  0  1  0  0  3  0  0  0  0  0  0
   38.6160   28.3160   40.6630 C   0  0  0  0  0  3  0  0  0  0  0  0
   39.2440   28.7520   39.8730 H   0  0  0  0  0  0  0  0  0  0  0  0
   39.2380   26.9970   41.0890 C   0  0  0  0  0  3  0  0  0  0  0  0
   38.4140   26.4280   41.6000 H   0  0  0  0  0  0  0  0  0  0  0  0
   40.2000   27.2670   42.0280 O   0  0  0  0  0  0  0  0  0  0  0  0
   40.1000   28.5880   42.4100 C   0  0  0  0  0  3  0  0  0  0  0  0
   40.9370   29.1230   41.9470 H   0  0  0  0  0  0  0  0  0  0  0  0
   36.4840   30.6290   49.0810 C   0  0  0  0  0  0  0  0  0  0  0  0
   37.4990   30.9390   48.2090 C   0  0  0  0  0  0  0  0  0  0  0  0
   37.3250   30.8570   46.8440 C   0  0  0  0  0  0  0  0  0  0  0  0
   36.1140   30.4580   46.4090 N   0  0  0  0  0  0  0  0  0  0  0  0
   35.1070   30.1510   47.2800 C   0  0  0  0  0  0  0  0  0  0  0  0
   35.2760   30.2310   48.5840 N   0  0  0  0  0  0  0  0  0  0  0  0
   38.5020   31.2680   48.5220 H   0  0  0  0  0  0  0  0  0  0  0  0
   34.1460   29.8340   46.8720 H   0  0  0  0  0  0  0  0  0  0  0  0
   36.8290   30.7650   50.4150 O   0  0  0  0  0  0  0  0  0  0  0  0
   36.8890   29.6880   51.3240 C   0  0  0  0  0  0  0  0  0  0  0  0
   35.6090   29.2430   51.6440 F   0  0  0  0  0  0  0  0  0  0  0  0
   37.5670   30.0940   52.4460 F   0  0  0  0  0  0  0  0  0  0  0  0
   37.6060   28.6720   50.7340 F   0  0  0  0  0  0  0  0  0  0  0  0
  1  2  1  0  0  0  0
  1 30  1  0  0  0  0
  2  6  1  0  0  0  0
  3  2  2  0  0  0  0
  4  5  1  0  0  0  0
  4  3  1  0  0  0  0
  5  1  2  0  0  0  0
  7  3  1  0  0  0  0
  8 13  1  1  0  0  0
  8 19  1  0  0  0  0
  8  9  1  0  0  0  0
  9 14  1  6  0  0  0
  9  4  1  0  0  0  0
 10 15  1  0  0  0  0
 10 16  1  0  0  0  0
 10  9  1  0  0  0  0
 11 10  1  0  0  0  0
 12 11  1  0  0  0  0
 12  8  1  0  0  0  0
 17 12  1  0  0  0  0
 18 12  1  0  0  0  0
 20 19  1  6  0  0  0
 20 26  1  0  0  0  0
 21 23  1  0  0  0  0
 21 20  1  0  0  0  0
 22 21  1  0  0  0  0
 23 24  1  0  0  0  0
 23 25  1  0  0  0  0
 25 26  1  0  0  0  0
 27 26  1  0  0  0  0
 28 36  1  0  0  0  0
 29 34  1  0  0  0  0
 29 28  2  0  0  0  0
 30 29  1  0  0  0  0
 31 30  2  0  0  0  0
 31 32  1  0  0  0  0
 32 33  2  0  0  0  0
 33 28  1  0  0  0  0
 35 32  1  0  0  0  0
 36 37  1  0  0  0  0
 37 38  1  0  0  0  0
 37 39  1  0  0  0  0
 40 37  1  0  0  0  0
M  END
>  <minimizedAffinity>
-6.01082277

>  <minimizedRMSD>
0.499483913

$$$$
