
 OpenBabel03272503423D

 40 43  0  0  1  0  0  0  0  0999 V2000
   38.3910   31.2040   45.8940 C   0  0  0  0  0  0  0  0  0  0  0  0
   39.7340   31.1320   46.1420 C   0  0  0  0  0  0  0  0  0  0  0  0
   40.3310   31.5470   44.9420 C   0  0  0  0  0  0  0  0  0  0  0  0
   39.3720   31.8400   44.0540 N   0  0  0  0  0  0  0  0  0  0  0  0
   38.1910   31.6320   44.6340 N   0  0  0  0  0  0  0  0  0  0  0  0
   40.2630   30.8310   47.0390 H   0  0  0  0  0  0  0  0  0  0  0  0
   41.4090   31.5910   44.8400 H   0  0  0  0  0  0  0  0  0  0  0  0
   39.9920   31.1260   41.8080 C   0  0  2  0  0  0  0  0  0  0  0  0
   39.6590   32.2980   42.7190 C   0  0  1  0  0  0  0  0  0  0  0  0
   38.4240   32.7950   41.9970 C   0  0  0  0  0  0  0  0  0  0  0  0
   38.6330   32.6170   40.6510 O   0  0  0  0  0  0  0  0  0  0  0  0
   39.7120   31.8120   40.4540 C   0  0  0  0  0  0  0  0  0  0  0  0
   41.0200   30.7970   41.8370 H   0  0  0  0  0  0  0  0  0  0  0  0
   40.4190   33.0740   42.7130 H   0  0  0  0  0  0  0  0  0  0  0  0
   37.5680   32.1240   42.2650 H   0  0  0  0  0  0  0  0  0  0  0  0
   38.2160   33.8470   42.2170 H   0  0  0  0  0  0  0  0  0  0  0  0
   39.5350   30.9880   39.7240 H   0  0  0  0  0  0  0  0  0  0  0  0
   40.6170   32.3980   40.1650 H   0  0  0  0  0  0  0  0  0  0  0  0
   39.0390   30.1550   42.0130 O   0  0  0  0  0  0  0  0  0  0  0  0
   39.4770   28.8840   42.1270 C   0  0  1  0  0  3  0  0  0  0  0  0
   38.9800   28.1020   43.3200 C   0  0  0  0  0  3  0  0  0  0  0  0
   37.8820   28.1160   43.4030 H   0  0  0  0  0  0  0  0  0  0  0  0
   39.4010   26.7130   42.8660 C   0  0  0  0  0  3  0  0  0  0  0  0
   40.4870   26.6250   43.1420 H   0  0  0  0  0  0  0  0  0  0  0  0
   39.3160   26.6720   41.4990 O   0  0  0  0  0  0  0  0  0  0  0  0
   39.1040   27.9470   41.0210 C   0  0  0  0  0  3  0  0  0  0  0  0
   38.0560   28.0060   40.7070 H   0  0  0  0  0  0  0  0  0  0  0  0
   36.4930   30.6230   49.0780 C   0  0  0  0  0  0  0  0  0  0  0  0
   37.5110   30.9510   48.2150 C   0  0  0  0  0  0  0  0  0  0  0  0
   37.3490   30.8700   46.8480 C   0  0  0  0  0  0  0  0  0  0  0  0
   36.1480   30.4540   46.4030 N   0  0  0  0  0  0  0  0  0  0  0  0
   35.1390   30.1290   47.2640 C   0  0  0  0  0  0  0  0  0  0  0  0
   35.2960   30.2070   48.5690 N   0  0  0  0  0  0  0  0  0  0  0  0
   38.5060   31.2940   48.5380 H   0  0  0  0  0  0  0  0  0  0  0  0
   34.1870   29.7990   46.8470 H   0  0  0  0  0  0  0  0  0  0  0  0
   36.8250   30.7600   50.4150 O   0  0  0  0  0  0  0  0  0  0  0  0
   36.8830   29.6830   51.3240 C   0  0  0  0  0  0  0  0  0  0  0  0
   35.6040   29.2360   51.6400 F   0  0  0  0  0  0  0  0  0  0  0  0
   37.5580   30.0890   52.4480 F   0  0  0  0  0  0  0  0  0  0  0  0
   37.6040   28.6680   50.7370 F   0  0  0  0  0  0  0  0  0  0  0  0
  1  2  1  0  0  0  0
  1 30  1  0  0  0  0
  2  6  1  0  0  0  0
  3  2  2  0  0  0  0
  4  5  1  0  0  0  0
  4  3  1  0  0  0  0
  5  1  2  0  0  0  0
  7  3  1  0  0  0  0
  8 13  1  1  0  0  0
  8 19  1  0  0  0  0
  8  9  1  0  0  0  0
  9 14  1  6  0  0  0
  9  4  1  0  0  0  0
 10 16  1  0  0  0  0
 10 15  1  0  0  0  0
 10  9  1  0  0  0  0
 11 10  1  0  0  0  0
 12 11  1  0  0  0  0
 12  8  1  0  0  0  0
 17 12  1  0  0  0  0
 18 12  1  0  0  0  0
 20 19  1  6  0  0  0
 20 21  1  0  0  0  0
 21 22  1  0  0  0  0
 23 24  1  0  0  0  0
 23 21  1  0  0  0  0
 25 23  1  0  0  0  0
 26 25  1  0  0  0  0
 26 20  1  0  0  0  0
 27 26  1  0  0  0  0
 28 36  1  0  0  0  0
 29 34  1  0  0  0  0
 29 28  2  0  0  0  0
 30 29  1  0  0  0  0
 31 30  2  0  0  0  0
 31 32  1  0  0  0  0
 32 33  2  0  0  0  0
 33 28  1  0  0  0  0
 35 32  1  0  0  0  0
 36 37  1  0  0  0  0
 37 38  1  0  0  0  0
 37 39  1  0  0  0  0
 40 37  1  0  0  0  0
M  END
>  <minimizedAffinity>
-6.14097548

>  <minimizedRMSD>
0.564809203

$$$$
