
 OpenBabel03262521163D

 27 28  0  0  1  0  0  0  0  0999 V2000
   38.3060   27.2650   34.6620 C   0  0  0  0  0  0  0  0  0  0  0  0
   38.9960   28.1060   34.3550 H   0  0  0  0  0  0  0  0  0  0  0  0
   38.7670   26.4070   34.0740 H   0  0  0  0  0  0  0  0  0  0  0  0
   38.3400   27.0410   35.9720 C   0  0  0  0  0  0  0  0  0  0  0  0
   39.3450   27.0670   36.4670 H   0  0  0  0  0  0  0  0  0  0  0  0
   37.7140   27.7080   36.6330 H   0  0  0  0  0  0  0  0  0  0  0  0
   37.7360   25.7970   35.9610 O   0  0  0  0  0  0  0  0  0  0  0  0
   38.4460   24.7500   36.5200 C   0  0  0  0  0  0  0  0  0  0  0  0
   38.0200   24.4380   37.8130 C   0  0  0  0  0  0  0  0  0  0  0  0
   38.6420   23.4050   38.5040 C   0  0  0  0  0  0  0  0  0  0  0  0
   39.6520   22.7460   37.8590 N   0  0  0  0  0  0  0  0  0  0  0  0
   40.0550   23.0580   36.6070 C   0  0  0  0  0  0  0  0  0  0  0  0
   39.4460   24.0530   35.9590 N   0  0  0  0  0  0  0  0  0  0  0  0
   37.2330   24.9160   38.3760 H   0  0  0  0  0  0  0  0  0  0  0  0
   38.3530   23.1190   39.5090 H   0  0  0  0  0  0  0  0  0  0  0  0
   40.8560   22.5200   36.1240 H   0  0  0  0  0  0  0  0  0  0  0  0
   37.0460   27.5290   33.9020 C   0  0  0  0  0  0  0  0  0  0  0  0
   36.1460   27.0860   34.3990 H   0  0  0  0  0  0  0  0  0  0  0  0
   36.8620   28.6100   33.8350 H   0  0  0  0  0  0  0  0  0  0  0  0
   37.0790   26.9190   32.5200 C   0  0  1  0  0  3  0  0  0  0  0  0
   36.8630   25.4210   32.5430 C   0  0  0  0  0  3  0  0  0  0  0  0
   37.8270   24.8700   32.5760 H   0  0  0  0  0  0  0  0  0  0  0  0
   36.2060   25.1820   31.2240 C   0  0  0  0  0  3  0  0  0  0  0  0
   35.5050   24.3020   31.2480 H   0  0  0  0  0  0  0  0  0  0  0  0
   35.5910   26.3400   30.8110 O   0  0  0  0  0  0  0  0  0  0  0  0
   35.8250   27.3250   31.7360 C   0  0  0  0  0  3  0  0  0  0  0  0
   35.8930   28.3490   31.3400 H   0  0  0  0  0  0  0  0  0  0  0  0
  1  4  1  0  0  0  0
  2  1  1  0  0  0  0
  3  1  1  0  0  0  0
  4  5  1  0  0  0  0
  4  6  1  0  0  0  0
  7  4  1  0  0  0  0
  7  8  1  0  0  0  0
  8  9  1  0  0  0  0
  9 14  1  0  0  0  0
  9 10  2  0  0  0  0
 10 15  1  0  0  0  0
 11 10  1  0  0  0  0
 12 11  2  0  0  0  0
 13  8  2  0  0  0  0
 13 12  1  0  0  0  0
 16 12  1  0  0  0  0
 17 18  1  0  0  0  0
 17  1  1  0  0  0  0
 19 17  1  0  0  0  0
 20 21  1  0  0  0  0
 20 17  1  1  0  0  0
 21 22  1  0  0  0  0
 23 24  1  0  0  0  0
 23 21  1  0  0  0  0
 25 23  1  0  0  0  0
 25 26  1  0  0  0  0
 26 20  1  0  0  0  0
 27 26  1  0  0  0  0
M  END
>  <minimizedAffinity>
-4.07076073

$$$$

 OpenBabel03262521163D

 27 28  0  0  1  0  0  0  0  0999 V2000
   37.6300   27.7030   35.1220 C   0  0  0  0  0  0  0  0  0  0  0  0
   36.7950   28.2900   35.6070 H   0  0  0  0  0  0  0  0  0  0  0  0
   38.1960   28.5490   34.6140 H   0  0  0  0  0  0  0  0  0  0  0  0
   38.3850   27.0710   36.0160 C   0  0  0  0  0  0  0  0  0  0  0  0
   39.4870   27.0480   35.8250 H   0  0  0  0  0  0  0  0  0  0  0  0
   38.3200   27.4130   37.0900 H   0  0  0  0  0  0  0  0  0  0  0  0
   37.7610   25.8380   35.9430 O   0  0  0  0  0  0  0  0  0  0  0  0
   38.3300   24.8040   36.6640 C   0  0  0  0  0  0  0  0  0  0  0  0
   39.3190   24.1270   35.9480 C   0  0  0  0  0  0  0  0  0  0  0  0
   39.9820   23.0610   36.5460 C   0  0  0  0  0  0  0  0  0  0  0  0
   39.6140   22.7380   37.8230 N   0  0  0  0  0  0  0  0  0  0  0  0
   38.6530   23.4010   38.5040 C   0  0  0  0  0  0  0  0  0  0  0  0
   38.0280   24.4220   37.9150 N   0  0  0  0  0  0  0  0  0  0  0  0
   39.6560   24.3310   34.9440 H   0  0  0  0  0  0  0  0  0  0  0  0
   40.7590   22.5000   36.0380 H   0  0  0  0  0  0  0  0  0  0  0  0
   38.3840   23.1230   39.5100 H   0  0  0  0  0  0  0  0  0  0  0  0
   36.9730   27.0210   33.9650 C   0  0  0  0  0  0  0  0  0  0  0  0
   37.4840   26.0640   33.6870 H   0  0  0  0  0  0  0  0  0  0  0  0
   35.9380   26.7570   34.2170 H   0  0  0  0  0  0  0  0  0  0  0  0
   37.0060   27.8690   32.7140 C   0  0  1  0  0  3  0  0  0  0  0  0
   38.2330   27.6040   31.8680 C   0  0  0  0  0  3  0  0  0  0  0  0
   39.0550   28.3110   32.1100 H   0  0  0  0  0  0  0  0  0  0  0  0
   37.7290   27.8910   30.4920 C   0  0  0  0  0  3  0  0  0  0  0  0
   38.2530   27.2790   29.7070 H   0  0  0  0  0  0  0  0  0  0  0  0
   36.3640   27.7260   30.4700 O   0  0  0  0  0  0  0  0  0  0  0  0
   35.9330   27.3910   31.7280 C   0  0  0  0  0  3  0  0  0  0  0  0
   34.9270   27.7440   32.0010 H   0  0  0  0  0  0  0  0  0  0  0  0
  1  2  1  0  0  0  0
  1  4  1  0  0  0  0
  3  1  1  0  0  0  0
  4  6  1  0  0  0  0
  5  4  1  0  0  0  0
  7  4  1  0  0  0  0
  7  8  1  0  0  0  0
  8 13  1  0  0  0  0
  9 10  1  0  0  0  0
  9  8  2  0  0  0  0
 10 11  2  0  0  0  0
 11 12  1  0  0  0  0
 12 16  1  0  0  0  0
 13 12  2  0  0  0  0
 14  9  1  0  0  0  0
 15 10  1  0  0  0  0
 17 19  1  0  0  0  0
 17  1  1  0  0  0  0
 18 17  1  0  0  0  0
 20 17  1  1  0  0  0
 21 22  1  0  0  0  0
 21 20  1  0  0  0  0
 23 21  1  0  0  0  0
 24 23  1  0  0  0  0
 25 23  1  0  0  0  0
 25 26  1  0  0  0  0
 26 27  1  0  0  0  0
 26 20  1  0  0  0  0
M  END
>  <minimizedAffinity>
-4.05364704

$$$$

 OpenBabel03262521163D

 27 28  0  0  1  0  0  0  0  0999 V2000
   38.1090   27.4180   34.7880 C   0  0  0  0  0  0  0  0  0  0  0  0
   38.6970   28.3360   34.4890 H   0  0  0  0  0  0  0  0  0  0  0  0
   38.5480   26.6580   34.0640 H   0  0  0  0  0  0  0  0  0  0  0  0
   38.3240   27.0740   36.0550 C   0  0  0  0  0  0  0  0  0  0  0  0
   39.3880   27.0660   36.4050 H   0  0  0  0  0  0  0  0  0  0  0  0
   37.7970   27.6710   36.8550 H   0  0  0  0  0  0  0  0  0  0  0  0
   37.7220   25.8300   36.0110 O   0  0  0  0  0  0  0  0  0  0  0  0
   38.4350   24.7690   36.5410 C   0  0  0  0  0  0  0  0  0  0  0  0
   38.0210   24.4310   37.8320 C   0  0  0  0  0  0  0  0  0  0  0  0
   38.6470   23.3820   38.4940 C   0  0  0  0  0  0  0  0  0  0  0  0
   39.6490   22.7350   37.8250 N   0  0  0  0  0  0  0  0  0  0  0  0
   40.0410   23.0730   36.5770 C   0  0  0  0  0  0  0  0  0  0  0  0
   39.4280   24.0820   35.9560 N   0  0  0  0  0  0  0  0  0  0  0  0
   37.2410   24.8990   38.4120 H   0  0  0  0  0  0  0  0  0  0  0  0
   38.3670   23.0760   39.4960 H   0  0  0  0  0  0  0  0  0  0  0  0
   40.8350   22.5430   36.0740 H   0  0  0  0  0  0  0  0  0  0  0  0
   36.7480   27.6520   34.2150 C   0  0  0  0  0  0  0  0  0  0  0  0
   35.9640   27.0190   34.7050 H   0  0  0  0  0  0  0  0  0  0  0  0
   36.4440   28.6950   34.3710 H   0  0  0  0  0  0  0  0  0  0  0  0
   36.6820   27.3020   32.7470 C   0  0  1  0  0  3  0  0  0  0  0  0
   37.9080   27.7630   31.9870 C   0  0  0  0  0  3  0  0  0  0  0  0
   37.7530   28.7660   31.5350 H   0  0  0  0  0  0  0  0  0  0  0  0
   38.0010   26.7440   30.9000 C   0  0  0  0  0  3  0  0  0  0  0  0
   39.0600   26.5670   30.5680 H   0  0  0  0  0  0  0  0  0  0  0  0
   37.3730   25.5910   31.3090 O   0  0  0  0  0  0  0  0  0  0  0  0
   36.8470   25.7880   32.5600 C   0  0  0  0  0  3  0  0  0  0  0  0
   35.9210   25.2370   32.7840 H   0  0  0  0  0  0  0  0  0  0  0  0
  1  4  1  0  0  0  0
  2  1  1  0  0  0  0
  3  1  1  0  0  0  0
  4  5  1  0  0  0  0
  4  6  1  0  0  0  0
  7  4  1  0  0  0  0
  7  8  1  0  0  0  0
  8  9  1  0  0  0  0
  9 14  1  0  0  0  0
  9 10  2  0  0  0  0
 10 15  1  0  0  0  0
 11 10  1  0  0  0  0
 12 11  2  0  0  0  0
 13  8  2  0  0  0  0
 13 12  1  0  0  0  0
 16 12  1  0  0  0  0
 17 19  1  0  0  0  0
 17 18  1  0  0  0  0
 17  1  1  0  0  0  0
 20 17  1  1  0  0  0
 21 20  1  0  0  0  0
 22 21  1  0  0  0  0
 23 25  1  0  0  0  0
 23 21  1  0  0  0  0
 24 23  1  0  0  0  0
 25 26  1  0  0  0  0
 26 20  1  0  0  0  0
 26 27  1  0  0  0  0
M  END
>  <minimizedAffinity>
-3.96456027

$$$$

 OpenBabel03262521163D

 27 28  0  0  1  0  0  0  0  0999 V2000
   38.2680   27.2860   35.0220 C   0  0  0  0  0  0  0  0  0  0  0  0
   39.1400   26.8350   34.4610 H   0  0  0  0  0  0  0  0  0  0  0  0
   38.7060   28.3040   35.2800 H   0  0  0  0  0  0  0  0  0  0  0  0
   37.1830   27.3950   34.2600 C   0  0  0  0  0  0  0  0  0  0  0  0
   36.2480   26.9050   34.6330 H   0  0  0  0  0  0  0  0  0  0  0  0
   36.8360   28.4360   33.9920 H   0  0  0  0  0  0  0  0  0  0  0  0
   37.7100   26.8330   33.1110 O   0  0  0  0  0  0  0  0  0  0  0  0
   36.8760   26.0090   32.3770 C   0  0  0  0  0  0  0  0  0  0  0  0
   37.2030   24.6570   32.5060 C   0  0  0  0  0  0  0  0  0  0  0  0
   36.4500   23.7070   31.8250 C   0  0  0  0  0  0  0  0  0  0  0  0
   35.4170   24.1680   31.0560 N   0  0  0  0  0  0  0  0  0  0  0  0
   35.1130   25.4800   30.9390 C   0  0  0  0  0  0  0  0  0  0  0  0
   35.8450   26.3770   31.6010 N   0  0  0  0  0  0  0  0  0  0  0  0
   38.0000   24.2300   33.0930 H   0  0  0  0  0  0  0  0  0  0  0  0
   36.6580   22.6450   31.8880 H   0  0  0  0  0  0  0  0  0  0  0  0
   34.2910   25.8130   30.3250 H   0  0  0  0  0  0  0  0  0  0  0  0
   38.2830   26.5890   36.3440 C   0  0  0  0  0  0  0  0  0  0  0  0
   39.2680   26.6890   36.8680 H   0  0  0  0  0  0  0  0  0  0  0  0
   37.5310   27.0280   37.0130 H   0  0  0  0  0  0  0  0  0  0  0  0
   38.0540   25.1030   36.2040 C   0  0  1  0  0  3  0  0  0  0  0  0
   39.2560   24.3840   35.6290 C   0  0  0  0  0  3  0  0  0  0  0  0
   39.1800   24.2820   34.5250 H   0  0  0  0  0  0  0  0  0  0  0  0
   39.1390   23.0330   36.2550 C   0  0  0  0  0  3  0  0  0  0  0  0
   40.1400   22.5420   36.4040 H   0  0  0  0  0  0  0  0  0  0  0  0
   38.4200   23.1390   37.4220 O   0  0  0  0  0  0  0  0  0  0  0  0
   38.0270   24.4430   37.5890 C   0  0  0  0  0  3  0  0  0  0  0  0
   37.0670   24.5920   38.1040 H   0  0  0  0  0  0  0  0  0  0  0  0
  1  3  1  0  0  0  0
  1 17  1  0  0  0  0
  2  1  1  0  0  0  0
  4  5  1  0  0  0  0
  4  1  1  0  0  0  0
  6  4  1  0  0  0  0
  7  4  1  0  0  0  0
  8  9  1  0  0  0  0
  8  7  1  0  0  0  0
  9 14  1  0  0  0  0
 10 15  1  0  0  0  0
 10  9  2  0  0  0  0
 11 10  1  0  0  0  0
 12 11  2  0  0  0  0
 12 13  1  0  0  0  0
 13  8  2  0  0  0  0
 16 12  1  0  0  0  0
 17 18  1  0  0  0  0
 17 19  1  0  0  0  0
 20 17  1  1  0  0  0
 20 26  1  0  0  0  0
 21 20  1  0  0  0  0
 21 23  1  0  0  0  0
 22 21  1  0  0  0  0
 23 24  1  0  0  0  0
 23 25  1  0  0  0  0
 25 26  1  0  0  0  0
 26 27  1  0  0  0  0
M  END
>  <minimizedAffinity>
-3.93463612

$$$$

 OpenBabel03262521163D

 27 28  0  0  1  0  0  0  0  0999 V2000
   39.2790   27.0160   34.2490 C   0  0  0  0  0  0  0  0  0  0  0  0
   38.5430   27.3720   35.0300 H   0  0  0  0  0  0  0  0  0  0  0  0
   39.7750   28.0040   33.9810 H   0  0  0  0  0  0  0  0  0  0  0  0
   40.1530   26.1430   34.7430 C   0  0  0  0  0  0  0  0  0  0  0  0
   41.1000   25.9900   34.1670 H   0  0  0  0  0  0  0  0  0  0  0  0
   40.5210   26.3130   35.7970 H   0  0  0  0  0  0  0  0  0  0  0  0
   39.3140   25.0440   34.7770 O   0  0  0  0  0  0  0  0  0  0  0  0
   39.0600   24.4870   36.0170 C   0  0  0  0  0  0  0  0  0  0  0  0
   39.9340   23.4440   36.3300 C   0  0  0  0  0  0  0  0  0  0  0  0
   39.8000   22.7860   37.5480 C   0  0  0  0  0  0  0  0  0  0  0  0
   38.8000   23.2130   38.3780 N   0  0  0  0  0  0  0  0  0  0  0  0
   37.9610   24.2240   38.0620 C   0  0  0  0  0  0  0  0  0  0  0  0
   38.1040   24.8440   36.8890 N   0  0  0  0  0  0  0  0  0  0  0  0
   40.7390   23.0610   35.7240 H   0  0  0  0  0  0  0  0  0  0  0  0
   40.4500   21.9700   37.8440 H   0  0  0  0  0  0  0  0  0  0  0  0
   37.1810   24.5380   38.7380 H   0  0  0  0  0  0  0  0  0  0  0  0
   38.4340   26.7480   33.0460 C   0  0  0  0  0  0  0  0  0  0  0  0
   38.8170   27.2680   32.1300 H   0  0  0  0  0  0  0  0  0  0  0  0
   38.4320   25.6750   32.8130 H   0  0  0  0  0  0  0  0  0  0  0  0
   37.0190   27.2460   33.2240 C   0  0  1  0  0  3  0  0  0  0  0  0
   36.8080   27.9240   34.5610 C   0  0  0  0  0  3  0  0  0  0  0  0
   36.4250   27.2110   35.3230 H   0  0  0  0  0  0  0  0  0  0  0  0
   35.7420   28.9180   34.2400 C   0  0  0  0  0  3  0  0  0  0  0  0
   35.8070   29.8390   34.8830 H   0  0  0  0  0  0  0  0  0  0  0  0
   35.7830   29.2050   32.8960 O   0  0  0  0  0  0  0  0  0  0  0  0
   36.7670   28.4500   32.3080 C   0  0  0  0  0  3  0  0  0  0  0  0
   36.5830   28.1510   31.2650 H   0  0  0  0  0  0  0  0  0  0  0  0
  1  4  1  0  0  0  0
  1  2  1  0  0  0  0
  3  1  1  0  0  0  0
  4  7  1  0  0  0  0
  4  6  1  0  0  0  0
  5  4  1  0  0  0  0
  7  8  1  0  0  0  0
  8  9  2  0  0  0  0
  8 13  1  0  0  0  0
  9 10  1  0  0  0  0
 10 15  1  0  0  0  0
 10 11  2  0  0  0  0
 12 11  1  0  0  0  0
 12 16  1  0  0  0  0
 13 12  2  0  0  0  0
 14  9  1  0  0  0  0
 17  1  1  0  0  0  0
 18 17  1  0  0  0  0
 19 17  1  0  0  0  0
 20 17  1  1  0  0  0
 20 21  1  0  0  0  0
 21 22  1  0  0  0  0
 23 21  1  0  0  0  0
 23 24  1  0  0  0  0
 25 23  1  0  0  0  0
 26 25  1  0  0  0  0
 26 20  1  0  0  0  0
 27 26  1  0  0  0  0
M  END
>  <minimizedAffinity>
-3.80739665

$$$$

 OpenBabel03262521163D

 27 28  0  0  1  0  0  0  0  0999 V2000
   37.8620   27.5500   35.3720 C   0  0  0  0  0  0  0  0  0  0  0  0
   38.7840   28.0400   34.9380 H   0  0  0  0  0  0  0  0  0  0  0  0
   37.4510   28.4150   35.9870 H   0  0  0  0  0  0  0  0  0  0  0  0
   37.0070   27.1660   34.4290 C   0  0  0  0  0  0  0  0  0  0  0  0
   37.4330   26.9320   33.4200 H   0  0  0  0  0  0  0  0  0  0  0  0
   36.3600   26.2660   34.6460 H   0  0  0  0  0  0  0  0  0  0  0  0
   36.1850   28.2770   34.4640 O   0  0  0  0  0  0  0  0  0  0  0  0
   35.9420   28.9160   33.2610 C   0  0  0  0  0  0  0  0  0  0  0  0
   34.8550   29.7890   33.3220 C   0  0  0  0  0  0  0  0  0  0  0  0
   34.4900   30.5030   32.1860 C   0  0  0  0  0  0  0  0  0  0  0  0
   35.2370   30.3000   31.0590 N   0  0  0  0  0  0  0  0  0  0  0  0
   36.2870   29.4510   31.0130 C   0  0  0  0  0  0  0  0  0  0  0  0
   36.6230   28.7740   32.1120 N   0  0  0  0  0  0  0  0  0  0  0  0
   34.2280   29.9940   34.1760 H   0  0  0  0  0  0  0  0  0  0  0  0
   33.6560   31.1950   32.1770 H   0  0  0  0  0  0  0  0  0  0  0  0
   36.8570   29.3110   30.1080 H   0  0  0  0  0  0  0  0  0  0  0  0
   38.3960   26.6360   36.4270 C   0  0  0  0  0  0  0  0  0  0  0  0
   39.5060   26.7250   36.5480 H   0  0  0  0  0  0  0  0  0  0  0  0
   37.9580   26.8840   37.4020 H   0  0  0  0  0  0  0  0  0  0  0  0
   38.1470   25.1830   36.0970 C   0  0  1  0  0  3  0  0  0  0  0  0
   39.3950   24.4770   35.6110 C   0  0  0  0  0  3  0  0  0  0  0  0
   39.4680   24.4940   34.5020 H   0  0  0  0  0  0  0  0  0  0  0  0
   39.1570   23.0750   36.0650 C   0  0  0  0  0  3  0  0  0  0  0  0
   40.1130   22.5290   36.2910 H   0  0  0  0  0  0  0  0  0  0  0  0
   38.2880   23.0890   37.1300 O   0  0  0  0  0  0  0  0  0  0  0  0
   37.9130   24.3840   37.3850 C   0  0  0  0  0  3  0  0  0  0  0  0
   36.8950   24.5200   37.7820 H   0  0  0  0  0  0  0  0  0  0  0  0
  1  3  1  0  0  0  0
  1 17  1  0  0  0  0
  2  1  1  0  0  0  0
  4  7  1  0  0  0  0
  4  6  1  0  0  0  0
  4  1  1  0  0  0  0
  5  4  1  0  0  0  0
  8  9  1  0  0  0  0
  8  7  1  0  0  0  0
  9 14  1  0  0  0  0
 10  9  2  0  0  0  0
 11 10  1  0  0  0  0
 12 11  2  0  0  0  0
 12 13  1  0  0  0  0
 13  8  2  0  0  0  0
 15 10  1  0  0  0  0
 16 12  1  0  0  0  0
 17 18  1  0  0  0  0
 17 19  1  0  0  0  0
 20 17  1  1  0  0  0
 20 26  1  0  0  0  0
 21 23  1  0  0  0  0
 21 20  1  0  0  0  0
 22 21  1  0  0  0  0
 23 24  1  0  0  0  0
 23 25  1  0  0  0  0
 25 26  1  0  0  0  0
 26 27  1  0  0  0  0
M  END
>  <minimizedAffinity>
-3.74256849

$$$$

 OpenBabel03262521163D

 27 28  0  0  1  0  0  0  0  0999 V2000
   39.0470   24.5280   33.1310 C   0  0  0  0  0  0  0  0  0  0  0  0
   38.8880   24.3390   32.0280 H   0  0  0  0  0  0  0  0  0  0  0  0
   38.0330   24.9650   33.4040 H   0  0  0  0  0  0  0  0  0  0  0  0
   39.2990   23.4080   33.8010 C   0  0  0  0  0  0  0  0  0  0  0  0
   39.4450   22.4760   33.1980 H   0  0  0  0  0  0  0  0  0  0  0  0
   40.1890   23.4030   34.4960 H   0  0  0  0  0  0  0  0  0  0  0  0
   38.1650   23.4100   34.5940 O   0  0  0  0  0  0  0  0  0  0  0  0
   38.3560   23.4860   35.9610 C   0  0  0  0  0  0  0  0  0  0  0  0
   39.4850   22.7830   36.3890 C   0  0  0  0  0  0  0  0  0  0  0  0
   39.8050   22.7680   37.7420 C   0  0  0  0  0  0  0  0  0  0  0  0
   38.9770   23.4580   38.5840 N   0  0  0  0  0  0  0  0  0  0  0  0
   37.8870   24.1340   38.1570 C   0  0  0  0  0  0  0  0  0  0  0  0
   37.5950   24.1370   36.8550 N   0  0  0  0  0  0  0  0  0  0  0  0
   40.1760   22.2220   35.7800 H   0  0  0  0  0  0  0  0  0  0  0  0
   40.6690   22.2400   38.1300 H   0  0  0  0  0  0  0  0  0  0  0  0
   37.2530   24.6680   38.8450 H   0  0  0  0  0  0  0  0  0  0  0  0
   39.9320   25.7320   33.1720 C   0  0  0  0  0  0  0  0  0  0  0  0
   40.8540   25.5640   33.7850 H   0  0  0  0  0  0  0  0  0  0  0  0
   40.2750   25.9870   32.1600 H   0  0  0  0  0  0  0  0  0  0  0  0
   39.2450   26.9200   33.8050 C   0  0  1  0  0  3  0  0  0  0  0  0
   37.7360   26.7950   33.7820 C   0  0  0  0  0  3  0  0  0  0  0  0
   37.2990   27.2910   32.8890 H   0  0  0  0  0  0  0  0  0  0  0  0
   37.3430   27.5550   35.0060 C   0  0  0  0  0  3  0  0  0  0  0  0
   36.3940   27.1650   35.4660 H   0  0  0  0  0  0  0  0  0  0  0  0
   38.3980   27.5640   35.8880 O   0  0  0  0  0  0  0  0  0  0  0  0
   39.4590   26.9020   35.3240 C   0  0  0  0  0  3  0  0  0  0  0  0
   40.4570   27.2650   35.6090 H   0  0  0  0  0  0  0  0  0  0  0  0
  1 17  1  0  0  0  0
  1  3  1  0  0  0  0
  1  4  1  0  0  0  0
  2  1  1  0  0  0  0
  4  6  1  0  0  0  0
  4  7  1  0  0  0  0
  5  4  1  0  0  0  0
  7  8  1  0  0  0  0
  8  9  2  0  0  0  0
  8 13  1  0  0  0  0
  9 10  1  0  0  0  0
 10 15  1  0  0  0  0
 10 11  2  0  0  0  0
 12 11  1  0  0  0  0
 12 16  1  0  0  0  0
 13 12  2  0  0  0  0
 14  9  1  0  0  0  0
 17 18  1  0  0  0  0
 19 17  1  0  0  0  0
 20 17  1  6  0  0  0
 20 26  1  0  0  0  0
 21 20  1  0  0  0  0
 21 23  1  0  0  0  0
 22 21  1  0  0  0  0
 23 24  1  0  0  0  0
 23 25  1  0  0  0  0
 26 27  1  0  0  0  0
 26 25  1  0  0  0  0
M  END
>  <minimizedAffinity>
-3.70976591

$$$$

 OpenBabel03262521163D

 27 28  0  0  1  0  0  0  0  0999 V2000
   35.8860   29.2350   34.0880 C   0  0  0  0  0  0  0  0  0  0  0  0
   36.0280   28.3660   34.7960 H   0  0  0  0  0  0  0  0  0  0  0  0
   36.8910   29.7540   34.2090 H   0  0  0  0  0  0  0  0  0  0  0  0
   35.6850   28.8350   32.8350 C   0  0  0  0  0  0  0  0  0  0  0  0
   34.7210   28.3110   32.6170 H   0  0  0  0  0  0  0  0  0  0  0  0
   35.7390   29.6160   32.0220 H   0  0  0  0  0  0  0  0  0  0  0  0
   36.8130   28.0430   32.7140 O   0  0  0  0  0  0  0  0  0  0  0  0
   36.6150   26.7240   32.3460 C   0  0  0  0  0  0  0  0  0  0  0  0
   35.6210   26.5770   31.3770 C   0  0  0  0  0  0  0  0  0  0  0  0
   35.3110   25.3050   30.9070 C   0  0  0  0  0  0  0  0  0  0  0  0
   36.0160   24.2600   31.4350 N   0  0  0  0  0  0  0  0  0  0  0  0
   36.9760   24.4160   32.3740 C   0  0  0  0  0  0  0  0  0  0  0  0
   37.2600   25.6430   32.8130 N   0  0  0  0  0  0  0  0  0  0  0  0
   35.0310   27.3570   30.9210 H   0  0  0  0  0  0  0  0  0  0  0  0
   34.5490   25.1320   30.1550 H   0  0  0  0  0  0  0  0  0  0  0  0
   37.5150   23.5710   32.7720 H   0  0  0  0  0  0  0  0  0  0  0  0
   34.9630   30.1560   34.8190 C   0  0  0  0  0  0  0  0  0  0  0  0
   34.2860   30.7200   34.1280 H   0  0  0  0  0  0  0  0  0  0  0  0
   34.3110   29.5850   35.4930 H   0  0  0  0  0  0  0  0  0  0  0  0
   35.7140   31.2150   35.5920 C   0  0  1  0  0  3  0  0  0  0  0  0
   36.0510   32.4220   34.7430 C   0  0  0  0  0  3  0  0  0  0  0  0
   37.0650   32.3350   34.2950 H   0  0  0  0  0  0  0  0  0  0  0  0
   36.0540   33.5220   35.7520 C   0  0  0  0  0  3  0  0  0  0  0  0
   35.7550   34.5110   35.3090 H   0  0  0  0  0  0  0  0  0  0  0  0
   35.2650   33.1560   36.8170 O   0  0  0  0  0  0  0  0  0  0  0  0
   34.7780   31.8920   36.6000 C   0  0  0  0  0  3  0  0  0  0  0  0
   34.6180   31.2790   37.5000 H   0  0  0  0  0  0  0  0  0  0  0  0
  1  3  1  0  0  0  0
  1  2  1  0  0  0  0
  1 17  1  0  0  0  0
  4  1  1  0  0  0  0
  5  4  1  0  0  0  0
  6  4  1  0  0  0  0
  7  4  1  0  0  0  0
  8  7  1  0  0  0  0
  8 13  1  0  0  0  0
  9  8  2  0  0  0  0
 10  9  1  0  0  0  0
 10 11  2  0  0  0  0
 11 12  1  0  0  0  0
 12 16  1  0  0  0  0
 12 13  2  0  0  0  0
 14  9  1  0  0  0  0
 15 10  1  0  0  0  0
 17 19  1  0  0  0  0
 18 17  1  0  0  0  0
 20 17  1  6  0  0  0
 20 26  1  0  0  0  0
 21 20  1  0  0  0  0
 21 23  1  0  0  0  0
 22 21  1  0  0  0  0
 23 25  1  0  0  0  0
 24 23  1  0  0  0  0
 26 25  1  0  0  0  0
 26 27  1  0  0  0  0
M  END
>  <minimizedAffinity>
-3.64183998

$$$$

 OpenBabel03262521163D

 27 28  0  0  1  0  0  0  0  0999 V2000
   38.5110   22.3740   34.2470 C   0  0  0  0  0  0  0  0  0  0  0  0
   39.3090   21.6270   33.9590 H   0  0  0  0  0  0  0  0  0  0  0  0
   38.5160   23.0350   33.3200 H   0  0  0  0  0  0  0  0  0  0  0  0
   37.3280   21.7970   34.4340 C   0  0  0  0  0  0  0  0  0  0  0  0
   37.3300   20.7450   34.8170 H   0  0  0  0  0  0  0  0  0  0  0  0
   36.5970   22.3150   35.1210 H   0  0  0  0  0  0  0  0  0  0  0  0
   36.8480   21.9410   33.1450 O   0  0  0  0  0  0  0  0  0  0  0  0
   36.5360   20.7810   32.4590 C   0  0  0  0  0  0  0  0  0  0  0  0
   35.7280   19.9160   33.1990 C   0  0  0  0  0  0  0  0  0  0  0  0
   35.3320   18.7070   32.6380 C   0  0  0  0  0  0  0  0  0  0  0  0
   35.7690   18.4390   31.3700 N   0  0  0  0  0  0  0  0  0  0  0  0
   36.5530   19.2850   30.6650 C   0  0  0  0  0  0  0  0  0  0  0  0
   36.9220   20.4400   31.2190 N   0  0  0  0  0  0  0  0  0  0  0  0
   35.3500   20.0680   34.1980 H   0  0  0  0  0  0  0  0  0  0  0  0
   34.7050   17.9980   33.1650 H   0  0  0  0  0  0  0  0  0  0  0  0
   36.8820   19.0440   29.6660 H   0  0  0  0  0  0  0  0  0  0  0  0
   39.1760   23.2470   35.2620 C   0  0  0  0  0  0  0  0  0  0  0  0
   40.2490   22.9720   35.4250 H   0  0  0  0  0  0  0  0  0  0  0  0
   39.1720   24.2920   34.9260 H   0  0  0  0  0  0  0  0  0  0  0  0
   38.5250   23.1330   36.6210 C   0  0  1  0  0  3  0  0  0  0  0  0
   39.5370   22.9630   37.7340 C   0  0  0  0  0  3  0  0  0  0  0  0
   39.7120   21.8910   37.9660 H   0  0  0  0  0  0  0  0  0  0  0  0
   38.8400   23.6060   38.8880 C   0  0  0  0  0  3  0  0  0  0  0  0
   39.5580   24.0610   39.6240 H   0  0  0  0  0  0  0  0  0  0  0  0
   37.9230   24.5130   38.4110 O   0  0  0  0  0  0  0  0  0  0  0  0
   37.9410   24.4880   37.0390 C   0  0  0  0  0  3  0  0  0  0  0  0
   36.9820   24.7000   36.5430 H   0  0  0  0  0  0  0  0  0  0  0  0
  1  4  1  0  0  0  0
  1 17  1  0  0  0  0
  2  1  1  0  0  0  0
  3  1  1  0  0  0  0
  4  5  1  0  0  0  0
  4  6  1  0  0  0  0
  7  4  1  0  0  0  0
  8  7  1  0  0  0  0
  8  9  1  0  0  0  0
  9 14  1  0  0  0  0
 10 15  1  0  0  0  0
 10  9  2  0  0  0  0
 11 10  1  0  0  0  0
 12 13  1  0  0  0  0
 12 11  2  0  0  0  0
 13  8  2  0  0  0  0
 16 12  1  0  0  0  0
 17 18  1  0  0  0  0
 19 17  1  0  0  0  0
 20 17  1  6  0  0  0
 20 26  1  0  0  0  0
 20 21  1  0  0  0  0
 21 22  1  0  0  0  0
 21 23  1  0  0  0  0
 23 24  1  0  0  0  0
 25 23  1  0  0  0  0
 26 25  1  0  0  0  0
 27 26  1  0  0  0  0
M  END
>  <minimizedAffinity>
-3.59866929

$$$$
