
 OpenBabel03272509443D

 37 39  0  0  1  0  0  0  0  0999 V2000
   36.5870   28.7800   32.3630 C   0  0  0  0  0  0  0  0  0  0  0  0
   36.0990   29.9470   31.7710 C   0  0  0  0  0  0  0  0  0  0  0  0
   35.4150   30.9060   32.5050 C   0  0  0  0  0  0  0  0  0  0  0  0
   35.2060   30.7050   33.8710 C   0  0  0  0  0  0  0  0  0  0  0  0
   35.6880   29.5590   34.4370 C   0  0  0  0  0  0  0  0  0  0  0  0
   36.3660   28.6220   33.6720 C   0  0  0  0  0  0  0  0  0  0  0  0
   36.2710   30.0910   30.7060 H   0  0  0  0  0  0  0  0  0  0  0  0
   35.0790   31.7650   31.9700 H   0  0  0  0  0  0  0  0  0  0  0  0
   34.6680   31.4960   34.3580 H   0  0  0  0  0  0  0  0  0  0  0  0
   35.4450   29.5430   35.4990 H   0  0  0  0  0  0  0  0  0  0  0  0
   37.2690   27.7630   31.5920 C   0  0  2  0  0  0  0  0  0  0  0  0
   37.1250   28.0720   30.4850 H   0  0  0  0  0  0  0  0  0  0  0  0
   37.0200   24.1450   31.3620 C   0  0  0  0  0  0  0  0  0  0  0  0
   35.6800   23.9160   31.1160 C   0  0  0  0  0  0  0  0  0  0  0  0
   34.8510   25.0110   30.9630 C   0  0  0  0  0  0  0  0  0  0  0  0
   35.3790   26.2800   31.0590 N   0  0  0  0  0  0  0  0  0  0  0  0
   36.6670   26.4310   31.2980 C   0  0  0  0  0  0  0  0  0  0  0  0
   37.4950   25.3720   31.4480 N   0  0  0  0  0  0  0  0  0  0  0  0
   37.6300   23.2580   31.4740 H   0  0  0  0  0  0  0  0  0  0  0  0
   35.1720   22.9740   31.0250 H   0  0  0  0  0  0  0  0  0  0  0  0
   33.7890   24.9870   30.7660 H   0  0  0  0  0  0  0  0  0  0  0  0
   38.5480   27.8960   31.6230 O   0  0  0  0  0  0  0  0  0  0  0  0
   39.1640   27.1650   31.4360 H   0  0  0  0  0  0  0  0  0  0  0  0
   36.7960   27.4430   34.3900 C   0  0  0  0  0  3  0  0  0  0  0  0
   37.8130   27.4280   35.2580 C   0  0  0  0  0  3  0  0  0  0  0  0
   38.3120   26.2990   36.0750 C   0  0  0  0  0  0  0  0  0  0  0  0
   39.3660   26.5220   36.3400 H   0  0  0  0  0  0  0  0  0  0  0  0
   37.7350   26.1910   37.0280 H   0  0  0  0  0  0  0  0  0  0  0  0
   38.2630   24.7850   35.1090 S   0  0  0  0  0  0  0  0  0  0  0  0
   38.5460   23.3970   36.2370 C   0  0  1  0  0  3  0  0  0  0  0  0
   39.9920   23.0150   36.3610 C   0  0  0  0  0  3  0  0  0  0  0  0
   40.6990   23.8050   36.0120 H   0  0  0  0  0  0  0  0  0  0  0  0
   40.1200   22.6890   37.8130 C   0  0  0  0  0  3  0  0  0  0  0  0
   40.0740   21.5930   37.9860 H   0  0  0  0  0  0  0  0  0  0  0  0
   39.0950   23.2650   38.5130 O   0  0  0  0  0  0  0  0  0  0  0  0
   38.2240   23.8570   37.6390 C   0  0  0  0  0  3  0  0  0  0  0  0
   38.2850   24.9830   37.6990 H   0  0  0  0  0  0  0  0  0  0  0  0
  1  6  1  0  0  0  0
  2  1  2  0  0  0  0
  2  3  1  0  0  0  0
  3  4  2  0  0  0  0
  4  9  1  0  0  0  0
  4  5  1  0  0  0  0
  5 10  1  0  0  0  0
  6 24  1  0  0  0  0
  6  5  2  0  0  0  0
  7  2  1  0  0  0  0
  8  3  1  0  0  0  0
 11 12  1  6  0  0  0
 11 22  1  0  0  0  0
 11  1  1  0  0  0  0
 13 18  1  0  0  0  0
 13 19  1  0  0  0  0
 14 13  2  0  0  0  0
 15 16  2  0  0  0  0
 15 14  1  0  0  0  0
 16 17  1  0  0  0  0
 17 18  2  0  0  0  0
 17 11  1  0  0  0  0
 20 14  1  0  0  0  0
 21 15  1  0  0  0  0
 23 22  1  0  0  0  0
 24 25  2  0  0  0  0
 25 26  1  0  0  0  0
 26 27  1  0  0  0  0
 26 28  1  0  0  0  0
 29 26  1  0  0  0  0
 30 29  1  6  0  0  0
 30 31  1  0  0  0  0
 30 36  1  0  0  0  0
 31 33  1  0  0  0  0
 32 31  1  0  0  0  0
 33 34  1  0  0  0  0
 33 35  1  0  0  0  0
 36 37  1  0  0  0  0
 36 35  1  0  0  0  0
M  END
>  <minimizedAffinity>
-5.59395075

$$$$

 OpenBabel03272509443D

 37 39  0  0  1  0  0  0  0  0999 V2000
   38.6790   26.9420   34.2900 C   0  0  0  0  0  0  0  0  0  0  0  0
   37.5190   27.1920   33.5530 C   0  0  0  0  0  0  0  0  0  0  0  0
   37.5650   27.4780   32.1950 C   0  0  0  0  0  0  0  0  0  0  0  0
   38.8000   27.5180   31.5430 C   0  0  0  0  0  0  0  0  0  0  0  0
   39.9260   27.2720   32.2760 C   0  0  0  0  0  0  0  0  0  0  0  0
   39.8410   26.9900   33.6320 C   0  0  0  0  0  0  0  0  0  0  0  0
   36.5640   27.1570   34.0740 H   0  0  0  0  0  0  0  0  0  0  0  0
   36.6300   27.6560   31.7140 H   0  0  0  0  0  0  0  0  0  0  0  0
   38.7400   27.7460   30.4960 H   0  0  0  0  0  0  0  0  0  0  0  0
   40.8040   27.3410   31.6350 H   0  0  0  0  0  0  0  0  0  0  0  0
   38.6360   26.6790   35.7120 C   0  0  2  0  0  0  0  0  0  0  0  0
   39.7320   26.4600   36.0140 H   0  0  0  0  0  0  0  0  0  0  0  0
   37.9420   23.1150   35.8240 C   0  0  0  0  0  0  0  0  0  0  0  0
   37.7830   22.8460   37.1700 C   0  0  0  0  0  0  0  0  0  0  0  0
   37.8500   23.9040   38.0560 C   0  0  0  0  0  0  0  0  0  0  0  0
   38.0710   25.1770   37.5760 N   0  0  0  0  0  0  0  0  0  0  0  0
   38.2170   25.3670   36.2790 C   0  0  0  0  0  0  0  0  0  0  0  0
   38.1520   24.3450   35.3970 N   0  0  0  0  0  0  0  0  0  0  0  0
   37.8810   22.2560   35.1680 H   0  0  0  0  0  0  0  0  0  0  0  0
   37.6090   21.8970   37.6430 H   0  0  0  0  0  0  0  0  0  0  0  0
   37.7440   23.8480   39.1300 H   0  0  0  0  0  0  0  0  0  0  0  0
   38.4970   27.7530   36.4070 O   0  0  0  0  0  0  0  0  0  0  0  0
   38.1480   27.7560   37.3170 H   0  0  0  0  0  0  0  0  0  0  0  0
   41.1100   26.7790   34.2910 C   0  0  0  0  0  3  0  0  0  0  0  0
   41.7930   25.6290   34.2450 C   0  0  0  0  0  3  0  0  0  0  0  0
   43.1100   25.3130   34.8420 C   0  0  0  0  0  0  0  0  0  0  0  0
   43.8810   25.8220   34.2280 H   0  0  0  0  0  0  0  0  0  0  0  0
   43.1930   25.7010   35.8880 H   0  0  0  0  0  0  0  0  0  0  0  0
   43.3930   23.5400   34.7800 S   0  0  0  0  0  0  0  0  0  0  0  0
   42.9970   22.8580   36.4090 C   0  0  1  0  0  3  0  0  0  0  0  0
   41.5350   22.9250   36.7450 C   0  0  0  0  0  3  0  0  0  0  0  0
   40.8760   23.0800   35.8580 H   0  0  0  0  0  0  0  0  0  0  0  0
   41.3030   21.6290   37.4510 C   0  0  0  0  0  3  0  0  0  0  0  0
   41.3060   21.7640   38.5530 H   0  0  0  0  0  0  0  0  0  0  0  0
   42.2960   20.7410   37.1370 O   0  0  0  0  0  0  0  0  0  0  0  0
   43.2390   21.3680   36.3670 C   0  0  0  0  0  3  0  0  0  0  0  0
   43.2060   21.0020   35.3000 H   0  0  0  0  0  0  0  0  0  0  0  0
  1 11  1  0  0  0  0
  2  7  1  0  0  0  0
  2  1  2  0  0  0  0
  3  2  1  0  0  0  0
  4  3  2  0  0  0  0
  4  5  1  0  0  0  0
  5  6  2  0  0  0  0
  6  1  1  0  0  0  0
  6 24  1  0  0  0  0
  8  3  1  0  0  0  0
  9  4  1  0  0  0  0
 10  5  1  0  0  0  0
 11 12  1  1  0  0  0
 11 17  1  0  0  0  0
 11 22  1  0  0  0  0
 13 14  1  0  0  0  0
 14 20  1  0  0  0  0
 14 15  2  0  0  0  0
 15 21  1  0  0  0  0
 16 15  1  0  0  0  0
 17 16  2  0  0  0  0
 18 13  2  0  0  0  0
 18 17  1  0  0  0  0
 19 13  1  0  0  0  0
 22 23  1  0  0  0  0
 25 24  2  0  0  0  0
 25 26  1  0  0  0  0
 26 28  1  0  0  0  0
 27 26  1  0  0  0  0
 29 26  1  0  0  0  0
 30 29  1  6  0  0  0
 30 31  1  0  0  0  0
 31 33  1  0  0  0  0
 32 31  1  0  0  0  0
 33 34  1  0  0  0  0
 35 33  1  0  0  0  0
 36 30  1  0  0  0  0
 36 35  1  0  0  0  0
 37 36  1  0  0  0  0
M  END
>  <minimizedAffinity>
-5.34220839

$$$$

 OpenBabel03272509443D

 37 39  0  0  1  0  0  0  0  0999 V2000
   38.0730   27.1530   34.2500 C   0  0  0  0  0  0  0  0  0  0  0  0
   36.7890   27.6630   34.0500 C   0  0  0  0  0  0  0  0  0  0  0  0
   36.3700   28.1180   32.8070 C   0  0  0  0  0  0  0  0  0  0  0  0
   37.2510   28.0680   31.7250 C   0  0  0  0  0  0  0  0  0  0  0  0
   38.5050   27.5670   31.9340 C   0  0  0  0  0  0  0  0  0  0  0  0
   38.8890   27.1220   33.1910 C   0  0  0  0  0  0  0  0  0  0  0  0
   36.1120   27.6950   34.9020 H   0  0  0  0  0  0  0  0  0  0  0  0
   35.3720   28.4900   32.7480 H   0  0  0  0  0  0  0  0  0  0  0  0
   36.8430   28.4400   30.8040 H   0  0  0  0  0  0  0  0  0  0  0  0
   39.0720   27.5950   31.0050 H   0  0  0  0  0  0  0  0  0  0  0  0
   38.5230   26.7110   35.5520 C   0  0  2  0  0  0  0  0  0  0  0  0
   39.6110   26.3490   35.3910 H   0  0  0  0  0  0  0  0  0  0  0  0
   37.9460   23.1260   35.6600 C   0  0  0  0  0  0  0  0  0  0  0  0
   37.8420   22.8440   37.0080 C   0  0  0  0  0  0  0  0  0  0  0  0
   37.9070   23.8970   37.9000 C   0  0  0  0  0  0  0  0  0  0  0  0
   38.0710   25.1790   37.4230 N   0  0  0  0  0  0  0  0  0  0  0  0
   38.1660   25.3830   36.1230 C   0  0  0  0  0  0  0  0  0  0  0  0
   38.1030   24.3650   35.2350 N   0  0  0  0  0  0  0  0  0  0  0  0
   37.8900   22.2700   35.0000 H   0  0  0  0  0  0  0  0  0  0  0  0
   37.7150   21.8860   37.4800 H   0  0  0  0  0  0  0  0  0  0  0  0
   37.8390   23.8300   38.9760 H   0  0  0  0  0  0  0  0  0  0  0  0
   38.8030   27.6930   36.3360 O   0  0  0  0  0  0  0  0  0  0  0  0
   38.8200   27.6100   37.3060 H   0  0  0  0  0  0  0  0  0  0  0  0
   40.2500   26.6450   33.2790 C   0  0  0  0  0  3  0  0  0  0  0  0
   41.3150   27.4440   33.4030 C   0  0  0  0  0  3  0  0  0  0  0  0
   42.7400   27.0690   33.5430 C   0  0  0  0  0  0  0  0  0  0  0  0
   43.2680   27.4330   32.6380 H   0  0  0  0  0  0  0  0  0  0  0  0
   43.2110   27.5560   34.4340 H   0  0  0  0  0  0  0  0  0  0  0  0
   42.8890   25.2800   33.6240 S   0  0  0  0  0  0  0  0  0  0  0  0
   42.7070   24.7860   35.3560 C   0  0  1  0  0  3  0  0  0  0  0  0
   41.6180   23.7760   35.5770 C   0  0  0  0  0  3  0  0  0  0  0  0
   41.2990   23.2480   34.6480 H   0  0  0  0  0  0  0  0  0  0  0  0
   42.2130   22.8770   36.6100 C   0  0  0  0  0  3  0  0  0  0  0  0
   41.8420   23.1280   37.6260 H   0  0  0  0  0  0  0  0  0  0  0  0
   43.5750   23.0100   36.6190 O   0  0  0  0  0  0  0  0  0  0  0  0
   43.9390   24.0090   35.7560 C   0  0  0  0  0  3  0  0  0  0  0  0
   44.4460   23.5920   34.8370 H   0  0  0  0  0  0  0  0  0  0  0  0
  1 11  1  0  0  0  0
  2  1  1  0  0  0  0
  2  7  1  0  0  0  0
  3  2  2  0  0  0  0
  4  5  2  0  0  0  0
  4  3  1  0  0  0  0
  5  6  1  0  0  0  0
  6 24  1  0  0  0  0
  6  1  2  0  0  0  0
  8  3  1  0  0  0  0
  9  4  1  0  0  0  0
 10  5  1  0  0  0  0
 11 12  1  6  0  0  0
 11 17  1  0  0  0  0
 11 22  1  0  0  0  0
 13 14  1  0  0  0  0
 14 20  1  0  0  0  0
 14 15  2  0  0  0  0
 15 21  1  0  0  0  0
 16 15  1  0  0  0  0
 17 16  2  0  0  0  0
 18 13  2  0  0  0  0
 18 17  1  0  0  0  0
 19 13  1  0  0  0  0
 22 23  1  0  0  0  0
 24 25  2  0  0  0  0
 25 26  1  0  0  0  0
 26 29  1  0  0  0  0
 26 28  1  0  0  0  0
 27 26  1  0  0  0  0
 30 29  1  6  0  0  0
 30 31  1  0  0  0  0
 30 36  1  0  0  0  0
 31 33  1  0  0  0  0
 32 31  1  0  0  0  0
 33 35  1  0  0  0  0
 33 34  1  0  0  0  0
 36 35  1  0  0  0  0
 37 36  1  0  0  0  0
M  END
>  <minimizedAffinity>
-5.21315145

$$$$

 OpenBabel03272509443D

 37 39  0  0  1  0  0  0  0  0999 V2000
   36.4830   28.2130   32.0920 C   0  0  0  0  0  0  0  0  0  0  0  0
   35.7450   29.3980   32.1250 C   0  0  0  0  0  0  0  0  0  0  0  0
   35.3760   29.9940   33.3230 C   0  0  0  0  0  0  0  0  0  0  0  0
   35.7500   29.3990   34.5300 C   0  0  0  0  0  0  0  0  0  0  0  0
   36.4720   28.2400   34.4830 C   0  0  0  0  0  0  0  0  0  0  0  0
   36.8220   27.6720   33.2670 C   0  0  0  0  0  0  0  0  0  0  0  0
   35.4610   29.8510   31.1770 H   0  0  0  0  0  0  0  0  0  0  0  0
   34.8130   30.8970   33.2520 H   0  0  0  0  0  0  0  0  0  0  0  0
   35.4230   29.9280   35.4050 H   0  0  0  0  0  0  0  0  0  0  0  0
   36.6840   27.8980   35.4950 H   0  0  0  0  0  0  0  0  0  0  0  0
   36.8370   27.5710   30.8450 C   0  0  2  0  0  0  0  0  0  0  0  0
   37.5160   26.6810   31.1430 H   0  0  0  0  0  0  0  0  0  0  0  0
   38.3420   29.3800   28.0770 C   0  0  0  0  0  0  0  0  0  0  0  0
   39.6940   29.3640   28.3610 C   0  0  0  0  0  0  0  0  0  0  0  0
   40.1140   28.6730   29.4810 C   0  0  0  0  0  0  0  0  0  0  0  0
   39.1850   28.0310   30.2690 N   0  0  0  0  0  0  0  0  0  0  0  0
   37.9080   28.0860   29.9450 C   0  0  0  0  0  0  0  0  0  0  0  0
   37.4770   28.7540   28.8510 N   0  0  0  0  0  0  0  0  0  0  0  0
   38.0590   29.9330   27.1900 H   0  0  0  0  0  0  0  0  0  0  0  0
   40.4940   29.8300   27.8150 H   0  0  0  0  0  0  0  0  0  0  0  0
   41.1330   28.5720   29.8260 H   0  0  0  0  0  0  0  0  0  0  0  0
   35.8730   26.8700   30.3600 O   0  0  0  0  0  0  0  0  0  0  0  0
   35.8120   26.6300   29.4170 H   0  0  0  0  0  0  0  0  0  0  0  0
   37.5590   26.4330   33.3620 C   0  0  0  0  0  3  0  0  0  0  0  0
   38.6160   26.2530   34.1620 C   0  0  0  0  0  3  0  0  0  0  0  0
   39.4170   25.0250   34.3710 C   0  0  0  0  0  0  0  0  0  0  0  0
   40.1510   24.9660   33.5410 H   0  0  0  0  0  0  0  0  0  0  0  0
   39.9870   25.0620   35.3330 H   0  0  0  0  0  0  0  0  0  0  0  0
   38.3450   23.5850   34.3030 S   0  0  0  0  0  0  0  0  0  0  0  0
   38.5030   22.7020   35.8750 C   0  0  1  0  0  3  0  0  0  0  0  0
   39.8770   22.7930   36.4750 C   0  0  0  0  0  3  0  0  0  0  0  0
   40.4960   23.6210   36.0580 H   0  0  0  0  0  0  0  0  0  0  0  0
   39.5870   22.9300   37.9340 C   0  0  0  0  0  3  0  0  0  0  0  0
   39.6950   21.9580   38.4600 H   0  0  0  0  0  0  0  0  0  0  0  0
   38.3020   23.3640   38.1170 O   0  0  0  0  0  0  0  0  0  0  0  0
   37.6650   23.4200   36.9060 C   0  0  0  0  0  3  0  0  0  0  0  0
   37.4910   24.4880   36.5840 H   0  0  0  0  0  0  0  0  0  0  0  0
  1  2  2  0  0  0  0
  1  6  1  0  0  0  0
  2  3  1  0  0  0  0
  3  4  2  0  0  0  0
  4  9  1  0  0  0  0
  5  4  1  0  0  0  0
  5 10  1  0  0  0  0
  6 24  1  0  0  0  0
  6  5  2  0  0  0  0
  7  2  1  0  0  0  0
  8  3  1  0  0  0  0
 11 12  1  1  0  0  0
 11  1  1  0  0  0  0
 13 14  2  0  0  0  0
 13 18  1  0  0  0  0
 14 15  1  0  0  0  0
 15 21  1  0  0  0  0
 15 16  2  0  0  0  0
 17 16  1  0  0  0  0
 17 11  1  0  0  0  0
 18 17  2  0  0  0  0
 19 13  1  0  0  0  0
 20 14  1  0  0  0  0
 22 11  1  0  0  0  0
 23 22  1  0  0  0  0
 24 25  2  0  0  0  0
 25 26  1  0  0  0  0
 26 28  1  0  0  0  0
 27 26  1  0  0  0  0
 29 26  1  0  0  0  0
 30 29  1  6  0  0  0
 30 31  1  0  0  0  0
 30 36  1  0  0  0  0
 31 33  1  0  0  0  0
 32 31  1  0  0  0  0
 33 35  1  0  0  0  0
 33 34  1  0  0  0  0
 36 35  1  0  0  0  0
 37 36  1  0  0  0  0
M  END
>  <minimizedAffinity>
-5.13163233

$$$$

 OpenBabel03272509443D

 37 39  0  0  1  0  0  0  0  0999 V2000
   37.5670   27.0830   34.1500 C   0  0  0  0  0  0  0  0  0  0  0  0
   36.8570   28.1040   34.7850 C   0  0  0  0  0  0  0  0  0  0  0  0
   35.9190   28.8710   34.1070 C   0  0  0  0  0  0  0  0  0  0  0  0
   35.6740   28.6190   32.7560 C   0  0  0  0  0  0  0  0  0  0  0  0
   36.3750   27.6180   32.1470 C   0  0  0  0  0  0  0  0  0  0  0  0
   37.3060   26.8730   32.8560 C   0  0  0  0  0  0  0  0  0  0  0  0
   37.0570   28.2890   35.8390 H   0  0  0  0  0  0  0  0  0  0  0  0
   35.4250   29.6290   34.6730 H   0  0  0  0  0  0  0  0  0  0  0  0
   34.9340   29.2590   32.3130 H   0  0  0  0  0  0  0  0  0  0  0  0
   36.0800   27.5450   31.1010 H   0  0  0  0  0  0  0  0  0  0  0  0
   38.5710   26.3070   34.8460 C   0  0  2  0  0  0  0  0  0  0  0  0
   38.9320   25.5190   34.0780 H   0  0  0  0  0  0  0  0  0  0  0  0
   38.0380   22.9260   36.0640 C   0  0  0  0  0  0  0  0  0  0  0  0
   37.9390   23.0750   37.4340 C   0  0  0  0  0  0  0  0  0  0  0  0
   37.9920   24.3540   37.9540 C   0  0  0  0  0  0  0  0  0  0  0  0
   38.1390   25.4260   37.1020 N   0  0  0  0  0  0  0  0  0  0  0  0
   38.2310   25.2170   35.8030 C   0  0  0  0  0  0  0  0  0  0  0  0
   38.1790   23.9730   35.2750 N   0  0  0  0  0  0  0  0  0  0  0  0
   37.9920   21.9070   35.7030 H   0  0  0  0  0  0  0  0  0  0  0  0
   37.8240   22.3100   38.1800 H   0  0  0  0  0  0  0  0  0  0  0  0
   37.9260   24.6240   38.9980 H   0  0  0  0  0  0  0  0  0  0  0  0
   39.6880   26.9350   34.9580 O   0  0  0  0  0  0  0  0  0  0  0  0
   40.3550   26.7170   35.6350 H   0  0  0  0  0  0  0  0  0  0  0  0
   37.9970   25.8650   32.0840 C   0  0  0  0  0  3  0  0  0  0  0  0
   37.3900   25.0280   31.2350 C   0  0  0  0  0  3  0  0  0  0  0  0
   37.9960   23.9930   30.3680 C   0  0  0  0  0  0  0  0  0  0  0  0
   37.3440   23.8860   29.4770 H   0  0  0  0  0  0  0  0  0  0  0  0
   39.0140   24.2950   30.0140 H   0  0  0  0  0  0  0  0  0  0  0  0
   38.0490   22.4250   31.2440 S   0  0  0  0  0  0  0  0  0  0  0  0
   36.4370   22.1730   32.0270 C   0  0  1  0  0  3  0  0  0  0  0  0
   35.4590   21.4360   31.1580 C   0  0  0  0  0  3  0  0  0  0  0  0
   35.9350   20.8840   30.3130 H   0  0  0  0  0  0  0  0  0  0  0  0
   34.7540   20.5550   32.1350 C   0  0  0  0  0  3  0  0  0  0  0  0
   33.7760   20.9870   32.4360 H   0  0  0  0  0  0  0  0  0  0  0  0
   35.5110   20.4090   33.2650 O   0  0  0  0  0  0  0  0  0  0  0  0
   36.6170   21.2110   33.1770 C   0  0  0  0  0  3  0  0  0  0  0  0
   37.5550   20.6010   33.0250 H   0  0  0  0  0  0  0  0  0  0  0  0
  1  2  1  0  0  0  0
  1 11  1  0  0  0  0
  2  7  1  0  0  0  0
  3  8  1  0  0  0  0
  3  2  2  0  0  0  0
  4  3  1  0  0  0  0
  5  4  2  0  0  0  0
  5  6  1  0  0  0  0
  6  1  2  0  0  0  0
  9  4  1  0  0  0  0
 10  5  1  0  0  0  0
 11 12  1  6  0  0  0
 11 22  1  0  0  0  0
 11 17  1  0  0  0  0
 13 14  1  0  0  0  0
 14 15  2  0  0  0  0
 14 20  1  0  0  0  0
 15 21  1  0  0  0  0
 16 15  1  0  0  0  0
 17 16  2  0  0  0  0
 18 17  1  0  0  0  0
 18 13  2  0  0  0  0
 19 13  1  0  0  0  0
 22 23  1  0  0  0  0
 24  6  1  0  0  0  0
 25 24  2  0  0  0  0
 26 25  1  0  0  0  0
 26 29  1  0  0  0  0
 27 26  1  0  0  0  0
 28 26  1  0  0  0  0
 30 29  1  6  0  0  0
 30 36  1  0  0  0  0
 31 30  1  0  0  0  0
 31 33  1  0  0  0  0
 32 31  1  0  0  0  0
 33 34  1  0  0  0  0
 33 35  1  0  0  0  0
 36 35  1  0  0  0  0
 37 36  1  0  0  0  0
M  END
>  <minimizedAffinity>
-5.12652922

$$$$

 OpenBabel03272509443D

 37 39  0  0  1  0  0  0  0  0999 V2000
   33.7760   31.0540   34.7740 C   0  0  0  0  0  0  0  0  0  0  0  0
   33.5060   32.3190   35.3000 C   0  0  0  0  0  0  0  0  0  0  0  0
   34.4890   33.0730   35.9280 C   0  0  0  0  0  0  0  0  0  0  0  0
   35.7820   32.5570   36.0410 C   0  0  0  0  0  0  0  0  0  0  0  0
   36.0320   31.3190   35.5220 C   0  0  0  0  0  0  0  0  0  0  0  0
   35.0250   30.5940   34.9020 C   0  0  0  0  0  0  0  0  0  0  0  0
   32.4950   32.7080   35.2040 H   0  0  0  0  0  0  0  0  0  0  0  0
   34.1920   34.0270   36.3000 H   0  0  0  0  0  0  0  0  0  0  0  0
   36.4750   33.2070   36.5410 H   0  0  0  0  0  0  0  0  0  0  0  0
   37.0750   31.0540   35.6890 H   0  0  0  0  0  0  0  0  0  0  0  0
   32.7450   30.2530   34.1500 C   0  0  2  0  0  0  0  0  0  0  0  0
   31.7830   30.8950   34.2100 H   0  0  0  0  0  0  0  0  0  0  0  0
   31.5140   28.2610   36.9280 C   0  0  0  0  0  0  0  0  0  0  0  0
   30.6110   27.3940   36.3450 C   0  0  0  0  0  0  0  0  0  0  0  0
   30.4590   27.4410   34.9720 C   0  0  0  0  0  0  0  0  0  0  0  0
   31.2020   28.3380   34.2380 N   0  0  0  0  0  0  0  0  0  0  0  0
   32.0470   29.1410   34.8560 C   0  0  0  0  0  0  0  0  0  0  0  0
   32.2120   29.1080   36.1970 N   0  0  0  0  0  0  0  0  0  0  0  0
   31.6000   28.1880   38.0050 H   0  0  0  0  0  0  0  0  0  0  0  0
   29.9860   26.6620   36.8240 H   0  0  0  0  0  0  0  0  0  0  0  0
   29.7950   26.8260   34.3800 H   0  0  0  0  0  0  0  0  0  0  0  0
   32.8410   30.2390   32.8670 O   0  0  0  0  0  0  0  0  0  0  0  0
   32.4520   29.5390   32.3120 H   0  0  0  0  0  0  0  0  0  0  0  0
   35.4180   29.2880   34.4240 C   0  0  0  0  0  3  0  0  0  0  0  0
   36.5130   28.6400   34.8390 C   0  0  0  0  0  3  0  0  0  0  0  0
   36.9890   27.2920   34.4540 C   0  0  0  0  0  0  0  0  0  0  0  0
   36.1310   26.5970   34.5590 H   0  0  0  0  0  0  0  0  0  0  0  0
   37.3270   27.2620   33.3880 H   0  0  0  0  0  0  0  0  0  0  0  0
   38.3000   26.7730   35.5680 S   0  0  0  0  0  0  0  0  0  0  0  0
   38.3080   24.9630   35.6090 C   0  0  1  0  0  3  0  0  0  0  0  0
   39.6780   24.3690   35.4540 C   0  0  0  0  0  3  0  0  0  0  0  0
   40.5060   25.0900   35.6510 H   0  0  0  0  0  0  0  0  0  0  0  0
   39.6420   23.2160   36.4020 C   0  0  0  0  0  3  0  0  0  0  0  0
   39.4420   22.2620   35.8700 H   0  0  0  0  0  0  0  0  0  0  0  0
   38.6460   23.3970   37.3220 O   0  0  0  0  0  0  0  0  0  0  0  0
   37.9330   24.5220   37.0040 C   0  0  0  0  0  3  0  0  0  0  0  0
   38.1330   25.3560   37.7380 H   0  0  0  0  0  0  0  0  0  0  0  0
  1  6  2  0  0  0  0
  1  2  1  0  0  0  0
  2  3  2  0  0  0  0
  3  4  1  0  0  0  0
  3  8  1  0  0  0  0
  4  9  1  0  0  0  0
  5 10  1  0  0  0  0
  5  4  2  0  0  0  0
  6  5  1  0  0  0  0
  7  2  1  0  0  0  0
 11 12  1  1  0  0  0
 11  1  1  0  0  0  0
 11 17  1  0  0  0  0
 13 19  1  0  0  0  0
 14 20  1  0  0  0  0
 14 13  1  0  0  0  0
 15 14  2  0  0  0  0
 16 17  2  0  0  0  0
 16 15  1  0  0  0  0
 17 18  1  0  0  0  0
 18 13  2  0  0  0  0
 21 15  1  0  0  0  0
 22 11  1  0  0  0  0
 23 22  1  0  0  0  0
 24 25  2  0  0  0  0
 24  6  1  0  0  0  0
 26 27  1  0  0  0  0
 26 25  1  0  0  0  0
 26 29  1  0  0  0  0
 28 26  1  0  0  0  0
 30 29  1  1  0  0  0
 30 36  1  0  0  0  0
 31 30  1  0  0  0  0
 31 32  1  0  0  0  0
 31 33  1  0  0  0  0
 33 35  1  0  0  0  0
 34 33  1  0  0  0  0
 36 35  1  0  0  0  0
 36 37  1  0  0  0  0
M  END
>  <minimizedAffinity>
-5.09023142

$$$$

 OpenBabel03272509443D

 37 39  0  0  1  0  0  0  0  0999 V2000
   36.1350   29.6390   31.5250 C   0  0  0  0  0  0  0  0  0  0  0  0
   36.4270   30.3520   30.3600 C   0  0  0  0  0  0  0  0  0  0  0  0
   37.3900   29.9170   29.4600 C   0  0  0  0  0  0  0  0  0  0  0  0
   38.0870   28.7350   29.7190 C   0  0  0  0  0  0  0  0  0  0  0  0
   37.7920   28.0470   30.8610 C   0  0  0  0  0  0  0  0  0  0  0  0
   36.8240   28.5140   31.7390 C   0  0  0  0  0  0  0  0  0  0  0  0
   35.8750   31.2710   30.1710 H   0  0  0  0  0  0  0  0  0  0  0  0
   37.5450   30.5260   28.5980 H   0  0  0  0  0  0  0  0  0  0  0  0
   38.8120   28.4760   28.9700 H   0  0  0  0  0  0  0  0  0  0  0  0
   38.4160   27.1570   30.9250 H   0  0  0  0  0  0  0  0  0  0  0  0
   35.1580   30.1100   32.4820 C   0  0  2  0  0  0  0  0  0  0  0  0
   34.5670   30.9390   31.9310 H   0  0  0  0  0  0  0  0  0  0  0  0
   35.9650   31.2770   35.8260 C   0  0  0  0  0  0  0  0  0  0  0  0
   36.3790   32.5810   35.6350 C   0  0  0  0  0  0  0  0  0  0  0  0
   36.3270   33.0990   34.3550 C   0  0  0  0  0  0  0  0  0  0  0  0
   35.8690   32.3100   33.3230 N   0  0  0  0  0  0  0  0  0  0  0  0
   35.4900   31.0710   33.5710 C   0  0  0  0  0  0  0  0  0  0  0  0
   35.5320   30.5470   34.8170 N   0  0  0  0  0  0  0  0  0  0  0  0
   36.0240   30.9150   36.8450 H   0  0  0  0  0  0  0  0  0  0  0  0
   36.7510   33.2750   36.3670 H   0  0  0  0  0  0  0  0  0  0  0  0
   36.6140   34.0970   34.0560 H   0  0  0  0  0  0  0  0  0  0  0  0
   34.1750   29.2920   32.6250 O   0  0  0  0  0  0  0  0  0  0  0  0
   33.6040   29.2790   33.4150 H   0  0  0  0  0  0  0  0  0  0  0  0
   36.6330   27.7050   32.9220 C   0  0  0  0  0  3  0  0  0  0  0  0
   37.6330   27.2390   33.6770 C   0  0  0  0  0  3  0  0  0  0  0  0
   37.5560   26.4430   34.9230 C   0  0  0  0  0  0  0  0  0  0  0  0
   37.7710   27.1300   35.7670 H   0  0  0  0  0  0  0  0  0  0  0  0
   36.5320   26.0180   35.0790 H   0  0  0  0  0  0  0  0  0  0  0  0
   38.8010   25.1480   34.8920 S   0  0  0  0  0  0  0  0  0  0  0  0
   38.3680   23.9320   36.1610 C   0  0  1  0  0  3  0  0  0  0  0  0
   39.5570   23.2030   36.7180 C   0  0  0  0  0  3  0  0  0  0  0  0
   40.5300   23.7110   36.5200 H   0  0  0  0  0  0  0  0  0  0  0  0
   39.2190   23.0880   38.1680 C   0  0  0  0  0  3  0  0  0  0  0  0
   38.8060   22.0860   38.4080 H   0  0  0  0  0  0  0  0  0  0  0  0
   38.2730   24.0200   38.5030 O   0  0  0  0  0  0  0  0  0  0  0  0
   37.8630   24.6760   37.3740 C   0  0  0  0  0  3  0  0  0  0  0  0
   38.2420   25.7400   37.3590 H   0  0  0  0  0  0  0  0  0  0  0  0
  1  6  1  0  0  0  0
  1 11  1  0  0  0  0
  2  1  2  0  0  0  0
  3  4  2  0  0  0  0
  3  2  1  0  0  0  0
  4  5  1  0  0  0  0
  5 10  1  0  0  0  0
  5  6  2  0  0  0  0
  6 24  1  0  0  0  0
  7  2  1  0  0  0  0
  8  3  1  0  0  0  0
  9  4  1  0  0  0  0
 11 12  1  6  0  0  0
 11 22  1  0  0  0  0
 11 17  1  0  0  0  0
 13 19  1  0  0  0  0
 14 13  1  0  0  0  0
 14 20  1  0  0  0  0
 15 14  2  0  0  0  0
 16 17  2  0  0  0  0
 16 15  1  0  0  0  0
 17 18  1  0  0  0  0
 18 13  2  0  0  0  0
 21 15  1  0  0  0  0
 22 23  1  0  0  0  0
 24 25  2  0  0  0  0
 25 26  1  0  0  0  0
 26 28  1  0  0  0  0
 26 27  1  0  0  0  0
 29 26  1  0  0  0  0
 30 29  1  6  0  0  0
 30 31  1  0  0  0  0
 30 36  1  0  0  0  0
 31 33  1  0  0  0  0
 32 31  1  0  0  0  0
 33 34  1  0  0  0  0
 33 35  1  0  0  0  0
 36 35  1  0  0  0  0
 37 36  1  0  0  0  0
M  END
>  <minimizedAffinity>
-5.08922625

$$$$

 OpenBabel03272509443D

 37 39  0  0  1  0  0  0  0  0999 V2000
   36.6200   21.8550   31.8750 C   0  0  0  0  0  0  0  0  0  0  0  0
   35.7150   21.0760   31.1510 C   0  0  0  0  0  0  0  0  0  0  0  0
   34.9930   20.0510   31.7470 C   0  0  0  0  0  0  0  0  0  0  0  0
   35.1720   19.7870   33.1070 C   0  0  0  0  0  0  0  0  0  0  0  0
   36.0610   20.5560   33.8040 C   0  0  0  0  0  0  0  0  0  0  0  0
   36.7650   21.5710   33.1740 C   0  0  0  0  0  0  0  0  0  0  0  0
   35.5850   21.2940   30.0920 H   0  0  0  0  0  0  0  0  0  0  0  0
   34.3260   19.5090   31.1160 H   0  0  0  0  0  0  0  0  0  0  0  0
   34.5750   18.9780   33.4830 H   0  0  0  0  0  0  0  0  0  0  0  0
   36.0930   20.2300   34.8420 H   0  0  0  0  0  0  0  0  0  0  0  0
   37.3990   22.9000   31.2470 C   0  0  2  0  0  0  0  0  0  0  0  0
   38.2360   23.1530   32.0060 H   0  0  0  0  0  0  0  0  0  0  0  0
   37.6770   26.5010   30.8580 C   0  0  0  0  0  0  0  0  0  0  0  0
   36.3680   26.9430   30.8750 C   0  0  0  0  0  0  0  0  0  0  0  0
   35.3700   26.0100   31.0860 C   0  0  0  0  0  0  0  0  0  0  0  0
   35.7080   24.6870   31.2680 N   0  0  0  0  0  0  0  0  0  0  0  0
   36.9770   24.3290   31.2380 C   0  0  0  0  0  0  0  0  0  0  0  0
   37.9670   25.2270   31.0370 N   0  0  0  0  0  0  0  0  0  0  0  0
   38.4240   27.2670   30.6910 H   0  0  0  0  0  0  0  0  0  0  0  0
   36.0020   27.9440   30.7430 H   0  0  0  0  0  0  0  0  0  0  0  0
   34.3090   26.2060   31.1270 H   0  0  0  0  0  0  0  0  0  0  0  0
   38.1660   22.4510   30.3170 O   0  0  0  0  0  0  0  0  0  0  0  0
   38.5170   23.0110   29.6010 H   0  0  0  0  0  0  0  0  0  0  0  0
   37.6920   22.2870   34.0200 C   0  0  0  0  0  3  0  0  0  0  0  0
   37.7380   22.1610   35.3510 C   0  0  0  0  0  3  0  0  0  0  0  0
   38.6640   22.8070   36.3080 C   0  0  0  0  0  0  0  0  0  0  0  0
   38.7710   22.1240   37.1760 H   0  0  0  0  0  0  0  0  0  0  0  0
   39.6800   22.9570   35.8630 H   0  0  0  0  0  0  0  0  0  0  0  0
   37.9640   24.3620   36.8720 S   0  0  0  0  0  0  0  0  0  0  0  0
   38.3830   25.6340   35.6550 C   0  0  1  0  0  3  0  0  0  0  0  0
   37.3000   25.8710   34.6430 C   0  0  0  0  0  3  0  0  0  0  0  0
   36.3010   25.4840   34.9530 H   0  0  0  0  0  0  0  0  0  0  0  0
   37.3440   27.3520   34.4590 C   0  0  0  0  0  3  0  0  0  0  0  0
   37.9120   27.6290   33.5460 H   0  0  0  0  0  0  0  0  0  0  0  0
   37.9640   27.9380   35.5290 O   0  0  0  0  0  0  0  0  0  0  0  0
   38.4430   26.9650   36.3650 C   0  0  0  0  0  3  0  0  0  0  0  0
   37.8470   26.9180   37.3230 H   0  0  0  0  0  0  0  0  0  0  0  0
  1  6  1  0  0  0  0
  2  3  1  0  0  0  0
  2  1  2  0  0  0  0
  3  4  2  0  0  0  0
  4  9  1  0  0  0  0
  4  5  1  0  0  0  0
  5 10  1  0  0  0  0
  6  5  2  0  0  0  0
  6 24  1  0  0  0  0
  7  2  1  0  0  0  0
  8  3  1  0  0  0  0
 11  1  1  0  0  0  0
 11 12  1  1  0  0  0
 13 14  2  0  0  0  0
 13 18  1  0  0  0  0
 14 15  1  0  0  0  0
 15 21  1  0  0  0  0
 15 16  2  0  0  0  0
 17 11  1  0  0  0  0
 17 16  1  0  0  0  0
 18 17  2  0  0  0  0
 19 13  1  0  0  0  0
 20 14  1  0  0  0  0
 22 11  1  0  0  0  0
 23 22  1  0  0  0  0
 24 25  2  0  0  0  0
 25 26  1  0  0  0  0
 26 29  1  0  0  0  0
 26 27  1  0  0  0  0
 28 26  1  0  0  0  0
 30 36  1  0  0  0  0
 30 29  1  1  0  0  0
 31 32  1  0  0  0  0
 31 30  1  0  0  0  0
 33 31  1  0  0  0  0
 33 35  1  0  0  0  0
 34 33  1  0  0  0  0
 35 36  1  0  0  0  0
 36 37  1  0  0  0  0
M  END
>  <minimizedAffinity>
-5.06518269

$$$$

 OpenBabel03272509443D

 37 39  0  0  1  0  0  0  0  0999 V2000
   36.5500   28.6850   32.3910 C   0  0  0  0  0  0  0  0  0  0  0  0
   36.0110   29.7650   31.6890 C   0  0  0  0  0  0  0  0  0  0  0  0
   35.2830   30.7600   32.3290 C   0  0  0  0  0  0  0  0  0  0  0  0
   35.0800   30.6830   33.7080 C   0  0  0  0  0  0  0  0  0  0  0  0
   35.6120   29.6210   34.3820 C   0  0  0  0  0  0  0  0  0  0  0  0
   36.3340   28.6450   33.7090 C   0  0  0  0  0  0  0  0  0  0  0  0
   36.1780   29.8130   30.6150 H   0  0  0  0  0  0  0  0  0  0  0  0
   34.9090   31.5460   31.7130 H   0  0  0  0  0  0  0  0  0  0  0  0
   34.5070   31.4930   34.1170 H   0  0  0  0  0  0  0  0  0  0  0  0
   35.3690   29.6970   35.4410 H   0  0  0  0  0  0  0  0  0  0  0  0
   37.2790   27.6290   31.7210 C   0  0  2  0  0  0  0  0  0  0  0  0
   37.2270   27.8910   30.5940 H   0  0  0  0  0  0  0  0  0  0  0  0
   36.9780   24.0090   31.6760 C   0  0  0  0  0  0  0  0  0  0  0  0
   35.6710   23.7860   31.2870 C   0  0  0  0  0  0  0  0  0  0  0  0
   34.8900   24.8820   30.9720 C   0  0  0  0  0  0  0  0  0  0  0  0
   35.4320   26.1460   31.0560 N   0  0  0  0  0  0  0  0  0  0  0  0
   36.6860   26.2920   31.4360 C   0  0  0  0  0  0  0  0  0  0  0  0
   37.4660   25.2320   31.7460 N   0  0  0  0  0  0  0  0  0  0  0  0
   37.5500   23.1210   31.9120 H   0  0  0  0  0  0  0  0  0  0  0  0
   35.1560   22.8470   31.1910 H   0  0  0  0  0  0  0  0  0  0  0  0
   33.8590   24.8620   30.6520 H   0  0  0  0  0  0  0  0  0  0  0  0
   38.5530   27.7530   31.8490 O   0  0  0  0  0  0  0  0  0  0  0  0
   39.1730   27.0080   31.7430 H   0  0  0  0  0  0  0  0  0  0  0  0
   36.8160   27.5630   34.5380 C   0  0  0  0  0  3  0  0  0  0  0  0
   37.8170   27.6830   35.4160 C   0  0  0  0  0  3  0  0  0  0  0  0
   38.3630   26.6630   36.3390 C   0  0  0  0  0  0  0  0  0  0  0  0
   39.3530   27.0260   36.6840 H   0  0  0  0  0  0  0  0  0  0  0  0
   37.7130   26.5320   37.2410 H   0  0  0  0  0  0  0  0  0  0  0  0
   38.5840   25.1100   35.4630 S   0  0  0  0  0  0  0  0  0  0  0  0
   39.9920   25.3010   34.3420 C   0  0  1  0  0  3  0  0  0  0  0  0
   40.9440   26.3850   34.7600 C   0  0  0  0  0  3  0  0  0  0  0  0
   40.8350   26.6940   35.8260 H   0  0  0  0  0  0  0  0  0  0  0  0
   42.2760   25.7920   34.4360 C   0  0  0  0  0  3  0  0  0  0  0  0
   42.6620   26.1720   33.4670 H   0  0  0  0  0  0  0  0  0  0  0  0
   42.1710   24.4310   34.3380 O   0  0  0  0  0  0  0  0  0  0  0  0
   40.8560   24.0680   34.4570 C   0  0  0  0  0  3  0  0  0  0  0  0
   40.6610   23.5510   35.4410 H   0  0  0  0  0  0  0  0  0  0  0  0
  1  6  1  0  0  0  0
  2  3  1  0  0  0  0
  2  1  2  0  0  0  0
  3  4  2  0  0  0  0
  4  9  1  0  0  0  0
  4  5  1  0  0  0  0
  5 10  1  0  0  0  0
  6  5  2  0  0  0  0
  6 24  1  0  0  0  0
  7  2  1  0  0  0  0
  8  3  1  0  0  0  0
 11 12  1  6  0  0  0
 11 22  1  0  0  0  0
 11  1  1  0  0  0  0
 13 18  1  0  0  0  0
 13 19  1  0  0  0  0
 14 13  2  0  0  0  0
 15 16  2  0  0  0  0
 15 14  1  0  0  0  0
 16 17  1  0  0  0  0
 17 11  1  0  0  0  0
 17 18  2  0  0  0  0
 20 14  1  0  0  0  0
 21 15  1  0  0  0  0
 23 22  1  0  0  0  0
 24 25  2  0  0  0  0
 25 26  1  0  0  0  0
 26 27  1  0  0  0  0
 26 28  1  0  0  0  0
 29 26  1  0  0  0  0
 30 36  1  0  0  0  0
 30 31  1  0  0  0  0
 30 29  1  1  0  0  0
 31 32  1  0  0  0  0
 33 31  1  0  0  0  0
 34 33  1  0  0  0  0
 35 33  1  0  0  0  0
 35 36  1  0  0  0  0
 36 37  1  0  0  0  0
M  END
>  <minimizedAffinity>
-5.0393877

$$$$
