
 OpenBabel03272509433D

 37 39  0  0  1  0  0  0  0  0999 V2000
   37.0210   30.9270   49.0060 C   0  0  0  0  0  0  0  0  0  0  0  0
   36.7350   31.7940   50.0620 C   0  0  0  0  0  0  0  0  0  0  0  0
   37.3260   33.0470   50.1580 C   0  0  0  0  0  0  0  0  0  0  0  0
   38.2310   33.4550   49.1760 C   0  0  0  0  0  0  0  0  0  0  0  0
   38.5020   32.5970   48.1490 C   0  0  0  0  0  0  0  0  0  0  0  0
   37.8930   31.3520   48.0870 C   0  0  0  0  0  0  0  0  0  0  0  0
   36.0270   31.4630   50.8200 H   0  0  0  0  0  0  0  0  0  0  0  0
   37.0480   33.6410   50.9990 H   0  0  0  0  0  0  0  0  0  0  0  0
   38.6390   34.4370   49.3300 H   0  0  0  0  0  0  0  0  0  0  0  0
   39.2230   33.0510   47.4700 H   0  0  0  0  0  0  0  0  0  0  0  0
   36.4330   29.6070   48.9240 C   0  0  2  0  0  0  0  0  0  0  0  0
   36.9510   29.0990   48.0220 H   0  0  0  0  0  0  0  0  0  0  0  0
   33.5580   30.1260   46.7640 C   0  0  0  0  0  0  0  0  0  0  0  0
   32.8610   28.9360   46.8410 C   0  0  0  0  0  0  0  0  0  0  0  0
   33.3390   27.9570   47.6910 C   0  0  0  0  0  0  0  0  0  0  0  0
   34.4810   28.1950   48.4240 N   0  0  0  0  0  0  0  0  0  0  0  0
   35.1020   29.3520   48.3030 C   0  0  0  0  0  0  0  0  0  0  0  0
   34.6480   30.3230   47.4790 N   0  0  0  0  0  0  0  0  0  0  0  0
   33.1460   30.8630   46.0860 H   0  0  0  0  0  0  0  0  0  0  0  0
   31.9680   28.6530   46.3150 H   0  0  0  0  0  0  0  0  0  0  0  0
   32.9020   26.9830   47.8560 H   0  0  0  0  0  0  0  0  0  0  0  0
   36.8830   28.8100   49.8280 O   0  0  0  0  0  0  0  0  0  0  0  0
   36.4040   28.0140   50.1210 H   0  0  0  0  0  0  0  0  0  0  0  0
   38.2910   30.5330   46.9640 C   0  0  0  0  0  3  0  0  0  0  0  0
   39.1090   30.9480   45.9910 C   0  0  0  0  0  3  0  0  0  0  0  0
   39.6140   30.1890   44.8240 C   0  0  0  0  0  0  0  0  0  0  0  0
   40.6790   29.9500   45.0220 H   0  0  0  0  0  0  0  0  0  0  0  0
   39.0650   29.2240   44.6890 H   0  0  0  0  0  0  0  0  0  0  0  0
   39.5110   31.2090   43.3490 S   0  0  0  0  0  0  0  0  0  0  0  0
   37.7700   31.3120   42.8660 C   0  0  1  0  0  3  0  0  0  0  0  0
   37.0540   32.4900   43.4630 C   0  0  0  0  0  3  0  0  0  0  0  0
   37.7360   33.2870   43.8420 H   0  0  0  0  0  0  0  0  0  0  0  0
   36.1700   32.9340   42.3440 C   0  0  0  0  0  3  0  0  0  0  0  0
   35.1340   32.5560   42.4740 H   0  0  0  0  0  0  0  0  0  0  0  0
   36.6420   32.4520   41.1530 O   0  0  0  0  0  0  0  0  0  0  0  0
   37.7080   31.6240   41.3900 C   0  0  0  0  0  3  0  0  0  0  0  0
   38.6770   32.0980   41.0550 H   0  0  0  0  0  0  0  0  0  0  0  0
  1  2  1  0  0  0  0
  2  3  2  0  0  0  0
  2  7  1  0  0  0  0
  3  8  1  0  0  0  0
  4  9  1  0  0  0  0
  4  3  1  0  0  0  0
  5  4  2  0  0  0  0
  6  5  1  0  0  0  0
  6  1  2  0  0  0  0
 10  5  1  0  0  0  0
 11 12  1  6  0  0  0
 11  1  1  0  0  0  0
 11 22  1  0  0  0  0
 13 14  2  0  0  0  0
 13 18  1  0  0  0  0
 14 15  1  0  0  0  0
 15 21  1  0  0  0  0
 15 16  2  0  0  0  0
 17 16  1  0  0  0  0
 17 11  1  0  0  0  0
 18 17  2  0  0  0  0
 19 13  1  0  0  0  0
 20 14  1  0  0  0  0
 22 23  1  0  0  0  0
 24  6  1  0  0  0  0
 25 24  2  0  0  0  0
 26 27  1  0  0  0  0
 26 25  1  0  0  0  0
 28 26  1  0  0  0  0
 29 26  1  0  0  0  0
 30 29  1  1  0  0  0
 30 31  1  0  0  0  0
 31 32  1  0  0  0  0
 33 34  1  0  0  0  0
 33 31  1  0  0  0  0
 35 36  1  0  0  0  0
 35 33  1  0  0  0  0
 36 30  1  0  0  0  0
 37 36  1  0  0  0  0
M  END
>  <minimizedAffinity>
-5.45926809

>  <minimizedRMSD>
0.295290053

$$$$
