
 OpenBabel03272503243D

 31 33  0  0  1  0  0  0  0  0999 V2000
   36.3660   29.8530   49.3080 N   0  0  0  0  0  0  0  0  0  0  0  0
   36.8970   31.1700   49.1860 C   0  0  1  0  0  0  0  0  0  0  0  0
   37.5460   31.4310   50.5350 C   0  0  0  0  0  0  0  0  0  0  0  0
   37.2660   30.1500   51.3520 C   0  0  0  0  0  0  0  0  0  0  0  0
   37.1980   29.1480   50.2480 C   0  0  0  0  0  0  0  0  0  0  0  0
   36.0610   31.9420   49.1490 H   0  0  0  0  0  0  0  0  0  0  0  0
   38.6380   31.4640   50.3440 H   0  0  0  0  0  0  0  0  0  0  0  0
   37.1930   32.3310   51.0410 H   0  0  0  0  0  0  0  0  0  0  0  0
   38.1560   29.9840   51.9760 H   0  0  0  0  0  0  0  0  0  0  0  0
   36.3210   30.2420   51.9190 H   0  0  0  0  0  0  0  0  0  0  0  0
   38.2010   28.9200   49.8750 H   0  0  0  0  0  0  0  0  0  0  0  0
   36.7090   28.2040   50.5870 H   0  0  0  0  0  0  0  0  0  0  0  0
   35.2220   29.3440   48.6300 C   0  0  0  0  0  0  0  0  0  0  0  0
   34.5830   30.1810   47.7020 C   0  0  0  0  0  0  0  0  0  0  0  0
   33.4580   29.7090   47.0190 C   0  0  0  0  0  0  0  0  0  0  0  0
   33.0540   28.4320   47.3140 N   0  0  0  0  0  0  0  0  0  0  0  0
   33.6930   27.6510   48.2150 C   0  0  0  0  0  0  0  0  0  0  0  0
   34.8020   28.1000   48.8970 N   0  0  0  0  0  0  0  0  0  0  0  0
   34.9000   31.1810   47.4700 H   0  0  0  0  0  0  0  0  0  0  0  0
   32.9650   30.3340   46.3120 H   0  0  0  0  0  0  0  0  0  0  0  0
   33.2950   26.6590   48.3770 H   0  0  0  0  0  0  0  0  0  0  0  0
   37.7480   31.4290   48.0270 C   0  0  0  0  0  0  0  0  0  0  0  0
   38.1340   32.6080   47.9750 O   0  0  0  0  0  0  0  0  0  0  0  0
   38.2840   30.6520   46.8660 C   0  0  1  0  0  3  0  0  0  0  0  0
   37.5020   30.7150   45.6160 C   0  0  0  0  0  3  0  0  0  0  0  0
   36.7660   29.8990   45.4790 H   0  0  0  0  0  0  0  0  0  0  0  0
   38.5810   30.4490   44.5660 C   0  0  0  0  0  3  0  0  0  0  0  0
   38.6090   29.3630   44.2950 H   0  0  0  0  0  0  0  0  0  0  0  0
   39.7850   30.7340   45.1500 O   0  0  0  0  0  0  0  0  0  0  0  0
   39.5840   31.2600   46.3930 C   0  0  0  0  0  3  0  0  0  0  0  0
   40.3810   31.0030   47.1240 H   0  0  0  0  0  0  0  0  0  0  0  0
  1  5  1  0  0  0  0
  2  6  1  6  0  0  0
  2  1  1  0  0  0  0
  2  3  1  0  0  0  0
  3  8  1  0  0  0  0
  3  4  1  0  0  0  0
  4 10  1  0  0  0  0
  4  9  1  0  0  0  0
  5 12  1  0  0  0  0
  5  4  1  0  0  0  0
  7  3  1  0  0  0  0
 11  5  1  0  0  0  0
 13 18  1  0  0  0  0
 13  1  1  0  0  0  0
 14 13  2  0  0  0  0
 15 16  2  0  0  0  0
 15 14  1  0  0  0  0
 16 17  1  0  0  0  0
 17 21  1  0  0  0  0
 17 18  2  0  0  0  0
 19 14  1  0  0  0  0
 20 15  1  0  0  0  0
 22  2  1  0  0  0  0
 23 22  2  0  0  0  0
 24 22  1  1  0  0  0
 25 24  1  0  0  0  0
 26 25  1  0  0  0  0
 27 29  1  0  0  0  0
 27 25  1  0  0  0  0
 28 27  1  0  0  0  0
 29 30  1  0  0  0  0
 30 24  1  0  0  0  0
 30 31  1  0  0  0  0
M  END
>  <minimizedAffinity>
-5.2968049

>  <minimizedRMSD>
0.892351091

$$$$
