
 OpenBabel03272509433D

 37 39  0  0  1  0  0  0  0  0999 V2000
   37.0460   30.9270   49.0240 C   0  0  0  0  0  0  0  0  0  0  0  0
   36.7710   31.8150   50.0660 C   0  0  0  0  0  0  0  0  0  0  0  0
   37.3680   33.0670   50.1350 C   0  0  0  0  0  0  0  0  0  0  0  0
   38.2690   33.4530   49.1410 C   0  0  0  0  0  0  0  0  0  0  0  0
   38.5300   32.5750   48.1270 C   0  0  0  0  0  0  0  0  0  0  0  0
   37.9140   31.3320   48.0910 C   0  0  0  0  0  0  0  0  0  0  0  0
   36.0660   31.5010   50.8340 H   0  0  0  0  0  0  0  0  0  0  0  0
   37.0980   33.6770   50.9670 H   0  0  0  0  0  0  0  0  0  0  0  0
   38.6820   34.4350   49.2750 H   0  0  0  0  0  0  0  0  0  0  0  0
   39.2480   33.0140   47.4360 H   0  0  0  0  0  0  0  0  0  0  0  0
   36.4520   29.6100   48.9690 C   0  0  2  0  0  0  0  0  0  0  0  0
   36.9830   29.0730   48.0910 H   0  0  0  0  0  0  0  0  0  0  0  0
   33.5820   30.1260   46.8020 C   0  0  0  0  0  0  0  0  0  0  0  0
   32.9080   28.9210   46.8440 C   0  0  0  0  0  0  0  0  0  0  0  0
   33.4010   27.9300   47.6720 C   0  0  0  0  0  0  0  0  0  0  0  0
   34.5320   28.1720   48.4190 N   0  0  0  0  0  0  0  0  0  0  0  0
   35.1310   29.3440   48.3330 C   0  0  0  0  0  0  0  0  0  0  0  0
   34.6630   30.3270   47.5310 N   0  0  0  0  0  0  0  0  0  0  0  0
   33.1600   30.8720   46.1410 H   0  0  0  0  0  0  0  0  0  0  0  0
   32.0240   28.6330   46.3050 H   0  0  0  0  0  0  0  0  0  0  0  0
   32.9820   26.9440   47.8090 H   0  0  0  0  0  0  0  0  0  0  0  0
   36.8810   28.8360   49.9030 O   0  0  0  0  0  0  0  0  0  0  0  0
   36.3930   28.0510   50.2110 H   0  0  0  0  0  0  0  0  0  0  0  0
   38.3020   30.4910   46.9810 C   0  0  0  0  0  3  0  0  0  0  0  0
   39.0690   30.9030   45.9660 C   0  0  0  0  0  3  0  0  0  0  0  0
   39.5590   30.1240   44.8060 C   0  0  0  0  0  0  0  0  0  0  0  0
   40.5200   29.6570   45.1040 H   0  0  0  0  0  0  0  0  0  0  0  0
   38.8500   29.3040   44.5290 H   0  0  0  0  0  0  0  0  0  0  0  0
   39.8540   31.2270   43.4180 S   0  0  0  0  0  0  0  0  0  0  0  0
   38.2850   31.4500   42.5440 C   0  0  1  0  0  3  0  0  0  0  0  0
   37.2860   30.3640   42.8240 C   0  0  0  0  0  3  0  0  0  0  0  0
   37.5120   29.7680   43.7390 H   0  0  0  0  0  0  0  0  0  0  0  0
   35.9980   31.1160   42.8960 C   0  0  0  0  0  3  0  0  0  0  0  0
   35.4340   31.0450   41.9420 H   0  0  0  0  0  0  0  0  0  0  0  0
   36.2430   32.4410   43.1360 O   0  0  0  0  0  0  0  0  0  0  0  0
   37.5930   32.6640   43.1190 C   0  0  0  0  0  3  0  0  0  0  0  0
   37.9870   32.8770   44.1550 H   0  0  0  0  0  0  0  0  0  0  0  0
  1  2  1  0  0  0  0
  2  3  2  0  0  0  0
  2  7  1  0  0  0  0
  3  8  1  0  0  0  0
  4  9  1  0  0  0  0
  4  3  1  0  0  0  0
  5  4  2  0  0  0  0
  6  5  1  0  0  0  0
  6  1  2  0  0  0  0
 10  5  1  0  0  0  0
 11 12  1  6  0  0  0
 11  1  1  0  0  0  0
 11 22  1  0  0  0  0
 13 14  2  0  0  0  0
 13 18  1  0  0  0  0
 14 15  1  0  0  0  0
 15 21  1  0  0  0  0
 15 16  2  0  0  0  0
 17 16  1  0  0  0  0
 17 11  1  0  0  0  0
 18 17  2  0  0  0  0
 19 13  1  0  0  0  0
 20 14  1  0  0  0  0
 22 23  1  0  0  0  0
 24  6  1  0  0  0  0
 25 24  2  0  0  0  0
 26 27  1  0  0  0  0
 26 25  1  0  0  0  0
 28 26  1  0  0  0  0
 29 26  1  0  0  0  0
 30 31  1  0  0  0  0
 30 36  1  0  0  0  0
 30 29  1  1  0  0  0
 31 33  1  0  0  0  0
 31 32  1  0  0  0  0
 33 35  1  0  0  0  0
 34 33  1  0  0  0  0
 36 35  1  0  0  0  0
 36 37  1  0  0  0  0
M  END
>  <minimizedAffinity>
-5.56105423

>  <minimizedRMSD>
0.498816639

$$$$
