
 OpenBabel03272506413D

 18 19  0  0  1  0  0  0  0  0999 V2000
   37.3020   30.1880   51.4270 C   0  0  0  0  0  0  0  0  0  0  0  0
   38.1380   30.7290   50.4280 C   0  0  0  0  0  0  0  0  0  0  0  0
   37.8070   30.5140   49.0860 C   0  0  0  0  0  0  0  0  0  0  0  0
   36.6920   29.7910   48.8120 N   0  0  0  0  0  0  0  0  0  0  0  0
   35.9040   29.2810   49.7770 C   0  0  0  0  0  0  0  0  0  0  0  0
   36.2150   29.4830   51.0690 N   0  0  0  0  0  0  0  0  0  0  0  0
   37.5920   30.3740   52.4430 H   0  0  0  0  0  0  0  0  0  0  0  0
   39.0350   31.3090   50.6230 H   0  0  0  0  0  0  0  0  0  0  0  0
   38.3990   30.8970   48.2710 H   0  0  0  0  0  0  0  0  0  0  0  0
   34.4410   28.3310   49.4150 S   0  0  0  0  0  0  0  0  0  0  0  0
   34.2890   28.1620   47.6440 C   0  0  2  0  0  3  0  0  0  0  0  0
   33.2460   29.1120   47.0410 C   0  0  0  0  0  3  0  0  0  0  0  0
   33.6390   30.1230   46.8720 H   0  0  0  0  0  0  0  0  0  0  0  0
   33.0760   28.3460   45.7200 C   0  0  0  0  0  3  0  0  0  0  0  0
   34.1000   28.2260   45.3230 H   0  0  0  0  0  0  0  0  0  0  0  0
   32.7200   27.0990   46.2550 O   0  0  0  0  0  0  0  0  0  0  0  0
   33.6540   26.8400   47.2410 C   0  0  0  0  0  3  0  0  0  0  0  0
   34.3950   26.1410   46.8000 H   0  0  0  0  0  0  0  0  0  0  0  0
  1  7  1  0  0  0  0
  2  8  1  0  0  0  0
  2  1  2  0  0  0  0
  3  2  1  0  0  0  0
  4  3  2  0  0  0  0
  4  5  1  0  0  0  0
  5  6  2  0  0  0  0
  6  1  1  0  0  0  0
  9  3  1  0  0  0  0
 10  5  1  0  0  0  0
 11 10  1  1  0  0  0
 12 11  1  0  0  0  0
 13 12  1  0  0  0  0
 14 16  1  0  0  0  0
 14 12  1  0  0  0  0
 15 14  1  0  0  0  0
 16 17  1  0  0  0  0
 17 11  1  0  0  0  0
 18 17  1  0  0  0  0
M  END
>  <minimizedAffinity>
-3.59581971

>  <minimizedRMSD>
1.02080083

$$$$
