
 OpenBabel03272509433D

 37 39  0  0  1  0  0  0  0  0999 V2000
   37.0290   30.9220   49.0360 C   0  0  0  0  0  0  0  0  0  0  0  0
   36.7420   31.8040   50.0790 C   0  0  0  0  0  0  0  0  0  0  0  0
   37.3350   33.0570   50.1580 C   0  0  0  0  0  0  0  0  0  0  0  0
   38.2430   33.4510   49.1730 C   0  0  0  0  0  0  0  0  0  0  0  0
   38.5150   32.5780   48.1580 C   0  0  0  0  0  0  0  0  0  0  0  0
   37.9040   31.3330   48.1120 C   0  0  0  0  0  0  0  0  0  0  0  0
   36.0320   31.4850   50.8390 H   0  0  0  0  0  0  0  0  0  0  0  0
   37.0560   33.6640   50.9900 H   0  0  0  0  0  0  0  0  0  0  0  0
   38.6520   34.4340   49.3140 H   0  0  0  0  0  0  0  0  0  0  0  0
   39.2380   33.0210   47.4750 H   0  0  0  0  0  0  0  0  0  0  0  0
   36.4400   29.6020   48.9700 C   0  0  2  0  0  0  0  0  0  0  0  0
   36.9670   29.0760   48.0840 H   0  0  0  0  0  0  0  0  0  0  0  0
   33.5770   30.1050   46.7910 C   0  0  0  0  0  0  0  0  0  0  0  0
   32.8890   28.9080   46.8580 C   0  0  0  0  0  0  0  0  0  0  0  0
   33.3700   27.9300   47.7080 C   0  0  0  0  0  0  0  0  0  0  0  0
   34.5040   28.1750   48.4500 N   0  0  0  0  0  0  0  0  0  0  0  0
   35.1160   29.3380   48.3390 C   0  0  0  0  0  0  0  0  0  0  0  0
   34.6600   30.3080   47.5150 N   0  0  0  0  0  0  0  0  0  0  0  0
   33.1630   30.8410   46.1130 H   0  0  0  0  0  0  0  0  0  0  0  0
   32.0030   28.6190   46.3240 H   0  0  0  0  0  0  0  0  0  0  0  0
   32.9400   26.9510   47.8660 H   0  0  0  0  0  0  0  0  0  0  0  0
   36.8780   28.8200   49.8940 O   0  0  0  0  0  0  0  0  0  0  0  0
   36.3940   28.0300   50.1960 H   0  0  0  0  0  0  0  0  0  0  0  0
   38.3030   30.4980   47.0020 C   0  0  0  0  0  3  0  0  0  0  0  0
   39.0270   30.9320   45.9640 C   0  0  0  0  0  3  0  0  0  0  0  0
   39.5260   30.1640   44.8010 C   0  0  0  0  0  0  0  0  0  0  0  0
   40.5050   29.7290   45.0880 H   0  0  0  0  0  0  0  0  0  0  0  0
   38.8400   29.3200   44.5380 H   0  0  0  0  0  0  0  0  0  0  0  0
   39.7660   31.2680   43.4050 S   0  0  0  0  0  0  0  0  0  0  0  0
   38.1850   31.4170   42.5360 C   0  0  1  0  0  3  0  0  0  0  0  0
   37.2210   30.3100   42.8590 C   0  0  0  0  0  3  0  0  0  0  0  0
   37.4720   29.7520   43.7910 H   0  0  0  0  0  0  0  0  0  0  0  0
   35.9120   31.0270   42.9180 C   0  0  0  0  0  3  0  0  0  0  0  0
   35.3440   30.9080   41.9700 H   0  0  0  0  0  0  0  0  0  0  0  0
   36.1190   32.3660   43.1130 O   0  0  0  0  0  0  0  0  0  0  0  0
   37.4630   32.6270   43.0780 C   0  0  0  0  0  3  0  0  0  0  0  0
   37.8570   32.8850   44.1030 H   0  0  0  0  0  0  0  0  0  0  0  0
  1  2  1  0  0  0  0
  2  3  2  0  0  0  0
  2  7  1  0  0  0  0
  3  8  1  0  0  0  0
  4  9  1  0  0  0  0
  4  3  1  0  0  0  0
  5  4  2  0  0  0  0
  6  5  1  0  0  0  0
  6  1  2  0  0  0  0
 10  5  1  0  0  0  0
 11 12  1  6  0  0  0
 11  1  1  0  0  0  0
 11 22  1  0  0  0  0
 13 14  2  0  0  0  0
 13 18  1  0  0  0  0
 14 15  1  0  0  0  0
 15 21  1  0  0  0  0
 15 16  2  0  0  0  0
 17 16  1  0  0  0  0
 17 11  1  0  0  0  0
 18 17  2  0  0  0  0
 19 13  1  0  0  0  0
 20 14  1  0  0  0  0
 22 23  1  0  0  0  0
 24  6  1  0  0  0  0
 25 24  2  0  0  0  0
 26 27  1  0  0  0  0
 26 25  1  0  0  0  0
 28 26  1  0  0  0  0
 29 26  1  0  0  0  0
 30 31  1  0  0  0  0
 30 36  1  0  0  0  0
 30 29  1  1  0  0  0
 31 33  1  0  0  0  0
 31 32  1  0  0  0  0
 33 35  1  0  0  0  0
 34 33  1  0  0  0  0
 36 35  1  0  0  0  0
 36 37  1  0  0  0  0
M  END
>  <minimizedAffinity>
-5.53734398

>  <minimizedRMSD>
0.504709482

$$$$
