
 OpenBabel03272502303D

 23 24  0  0  1  0  0  0  0  0999 V2000
   39.5660   32.7720   46.5810 C   0  0  0  0  0  0  0  0  0  0  0  0
   39.6390   33.8760   46.6410 H   0  0  0  0  0  0  0  0  0  0  0  0
   40.5910   32.3390   46.4700 H   0  0  0  0  0  0  0  0  0  0  0  0
   38.3500   31.0190   47.8080 C   0  0  0  0  0  3  0  0  0  0  0  0
   38.8920   32.2090   47.7920 C   0  0  0  0  0  3  0  0  0  0  0  0
   37.4220   30.3130   51.3340 C   0  0  0  0  0  0  0  0  0  0  0  0
   38.1080   30.8730   50.2450 C   0  0  0  0  0  0  0  0  0  0  0  0
   37.7110   30.5020   48.9810 C   0  0  0  0  0  0  0  0  0  0  0  0
   36.6840   29.6230   48.8190 N   0  0  0  0  0  0  0  0  0  0  0  0
   36.0480   29.1060   49.8970 C   0  0  0  0  0  0  0  0  0  0  0  0
   36.4070   29.4430   51.1470 N   0  0  0  0  0  0  0  0  0  0  0  0
   37.7440   30.6130   52.3430 H   0  0  0  0  0  0  0  0  0  0  0  0
   38.9200   31.5690   50.4070 H   0  0  0  0  0  0  0  0  0  0  0  0
   35.2410   28.4140   49.6840 H   0  0  0  0  0  0  0  0  0  0  0  0
   38.5770   32.4080   45.0990 S   0  0  0  0  0  0  0  0  0  0  0  0
   39.6810   32.3900   43.6750 C   0  0  1  0  0  3  0  0  0  0  0  0
   40.0370   30.9650   43.2470 C   0  0  0  0  0  3  0  0  0  0  0  0
   39.1200   30.3480   43.3360 H   0  0  0  0  0  0  0  0  0  0  0  0
   40.2740   31.1740   41.7650 C   0  0  0  0  0  3  0  0  0  0  0  0
   41.2680   31.6550   41.6300 H   0  0  0  0  0  0  0  0  0  0  0  0
   39.2300   32.0180   41.4240 O   0  0  0  0  0  0  0  0  0  0  0  0
   39.0460   32.9300   42.4320 C   0  0  0  0  0  3  0  0  0  0  0  0
   37.9500   32.9920   42.6450 H   0  0  0  0  0  0  0  0  0  0  0  0
  1  2  1  0  0  0  0
  1  5  1  0  0  0  0
  3  1  1  0  0  0  0
  4  8  1  0  0  0  0
  5  4  2  0  0  0  0
  6 12  1  0  0  0  0
  7 13  1  0  0  0  0
  7  6  2  0  0  0  0
  8  7  1  0  0  0  0
  9  8  2  0  0  0  0
  9 10  1  0  0  0  0
 10 11  2  0  0  0  0
 11  6  1  0  0  0  0
 14 10  1  0  0  0  0
 15  1  1  0  0  0  0
 16 15  1  1  0  0  0
 17 18  1  0  0  0  0
 17 16  1  0  0  0  0
 19 17  1  0  0  0  0
 20 19  1  0  0  0  0
 21 19  1  0  0  0  0
 21 22  1  0  0  0  0
 22 23  1  0  0  0  0
 22 16  1  0  0  0  0
M  END
>  <minimizedAffinity>
-4.72725821

>  <minimizedRMSD>
0.552308321

$$$$
