
 OpenBabel03272506413D

 18 19  0  0  1  0  0  0  0  0999 V2000
   37.3270   30.2010   51.3950 C   0  0  0  0  0  0  0  0  0  0  0  0
   38.1440   30.7220   50.3700 C   0  0  0  0  0  0  0  0  0  0  0  0
   37.7790   30.4940   49.0380 C   0  0  0  0  0  0  0  0  0  0  0  0
   36.6510   29.7780   48.8000 N   0  0  0  0  0  0  0  0  0  0  0  0
   35.8820   29.2880   49.7900 C   0  0  0  0  0  0  0  0  0  0  0  0
   36.2250   29.5030   51.0720 N   0  0  0  0  0  0  0  0  0  0  0  0
   37.6440   30.3980   52.4010 H   0  0  0  0  0  0  0  0  0  0  0  0
   39.0510   31.2960   50.5360 H   0  0  0  0  0  0  0  0  0  0  0  0
   38.3540   30.8610   48.2050 H   0  0  0  0  0  0  0  0  0  0  0  0
   34.4020   28.3470   49.4750 S   0  0  0  0  0  0  0  0  0  0  0  0
   34.2370   28.1080   47.7140 C   0  0  2  0  0  3  0  0  0  0  0  0
   33.3520   29.1680   47.0470 C   0  0  0  0  0  3  0  0  0  0  0  0
   33.8920   30.1000   46.8310 H   0  0  0  0  0  0  0  0  0  0  0  0
   33.0770   28.3660   45.7650 C   0  0  0  0  0  3  0  0  0  0  0  0
   34.0730   28.0740   45.3900 H   0  0  0  0  0  0  0  0  0  0  0  0
   32.5350   27.2170   46.3610 O   0  0  0  0  0  0  0  0  0  0  0  0
   33.4150   26.8750   47.3710 C   0  0  0  0  0  3  0  0  0  0  0  0
   34.0460   26.0510   46.9780 H   0  0  0  0  0  0  0  0  0  0  0  0
  1  7  1  0  0  0  0
  2  8  1  0  0  0  0
  2  1  2  0  0  0  0
  3  2  1  0  0  0  0
  4  3  2  0  0  0  0
  4  5  1  0  0  0  0
  5  6  2  0  0  0  0
  6  1  1  0  0  0  0
  9  3  1  0  0  0  0
 10  5  1  0  0  0  0
 11 10  1  1  0  0  0
 12 11  1  0  0  0  0
 13 12  1  0  0  0  0
 14 16  1  0  0  0  0
 14 12  1  0  0  0  0
 15 14  1  0  0  0  0
 16 17  1  0  0  0  0
 17 11  1  0  0  0  0
 18 17  1  0  0  0  0
M  END
>  <minimizedAffinity>
-3.59644437

>  <minimizedRMSD>
0.931909978

$$$$
