
 OpenBabel03272507413D

 40 43  0  0  1  0  0  0  0  0999 V2000
   36.7100   32.2890   49.2780 O   0  0  0  0  0  0  0  0  0  0  0  0
   38.2410   32.2580   47.3220 C   0  0  0  0  0  0  0  0  0  0  0  0
   37.8390   32.6980   48.5670 C   0  0  0  0  0  0  0  0  0  0  0  0
   38.5850   33.6500   49.2530 C   0  0  0  0  0  0  0  0  0  0  0  0
   39.7400   34.1550   48.6740 C   0  0  0  0  0  0  0  0  0  0  0  0
   40.1380   33.7110   47.4260 C   0  0  0  0  0  0  0  0  0  0  0  0
   39.3710   32.7670   46.7800 C   0  0  0  0  0  0  0  0  0  0  0  0
   38.3470   34.0420   50.2140 H   0  0  0  0  0  0  0  0  0  0  0  0
   40.3490   34.8990   49.1770 H   0  0  0  0  0  0  0  0  0  0  0  0
   41.0220   34.0740   46.9410 H   0  0  0  0  0  0  0  0  0  0  0  0
   39.8090   32.3010   45.4450 C   0  0  0  0  0  0  0  0  0  0  0  0
   40.6560   31.2710   45.1110 C   0  0  0  0  0  0  0  0  0  0  0  0
   40.7350   31.2510   43.7210 C   0  0  0  0  0  0  0  0  0  0  0  0
   39.9250   32.2770   43.2930 C   0  0  0  0  0  0  0  0  0  0  0  0
   39.3870   32.8850   44.3340 O   0  0  0  0  0  0  0  0  0  0  0  0
   41.1410   30.6290   45.8450 H   0  0  0  0  0  0  0  0  0  0  0  0
   41.3330   30.5420   43.1610 H   0  0  0  0  0  0  0  0  0  0  0  0
   39.7670   32.5320   42.2460 H   0  0  0  0  0  0  0  0  0  0  0  0
   36.7630   30.4940   46.1710 N   0  0  0  0  0  0  0  0  0  0  0  0
   37.4180   31.2830   46.6940 C   0  0  0  0  0  0  0  0  0  0  0  0
   36.6630   31.1990   50.0780 C   0  0  0  0  0  0  0  0  0  0  0  0
   35.5540   30.4030   49.8120 C   0  0  0  0  0  0  0  0  0  0  0  0
   35.3270   29.2350   50.5300 C   0  0  0  0  0  0  0  0  0  0  0  0
   36.2350   28.9100   51.4990 N   0  0  0  0  0  0  0  0  0  0  0  0
   37.3110   29.7050   51.7400 C   0  0  0  0  0  0  0  0  0  0  0  0
   37.5080   30.8190   51.0390 N   0  0  0  0  0  0  0  0  0  0  0  0
   34.5140   28.5650   50.4020 H   0  0  0  0  0  0  0  0  0  0  0  0
   38.0320   29.4550   52.5030 H   0  0  0  0  0  0  0  0  0  0  0  0
   34.1810   29.6040   47.9540 C   0  0  0  0  0  0  0  0  0  0  0  0
   34.6020   28.3990   47.7650 O   0  0  0  0  0  0  0  0  0  0  0  0
   34.5700   30.6340   48.8520 N   0  0  0  0  0  0  0  0  0  0  0  0
   34.0710   31.5430   48.7340 H   0  0  0  0  0  0  0  0  0  0  0  0
   33.0590   29.8500   46.9710 C   0  0  1  0  0  3  0  0  0  0  0  0
   33.5410   29.9290   45.5620 C   0  0  0  0  0  3  0  0  0  0  0  0
   34.3130   29.1210   45.4300 H   0  0  0  0  0  0  0  0  0  0  0  0
   32.2810   29.5530   44.8160 C   0  0  0  0  0  3  0  0  0  0  0  0
   31.6860   30.5070   44.7150 H   0  0  0  0  0  0  0  0  0  0  0  0
   31.5690   28.6850   45.6270 O   0  0  0  0  0  0  0  0  0  0  0  0
   32.1250   28.6720   46.8870 C   0  0  0  0  0  3  0  0  0  0  0  0
   31.3140   28.7170   47.6530 H   0  0  0  0  0  0  0  0  0  0  0  0
  1 21  1  0  0  0  0
  2  3  1  0  0  0  0
  3  4  2  0  0  0  0
  3  1  1  0  0  0  0
  4  8  1  0  0  0  0
  5  9  1  0  0  0  0
  5  4  1  0  0  0  0
  6  5  2  0  0  0  0
  7  2  2  0  0  0  0
  7  6  1  0  0  0  0
 10  6  1  0  0  0  0
 11  7  1  0  0  0  0
 12 11  2  0  0  0  0
 12 16  1  0  0  0  0
 13 12  1  0  0  0  0
 14 13  2  0  0  0  0
 14 15  1  0  0  0  0
 15 11  1  0  0  0  0
 17 13  1  0  0  0  0
 18 14  1  0  0  0  0
 19 20  3  0  0  0  0
 20  2  1  0  0  0  0
 21 26  1  0  0  0  0
 22 21  2  0  0  0  0
 22 23  1  0  0  0  0
 23 24  2  0  0  0  0
 24 25  1  0  0  0  0
 25 28  1  0  0  0  0
 26 25  2  0  0  0  0
 27 23  1  0  0  0  0
 29 31  1  0  0  0  0
 30 29  2  0  0  0  0
 31 22  1  0  0  0  0
 32 31  1  0  0  0  0
 33 29  1  1  0  0  0
 34 33  1  0  0  0  0
 35 34  1  0  0  0  0
 36 34  1  0  0  0  0
 36 38  1  0  0  0  0
 37 36  1  0  0  0  0
 38 39  1  0  0  0  0
 39 33  1  0  0  0  0
 39 40  1  0  0  0  0
M  END
>  <minimizedAffinity>
-5.86160707

>  <minimizedRMSD>
0.234678283

$$$$
