
 OpenBabel03272509433D

 37 39  0  0  1  0  0  0  0  0999 V2000
   37.0030   30.9120   49.0750 C   0  0  0  0  0  0  0  0  0  0  0  0
   36.6850   31.8110   50.0950 C   0  0  0  0  0  0  0  0  0  0  0  0
   37.2720   33.0670   50.1690 C   0  0  0  0  0  0  0  0  0  0  0  0
   38.2040   33.4480   49.2010 C   0  0  0  0  0  0  0  0  0  0  0  0
   38.5060   32.5590   48.2090 C   0  0  0  0  0  0  0  0  0  0  0  0
   37.9000   31.3110   48.1680 C   0  0  0  0  0  0  0  0  0  0  0  0
   35.9570   31.5010   50.8420 H   0  0  0  0  0  0  0  0  0  0  0  0
   36.9690   33.6860   50.9830 H   0  0  0  0  0  0  0  0  0  0  0  0
   38.6050   34.4340   49.3370 H   0  0  0  0  0  0  0  0  0  0  0  0
   39.2450   32.9940   47.5380 H   0  0  0  0  0  0  0  0  0  0  0  0
   36.4200   29.5890   49.0160 C   0  0  2  0  0  0  0  0  0  0  0  0
   36.9520   29.0610   48.1340 H   0  0  0  0  0  0  0  0  0  0  0  0
   33.5830   30.0350   46.7910 C   0  0  0  0  0  0  0  0  0  0  0  0
   32.8800   28.8510   46.9020 C   0  0  0  0  0  0  0  0  0  0  0  0
   33.3410   27.9030   47.7960 C   0  0  0  0  0  0  0  0  0  0  0  0
   34.4720   28.1650   48.5380 N   0  0  0  0  0  0  0  0  0  0  0  0
   35.0990   29.3150   48.3840 C   0  0  0  0  0  0  0  0  0  0  0  0
   34.6620   30.2550   47.5170 N   0  0  0  0  0  0  0  0  0  0  0  0
   33.1850   30.7470   46.0800 H   0  0  0  0  0  0  0  0  0  0  0  0
   31.9950   28.5500   46.3730 H   0  0  0  0  0  0  0  0  0  0  0  0
   32.8970   26.9370   47.9910 H   0  0  0  0  0  0  0  0  0  0  0  0
   36.8600   28.8150   49.9450 O   0  0  0  0  0  0  0  0  0  0  0  0
   36.3800   28.0240   50.2510 H   0  0  0  0  0  0  0  0  0  0  0  0
   38.3320   30.4590   47.0830 C   0  0  0  0  0  3  0  0  0  0  0  0
   38.6760   30.9100   45.8720 C   0  0  0  0  0  3  0  0  0  0  0  0
   39.1690   30.1410   44.7070 C   0  0  0  0  0  0  0  0  0  0  0  0
   39.5690   29.1800   45.0900 H   0  0  0  0  0  0  0  0  0  0  0  0
   38.3450   29.9070   43.9870 H   0  0  0  0  0  0  0  0  0  0  0  0
   40.4980   31.0450   43.9040 S   0  0  0  0  0  0  0  0  0  0  0  0
   39.8730   31.6630   42.3220 C   0  0  1  0  0  3  0  0  0  0  0  0
   40.4050   30.9120   41.1350 C   0  0  0  0  0  3  0  0  0  0  0  0
   40.8380   29.9160   41.3890 H   0  0  0  0  0  0  0  0  0  0  0  0
   39.2160   30.8420   40.2340 C   0  0  0  0  0  3  0  0  0  0  0  0
   39.2610   31.6220   39.4460 H   0  0  0  0  0  0  0  0  0  0  0  0
   38.0700   31.0440   40.9540 O   0  0  0  0  0  0  0  0  0  0  0  0
   38.3950   31.3570   42.2480 C   0  0  0  0  0  3  0  0  0  0  0  0
   38.1420   30.5100   42.9510 H   0  0  0  0  0  0  0  0  0  0  0  0
  1  2  1  0  0  0  0
  2  3  2  0  0  0  0
  2  7  1  0  0  0  0
  3  8  1  0  0  0  0
  4  9  1  0  0  0  0
  4  3  1  0  0  0  0
  5  4  2  0  0  0  0
  6  5  1  0  0  0  0
  6  1  2  0  0  0  0
 10  5  1  0  0  0  0
 11 12  1  6  0  0  0
 11  1  1  0  0  0  0
 11 22  1  0  0  0  0
 13 14  2  0  0  0  0
 13 18  1  0  0  0  0
 14 15  1  0  0  0  0
 15 21  1  0  0  0  0
 15 16  2  0  0  0  0
 17 16  1  0  0  0  0
 17 11  1  0  0  0  0
 18 17  2  0  0  0  0
 19 13  1  0  0  0  0
 20 14  1  0  0  0  0
 22 23  1  0  0  0  0
 24  6  1  0  0  0  0
 25 24  2  0  0  0  0
 26 27  1  0  0  0  0
 26 25  1  0  0  0  0
 28 26  1  0  0  0  0
 29 26  1  0  0  0  0
 30 29  1  1  0  0  0
 31 32  1  0  0  0  0
 31 30  1  0  0  0  0
 33 35  1  0  0  0  0
 33 31  1  0  0  0  0
 34 33  1  0  0  0  0
 35 36  1  0  0  0  0
 36 30  1  0  0  0  0
 36 37  1  0  0  0  0
M  END
>  <minimizedAffinity>
-5.64104557

>  <minimizedRMSD>
1.69552577

$$$$
