
 OpenBabel03272503243D

 31 33  0  0  1  0  0  0  0  0999 V2000
   36.5200   29.8750   49.2830 N   0  0  0  0  0  0  0  0  0  0  0  0
   37.1550   31.1410   49.1350 C   0  0  1  0  0  0  0  0  0  0  0  0
   37.7670   31.4090   50.5000 C   0  0  0  0  0  0  0  0  0  0  0  0
   37.3560   30.1880   51.3520 C   0  0  0  0  0  0  0  0  0  0  0  0
   37.2560   29.1490   50.2850 C   0  0  0  0  0  0  0  0  0  0  0  0
   36.3830   31.9720   49.0310 H   0  0  0  0  0  0  0  0  0  0  0  0
   38.8650   31.3510   50.3550 H   0  0  0  0  0  0  0  0  0  0  0  0
   37.4640   32.3530   50.9540 H   0  0  0  0  0  0  0  0  0  0  0  0
   38.2040   29.9810   52.0200 H   0  0  0  0  0  0  0  0  0  0  0  0
   36.3980   30.3750   51.8730 H   0  0  0  0  0  0  0  0  0  0  0  0
   38.2520   28.8310   49.9650 H   0  0  0  0  0  0  0  0  0  0  0  0
   36.6820   28.2600   50.6390 H   0  0  0  0  0  0  0  0  0  0  0  0
   35.3690   29.4270   48.5760 C   0  0  0  0  0  0  0  0  0  0  0  0
   34.7410   30.3290   47.7040 C   0  0  0  0  0  0  0  0  0  0  0  0
   33.6090   29.9180   46.9940 C   0  0  0  0  0  0  0  0  0  0  0  0
   33.1870   28.6300   47.2070 N   0  0  0  0  0  0  0  0  0  0  0  0
   33.8160   27.7840   48.0560 C   0  0  0  0  0  0  0  0  0  0  0  0
   34.9310   28.1740   48.7630 N   0  0  0  0  0  0  0  0  0  0  0  0
   35.0720   31.3380   47.5360 H   0  0  0  0  0  0  0  0  0  0  0  0
   33.1240   30.5930   46.3290 H   0  0  0  0  0  0  0  0  0  0  0  0
   33.4040   26.7900   48.1550 H   0  0  0  0  0  0  0  0  0  0  0  0
   38.0700   31.2870   48.0050 C   0  0  0  0  0  0  0  0  0  0  0  0
   38.8910   32.2040   48.1740 O   0  0  0  0  0  0  0  0  0  0  0  0
   38.2870   30.6290   46.6790 C   0  0  1  0  0  3  0  0  0  0  0  0
   37.4370   31.0960   45.5660 C   0  0  0  0  0  3  0  0  0  0  0  0
   36.5110   30.5120   45.4060 H   0  0  0  0  0  0  0  0  0  0  0  0
   38.3160   30.7790   44.3560 C   0  0  0  0  0  3  0  0  0  0  0  0
   38.0450   29.7840   43.9210 H   0  0  0  0  0  0  0  0  0  0  0  0
   39.6000   30.6670   44.8130 O   0  0  0  0  0  0  0  0  0  0  0  0
   39.6500   30.9930   46.1370 C   0  0  0  0  0  3  0  0  0  0  0  0
   40.4200   30.4320   46.7100 H   0  0  0  0  0  0  0  0  0  0  0  0
  1  5  1  0  0  0  0
  2  6  1  6  0  0  0
  2  1  1  0  0  0  0
  2  3  1  0  0  0  0
  3  8  1  0  0  0  0
  3  4  1  0  0  0  0
  4 10  1  0  0  0  0
  4  9  1  0  0  0  0
  5 12  1  0  0  0  0
  5  4  1  0  0  0  0
  7  3  1  0  0  0  0
 11  5  1  0  0  0  0
 13 18  1  0  0  0  0
 13  1  1  0  0  0  0
 14 13  2  0  0  0  0
 15 16  2  0  0  0  0
 15 14  1  0  0  0  0
 16 17  1  0  0  0  0
 17 21  1  0  0  0  0
 17 18  2  0  0  0  0
 19 14  1  0  0  0  0
 20 15  1  0  0  0  0
 22 23  2  0  0  0  0
 22  2  1  0  0  0  0
 24 22  1  1  0  0  0
 25 24  1  0  0  0  0
 26 25  1  0  0  0  0
 27 29  1  0  0  0  0
 27 25  1  0  0  0  0
 28 27  1  0  0  0  0
 29 30  1  0  0  0  0
 30 24  1  0  0  0  0
 30 31  1  0  0  0  0
M  END
>  <minimizedAffinity>
-5.2274065

>  <minimizedRMSD>
1.05905306

$$$$
