
 OpenBabel03272502303D

 23 24  0  0  1  0  0  0  0  0999 V2000
   39.4260   32.5160   46.5270 C   0  0  0  0  0  0  0  0  0  0  0  0
   39.6500   33.5980   46.6100 H   0  0  0  0  0  0  0  0  0  0  0  0
   40.3740   31.9570   46.3260 H   0  0  0  0  0  0  0  0  0  0  0  0
   38.1640   30.8460   47.8210 C   0  0  0  0  0  3  0  0  0  0  0  0
   38.7730   32.0020   47.7700 C   0  0  0  0  0  3  0  0  0  0  0  0
   37.3530   30.2120   51.3880 C   0  0  0  0  0  0  0  0  0  0  0  0
   38.0240   30.7220   50.2660 C   0  0  0  0  0  0  0  0  0  0  0  0
   37.5460   30.3750   49.0240 C   0  0  0  0  0  0  0  0  0  0  0  0
   36.4580   29.5640   48.9130 N   0  0  0  0  0  0  0  0  0  0  0  0
   35.8390   29.0940   50.0220 C   0  0  0  0  0  0  0  0  0  0  0  0
   36.2770   29.4100   51.2530 N   0  0  0  0  0  0  0  0  0  0  0  0
   37.7400   30.4930   52.3810 H   0  0  0  0  0  0  0  0  0  0  0  0
   38.8860   31.3640   50.3870 H   0  0  0  0  0  0  0  0  0  0  0  0
   34.9800   28.4550   49.8500 H   0  0  0  0  0  0  0  0  0  0  0  0
   38.2930   32.3400   45.1160 S   0  0  0  0  0  0  0  0  0  0  0  0
   39.2500   31.8010   43.6870 C   0  0  1  0  0  3  0  0  0  0  0  0
   40.5730   31.1540   44.0990 C   0  0  0  0  0  3  0  0  0  0  0  0
   40.3790   30.5290   44.9930 H   0  0  0  0  0  0  0  0  0  0  0  0
   40.7840   30.1980   42.9420 C   0  0  0  0  0  3  0  0  0  0  0  0
   41.1350   30.7800   42.0610 H   0  0  0  0  0  0  0  0  0  0  0  0
   39.5100   29.6850   42.7580 O   0  0  0  0  0  0  0  0  0  0  0  0
   38.5950   30.6930   42.9230 C   0  0  0  0  0  3  0  0  0  0  0  0
   37.7730   30.3090   43.5780 H   0  0  0  0  0  0  0  0  0  0  0  0
  1  2  1  0  0  0  0
  1  5  1  0  0  0  0
  3  1  1  0  0  0  0
  4  8  1  0  0  0  0
  5  4  2  0  0  0  0
  6 12  1  0  0  0  0
  7 13  1  0  0  0  0
  7  6  2  0  0  0  0
  8  7  1  0  0  0  0
  9  8  2  0  0  0  0
  9 10  1  0  0  0  0
 10 11  2  0  0  0  0
 11  6  1  0  0  0  0
 14 10  1  0  0  0  0
 15  1  1  0  0  0  0
 16 17  1  0  0  0  0
 16 15  1  1  0  0  0
 17 18  1  0  0  0  0
 19 17  1  0  0  0  0
 20 19  1  0  0  0  0
 21 22  1  0  0  0  0
 21 19  1  0  0  0  0
 22 23  1  0  0  0  0
 22 16  1  0  0  0  0
M  END
>  <minimizedAffinity>
-4.74280882

>  <minimizedRMSD>
1.16359365

$$$$
