
 OpenBabel03272502303D

 23 24  0  0  1  0  0  0  0  0999 V2000
   39.3280   32.5060   46.6560 C   0  0  0  0  0  0  0  0  0  0  0  0
   38.5990   32.9660   45.9590 H   0  0  0  0  0  0  0  0  0  0  0  0
   40.1050   33.2630   46.9290 H   0  0  0  0  0  0  0  0  0  0  0  0
   38.1040   30.8030   47.9430 C   0  0  0  0  0  0  0  0  0  0  0  0
   38.6500   31.9900   47.8850 C   0  0  0  0  0  0  0  0  0  0  0  0
   37.2410   30.1310   51.4910 C   0  0  0  0  0  0  0  0  0  0  0  0
   37.9390   30.6390   50.3850 C   0  0  0  0  0  0  0  0  0  0  0  0
   37.4600   30.3310   49.1320 C   0  0  0  0  0  0  0  0  0  0  0  0
   36.3460   29.5610   48.9970 N   0  0  0  0  0  0  0  0  0  0  0  0
   35.7020   29.0910   50.0920 C   0  0  0  0  0  0  0  0  0  0  0  0
   36.1390   29.3690   51.3320 N   0  0  0  0  0  0  0  0  0  0  0  0
   37.6280   30.3800   52.4920 H   0  0  0  0  0  0  0  0  0  0  0  0
   38.8210   31.2480   50.5250 H   0  0  0  0  0  0  0  0  0  0  0  0
   34.8230   28.4850   49.9010 H   0  0  0  0  0  0  0  0  0  0  0  0
   40.0960   31.1300   45.7500 S   0  0  0  0  0  0  0  0  0  0  0  0
   40.5130   31.7070   44.0940 C   0  0  1  0  0  0  0  0  0  0  0  0
   40.3770   30.5950   43.0530 C   0  0  0  0  0  0  0  0  0  0  0  0
   39.4700   30.0080   43.3010 H   0  0  0  0  0  0  0  0  0  0  0  0
   40.0400   31.4110   41.8210 C   0  0  0  0  0  0  0  0  0  0  0  0
   40.9710   31.8930   41.4480 H   0  0  0  0  0  0  0  0  0  0  0  0
   39.1370   32.3330   42.3260 O   0  0  0  0  0  0  0  0  0  0  0  0
   39.5550   32.7310   43.5700 C   0  0  0  0  0  0  0  0  0  0  0  0
   38.6710   32.7090   44.2550 H   0  0  0  0  0  0  0  0  0  0  0  0
  1  3  1  0  0  0  0
  1  5  1  0  0  0  0
  2  1  1  0  0  0  0
  4  8  1  0  0  0  0
  5  4  2  0  0  0  0
  6 12  1  0  0  0  0
  7 13  1  0  0  0  0
  7  6  2  0  0  0  0
  8  7  1  0  0  0  0
  9  8  2  0  0  0  0
  9 10  1  0  0  0  0
 10 11  2  0  0  0  0
 11  6  1  0  0  0  0
 14 10  1  0  0  0  0
 15  1  1  0  0  0  0
 16 15  1  1  0  0  0
 17 18  1  0  0  0  0
 17 16  1  0  0  0  0
 19 21  1  0  0  0  0
 19 17  1  0  0  0  0
 20 19  1  0  0  0  0
 21 22  1  0  0  0  0
 22 16  1  0  0  0  0
 22 23  1  0  0  0  0
M  END
>  <minimizedAffinity>
-4.8897934

>  <minimizedRMSD>
1.75814235

$$$$
