
 OpenBabel03272509433D

 37 39  0  0  1  0  0  0  0  0999 V2000
   37.0490   30.9270   49.0190 C   0  0  0  0  0  0  0  0  0  0  0  0
   36.7720   31.8290   50.0480 C   0  0  0  0  0  0  0  0  0  0  0  0
   37.3720   33.0800   50.1040 C   0  0  0  0  0  0  0  0  0  0  0  0
   38.2770   33.4520   49.1070 C   0  0  0  0  0  0  0  0  0  0  0  0
   38.5390   32.5600   48.1060 C   0  0  0  0  0  0  0  0  0  0  0  0
   37.9210   31.3180   48.0840 C   0  0  0  0  0  0  0  0  0  0  0  0
   36.0640   31.5270   50.8180 H   0  0  0  0  0  0  0  0  0  0  0  0
   37.1010   33.7020   50.9260 H   0  0  0  0  0  0  0  0  0  0  0  0
   38.6920   34.4340   49.2300 H   0  0  0  0  0  0  0  0  0  0  0  0
   39.2610   32.9880   47.4120 H   0  0  0  0  0  0  0  0  0  0  0  0
   36.4510   29.6100   48.9790 C   0  0  2  0  0  0  0  0  0  0  0  0
   36.9700   29.0670   48.0980 H   0  0  0  0  0  0  0  0  0  0  0  0
   33.5850   30.0830   46.7970 C   0  0  0  0  0  0  0  0  0  0  0  0
   32.8840   28.8970   46.9020 C   0  0  0  0  0  0  0  0  0  0  0  0
   33.3570   27.9380   47.7780 C   0  0  0  0  0  0  0  0  0  0  0  0
   34.4970   28.1910   48.5090 N   0  0  0  0  0  0  0  0  0  0  0  0
   35.1220   29.3430   48.3610 C   0  0  0  0  0  0  0  0  0  0  0  0
   34.6730   30.2950   47.5110 N   0  0  0  0  0  0  0  0  0  0  0  0
   33.1780   30.8040   46.1000 H   0  0  0  0  0  0  0  0  0  0  0  0
   31.9920   28.6030   46.3810 H   0  0  0  0  0  0  0  0  0  0  0  0
   32.9160   26.9700   47.9660 H   0  0  0  0  0  0  0  0  0  0  0  0
   36.8910   28.8410   49.9120 O   0  0  0  0  0  0  0  0  0  0  0  0
   36.4050   28.0590   50.2310 H   0  0  0  0  0  0  0  0  0  0  0  0
   38.3100   30.4620   46.9860 C   0  0  0  0  0  3  0  0  0  0  0  0
   39.0670   30.8630   45.9590 C   0  0  0  0  0  3  0  0  0  0  0  0
   39.5580   30.0700   44.8100 C   0  0  0  0  0  0  0  0  0  0  0  0
   40.3960   29.4420   45.1760 H   0  0  0  0  0  0  0  0  0  0  0  0
   38.7670   29.3870   44.4100 H   0  0  0  0  0  0  0  0  0  0  0  0
   40.1720   31.1730   43.5320 S   0  0  0  0  0  0  0  0  0  0  0  0
   38.7870   31.5880   42.4430 C   0  0  1  0  0  3  0  0  0  0  0  0
   37.6690   30.5860   42.4920 C   0  0  0  0  0  3  0  0  0  0  0  0
   37.6960   29.9240   43.3890 H   0  0  0  0  0  0  0  0  0  0  0  0
   36.4540   31.4500   42.4160 C   0  0  0  0  0  3  0  0  0  0  0  0
   36.0460   31.4820   41.3830 H   0  0  0  0  0  0  0  0  0  0  0  0
   36.7670   32.7310   42.7790 O   0  0  0  0  0  0  0  0  0  0  0  0
   38.1170   32.8290   42.9850 C   0  0  0  0  0  3  0  0  0  0  0  0
   38.3570   32.9470   44.0820 H   0  0  0  0  0  0  0  0  0  0  0  0
  1  2  1  0  0  0  0
  2  3  2  0  0  0  0
  2  7  1  0  0  0  0
  3  8  1  0  0  0  0
  4  9  1  0  0  0  0
  4  3  1  0  0  0  0
  5  4  2  0  0  0  0
  6  5  1  0  0  0  0
  6  1  2  0  0  0  0
 10  5  1  0  0  0  0
 11 12  1  6  0  0  0
 11  1  1  0  0  0  0
 11 22  1  0  0  0  0
 13 14  2  0  0  0  0
 13 18  1  0  0  0  0
 14 15  1  0  0  0  0
 15 21  1  0  0  0  0
 15 16  2  0  0  0  0
 17 16  1  0  0  0  0
 17 11  1  0  0  0  0
 18 17  2  0  0  0  0
 19 13  1  0  0  0  0
 20 14  1  0  0  0  0
 22 23  1  0  0  0  0
 24  6  1  0  0  0  0
 25 24  2  0  0  0  0
 26 27  1  0  0  0  0
 26 25  1  0  0  0  0
 28 26  1  0  0  0  0
 29 26  1  0  0  0  0
 30 31  1  0  0  0  0
 30 36  1  0  0  0  0
 30 29  1  1  0  0  0
 31 32  1  0  0  0  0
 33 31  1  0  0  0  0
 33 35  1  0  0  0  0
 34 33  1  0  0  0  0
 35 36  1  0  0  0  0
 36 37  1  0  0  0  0
M  END
>  <minimizedAffinity>
-5.54877043

>  <minimizedRMSD>
0.820349336

$$$$
