
 OpenBabel03272503413D

 40 43  0  0  1  0  0  0  0  0999 V2000
   38.3990   31.2000   45.8950 C   0  0  0  0  0  0  0  0  0  0  0  0
   39.7410   31.1290   46.1470 C   0  0  0  0  0  0  0  0  0  0  0  0
   40.3410   31.5390   44.9460 C   0  0  0  0  0  0  0  0  0  0  0  0
   39.3840   31.8280   44.0550 N   0  0  0  0  0  0  0  0  0  0  0  0
   38.2020   31.6220   44.6320 N   0  0  0  0  0  0  0  0  0  0  0  0
   40.2680   30.8330   47.0460 H   0  0  0  0  0  0  0  0  0  0  0  0
   41.4190   31.5840   44.8470 H   0  0  0  0  0  0  0  0  0  0  0  0
   40.0300   31.1060   41.8190 C   0  0  2  0  0  0  0  0  0  0  0  0
   39.6750   32.2810   42.7180 C   0  0  1  0  0  0  0  0  0  0  0  0
   38.4380   32.7540   41.9840 C   0  0  0  0  0  0  0  0  0  0  0  0
   38.6590   32.5690   40.6400 O   0  0  0  0  0  0  0  0  0  0  0  0
   39.7510   31.7780   40.4580 C   0  0  0  0  0  0  0  0  0  0  0  0
   41.0630   30.7920   41.8580 H   0  0  0  0  0  0  0  0  0  0  0  0
   40.4230   33.0670   42.7130 H   0  0  0  0  0  0  0  0  0  0  0  0
   37.5900   32.0730   42.2500 H   0  0  0  0  0  0  0  0  0  0  0  0
   38.2130   33.8050   42.1940 H   0  0  0  0  0  0  0  0  0  0  0  0
   39.5910   30.9470   39.7320 H   0  0  0  0  0  0  0  0  0  0  0  0
   40.6490   32.3760   40.1710 H   0  0  0  0  0  0  0  0  0  0  0  0
   39.0910   30.1240   42.0240 O   0  0  0  0  0  0  0  0  0  0  0  0
   39.5490   28.8690   42.2110 C   0  0  1  0  0  3  0  0  0  0  0  0
   38.8480   28.0410   43.2640 C   0  0  0  0  0  3  0  0  0  0  0  0
   37.7600   28.0120   43.1160 H   0  0  0  0  0  0  0  0  0  0  0  0
   39.4160   26.6810   42.8910 C   0  0  0  0  0  3  0  0  0  0  0  0
   40.4230   26.6310   43.3870 H   0  0  0  0  0  0  0  0  0  0  0  0
   39.6200   26.6660   41.5360 O   0  0  0  0  0  0  0  0  0  0  0  0
   39.4570   27.9410   41.0400 C   0  0  0  0  0  3  0  0  0  0  0  0
   38.4950   27.9650   40.5150 H   0  0  0  0  0  0  0  0  0  0  0  0
   36.4950   30.6250   49.0770 C   0  0  0  0  0  0  0  0  0  0  0  0
   37.5150   30.9490   48.2150 C   0  0  0  0  0  0  0  0  0  0  0  0
   37.3550   30.8690   46.8480 C   0  0  0  0  0  0  0  0  0  0  0  0
   36.1530   30.4570   46.4010 N   0  0  0  0  0  0  0  0  0  0  0  0
   35.1420   30.1360   47.2620 C   0  0  0  0  0  0  0  0  0  0  0  0
   35.2970   30.2140   48.5670 N   0  0  0  0  0  0  0  0  0  0  0  0
   38.5110   31.2890   48.5390 H   0  0  0  0  0  0  0  0  0  0  0  0
   34.1890   29.8090   46.8430 H   0  0  0  0  0  0  0  0  0  0  0  0
   36.8250   30.7610   50.4140 O   0  0  0  0  0  0  0  0  0  0  0  0
   36.8830   29.6830   51.3230 C   0  0  0  0  0  0  0  0  0  0  0  0
   35.6030   29.2360   51.6360 F   0  0  0  0  0  0  0  0  0  0  0  0
   37.5560   30.0890   52.4480 F   0  0  0  0  0  0  0  0  0  0  0  0
   37.6040   28.6690   50.7350 F   0  0  0  0  0  0  0  0  0  0  0  0
  1  2  1  0  0  0  0
  1 30  1  0  0  0  0
  2  6  1  0  0  0  0
  3  2  2  0  0  0  0
  4  5  1  0  0  0  0
  4  3  1  0  0  0  0
  5  1  2  0  0  0  0
  7  3  1  0  0  0  0
  8 13  1  1  0  0  0
  8 19  1  0  0  0  0
  8  9  1  0  0  0  0
  9 14  1  6  0  0  0
  9  4  1  0  0  0  0
 10 16  1  0  0  0  0
 10 15  1  0  0  0  0
 10  9  1  0  0  0  0
 11 10  1  0  0  0  0
 12 11  1  0  0  0  0
 12  8  1  0  0  0  0
 17 12  1  0  0  0  0
 18 12  1  0  0  0  0
 20 19  1  6  0  0  0
 20 21  1  0  0  0  0
 22 21  1  0  0  0  0
 23 21  1  0  0  0  0
 23 24  1  0  0  0  0
 25 23  1  0  0  0  0
 26 25  1  0  0  0  0
 26 20  1  0  0  0  0
 27 26  1  0  0  0  0
 28 36  1  0  0  0  0
 29 34  1  0  0  0  0
 29 28  2  0  0  0  0
 30 29  1  0  0  0  0
 31 30  2  0  0  0  0
 31 32  1  0  0  0  0
 32 33  2  0  0  0  0
 33 28  1  0  0  0  0
 35 32  1  0  0  0  0
 36 37  1  0  0  0  0
 37 38  1  0  0  0  0
 37 39  1  0  0  0  0
 40 37  1  0  0  0  0
M  END
>  <minimizedAffinity>
-6.16843414

>  <minimizedRMSD>
0.494509637

$$$$
