
 OpenBabel03262521473D

 29 30  0  0  1  0  0  0  0  0999 V2000
   36.9960   29.2890   50.7720 C   0  0  0  0  0  0  0  0  0  0  0  0
   37.4670   28.4360   51.2650 H   0  0  0  0  0  0  0  0  0  0  0  0
   36.8450   28.9990   49.6980 H   0  0  0  0  0  0  0  0  0  0  0  0
   37.7760   30.5550   50.9010 C   0  0  0  0  0  0  0  0  0  0  0  0
   37.2540   31.3230   51.5260 H   0  0  0  0  0  0  0  0  0  0  0  0
   38.7450   30.3560   51.4420 H   0  0  0  0  0  0  0  0  0  0  0  0
   38.1170   31.1930   49.6350 C   0  0  0  0  0  0  0  0  0  0  0  0
   38.5630   32.5040   49.5340 C   0  0  0  0  0  0  0  0  0  0  0  0
   38.8640   33.0190   48.2660 C   0  0  0  0  0  0  0  0  0  0  0  0
   38.6990   32.1940   47.1890 N   0  0  0  0  0  0  0  0  0  0  0  0
   38.2600   30.9100   47.3210 C   0  0  0  0  0  0  0  0  0  0  0  0
   37.9720   30.4280   48.5660 N   0  0  0  0  0  0  0  0  0  0  0  0
   38.6720   33.1070   50.4290 H   0  0  0  0  0  0  0  0  0  0  0  0
   39.2140   34.0360   48.1490 H   0  0  0  0  0  0  0  0  0  0  0  0
   38.1440   30.2880   46.4300 H   0  0  0  0  0  0  0  0  0  0  0  0
   35.7230   29.5120   51.3090 O   0  0  0  0  0  0  0  0  0  0  0  0
   34.6970   30.4900   49.1190 O   0  0  0  0  0  0  0  0  0  0  0  0
   34.5200   29.3600   50.1200 P   0  0  0  0  0  0  0  0  0  0  0  0
   32.9800   29.5760   50.7620 O   0  0  0  0  0  0  0  0  0  0  0  0
   32.5740   28.6890   50.9280 H   0  0  0  0  0  0  0  0  0  0  0  0
   34.5830   27.8630   49.3690 O   0  0  0  0  0  0  0  0  0  0  0  0
   33.9170   27.9480   48.1670 C   0  0  1  0  0  0  0  0  0  0  0  0
   32.4130   27.8510   48.2730 C   0  0  0  0  0  0  0  0  0  0  0  0
   32.0860   26.7910   48.2590 H   0  0  0  0  0  0  0  0  0  0  0  0
   32.0080   28.5820   47.0080 C   0  0  0  0  0  0  0  0  0  0  0  0
   31.0680   29.1570   47.2190 H   0  0  0  0  0  0  0  0  0  0  0  0
   32.9780   29.5120   46.7190 O   0  0  0  0  0  0  0  0  0  0  0  0
   34.0530   29.3220   47.5450 C   0  0  0  0  0  0  0  0  0  0  0  0
   34.0950   30.0630   48.3880 H   0  0  0  0  0  0  0  0  0  0  0  0
  1  4  1  0  0  0  0
  1  2  1  0  0  0  0
  1 16  1  0  0  0  0
  3  1  1  0  0  0  0
  4  6  1  0  0  0  0
  4  5  1  0  0  0  0
  7  4  1  0  0  0  0
  8  7  1  0  0  0  0
  8 13  1  0  0  0  0
  9  8  2  0  0  0  0
 10 11  2  0  0  0  0
 10  9  1  0  0  0  0
 11 12  1  0  0  0  0
 12  7  2  0  0  0  0
 14  9  1  0  0  0  0
 15 11  1  0  0  0  0
 17 18  1  0  0  0  0
 18 19  1  0  0  0  0
 18 16  1  0  0  0  0
 19 20  1  0  0  0  0
 21 18  1  0  0  0  0
 22 23  1  0  0  0  0
 22 21  1  1  0  0  0
 24 23  1  0  0  0  0
 25 26  1  0  0  0  0
 25 23  1  0  0  0  0
 27 25  1  0  0  0  0
 27 28  1  0  0  0  0
 28 22  1  0  0  0  0
 29 17  1  0  0  0  0
M  END
>  <minimizedAffinity>
-5.0984931

>  <minimizedRMSD>
0.746402383

$$$$
