
 OpenBabel03272506413D

 18 19  0  0  1  0  0  0  0  0999 V2000
   36.2650   25.4070   31.8160 C   0  0  0  0  0  0  0  0  0  0  0  0
   35.7240   24.2100   31.3000 C   0  0  0  0  0  0  0  0  0  0  0  0
   36.2170   22.9900   31.7760 C   0  0  0  0  0  0  0  0  0  0  0  0
   37.1960   23.0210   32.7150 N   0  0  0  0  0  0  0  0  0  0  0  0
   37.7010   24.1720   33.1970 C   0  0  0  0  0  0  0  0  0  0  0  0
   37.2330   25.3480   32.7450 N   0  0  0  0  0  0  0  0  0  0  0  0
   35.8600   26.3190   31.4230 H   0  0  0  0  0  0  0  0  0  0  0  0
   34.9420   24.1610   30.5480 H   0  0  0  0  0  0  0  0  0  0  0  0
   35.8520   22.0390   31.4280 H   0  0  0  0  0  0  0  0  0  0  0  0
   38.9880   24.2100   34.4290 S   0  0  0  0  0  0  0  0  0  0  0  0
   38.3470   23.5280   35.9500 C   0  0  2  0  0  3  0  0  0  0  0  0
   38.0320   24.6000   37.0000 C   0  0  0  0  0  3  0  0  0  0  0  0
   37.0530   25.0730   36.8450 H   0  0  0  0  0  0  0  0  0  0  0  0
   38.0120   23.6460   38.2050 C   0  0  0  0  0  3  0  0  0  0  0  0
   37.3130   22.8400   37.9200 H   0  0  0  0  0  0  0  0  0  0  0  0
   39.3000   23.1100   38.0560 O   0  0  0  0  0  0  0  0  0  0  0  0
   39.4010   22.7510   36.7250 C   0  0  0  0  0  3  0  0  0  0  0  0
   39.2280   21.6550   36.6780 H   0  0  0  0  0  0  0  0  0  0  0  0
  1  6  1  0  0  0  0
  2  3  1  0  0  0  0
  2  1  2  0  0  0  0
  3  4  2  0  0  0  0
  4  5  1  0  0  0  0
  5 10  1  0  0  0  0
  6  5  2  0  0  0  0
  7  1  1  0  0  0  0
  8  2  1  0  0  0  0
  9  3  1  0  0  0  0
 11 10  1  6  0  0  0
 11 17  1  0  0  0  0
 11 12  1  0  0  0  0
 12 14  1  0  0  0  0
 13 12  1  0  0  0  0
 15 14  1  0  0  0  0
 16 14  1  0  0  0  0
 17 16  1  0  0  0  0
 18 17  1  0  0  0  0
M  END
>  <minimizedAffinity>
-3.54724717

$$$$

 OpenBabel03272506413D

 18 19  0  0  1  0  0  0  0  0999 V2000
   39.7900   22.7490   37.7530 C   0  0  0  0  0  0  0  0  0  0  0  0
   38.9650   23.4720   38.6400 C   0  0  0  0  0  0  0  0  0  0  0  0
   37.8560   24.1520   38.1220 C   0  0  0  0  0  0  0  0  0  0  0  0
   37.6320   24.0800   36.7860 N   0  0  0  0  0  0  0  0  0  0  0  0
   38.4300   23.3860   35.9530 C   0  0  0  0  0  0  0  0  0  0  0  0
   39.4970   22.7300   36.4420 N   0  0  0  0  0  0  0  0  0  0  0  0
   40.6300   22.2440   38.1910 H   0  0  0  0  0  0  0  0  0  0  0  0
   39.1240   23.5440   39.7110 H   0  0  0  0  0  0  0  0  0  0  0  0
   37.1830   24.7220   38.7390 H   0  0  0  0  0  0  0  0  0  0  0  0
   38.1350   23.2960   34.1990 S   0  0  0  0  0  0  0  0  0  0  0  0
   37.4380   21.6970   33.8150 C   0  0  2  0  0  3  0  0  0  0  0  0
   36.3730   21.7580   32.7120 C   0  0  0  0  0  3  0  0  0  0  0  0
   36.8070   21.7680   31.7040 H   0  0  0  0  0  0  0  0  0  0  0  0
   35.7290   20.4000   33.0350 C   0  0  0  0  0  3  0  0  0  0  0  0
   36.5670   19.6800   33.0420 H   0  0  0  0  0  0  0  0  0  0  0  0
   35.4170   20.6420   34.3810 O   0  0  0  0  0  0  0  0  0  0  0  0
   36.5690   21.1580   34.9430 C   0  0  0  0  0  3  0  0  0  0  0  0
   37.0610   20.3220   35.4820 H   0  0  0  0  0  0  0  0  0  0  0  0
  1  7  1  0  0  0  0
  1  2  1  0  0  0  0
  2  8  1  0  0  0  0
  3  2  2  0  0  0  0
  3  9  1  0  0  0  0
  4  3  1  0  0  0  0
  5  6  1  0  0  0  0
  5  4  2  0  0  0  0
  6  1  2  0  0  0  0
 10  5  1  0  0  0  0
 11 10  1  1  0  0  0
 11 17  1  0  0  0  0
 12 14  1  0  0  0  0
 12 11  1  0  0  0  0
 13 12  1  0  0  0  0
 14 15  1  0  0  0  0
 14 16  1  0  0  0  0
 16 17  1  0  0  0  0
 17 18  1  0  0  0  0
M  END
>  <minimizedAffinity>
-3.52826619

$$$$

 OpenBabel03272506413D

 18 19  0  0  1  0  0  0  0  0999 V2000
   35.5240   20.4140   33.5250 C   0  0  0  0  0  0  0  0  0  0  0  0
   35.1310   20.7060   32.2020 C   0  0  0  0  0  0  0  0  0  0  0  0
   35.7740   21.7480   31.5250 C   0  0  0  0  0  0  0  0  0  0  0  0
   36.7470   22.4290   32.1800 N   0  0  0  0  0  0  0  0  0  0  0  0
   37.1100   22.1380   33.4430 C   0  0  0  0  0  0  0  0  0  0  0  0
   36.4980   21.1380   34.1010 N   0  0  0  0  0  0  0  0  0  0  0  0
   35.0040   19.6090   34.0080 H   0  0  0  0  0  0  0  0  0  0  0  0
   34.3550   20.1760   31.6570 H   0  0  0  0  0  0  0  0  0  0  0  0
   35.5270   22.0260   30.5140 H   0  0  0  0  0  0  0  0  0  0  0  0
   38.3870   23.0350   34.3020 S   0  0  0  0  0  0  0  0  0  0  0  0
   38.2410   22.7080   36.0520 C   0  0  2  0  0  3  0  0  0  0  0  0
   37.9560   23.9720   36.8740 C   0  0  0  0  0  3  0  0  0  0  0  0
   36.8930   24.2460   36.8760 H   0  0  0  0  0  0  0  0  0  0  0  0
   38.3890   23.3840   38.2270 C   0  0  0  0  0  3  0  0  0  0  0  0
   37.8190   22.4440   38.3260 H   0  0  0  0  0  0  0  0  0  0  0  0
   39.6930   23.0090   37.8730 O   0  0  0  0  0  0  0  0  0  0  0  0
   39.5720   22.3210   36.6810 C   0  0  0  0  0  3  0  0  0  0  0  0
   39.6130   21.2410   36.9330 H   0  0  0  0  0  0  0  0  0  0  0  0
  1  7  1  0  0  0  0
  1  6  1  0  0  0  0
  2  1  2  0  0  0  0
  3  4  2  0  0  0  0
  3  2  1  0  0  0  0
  4  5  1  0  0  0  0
  5  6  2  0  0  0  0
  5 10  1  0  0  0  0
  8  2  1  0  0  0  0
  9  3  1  0  0  0  0
 11 10  1  6  0  0  0
 11 17  1  0  0  0  0
 11 12  1  0  0  0  0
 12 13  1  0  0  0  0
 12 14  1  0  0  0  0
 14 15  1  0  0  0  0
 16 14  1  0  0  0  0
 17 18  1  0  0  0  0
 17 16  1  0  0  0  0
M  END
>  <minimizedAffinity>
-3.52648163

$$$$

 OpenBabel03272506413D

 18 19  0  0  1  0  0  0  0  0999 V2000
   40.0260   22.6980   37.5860 C   0  0  0  0  0  0  0  0  0  0  0  0
   39.1430   23.2610   38.5310 C   0  0  0  0  0  0  0  0  0  0  0  0
   37.8030   23.4450   38.1730 C   0  0  0  0  0  0  0  0  0  0  0  0
   37.4200   23.0720   36.9260 N   0  0  0  0  0  0  0  0  0  0  0  0
   38.2750   22.5360   36.0350 C   0  0  0  0  0  0  0  0  0  0  0  0
   39.5640   22.3550   36.3720 N   0  0  0  0  0  0  0  0  0  0  0  0
   41.0440   22.5750   37.9010 H   0  0  0  0  0  0  0  0  0  0  0  0
   39.4270   23.5680   39.5340 H   0  0  0  0  0  0  0  0  0  0  0  0
   37.0740   23.8680   38.8430 H   0  0  0  0  0  0  0  0  0  0  0  0
   37.7700   22.0480   34.3980 S   0  0  0  0  0  0  0  0  0  0  0  0
   38.0990   23.3920   33.2700 C   0  0  2  0  0  3  0  0  0  0  0  0
   38.0470   24.7680   33.9470 C   0  0  0  0  0  3  0  0  0  0  0  0
   38.9820   25.0230   34.4630 H   0  0  0  0  0  0  0  0  0  0  0  0
   37.8790   25.5790   32.6520 C   0  0  0  0  0  3  0  0  0  0  0  0
   38.7040   25.2460   31.9970 H   0  0  0  0  0  0  0  0  0  0  0  0
   36.7240   24.9460   32.1700 O   0  0  0  0  0  0  0  0  0  0  0  0
   36.9760   23.5900   32.2620 C   0  0  0  0  0  3  0  0  0  0  0  0
   37.2660   23.2520   31.2450 H   0  0  0  0  0  0  0  0  0  0  0  0
  1  7  1  0  0  0  0
  1  2  1  0  0  0  0
  2  8  1  0  0  0  0
  3  2  2  0  0  0  0
  3  9  1  0  0  0  0
  4  3  1  0  0  0  0
  5  6  1  0  0  0  0
  5  4  2  0  0  0  0
  6  1  2  0  0  0  0
 10  5  1  0  0  0  0
 11 12  1  0  0  0  0
 11 10  1  1  0  0  0
 12 13  1  0  0  0  0
 14 12  1  0  0  0  0
 15 14  1  0  0  0  0
 16 17  1  0  0  0  0
 16 14  1  0  0  0  0
 17 11  1  0  0  0  0
 18 17  1  0  0  0  0
M  END
>  <minimizedAffinity>
-3.45659637

$$$$

 OpenBabel03272506413D

 18 19  0  0  1  0  0  0  0  0999 V2000
   37.8640   24.2220   37.9930 C   0  0  0  0  0  0  0  0  0  0  0  0
   38.8300   23.3660   38.5630 C   0  0  0  0  0  0  0  0  0  0  0  0
   39.7950   22.7920   37.7270 C   0  0  0  0  0  0  0  0  0  0  0  0
   39.7500   23.0880   36.4040 N   0  0  0  0  0  0  0  0  0  0  0  0
   38.8210   23.9060   35.8760 C   0  0  0  0  0  0  0  0  0  0  0  0
   37.8900   24.4630   36.6720 N   0  0  0  0  0  0  0  0  0  0  0  0
   37.1420   24.6400   38.6680 H   0  0  0  0  0  0  0  0  0  0  0  0
   38.8850   23.1140   39.6180 H   0  0  0  0  0  0  0  0  0  0  0  0
   40.5620   22.1300   38.0930 H   0  0  0  0  0  0  0  0  0  0  0  0
   38.7630   24.2930   34.1380 S   0  0  0  0  0  0  0  0  0  0  0  0
   37.6770   25.6890   33.8950 C   0  0  2  0  0  3  0  0  0  0  0  0
   36.9430   25.6490   32.5490 C   0  0  0  0  0  3  0  0  0  0  0  0
   36.0520   25.0090   32.5690 H   0  0  0  0  0  0  0  0  0  0  0  0
   36.5650   27.1390   32.5260 C   0  0  0  0  0  3  0  0  0  0  0  0
   36.0660   27.3220   33.4940 H   0  0  0  0  0  0  0  0  0  0  0  0
   37.8560   27.6740   32.6510 O   0  0  0  0  0  0  0  0  0  0  0  0
   38.4410   26.9910   33.7010 C   0  0  0  0  0  3  0  0  0  0  0  0
   38.3680   27.6520   34.5900 H   0  0  0  0  0  0  0  0  0  0  0  0
  1  2  1  0  0  0  0
  1  7  1  0  0  0  0
  2  8  1  0  0  0  0
  3  9  1  0  0  0  0
  3  2  2  0  0  0  0
  4  3  1  0  0  0  0
  5  4  2  0  0  0  0
  5  6  1  0  0  0  0
  6  1  2  0  0  0  0
 10  5  1  0  0  0  0
 11 10  1  6  0  0  0
 12 13  1  0  0  0  0
 12 11  1  0  0  0  0
 14 12  1  0  0  0  0
 14 16  1  0  0  0  0
 14 15  1  0  0  0  0
 16 17  1  0  0  0  0
 17 11  1  0  0  0  0
 17 18  1  0  0  0  0
M  END
>  <minimizedAffinity>
-3.45450521

$$$$

 OpenBabel03272506413D

 18 19  0  0  1  0  0  0  0  0999 V2000
   39.8410   22.8620   37.6580 C   0  0  0  0  0  0  0  0  0  0  0  0
   38.9500   23.2820   38.6680 C   0  0  0  0  0  0  0  0  0  0  0  0
   37.9010   24.1410   38.3230 C   0  0  0  0  0  0  0  0  0  0  0  0
   37.7940   24.5300   37.0270 N   0  0  0  0  0  0  0  0  0  0  0  0
   38.6530   24.1200   36.0760 C   0  0  0  0  0  0  0  0  0  0  0  0
   39.6640   23.2940   36.3980 N   0  0  0  0  0  0  0  0  0  0  0  0
   40.6320   22.2050   37.9650 H   0  0  0  0  0  0  0  0  0  0  0  0
   39.0160   22.9860   39.7110 H   0  0  0  0  0  0  0  0  0  0  0  0
   37.1830   24.5020   39.0410 H   0  0  0  0  0  0  0  0  0  0  0  0
   38.5120   24.6320   34.3750 S   0  0  0  0  0  0  0  0  0  0  0  0
   40.0470   25.3960   33.8750 C   0  0  2  0  0  3  0  0  0  0  0  0
   40.4070   26.6240   34.7220 C   0  0  0  0  0  3  0  0  0  0  0  0
   40.8920   26.3590   35.6700 H   0  0  0  0  0  0  0  0  0  0  0  0
   41.4100   27.2200   33.7220 C   0  0  0  0  0  3  0  0  0  0  0  0
   42.1140   26.3980   33.4990 H   0  0  0  0  0  0  0  0  0  0  0  0
   40.5580   27.3090   32.6120 O   0  0  0  0  0  0  0  0  0  0  0  0
   39.9400   26.0760   32.5180 C   0  0  0  0  0  3  0  0  0  0  0  0
   40.4760   25.5120   31.7270 H   0  0  0  0  0  0  0  0  0  0  0  0
  1  7  1  0  0  0  0
  1  2  1  0  0  0  0
  2  8  1  0  0  0  0
  3  2  2  0  0  0  0
  3  9  1  0  0  0  0
  4  3  1  0  0  0  0
  5  6  1  0  0  0  0
  5  4  2  0  0  0  0
  6  1  2  0  0  0  0
 10  5  1  0  0  0  0
 11 10  1  1  0  0  0
 11 12  1  0  0  0  0
 12 13  1  0  0  0  0
 14 12  1  0  0  0  0
 15 14  1  0  0  0  0
 16 14  1  0  0  0  0
 17 16  1  0  0  0  0
 17 11  1  0  0  0  0
 18 17  1  0  0  0  0
M  END
>  <minimizedAffinity>
-3.44466901

$$$$

 OpenBabel03272506413D

 18 19  0  0  1  0  0  0  0  0999 V2000
   36.9060   25.6550   32.4160 C   0  0  0  0  0  0  0  0  0  0  0  0
   36.2850   26.8600   32.0280 C   0  0  0  0  0  0  0  0  0  0  0  0
   36.3140   27.9460   32.9110 C   0  0  0  0  0  0  0  0  0  0  0  0
   36.9430   27.7820   34.1020 N   0  0  0  0  0  0  0  0  0  0  0  0
   37.5310   26.6240   34.4570 C   0  0  0  0  0  0  0  0  0  0  0  0
   37.5080   25.5770   33.6150 N   0  0  0  0  0  0  0  0  0  0  0  0
   36.8590   24.8480   31.7110 H   0  0  0  0  0  0  0  0  0  0  0  0
   35.7750   27.0150   31.0820 H   0  0  0  0  0  0  0  0  0  0  0  0
   35.8620   28.8960   32.6820 H   0  0  0  0  0  0  0  0  0  0  0  0
   38.3550   26.4110   36.0220 S   0  0  0  0  0  0  0  0  0  0  0  0
   37.9560   24.7930   36.6660 C   0  0  2  0  0  3  0  0  0  0  0  0
   37.9400   24.7470   38.1990 C   0  0  0  0  0  3  0  0  0  0  0  0
   36.9950   25.1080   38.6250 H   0  0  0  0  0  0  0  0  0  0  0  0
   38.0650   23.2200   38.3160 C   0  0  0  0  0  3  0  0  0  0  0  0
   37.2570   22.8170   37.6800 H   0  0  0  0  0  0  0  0  0  0  0  0
   39.2490   23.0600   37.5820 O   0  0  0  0  0  0  0  0  0  0  0  0
   39.0660   23.7820   36.4180 C   0  0  0  0  0  3  0  0  0  0  0  0
   38.7910   23.0490   35.6300 H   0  0  0  0  0  0  0  0  0  0  0  0
  1  6  1  0  0  0  0
  2  1  2  0  0  0  0
  2  3  1  0  0  0  0
  3  4  2  0  0  0  0
  4  5  1  0  0  0  0
  5 10  1  0  0  0  0
  6  5  2  0  0  0  0
  7  1  1  0  0  0  0
  8  2  1  0  0  0  0
  9  3  1  0  0  0  0
 11 10  1  1  0  0  0
 11 12  1  0  0  0  0
 12 14  1  0  0  0  0
 12 13  1  0  0  0  0
 15 14  1  0  0  0  0
 16 14  1  0  0  0  0
 17 11  1  0  0  0  0
 17 16  1  0  0  0  0
 18 17  1  0  0  0  0
M  END
>  <minimizedAffinity>
-3.42460108

$$$$

 OpenBabel03272506413D

 18 19  0  0  1  0  0  0  0  0999 V2000
   37.9000   23.4910   37.3740 C   0  0  0  0  0  0  0  0  0  0  0  0
   39.0510   23.2370   38.1490 C   0  0  0  0  0  0  0  0  0  0  0  0
   40.1230   22.5580   37.5580 C   0  0  0  0  0  0  0  0  0  0  0  0
   39.9990   22.1770   36.2620 N   0  0  0  0  0  0  0  0  0  0  0  0
   38.8930   22.4270   35.5360 C   0  0  0  0  0  0  0  0  0  0  0  0
   37.8590   23.0780   36.0960 N   0  0  0  0  0  0  0  0  0  0  0  0
   37.1010   24.0120   37.8650 H   0  0  0  0  0  0  0  0  0  0  0  0
   39.1730   23.5310   39.1870 H   0  0  0  0  0  0  0  0  0  0  0  0
   41.0320   22.3310   38.0880 H   0  0  0  0  0  0  0  0  0  0  0  0
   38.7320   21.9230   33.8350 S   0  0  0  0  0  0  0  0  0  0  0  0
   37.4850   22.9340   33.0510 C   0  0  2  0  0  3  0  0  0  0  0  0
   36.3870   22.1070   32.3700 C   0  0  0  0  0  3  0  0  0  0  0  0
   35.6150   21.7670   33.0720 H   0  0  0  0  0  0  0  0  0  0  0  0
   35.8690   23.2400   31.4690 C   0  0  0  0  0  3  0  0  0  0  0  0
   35.6690   24.0820   32.1550 H   0  0  0  0  0  0  0  0  0  0  0  0
   37.0750   23.5470   30.8210 O   0  0  0  0  0  0  0  0  0  0  0  0
   38.0170   23.6630   31.8260 C   0  0  0  0  0  3  0  0  0  0  0  0
   38.1480   24.7490   32.0140 H   0  0  0  0  0  0  0  0  0  0  0  0
  1  7  1  0  0  0  0
  1  2  1  0  0  0  0
  2  8  1  0  0  0  0
  3  9  1  0  0  0  0
  3  2  2  0  0  0  0
  4  3  1  0  0  0  0
  5  6  1  0  0  0  0
  5  4  2  0  0  0  0
  6  1  2  0  0  0  0
 10  5  1  0  0  0  0
 11 10  1  6  0  0  0
 12 11  1  0  0  0  0
 12 13  1  0  0  0  0
 14 15  1  0  0  0  0
 14 12  1  0  0  0  0
 16 14  1  0  0  0  0
 16 17  1  0  0  0  0
 17 18  1  0  0  0  0
 17 11  1  0  0  0  0
M  END
>  <minimizedAffinity>
-3.40574121

$$$$

 OpenBabel03272506413D

 18 19  0  0  1  0  0  0  0  0999 V2000
   37.8980   22.5550   36.0520 C   0  0  0  0  0  0  0  0  0  0  0  0
   37.6030   23.2290   37.2550 C   0  0  0  0  0  0  0  0  0  0  0  0
   38.6250   23.4050   38.1950 C   0  0  0  0  0  0  0  0  0  0  0  0
   39.8540   22.9130   37.8990 N   0  0  0  0  0  0  0  0  0  0  0  0
   40.1190   22.2710   36.7460 C   0  0  0  0  0  0  0  0  0  0  0  0
   39.1430   22.0990   35.8370 N   0  0  0  0  0  0  0  0  0  0  0  0
   37.0860   22.4400   35.3600 H   0  0  0  0  0  0  0  0  0  0  0  0
   36.6270   23.6300   37.5150 H   0  0  0  0  0  0  0  0  0  0  0  0
   38.4720   23.9100   39.1340 H   0  0  0  0  0  0  0  0  0  0  0  0
   41.7340   21.6260   36.3600 S   0  0  0  0  0  0  0  0  0  0  0  0
   42.7000   22.9160   35.5910 C   0  0  2  0  0  3  0  0  0  0  0  0
   43.4610   23.7790   36.6050 C   0  0  0  0  0  3  0  0  0  0  0  0
   44.4030   23.3200   36.9310 H   0  0  0  0  0  0  0  0  0  0  0  0
   43.7080   24.9620   35.6560 C   0  0  0  0  0  3  0  0  0  0  0  0
   44.1710   24.5170   34.7580 H   0  0  0  0  0  0  0  0  0  0  0  0
   42.3740   25.2250   35.3130 O   0  0  0  0  0  0  0  0  0  0  0  0
   41.8300   24.0000   34.9730 C   0  0  0  0  0  3  0  0  0  0  0  0
   41.8280   23.9510   33.8640 H   0  0  0  0  0  0  0  0  0  0  0  0
  1  2  1  0  0  0  0
  2  8  1  0  0  0  0
  2  3  2  0  0  0  0
  3  9  1  0  0  0  0
  4  3  1  0  0  0  0
  5  4  2  0  0  0  0
  6  1  2  0  0  0  0
  6  5  1  0  0  0  0
  7  1  1  0  0  0  0
 10  5  1  0  0  0  0
 11 10  1  1  0  0  0
 11 12  1  0  0  0  0
 12 13  1  0  0  0  0
 14 12  1  0  0  0  0
 15 14  1  0  0  0  0
 16 14  1  0  0  0  0
 17 16  1  0  0  0  0
 17 11  1  0  0  0  0
 18 17  1  0  0  0  0
M  END
>  <minimizedAffinity>
-3.35984778

$$$$
