
 OpenBabel03272502313D

 26 27  0  0  1  0  0  0  0  0999 V2000
   38.1150   31.1270   48.0750 C   0  0  2  0  0  0  0  0  0  0  0  0
   38.7370   30.6540   48.8770 H   0  0  0  0  0  0  0  0  0  0  0  0
   38.2750   32.6180   48.0810 C   0  0  1  0  0  0  0  0  0  0  0  0
   38.3210   33.1170   49.5380 C   0  0  0  0  0  0  0  0  0  0  0  0
   37.3490   33.4820   49.8770 H   0  0  0  0  0  0  0  0  0  0  0  0
   39.4560   34.1060   49.6270 C   0  0  0  0  0  0  0  0  0  0  0  0
   39.0520   35.0090   50.1320 H   0  0  0  0  0  0  0  0  0  0  0  0
   39.8500   34.3270   48.3200 O   0  0  0  0  0  0  0  0  0  0  0  0
   39.5800   33.1500   47.5910 C   0  0  0  0  0  0  0  0  0  0  0  0
   39.4740   33.5020   46.5200 H   0  0  0  0  0  0  0  0  0  0  0  0
   37.5860   30.7250   45.7820 C   0  0  0  0  0  0  0  0  0  0  0  0
   38.4730   30.5980   46.7390 C   0  0  0  0  0  0  0  0  0  0  0  0
   39.2690   29.1170   42.8770 C   0  0  0  0  0  0  0  0  0  0  0  0
   38.9810   29.5350   44.1730 C   0  0  0  0  0  0  0  0  0  0  0  0
   37.8460   30.2810   44.4230 C   0  0  0  0  0  0  0  0  0  0  0  0
   37.0380   30.5850   43.3940 N   0  0  0  0  0  0  0  0  0  0  0  0
   37.3270   30.1740   42.1430 C   0  0  0  0  0  0  0  0  0  0  0  0
   38.4230   29.4530   41.8780 N   0  0  0  0  0  0  0  0  0  0  0  0
   40.1460   28.5240   42.6460 H   0  0  0  0  0  0  0  0  0  0  0  0
   39.7220   29.2190   44.8960 H   0  0  0  0  0  0  0  0  0  0  0  0
   36.5690   30.5150   41.4560 H   0  0  0  0  0  0  0  0  0  0  0  0
   36.3460   30.7530   48.3610 S   0  0  0  0  0  0  0  0  0  0  0  0
   36.1100   29.9880   49.9650 C   0  0  0  0  0  0  0  0  0  0  0  0
   36.8220   30.6320   50.9730 F   0  0  0  0  0  0  0  0  0  0  0  0
   34.7760   29.8380   50.2800 F   0  0  0  0  0  0  0  0  0  0  0  0
   36.6410   28.6780   49.8650 F   0  0  0  0  0  0  0  0  0  0  0  0
  1 22  1  0  0  0  0
  1  2  1  1  0  0  0
  3  1  1  1  0  0  0
  3  4  1  0  0  0  0
  4  6  1  0  0  0  0
  4  5  1  0  0  0  0
  6  7  1  0  0  0  0
  8  6  1  0  0  0  0
  9  3  1  0  0  0  0
  9  8  1  0  0  0  0
 10  9  1  0  0  0  0
 11 12  2  0  0  0  0
 12  1  1  0  0  0  0
 13 14  1  0  0  0  0
 14 15  2  0  0  0  0
 14 20  1  0  0  0  0
 15 11  1  0  0  0  0
 16 15  1  0  0  0  0
 17 16  2  0  0  0  0
 18 17  1  0  0  0  0
 18 13  2  0  0  0  0
 19 13  1  0  0  0  0
 21 17  1  0  0  0  0
 22 23  1  0  0  0  0
 23 25  1  0  0  0  0
 23 24  1  0  0  0  0
 26 23  1  0  0  0  0
M  END
>  <minimizedAffinity>
-4.96047258

>  <minimizedRMSD>
3.24448991

$$$$
