
 OpenBabel03272503423D

 40 43  0  0  1  0  0  0  0  0999 V2000
   38.4580   31.1440   45.8840 C   0  0  0  0  0  0  0  0  0  0  0  0
   39.7970   31.0590   46.1520 C   0  0  0  0  0  0  0  0  0  0  0  0
   40.4160   31.4440   44.9520 C   0  0  0  0  0  0  0  0  0  0  0  0
   39.4720   31.7340   44.0470 N   0  0  0  0  0  0  0  0  0  0  0  0
   38.2820   31.5510   44.6140 N   0  0  0  0  0  0  0  0  0  0  0  0
   40.3100   30.7680   47.0610 H   0  0  0  0  0  0  0  0  0  0  0  0
   41.4950   31.4730   44.8640 H   0  0  0  0  0  0  0  0  0  0  0  0
   40.1130   30.9710   41.8220 C   0  0  2  0  0  0  0  0  0  0  0  0
   39.7830   32.1640   42.7070 C   0  0  1  0  0  0  0  0  0  0  0  0
   38.5640   32.6640   41.9600 C   0  0  0  0  0  0  0  0  0  0  0  0
   38.7890   32.4590   40.6200 O   0  0  0  0  0  0  0  0  0  0  0  0
   39.8610   31.6370   40.4530 C   0  0  0  0  0  0  0  0  0  0  0  0
   41.1360   30.6300   41.8710 H   0  0  0  0  0  0  0  0  0  0  0  0
   40.5530   32.9300   42.6990 H   0  0  0  0  0  0  0  0  0  0  0  0
   37.6970   32.0090   42.2280 H   0  0  0  0  0  0  0  0  0  0  0  0
   38.3670   33.7220   42.1590 H   0  0  0  0  0  0  0  0  0  0  0  0
   39.6820   30.8020   39.7350 H   0  0  0  0  0  0  0  0  0  0  0  0
   40.7760   32.2060   40.1660 H   0  0  0  0  0  0  0  0  0  0  0  0
   39.1450   30.0170   42.0320 O   0  0  0  0  0  0  0  0  0  0  0  0
   39.5670   28.7490   42.2160 C   0  0  1  0  0  0  0  0  0  0  0  0
   38.8600   27.9480   43.2850 C   0  0  0  0  0  0  0  0  0  0  0  0
   37.7670   27.9520   43.1570 H   0  0  0  0  0  0  0  0  0  0  0  0
   39.3760   26.5690   42.9090 C   0  0  0  0  0  0  0  0  0  0  0  0
   40.3910   26.4890   43.3860 H   0  0  0  0  0  0  0  0  0  0  0  0
   39.5540   26.5420   41.5500 O   0  0  0  0  0  0  0  0  0  0  0  0
   39.4230   27.8200   41.0520 C   0  0  0  0  0  0  0  0  0  0  0  0
   38.4530   27.8730   40.5440 H   0  0  0  0  0  0  0  0  0  0  0  0
   36.5170   30.6240   49.0530 C   0  0  0  0  0  0  0  0  0  0  0  0
   37.5510   30.9230   48.1980 C   0  0  0  0  0  0  0  0  0  0  0  0
   37.4000   30.8400   46.8300 C   0  0  0  0  0  0  0  0  0  0  0  0
   36.1930   30.4520   46.3750 N   0  0  0  0  0  0  0  0  0  0  0  0
   35.1680   30.1560   47.2280 C   0  0  0  0  0  0  0  0  0  0  0  0
   35.3150   30.2370   48.5340 N   0  0  0  0  0  0  0  0  0  0  0  0
   38.5510   31.2420   48.5280 H   0  0  0  0  0  0  0  0  0  0  0  0
   34.2120   29.8480   46.8030 H   0  0  0  0  0  0  0  0  0  0  0  0
   36.8390   30.7590   50.3920 O   0  0  0  0  0  0  0  0  0  0  0  0
   36.8940   29.6810   51.2990 C   0  0  0  0  0  0  0  0  0  0  0  0
   35.6130   29.2470   51.6260 F   0  0  0  0  0  0  0  0  0  0  0  0
   37.5840   30.0780   52.4170 F   0  0  0  0  0  0  0  0  0  0  0  0
   37.5980   28.6590   50.7030 F   0  0  0  0  0  0  0  0  0  0  0  0
  1  2  1  0  0  0  0
  1 30  1  0  0  0  0
  2  6  1  0  0  0  0
  3  2  2  0  0  0  0
  4  5  1  0  0  0  0
  4  3  1  0  0  0  0
  5  1  2  0  0  0  0
  7  3  1  0  0  0  0
  8 13  1  1  0  0  0
  8 19  1  0  0  0  0
  8  9  1  0  0  0  0
  9 14  1  6  0  0  0
  9  4  1  0  0  0  0
 10 16  1  0  0  0  0
 10 15  1  0  0  0  0
 10  9  1  0  0  0  0
 11 10  1  0  0  0  0
 12 11  1  0  0  0  0
 12  8  1  0  0  0  0
 17 12  1  0  0  0  0
 18 12  1  0  0  0  0
 20 19  1  6  0  0  0
 20 21  1  0  0  0  0
 22 21  1  0  0  0  0
 23 21  1  0  0  0  0
 23 24  1  0  0  0  0
 25 23  1  0  0  0  0
 26 25  1  0  0  0  0
 26 20  1  0  0  0  0
 27 26  1  0  0  0  0
 28 36  1  0  0  0  0
 29 34  1  0  0  0  0
 29 28  2  0  0  0  0
 30 29  1  0  0  0  0
 31 30  2  0  0  0  0
 31 32  1  0  0  0  0
 32 33  2  0  0  0  0
 33 28  1  0  0  0  0
 35 32  1  0  0  0  0
 36 37  1  0  0  0  0
 37 38  1  0  0  0  0
 37 39  1  0  0  0  0
 40 37  1  0  0  0  0
M  END
>  <minimizedAffinity>
-6.17629957

>  <minimizedRMSD>
0.499876499

$$$$
