
 OpenBabel03262522173D

 44 47  0  0  1  0  0  0  0  0999 V2000
   39.4620   26.7790   32.9310 C   0  0  0  0  0  0  0  0  0  0  0  0
   39.5960   25.7070   32.7680 H   0  0  0  0  0  0  0  0  0  0  0  0
   40.4230   27.2670   32.6500 H   0  0  0  0  0  0  0  0  0  0  0  0
   38.2050   25.7560   36.0860 C   0  0  1  0  0  0  0  0  0  0  0  0
   39.4610   25.8550   35.2530 C   0  0  0  0  0  0  0  0  0  0  0  0
   39.1540   27.0480   34.3990 C   0  0  2  0  0  0  0  0  0  0  0  0
   37.8420   27.3970   34.6000 O   0  0  0  0  0  0  0  0  0  0  0  0
   37.1760   26.2890   35.1170 C   0  0  0  0  0  0  0  0  0  0  0  0
   38.3300   26.3920   36.9680 H   0  0  0  0  0  0  0  0  0  0  0  0
   40.3320   25.9670   35.9070 H   0  0  0  0  0  0  0  0  0  0  0  0
   39.5970   24.9320   34.6300 H   0  0  0  0  0  0  0  0  0  0  0  0
   39.8700   27.8580   34.6880 H   0  0  0  0  0  0  0  0  0  0  0  0
   36.2670   26.6560   35.6080 H   0  0  0  0  0  0  0  0  0  0  0  0
   36.9980   25.5330   34.3420 H   0  0  0  0  0  0  0  0  0  0  0  0
   37.9500   24.4290   36.4470 O   0  0  0  0  0  0  0  0  0  0  0  0
   39.1360   23.7570   36.5670 C   0  0  2  0  0  3  0  0  0  0  0  0
   39.1670   22.4170   35.8240 C   0  0  0  0  0  3  0  0  0  0  0  0
   38.2780   21.8200   36.0210 H   0  0  0  0  0  0  0  0  0  0  0  0
   40.3510   21.7870   36.5540 C   0  0  0  0  0  3  0  0  0  0  0  0
   41.3160   22.0640   36.0340 H   0  0  0  0  0  0  0  0  0  0  0  0
   40.4140   22.3670   37.7920 O   0  0  0  0  0  0  0  0  0  0  0  0
   39.3590   23.2310   37.9690 C   0  0  0  0  0  3  0  0  0  0  0  0
   39.6080   24.0140   38.7060 H   0  0  0  0  0  0  0  0  0  0  0  0
   38.1230   27.5200   31.9610 S   0  0  0  0  0  0  0  0  0  0  0  0
   36.7780   23.8790   31.1550 C   0  0  0  0  0  0  0  0  0  0  0  0
   35.4180   24.0660   30.8720 C   0  0  0  0  0  0  0  0  0  0  0  0
   34.8580   25.3240   30.9180 C   0  0  0  0  0  0  0  0  0  0  0  0
   35.6940   26.3550   31.2500 C   0  0  0  0  0  0  0  0  0  0  0  0
   37.0190   26.1470   31.5220 C   0  0  0  0  0  0  0  0  0  0  0  0
   37.5780   24.9170   31.4790 N   0  0  0  0  0  0  0  0  0  0  0  0
   34.7770   23.2230   30.6100 H   0  0  0  0  0  0  0  0  0  0  0  0
   33.8230   25.5360   30.7140 H   0  0  0  0  0  0  0  0  0  0  0  0
   35.3530   27.3940   31.3160 H   0  0  0  0  0  0  0  0  0  0  0  0
   37.2890   22.5290   31.0840 C   0  0  0  0  0  0  0  0  0  0  0  0
   38.3440   22.2770   30.4860 O   0  0  0  0  0  0  0  0  0  0  0  0
   36.2190   20.3200   30.8890 C   0  0  0  0  0  0  0  0  0  0  0  0
   36.5970   21.3900   31.7070 C   0  0  0  0  0  0  0  0  0  0  0  0
   36.3120   21.3500   33.0760 C   0  0  0  0  0  0  0  0  0  0  0  0
   35.6640   20.2500   33.5770 N   0  0  0  0  0  0  0  0  0  0  0  0
   35.3090   19.2270   32.7570 C   0  0  0  0  0  0  0  0  0  0  0  0
   35.5810   19.2620   31.4460 N   0  0  0  0  0  0  0  0  0  0  0  0
   36.4410   20.3560   29.8350 H   0  0  0  0  0  0  0  0  0  0  0  0
   36.6240   22.1910   33.6460 H   0  0  0  0  0  0  0  0  0  0  0  0
   34.7950   18.3590   33.1630 H   0  0  0  0  0  0  0  0  0  0  0  0
  1  6  1  0  0  0  0
  2  1  1  0  0  0  0
  3  1  1  0  0  0  0
  4 15  1  0  0  0  0
  4  9  1  1  0  0  0
  5 10  1  0  0  0  0
  5  4  1  0  0  0  0
  6  7  1  0  0  0  0
  6 12  1  1  0  0  0
  6  5  1  0  0  0  0
  7  8  1  0  0  0  0
  8 13  1  0  0  0  0
  8  4  1  0  0  0  0
 11  5  1  0  0  0  0
 14  8  1  0  0  0  0
 16 15  1  1  0  0  0
 16 22  1  0  0  0  0
 17 18  1  0  0  0  0
 17 19  1  0  0  0  0
 17 16  1  0  0  0  0
 19 21  1  0  0  0  0
 20 19  1  0  0  0  0
 21 22  1  0  0  0  0
 22 23  1  0  0  0  0
 24  1  1  0  0  0  0
 25 30  1  0  0  0  0
 26 27  1  0  0  0  0
 26 25  2  0  0  0  0
 27 28  2  0  0  0  0
 28 33  1  0  0  0  0
 28 29  1  0  0  0  0
 29 24  1  0  0  0  0
 30 29  2  0  0  0  0
 31 26  1  0  0  0  0
 32 27  1  0  0  0  0
 34 25  1  0  0  0  0
 34 37  1  0  0  0  0
 35 34  2  0  0  0  0
 36 41  2  0  0  0  0
 36 37  1  0  0  0  0
 37 38  2  0  0  0  0
 38 39  1  0  0  0  0
 38 43  1  0  0  0  0
 40 44  1  0  0  0  0
 40 39  2  0  0  0  0
 41 40  1  0  0  0  0
 42 36  1  0  0  0  0
M  END
>  <minimizedAffinity>
-5.6534853

$$$$

 OpenBabel03262522173D

 44 47  0  0  1  0  0  0  0  0999 V2000
   42.1400   25.5900   34.9830 C   0  0  0  0  0  0  0  0  0  0  0  0
   43.1420   25.9570   35.2140 H   0  0  0  0  0  0  0  0  0  0  0  0
   41.5070   25.8010   35.8750 H   0  0  0  0  0  0  0  0  0  0  0  0
   41.0990   22.2750   35.6990 C   0  0  1  0  0  0  0  0  0  0  0  0
   40.8190   23.4740   34.8240 C   0  0  0  0  0  0  0  0  0  0  0  0
   42.1820   24.0890   34.7220 C   0  0  2  0  0  0  0  0  0  0  0  0
   43.0180   23.4330   35.5910 O   0  0  0  0  0  0  0  0  0  0  0  0
   42.2310   22.8000   36.5500 C   0  0  0  0  0  0  0  0  0  0  0  0
   41.4010   21.4440   35.0530 H   0  0  0  0  0  0  0  0  0  0  0  0
   40.3870   23.1460   33.8720 H   0  0  0  0  0  0  0  0  0  0  0  0
   40.0950   24.1700   35.3240 H   0  0  0  0  0  0  0  0  0  0  0  0
   42.5080   24.0030   33.6550 H   0  0  0  0  0  0  0  0  0  0  0  0
   42.8400   22.0070   36.9980 H   0  0  0  0  0  0  0  0  0  0  0  0
   41.8240   23.5200   37.2710 H   0  0  0  0  0  0  0  0  0  0  0  0
   39.9760   21.9430   36.4640 O   0  0  0  0  0  0  0  0  0  0  0  0
   39.2990   23.0870   36.7920 C   0  0  2  0  0  3  0  0  0  0  0  0
   39.1110   23.2830   38.3000 C   0  0  0  0  0  3  0  0  0  0  0  0
   38.7500   22.3780   38.7880 H   0  0  0  0  0  0  0  0  0  0  0  0
   37.9720   24.2990   38.2510 C   0  0  0  0  0  3  0  0  0  0  0  0
   38.3920   25.3460   38.1970 H   0  0  0  0  0  0  0  0  0  0  0  0
   37.3090   24.1000   37.0700 O   0  0  0  0  0  0  0  0  0  0  0  0
   37.8380   23.0220   36.3990 C   0  0  0  0  0  3  0  0  0  0  0  0
   37.6640   23.1070   35.3130 H   0  0  0  0  0  0  0  0  0  0  0  0
   41.3790   26.3610   33.5310 S   0  0  0  0  0  0  0  0  0  0  0  0
   37.5020   27.1730   33.3880 C   0  0  0  0  0  0  0  0  0  0  0  0
   37.1460   27.4100   34.7230 C   0  0  0  0  0  0  0  0  0  0  0  0
   38.0890   27.3290   35.7250 C   0  0  0  0  0  0  0  0  0  0  0  0
   39.3630   27.0100   35.3420 C   0  0  0  0  0  0  0  0  0  0  0  0
   39.6860   26.7830   34.0320 C   0  0  0  0  0  0  0  0  0  0  0  0
   38.7690   26.8610   33.0420 N   0  0  0  0  0  0  0  0  0  0  0  0
   36.1210   27.6630   34.9960 H   0  0  0  0  0  0  0  0  0  0  0  0
   37.8840   27.4970   36.7670 H   0  0  0  0  0  0  0  0  0  0  0  0
   40.1890   26.9190   36.0570 H   0  0  0  0  0  0  0  0  0  0  0  0
   36.4550   27.2790   32.3970 C   0  0  0  0  0  0  0  0  0  0  0  0
   35.9820   26.2680   31.8600 O   0  0  0  0  0  0  0  0  0  0  0  0
   34.6890   28.9880   32.5440 C   0  0  0  0  0  0  0  0  0  0  0  0
   35.8960   28.5710   31.9730 C   0  0  0  0  0  0  0  0  0  0  0  0
   36.5310   29.3820   31.0260 C   0  0  0  0  0  0  0  0  0  0  0  0
   35.9420   30.5740   30.6860 N   0  0  0  0  0  0  0  0  0  0  0  0
   34.7700   30.9510   31.2590 C   0  0  0  0  0  0  0  0  0  0  0  0
   34.1600   30.1770   32.1650 N   0  0  0  0  0  0  0  0  0  0  0  0
   34.2040   28.3600   33.2730 H   0  0  0  0  0  0  0  0  0  0  0  0
   37.4440   29.0140   30.6280 H   0  0  0  0  0  0  0  0  0  0  0  0
   34.3110   31.8970   30.9830 H   0  0  0  0  0  0  0  0  0  0  0  0
  1  2  1  0  0  0  0
  1  3  1  0  0  0  0
  4  9  1  6  0  0  0
  4 15  1  0  0  0  0
  4  8  1  0  0  0  0
  5 11  1  0  0  0  0
  5  4  1  0  0  0  0
  6 12  1  6  0  0  0
  6  5  1  0  0  0  0
  6  1  1  0  0  0  0
  6  7  1  0  0  0  0
  7  8  1  0  0  0  0
  8 13  1  0  0  0  0
  8 14  1  0  0  0  0
 10  5  1  0  0  0  0
 16 15  1  1  0  0  0
 16 17  1  0  0  0  0
 17 18  1  0  0  0  0
 19 17  1  0  0  0  0
 20 19  1  0  0  0  0
 21 19  1  0  0  0  0
 22 16  1  0  0  0  0
 22 21  1  0  0  0  0
 23 22  1  0  0  0  0
 24 29  1  0  0  0  0
 24  1  1  0  0  0  0
 25 26  1  0  0  0  0
 26 31  1  0  0  0  0
 26 27  2  0  0  0  0
 27 32  1  0  0  0  0
 28 27  1  0  0  0  0
 28 33  1  0  0  0  0
 29 28  2  0  0  0  0
 30 25  2  0  0  0  0
 30 29  1  0  0  0  0
 34 25  1  0  0  0  0
 35 34  2  0  0  0  0
 36 42  1  0  0  0  0
 37 34  1  0  0  0  0
 37 36  2  0  0  0  0
 38 37  1  0  0  0  0
 39 38  2  0  0  0  0
 39 40  1  0  0  0  0
 40 41  2  0  0  0  0
 41 36  1  0  0  0  0
 43 38  1  0  0  0  0
 44 40  1  0  0  0  0
M  END
>  <minimizedAffinity>
-5.62424183

$$$$

 OpenBabel03262522173D

 44 47  0  0  1  0  0  0  0  0999 V2000
   38.2870   25.9170   31.0620 C   0  0  0  0  0  0  0  0  0  0  0  0
   38.4750   26.6240   30.2510 H   0  0  0  0  0  0  0  0  0  0  0  0
   39.2080   25.8940   31.6870 H   0  0  0  0  0  0  0  0  0  0  0  0
   37.1300   22.5820   31.4110 C   0  0  1  0  0  0  0  0  0  0  0  0
   36.7150   23.9750   30.9990 C   0  0  0  0  0  0  0  0  0  0  0  0
   38.0120   24.5310   30.4920 C   0  0  2  0  0  0  0  0  0  0  0  0
   39.0110   23.6380   30.7920 O   0  0  0  0  0  0  0  0  0  0  0  0
   38.5620   22.8210   31.8270 C   0  0  0  0  0  0  0  0  0  0  0  0
   37.0430   21.9290   30.5360 H   0  0  0  0  0  0  0  0  0  0  0  0
   35.9140   23.9190   30.2540 H   0  0  0  0  0  0  0  0  0  0  0  0
   36.3420   24.5550   31.8840 H   0  0  0  0  0  0  0  0  0  0  0  0
   37.8950   24.7020   29.3930 H   0  0  0  0  0  0  0  0  0  0  0  0
   39.1760   21.9130   31.8120 H   0  0  0  0  0  0  0  0  0  0  0  0
   38.5660   23.3550   32.7850 H   0  0  0  0  0  0  0  0  0  0  0  0
   36.3440   22.1210   32.4720 O   0  0  0  0  0  0  0  0  0  0  0  0
   36.4090   20.7550   32.5220 C   0  0  2  0  0  3  0  0  0  0  0  0
   35.8650   20.0630   31.2670 C   0  0  0  0  0  3  0  0  0  0  0  0
   34.9000   20.4670   30.9640 H   0  0  0  0  0  0  0  0  0  0  0  0
   35.6490   18.6720   31.8590 C   0  0  0  0  0  3  0  0  0  0  0  0
   36.5910   18.0570   31.7520 H   0  0  0  0  0  0  0  0  0  0  0  0
   35.4570   18.8340   33.2040 O   0  0  0  0  0  0  0  0  0  0  0  0
   35.4410   20.1700   33.5280 C   0  0  0  0  0  3  0  0  0  0  0  0
   35.7400   20.3260   34.5790 H   0  0  0  0  0  0  0  0  0  0  0  0
   36.8770   26.3490   32.1150 S   0  0  0  0  0  0  0  0  0  0  0  0
   38.0650   25.0560   35.6690 C   0  0  0  0  0  0  0  0  0  0  0  0
   38.4470   26.2200   36.3530 C   0  0  0  0  0  0  0  0  0  0  0  0
   38.3530   27.4530   35.7450 C   0  0  0  0  0  0  0  0  0  0  0  0
   37.8760   27.4690   34.4630 C   0  0  0  0  0  0  0  0  0  0  0  0
   37.5100   26.3200   33.8160 C   0  0  0  0  0  0  0  0  0  0  0  0
   37.5970   25.1060   34.4040 N   0  0  0  0  0  0  0  0  0  0  0  0
   38.8230   26.1730   37.3750 H   0  0  0  0  0  0  0  0  0  0  0  0
   38.6280   28.3820   36.2110 H   0  0  0  0  0  0  0  0  0  0  0  0
   37.7610   28.3940   33.8870 H   0  0  0  0  0  0  0  0  0  0  0  0
   38.1930   23.8020   36.3770 C   0  0  0  0  0  0  0  0  0  0  0  0
   37.2460   23.3360   37.0230 O   0  0  0  0  0  0  0  0  0  0  0  0
   39.9740   22.6250   37.6040 C   0  0  0  0  0  0  0  0  0  0  0  0
   39.4360   23.0170   36.3720 C   0  0  0  0  0  0  0  0  0  0  0  0
   40.0860   22.6580   35.1870 C   0  0  0  0  0  0  0  0  0  0  0  0
   41.2430   21.9240   35.2720 N   0  0  0  0  0  0  0  0  0  0  0  0
   41.7390   21.5590   36.4820 C   0  0  0  0  0  0  0  0  0  0  0  0
   41.1190   21.9010   37.6180 N   0  0  0  0  0  0  0  0  0  0  0  0
   39.4700   22.9040   38.5140 H   0  0  0  0  0  0  0  0  0  0  0  0
   39.6320   22.9830   34.2830 H   0  0  0  0  0  0  0  0  0  0  0  0
   42.6560   20.9770   36.5390 H   0  0  0  0  0  0  0  0  0  0  0  0
  1  3  1  0  0  0  0
  1 24  1  0  0  0  0
  2  1  1  0  0  0  0
  4  9  1  6  0  0  0
  4  8  1  0  0  0  0
  4 15  1  0  0  0  0
  5  4  1  0  0  0  0
  5 11  1  0  0  0  0
  6 12  1  6  0  0  0
  6  7  1  0  0  0  0
  6  5  1  0  0  0  0
  6  1  1  0  0  0  0
  7  8  1  0  0  0  0
  8 14  1  0  0  0  0
 10  5  1  0  0  0  0
 13  8  1  0  0  0  0
 16 15  1  6  0  0  0
 16 22  1  0  0  0  0
 17 19  1  0  0  0  0
 17 16  1  0  0  0  0
 18 17  1  0  0  0  0
 19 21  1  0  0  0  0
 20 19  1  0  0  0  0
 21 22  1  0  0  0  0
 22 23  1  0  0  0  0
 24 29  1  0  0  0  0
 25 26  1  0  0  0  0
 25 34  1  0  0  0  0
 26 31  1  0  0  0  0
 27 32  1  0  0  0  0
 27 26  2  0  0  0  0
 28 27  1  0  0  0  0
 29 30  1  0  0  0  0
 29 28  2  0  0  0  0
 30 25  2  0  0  0  0
 33 28  1  0  0  0  0
 34 35  2  0  0  0  0
 36 41  1  0  0  0  0
 36 42  1  0  0  0  0
 37 34  1  0  0  0  0
 37 36  2  0  0  0  0
 38 39  2  0  0  0  0
 38 37  1  0  0  0  0
 39 40  1  0  0  0  0
 40 44  1  0  0  0  0
 40 41  2  0  0  0  0
 43 38  1  0  0  0  0
M  END
>  <minimizedAffinity>
-5.50739288

$$$$

 OpenBabel03262522173D

 44 47  0  0  1  0  0  0  0  0999 V2000
   37.7580   25.2180   36.1550 C   0  0  0  0  0  0  0  0  0  0  0  0
   37.3150   25.2770   37.1520 H   0  0  0  0  0  0  0  0  0  0  0  0
   36.9160   25.0860   35.4380 H   0  0  0  0  0  0  0  0  0  0  0  0
   38.8260   22.1950   34.6380 C   0  0  1  0  0  0  0  0  0  0  0  0
   39.0420   23.6900   34.6510 C   0  0  0  0  0  0  0  0  0  0  0  0
   38.7010   24.0240   36.0730 C   0  0  2  0  0  0  0  0  0  0  0  0
   38.1730   22.9030   36.6650 O   0  0  0  0  0  0  0  0  0  0  0  0
   37.7190   22.0560   35.6570 C   0  0  0  0  0  0  0  0  0  0  0  0
   39.7580   21.7130   34.9520 H   0  0  0  0  0  0  0  0  0  0  0  0
   40.0720   23.9190   34.3580 H   0  0  0  0  0  0  0  0  0  0  0  0
   38.3450   24.1980   33.9350 H   0  0  0  0  0  0  0  0  0  0  0  0
   39.6400   24.3780   36.5670 H   0  0  0  0  0  0  0  0  0  0  0  0
   37.6480   21.0500   36.0860 H   0  0  0  0  0  0  0  0  0  0  0  0
   36.7860   22.4280   35.2150 H   0  0  0  0  0  0  0  0  0  0  0  0
   38.4300   21.7600   33.3690 O   0  0  0  0  0  0  0  0  0  0  0  0
   37.0640   21.8020   33.2830 C   0  0  2  0  0  3  0  0  0  0  0  0
   36.4340   20.4880   32.8090 C   0  0  0  0  0  3  0  0  0  0  0  0
   36.9390   20.0860   31.9310 H   0  0  0  0  0  0  0  0  0  0  0  0
   35.0740   21.0360   32.3830 C   0  0  0  0  0  3  0  0  0  0  0  0
   34.3630   21.0270   33.2600 H   0  0  0  0  0  0  0  0  0  0  0  0
   35.2560   22.3550   32.0630 O   0  0  0  0  0  0  0  0  0  0  0  0
   36.5870   22.6900   32.1540 C   0  0  0  0  0  3  0  0  0  0  0  0
   36.7110   23.7690   32.3510 H   0  0  0  0  0  0  0  0  0  0  0  0
   38.7110   26.6820   35.6750 S   0  0  0  0  0  0  0  0  0  0  0  0
   36.0140   28.6480   33.5360 C   0  0  0  0  0  0  0  0  0  0  0  0
   36.4520   28.5090   32.2110 C   0  0  0  0  0  0  0  0  0  0  0  0
   37.5990   27.8010   31.9220 C   0  0  0  0  0  0  0  0  0  0  0  0
   38.2670   27.2570   32.9850 C   0  0  0  0  0  0  0  0  0  0  0  0
   37.8200   27.4070   34.2690 C   0  0  0  0  0  0  0  0  0  0  0  0
   36.6960   28.0990   34.5630 N   0  0  0  0  0  0  0  0  0  0  0  0
   35.8960   28.9540   31.3850 H   0  0  0  0  0  0  0  0  0  0  0  0
   37.9890   27.6560   30.9300 H   0  0  0  0  0  0  0  0  0  0  0  0
   39.1880   26.6760   32.8680 H   0  0  0  0  0  0  0  0  0  0  0  0
   34.8020   29.4050   33.7550 C   0  0  0  0  0  0  0  0  0  0  0  0
   33.8340   29.2920   32.9920 O   0  0  0  0  0  0  0  0  0  0  0  0
   35.7420   31.1420   35.2250 C   0  0  0  0  0  0  0  0  0  0  0  0
   34.6480   30.3400   34.8790 C   0  0  0  0  0  0  0  0  0  0  0  0
   33.4550   30.4480   35.6000 C   0  0  0  0  0  0  0  0  0  0  0  0
   33.3950   31.3460   36.6360 N   0  0  0  0  0  0  0  0  0  0  0  0
   34.4740   32.1100   36.9470 C   0  0  0  0  0  0  0  0  0  0  0  0
   35.6170   32.0100   36.2580 N   0  0  0  0  0  0  0  0  0  0  0  0
   36.6590   31.0560   34.6660 H   0  0  0  0  0  0  0  0  0  0  0  0
   32.6600   29.8140   35.2920 H   0  0  0  0  0  0  0  0  0  0  0  0
   34.4170   32.8190   37.7700 H   0  0  0  0  0  0  0  0  0  0  0  0
  1  2  1  0  0  0  0
  3  1  1  0  0  0  0
  4  5  1  0  0  0  0
  4  9  1  1  0  0  0
  4  8  1  0  0  0  0
  5  6  1  0  0  0  0
  6  1  1  0  0  0  0
  6 12  1  1  0  0  0
  6  7  1  0  0  0  0
  8 13  1  0  0  0  0
  8  7  1  0  0  0  0
 10  5  1  0  0  0  0
 11  5  1  0  0  0  0
 14  8  1  0  0  0  0
 15  4  1  0  0  0  0
 16 15  1  6  0  0  0
 17 16  1  0  0  0  0
 18 17  1  0  0  0  0
 19 17  1  0  0  0  0
 19 20  1  0  0  0  0
 21 22  1  0  0  0  0
 21 19  1  0  0  0  0
 22 23  1  0  0  0  0
 22 16  1  0  0  0  0
 24  1  1  0  0  0  0
 25 34  1  0  0  0  0
 25 30  1  0  0  0  0
 26 25  2  0  0  0  0
 27 26  1  0  0  0  0
 27 28  2  0  0  0  0
 28 29  1  0  0  0  0
 29 30  2  0  0  0  0
 29 24  1  0  0  0  0
 31 26  1  0  0  0  0
 32 27  1  0  0  0  0
 33 28  1  0  0  0  0
 34 37  1  0  0  0  0
 35 34  2  0  0  0  0
 36 41  1  0  0  0  0
 37 36  2  0  0  0  0
 37 38  1  0  0  0  0
 38 39  2  0  0  0  0
 39 40  1  0  0  0  0
 40 44  1  0  0  0  0
 41 40  2  0  0  0  0
 42 36  1  0  0  0  0
 43 38  1  0  0  0  0
M  END
>  <minimizedAffinity>
-5.49322033

$$$$

 OpenBabel03262522173D

 44 47  0  0  1  0  0  0  0  0999 V2000
   37.4790   28.0010   31.6000 C   0  0  0  0  0  0  0  0  0  0  0  0
   38.1220   28.5350   32.3030 H   0  0  0  0  0  0  0  0  0  0  0  0
   38.0260   27.9640   30.6310 H   0  0  0  0  0  0  0  0  0  0  0  0
   35.1870   30.5340   32.5560 C   0  0  1  0  0  0  0  0  0  0  0  0
   36.3390   30.2250   31.6280 C   0  0  0  0  0  0  0  0  0  0  0  0
   36.1630   28.7500   31.4240 C   0  0  2  0  0  0  0  0  0  0  0  0
   35.1930   28.3060   32.2870 O   0  0  0  0  0  0  0  0  0  0  0  0
   35.0760   29.2350   33.3180 C   0  0  0  0  0  0  0  0  0  0  0  0
   34.3050   30.7460   31.9430 H   0  0  0  0  0  0  0  0  0  0  0  0
   36.2570   30.8300   30.7190 H   0  0  0  0  0  0  0  0  0  0  0  0
   37.3190   30.4530   32.1230 H   0  0  0  0  0  0  0  0  0  0  0  0
   35.8970   28.5920   30.3490 H   0  0  0  0  0  0  0  0  0  0  0  0
   34.0940   29.0860   33.7800 H   0  0  0  0  0  0  0  0  0  0  0  0
   35.9200   29.1630   34.0150 H   0  0  0  0  0  0  0  0  0  0  0  0
   35.4970   31.6110   33.3930 O   0  0  0  0  0  0  0  0  0  0  0  0
   35.0480   31.3430   34.6580 C   0  0  2  0  0  3  0  0  0  0  0  0
   33.8090   32.1500   35.0580 C   0  0  0  0  0  3  0  0  0  0  0  0
   33.9170   33.2080   34.8220 H   0  0  0  0  0  0  0  0  0  0  0  0
   33.9090   31.9740   36.5720 C   0  0  0  0  0  3  0  0  0  0  0  0
   33.3640   31.0370   36.8880 H   0  0  0  0  0  0  0  0  0  0  0  0
   35.2290   31.7550   36.8630 O   0  0  0  0  0  0  0  0  0  0  0  0
   35.9930   31.8560   35.7240 C   0  0  0  0  0  3  0  0  0  0  0  0
   36.9220   31.2670   35.8180 H   0  0  0  0  0  0  0  0  0  0  0  0
   37.0660   26.3110   32.1040 S   0  0  0  0  0  0  0  0  0  0  0  0
   38.1120   24.7840   35.6090 C   0  0  0  0  0  0  0  0  0  0  0  0
   38.4000   25.9030   36.4040 C   0  0  0  0  0  0  0  0  0  0  0  0
   38.2840   27.1760   35.8900 C   0  0  0  0  0  0  0  0  0  0  0  0
   37.8790   27.2770   34.5880 C   0  0  0  0  0  0  0  0  0  0  0  0
   37.6030   26.1700   33.8320 C   0  0  0  0  0  0  0  0  0  0  0  0
   37.7140   24.9170   34.3260 N   0  0  0  0  0  0  0  0  0  0  0  0
   38.7210   25.7890   37.4400 H   0  0  0  0  0  0  0  0  0  0  0  0
   38.4900   28.0760   36.4440 H   0  0  0  0  0  0  0  0  0  0  0  0
   37.7540   28.2400   34.0810 H   0  0  0  0  0  0  0  0  0  0  0  0
   38.2580   23.4830   36.2220 C   0  0  0  0  0  0  0  0  0  0  0  0
   37.2910   22.9120   36.7440 O   0  0  0  0  0  0  0  0  0  0  0  0
   40.0960   22.4760   37.5150 C   0  0  0  0  0  0  0  0  0  0  0  0
   39.5440   22.7700   36.2630 C   0  0  0  0  0  0  0  0  0  0  0  0
   40.2190   22.3840   35.1010 C   0  0  0  0  0  0  0  0  0  0  0  0
   41.4140   21.7220   35.2280 N   0  0  0  0  0  0  0  0  0  0  0  0
   41.9230   21.4520   36.4570 C   0  0  0  0  0  0  0  0  0  0  0  0
   41.2800   21.8190   37.5720 N   0  0  0  0  0  0  0  0  0  0  0  0
   39.5720   22.7750   38.4080 H   0  0  0  0  0  0  0  0  0  0  0  0
   39.7510   22.6340   34.1800 H   0  0  0  0  0  0  0  0  0  0  0  0
   42.8720   20.9260   36.5470 H   0  0  0  0  0  0  0  0  0  0  0  0
  1 24  1  0  0  0  0
  1  2  1  0  0  0  0
  3  1  1  0  0  0  0
  4  9  1  6  0  0  0
  4  8  1  0  0  0  0
  4 15  1  0  0  0  0
  5 11  1  0  0  0  0
  5  4  1  0  0  0  0
  6 12  1  6  0  0  0
  6  1  1  0  0  0  0
  6  5  1  0  0  0  0
  6  7  1  0  0  0  0
  7  8  1  0  0  0  0
  8 13  1  0  0  0  0
  8 14  1  0  0  0  0
 10  5  1  0  0  0  0
 16 15  1  6  0  0  0
 16 17  1  0  0  0  0
 16 22  1  0  0  0  0
 17 19  1  0  0  0  0
 18 17  1  0  0  0  0
 19 21  1  0  0  0  0
 19 20  1  0  0  0  0
 22 23  1  0  0  0  0
 22 21  1  0  0  0  0
 24 29  1  0  0  0  0
 25 34  1  0  0  0  0
 25 26  1  0  0  0  0
 26 31  1  0  0  0  0
 27 26  2  0  0  0  0
 27 32  1  0  0  0  0
 28 27  1  0  0  0  0
 29 30  1  0  0  0  0
 29 28  2  0  0  0  0
 30 25  2  0  0  0  0
 33 28  1  0  0  0  0
 34 37  1  0  0  0  0
 34 35  2  0  0  0  0
 36 41  1  0  0  0  0
 36 42  1  0  0  0  0
 37 36  2  0  0  0  0
 38 39  2  0  0  0  0
 38 37  1  0  0  0  0
 39 40  1  0  0  0  0
 40 44  1  0  0  0  0
 40 41  2  0  0  0  0
 43 38  1  0  0  0  0
M  END
>  <minimizedAffinity>
-5.48627281

$$$$

 OpenBabel03262522173D

 44 47  0  0  1  0  0  0  0  0999 V2000
   35.8860   27.5690   31.5890 C   0  0  0  0  0  0  0  0  0  0  0  0
   35.0640   27.7060   30.8820 H   0  0  0  0  0  0  0  0  0  0  0  0
   35.5450   26.8150   32.3340 H   0  0  0  0  0  0  0  0  0  0  0  0
   35.0510   30.1480   33.8760 C   0  0  1  0  0  0  0  0  0  0  0  0
   35.8020   28.8450   33.7360 C   0  0  0  0  0  0  0  0  0  0  0  0
   36.1950   28.8870   32.2900 C   0  0  2  0  0  0  0  0  0  0  0  0
   35.5610   29.9510   31.7000 O   0  0  0  0  0  0  0  0  0  0  0  0
   34.4670   30.2930   32.4910 C   0  0  0  0  0  0  0  0  0  0  0  0
   35.7750   30.9340   34.1180 H   0  0  0  0  0  0  0  0  0  0  0  0
   36.6390   28.8210   34.4420 H   0  0  0  0  0  0  0  0  0  0  0  0
   35.1280   27.9740   33.9500 H   0  0  0  0  0  0  0  0  0  0  0  0
   37.3100   28.9660   32.2500 H   0  0  0  0  0  0  0  0  0  0  0  0
   34.1950   31.3250   32.2400 H   0  0  0  0  0  0  0  0  0  0  0  0
   33.6510   29.5690   32.3760 H   0  0  0  0  0  0  0  0  0  0  0  0
   34.0590   30.0490   34.8580 O   0  0  0  0  0  0  0  0  0  0  0  0
   33.9640   31.2400   35.5260 C   0  0  2  0  0  3  0  0  0  0  0  0
   35.2800   31.6970   36.1650 C   0  0  0  0  0  3  0  0  0  0  0  0
   35.7650   30.8950   36.7210 H   0  0  0  0  0  0  0  0  0  0  0  0
   34.7040   32.7020   37.1610 C   0  0  0  0  0  3  0  0  0  0  0  0
   34.6200   33.7190   36.6770 H   0  0  0  0  0  0  0  0  0  0  0  0
   33.4210   32.3080   37.4300 O   0  0  0  0  0  0  0  0  0  0  0  0
   33.1390   31.1250   36.7900 C   0  0  0  0  0  3  0  0  0  0  0  0
   32.0550   31.0220   36.6080 H   0  0  0  0  0  0  0  0  0  0  0  0
   37.4290   26.9910   30.8360 S   0  0  0  0  0  0  0  0  0  0  0  0
   38.9130   24.9170   33.8710 C   0  0  0  0  0  0  0  0  0  0  0  0
   40.0260   25.6600   34.2900 C   0  0  0  0  0  0  0  0  0  0  0  0
   40.3650   26.8340   33.6520 C   0  0  0  0  0  0  0  0  0  0  0  0
   39.5660   27.2180   32.6100 C   0  0  0  0  0  0  0  0  0  0  0  0
   38.4850   26.4750   32.2200 C   0  0  0  0  0  0  0  0  0  0  0  0
   38.1440   25.3230   32.8390 N   0  0  0  0  0  0  0  0  0  0  0  0
   40.6430   25.3270   35.1250 H   0  0  0  0  0  0  0  0  0  0  0  0
   41.2040   27.4500   33.9220 H   0  0  0  0  0  0  0  0  0  0  0  0
   39.7460   28.1330   32.0350 H   0  0  0  0  0  0  0  0  0  0  0  0
   38.6240   23.6970   34.5920 C   0  0  0  0  0  0  0  0  0  0  0  0
   38.2910   22.6660   33.9920 O   0  0  0  0  0  0  0  0  0  0  0  0
   37.7280   24.2640   36.8140 C   0  0  0  0  0  0  0  0  0  0  0  0
   38.7060   23.6080   36.0570 C   0  0  0  0  0  0  0  0  0  0  0  0
   39.7200   22.8960   36.7050 C   0  0  0  0  0  0  0  0  0  0  0  0
   39.7240   22.8640   38.0770 N   0  0  0  0  0  0  0  0  0  0  0  0
   38.7610   23.5110   38.7820 C   0  0  0  0  0  0  0  0  0  0  0  0
   37.7880   24.1930   38.1660 N   0  0  0  0  0  0  0  0  0  0  0  0
   36.9480   24.8110   36.3110 H   0  0  0  0  0  0  0  0  0  0  0  0
   40.4340   22.4190   36.0780 H   0  0  0  0  0  0  0  0  0  0  0  0
   38.7720   23.4790   39.8700 H   0  0  0  0  0  0  0  0  0  0  0  0
  1  6  1  0  0  0  0
  1  3  1  0  0  0  0
  2  1  1  0  0  0  0
  4  9  1  1  0  0  0
  4 15  1  0  0  0  0
  5  4  1  0  0  0  0
  5 11  1  0  0  0  0
  5 10  1  0  0  0  0
  6 12  1  6  0  0  0
  6  5  1  0  0  0  0
  7  6  1  0  0  0  0
  7  8  1  0  0  0  0
  8  4  1  0  0  0  0
 13  8  1  0  0  0  0
 14  8  1  0  0  0  0
 16 15  1  1  0  0  0
 16 17  1  0  0  0  0
 16 22  1  0  0  0  0
 17 18  1  0  0  0  0
 17 19  1  0  0  0  0
 19 21  1  0  0  0  0
 20 19  1  0  0  0  0
 22 21  1  0  0  0  0
 23 22  1  0  0  0  0
 24  1  1  0  0  0  0
 24 29  1  0  0  0  0
 25 26  1  0  0  0  0
 25 34  1  0  0  0  0
 26 31  1  0  0  0  0
 27 32  1  0  0  0  0
 27 26  2  0  0  0  0
 28 27  1  0  0  0  0
 29 28  2  0  0  0  0
 29 30  1  0  0  0  0
 30 25  2  0  0  0  0
 33 28  1  0  0  0  0
 34 37  1  0  0  0  0
 35 34  2  0  0  0  0
 36 41  1  0  0  0  0
 37 38  1  0  0  0  0
 37 36  2  0  0  0  0
 38 39  2  0  0  0  0
 39 40  1  0  0  0  0
 40 44  1  0  0  0  0
 41 40  2  0  0  0  0
 42 36  1  0  0  0  0
 43 38  1  0  0  0  0
M  END
>  <minimizedAffinity>
-5.47043419

$$$$

 OpenBabel03262522173D

 44 47  0  0  1  0  0  0  0  0999 V2000
   36.6090   25.8200   31.9270 C   0  0  0  0  0  0  0  0  0  0  0  0
   36.9280   25.8000   32.9710 H   0  0  0  0  0  0  0  0  0  0  0  0
   35.5220   26.0600   31.9280 H   0  0  0  0  0  0  0  0  0  0  0  0
   36.0320   22.3240   31.7590 C   0  0  1  0  0  0  0  0  0  0  0  0
   35.5690   23.6590   31.2240 C   0  0  0  0  0  0  0  0  0  0  0  0
   36.8380   24.4560   31.2860 C   0  0  2  0  0  0  0  0  0  0  0  0
   37.7800   23.7170   31.9580 O   0  0  0  0  0  0  0  0  0  0  0  0
   37.1140   22.7590   32.7190 C   0  0  0  0  0  0  0  0  0  0  0  0
   36.4170   21.7350   30.9200 H   0  0  0  0  0  0  0  0  0  0  0  0
   35.1530   23.5310   30.2190 H   0  0  0  0  0  0  0  0  0  0  0  0
   34.7790   24.0990   31.8860 H   0  0  0  0  0  0  0  0  0  0  0  0
   37.1360   24.6900   30.2340 H   0  0  0  0  0  0  0  0  0  0  0  0
   37.8360   21.9670   32.9470 H   0  0  0  0  0  0  0  0  0  0  0  0
   36.6410   23.2100   33.6000 H   0  0  0  0  0  0  0  0  0  0  0  0
   34.9870   21.6590   32.4100 O   0  0  0  0  0  0  0  0  0  0  0  0
   34.9860   20.3430   32.0350 C   0  0  2  0  0  3  0  0  0  0  0  0
   35.4820   19.3880   33.1260 C   0  0  0  0  0  3  0  0  0  0  0  0
   36.4080   19.7350   33.5820 H   0  0  0  0  0  0  0  0  0  0  0  0
   35.7940   18.1840   32.2400 C   0  0  0  0  0  3  0  0  0  0  0  0
   34.8750   17.5360   32.1320 H   0  0  0  0  0  0  0  0  0  0  0  0
   36.0610   18.6670   30.9870 O   0  0  0  0  0  0  0  0  0  0  0  0
   36.0380   20.0420   30.9890 C   0  0  0  0  0  3  0  0  0  0  0  0
   35.7970   20.4350   29.9870 H   0  0  0  0  0  0  0  0  0  0  0  0
   37.4770   27.0390   30.9060 S   0  0  0  0  0  0  0  0  0  0  0  0
   34.9790   29.7790   32.3080 C   0  0  0  0  0  0  0  0  0  0  0  0
   35.1600   30.8820   31.4600 C   0  0  0  0  0  0  0  0  0  0  0  0
   36.0620   30.8250   30.4190 C   0  0  0  0  0  0  0  0  0  0  0  0
   36.7520   29.6530   30.2700 C   0  0  0  0  0  0  0  0  0  0  0  0
   36.5570   28.5910   31.1100 C   0  0  0  0  0  0  0  0  0  0  0  0
   35.6750   28.6360   32.1330 N   0  0  0  0  0  0  0  0  0  0  0  0
   34.5940   31.8020   31.6060 H   0  0  0  0  0  0  0  0  0  0  0  0
   36.2500   31.6330   29.7340 H   0  0  0  0  0  0  0  0  0  0  0  0
   37.4920   29.5020   29.4770 H   0  0  0  0  0  0  0  0  0  0  0  0
   34.0140   29.9180   33.3750 C   0  0  0  0  0  0  0  0  0  0  0  0
   32.8850   29.4200   33.2820 O   0  0  0  0  0  0  0  0  0  0  0  0
   33.2350   31.0770   35.4040 C   0  0  0  0  0  0  0  0  0  0  0  0
   34.3110   30.6490   34.6160 C   0  0  0  0  0  0  0  0  0  0  0  0
   35.6200   30.9240   35.0240 C   0  0  0  0  0  0  0  0  0  0  0  0
   35.8090   31.6120   36.1970 N   0  0  0  0  0  0  0  0  0  0  0  0
   34.7440   32.0130   36.9380 C   0  0  0  0  0  0  0  0  0  0  0  0
   33.4900   31.7510   36.5510 N   0  0  0  0  0  0  0  0  0  0  0  0
   32.2290   30.8620   35.0850 H   0  0  0  0  0  0  0  0  0  0  0  0
   36.3950   30.5750   34.3870 H   0  0  0  0  0  0  0  0  0  0  0  0
   34.9040   32.5580   37.8660 H   0  0  0  0  0  0  0  0  0  0  0  0
  1  3  1  0  0  0  0
  1  2  1  0  0  0  0
  4  9  1  6  0  0  0
  4 15  1  0  0  0  0
  4  8  1  0  0  0  0
  5  6  1  0  0  0  0
  5  4  1  0  0  0  0
  5 11  1  0  0  0  0
  6 12  1  6  0  0  0
  6  1  1  0  0  0  0
  6  7  1  0  0  0  0
  7  8  1  0  0  0  0
  8 13  1  0  0  0  0
  8 14  1  0  0  0  0
 10  5  1  0  0  0  0
 16 15  1  1  0  0  0
 16 17  1  0  0  0  0
 17 18  1  0  0  0  0
 19 17  1  0  0  0  0
 20 19  1  0  0  0  0
 21 22  1  0  0  0  0
 21 19  1  0  0  0  0
 22 16  1  0  0  0  0
 23 22  1  0  0  0  0
 24 29  1  0  0  0  0
 24  1  1  0  0  0  0
 25 34  1  0  0  0  0
 26 31  1  0  0  0  0
 26 25  2  0  0  0  0
 27 26  1  0  0  0  0
 28 27  2  0  0  0  0
 28 29  1  0  0  0  0
 29 30  2  0  0  0  0
 30 25  1  0  0  0  0
 32 27  1  0  0  0  0
 33 28  1  0  0  0  0
 34 37  1  0  0  0  0
 35 34  2  0  0  0  0
 36 41  1  0  0  0  0
 37 38  1  0  0  0  0
 37 36  2  0  0  0  0
 38 39  2  0  0  0  0
 39 40  1  0  0  0  0
 40 44  1  0  0  0  0
 41 40  2  0  0  0  0
 42 36  1  0  0  0  0
 43 38  1  0  0  0  0
M  END
>  <minimizedAffinity>
-5.37347746

$$$$

 OpenBabel03262522173D

 44 47  0  0  1  0  0  0  0  0999 V2000
   36.3510   28.4490   32.9780 C   0  0  0  0  0  0  0  0  0  0  0  0
   36.3080   28.0230   33.9830 H   0  0  0  0  0  0  0  0  0  0  0  0
   37.4020   28.7790   32.8140 H   0  0  0  0  0  0  0  0  0  0  0  0
   33.9550   30.6510   34.3910 C   0  0  1  0  0  0  0  0  0  0  0  0
   35.4320   30.4660   34.1340 C   0  0  0  0  0  0  0  0  0  0  0  0
   35.4110   29.6460   32.8790 C   0  0  2  0  0  0  0  0  0  0  0  0
   34.1150   29.2700   32.6290 O   0  0  0  0  0  0  0  0  0  0  0  0
   33.4020   29.3660   33.8220 C   0  0  0  0  0  0  0  0  0  0  0  0
   33.6220   31.5380   33.8420 H   0  0  0  0  0  0  0  0  0  0  0  0
   35.9180   31.4430   34.0390 H   0  0  0  0  0  0  0  0  0  0  0  0
   35.9140   29.9060   34.9780 H   0  0  0  0  0  0  0  0  0  0  0  0
   35.8490   30.2740   32.0630 H   0  0  0  0  0  0  0  0  0  0  0  0
   32.3390   29.4290   33.5600 H   0  0  0  0  0  0  0  0  0  0  0  0
   33.6520   28.5430   34.5020 H   0  0  0  0  0  0  0  0  0  0  0  0
   33.6990   30.7730   35.7600 O   0  0  0  0  0  0  0  0  0  0  0  0
   33.5940   32.0990   36.0840 C   0  0  2  0  0  3  0  0  0  0  0  0
   34.6090   32.5610   37.1340 C   0  0  0  0  0  3  0  0  0  0  0  0
   34.6570   31.8820   37.9840 H   0  0  0  0  0  0  0  0  0  0  0  0
   33.9060   33.8440   37.5710 C   0  0  0  0  0  3  0  0  0  0  0  0
   34.2330   34.7060   36.9180 H   0  0  0  0  0  0  0  0  0  0  0  0
   32.5710   33.6730   37.3240 O   0  0  0  0  0  0  0  0  0  0  0  0
   32.3290   32.4020   36.8590 C   0  0  0  0  0  3  0  0  0  0  0  0
   31.4110   32.3720   36.2460 H   0  0  0  0  0  0  0  0  0  0  0  0
   35.8870   27.2980   31.6590 S   0  0  0  0  0  0  0  0  0  0  0  0
   38.1120   24.5270   33.4150 C   0  0  0  0  0  0  0  0  0  0  0  0
   37.6050   23.3140   32.9280 C   0  0  0  0  0  0  0  0  0  0  0  0
   36.5550   23.3000   32.0360 C   0  0  0  0  0  0  0  0  0  0  0  0
   36.0500   24.5160   31.6660 C   0  0  0  0  0  0  0  0  0  0  0  0
   36.5620   25.6870   32.1550 C   0  0  0  0  0  0  0  0  0  0  0  0
   37.5920   25.7120   33.0290 N   0  0  0  0  0  0  0  0  0  0  0  0
   38.0300   22.3600   33.2430 H   0  0  0  0  0  0  0  0  0  0  0  0
   36.1190   22.4060   31.6250 H   0  0  0  0  0  0  0  0  0  0  0  0
   35.2160   24.6200   30.9630 H   0  0  0  0  0  0  0  0  0  0  0  0
   39.2150   24.4560   34.3460 C   0  0  0  0  0  0  0  0  0  0  0  0
   40.3680   24.7380   33.9920 O   0  0  0  0  0  0  0  0  0  0  0  0
   37.9530   24.5790   36.4570 C   0  0  0  0  0  0  0  0  0  0  0  0
   39.0390   24.0510   35.7490 C   0  0  0  0  0  0  0  0  0  0  0  0
   39.9160   23.1650   36.3840 C   0  0  0  0  0  0  0  0  0  0  0  0
   39.6790   22.8390   37.6960 N   0  0  0  0  0  0  0  0  0  0  0  0
   38.6170   23.3680   38.3560 C   0  0  0  0  0  0  0  0  0  0  0  0
   37.7750   24.2160   37.7510 N   0  0  0  0  0  0  0  0  0  0  0  0
   37.2810   25.2600   35.9630 H   0  0  0  0  0  0  0  0  0  0  0  0
   40.7210   22.7970   35.7960 H   0  0  0  0  0  0  0  0  0  0  0  0
   38.4380   23.1040   39.3960 H   0  0  0  0  0  0  0  0  0  0  0  0
  1  2  1  0  0  0  0
  3  1  1  0  0  0  0
  4  9  1  6  0  0  0
  4 15  1  0  0  0  0
  5  4  1  0  0  0  0
  5 11  1  0  0  0  0
  6 12  1  6  0  0  0
  6  1  1  0  0  0  0
  6  5  1  0  0  0  0
  7  6  1  0  0  0  0
  7  8  1  0  0  0  0
  8  4  1  0  0  0  0
  8 14  1  0  0  0  0
 10  5  1  0  0  0  0
 13  8  1  0  0  0  0
 16 15  1  1  0  0  0
 16 22  1  0  0  0  0
 16 17  1  0  0  0  0
 17 19  1  0  0  0  0
 17 18  1  0  0  0  0
 20 19  1  0  0  0  0
 21 19  1  0  0  0  0
 22 21  1  0  0  0  0
 23 22  1  0  0  0  0
 24 29  1  0  0  0  0
 24  1  1  0  0  0  0
 25 34  1  0  0  0  0
 26 31  1  0  0  0  0
 26 25  2  0  0  0  0
 27 26  1  0  0  0  0
 28 27  2  0  0  0  0
 28 29  1  0  0  0  0
 29 30  2  0  0  0  0
 30 25  1  0  0  0  0
 32 27  1  0  0  0  0
 33 28  1  0  0  0  0
 34 37  1  0  0  0  0
 35 34  2  0  0  0  0
 36 41  1  0  0  0  0
 37 38  1  0  0  0  0
 37 36  2  0  0  0  0
 38 39  2  0  0  0  0
 39 40  1  0  0  0  0
 40 44  1  0  0  0  0
 41 40  2  0  0  0  0
 42 36  1  0  0  0  0
 43 38  1  0  0  0  0
M  END
>  <minimizedAffinity>
-5.36538315

$$$$

 OpenBabel03262522173D

 44 47  0  0  1  0  0  0  0  0999 V2000
   37.1440   27.2170   30.7490 C   0  0  0  0  0  0  0  0  0  0  0  0
   38.1180   26.7250   30.8020 H   0  0  0  0  0  0  0  0  0  0  0  0
   37.0190   27.5690   29.7000 H   0  0  0  0  0  0  0  0  0  0  0  0
   35.3720   29.6390   32.6400 C   0  0  1  0  0  0  0  0  0  0  0  0
   36.0070   28.2700   32.7100 C   0  0  0  0  0  0  0  0  0  0  0  0
   37.1090   28.4060   31.7020 C   0  0  2  0  0  0  0  0  0  0  0  0
   36.9460   29.5980   31.0410 O   0  0  0  0  0  0  0  0  0  0  0  0
   35.6200   29.9970   31.1940 C   0  0  0  0  0  0  0  0  0  0  0  0
   35.9010   30.2960   33.3390 H   0  0  0  0  0  0  0  0  0  0  0  0
   36.3400   28.0670   33.7330 H   0  0  0  0  0  0  0  0  0  0  0  0
   35.2740   27.4770   32.4080 H   0  0  0  0  0  0  0  0  0  0  0  0
   38.0780   28.3440   32.2570 H   0  0  0  0  0  0  0  0  0  0  0  0
   35.5820   31.0750   31.0010 H   0  0  0  0  0  0  0  0  0  0  0  0
   34.9500   29.4000   30.5640 H   0  0  0  0  0  0  0  0  0  0  0  0
   34.0070   29.5710   32.9380 O   0  0  0  0  0  0  0  0  0  0  0  0
   33.8350   29.6720   34.2930 C   0  0  2  0  0  3  0  0  0  0  0  0
   32.3670   29.6760   34.7300 C   0  0  0  0  0  3  0  0  0  0  0  0
   31.7650   30.3640   34.1370 H   0  0  0  0  0  0  0  0  0  0  0  0
   32.5540   30.2680   36.1260 C   0  0  0  0  0  3  0  0  0  0  0  0
   32.7430   29.4420   36.8730 H   0  0  0  0  0  0  0  0  0  0  0  0
   33.7010   31.0150   36.0930 O   0  0  0  0  0  0  0  0  0  0  0  0
   34.2210   31.0370   34.8210 C   0  0  0  0  0  3  0  0  0  0  0  0
   35.3100   31.2160   34.8420 H   0  0  0  0  0  0  0  0  0  0  0  0
   35.7440   26.1500   31.1780 S   0  0  0  0  0  0  0  0  0  0  0  0
   38.0320   23.8360   33.4420 C   0  0  0  0  0  0  0  0  0  0  0  0
   37.5870   22.5340   33.1710 C   0  0  0  0  0  0  0  0  0  0  0  0
   36.5610   22.3160   32.2770 C   0  0  0  0  0  0  0  0  0  0  0  0
   36.0180   23.4240   31.6860 C   0  0  0  0  0  0  0  0  0  0  0  0
   36.4700   24.6850   31.9670 C   0  0  0  0  0  0  0  0  0  0  0  0
   37.4750   24.9090   32.8420 N   0  0  0  0  0  0  0  0  0  0  0  0
   38.0410   21.6710   33.6590 H   0  0  0  0  0  0  0  0  0  0  0  0
   36.1720   21.3460   32.0240 H   0  0  0  0  0  0  0  0  0  0  0  0
   35.1990   23.3640   30.9610 H   0  0  0  0  0  0  0  0  0  0  0  0
   39.1120   23.9800   34.3920 C   0  0  0  0  0  0  0  0  0  0  0  0
   40.2590   24.2590   34.0150 O   0  0  0  0  0  0  0  0  0  0  0  0
   39.8560   23.0400   36.5430 C   0  0  0  0  0  0  0  0  0  0  0  0
   38.9200   23.8070   35.8390 C   0  0  0  0  0  0  0  0  0  0  0  0
   37.8410   24.3790   36.5210 C   0  0  0  0  0  0  0  0  0  0  0  0
   37.7350   24.1680   37.8730 N   0  0  0  0  0  0  0  0  0  0  0  0
   38.6600   23.4190   38.5270 C   0  0  0  0  0  0  0  0  0  0  0  0
   39.6940   22.8700   37.8770 N   0  0  0  0  0  0  0  0  0  0  0  0
   40.6850   22.6010   36.0130 H   0  0  0  0  0  0  0  0  0  0  0  0
   37.1630   24.9500   35.9350 H   0  0  0  0  0  0  0  0  0  0  0  0
   38.5670   23.2570   39.5980 H   0  0  0  0  0  0  0  0  0  0  0  0
  1  2  1  0  0  0  0
  1 24  1  0  0  0  0
  1  6  1  0  0  0  0
  3  1  1  0  0  0  0
  4  5  1  0  0  0  0
  4 15  1  0  0  0  0
  4  9  1  1  0  0  0
  5 10  1  0  0  0  0
  6 12  1  1  0  0  0
  6  5  1  0  0  0  0
  7  8  1  0  0  0  0
  7  6  1  0  0  0  0
  8  4  1  0  0  0  0
 11  5  1  0  0  0  0
 13  8  1  0  0  0  0
 14  8  1  0  0  0  0
 16 15  1  6  0  0  0
 16 17  1  0  0  0  0
 16 22  1  0  0  0  0
 17 19  1  0  0  0  0
 18 17  1  0  0  0  0
 19 20  1  0  0  0  0
 21 19  1  0  0  0  0
 22 23  1  0  0  0  0
 22 21  1  0  0  0  0
 24 29  1  0  0  0  0
 25 34  1  0  0  0  0
 26 25  1  0  0  0  0
 26 31  1  0  0  0  0
 27 26  2  0  0  0  0
 28 29  2  0  0  0  0
 28 27  1  0  0  0  0
 29 30  1  0  0  0  0
 30 25  2  0  0  0  0
 32 27  1  0  0  0  0
 33 28  1  0  0  0  0
 34 37  1  0  0  0  0
 35 34  2  0  0  0  0
 36 41  1  0  0  0  0
 37 38  1  0  0  0  0
 37 36  2  0  0  0  0
 38 39  2  0  0  0  0
 39 40  1  0  0  0  0
 40 44  1  0  0  0  0
 41 40  2  0  0  0  0
 42 36  1  0  0  0  0
 43 38  1  0  0  0  0
M  END
>  <minimizedAffinity>
-5.31120729

$$$$
