
 OpenBabel03272506153D

 27 29  0  0  1  0  0  0  0  0999 V2000
   33.9960   29.2510   45.2540 C   0  0  0  0  0  0  0  0  0  0  0  0
   32.6610   28.7780   45.3140 C   0  0  0  0  0  0  0  0  0  0  0  0
   32.1100   28.5100   46.5860 C   0  0  0  0  0  0  0  0  0  0  0  0
   32.8980   28.7260   47.6650 N   0  0  0  0  0  0  0  0  0  0  0  0
   34.1610   29.1770   47.5600 C   0  0  0  0  0  0  0  0  0  0  0  0
   34.7210   29.4430   46.3700 N   0  0  0  0  0  0  0  0  0  0  0  0
   34.9870   29.4030   48.6990 N   0  0  0  0  0  0  0  0  0  0  0  0
   34.7160   28.7410   49.8420 C   0  0  0  0  0  0  0  0  0  0  0  0
   35.5590   29.0140   50.8930 C   0  0  0  0  0  0  0  0  0  0  0  0
   36.6230   29.8990   50.8270 C   0  0  0  0  0  0  0  0  0  0  0  0
   37.3690   30.1250   51.8010 O   0  0  0  0  0  0  0  0  0  0  0  0
   36.8570   30.5500   49.6400 N   0  0  0  0  0  0  0  0  0  0  0  0
   36.0190   30.2650   48.6290 C   0  0  0  0  0  0  0  0  0  0  0  0
   36.2010   30.8450   47.5140 O   0  0  0  0  0  0  0  0  0  0  0  0
   34.4470   29.4650   44.3010 H   0  0  0  0  0  0  0  0  0  0  0  0
   32.0880   28.6290   44.3960 H   0  0  0  0  0  0  0  0  0  0  0  0
   31.0950   28.1500   46.6500 H   0  0  0  0  0  0  0  0  0  0  0  0
   33.8930   28.0420   49.9280 H   0  0  0  0  0  0  0  0  0  0  0  0
   35.4120   28.5240   51.8510 H   0  0  0  0  0  0  0  0  0  0  0  0
   37.9360   31.4880   49.4700 C   0  0  1  0  0  3  0  0  0  0  0  0
   38.4640   31.5640   48.0520 C   0  0  0  0  0  3  0  0  0  0  0  0
   37.6550   31.6060   47.3040 H   0  0  0  0  0  0  0  0  0  0  0  0
   39.1340   32.9280   48.1170 C   0  0  0  0  0  3  0  0  0  0  0  0
   39.3430   33.3250   47.1020 H   0  0  0  0  0  0  0  0  0  0  0  0
   38.3050   33.7240   48.8670 O   0  0  0  0  0  0  0  0  0  0  0  0
   37.5280   32.9130   49.6770 C   0  0  0  0  0  3  0  0  0  0  0  0
   37.6890   33.2740   50.7110 H   0  0  0  0  0  0  0  0  0  0  0  0
  1  2  2  0  0  0  0
  1  6  1  0  0  0  0
  2  3  1  0  0  0  0
  3 17  1  0  0  0  0
  3  4  2  0  0  0  0
  5  4  1  0  0  0  0
  5  7  1  0  0  0  0
  6  5  2  0  0  0  0
  7  8  1  0  0  0  0
  8 18  1  0  0  0  0
  8  9  2  0  0  0  0
  9 19  1  0  0  0  0
 10  9  1  0  0  0  0
 10 11  2  0  0  0  0
 12 10  1  0  0  0  0
 13  7  1  0  0  0  0
 13 12  1  0  0  0  0
 14 13  2  0  0  0  0
 15  1  1  0  0  0  0
 16  2  1  0  0  0  0
 20 12  1  6  0  0  0
 20 26  1  0  0  0  0
 21 23  1  0  0  0  0
 21 20  1  0  0  0  0
 22 21  1  0  0  0  0
 23 25  1  0  0  0  0
 24 23  1  0  0  0  0
 25 26  1  0  0  0  0
 26 27  1  0  0  0  0
M  END
>  <minimizedAffinity>
-5.65294743

>  <minimizedRMSD>
6.39599895

$$$$
