
 OpenBabel03272508083D

 23 24  0  0  1  0  0  0  0  0999 V2000
   39.1190   32.6370   48.0600 O   0  0  0  0  0  0  0  0  0  0  0  0
   38.6200   31.6560   47.0470 P   0  0  2  0  0  0  0  0  0  0  0  0
   37.5770   32.4460   45.9640 O   0  0  0  0  0  0  0  0  0  0  0  0
   37.1870   33.2290   46.4670 H   0  0  0  0  0  0  0  0  0  0  0  0
   37.8840   30.2800   47.7000 O   0  0  0  0  0  0  0  0  0  0  0  0
   37.3330   30.1840   51.3640 C   0  0  0  0  0  0  0  0  0  0  0  0
   37.9960   30.4870   50.1770 C   0  0  0  0  0  0  0  0  0  0  0  0
   37.4310   30.0990   48.9660 C   0  0  0  0  0  0  0  0  0  0  0  0
   36.2330   29.4270   49.0100 N   0  0  0  0  0  0  0  0  0  0  0  0
   35.6260   29.1530   50.1890 C   0  0  0  0  0  0  0  0  0  0  0  0
   36.1630   29.5240   51.3480 N   0  0  0  0  0  0  0  0  0  0  0  0
   37.9050   30.5550   52.2090 H   0  0  0  0  0  0  0  0  0  0  0  0
   38.9350   31.0090   50.0630 H   0  0  0  0  0  0  0  0  0  0  0  0
   34.6820   28.6250   50.2430 H   0  0  0  0  0  0  0  0  0  0  0  0
   39.9640   31.1500   46.1300 O   0  0  0  0  0  0  0  0  0  0  0  0
   39.5600   31.0510   44.8120 C   0  0  1  0  0  3  0  0  0  0  0  0
   40.5990   31.4040   43.8030 C   0  0  0  0  0  3  0  0  0  0  0  0
   41.6330   31.4900   44.2410 H   0  0  0  0  0  0  0  0  0  0  0  0
   40.5350   30.2340   42.8290 C   0  0  0  0  0  3  0  0  0  0  0  0
   41.2760   29.4480   43.0590 H   0  0  0  0  0  0  0  0  0  0  0  0
   39.2540   29.6990   43.0230 O   0  0  0  0  0  0  0  0  0  0  0  0
   39.1730   29.6400   44.4310 C   0  0  0  0  0  3  0  0  0  0  0  0
   38.1100   29.4030   44.6900 H   0  0  0  0  0  0  0  0  0  0  0  0
  2  5  1  0  0  0  0
  2  1  2  1  0  0  0
  3  4  1  0  0  0  0
  3  2  1  0  0  0  0
  5  8  1  0  0  0  0
  6 12  1  0  0  0  0
  7  6  2  0  0  0  0
  8  9  2  0  0  0  0
  8  7  1  0  0  0  0
  9 10  1  0  0  0  0
 10 14  1  0  0  0  0
 10 11  2  0  0  0  0
 11  6  1  0  0  0  0
 13  7  1  0  0  0  0
 15  2  1  0  0  0  0
 16 15  1  1  0  0  0
 17 18  1  0  0  0  0
 17 16  1  0  0  0  0
 19 21  1  0  0  0  0
 19 20  1  0  0  0  0
 19 17  1  0  0  0  0
 21 22  1  0  0  0  0
 22 23  1  0  0  0  0
 22 16  1  0  0  0  0
M  END
>  <minimizedAffinity>
-4.96443892

>  <minimizedRMSD>
0.498862475

$$$$
