
 OpenBabel03272504293D

 41 44  0  0  1  0  0  0  0  0999 V2000
   38.0750   25.7580   33.6160 C   0  0  0  0  0  0  0  0  0  0  0  0
   38.0120   26.9080   34.3220 C   0  0  0  0  0  0  0  0  0  0  0  0
   38.9630   27.2280   35.2080 C   0  0  0  0  0  0  0  0  0  0  0  0
   40.0060   26.3760   35.3960 N   0  0  0  0  0  0  0  0  0  0  0  0
   40.0580   25.2490   34.6970 C   0  0  0  0  0  0  0  0  0  0  0  0
   39.1080   24.9240   33.8070 N   0  0  0  0  0  0  0  0  0  0  0  0
   37.1620   27.5510   34.1350 H   0  0  0  0  0  0  0  0  0  0  0  0
   38.8900   28.1640   35.7680 H   0  0  0  0  0  0  0  0  0  0  0  0
   41.1510   23.4250   35.9250 C   0  0  0  0  0  0  0  0  0  0  0  0
   41.2170   24.4290   34.9560 C   0  0  0  0  0  0  0  0  0  0  0  0
   42.3470   24.7180   34.2180 C   0  0  0  0  0  0  0  0  0  0  0  0
   43.4980   23.9860   34.4340 C   0  0  0  0  0  0  0  0  0  0  0  0
   43.5240   22.9770   35.3730 C   0  0  0  0  0  0  0  0  0  0  0  0
   42.3670   22.7650   36.0470 C   0  0  0  0  0  0  0  0  0  0  0  0
   42.3530   25.5040   33.4760 H   0  0  0  0  0  0  0  0  0  0  0  0
   44.3830   24.2150   33.8550 H   0  0  0  0  0  0  0  0  0  0  0  0
   44.4050   22.3870   35.5670 H   0  0  0  0  0  0  0  0  0  0  0  0
   42.3920   21.9590   36.7960 H   0  0  0  0  0  0  0  0  0  0  0  0
   39.8000   23.0320   36.8180 S   0  0  0  0  0  0  0  0  0  0  0  0
   40.5400   22.1880   37.9070 O   0  0  0  0  0  0  0  0  0  0  0  0
   38.9710   22.0950   35.9790 O   0  0  0  0  0  0  0  0  0  0  0  0
   38.6840   23.3610   37.9100 C   0  0  0  0  0  0  0  0  0  0  0  0
   37.3480   22.9170   37.8680 F   0  0  0  0  0  0  0  0  0  0  0  0
   38.2140   24.7470   37.7300 F   0  0  0  0  0  0  0  0  0  0  0  0
   39.0350   23.7540   39.2380 F   0  0  0  0  0  0  0  0  0  0  0  0
   35.3820   25.9010   31.1270 C   0  0  0  0  0  0  0  0  0  0  0  0
   35.1740   24.5410   30.8250 C   0  0  0  0  0  0  0  0  0  0  0  0
   35.9660   23.6040   31.4900 C   0  0  0  0  0  0  0  0  0  0  0  0
   36.8850   24.0630   32.3810 N   0  0  0  0  0  0  0  0  0  0  0  0
   37.0600   25.3910   32.6460 C   0  0  0  0  0  0  0  0  0  0  0  0
   36.3050   26.2900   32.0140 N   0  0  0  0  0  0  0  0  0  0  0  0
   34.7320   26.5520   30.5730 H   0  0  0  0  0  0  0  0  0  0  0  0
   34.4380   24.1920   30.1150 H   0  0  0  0  0  0  0  0  0  0  0  0
   35.7880   22.1650   31.2120 C   0  0  1  0  0  3  0  0  0  0  0  0
   37.0580   21.4030   31.0360 C   0  0  0  0  0  3  0  0  0  0  0  0
   37.0970   20.7710   30.1180 H   0  0  0  0  0  0  0  0  0  0  0  0
   37.1120   20.4990   32.2410 C   0  0  0  0  0  3  0  0  0  0  0  0
   37.8870   20.8710   32.9420 H   0  0  0  0  0  0  0  0  0  0  0  0
   35.8420   20.4170   32.7810 O   0  0  0  0  0  0  0  0  0  0  0  0
   35.1510   21.5580   32.4340 C   0  0  0  0  0  3  0  0  0  0  0  0
   34.0900   21.2840   32.1640 H   0  0  0  0  0  0  0  0  0  0  0  0
  1  6  2  0  0  0  0
  1  2  1  0  0  0  0
  2  3  2  0  0  0  0
  3  4  1  0  0  0  0
  3  8  1  0  0  0  0
  5 10  1  0  0  0  0
  5  4  2  0  0  0  0
  6  5  1  0  0  0  0
  7  2  1  0  0  0  0
  9 14  1  0  0  0  0
  9 19  1  0  0  0  0
 10  9  2  0  0  0  0
 11 12  2  0  0  0  0
 11 10  1  0  0  0  0
 12 13  1  0  0  0  0
 13 17  1  0  0  0  0
 13 14  2  0  0  0  0
 14 18  1  0  0  0  0
 15 11  1  0  0  0  0
 16 12  1  0  0  0  0
 19 20  2  0  0  0  0
 19 22  1  0  0  0  0
 21 19  2  0  0  0  0
 22 25  1  0  0  0  0
 23 22  1  0  0  0  0
 24 22  1  0  0  0  0
 26 31  1  0  0  0  0
 27 26  2  0  0  0  0
 27 28  1  0  0  0  0
 28 29  2  0  0  0  0
 29 30  1  0  0  0  0
 30  1  1  0  0  0  0
 31 30  2  0  0  0  0
 32 26  1  0  0  0  0
 33 27  1  0  0  0  0
 34 28  1  1  0  0  0
 34 40  1  0  0  0  0
 35 34  1  0  0  0  0
 35 37  1  0  0  0  0
 36 35  1  0  0  0  0
 37 39  1  0  0  0  0
 37 38  1  0  0  0  0
 40 39  1  0  0  0  0
 41 40  1  0  0  0  0
M  END
>  <minimizedAffinity>
-6.99036264

$$$$

 OpenBabel03272504293D

 41 44  0  0  1  0  0  0  0  0999 V2000
   36.0760   28.2580   32.9570 C   0  0  0  0  0  0  0  0  0  0  0  0
   35.9230   28.8860   31.7710 C   0  0  0  0  0  0  0  0  0  0  0  0
   35.3600   30.0970   31.6970 C   0  0  0  0  0  0  0  0  0  0  0  0
   34.9370   30.7010   32.8400 N   0  0  0  0  0  0  0  0  0  0  0  0
   35.0920   30.0760   34.0010 C   0  0  0  0  0  0  0  0  0  0  0  0
   35.6570   28.8610   34.0790 N   0  0  0  0  0  0  0  0  0  0  0  0
   36.2780   28.3630   30.8910 H   0  0  0  0  0  0  0  0  0  0  0  0
   35.2470   30.5850   30.7260 H   0  0  0  0  0  0  0  0  0  0  0  0
   33.3290   30.6140   35.6230 C   0  0  0  0  0  0  0  0  0  0  0  0
   34.6290   30.8120   35.1520 C   0  0  0  0  0  0  0  0  0  0  0  0
   35.5260   31.7020   35.7080 C   0  0  0  0  0  0  0  0  0  0  0  0
   35.1380   32.4560   36.7980 C   0  0  0  0  0  0  0  0  0  0  0  0
   33.8730   32.3260   37.3280 C   0  0  0  0  0  0  0  0  0  0  0  0
   33.0620   31.4280   36.7160 C   0  0  0  0  0  0  0  0  0  0  0  0
   36.5240   31.8220   35.3110 H   0  0  0  0  0  0  0  0  0  0  0  0
   35.8430   33.1530   37.2330 H   0  0  0  0  0  0  0  0  0  0  0  0
   33.5380   32.8990   38.1780 H   0  0  0  0  0  0  0  0  0  0  0  0
   32.0530   31.3270   37.1420 H   0  0  0  0  0  0  0  0  0  0  0  0
   32.2280   29.5350   34.9920 S   0  0  0  0  0  0  0  0  0  0  0  0
   30.9590   30.4260   35.1990 O   0  0  0  0  0  0  0  0  0  0  0  0
   32.1480   28.3720   35.9480 O   0  0  0  0  0  0  0  0  0  0  0  0
   31.4720   28.8390   33.7710 C   0  0  0  0  0  0  0  0  0  0  0  0
   31.0340   27.5010   33.7400 F   0  0  0  0  0  0  0  0  0  0  0  0
   32.4410   28.5320   32.7040 F   0  0  0  0  0  0  0  0  0  0  0  0
   30.7780   29.6110   32.7890 F   0  0  0  0  0  0  0  0  0  0  0  0
   37.1630   24.8230   32.2590 C   0  0  0  0  0  0  0  0  0  0  0  0
   37.9120   24.5010   33.4090 C   0  0  0  0  0  0  0  0  0  0  0  0
   38.0230   25.4770   34.4000 C   0  0  0  0  0  0  0  0  0  0  0  0
   37.4050   26.6710   34.1930 N   0  0  0  0  0  0  0  0  0  0  0  0
   36.6890   26.9470   33.0640 C   0  0  0  0  0  0  0  0  0  0  0  0
   36.5790   26.0180   32.1140 N   0  0  0  0  0  0  0  0  0  0  0  0
   37.1290   24.0180   31.5500 H   0  0  0  0  0  0  0  0  0  0  0  0
   38.3970   23.5470   33.5590 H   0  0  0  0  0  0  0  0  0  0  0  0
   38.7960   25.1910   35.6260 C   0  0  1  0  0  3  0  0  0  0  0  0
   37.9660   24.9550   36.8430 C   0  0  0  0  0  3  0  0  0  0  0  0
   38.2700   25.5520   37.7350 H   0  0  0  0  0  0  0  0  0  0  0  0
   38.1760   23.4950   37.1510 C   0  0  0  0  0  3  0  0  0  0  0  0
   37.2570   22.9310   36.8900 H   0  0  0  0  0  0  0  0  0  0  0  0
   39.3150   23.0700   36.4930 O   0  0  0  0  0  0  0  0  0  0  0  0
   39.5110   23.8860   35.3990 C   0  0  0  0  0  3  0  0  0  0  0  0
   40.6110   24.1140   35.2960 H   0  0  0  0  0  0  0  0  0  0  0  0
  1 30  1  0  0  0  0
  1  6  1  0  0  0  0
  2  1  2  0  0  0  0
  3  2  1  0  0  0  0
  3  4  2  0  0  0  0
  4  5  1  0  0  0  0
  5  6  2  0  0  0  0
  5 10  1  0  0  0  0
  7  2  1  0  0  0  0
  8  3  1  0  0  0  0
  9 14  1  0  0  0  0
 10  9  2  0  0  0  0
 10 11  1  0  0  0  0
 11 12  2  0  0  0  0
 12 16  1  0  0  0  0
 12 13  1  0  0  0  0
 13 17  1  0  0  0  0
 14 18  1  0  0  0  0
 14 13  2  0  0  0  0
 15 11  1  0  0  0  0
 19 20  2  0  0  0  0
 19  9  1  0  0  0  0
 19 21  2  0  0  0  0
 22 19  1  0  0  0  0
 23 22  1  0  0  0  0
 24 22  1  0  0  0  0
 25 22  1  0  0  0  0
 26 27  1  0  0  0  0
 27 33  1  0  0  0  0
 27 28  2  0  0  0  0
 29 28  1  0  0  0  0
 30 29  2  0  0  0  0
 31 26  2  0  0  0  0
 31 30  1  0  0  0  0
 32 26  1  0  0  0  0
 34 28  1  6  0  0  0
 34 35  1  0  0  0  0
 35 37  1  0  0  0  0
 35 36  1  0  0  0  0
 38 37  1  0  0  0  0
 39 37  1  0  0  0  0
 40 34  1  0  0  0  0
 40 39  1  0  0  0  0
 41 40  1  0  0  0  0
M  END
>  <minimizedAffinity>
-6.74518347

$$$$

 OpenBabel03272504293D

 41 44  0  0  1  0  0  0  0  0999 V2000
   36.3020   28.3260   33.4880 C   0  0  0  0  0  0  0  0  0  0  0  0
   36.2640   28.8840   32.2590 C   0  0  0  0  0  0  0  0  0  0  0  0
   35.6950   30.0790   32.0590 C   0  0  0  0  0  0  0  0  0  0  0  0
   35.1470   30.7360   33.1160 N   0  0  0  0  0  0  0  0  0  0  0  0
   35.1900   30.1790   34.3210 C   0  0  0  0  0  0  0  0  0  0  0  0
   35.7600   28.9820   34.5260 N   0  0  0  0  0  0  0  0  0  0  0  0
   36.7150   28.3210   31.4520 H   0  0  0  0  0  0  0  0  0  0  0  0
   35.6760   30.5100   31.0550 H   0  0  0  0  0  0  0  0  0  0  0  0
   33.2540   30.7930   35.7000 C   0  0  0  0  0  0  0  0  0  0  0  0
   34.6010   30.9690   35.3750 C   0  0  0  0  0  0  0  0  0  0  0  0
   35.4320   31.8840   35.9890 C   0  0  0  0  0  0  0  0  0  0  0  0
   34.9240   32.6880   36.9900 C   0  0  0  0  0  0  0  0  0  0  0  0
   33.6040   32.5830   37.3750 C   0  0  0  0  0  0  0  0  0  0  0  0
   32.8660   31.6570   36.7160 C   0  0  0  0  0  0  0  0  0  0  0  0
   36.4700   31.9860   35.7060 H   0  0  0  0  0  0  0  0  0  0  0  0
   35.5770   33.4050   37.4710 H   0  0  0  0  0  0  0  0  0  0  0  0
   33.1760   33.1960   38.1520 H   0  0  0  0  0  0  0  0  0  0  0  0
   31.8140   31.5770   37.0260 H   0  0  0  0  0  0  0  0  0  0  0  0
   32.2270   29.6850   34.9970 S   0  0  0  0  0  0  0  0  0  0  0  0
   30.9090   30.5020   35.2010 O   0  0  0  0  0  0  0  0  0  0  0  0
   32.1820   28.4830   35.9050 O   0  0  0  0  0  0  0  0  0  0  0  0
   31.5420   29.0000   33.7290 C   0  0  0  0  0  0  0  0  0  0  0  0
   31.0800   27.6710   33.6710 F   0  0  0  0  0  0  0  0  0  0  0  0
   32.5750   28.6700   32.7310 F   0  0  0  0  0  0  0  0  0  0  0  0
   30.9330   29.7830   32.7000 F   0  0  0  0  0  0  0  0  0  0  0  0
   38.0550   25.5150   35.0670 C   0  0  0  0  0  0  0  0  0  0  0  0
   38.0450   24.5400   34.0500 C   0  0  0  0  0  0  0  0  0  0  0  0
   37.4340   24.8750   32.8410 C   0  0  0  0  0  0  0  0  0  0  0  0
   36.8900   26.1160   32.7230 N   0  0  0  0  0  0  0  0  0  0  0  0
   36.9180   27.0350   33.7330 C   0  0  0  0  0  0  0  0  0  0  0  0
   37.5000   26.7190   34.8890 N   0  0  0  0  0  0  0  0  0  0  0  0
   38.5430   25.1750   35.9610 H   0  0  0  0  0  0  0  0  0  0  0  0
   38.4820   23.5580   34.1580 H   0  0  0  0  0  0  0  0  0  0  0  0
   37.3960   23.8910   31.7410 C   0  0  1  0  0  3  0  0  0  0  0  0
   37.5420   22.4700   32.1720 C   0  0  0  0  0  3  0  0  0  0  0  0
   38.3130   21.8920   31.6100 H   0  0  0  0  0  0  0  0  0  0  0  0
   36.1920   21.8620   31.8930 C   0  0  0  0  0  3  0  0  0  0  0  0
   35.6630   21.6920   32.8530 H   0  0  0  0  0  0  0  0  0  0  0  0
   35.5210   22.6820   31.0050 O   0  0  0  0  0  0  0  0  0  0  0  0
   36.0180   23.9610   31.1370 C   0  0  0  0  0  3  0  0  0  0  0  0
   36.1180   24.4290   30.1150 H   0  0  0  0  0  0  0  0  0  0  0  0
  1 30  1  0  0  0  0
  1  6  1  0  0  0  0
  2  1  2  0  0  0  0
  3  2  1  0  0  0  0
  3  4  2  0  0  0  0
  4  5  1  0  0  0  0
  5  6  2  0  0  0  0
  5 10  1  0  0  0  0
  7  2  1  0  0  0  0
  8  3  1  0  0  0  0
  9 14  1  0  0  0  0
 10  9  2  0  0  0  0
 10 11  1  0  0  0  0
 11 12  2  0  0  0  0
 12 13  1  0  0  0  0
 12 16  1  0  0  0  0
 13 17  1  0  0  0  0
 14 18  1  0  0  0  0
 14 13  2  0  0  0  0
 15 11  1  0  0  0  0
 19 20  2  0  0  0  0
 19  9  1  0  0  0  0
 19 21  2  0  0  0  0
 22 19  1  0  0  0  0
 23 22  1  0  0  0  0
 24 22  1  0  0  0  0
 25 22  1  0  0  0  0
 26 32  1  0  0  0  0
 27 33  1  0  0  0  0
 27 26  2  0  0  0  0
 28 27  1  0  0  0  0
 29 28  2  0  0  0  0
 29 30  1  0  0  0  0
 30 31  2  0  0  0  0
 31 26  1  0  0  0  0
 34 35  1  0  0  0  0
 34 28  1  1  0  0  0
 36 35  1  0  0  0  0
 37 35  1  0  0  0  0
 37 38  1  0  0  0  0
 39 40  1  0  0  0  0
 39 37  1  0  0  0  0
 40 34  1  0  0  0  0
 41 40  1  0  0  0  0
M  END
>  <minimizedAffinity>
-6.53520346

$$$$

 OpenBabel03272504293D

 41 44  0  0  1  0  0  0  0  0999 V2000
   34.9450   29.3910   32.3340 C   0  0  0  0  0  0  0  0  0  0  0  0
   35.6580   29.6860   31.2260 C   0  0  0  0  0  0  0  0  0  0  0  0
   36.8810   29.1780   31.0360 C   0  0  0  0  0  0  0  0  0  0  0  0
   37.4090   28.3520   31.9790 N   0  0  0  0  0  0  0  0  0  0  0  0
   36.6990   28.0690   33.0650 C   0  0  0  0  0  0  0  0  0  0  0  0
   35.4720   28.5750   33.2590 N   0  0  0  0  0  0  0  0  0  0  0  0
   35.1920   30.3460   30.5060 H   0  0  0  0  0  0  0  0  0  0  0  0
   37.4390   29.4300   30.1310 H   0  0  0  0  0  0  0  0  0  0  0  0
   37.4900   25.8200   33.6530 C   0  0  0  0  0  0  0  0  0  0  0  0
   37.3420   27.1670   33.9900 C   0  0  0  0  0  0  0  0  0  0  0  0
   37.7560   27.7150   35.1880 C   0  0  0  0  0  0  0  0  0  0  0  0
   38.3570   26.9000   36.1280 C   0  0  0  0  0  0  0  0  0  0  0  0
   38.5430   25.5570   35.8790 C   0  0  0  0  0  0  0  0  0  0  0  0
   38.1050   25.1110   34.6760 C   0  0  0  0  0  0  0  0  0  0  0  0
   37.6220   28.7640   35.4070 H   0  0  0  0  0  0  0  0  0  0  0  0
   38.6820   27.3310   37.0660 H   0  0  0  0  0  0  0  0  0  0  0  0
   39.0080   24.8940   36.5910 H   0  0  0  0  0  0  0  0  0  0  0  0
   38.2550   24.0390   34.4820 H   0  0  0  0  0  0  0  0  0  0  0  0
   37.0230   25.1280   32.2100 S   0  0  0  0  0  0  0  0  0  0  0  0
   36.9820   23.6500   32.7200 O   0  0  0  0  0  0  0  0  0  0  0  0
   38.1820   25.2660   31.2560 O   0  0  0  0  0  0  0  0  0  0  0  0
   35.9220   24.7270   31.1270 C   0  0  0  0  0  0  0  0  0  0  0  0
   35.1720   25.6340   30.3540 F   0  0  0  0  0  0  0  0  0  0  0  0
   34.6860   24.3110   31.8140 F   0  0  0  0  0  0  0  0  0  0  0  0
   35.9100   23.4320   30.5230 F   0  0  0  0  0  0  0  0  0  0  0  0
   31.7790   31.2080   31.9560 C   0  0  0  0  0  0  0  0  0  0  0  0
   31.0830   30.8550   33.1290 C   0  0  0  0  0  0  0  0  0  0  0  0
   31.7230   29.9990   34.0260 C   0  0  0  0  0  0  0  0  0  0  0  0
   32.9720   29.5620   33.7100 N   0  0  0  0  0  0  0  0  0  0  0  0
   33.6140   29.9240   32.5620 C   0  0  0  0  0  0  0  0  0  0  0  0
   33.0070   30.7420   31.7020 N   0  0  0  0  0  0  0  0  0  0  0  0
   31.2150   31.8670   31.3240 H   0  0  0  0  0  0  0  0  0  0  0  0
   30.0910   31.2110   33.3660 H   0  0  0  0  0  0  0  0  0  0  0  0
   31.0390   29.5980   35.2720 C   0  0  1  0  0  3  0  0  0  0  0  0
   30.0460   28.4970   35.1110 C   0  0  0  0  0  3  0  0  0  0  0  0
   29.0460   28.7050   35.5570 H   0  0  0  0  0  0  0  0  0  0  0  0
   30.6660   27.3350   35.8450 C   0  0  0  0  0  3  0  0  0  0  0  0
   31.0300   26.5900   35.1080 H   0  0  0  0  0  0  0  0  0  0  0  0
   31.6390   27.8260   36.6930 O   0  0  0  0  0  0  0  0  0  0  0  0
   32.0910   29.0260   36.1850 C   0  0  0  0  0  3  0  0  0  0  0  0
   32.2420   29.7570   37.0310 H   0  0  0  0  0  0  0  0  0  0  0  0
  1 30  1  0  0  0  0
  1  6  1  0  0  0  0
  2  1  2  0  0  0  0
  3  2  1  0  0  0  0
  3  4  2  0  0  0  0
  4  5  1  0  0  0  0
  5  6  2  0  0  0  0
  5 10  1  0  0  0  0
  7  2  1  0  0  0  0
  8  3  1  0  0  0  0
  9 10  2  0  0  0  0
  9 14  1  0  0  0  0
 10 11  1  0  0  0  0
 11 15  1  0  0  0  0
 11 12  2  0  0  0  0
 12 16  1  0  0  0  0
 13 12  1  0  0  0  0
 13 17  1  0  0  0  0
 14 13  2  0  0  0  0
 18 14  1  0  0  0  0
 19 20  2  0  0  0  0
 19  9  1  0  0  0  0
 21 19  2  0  0  0  0
 22 24  1  0  0  0  0
 22 19  1  0  0  0  0
 23 22  1  0  0  0  0
 25 22  1  0  0  0  0
 26 27  1  0  0  0  0
 27 33  1  0  0  0  0
 27 28  2  0  0  0  0
 29 28  1  0  0  0  0
 30 29  2  0  0  0  0
 31 26  2  0  0  0  0
 31 30  1  0  0  0  0
 32 26  1  0  0  0  0
 34 28  1  6  0  0  0
 34 40  1  0  0  0  0
 35 34  1  0  0  0  0
 35 36  1  0  0  0  0
 35 37  1  0  0  0  0
 37 39  1  0  0  0  0
 38 37  1  0  0  0  0
 40 39  1  0  0  0  0
 40 41  1  0  0  0  0
M  END
>  <minimizedAffinity>
-6.50283003

$$$$

 OpenBabel03272504293D

 41 44  0  0  1  0  0  0  0  0999 V2000
   36.1170   28.3920   32.4080 C   0  0  0  0  0  0  0  0  0  0  0  0
   36.8910   28.8810   31.4150 C   0  0  0  0  0  0  0  0  0  0  0  0
   37.6860   28.0780   30.6990 C   0  0  0  0  0  0  0  0  0  0  0  0
   37.7090   26.7470   30.9800 N   0  0  0  0  0  0  0  0  0  0  0  0
   36.9440   26.2770   31.9580 C   0  0  0  0  0  0  0  0  0  0  0  0
   36.1450   27.0790   32.6790 N   0  0  0  0  0  0  0  0  0  0  0  0
   36.8350   29.9460   31.2310 H   0  0  0  0  0  0  0  0  0  0  0  0
   38.3030   28.4960   29.9000 H   0  0  0  0  0  0  0  0  0  0  0  0
   37.8780   24.3400   33.1430 C   0  0  0  0  0  0  0  0  0  0  0  0
   37.0280   24.8510   32.1590 C   0  0  0  0  0  0  0  0  0  0  0  0
   36.2530   24.0700   31.3250 C   0  0  0  0  0  0  0  0  0  0  0  0
   36.3050   22.6950   31.4490 C   0  0  0  0  0  0  0  0  0  0  0  0
   37.1180   22.1050   32.3930 C   0  0  0  0  0  0  0  0  0  0  0  0
   37.8400   22.9510   33.1670 C   0  0  0  0  0  0  0  0  0  0  0  0
   35.6080   24.5080   30.5770 H   0  0  0  0  0  0  0  0  0  0  0  0
   35.6970   22.0850   30.7950 H   0  0  0  0  0  0  0  0  0  0  0  0
   37.1820   21.0350   32.5160 H   0  0  0  0  0  0  0  0  0  0  0  0
   38.4880   22.4760   33.9180 H   0  0  0  0  0  0  0  0  0  0  0  0
   38.8090   25.2500   34.1820 S   0  0  0  0  0  0  0  0  0  0  0  0
   40.1450   25.1400   33.3740 O   0  0  0  0  0  0  0  0  0  0  0  0
   38.9610   24.4560   35.4530 O   0  0  0  0  0  0  0  0  0  0  0  0
   39.3350   26.6430   34.7560 C   0  0  0  0  0  0  0  0  0  0  0  0
   38.5220   27.6640   35.2840 F   0  0  0  0  0  0  0  0  0  0  0  0
   39.6970   27.5310   33.6360 F   0  0  0  0  0  0  0  0  0  0  0  0
   40.6850   26.8050   35.1960 F   0  0  0  0  0  0  0  0  0  0  0  0
   33.1610   30.1030   33.7510 C   0  0  0  0  0  0  0  0  0  0  0  0
   33.7100   30.9000   34.7750 C   0  0  0  0  0  0  0  0  0  0  0  0
   35.0880   30.8300   34.9790 C   0  0  0  0  0  0  0  0  0  0  0  0
   35.8100   30.0000   34.1790 N   0  0  0  0  0  0  0  0  0  0  0  0
   35.2430   29.2410   33.1960 C   0  0  0  0  0  0  0  0  0  0  0  0
   33.9260   29.3050   32.9970 N   0  0  0  0  0  0  0  0  0  0  0  0
   32.0970   30.2180   33.6630 H   0  0  0  0  0  0  0  0  0  0  0  0
   33.1220   31.5550   35.4030 H   0  0  0  0  0  0  0  0  0  0  0  0
   35.7150   31.6450   36.0390 C   0  0  1  0  0  3  0  0  0  0  0  0
   36.3310   32.9170   35.5640 C   0  0  0  0  0  3  0  0  0  0  0  0
   37.3790   33.0830   35.9090 H   0  0  0  0  0  0  0  0  0  0  0  0
   35.4570   33.9910   36.1570 C   0  0  0  0  0  3  0  0  0  0  0  0
   34.8400   34.4440   35.3540 H   0  0  0  0  0  0  0  0  0  0  0  0
   34.7310   33.4380   37.1950 O   0  0  0  0  0  0  0  0  0  0  0  0
   34.6110   32.0840   36.9640 C   0  0  0  0  0  3  0  0  0  0  0  0
   34.7410   31.5270   37.9370 H   0  0  0  0  0  0  0  0  0  0  0  0
  1  6  1  0  0  0  0
  1 30  1  0  0  0  0
  2  1  2  0  0  0  0
  3  4  2  0  0  0  0
  3  2  1  0  0  0  0
  4  5  1  0  0  0  0
  5 10  1  0  0  0  0
  5  6  2  0  0  0  0
  7  2  1  0  0  0  0
  8  3  1  0  0  0  0
  9 14  1  0  0  0  0
  9 19  1  0  0  0  0
 10  9  2  0  0  0  0
 11 12  2  0  0  0  0
 11 10  1  0  0  0  0
 12 13  1  0  0  0  0
 13 17  1  0  0  0  0
 13 14  2  0  0  0  0
 14 18  1  0  0  0  0
 15 11  1  0  0  0  0
 16 12  1  0  0  0  0
 19 22  1  0  0  0  0
 19 21  2  0  0  0  0
 20 19  2  0  0  0  0
 22 25  1  0  0  0  0
 22 23  1  0  0  0  0
 24 22  1  0  0  0  0
 26 27  1  0  0  0  0
 27 28  2  0  0  0  0
 27 33  1  0  0  0  0
 29 28  1  0  0  0  0
 30 29  2  0  0  0  0
 31 30  1  0  0  0  0
 31 26  2  0  0  0  0
 32 26  1  0  0  0  0
 34 28  1  6  0  0  0
 34 40  1  0  0  0  0
 35 36  1  0  0  0  0
 35 34  1  0  0  0  0
 35 37  1  0  0  0  0
 37 39  1  0  0  0  0
 38 37  1  0  0  0  0
 40 39  1  0  0  0  0
 40 41  1  0  0  0  0
M  END
>  <minimizedAffinity>
-6.42391586

$$$$

 OpenBabel03272504293D

 41 44  0  0  1  0  0  0  0  0999 V2000
   37.7840   25.7560   32.5610 C   0  0  0  0  0  0  0  0  0  0  0  0
   36.7020   25.0030   32.2690 C   0  0  0  0  0  0  0  0  0  0  0  0
   35.7650   25.4400   31.4190 C   0  0  0  0  0  0  0  0  0  0  0  0
   35.9120   26.6630   30.8440 N   0  0  0  0  0  0  0  0  0  0  0  0
   36.9790   27.3960   31.1390 C   0  0  0  0  0  0  0  0  0  0  0  0
   37.9220   26.9610   31.9900 N   0  0  0  0  0  0  0  0  0  0  0  0
   36.6340   24.0360   32.7510 H   0  0  0  0  0  0  0  0  0  0  0  0
   34.8990   24.8120   31.1970 H   0  0  0  0  0  0  0  0  0  0  0  0
   36.5830   29.8180   31.0980 C   0  0  0  0  0  0  0  0  0  0  0  0
   37.0490   28.6670   30.4600 C   0  0  0  0  0  0  0  0  0  0  0  0
   37.5670   28.6470   29.1800 C   0  0  0  0  0  0  0  0  0  0  0  0
   37.6390   29.8270   28.4650 C   0  0  0  0  0  0  0  0  0  0  0  0
   37.2010   31.0120   29.0170 C   0  0  0  0  0  0  0  0  0  0  0  0
   36.7080   30.9320   30.2780 C   0  0  0  0  0  0  0  0  0  0  0  0
   37.9180   27.7320   28.7250 H   0  0  0  0  0  0  0  0  0  0  0  0
   38.0460   29.8100   27.4630 H   0  0  0  0  0  0  0  0  0  0  0  0
   37.2420   31.9490   28.4860 H   0  0  0  0  0  0  0  0  0  0  0  0
   36.3590   31.8800   30.7140 H   0  0  0  0  0  0  0  0  0  0  0  0
   35.9720   29.8840   32.6460 S   0  0  0  0  0  0  0  0  0  0  0  0
   34.5480   29.3350   32.3060 O   0  0  0  0  0  0  0  0  0  0  0  0
   35.8410   31.3400   33.0110 O   0  0  0  0  0  0  0  0  0  0  0  0
   35.7870   29.2950   34.1180 C   0  0  0  0  0  0  0  0  0  0  0  0
   35.9750   27.9500   34.4870 F   0  0  0  0  0  0  0  0  0  0  0  0
   34.3490   29.1620   34.4170 F   0  0  0  0  0  0  0  0  0  0  0  0
   35.8510   30.1390   35.2700 F   0  0  0  0  0  0  0  0  0  0  0  0
   40.9860   25.3090   34.2980 C   0  0  0  0  0  0  0  0  0  0  0  0
   40.6690   24.3490   35.2790 C   0  0  0  0  0  0  0  0  0  0  0  0
   39.3570   23.8760   35.3190 C   0  0  0  0  0  0  0  0  0  0  0  0
   38.4730   24.3710   34.4110 N   0  0  0  0  0  0  0  0  0  0  0  0
   38.8170   25.3020   33.4750 C   0  0  0  0  0  0  0  0  0  0  0  0
   40.0690   25.7570   33.4330 N   0  0  0  0  0  0  0  0  0  0  0  0
   42.0140   25.6170   34.3380 H   0  0  0  0  0  0  0  0  0  0  0  0
   41.3840   23.9650   35.9930 H   0  0  0  0  0  0  0  0  0  0  0  0
   38.9710   22.8680   36.3270 C   0  0  1  0  0  3  0  0  0  0  0  0
   39.7890   22.8920   37.5750 C   0  0  0  0  0  3  0  0  0  0  0  0
   40.1910   21.8990   37.8850 H   0  0  0  0  0  0  0  0  0  0  0  0
   38.8270   23.3690   38.6330 C   0  0  0  0  0  3  0  0  0  0  0  0
   39.0800   24.4130   38.9110 H   0  0  0  0  0  0  0  0  0  0  0  0
   37.5400   23.1970   38.1610 O   0  0  0  0  0  0  0  0  0  0  0  0
   37.5790   23.2150   36.7830 C   0  0  0  0  0  3  0  0  0  0  0  0
   36.8820   22.4240   36.3790 H   0  0  0  0  0  0  0  0  0  0  0  0
  1 30  1  0  0  0  0
  2  1  1  0  0  0  0
  2  7  1  0  0  0  0
  3  2  2  0  0  0  0
  4  5  2  0  0  0  0
  4  3  1  0  0  0  0
  5  6  1  0  0  0  0
  6  1  2  0  0  0  0
  8  3  1  0  0  0  0
  9 19  1  0  0  0  0
 10  9  1  0  0  0  0
 10  5  1  0  0  0  0
 11 10  2  0  0  0  0
 12 13  2  0  0  0  0
 12 11  1  0  0  0  0
 13 14  1  0  0  0  0
 14 18  1  0  0  0  0
 14  9  2  0  0  0  0
 15 11  1  0  0  0  0
 16 12  1  0  0  0  0
 17 13  1  0  0  0  0
 19 21  2  0  0  0  0
 19 22  1  0  0  0  0
 20 19  2  0  0  0  0
 22 24  1  0  0  0  0
 22 23  1  0  0  0  0
 22 25  1  0  0  0  0
 26 32  1  0  0  0  0
 26 27  1  0  0  0  0
 27 28  2  0  0  0  0
 27 33  1  0  0  0  0
 29 28  1  0  0  0  0
 30 29  2  0  0  0  0
 31 30  1  0  0  0  0
 31 26  2  0  0  0  0
 34 28  1  6  0  0  0
 34 40  1  0  0  0  0
 34 35  1  0  0  0  0
 35 36  1  0  0  0  0
 35 37  1  0  0  0  0
 37 38  1  0  0  0  0
 39 37  1  0  0  0  0
 40 39  1  0  0  0  0
 41 40  1  0  0  0  0
M  END
>  <minimizedAffinity>
-6.32099819

$$$$

 OpenBabel03272504293D

 41 44  0  0  1  0  0  0  0  0999 V2000
   35.4320   29.1970   32.1190 C   0  0  0  0  0  0  0  0  0  0  0  0
   35.2160   30.1810   31.2200 C   0  0  0  0  0  0  0  0  0  0  0  0
   34.1840   31.0230   31.3510 C   0  0  0  0  0  0  0  0  0  0  0  0
   33.3430   30.8800   32.4100 N   0  0  0  0  0  0  0  0  0  0  0  0
   33.5650   29.9090   33.2890 C   0  0  0  0  0  0  0  0  0  0  0  0
   34.5980   29.0620   33.1610 N   0  0  0  0  0  0  0  0  0  0  0  0
   35.9140   30.2530   30.3960 H   0  0  0  0  0  0  0  0  0  0  0  0
   34.0300   31.8120   30.6110 H   0  0  0  0  0  0  0  0  0  0  0  0
   32.8510   30.6370   35.5220 C   0  0  0  0  0  0  0  0  0  0  0  0
   32.6280   29.8580   34.3840 C   0  0  0  0  0  0  0  0  0  0  0  0
   31.5560   29.0010   34.2320 C   0  0  0  0  0  0  0  0  0  0  0  0
   30.6350   28.8870   35.2550 C   0  0  0  0  0  0  0  0  0  0  0  0
   30.7780   29.6180   36.4150 C   0  0  0  0  0  0  0  0  0  0  0  0
   31.8600   30.4330   36.4730 C   0  0  0  0  0  0  0  0  0  0  0  0
   31.4210   28.4170   33.3330 H   0  0  0  0  0  0  0  0  0  0  0  0
   29.7960   28.2150   35.1340 H   0  0  0  0  0  0  0  0  0  0  0  0
   30.0770   29.5520   37.2320 H   0  0  0  0  0  0  0  0  0  0  0  0
   31.9700   31.0140   37.4000 H   0  0  0  0  0  0  0  0  0  0  0  0
   34.1180   31.6980   35.7320 S   0  0  0  0  0  0  0  0  0  0  0  0
   34.0880   31.7120   37.2960 O   0  0  0  0  0  0  0  0  0  0  0  0
   33.6560   33.0450   35.2400 O   0  0  0  0  0  0  0  0  0  0  0  0
   35.6750   32.0410   35.8140 C   0  0  0  0  0  0  0  0  0  0  0  0
   36.2150   33.3100   36.0940 F   0  0  0  0  0  0  0  0  0  0  0  0
   36.2330   32.1180   34.4520 F   0  0  0  0  0  0  0  0  0  0  0  0
   36.6490   31.0230   36.0530 F   0  0  0  0  0  0  0  0  0  0  0  0
   37.8990   26.8210   30.8020 C   0  0  0  0  0  0  0  0  0  0  0  0
   38.6940   26.5480   31.9330 C   0  0  0  0  0  0  0  0  0  0  0  0
   38.3590   27.1900   33.1270 C   0  0  0  0  0  0  0  0  0  0  0  0
   37.2920   28.0340   33.1200 N   0  0  0  0  0  0  0  0  0  0  0  0
   36.5460   28.2740   32.0020 C   0  0  0  0  0  0  0  0  0  0  0  0
   36.8620   27.6630   30.8600 N   0  0  0  0  0  0  0  0  0  0  0  0
   38.2260   26.2870   29.9300 H   0  0  0  0  0  0  0  0  0  0  0  0
   39.5380   25.8740   31.9230 H   0  0  0  0  0  0  0  0  0  0  0  0
   39.1580   26.9390   34.3430 C   0  0  1  0  0  3  0  0  0  0  0  0
   38.4780   27.3010   35.6200 C   0  0  0  0  0  3  0  0  0  0  0  0
   39.0850   27.9390   36.3050 H   0  0  0  0  0  0  0  0  0  0  0  0
   38.2340   25.9750   36.2930 C   0  0  0  0  0  3  0  0  0  0  0  0
   37.1530   25.7310   36.2390 H   0  0  0  0  0  0  0  0  0  0  0  0
   39.0630   25.0340   35.7140 O   0  0  0  0  0  0  0  0  0  0  0  0
   39.3620   25.4500   34.4340 C   0  0  0  0  0  3  0  0  0  0  0  0
   40.4490   25.2420   34.2180 H   0  0  0  0  0  0  0  0  0  0  0  0
  1  6  1  0  0  0  0
  2  3  1  0  0  0  0
  2  1  2  0  0  0  0
  3  4  2  0  0  0  0
  4  5  1  0  0  0  0
  5 10  1  0  0  0  0
  6  5  2  0  0  0  0
  7  2  1  0  0  0  0
  8  3  1  0  0  0  0
  9 19  1  0  0  0  0
  9 14  1  0  0  0  0
 10  9  2  0  0  0  0
 11 10  1  0  0  0  0
 11 12  2  0  0  0  0
 12 13  1  0  0  0  0
 13 14  2  0  0  0  0
 13 17  1  0  0  0  0
 14 18  1  0  0  0  0
 15 11  1  0  0  0  0
 16 12  1  0  0  0  0
 19 22  1  0  0  0  0
 19 20  2  0  0  0  0
 21 19  2  0  0  0  0
 22 25  1  0  0  0  0
 22 23  1  0  0  0  0
 24 22  1  0  0  0  0
 26 31  2  0  0  0  0
 26 27  1  0  0  0  0
 27 28  2  0  0  0  0
 29 28  1  0  0  0  0
 30  1  1  0  0  0  0
 30 29  2  0  0  0  0
 31 30  1  0  0  0  0
 32 26  1  0  0  0  0
 33 27  1  0  0  0  0
 34 28  1  6  0  0  0
 34 40  1  0  0  0  0
 34 35  1  0  0  0  0
 35 37  1  0  0  0  0
 35 36  1  0  0  0  0
 38 37  1  0  0  0  0
 39 37  1  0  0  0  0
 40 39  1  0  0  0  0
 41 40  1  0  0  0  0
M  END
>  <minimizedAffinity>
-6.28233671

$$$$

 OpenBabel03272504293D

 41 44  0  0  1  0  0  0  0  0999 V2000
   37.4760   26.1120   31.5600 C   0  0  0  0  0  0  0  0  0  0  0  0
   38.7130   25.9430   31.0450 C   0  0  0  0  0  0  0  0  0  0  0  0
   39.2620   24.7270   30.9490 C   0  0  0  0  0  0  0  0  0  0  0  0
   38.5570   23.6460   31.3790 N   0  0  0  0  0  0  0  0  0  0  0  0
   37.3420   23.8230   31.8840 C   0  0  0  0  0  0  0  0  0  0  0  0
   36.7870   25.0410   31.9820 N   0  0  0  0  0  0  0  0  0  0  0  0
   39.2310   26.8340   30.7160 H   0  0  0  0  0  0  0  0  0  0  0  0
   40.2640   24.6150   30.5280 H   0  0  0  0  0  0  0  0  0  0  0  0
   36.9770   22.0330   33.5250 C   0  0  0  0  0  0  0  0  0  0  0  0
   36.6720   22.6110   32.2910 C   0  0  0  0  0  0  0  0  0  0  0  0
   35.7670   22.0830   31.3920 C   0  0  0  0  0  0  0  0  0  0  0  0
   35.1090   20.9110   31.7090 C   0  0  0  0  0  0  0  0  0  0  0  0
   35.3490   20.2720   32.9060 C   0  0  0  0  0  0  0  0  0  0  0  0
   36.2540   20.8650   33.7250 C   0  0  0  0  0  0  0  0  0  0  0  0
   35.5610   22.5650   30.4470 H   0  0  0  0  0  0  0  0  0  0  0  0
   34.4000   20.4990   31.0030 H   0  0  0  0  0  0  0  0  0  0  0  0
   34.8540   19.3550   33.1850 H   0  0  0  0  0  0  0  0  0  0  0  0
   36.4420   20.3510   34.6790 H   0  0  0  0  0  0  0  0  0  0  0  0
   38.0450   22.6520   34.6440 S   0  0  0  0  0  0  0  0  0  0  0  0
   39.2910   21.8260   34.1840 O   0  0  0  0  0  0  0  0  0  0  0  0
   37.6160   22.1450   35.9960 O   0  0  0  0  0  0  0  0  0  0  0  0
   39.0520   23.7760   35.1650 C   0  0  0  0  0  0  0  0  0  0  0  0
   39.2000   24.1770   36.5060 F   0  0  0  0  0  0  0  0  0  0  0  0
   38.5120   25.1080   34.8400 F   0  0  0  0  0  0  0  0  0  0  0  0
   40.1980   24.1590   34.4020 F   0  0  0  0  0  0  0  0  0  0  0  0
   36.1820   29.4590   30.7940 C   0  0  0  0  0  0  0  0  0  0  0  0
   35.6480   29.8700   32.0320 C   0  0  0  0  0  0  0  0  0  0  0  0
   35.7490   28.9830   33.1040 C   0  0  0  0  0  0  0  0  0  0  0  0
   36.3520   27.7830   32.8860 N   0  0  0  0  0  0  0  0  0  0  0  0
   36.8560   27.4200   31.6710 C   0  0  0  0  0  0  0  0  0  0  0  0
   36.7630   28.2640   30.6430 N   0  0  0  0  0  0  0  0  0  0  0  0
   36.0620   30.2000   30.0270 H   0  0  0  0  0  0  0  0  0  0  0  0
   35.1720   30.8270   32.1900 H   0  0  0  0  0  0  0  0  0  0  0  0
   35.2070   29.3640   34.4240 C   0  0  1  0  0  3  0  0  0  0  0  0
   35.6980   30.6730   34.9440 C   0  0  0  0  0  3  0  0  0  0  0  0
   36.0850   30.6410   35.9900 H   0  0  0  0  0  0  0  0  0  0  0  0
   34.4790   31.5590   34.9130 C   0  0  0  0  0  3  0  0  0  0  0  0
   34.5810   32.2910   34.0850 H   0  0  0  0  0  0  0  0  0  0  0  0
   33.3580   30.7550   34.8320 O   0  0  0  0  0  0  0  0  0  0  0  0
   33.7240   29.5600   34.2490 C   0  0  0  0  0  3  0  0  0  0  0  0
   33.2040   28.7110   34.7790 H   0  0  0  0  0  0  0  0  0  0  0  0
  1 30  1  0  0  0  0
  1  6  1  0  0  0  0
  2  1  2  0  0  0  0
  3  2  1  0  0  0  0
  3  4  2  0  0  0  0
  4  5  1  0  0  0  0
  5  6  2  0  0  0  0
  5 10  1  0  0  0  0
  7  2  1  0  0  0  0
  8  3  1  0  0  0  0
  9 14  1  0  0  0  0
  9 19  1  0  0  0  0
 10  9  2  0  0  0  0
 11 12  2  0  0  0  0
 11 10  1  0  0  0  0
 12 13  1  0  0  0  0
 13 17  1  0  0  0  0
 13 14  2  0  0  0  0
 14 18  1  0  0  0  0
 15 11  1  0  0  0  0
 16 12  1  0  0  0  0
 19 22  1  0  0  0  0
 19 21  2  0  0  0  0
 20 19  2  0  0  0  0
 22 23  1  0  0  0  0
 24 22  1  0  0  0  0
 25 22  1  0  0  0  0
 26 27  1  0  0  0  0
 27 33  1  0  0  0  0
 27 28  2  0  0  0  0
 29 28  1  0  0  0  0
 30 29  2  0  0  0  0
 31 26  2  0  0  0  0
 31 30  1  0  0  0  0
 32 26  1  0  0  0  0
 34 28  1  6  0  0  0
 34 35  1  0  0  0  0
 35 36  1  0  0  0  0
 37 35  1  0  0  0  0
 38 37  1  0  0  0  0
 39 37  1  0  0  0  0
 40 34  1  0  0  0  0
 40 41  1  0  0  0  0
 40 39  1  0  0  0  0
M  END
>  <minimizedAffinity>
-6.12786102

$$$$

 OpenBabel03272504293D

 41 44  0  0  1  0  0  0  0  0999 V2000
   35.9430   28.8350   32.9520 C   0  0  0  0  0  0  0  0  0  0  0  0
   36.6130   29.4130   31.9320 C   0  0  0  0  0  0  0  0  0  0  0  0
   37.2870   28.6750   31.0420 C   0  0  0  0  0  0  0  0  0  0  0  0
   37.2920   27.3210   31.1730 N   0  0  0  0  0  0  0  0  0  0  0  0
   36.6300   26.7630   32.1800 C   0  0  0  0  0  0  0  0  0  0  0  0
   35.9530   27.4990   33.0740 N   0  0  0  0  0  0  0  0  0  0  0  0
   36.5770   30.4930   31.8720 H   0  0  0  0  0  0  0  0  0  0  0  0
   37.8220   29.1640   30.2250 H   0  0  0  0  0  0  0  0  0  0  0  0
   37.5590   24.6820   33.0930 C   0  0  0  0  0  0  0  0  0  0  0  0
   36.6820   25.3220   32.2140 C   0  0  0  0  0  0  0  0  0  0  0  0
   35.8500   24.6600   31.3340 C   0  0  0  0  0  0  0  0  0  0  0  0
   35.8680   23.2790   31.2990 C   0  0  0  0  0  0  0  0  0  0  0  0
   36.7040   22.5660   32.1310 C   0  0  0  0  0  0  0  0  0  0  0  0
   37.4840   23.3020   32.9610 C   0  0  0  0  0  0  0  0  0  0  0  0
   35.1850   25.1960   30.6710 H   0  0  0  0  0  0  0  0  0  0  0  0
   35.2150   22.7620   30.6090 H   0  0  0  0  0  0  0  0  0  0  0  0
   36.7440   21.4880   32.1290 H   0  0  0  0  0  0  0  0  0  0  0  0
   38.1500   22.7290   33.6230 H   0  0  0  0  0  0  0  0  0  0  0  0
   38.5610   25.4460   34.1840 S   0  0  0  0  0  0  0  0  0  0  0  0
   39.9040   25.1450   33.4410 O   0  0  0  0  0  0  0  0  0  0  0  0
   38.5330   24.6360   35.4540 O   0  0  0  0  0  0  0  0  0  0  0  0
   39.2540   26.7480   34.7940 C   0  0  0  0  0  0  0  0  0  0  0  0
   38.5780   27.8110   35.4220 F   0  0  0  0  0  0  0  0  0  0  0  0
   39.6410   27.6570   33.7010 F   0  0  0  0  0  0  0  0  0  0  0  0
   40.6350   26.7520   35.1600 F   0  0  0  0  0  0  0  0  0  0  0  0
   35.0530   31.1930   35.6200 C   0  0  0  0  0  0  0  0  0  0  0  0
   33.6590   31.0170   35.7290 C   0  0  0  0  0  0  0  0  0  0  0  0
   33.0570   30.0870   34.8800 C   0  0  0  0  0  0  0  0  0  0  0  0
   33.8530   29.4140   34.0050 N   0  0  0  0  0  0  0  0  0  0  0  0
   35.2010   29.6130   33.9280 C   0  0  0  0  0  0  0  0  0  0  0  0
   35.7800   30.5000   34.7370 N   0  0  0  0  0  0  0  0  0  0  0  0
   35.4320   31.9250   36.3080 H   0  0  0  0  0  0  0  0  0  0  0  0
   33.0410   31.5600   36.4300 H   0  0  0  0  0  0  0  0  0  0  0  0
   31.5990   29.8630   34.9530 C   0  0  1  0  0  3  0  0  0  0  0  0
   31.1200   28.6450   34.2390 C   0  0  0  0  0  3  0  0  0  0  0  0
   30.2640   28.8190   33.5460 H   0  0  0  0  0  0  0  0  0  0  0  0
   30.6600   27.7300   35.3450 C   0  0  0  0  0  3  0  0  0  0  0  0
   31.3890   26.9020   35.4600 H   0  0  0  0  0  0  0  0  0  0  0  0
   30.4680   28.4880   36.4850 O   0  0  0  0  0  0  0  0  0  0  0  0
   31.2680   29.6070   36.3990 C   0  0  0  0  0  3  0  0  0  0  0  0
   30.6980   30.5030   36.7810 H   0  0  0  0  0  0  0  0  0  0  0  0
  1  6  1  0  0  0  0
  1 30  1  0  0  0  0
  2  1  2  0  0  0  0
  3  4  2  0  0  0  0
  3  2  1  0  0  0  0
  4  5  1  0  0  0  0
  5 10  1  0  0  0  0
  5  6  2  0  0  0  0
  7  2  1  0  0  0  0
  8  3  1  0  0  0  0
  9 19  1  0  0  0  0
 10  9  2  0  0  0  0
 11 10  1  0  0  0  0
 12 11  2  0  0  0  0
 12 13  1  0  0  0  0
 13 14  2  0  0  0  0
 14  9  1  0  0  0  0
 14 18  1  0  0  0  0
 15 11  1  0  0  0  0
 16 12  1  0  0  0  0
 17 13  1  0  0  0  0
 19 22  1  0  0  0  0
 19 21  2  0  0  0  0
 20 19  2  0  0  0  0
 22 25  1  0  0  0  0
 22 23  1  0  0  0  0
 24 22  1  0  0  0  0
 26 27  1  0  0  0  0
 26 32  1  0  0  0  0
 27 33  1  0  0  0  0
 28 27  2  0  0  0  0
 29 28  1  0  0  0  0
 30 29  2  0  0  0  0
 30 31  1  0  0  0  0
 31 26  2  0  0  0  0
 34 28  1  1  0  0  0
 34 40  1  0  0  0  0
 35 34  1  0  0  0  0
 35 37  1  0  0  0  0
 36 35  1  0  0  0  0
 37 38  1  0  0  0  0
 37 39  1  0  0  0  0
 40 39  1  0  0  0  0
 40 41  1  0  0  0  0
M  END
>  <minimizedAffinity>
-6.10707569

$$$$
