
 OpenBabel03262523393D

 44 47  0  0  1  0  0  0  0  0999 V2000
   37.7340   26.7510   33.1210 C   0  0  2  0  0  0  0  0  0  0  0  0
   38.9840   26.0550   33.5230 C   0  0  0  0  0  0  0  0  0  0  0  0
   39.0110   25.6740   35.0000 C   0  0  2  0  0  0  0  0  0  0  0  0
   38.9600   26.9460   35.8170 C   0  0  0  0  0  0  0  0  0  0  0  0
   37.8490   27.8680   35.3590 C   0  0  0  0  0  0  0  0  0  0  0  0
   36.9530   27.2150   34.3330 C   0  0  0  0  0  0  0  0  0  0  0  0
   37.9160   27.6690   32.4870 H   0  0  0  0  0  0  0  0  0  0  0  0
   39.7940   26.8710   33.4720 H   0  0  0  0  0  0  0  0  0  0  0  0
   39.3800   25.2490   32.9720 H   0  0  0  0  0  0  0  0  0  0  0  0
   38.0380   25.1870   35.2040 H   0  0  0  0  0  0  0  0  0  0  0  0
   39.9290   27.4510   35.9260 H   0  0  0  0  0  0  0  0  0  0  0  0
   38.6880   26.6230   36.8620 H   0  0  0  0  0  0  0  0  0  0  0  0
   37.2730   28.3270   36.1550 H   0  0  0  0  0  0  0  0  0  0  0  0
   38.3470   28.7120   34.8100 H   0  0  0  0  0  0  0  0  0  0  0  0
   36.3570   26.3880   34.7700 H   0  0  0  0  0  0  0  0  0  0  0  0
   36.2430   27.9900   33.9900 H   0  0  0  0  0  0  0  0  0  0  0  0
   40.0830   24.7380   35.3350 C   0  0  2  0  0  0  0  0  0  0  0  0
   41.3250   24.8330   34.4570 C   0  0  0  0  0  0  0  0  0  0  0  0
   42.0400   23.5790   34.9910 C   0  0  0  0  0  0  0  0  0  0  0  0
   41.0470   22.6340   35.0800 O   0  0  0  0  0  0  0  0  0  0  0  0
   39.8180   23.2920   35.2490 C   0  0  1  0  0  0  0  0  0  0  0  0
   40.4440   24.9660   36.3600 H   0  0  0  0  0  0  0  0  0  0  0  0
   41.8650   25.7430   34.7270 H   0  0  0  0  0  0  0  0  0  0  0  0
   41.1060   24.7400   33.3840 H   0  0  0  0  0  0  0  0  0  0  0  0
   42.8750   23.2970   34.3480 H   0  0  0  0  0  0  0  0  0  0  0  0
   42.3600   23.8760   36.0210 H   0  0  0  0  0  0  0  0  0  0  0  0
   39.1970   22.9360   34.4160 H   0  0  0  0  0  0  0  0  0  0  0  0
   39.2320   22.6600   36.4940 C   0  0  2  0  0  3  0  0  0  0  0  0
   37.8100   23.1670   36.6650 C   0  0  0  0  0  3  0  0  0  0  0  0
   37.0580   22.5020   36.2010 H   0  0  0  0  0  0  0  0  0  0  0  0
   37.6700   23.3020   38.1580 C   0  0  0  0  0  3  0  0  0  0  0  0
   36.9640   22.5150   38.5070 H   0  0  0  0  0  0  0  0  0  0  0  0
   38.8890   23.0770   38.7550 O   0  0  0  0  0  0  0  0  0  0  0  0
   39.8680   23.1210   37.7770 C   0  0  0  0  0  3  0  0  0  0  0  0
   40.6440   22.3840   38.0520 H   0  0  0  0  0  0  0  0  0  0  0  0
   36.8320   25.9000   32.3160 C   0  0  0  0  0  0  0  0  0  0  0  0
   37.0840   24.5290   32.3780 C   0  0  0  0  0  0  0  0  0  0  0  0
   36.2660   23.6780   31.6650 C   0  0  0  0  0  0  0  0  0  0  0  0
   35.2310   24.2150   30.9180 N   0  0  0  0  0  0  0  0  0  0  0  0
   35.0140   25.5630   30.8810 C   0  0  0  0  0  0  0  0  0  0  0  0
   35.8130   26.3610   31.5750 N   0  0  0  0  0  0  0  0  0  0  0  0
   37.7860   23.8620   32.8490 H   0  0  0  0  0  0  0  0  0  0  0  0
   36.2300   22.6190   31.5370 H   0  0  0  0  0  0  0  0  0  0  0  0
   34.2200   25.9980   30.3110 H   0  0  0  0  0  0  0  0  0  0  0  0
  1  7  1  6  0  0  0
  1  2  1  0  0  0  0
  1  6  1  0  0  0  0
  2  3  1  0  0  0  0
  3 10  1  1  0  0  0
  3 17  1  0  0  0  0
  3  4  1  0  0  0  0
  4 11  1  0  0  0  0
  4 12  1  0  0  0  0
  5  4  1  0  0  0  0
  5 13  1  0  0  0  0
  6 15  1  0  0  0  0
  6  5  1  0  0  0  0
  8  2  1  0  0  0  0
  9  2  1  0  0  0  0
 14  5  1  0  0  0  0
 16  6  1  0  0  0  0
 17 22  1  1  0  0  0
 18 23  1  0  0  0  0
 18 19  1  0  0  0  0
 18 17  1  0  0  0  0
 19 20  1  0  0  0  0
 19 26  1  0  0  0  0
 20 21  1  0  0  0  0
 21 27  1  6  0  0  0
 21 17  1  0  0  0  0
 21 28  1  0  0  0  0
 24 18  1  0  0  0  0
 25 19  1  0  0  0  0
 28 29  1  1  0  0  0
 28 34  1  0  0  0  0
 29 31  1  0  0  0  0
 30 29  1  0  0  0  0
 31 32  1  0  0  0  0
 31 33  1  0  0  0  0
 34 35  1  0  0  0  0
 34 33  1  0  0  0  0
 36 37  1  0  0  0  0
 36  1  1  0  0  0  0
 37 42  1  0  0  0  0
 38 37  2  0  0  0  0
 39 38  1  0  0  0  0
 40 39  2  0  0  0  0
 40 41  1  0  0  0  0
 41 36  2  0  0  0  0
 43 38  1  0  0  0  0
 44 40  1  0  0  0  0
M  END
>  <minimizedAffinity>
-5.77195263

$$$$

 OpenBabel03262523393D

 44 47  0  0  1  0  0  0  0  0999 V2000
   36.7880   23.9040   30.9830 C   0  0  2  0  0  0  0  0  0  0  0  0
   37.8030   24.4970   31.8930 C   0  0  0  0  0  0  0  0  0  0  0  0
   37.1980   25.4120   32.9540 C   0  0  2  0  0  0  0  0  0  0  0  0
   36.5350   26.5750   32.2520 C   0  0  0  0  0  0  0  0  0  0  0  0
   35.6250   26.1170   31.1310 C   0  0  0  0  0  0  0  0  0  0  0  0
   35.4570   24.6150   31.1120 C   0  0  0  0  0  0  0  0  0  0  0  0
   37.0770   23.9610   29.8930 H   0  0  0  0  0  0  0  0  0  0  0  0
   38.3760   25.2450   31.2320 H   0  0  0  0  0  0  0  0  0  0  0  0
   38.5520   23.9170   32.3530 H   0  0  0  0  0  0  0  0  0  0  0  0
   36.3510   24.8480   33.3910 H   0  0  0  0  0  0  0  0  0  0  0  0
   37.2260   27.3750   31.9530 H   0  0  0  0  0  0  0  0  0  0  0  0
   35.8660   27.0520   33.0230 H   0  0  0  0  0  0  0  0  0  0  0  0
   34.6680   26.6240   31.0770 H   0  0  0  0  0  0  0  0  0  0  0  0
   36.1600   26.3590   30.1730 H   0  0  0  0  0  0  0  0  0  0  0  0
   34.8880   24.2520   31.9920 H   0  0  0  0  0  0  0  0  0  0  0  0
   34.8650   24.3730   30.2110 H   0  0  0  0  0  0  0  0  0  0  0  0
   38.1350   25.7550   34.0230 C   0  0  2  0  0  0  0  0  0  0  0  0
   39.0970   26.8930   33.7000 C   0  0  0  0  0  0  0  0  0  0  0  0
   39.9920   26.7510   34.9440 C   0  0  0  0  0  0  0  0  0  0  0  0
   40.1820   25.3960   35.0740 O   0  0  0  0  0  0  0  0  0  0  0  0
   39.0910   24.7350   34.4850 C   0  0  1  0  0  0  0  0  0  0  0  0
   37.5560   26.1140   34.8990 H   0  0  0  0  0  0  0  0  0  0  0  0
   38.5360   27.8290   33.7210 H   0  0  0  0  0  0  0  0  0  0  0  0
   39.6680   26.7290   32.7770 H   0  0  0  0  0  0  0  0  0  0  0  0
   40.9140   27.3260   34.8350 H   0  0  0  0  0  0  0  0  0  0  0  0
   39.3440   27.1140   35.7800 H   0  0  0  0  0  0  0  0  0  0  0  0
   39.5410   24.0770   33.7300 H   0  0  0  0  0  0  0  0  0  0  0  0
   38.5860   23.8160   35.5790 C   0  0  2  0  0  3  0  0  0  0  0  0
   37.7750   24.6420   36.5630 C   0  0  0  0  0  3  0  0  0  0  0  0
   36.6950   24.6510   36.3300 H   0  0  0  0  0  0  0  0  0  0  0  0
   38.1110   24.0200   37.8920 C   0  0  0  0  0  3  0  0  0  0  0  0
   37.2030   23.4930   38.2620 H   0  0  0  0  0  0  0  0  0  0  0  0
   39.1060   23.0850   37.7220 O   0  0  0  0  0  0  0  0  0  0  0  0
   39.6670   23.2670   36.4690 C   0  0  0  0  0  3  0  0  0  0  0  0
   39.9470   22.2690   36.0850 H   0  0  0  0  0  0  0  0  0  0  0  0
   36.5470   22.4690   31.2440 C   0  0  0  0  0  0  0  0  0  0  0  0
   35.3920   22.1760   31.9690 C   0  0  0  0  0  0  0  0  0  0  0  0
   35.0990   20.8530   32.2290 C   0  0  0  0  0  0  0  0  0  0  0  0
   35.9580   19.8730   31.7640 N   0  0  0  0  0  0  0  0  0  0  0  0
   37.0810   20.1980   31.0560 C   0  0  0  0  0  0  0  0  0  0  0  0
   37.3420   21.4750   30.8180 N   0  0  0  0  0  0  0  0  0  0  0  0
   34.5810   22.7070   32.4380 H   0  0  0  0  0  0  0  0  0  0  0  0
   34.3060   20.3580   32.7450 H   0  0  0  0  0  0  0  0  0  0  0  0
   37.7580   19.4560   30.6870 H   0  0  0  0  0  0  0  0  0  0  0  0
  1  7  1  6  0  0  0
  1  6  1  0  0  0  0
  1 36  1  0  0  0  0
  1  2  1  0  0  0  0
  2  9  1  0  0  0  0
  2  3  1  0  0  0  0
  3 10  1  1  0  0  0
  3 17  1  0  0  0  0
  4  3  1  0  0  0  0
  4 12  1  0  0  0  0
  5  4  1  0  0  0  0
  6  5  1  0  0  0  0
  6 15  1  0  0  0  0
  8  2  1  0  0  0  0
 11  4  1  0  0  0  0
 13  5  1  0  0  0  0
 14  5  1  0  0  0  0
 16  6  1  0  0  0  0
 17 21  1  0  0  0  0
 17 22  1  1  0  0  0
 18 23  1  0  0  0  0
 18 17  1  0  0  0  0
 18 19  1  0  0  0  0
 19 20  1  0  0  0  0
 19 26  1  0  0  0  0
 21 27  1  6  0  0  0
 21 20  1  0  0  0  0
 21 28  1  0  0  0  0
 24 18  1  0  0  0  0
 25 19  1  0  0  0  0
 28 34  1  1  0  0  0
 28 29  1  0  0  0  0
 29 31  1  0  0  0  0
 30 29  1  0  0  0  0
 31 32  1  0  0  0  0
 33 31  1  0  0  0  0
 34 33  1  0  0  0  0
 35 34  1  0  0  0  0
 36 37  1  0  0  0  0
 37 38  2  0  0  0  0
 37 42  1  0  0  0  0
 38 43  1  0  0  0  0
 39 38  1  0  0  0  0
 40 39  2  0  0  0  0
 41 40  1  0  0  0  0
 41 36  2  0  0  0  0
 44 40  1  0  0  0  0
M  END
>  <minimizedAffinity>
-5.75624084

$$$$

 OpenBabel03262523393D

 44 47  0  0  1  0  0  0  0  0999 V2000
   39.7680   26.4740   35.0010 C   0  0  2  0  0  0  0  0  0  0  0  0
   38.8230   26.9150   33.9420 C   0  0  0  0  0  0  0  0  0  0  0  0
   39.3460   26.6710   32.5300 C   0  0  2  0  0  0  0  0  0  0  0  0
   40.6000   27.4940   32.3410 C   0  0  0  0  0  0  0  0  0  0  0  0
   41.5760   27.3080   33.4840 C   0  0  0  0  0  0  0  0  0  0  0  0
   41.1460   26.2120   34.4290 C   0  0  0  0  0  0  0  0  0  0  0  0
   39.9030   27.2340   35.8260 H   0  0  0  0  0  0  0  0  0  0  0  0
   38.8400   28.0640   34.0070 H   0  0  0  0  0  0  0  0  0  0  0  0
   37.8010   26.6600   33.9600 H   0  0  0  0  0  0  0  0  0  0  0  0
   39.7110   25.6250   32.5200 H   0  0  0  0  0  0  0  0  0  0  0  0
   40.4140   28.5480   32.0930 H   0  0  0  0  0  0  0  0  0  0  0  0
   41.1040   27.0710   31.4260 H   0  0  0  0  0  0  0  0  0  0  0  0
   42.6140   27.1950   33.1900 H   0  0  0  0  0  0  0  0  0  0  0  0
   41.5280   28.2500   34.0940 H   0  0  0  0  0  0  0  0  0  0  0  0
   41.2020   25.2110   33.9540 H   0  0  0  0  0  0  0  0  0  0  0  0
   41.8600   26.2190   35.2720 H   0  0  0  0  0  0  0  0  0  0  0  0
   38.3180   26.8190   31.5000 C   0  0  2  0  0  0  0  0  0  0  0  0
   37.8390   28.2460   31.2630 C   0  0  0  0  0  0  0  0  0  0  0  0
   36.6660   27.9070   30.3270 C   0  0  0  0  0  0  0  0  0  0  0  0
   36.0640   26.8210   30.9160 O   0  0  0  0  0  0  0  0  0  0  0  0
   37.0240   26.1410   31.6840 C   0  0  1  0  0  0  0  0  0  0  0  0
   38.7450   26.4980   30.5270 H   0  0  0  0  0  0  0  0  0  0  0  0
   38.6270   28.7860   30.7330 H   0  0  0  0  0  0  0  0  0  0  0  0
   37.4890   28.7430   32.1780 H   0  0  0  0  0  0  0  0  0  0  0  0
   36.0080   28.7670   30.1900 H   0  0  0  0  0  0  0  0  0  0  0  0
   37.1670   27.5820   29.3810 H   0  0  0  0  0  0  0  0  0  0  0  0
   36.6000   26.1160   32.6970 H   0  0  0  0  0  0  0  0  0  0  0  0
   36.9560   24.7150   31.1780 C   0  0  2  0  0  3  0  0  0  0  0  0
   35.4970   24.2970   31.1190 C   0  0  0  0  0  3  0  0  0  0  0  0
   35.0390   24.4730   30.1280 H   0  0  0  0  0  0  0  0  0  0  0  0
   35.5380   22.8480   31.5270 C   0  0  0  0  0  3  0  0  0  0  0  0
   35.2950   22.2340   30.6310 H   0  0  0  0  0  0  0  0  0  0  0  0
   36.8120   22.5230   31.9340 O   0  0  0  0  0  0  0  0  0  0  0  0
   37.5210   23.6960   32.1290 C   0  0  0  0  0  3  0  0  0  0  0  0
   38.5680   23.5020   31.8340 H   0  0  0  0  0  0  0  0  0  0  0  0
   39.3330   25.2370   35.6840 C   0  0  0  0  0  0  0  0  0  0  0  0
   38.1300   25.3280   36.3840 C   0  0  0  0  0  0  0  0  0  0  0  0
   37.6590   24.2030   37.0280 C   0  0  0  0  0  0  0  0  0  0  0  0
   38.3940   23.0320   36.9550 N   0  0  0  0  0  0  0  0  0  0  0  0
   39.5690   22.9800   36.2590 C   0  0  0  0  0  0  0  0  0  0  0  0
   40.0020   24.0740   35.6480 N   0  0  0  0  0  0  0  0  0  0  0  0
   37.3830   26.0710   36.6060 H   0  0  0  0  0  0  0  0  0  0  0  0
   36.7930   23.9940   37.6180 H   0  0  0  0  0  0  0  0  0  0  0  0
   40.1530   22.0860   36.1900 H   0  0  0  0  0  0  0  0  0  0  0  0
  1 36  1  0  0  0  0
  1  7  1  1  0  0  0
  2  9  1  0  0  0  0
  2  8  1  0  0  0  0
  2  1  1  0  0  0  0
  3 10  1  6  0  0  0
  3  2  1  0  0  0  0
  4  3  1  0  0  0  0
  4  5  1  0  0  0  0
  5 14  1  0  0  0  0
  5  6  1  0  0  0  0
  6  1  1  0  0  0  0
  6 16  1  0  0  0  0
 11  4  1  0  0  0  0
 12  4  1  0  0  0  0
 13  5  1  0  0  0  0
 15  6  1  0  0  0  0
 17 22  1  6  0  0  0
 17 21  1  0  0  0  0
 17  3  1  0  0  0  0
 18 17  1  0  0  0  0
 18 24  1  0  0  0  0
 19 20  1  0  0  0  0
 19 18  1  0  0  0  0
 20 21  1  0  0  0  0
 21 27  1  1  0  0  0
 23 18  1  0  0  0  0
 25 19  1  0  0  0  0
 26 19  1  0  0  0  0
 28 29  1  1  0  0  0
 28 21  1  0  0  0  0
 28 34  1  0  0  0  0
 29 31  1  0  0  0  0
 30 29  1  0  0  0  0
 31 33  1  0  0  0  0
 32 31  1  0  0  0  0
 33 34  1  0  0  0  0
 35 34  1  0  0  0  0
 36 37  1  0  0  0  0
 37 42  1  0  0  0  0
 37 38  2  0  0  0  0
 38 43  1  0  0  0  0
 39 38  1  0  0  0  0
 40 39  2  0  0  0  0
 41 36  2  0  0  0  0
 41 40  1  0  0  0  0
 44 40  1  0  0  0  0
M  END
>  <minimizedAffinity>
-5.52752686

$$$$

 OpenBabel03262523393D

 44 47  0  0  1  0  0  0  0  0999 V2000
   38.6910   26.2530   35.1180 C   0  0  2  0  0  0  0  0  0  0  0  0
   37.6290   26.1340   34.0850 C   0  0  0  0  0  0  0  0  0  0  0  0
   38.1680   25.7540   32.7090 C   0  0  2  0  0  0  0  0  0  0  0  0
   39.0860   26.8600   32.2390 C   0  0  0  0  0  0  0  0  0  0  0  0
   40.0980   27.2440   33.2990 C   0  0  0  0  0  0  0  0  0  0  0  0
   40.0660   26.3080   34.4840 C   0  0  0  0  0  0  0  0  0  0  0  0
   38.5950   27.1820   35.7540 H   0  0  0  0  0  0  0  0  0  0  0  0
   37.2770   27.2160   33.9120 H   0  0  0  0  0  0  0  0  0  0  0  0
   36.7440   25.5870   34.2500 H   0  0  0  0  0  0  0  0  0  0  0  0
   38.8490   24.8970   32.8780 H   0  0  0  0  0  0  0  0  0  0  0  0
   38.5660   27.7230   31.8000 H   0  0  0  0  0  0  0  0  0  0  0  0
   39.6770   26.4210   31.3860 H   0  0  0  0  0  0  0  0  0  0  0  0
   41.1100   27.3930   32.9380 H   0  0  0  0  0  0  0  0  0  0  0  0
   39.7650   28.2370   33.7070 H   0  0  0  0  0  0  0  0  0  0  0  0
   40.4290   25.2940   34.2190 H   0  0  0  0  0  0  0  0  0  0  0  0
   40.7600   26.7230   35.2370 H   0  0  0  0  0  0  0  0  0  0  0  0
   37.1230   25.3450   31.7720 C   0  0  2  0  0  0  0  0  0  0  0  0
   35.9940   26.3510   31.5810 C   0  0  0  0  0  0  0  0  0  0  0  0
   35.0660   25.4490   30.7490 C   0  0  0  0  0  0  0  0  0  0  0  0
   35.1150   24.2320   31.3840 O   0  0  0  0  0  0  0  0  0  0  0  0
   36.3400   24.1330   32.0650 C   0  0  1  0  0  0  0  0  0  0  0  0
   37.5760   25.2330   30.7650 H   0  0  0  0  0  0  0  0  0  0  0  0
   36.3760   27.1830   30.9860 H   0  0  0  0  0  0  0  0  0  0  0  0
   35.5170   26.6520   32.5240 H   0  0  0  0  0  0  0  0  0  0  0  0
   34.0650   25.8770   30.6710 H   0  0  0  0  0  0  0  0  0  0  0  0
   35.5880   25.3710   29.7620 H   0  0  0  0  0  0  0  0  0  0  0  0
   36.0600   23.9460   33.1110 H   0  0  0  0  0  0  0  0  0  0  0  0
   36.9340   22.8340   31.5630 C   0  0  2  0  0  3  0  0  0  0  0  0
   35.7970   21.8820   31.2330 C   0  0  0  0  0  3  0  0  0  0  0  0
   35.4880   21.9330   30.1730 H   0  0  0  0  0  0  0  0  0  0  0  0
   36.3400   20.5410   31.6490 C   0  0  0  0  0  3  0  0  0  0  0  0
   36.5220   19.9450   30.7280 H   0  0  0  0  0  0  0  0  0  0  0  0
   37.5460   20.7140   32.2900 O   0  0  0  0  0  0  0  0  0  0  0  0
   37.6830   22.0540   32.6090 C   0  0  0  0  0  3  0  0  0  0  0  0
   38.7550   22.3080   32.5170 H   0  0  0  0  0  0  0  0  0  0  0  0
   38.6930   25.1280   36.0760 C   0  0  0  0  0  0  0  0  0  0  0  0
   39.5080   24.0480   35.7340 C   0  0  0  0  0  0  0  0  0  0  0  0
   39.5690   22.9730   36.5960 C   0  0  0  0  0  0  0  0  0  0  0  0
   38.8250   23.0070   37.7630 N   0  0  0  0  0  0  0  0  0  0  0  0
   38.0380   24.0820   38.0650 C   0  0  0  0  0  0  0  0  0  0  0  0
   37.9950   25.1040   37.2220 N   0  0  0  0  0  0  0  0  0  0  0  0
   40.1620   23.7590   34.9300 H   0  0  0  0  0  0  0  0  0  0  0  0
   40.0940   22.0430   36.5850 H   0  0  0  0  0  0  0  0  0  0  0  0
   37.4550   24.1290   38.9610 H   0  0  0  0  0  0  0  0  0  0  0  0
  1  7  1  1  0  0  0
  1 36  1  0  0  0  0
  2  9  1  0  0  0  0
  2  1  1  0  0  0  0
  3 10  1  1  0  0  0
  3  2  1  0  0  0  0
  4  3  1  0  0  0  0
  4  5  1  0  0  0  0
  5 14  1  0  0  0  0
  5  6  1  0  0  0  0
  6  1  1  0  0  0  0
  6 16  1  0  0  0  0
  8  2  1  0  0  0  0
 11  4  1  0  0  0  0
 12  4  1  0  0  0  0
 13  5  1  0  0  0  0
 15  6  1  0  0  0  0
 17 22  1  6  0  0  0
 17 21  1  0  0  0  0
 17  3  1  0  0  0  0
 18 17  1  0  0  0  0
 18 24  1  0  0  0  0
 19 20  1  0  0  0  0
 19 18  1  0  0  0  0
 20 21  1  0  0  0  0
 21 27  1  1  0  0  0
 23 18  1  0  0  0  0
 25 19  1  0  0  0  0
 26 19  1  0  0  0  0
 28 29  1  1  0  0  0
 28 21  1  0  0  0  0
 28 34  1  0  0  0  0
 29 31  1  0  0  0  0
 30 29  1  0  0  0  0
 31 33  1  0  0  0  0
 32 31  1  0  0  0  0
 33 34  1  0  0  0  0
 35 34  1  0  0  0  0
 36 41  1  0  0  0  0
 37 36  2  0  0  0  0
 37 38  1  0  0  0  0
 38 39  2  0  0  0  0
 39 40  1  0  0  0  0
 40 44  1  0  0  0  0
 41 40  2  0  0  0  0
 42 37  1  0  0  0  0
 43 38  1  0  0  0  0
M  END
>  <minimizedAffinity>
-5.48595762

$$$$

 OpenBabel03262523393D

 44 47  0  0  1  0  0  0  0  0999 V2000
   35.6990   28.7050   33.6790 C   0  0  2  0  0  0  0  0  0  0  0  0
   36.6210   27.7740   34.3810 C   0  0  0  0  0  0  0  0  0  0  0  0
   37.8280   27.3730   33.5380 C   0  0  2  0  0  0  0  0  0  0  0  0
   37.3270   26.6270   32.3210 C   0  0  0  0  0  0  0  0  0  0  0  0
   36.2090   27.3720   31.6220 C   0  0  0  0  0  0  0  0  0  0  0  0
   35.9980   28.7530   32.1950 C   0  0  0  0  0  0  0  0  0  0  0  0
   34.6110   28.4170   33.7770 H   0  0  0  0  0  0  0  0  0  0  0  0
   36.0350   26.7860   34.4430 H   0  0  0  0  0  0  0  0  0  0  0  0
   36.9550   27.9500   35.3640 H   0  0  0  0  0  0  0  0  0  0  0  0
   38.2330   28.3170   33.1230 H   0  0  0  0  0  0  0  0  0  0  0  0
   37.0990   25.5680   32.5030 H   0  0  0  0  0  0  0  0  0  0  0  0
   38.1920   26.6120   31.6000 H   0  0  0  0  0  0  0  0  0  0  0  0
   36.2780   27.3970   30.5400 H   0  0  0  0  0  0  0  0  0  0  0  0
   35.2630   26.8140   31.8590 H   0  0  0  0  0  0  0  0  0  0  0  0
   36.8520   29.4260   31.9760 H   0  0  0  0  0  0  0  0  0  0  0  0
   35.1080   29.1740   31.6930 H   0  0  0  0  0  0  0  0  0  0  0  0
   38.8780   26.7110   34.3110 C   0  0  2  0  0  0  0  0  0  0  0  0
   40.3030   27.0910   33.9260 C   0  0  0  0  0  0  0  0  0  0  0  0
   41.0250   26.0370   34.7840 C   0  0  0  0  0  0  0  0  0  0  0  0
   40.2970   24.8870   34.5940 O   0  0  0  0  0  0  0  0  0  0  0  0
   38.9800   25.2430   34.2580 C   0  0  1  0  0  0  0  0  0  0  0  0
   38.7800   27.0160   35.3730 H   0  0  0  0  0  0  0  0  0  0  0  0
   40.4970   28.1010   34.2920 H   0  0  0  0  0  0  0  0  0  0  0  0
   40.5160   26.9490   32.8580 H   0  0  0  0  0  0  0  0  0  0  0  0
   42.0770   25.9550   34.5060 H   0  0  0  0  0  0  0  0  0  0  0  0
   40.8740   26.4000   35.8320 H   0  0  0  0  0  0  0  0  0  0  0  0
   38.8000   24.7530   33.2920 H   0  0  0  0  0  0  0  0  0  0  0  0
   38.1300   24.4930   35.2630 C   0  0  2  0  0  3  0  0  0  0  0  0
   38.1530   25.2570   36.5750 C   0  0  0  0  0  3  0  0  0  0  0  0
   37.3110   25.9660   36.6740 H   0  0  0  0  0  0  0  0  0  0  0  0
   38.1570   24.1630   37.6100 C   0  0  0  0  0  3  0  0  0  0  0  0
   37.1710   24.1760   38.1250 H   0  0  0  0  0  0  0  0  0  0  0  0
   38.2960   22.9440   36.9870 O   0  0  0  0  0  0  0  0  0  0  0  0
   38.6990   23.1640   35.6800 C   0  0  0  0  0  3  0  0  0  0  0  0
   38.2300   22.3840   35.0540 H   0  0  0  0  0  0  0  0  0  0  0  0
   35.7790   30.0900   34.1890 C   0  0  0  0  0  0  0  0  0  0  0  0
   35.6020   31.0930   33.2350 C   0  0  0  0  0  0  0  0  0  0  0  0
   35.6450   32.4080   33.6500 C   0  0  0  0  0  0  0  0  0  0  0  0
   35.8610   32.6810   34.9900 N   0  0  0  0  0  0  0  0  0  0  0  0
   36.0300   31.6720   35.8960 C   0  0  0  0  0  0  0  0  0  0  0  0
   35.9840   30.4160   35.4740 N   0  0  0  0  0  0  0  0  0  0  0  0
   35.4310   31.1730   32.1750 H   0  0  0  0  0  0  0  0  0  0  0  0
   35.5450   33.3460   33.1500 H   0  0  0  0  0  0  0  0  0  0  0  0
   36.1980   31.8600   36.9360 H   0  0  0  0  0  0  0  0  0  0  0  0
  1  7  1  1  0  0  0
  1 36  1  0  0  0  0
  1  2  1  0  0  0  0
  2  8  1  0  0  0  0
  2  9  1  0  0  0  0
  3 10  1  6  0  0  0
  3 17  1  0  0  0  0
  3  2  1  0  0  0  0
  4 11  1  0  0  0  0
  4  3  1  0  0  0  0
  5 14  1  0  0  0  0
  5  6  1  0  0  0  0
  5  4  1  0  0  0  0
  6  1  1  0  0  0  0
 12  4  1  0  0  0  0
 13  5  1  0  0  0  0
 15  6  1  0  0  0  0
 16  6  1  0  0  0  0
 17 22  1  1  0  0  0
 18 23  1  0  0  0  0
 18 17  1  0  0  0  0
 18 19  1  0  0  0  0
 19 26  1  0  0  0  0
 20 19  1  0  0  0  0
 21 27  1  6  0  0  0
 21 17  1  0  0  0  0
 21 20  1  0  0  0  0
 21 28  1  0  0  0  0
 24 18  1  0  0  0  0
 25 19  1  0  0  0  0
 28 34  1  1  0  0  0
 28 29  1  0  0  0  0
 29 30  1  0  0  0  0
 29 31  1  0  0  0  0
 31 32  1  0  0  0  0
 33 31  1  0  0  0  0
 34 33  1  0  0  0  0
 35 34  1  0  0  0  0
 36 41  1  0  0  0  0
 37 38  1  0  0  0  0
 37 36  2  0  0  0  0
 38 39  2  0  0  0  0
 39 40  1  0  0  0  0
 40 44  1  0  0  0  0
 41 40  2  0  0  0  0
 42 37  1  0  0  0  0
 43 38  1  0  0  0  0
M  END
>  <minimizedAffinity>
-5.4663353

$$$$

 OpenBabel03262523393D

 44 47  0  0  1  0  0  0  0  0999 V2000
   37.6170   26.7980   33.1940 C   0  0  2  0  0  0  0  0  0  0  0  0
   39.0750   26.5110   33.1900 C   0  0  0  0  0  0  0  0  0  0  0  0
   39.5860   25.9740   34.5240 C   0  0  2  0  0  0  0  0  0  0  0  0
   39.3720   27.0400   35.5750 C   0  0  0  0  0  0  0  0  0  0  0  0
   37.9620   27.5910   35.5440 C   0  0  0  0  0  0  0  0  0  0  0  0
   37.0670   26.8150   34.6060 C   0  0  0  0  0  0  0  0  0  0  0  0
   37.3550   27.7970   32.7370 H   0  0  0  0  0  0  0  0  0  0  0  0
   39.5690   27.5490   33.1460 H   0  0  0  0  0  0  0  0  0  0  0  0
   39.5370   25.9610   32.4200 H   0  0  0  0  0  0  0  0  0  0  0  0
   38.8830   25.1690   34.8150 H   0  0  0  0  0  0  0  0  0  0  0  0
   40.1450   27.8200   35.5900 H   0  0  0  0  0  0  0  0  0  0  0  0
   39.4810   26.5130   36.5660 H   0  0  0  0  0  0  0  0  0  0  0  0
   37.4980   27.7250   36.5150 H   0  0  0  0  0  0  0  0  0  0  0  0
   38.0350   28.6160   35.0910 H   0  0  0  0  0  0  0  0  0  0  0  0
   36.8720   25.7880   34.9760 H   0  0  0  0  0  0  0  0  0  0  0  0
   36.0990   27.3470   34.5770 H   0  0  0  0  0  0  0  0  0  0  0  0
   40.9340   25.4130   34.4420 C   0  0  2  0  0  0  0  0  0  0  0  0
   41.6220   25.5730   33.0920 C   0  0  0  0  0  0  0  0  0  0  0  0
   42.8390   24.6790   33.3850 C   0  0  0  0  0  0  0  0  0  0  0  0
   42.3110   23.5830   34.0220 O   0  0  0  0  0  0  0  0  0  0  0  0
   41.1150   23.9670   34.6520 C   0  0  1  0  0  0  0  0  0  0  0  0
   41.5860   25.9540   35.1590 H   0  0  0  0  0  0  0  0  0  0  0  0
   41.9150   26.6190   32.9810 H   0  0  0  0  0  0  0  0  0  0  0  0
   41.0300   25.1790   32.2540 H   0  0  0  0  0  0  0  0  0  0  0  0
   43.3880   24.4470   32.4700 H   0  0  0  0  0  0  0  0  0  0  0  0
   43.4380   25.2780   34.1160 H   0  0  0  0  0  0  0  0  0  0  0  0
   40.3550   23.2910   34.2380 H   0  0  0  0  0  0  0  0  0  0  0  0
   41.3050   23.5350   36.0920 C   0  0  2  0  0  3  0  0  0  0  0  0
   42.2190   22.3220   36.1120 C   0  0  0  0  0  3  0  0  0  0  0  0
   43.2830   22.5880   36.2480 H   0  0  0  0  0  0  0  0  0  0  0  0
   41.6510   21.4820   37.2250 C   0  0  0  0  0  3  0  0  0  0  0  0
   42.3760   21.4950   38.0680 H   0  0  0  0  0  0  0  0  0  0  0  0
   40.4740   22.0420   37.6660 O   0  0  0  0  0  0  0  0  0  0  0  0
   40.0640   22.9850   36.7390 C   0  0  0  0  0  3  0  0  0  0  0  0
   39.5790   23.8070   37.2950 H   0  0  0  0  0  0  0  0  0  0  0  0
   36.8310   25.8070   32.4290 C   0  0  0  0  0  0  0  0  0  0  0  0
   35.8280   26.3330   31.6140 C   0  0  0  0  0  0  0  0  0  0  0  0
   35.0720   25.4620   30.8590 C   0  0  0  0  0  0  0  0  0  0  0  0
   35.3350   24.1050   30.9380 N   0  0  0  0  0  0  0  0  0  0  0  0
   36.3250   23.6250   31.7470 C   0  0  0  0  0  0  0  0  0  0  0  0
   37.0400   24.4810   32.4640 N   0  0  0  0  0  0  0  0  0  0  0  0
   35.4160   27.2970   31.3690 H   0  0  0  0  0  0  0  0  0  0  0  0
   34.2650   25.5860   30.1700 H   0  0  0  0  0  0  0  0  0  0  0  0
   36.5450   22.5810   31.8230 H   0  0  0  0  0  0  0  0  0  0  0  0
  1  7  1  6  0  0  0
  1  6  1  0  0  0  0
  2  1  1  0  0  0  0
  2  3  1  0  0  0  0
  3 10  1  1  0  0  0
  3  4  1  0  0  0  0
  4 11  1  0  0  0  0
  4 12  1  0  0  0  0
  5  4  1  0  0  0  0
  5 13  1  0  0  0  0
  6 15  1  0  0  0  0
  6  5  1  0  0  0  0
  8  2  1  0  0  0  0
  9  2  1  0  0  0  0
 14  5  1  0  0  0  0
 16  6  1  0  0  0  0
 17  3  1  0  0  0  0
 17 21  1  0  0  0  0
 17 22  1  1  0  0  0
 18 19  1  0  0  0  0
 18 17  1  0  0  0  0
 19 20  1  0  0  0  0
 19 26  1  0  0  0  0
 20 21  1  0  0  0  0
 21 27  1  6  0  0  0
 21 28  1  0  0  0  0
 23 18  1  0  0  0  0
 24 18  1  0  0  0  0
 25 19  1  0  0  0  0
 28 29  1  6  0  0  0
 28 34  1  0  0  0  0
 29 30  1  0  0  0  0
 29 31  1  0  0  0  0
 31 33  1  0  0  0  0
 31 32  1  0  0  0  0
 34 35  1  0  0  0  0
 34 33  1  0  0  0  0
 36 41  1  0  0  0  0
 36  1  1  0  0  0  0
 37 36  2  0  0  0  0
 38 39  2  0  0  0  0
 38 37  1  0  0  0  0
 39 40  1  0  0  0  0
 40 44  1  0  0  0  0
 40 41  2  0  0  0  0
 42 37  1  0  0  0  0
 43 38  1  0  0  0  0
M  END
>  <minimizedAffinity>
-5.43654919

$$$$

 OpenBabel03262523393D

 44 47  0  0  1  0  0  0  0  0999 V2000
   35.8910   27.9570   32.0990 C   0  0  2  0  0  0  0  0  0  0  0  0
   36.7520   27.5710   33.2470 C   0  0  0  0  0  0  0  0  0  0  0  0
   37.7760   26.4960   32.8960 C   0  0  2  0  0  0  0  0  0  0  0  0
   37.0270   25.2440   32.4950 C   0  0  0  0  0  0  0  0  0  0  0  0
   35.9470   25.5340   31.4730 C   0  0  0  0  0  0  0  0  0  0  0  0
   36.0070   26.9560   30.9680 C   0  0  0  0  0  0  0  0  0  0  0  0
   34.7940   28.0170   32.3620 H   0  0  0  0  0  0  0  0  0  0  0  0
   36.0440   27.0040   33.9560 H   0  0  0  0  0  0  0  0  0  0  0  0
   37.2270   28.2860   33.8580 H   0  0  0  0  0  0  0  0  0  0  0  0
   38.2560   26.8310   31.9560 H   0  0  0  0  0  0  0  0  0  0  0  0
   36.6760   24.6370   33.3400 H   0  0  0  0  0  0  0  0  0  0  0  0
   37.7850   24.5930   31.9730 H   0  0  0  0  0  0  0  0  0  0  0  0
   35.8840   24.8240   30.6550 H   0  0  0  0  0  0  0  0  0  0  0  0
   34.9690   25.4630   32.0210 H   0  0  0  0  0  0  0  0  0  0  0  0
   36.9140   27.1400   30.3570 H   0  0  0  0  0  0  0  0  0  0  0  0
   35.1290   27.0980   30.3110 H   0  0  0  0  0  0  0  0  0  0  0  0
   38.8090   26.3270   33.9160 C   0  0  2  0  0  0  0  0  0  0  0  0
   40.1230   27.0450   33.6330 C   0  0  0  0  0  0  0  0  0  0  0  0
   40.9370   26.4260   34.7820 C   0  0  0  0  0  0  0  0  0  0  0  0
   40.5950   25.0950   34.7630 O   0  0  0  0  0  0  0  0  0  0  0  0
   39.3130   24.9730   34.2000 C   0  0  1  0  0  0  0  0  0  0  0  0
   38.4440   26.7700   34.8660 H   0  0  0  0  0  0  0  0  0  0  0  0
   39.9670   28.1150   33.7890 H   0  0  0  0  0  0  0  0  0  0  0  0
   40.5550   26.7900   32.6560 H   0  0  0  0  0  0  0  0  0  0  0  0
   42.0050   26.6180   34.6580 H   0  0  0  0  0  0  0  0  0  0  0  0
   40.5090   26.9040   35.6980 H   0  0  0  0  0  0  0  0  0  0  0  0
   39.4490   24.2900   33.3510 H   0  0  0  0  0  0  0  0  0  0  0  0
   38.5330   24.1890   35.2340 C   0  0  2  0  0  3  0  0  0  0  0  0
   37.9510   25.1680   36.2400 C   0  0  0  0  0  3  0  0  0  0  0  0
   36.9250   25.4900   35.9820 H   0  0  0  0  0  0  0  0  0  0  0  0
   38.0500   24.4220   37.5440 C   0  0  0  0  0  3  0  0  0  0  0  0
   37.0180   24.1570   37.8650 H   0  0  0  0  0  0  0  0  0  0  0  0
   38.7490   23.2520   37.3500 O   0  0  0  0  0  0  0  0  0  0  0  0
   39.3830   23.3210   36.1210 C   0  0  0  0  0  3  0  0  0  0  0  0
   39.3860   22.3020   35.6930 H   0  0  0  0  0  0  0  0  0  0  0  0
   36.2280   29.2860   31.5460 C   0  0  0  0  0  0  0  0  0  0  0  0
   36.7420   29.2850   30.2490 C   0  0  0  0  0  0  0  0  0  0  0  0
   37.0590   30.4950   29.6670 C   0  0  0  0  0  0  0  0  0  0  0  0
   36.8560   31.6580   30.3890 N   0  0  0  0  0  0  0  0  0  0  0  0
   36.3500   31.6210   31.6580 C   0  0  0  0  0  0  0  0  0  0  0  0
   36.0520   30.4470   32.1960 N   0  0  0  0  0  0  0  0  0  0  0  0
   36.9990   28.5690   29.4870 H   0  0  0  0  0  0  0  0  0  0  0  0
   37.4560   30.7790   28.7170 H   0  0  0  0  0  0  0  0  0  0  0  0
   36.1840   32.5080   32.2330 H   0  0  0  0  0  0  0  0  0  0  0  0
  1  7  1  1  0  0  0
  1  2  1  0  0  0  0
  2  9  1  0  0  0  0
  2  8  1  0  0  0  0
  3 10  1  6  0  0  0
  3  2  1  0  0  0  0
  3 17  1  0  0  0  0
  4  3  1  0  0  0  0
  4 11  1  0  0  0  0
  5 14  1  0  0  0  0
  5  4  1  0  0  0  0
  6  5  1  0  0  0  0
  6  1  1  0  0  0  0
 12  4  1  0  0  0  0
 13  5  1  0  0  0  0
 15  6  1  0  0  0  0
 16  6  1  0  0  0  0
 17 21  1  0  0  0  0
 17 22  1  1  0  0  0
 18 23  1  0  0  0  0
 18 17  1  0  0  0  0
 18 19  1  0  0  0  0
 19 26  1  0  0  0  0
 20 19  1  0  0  0  0
 21 27  1  6  0  0  0
 21 20  1  0  0  0  0
 21 28  1  0  0  0  0
 24 18  1  0  0  0  0
 25 19  1  0  0  0  0
 28 34  1  1  0  0  0
 28 29  1  0  0  0  0
 29 31  1  0  0  0  0
 30 29  1  0  0  0  0
 31 32  1  0  0  0  0
 33 31  1  0  0  0  0
 34 33  1  0  0  0  0
 35 34  1  0  0  0  0
 36  1  1  0  0  0  0
 36 41  1  0  0  0  0
 37 36  2  0  0  0  0
 38 37  1  0  0  0  0
 38 39  2  0  0  0  0
 39 40  1  0  0  0  0
 40 41  2  0  0  0  0
 40 44  1  0  0  0  0
 42 37  1  0  0  0  0
 43 38  1  0  0  0  0
M  END
>  <minimizedAffinity>
-5.2577796

$$$$

 OpenBabel03262523393D

 44 47  0  0  1  0  0  0  0  0999 V2000
   36.6670   23.7430   30.9470 C   0  0  2  0  0  0  0  0  0  0  0  0
   37.6970   24.3700   31.8150 C   0  0  0  0  0  0  0  0  0  0  0  0
   37.1110   25.3290   32.8470 C   0  0  2  0  0  0  0  0  0  0  0  0
   36.4390   26.4650   32.1080 C   0  0  0  0  0  0  0  0  0  0  0  0
   35.5100   25.9620   31.0220 C   0  0  0  0  0  0  0  0  0  0  0  0
   35.3390   24.4620   31.0670 C   0  0  0  0  0  0  0  0  0  0  0  0
   36.9380   23.7540   29.8500 H   0  0  0  0  0  0  0  0  0  0  0  0
   38.2600   25.0890   31.1150 H   0  0  0  0  0  0  0  0  0  0  0  0
   38.4530   23.8080   32.2860 H   0  0  0  0  0  0  0  0  0  0  0  0
   36.2700   24.7860   33.3210 H   0  0  0  0  0  0  0  0  0  0  0  0
   37.1260   27.2500   31.7650 H   0  0  0  0  0  0  0  0  0  0  0  0
   35.7830   26.9740   32.8700 H   0  0  0  0  0  0  0  0  0  0  0  0
   34.5530   26.4690   30.9620 H   0  0  0  0  0  0  0  0  0  0  0  0
   36.0300   26.1640   30.0460 H   0  0  0  0  0  0  0  0  0  0  0  0
   34.7840   24.1360   31.9710 H   0  0  0  0  0  0  0  0  0  0  0  0
   34.7320   24.1830   30.1860 H   0  0  0  0  0  0  0  0  0  0  0  0
   38.0650   25.7140   33.8850 C   0  0  2  0  0  0  0  0  0  0  0  0
   37.4460   26.1100   35.2200 C   0  0  0  0  0  0  0  0  0  0  0  0
   38.7310   26.6340   35.8850 C   0  0  0  0  0  0  0  0  0  0  0  0
   39.3460   27.3710   34.9030 O   0  0  0  0  0  0  0  0  0  0  0  0
   38.9380   26.8770   33.6530 C   0  0  1  0  0  0  0  0  0  0  0  0
   38.7060   24.8380   34.1190 H   0  0  0  0  0  0  0  0  0  0  0  0
   37.0860   25.2030   35.7110 H   0  0  0  0  0  0  0  0  0  0  0  0
   36.6920   26.9030   35.1300 H   0  0  0  0  0  0  0  0  0  0  0  0
   38.5050   27.1940   36.7950 H   0  0  0  0  0  0  0  0  0  0  0  0
   39.3270   25.7060   36.0780 H   0  0  0  0  0  0  0  0  0  0  0  0
   38.5050   27.7460   33.1400 H   0  0  0  0  0  0  0  0  0  0  0  0
   40.2380   26.5840   32.9330 C   0  0  2  0  0  3  0  0  0  0  0  0
   41.3450   27.3870   33.5950 C   0  0  0  0  0  3  0  0  0  0  0  0
   41.8720   26.8220   34.3850 H   0  0  0  0  0  0  0  0  0  0  0  0
   42.2210   27.7850   32.4370 C   0  0  0  0  0  3  0  0  0  0  0  0
   43.1770   27.2230   32.5240 H   0  0  0  0  0  0  0  0  0  0  0  0
   41.6160   27.4170   31.2570 O   0  0  0  0  0  0  0  0  0  0  0  0
   40.2930   27.1060   31.5230 C   0  0  0  0  0  3  0  0  0  0  0  0
   40.0050   26.2820   30.8460 H   0  0  0  0  0  0  0  0  0  0  0  0
   36.4280   22.3200   31.2700 C   0  0  0  0  0  0  0  0  0  0  0  0
   35.3070   22.0640   32.0620 C   0  0  0  0  0  0  0  0  0  0  0  0
   35.0170   20.7540   32.3830 C   0  0  0  0  0  0  0  0  0  0  0  0
   35.8440   19.7500   31.9110 N   0  0  0  0  0  0  0  0  0  0  0  0
   36.9330   20.0390   31.1380 C   0  0  0  0  0  0  0  0  0  0  0  0
   37.1920   21.3040   30.8410 N   0  0  0  0  0  0  0  0  0  0  0  0
   34.5260   22.6190   32.5510 H   0  0  0  0  0  0  0  0  0  0  0  0
   34.2470   20.2850   32.9550 H   0  0  0  0  0  0  0  0  0  0  0  0
   37.5850   19.2780   30.7620 H   0  0  0  0  0  0  0  0  0  0  0  0
  1  7  1  6  0  0  0
  1  6  1  0  0  0  0
  1 36  1  0  0  0  0
  1  2  1  0  0  0  0
  2  9  1  0  0  0  0
  2  3  1  0  0  0  0
  3 10  1  1  0  0  0
  3 17  1  0  0  0  0
  4  3  1  0  0  0  0
  4 12  1  0  0  0  0
  5  6  1  0  0  0  0
  5  4  1  0  0  0  0
  6 15  1  0  0  0  0
  8  2  1  0  0  0  0
 11  4  1  0  0  0  0
 13  5  1  0  0  0  0
 14  5  1  0  0  0  0
 16  6  1  0  0  0  0
 17 22  1  1  0  0  0
 17 18  1  0  0  0  0
 18 23  1  0  0  0  0
 18 19  1  0  0  0  0
 19 26  1  0  0  0  0
 19 25  1  0  0  0  0
 20 19  1  0  0  0  0
 21 27  1  6  0  0  0
 21 17  1  0  0  0  0
 21 20  1  0  0  0  0
 24 18  1  0  0  0  0
 28 34  1  6  0  0  0
 28 29  1  0  0  0  0
 28 21  1  0  0  0  0
 29 30  1  0  0  0  0
 31 32  1  0  0  0  0
 31 29  1  0  0  0  0
 33 34  1  0  0  0  0
 33 31  1  0  0  0  0
 35 34  1  0  0  0  0
 36 37  1  0  0  0  0
 37 38  2  0  0  0  0
 37 42  1  0  0  0  0
 38 43  1  0  0  0  0
 39 38  1  0  0  0  0
 40 39  2  0  0  0  0
 41 40  1  0  0  0  0
 41 36  2  0  0  0  0
 44 40  1  0  0  0  0
M  END
>  <minimizedAffinity>
-5.23681116

$$$$

 OpenBabel03262523393D

 44 47  0  0  1  0  0  0  0  0999 V2000
   38.6790   26.1860   35.8290 C   0  0  2  0  0  0  0  0  0  0  0  0
   37.6390   26.6720   34.8840 C   0  0  0  0  0  0  0  0  0  0  0  0
   37.9820   26.4030   33.4220 C   0  0  2  0  0  0  0  0  0  0  0  0
   39.2440   27.1660   33.0850 C   0  0  0  0  0  0  0  0  0  0  0  0
   40.3370   26.9330   34.1080 C   0  0  0  0  0  0  0  0  0  0  0  0
   39.9670   25.8580   35.1020 C   0  0  0  0  0  0  0  0  0  0  0  0
   38.9450   26.9380   36.6280 H   0  0  0  0  0  0  0  0  0  0  0  0
   37.7180   27.8190   34.9400 H   0  0  0  0  0  0  0  0  0  0  0  0
   36.6160   26.4670   35.0210 H   0  0  0  0  0  0  0  0  0  0  0  0
   38.2930   25.3410   33.3750 H   0  0  0  0  0  0  0  0  0  0  0  0
   39.0820   28.2270   32.8540 H   0  0  0  0  0  0  0  0  0  0  0  0
   39.6180   26.7190   32.1200 H   0  0  0  0  0  0  0  0  0  0  0  0
   41.3270   26.7690   33.6960 H   0  0  0  0  0  0  0  0  0  0  0  0
   40.4050   27.8760   34.7140 H   0  0  0  0  0  0  0  0  0  0  0  0
   39.9200   24.8550   34.6290 H   0  0  0  0  0  0  0  0  0  0  0  0
   40.7740   25.8310   35.8570 H   0  0  0  0  0  0  0  0  0  0  0  0
   36.8510   26.6010   32.5170 C   0  0  2  0  0  0  0  0  0  0  0  0
   36.4340   25.3700   31.7220 C   0  0  0  0  0  0  0  0  0  0  0  0
   35.4280   26.0690   30.7910 C   0  0  0  0  0  0  0  0  0  0  0  0
   36.0590   27.2320   30.4210 O   0  0  0  0  0  0  0  0  0  0  0  0
   36.9760   27.5810   31.4260 C   0  0  1  0  0  0  0  0  0  0  0  0
   35.9570   26.8640   33.1220 H   0  0  0  0  0  0  0  0  0  0  0  0
   35.9310   24.6790   32.4020 H   0  0  0  0  0  0  0  0  0  0  0  0
   37.2600   24.9220   31.1520 H   0  0  0  0  0  0  0  0  0  0  0  0
   35.1480   25.4240   29.9560 H   0  0  0  0  0  0  0  0  0  0  0  0
   34.5690   26.3140   31.4640 H   0  0  0  0  0  0  0  0  0  0  0  0
   37.9420   27.6480   30.9080 H   0  0  0  0  0  0  0  0  0  0  0  0
   36.6050   29.0060   31.7820 C   0  0  2  0  0  3  0  0  0  0  0  0
   35.4490   28.9680   32.7670 C   0  0  0  0  0  3  0  0  0  0  0  0
   35.7820   28.9900   33.8210 H   0  0  0  0  0  0  0  0  0  0  0  0
   34.6140   30.1540   32.3630 C   0  0  0  0  0  3  0  0  0  0  0  0
   34.6990   30.9200   33.1660 H   0  0  0  0  0  0  0  0  0  0  0  0
   35.1180   30.6960   31.2030 O   0  0  0  0  0  0  0  0  0  0  0  0
   36.0040   29.7880   30.6460 C   0  0  0  0  0  3  0  0  0  0  0  0
   36.8140   30.3670   30.1680 H   0  0  0  0  0  0  0  0  0  0  0  0
   38.2670   24.9710   36.5640 C   0  0  0  0  0  0  0  0  0  0  0  0
   38.1730   25.1090   37.9490 C   0  0  0  0  0  0  0  0  0  0  0  0
   37.7750   24.0180   38.6920 C   0  0  0  0  0  0  0  0  0  0  0  0
   37.4860   22.8320   38.0380 N   0  0  0  0  0  0  0  0  0  0  0  0
   37.5890   22.7340   36.6800 C   0  0  0  0  0  0  0  0  0  0  0  0
   37.9730   23.7960   35.9860 N   0  0  0  0  0  0  0  0  0  0  0  0
   38.3320   25.8710   38.6930 H   0  0  0  0  0  0  0  0  0  0  0  0
   37.6220   23.8470   39.7350 H   0  0  0  0  0  0  0  0  0  0  0  0
   37.3700   21.8280   36.1540 H   0  0  0  0  0  0  0  0  0  0  0  0
  1 36  1  0  0  0  0
  1  7  1  1  0  0  0
  2  8  1  0  0  0  0
  2  9  1  0  0  0  0
  2  1  1  0  0  0  0
  3 10  1  6  0  0  0
  3  2  1  0  0  0  0
  4  3  1  0  0  0  0
  4  5  1  0  0  0  0
  5 14  1  0  0  0  0
  5  6  1  0  0  0  0
  6  1  1  0  0  0  0
  6 16  1  0  0  0  0
 11  4  1  0  0  0  0
 12  4  1  0  0  0  0
 13  5  1  0  0  0  0
 15  6  1  0  0  0  0
 17 22  1  1  0  0  0
 17  3  1  0  0  0  0
 18 23  1  0  0  0  0
 18 17  1  0  0  0  0
 19 26  1  0  0  0  0
 19 18  1  0  0  0  0
 20 19  1  0  0  0  0
 20 21  1  0  0  0  0
 21 27  1  6  0  0  0
 21 28  1  0  0  0  0
 21 17  1  0  0  0  0
 24 18  1  0  0  0  0
 25 19  1  0  0  0  0
 28 34  1  6  0  0  0
 28 29  1  0  0  0  0
 29 30  1  0  0  0  0
 31 29  1  0  0  0  0
 31 32  1  0  0  0  0
 33 31  1  0  0  0  0
 34 33  1  0  0  0  0
 35 34  1  0  0  0  0
 36 37  1  0  0  0  0
 37 38  2  0  0  0  0
 37 42  1  0  0  0  0
 38 43  1  0  0  0  0
 39 38  1  0  0  0  0
 40 39  2  0  0  0  0
 41 36  2  0  0  0  0
 41 40  1  0  0  0  0
 44 40  1  0  0  0  0
M  END
>  <minimizedAffinity>
-5.23554468

$$$$
