
 OpenBabel03272500193D

 33 35  0  0  1  0  0  0  0  0999 V2000
   35.3560   30.3550   49.1940 C   0  0  0  0  0  0  0  0  0  0  0  0
   36.5210   30.9760   48.6710 C   0  0  0  0  0  0  0  0  0  0  0  0
   36.7670   30.9290   47.3020 C   0  0  0  0  0  0  0  0  0  0  0  0
   35.8340   30.2650   46.5450 N   0  0  0  0  0  0  0  0  0  0  0  0
   34.7600   29.6930   47.0320 C   0  0  0  0  0  0  0  0  0  0  0  0
   34.5060   29.7280   48.3430 N   0  0  0  0  0  0  0  0  0  0  0  0
   35.1690   30.3950   50.2700 H   0  0  0  0  0  0  0  0  0  0  0  0
   32.4360   31.3670   46.0410 Cl  0  0  0  0  0  0  0  0  0  0  0  0
   32.7180   29.6830   45.6050 C   0  0  0  0  0  0  0  0  0  0  0  0
   33.8260   29.0080   46.1250 C   0  0  0  0  0  0  0  0  0  0  0  0
   34.0890   27.6810   45.8090 C   0  0  0  0  0  0  0  0  0  0  0  0
   33.1870   27.0540   44.9460 C   0  0  0  0  0  0  0  0  0  0  0  0
   32.0940   27.6950   44.4250 C   0  0  0  0  0  0  0  0  0  0  0  0
   31.0370   26.8090   43.3550 Cl  0  0  0  0  0  0  0  0  0  0  0  0
   31.8670   29.0260   44.7660 C   0  0  0  0  0  0  0  0  0  0  0  0
   34.9460   27.1650   46.2130 H   0  0  0  0  0  0  0  0  0  0  0  0
   33.4380   26.0230   44.7330 H   0  0  0  0  0  0  0  0  0  0  0  0
   30.6870   29.7320   44.2090 C   0  0  0  0  0  0  0  0  0  0  0  0
   29.5080   29.0740   44.5620 F   0  0  0  0  0  0  0  0  0  0  0  0
   30.7600   29.9020   42.8650 F   0  0  0  0  0  0  0  0  0  0  0  0
   30.5930   30.9930   44.7960 F   0  0  0  0  0  0  0  0  0  0  0  0
   37.9430   31.5480   46.7110 C   0  0  2  0  0  3  0  0  0  0  0  0
   37.7580   32.1490   45.3400 C   0  0  0  0  0  3  0  0  0  0  0  0
   37.0960   31.4850   44.7800 H   0  0  0  0  0  0  0  0  0  0  0  0
   39.2010   32.0690   44.8120 C   0  0  0  0  0  3  0  0  0  0  0  0
   39.7640   32.9590   45.1950 H   0  0  0  0  0  0  0  0  0  0  0  0
   39.7750   30.9800   45.4090 O   0  0  0  0  0  0  0  0  0  0  0  0
   38.8640   30.3960   46.2490 C   0  0  0  0  0  3  0  0  0  0  0  0
   38.2150   29.7340   45.6380 H   0  0  0  0  0  0  0  0  0  0  0  0
   37.4480   31.6610   49.6140 C   0  0  0  0  0  0  0  0  0  0  0  0
   38.7460   31.1950   49.4920 F   0  0  0  0  0  0  0  0  0  0  0  0
   37.4070   33.0150   49.3880 F   0  0  0  0  0  0  0  0  0  0  0  0
   37.0790   31.4700   50.9370 F   0  0  0  0  0  0  0  0  0  0  0  0
  1  7  1  0  0  0  0
  2  1  1  0  0  0  0
  2 30  1  0  0  0  0
  3  2  2  0  0  0  0
  4  5  2  0  0  0  0
  4  3  1  0  0  0  0
  5  6  1  0  0  0  0
  6  1  2  0  0  0  0
  9  8  1  0  0  0  0
  9 10  1  0  0  0  0
 10  5  1  0  0  0  0
 11 10  2  0  0  0  0
 11 16  1  0  0  0  0
 12 11  1  0  0  0  0
 13 15  1  0  0  0  0
 13 12  2  0  0  0  0
 14 13  1  0  0  0  0
 15  9  2  0  0  0  0
 17 12  1  0  0  0  0
 18 19  1  0  0  0  0
 18 15  1  0  0  0  0
 18 21  1  0  0  0  0
 20 18  1  0  0  0  0
 22  3  1  6  0  0  0
 23 22  1  0  0  0  0
 24 23  1  0  0  0  0
 25 26  1  0  0  0  0
 25 23  1  0  0  0  0
 25 27  1  0  0  0  0
 27 28  1  0  0  0  0
 28 22  1  0  0  0  0
 29 28  1  0  0  0  0
 30 33  1  0  0  0  0
 31 30  1  0  0  0  0
 32 30  1  0  0  0  0
M  END
>  <minimizedAffinity>
-5.27575731

>  <minimizedRMSD>
1.6546334

$$$$
