
 OpenBabel03272507563D

 22 23  0  0  1  0  0  0  0  0999 V2000
   37.1800   26.8270   33.5250 C   0  0  0  0  0  0  0  0  0  0  0  0
   37.9330   26.2210   34.5500 C   0  0  0  0  0  0  0  0  0  0  0  0
   38.1870   24.8650   34.4660 C   0  0  0  0  0  0  0  0  0  0  0  0
   37.6980   24.1620   33.3950 N   0  0  0  0  0  0  0  0  0  0  0  0
   36.9730   24.7890   32.4240 C   0  0  0  0  0  0  0  0  0  0  0  0
   36.7110   26.1170   32.4830 N   0  0  0  0  0  0  0  0  0  0  0  0
   36.5480   23.9080   31.3910 N   0  0  0  0  0  0  0  0  0  0  0  0
   36.9450   27.8830   33.5290 H   0  0  0  0  0  0  0  0  0  0  0  0
   37.2990   23.5520   30.7550 H   0  0  0  0  0  0  0  0  0  0  0  0
   35.5080   23.7000   31.3710 H   0  0  0  0  0  0  0  0  0  0  0  0
   38.9720   24.1450   35.4880 C   0  0  2  0  0  3  0  0  0  0  0  0
   40.3680   23.8370   35.0230 C   0  0  0  0  0  3  0  0  0  0  0  0
   40.3660   23.9960   33.9140 H   0  0  0  0  0  0  0  0  0  0  0  0
   40.5140   22.3770   35.3120 C   0  0  0  0  0  3  0  0  0  0  0  0
   41.4250   22.1940   35.9340 H   0  0  0  0  0  0  0  0  0  0  0  0
   39.3980   21.9890   36.0430 O   0  0  0  0  0  0  0  0  0  0  0  0
   38.3590   22.7970   35.6650 C   0  0  0  0  0  3  0  0  0  0  0  0
   37.5550   22.7740   36.4260 H   0  0  0  0  0  0  0  0  0  0  0  0
   38.4170   27.0530   35.6800 C   0  0  0  0  0  0  0  0  0  0  0  0
   39.7940   27.2850   35.6020 F   0  0  0  0  0  0  0  0  0  0  0  0
   37.7710   28.2530   35.6620 F   0  0  0  0  0  0  0  0  0  0  0  0
   38.1900   26.4640   36.9120 F   0  0  0  0  0  0  0  0  0  0  0  0
  1  8  1  0  0  0  0
  1  2  1  0  0  0  0
  2 19  1  0  0  0  0
  3  2  2  0  0  0  0
  4  3  1  0  0  0  0
  5  6  1  0  0  0  0
  5  4  2  0  0  0  0
  6  1  2  0  0  0  0
  7  5  1  0  0  0  0
  9  7  1  0  0  0  0
 10  7  1  0  0  0  0
 11  3  1  6  0  0  0
 11 17  1  0  0  0  0
 12 14  1  0  0  0  0
 12 11  1  0  0  0  0
 13 12  1  0  0  0  0
 14 15  1  0  0  0  0
 14 16  1  0  0  0  0
 17 16  1  0  0  0  0
 17 18  1  0  0  0  0
 19 22  1  0  0  0  0
 20 19  1  0  0  0  0
 21 19  1  0  0  0  0
M  END
>  <minimizedAffinity>
-4.46978426

$$$$

 OpenBabel03272507563D

 22 23  0  0  1  0  0  0  0  0999 V2000
   40.2170   22.8300   37.2440 C   0  0  0  0  0  0  0  0  0  0  0  0
   39.1160   23.6950   37.0830 C   0  0  0  0  0  0  0  0  0  0  0  0
   39.1160   24.5650   36.0090 C   0  0  0  0  0  0  0  0  0  0  0  0
   40.1810   24.5570   35.1460 N   0  0  0  0  0  0  0  0  0  0  0  0
   41.2270   23.7020   35.3400 C   0  0  0  0  0  0  0  0  0  0  0  0
   41.2500   22.8390   36.3850 N   0  0  0  0  0  0  0  0  0  0  0  0
   42.2400   23.8300   34.3500 N   0  0  0  0  0  0  0  0  0  0  0  0
   40.2800   22.1250   38.0620 H   0  0  0  0  0  0  0  0  0  0  0  0
   41.9920   23.4850   33.3940 H   0  0  0  0  0  0  0  0  0  0  0  0
   43.1480   24.2630   34.6840 H   0  0  0  0  0  0  0  0  0  0  0  0
   38.0040   25.5030   35.7560 C   0  0  2  0  0  3  0  0  0  0  0  0
   37.6990   25.6420   34.2900 C   0  0  0  0  0  3  0  0  0  0  0  0
   38.5750   25.2020   33.7480 H   0  0  0  0  0  0  0  0  0  0  0  0
   37.6820   27.1230   34.0790 C   0  0  0  0  0  3  0  0  0  0  0  0
   36.7210   27.4360   33.6000 H   0  0  0  0  0  0  0  0  0  0  0  0
   37.7620   27.7170   35.3320 O   0  0  0  0  0  0  0  0  0  0  0  0
   38.4640   26.8680   36.1450 C   0  0  0  0  0  3  0  0  0  0  0  0
   38.2770   27.1090   37.2100 H   0  0  0  0  0  0  0  0  0  0  0  0
   38.0070   23.6470   38.0690 C   0  0  0  0  0  0  0  0  0  0  0  0
   36.7920   23.3070   37.4680 F   0  0  0  0  0  0  0  0  0  0  0  0
   38.2970   22.7180   39.0240 F   0  0  0  0  0  0  0  0  0  0  0  0
   37.8030   24.8610   38.7020 F   0  0  0  0  0  0  0  0  0  0  0  0
  1  8  1  0  0  0  0
  2  1  1  0  0  0  0
  2 19  1  0  0  0  0
  3  2  2  0  0  0  0
  4  5  2  0  0  0  0
  4  3  1  0  0  0  0
  5  6  1  0  0  0  0
  6  1  2  0  0  0  0
  7 10  1  0  0  0  0
  7  5  1  0  0  0  0
  9  7  1  0  0  0  0
 11  3  1  6  0  0  0
 11 17  1  0  0  0  0
 12 11  1  0  0  0  0
 13 12  1  0  0  0  0
 14 12  1  0  0  0  0
 14 16  1  0  0  0  0
 15 14  1  0  0  0  0
 16 17  1  0  0  0  0
 17 18  1  0  0  0  0
 19 22  1  0  0  0  0
 19 21  1  0  0  0  0
 20 19  1  0  0  0  0
M  END
>  <minimizedAffinity>
-4.46393347

$$$$

 OpenBabel03272507563D

 22 23  0  0  1  0  0  0  0  0999 V2000
   37.1950   22.0010   36.3340 C   0  0  0  0  0  0  0  0  0  0  0  0
   37.9860   23.1210   36.6610 C   0  0  0  0  0  0  0  0  0  0  0  0
   38.5980   23.8140   35.6340 C   0  0  0  0  0  0  0  0  0  0  0  0
   38.4150   23.3920   34.3440 N   0  0  0  0  0  0  0  0  0  0  0  0
   37.6400   22.3020   34.0720 C   0  0  0  0  0  0  0  0  0  0  0  0
   37.0290   21.6040   35.0610 N   0  0  0  0  0  0  0  0  0  0  0  0
   37.5610   22.0080   32.6830 N   0  0  0  0  0  0  0  0  0  0  0  0
   36.6880   21.4140   37.0890 H   0  0  0  0  0  0  0  0  0  0  0  0
   37.0100   22.6820   32.1020 H   0  0  0  0  0  0  0  0  0  0  0  0
   38.0710   21.1310   32.3750 H   0  0  0  0  0  0  0  0  0  0  0  0
   39.4400   25.0020   35.8790 C   0  0  2  0  0  3  0  0  0  0  0  0
   38.7510   26.2810   35.4880 C   0  0  0  0  0  3  0  0  0  0  0  0
   37.8750   25.9790   34.8580 H   0  0  0  0  0  0  0  0  0  0  0  0
   39.7630   26.9700   34.6300 C   0  0  0  0  0  3  0  0  0  0  0  0
   39.9560   28.0030   35.0100 H   0  0  0  0  0  0  0  0  0  0  0  0
   40.9430   26.2420   34.7190 O   0  0  0  0  0  0  0  0  0  0  0  0
   40.6020   24.9350   34.9460 C   0  0  0  0  0  3  0  0  0  0  0  0
   41.4660   24.3760   35.3570 H   0  0  0  0  0  0  0  0  0  0  0  0
   38.1400   23.5070   38.0870 C   0  0  0  0  0  0  0  0  0  0  0  0
   37.8570   24.8600   38.2910 F   0  0  0  0  0  0  0  0  0  0  0  0
   37.2890   22.7620   38.8460 F   0  0  0  0  0  0  0  0  0  0  0  0
   39.4250   23.3010   38.5580 F   0  0  0  0  0  0  0  0  0  0  0  0
  1  2  1  0  0  0  0
  1  8  1  0  0  0  0
  2 19  1  0  0  0  0
  3  2  2  0  0  0  0
  4  3  1  0  0  0  0
  5  4  2  0  0  0  0
  5  6  1  0  0  0  0
  6  1  2  0  0  0  0
  7  5  1  0  0  0  0
  9  7  1  0  0  0  0
 10  7  1  0  0  0  0
 11  3  1  6  0  0  0
 12 11  1  0  0  0  0
 13 12  1  0  0  0  0
 14 16  1  0  0  0  0
 14 15  1  0  0  0  0
 14 12  1  0  0  0  0
 16 17  1  0  0  0  0
 17 18  1  0  0  0  0
 17 11  1  0  0  0  0
 19 20  1  0  0  0  0
 19 22  1  0  0  0  0
 19 21  1  0  0  0  0
M  END
>  <minimizedAffinity>
-4.41588783

$$$$

 OpenBabel03272507563D

 22 23  0  0  1  0  0  0  0  0999 V2000
   40.7420   22.5090   37.6820 C   0  0  0  0  0  0  0  0  0  0  0  0
   39.5240   22.9170   37.1010 C   0  0  0  0  0  0  0  0  0  0  0  0
   39.3310   22.6860   35.7520 C   0  0  0  0  0  0  0  0  0  0  0  0
   40.3230   22.0740   35.0320 N   0  0  0  0  0  0  0  0  0  0  0  0
   41.4870   21.6960   35.6350 C   0  0  0  0  0  0  0  0  0  0  0  0
   41.7020   21.9100   36.9560 N   0  0  0  0  0  0  0  0  0  0  0  0
   42.4020   21.0760   34.7390 N   0  0  0  0  0  0  0  0  0  0  0  0
   40.9580   22.6590   38.7310 H   0  0  0  0  0  0  0  0  0  0  0  0
   42.1380   20.1220   34.4010 H   0  0  0  0  0  0  0  0  0  0  0  0
   43.2640   21.6480   34.5030 H   0  0  0  0  0  0  0  0  0  0  0  0
   38.0860   23.0730   35.0580 C   0  0  2  0  0  3  0  0  0  0  0  0
   37.4980   21.9370   34.2660 C   0  0  0  0  0  3  0  0  0  0  0  0
   38.3060   21.1640   34.1890 H   0  0  0  0  0  0  0  0  0  0  0  0
   37.2640   22.5410   32.9180 C   0  0  0  0  0  3  0  0  0  0  0  0
   36.2000   22.3930   32.6070 H   0  0  0  0  0  0  0  0  0  0  0  0
   37.5030   23.9050   33.0320 O   0  0  0  0  0  0  0  0  0  0  0  0
   38.4410   24.0770   34.0130 C   0  0  0  0  0  3  0  0  0  0  0  0
   38.4280   25.1210   34.3830 H   0  0  0  0  0  0  0  0  0  0  0  0
   38.5040   23.5820   37.9500 C   0  0  0  0  0  0  0  0  0  0  0  0
   37.3110   22.8560   37.9920 F   0  0  0  0  0  0  0  0  0  0  0  0
   38.9880   23.7020   39.2190 F   0  0  0  0  0  0  0  0  0  0  0  0
   38.1760   24.8470   37.4960 F   0  0  0  0  0  0  0  0  0  0  0  0
  1  8  1  0  0  0  0
  2  1  1  0  0  0  0
  2 19  1  0  0  0  0
  3  2  2  0  0  0  0
  4  5  2  0  0  0  0
  4  3  1  0  0  0  0
  5  6  1  0  0  0  0
  6  1  2  0  0  0  0
  7  5  1  0  0  0  0
  9  7  1  0  0  0  0
 10  7  1  0  0  0  0
 11  3  1  6  0  0  0
 12 11  1  0  0  0  0
 13 12  1  0  0  0  0
 14 16  1  0  0  0  0
 14 12  1  0  0  0  0
 15 14  1  0  0  0  0
 16 17  1  0  0  0  0
 17 18  1  0  0  0  0
 17 11  1  0  0  0  0
 19 20  1  0  0  0  0
 19 21  1  0  0  0  0
 22 19  1  0  0  0  0
M  END
>  <minimizedAffinity>
-4.36081982

$$$$

 OpenBabel03272507563D

 22 23  0  0  1  0  0  0  0  0999 V2000
   33.2550   30.5280   35.4860 C   0  0  0  0  0  0  0  0  0  0  0  0
   34.5150   30.5320   34.8550 C   0  0  0  0  0  0  0  0  0  0  0  0
   34.6210   29.9690   33.5980 C   0  0  0  0  0  0  0  0  0  0  0  0
   33.5050   29.4300   33.0130 N   0  0  0  0  0  0  0  0  0  0  0  0
   32.3040   29.4480   33.6600 C   0  0  0  0  0  0  0  0  0  0  0  0
   32.1730   29.9940   34.8940 N   0  0  0  0  0  0  0  0  0  0  0  0
   31.2570   28.8470   32.9070 N   0  0  0  0  0  0  0  0  0  0  0  0
   33.1020   30.9520   36.4700 H   0  0  0  0  0  0  0  0  0  0  0  0
   30.9360   29.3780   32.0640 H   0  0  0  0  0  0  0  0  0  0  0  0
   30.9070   27.9180   33.2780 H   0  0  0  0  0  0  0  0  0  0  0  0
   35.8980   29.9320   32.8570 C   0  0  2  0  0  3  0  0  0  0  0  0
   35.7570   30.4490   31.4510 C   0  0  0  0  0  3  0  0  0  0  0  0
   34.6570   30.4770   31.2410 H   0  0  0  0  0  0  0  0  0  0  0  0
   36.3900   29.3760   30.6240 C   0  0  0  0  0  3  0  0  0  0  0  0
   37.1820   29.8110   29.9650 H   0  0  0  0  0  0  0  0  0  0  0  0
   36.9910   28.4810   31.5010 O   0  0  0  0  0  0  0  0  0  0  0  0
   36.2710   28.5010   32.6640 C   0  0  0  0  0  3  0  0  0  0  0  0
   36.8700   28.0850   33.4980 H   0  0  0  0  0  0  0  0  0  0  0  0
   35.6770   31.1280   35.5620 C   0  0  0  0  0  0  0  0  0  0  0  0
   36.2330   32.1900   34.8430 F   0  0  0  0  0  0  0  0  0  0  0  0
   35.2710   31.5890   36.7790 F   0  0  0  0  0  0  0  0  0  0  0  0
   36.6990   30.2190   35.7690 F   0  0  0  0  0  0  0  0  0  0  0  0
  1  8  1  0  0  0  0
  2  1  2  0  0  0  0
  2 19  1  0  0  0  0
  3  2  1  0  0  0  0
  4  3  2  0  0  0  0
  4  5  1  0  0  0  0
  5  6  2  0  0  0  0
  6  1  1  0  0  0  0
  7 10  1  0  0  0  0
  7  5  1  0  0  0  0
  9  7  1  0  0  0  0
 11  3  1  1  0  0  0
 12 11  1  0  0  0  0
 13 12  1  0  0  0  0
 14 12  1  0  0  0  0
 14 16  1  0  0  0  0
 15 14  1  0  0  0  0
 16 17  1  0  0  0  0
 17 11  1  0  0  0  0
 17 18  1  0  0  0  0
 19 22  1  0  0  0  0
 19 21  1  0  0  0  0
 20 19  1  0  0  0  0
M  END
>  <minimizedAffinity>
-4.35866404

$$$$

 OpenBabel03272507563D

 22 23  0  0  1  0  0  0  0  0999 V2000
   40.9030   22.9770   36.4380 C   0  0  0  0  0  0  0  0  0  0  0  0
   40.6390   24.0610   35.5760 C   0  0  0  0  0  0  0  0  0  0  0  0
   39.4180   24.7010   35.6810 C   0  0  0  0  0  0  0  0  0  0  0  0
   38.5140   24.2610   36.6120 N   0  0  0  0  0  0  0  0  0  0  0  0
   38.8110   23.2070   37.4260 C   0  0  0  0  0  0  0  0  0  0  0  0
   40.0010   22.5620   37.3440 N   0  0  0  0  0  0  0  0  0  0  0  0
   37.7590   22.8880   38.3300 N   0  0  0  0  0  0  0  0  0  0  0  0
   41.8380   22.4320   36.4090 H   0  0  0  0  0  0  0  0  0  0  0  0
   37.5910   23.5770   39.0990 H   0  0  0  0  0  0  0  0  0  0  0  0
   37.2500   21.9800   38.1300 H   0  0  0  0  0  0  0  0  0  0  0  0
   39.0550   25.8490   34.8260 C   0  0  2  0  0  3  0  0  0  0  0  0
   38.8170   27.1010   35.6240 C   0  0  0  0  0  3  0  0  0  0  0  0
   38.7120   26.7730   36.6910 H   0  0  0  0  0  0  0  0  0  0  0  0
   37.4920   27.5820   35.1240 C   0  0  0  0  0  3  0  0  0  0  0  0
   37.5690   28.6440   34.7830 H   0  0  0  0  0  0  0  0  0  0  0  0
   37.1540   26.7930   34.0320 O   0  0  0  0  0  0  0  0  0  0  0  0
   37.7210   25.5620   34.2240 C   0  0  0  0  0  3  0  0  0  0  0  0
   37.7800   25.0090   33.2660 H   0  0  0  0  0  0  0  0  0  0  0  0
   41.6700   24.4680   34.5890 C   0  0  0  0  0  0  0  0  0  0  0  0
   41.1730   24.4530   33.2830 F   0  0  0  0  0  0  0  0  0  0  0  0
   42.0940   25.7310   34.8800 F   0  0  0  0  0  0  0  0  0  0  0  0
   42.7740   23.6340   34.5970 F   0  0  0  0  0  0  0  0  0  0  0  0
  1  6  1  0  0  0  0
  2  3  1  0  0  0  0
  2  1  2  0  0  0  0
  3  4  2  0  0  0  0
  4  5  1  0  0  0  0
  5  7  1  0  0  0  0
  6  5  2  0  0  0  0
  7  9  1  0  0  0  0
  8  1  1  0  0  0  0
 10  7  1  0  0  0  0
 11 12  1  0  0  0  0
 11  3  1  1  0  0  0
 12 13  1  0  0  0  0
 14 12  1  0  0  0  0
 15 14  1  0  0  0  0
 16 17  1  0  0  0  0
 16 14  1  0  0  0  0
 17 11  1  0  0  0  0
 18 17  1  0  0  0  0
 19 22  1  0  0  0  0
 19 21  1  0  0  0  0
 19  2  1  0  0  0  0
 20 19  1  0  0  0  0
M  END
>  <minimizedAffinity>
-4.28120136

$$$$

 OpenBabel03272507563D

 22 23  0  0  1  0  0  0  0  0999 V2000
   37.8970   24.4040   33.3420 C   0  0  0  0  0  0  0  0  0  0  0  0
   37.2080   23.6590   32.3640 C   0  0  0  0  0  0  0  0  0  0  0  0
   36.8810   22.3470   32.6490 C   0  0  0  0  0  0  0  0  0  0  0  0
   37.2370   21.8200   33.8630 N   0  0  0  0  0  0  0  0  0  0  0  0
   37.9050   22.5780   34.7810 C   0  0  0  0  0  0  0  0  0  0  0  0
   38.2360   23.8670   34.5270 N   0  0  0  0  0  0  0  0  0  0  0  0
   38.1920   21.8710   35.9820 N   0  0  0  0  0  0  0  0  0  0  0  0
   38.1830   25.4360   33.1850 H   0  0  0  0  0  0  0  0  0  0  0  0
   37.3720   21.6550   36.5940 H   0  0  0  0  0  0  0  0  0  0  0  0
   39.2150   21.6350   36.1350 H   0  0  0  0  0  0  0  0  0  0  0  0
   36.1540   21.4910   31.6900 C   0  0  2  0  0  3  0  0  0  0  0  0
   34.8720   20.9530   32.2630 C   0  0  0  0  0  3  0  0  0  0  0  0
   34.9330   21.1230   33.3690 H   0  0  0  0  0  0  0  0  0  0  0  0
   34.9580   19.4860   31.9840 C   0  0  0  0  0  3  0  0  0  0  0  0
   34.0460   19.1420   31.4360 H   0  0  0  0  0  0  0  0  0  0  0  0
   36.0630   19.2870   31.1670 O   0  0  0  0  0  0  0  0  0  0  0  0
   36.9740   20.2660   31.4630 C   0  0  0  0  0  3  0  0  0  0  0  0
   37.7090   20.3730   30.6410 H   0  0  0  0  0  0  0  0  0  0  0  0
   36.8670   24.3030   31.0710 C   0  0  0  0  0  0  0  0  0  0  0  0
   35.5090   24.1720   30.7680 F   0  0  0  0  0  0  0  0  0  0  0  0
   37.1740   25.6290   31.1360 F   0  0  0  0  0  0  0  0  0  0  0  0
   37.5590   23.7560   30.0050 F   0  0  0  0  0  0  0  0  0  0  0  0
  1  6  1  0  0  0  0
  2  3  1  0  0  0  0
  2  1  2  0  0  0  0
  3  4  2  0  0  0  0
  4  5  1  0  0  0  0
  5  7  1  0  0  0  0
  6  5  2  0  0  0  0
  7 10  1  0  0  0  0
  7  9  1  0  0  0  0
  8  1  1  0  0  0  0
 11 12  1  0  0  0  0
 11  3  1  1  0  0  0
 12 13  1  0  0  0  0
 14 12  1  0  0  0  0
 15 14  1  0  0  0  0
 16 17  1  0  0  0  0
 16 14  1  0  0  0  0
 17 11  1  0  0  0  0
 18 17  1  0  0  0  0
 19 21  1  0  0  0  0
 19  2  1  0  0  0  0
 20 19  1  0  0  0  0
 22 19  1  0  0  0  0
M  END
>  <minimizedAffinity>
-4.27353716

$$$$

 OpenBabel03272507563D

 22 23  0  0  1  0  0  0  0  0999 V2000
   38.2250   24.5240   35.3460 C   0  0  0  0  0  0  0  0  0  0  0  0
   38.1400   25.8380   34.8420 C   0  0  0  0  0  0  0  0  0  0  0  0
   37.8340   26.0100   33.5050 C   0  0  0  0  0  0  0  0  0  0  0  0
   37.6270   24.9050   32.7220 N   0  0  0  0  0  0  0  0  0  0  0  0
   37.7200   23.6500   33.2510 C   0  0  0  0  0  0  0  0  0  0  0  0
   38.0170   23.4540   34.5590 N   0  0  0  0  0  0  0  0  0  0  0  0
   37.4750   22.6240   32.2970 N   0  0  0  0  0  0  0  0  0  0  0  0
   38.4600   24.3180   36.3820 H   0  0  0  0  0  0  0  0  0  0  0  0
   36.4850   22.5320   31.9670 H   0  0  0  0  0  0  0  0  0  0  0  0
   38.3230   22.0550   32.0140 H   0  0  0  0  0  0  0  0  0  0  0  0
   37.7170   27.3470   32.8910 C   0  0  2  0  0  3  0  0  0  0  0  0
   36.3760   27.5630   32.2440 C   0  0  0  0  0  3  0  0  0  0  0  0
   35.9070   26.5480   32.1610 H   0  0  0  0  0  0  0  0  0  0  0  0
   36.7270   28.0570   30.8770 C   0  0  0  0  0  3  0  0  0  0  0  0
   36.2080   29.0250   30.6690 H   0  0  0  0  0  0  0  0  0  0  0  0
   38.0980   28.2820   30.8610 O   0  0  0  0  0  0  0  0  0  0  0  0
   38.6680   27.4040   31.7430 C   0  0  0  0  0  3  0  0  0  0  0  0
   39.6830   27.7460   32.0280 H   0  0  0  0  0  0  0  0  0  0  0  0
   38.3870   26.9810   35.7570 C   0  0  0  0  0  0  0  0  0  0  0  0
   38.2820   26.6040   37.0990 F   0  0  0  0  0  0  0  0  0  0  0  0
   39.6410   27.4670   35.5360 F   0  0  0  0  0  0  0  0  0  0  0  0
   37.4880   28.0160   35.5710 F   0  0  0  0  0  0  0  0  0  0  0  0
  1  8  1  0  0  0  0
  2  1  1  0  0  0  0
  2 19  1  0  0  0  0
  3  2  2  0  0  0  0
  4  5  2  0  0  0  0
  4  3  1  0  0  0  0
  5  6  1  0  0  0  0
  6  1  2  0  0  0  0
  7  5  1  0  0  0  0
  9  7  1  0  0  0  0
 10  7  1  0  0  0  0
 11  3  1  6  0  0  0
 12 11  1  0  0  0  0
 13 12  1  0  0  0  0
 14 12  1  0  0  0  0
 15 14  1  0  0  0  0
 16 14  1  0  0  0  0
 16 17  1  0  0  0  0
 17 18  1  0  0  0  0
 17 11  1  0  0  0  0
 19 20  1  0  0  0  0
 21 19  1  0  0  0  0
 22 19  1  0  0  0  0
M  END
>  <minimizedAffinity>
-4.26222038

$$$$

 OpenBabel03272507563D

 22 23  0  0  1  0  0  0  0  0999 V2000
   38.2280   25.2560   36.6720 C   0  0  0  0  0  0  0  0  0  0  0  0
   38.3070   25.7020   35.3380 C   0  0  0  0  0  0  0  0  0  0  0  0
   38.1730   24.7710   34.3250 C   0  0  0  0  0  0  0  0  0  0  0  0
   37.9690   23.4560   34.6520 N   0  0  0  0  0  0  0  0  0  0  0  0
   37.8990   23.0670   35.9590 C   0  0  0  0  0  0  0  0  0  0  0  0
   38.0270   23.9600   36.9710 N   0  0  0  0  0  0  0  0  0  0  0  0
   37.6830   21.6700   36.1130 N   0  0  0  0  0  0  0  0  0  0  0  0
   38.3250   25.9310   37.5120 H   0  0  0  0  0  0  0  0  0  0  0  0
   36.7340   21.3200   35.8430 H   0  0  0  0  0  0  0  0  0  0  0  0
   38.5100   21.1210   36.4870 H   0  0  0  0  0  0  0  0  0  0  0  0
   38.2350   25.1450   32.8980 C   0  0  2  0  0  3  0  0  0  0  0  0
   36.8770   25.1680   32.2540 C   0  0  0  0  0  3  0  0  0  0  0  0
   36.1910   24.6300   32.9590 H   0  0  0  0  0  0  0  0  0  0  0  0
   37.0650   24.3410   31.0220 C   0  0  0  0  0  3  0  0  0  0  0  0
   36.7370   24.9120   30.1180 H   0  0  0  0  0  0  0  0  0  0  0  0
   38.4240   24.0780   30.9070 O   0  0  0  0  0  0  0  0  0  0  0  0
   38.9450   24.0520   32.1730 C   0  0  0  0  0  3  0  0  0  0  0  0
   40.0440   24.1850   32.1410 H   0  0  0  0  0  0  0  0  0  0  0  0
   38.5390   27.1430   35.0690 C   0  0  0  0  0  0  0  0  0  0  0  0
   37.4640   27.7250   34.3910 F   0  0  0  0  0  0  0  0  0  0  0  0
   38.7140   27.7960   36.2530 F   0  0  0  0  0  0  0  0  0  0  0  0
   39.6590   27.3660   34.2880 F   0  0  0  0  0  0  0  0  0  0  0  0
  1  6  1  0  0  0  0
  1  8  1  0  0  0  0
  2  1  2  0  0  0  0
  3  4  2  0  0  0  0
  3  2  1  0  0  0  0
  4  5  1  0  0  0  0
  5  7  1  0  0  0  0
  5  6  2  0  0  0  0
  7 10  1  0  0  0  0
  9  7  1  0  0  0  0
 11  3  1  1  0  0  0
 12 11  1  0  0  0  0
 12 13  1  0  0  0  0
 14 12  1  0  0  0  0
 15 14  1  0  0  0  0
 16 14  1  0  0  0  0
 16 17  1  0  0  0  0
 17 11  1  0  0  0  0
 18 17  1  0  0  0  0
 19  2  1  0  0  0  0
 19 21  1  0  0  0  0
 20 19  1  0  0  0  0
 22 19  1  0  0  0  0
M  END
>  <minimizedAffinity>
-4.25458002

$$$$
