
 OpenBabel03272506183D

 33 35  0  0  1  0  0  0  0  0999 V2000
   35.5360   30.2900   49.7630 C   0  0  0  0  0  0  0  0  0  0  0  0
   36.4680   31.1890   48.9800 C   0  0  0  0  0  0  0  0  0  0  0  0
   37.9120   30.8360   49.1720 C   0  0  0  0  0  0  0  0  0  0  0  0
   38.3230   30.8020   50.6190 C   0  0  0  0  0  0  0  0  0  0  0  0
   37.3240   30.1230   51.5030 C   0  0  0  0  0  0  0  0  0  0  0  0
   36.2340   29.4060   50.7330 C   0  0  0  0  0  0  0  0  0  0  0  0
   34.7970   30.9140   50.2880 H   0  0  0  0  0  0  0  0  0  0  0  0
   36.2600   31.2140   47.8990 H   0  0  0  0  0  0  0  0  0  0  0  0
   36.3450   32.2290   49.3390 H   0  0  0  0  0  0  0  0  0  0  0  0
   38.5270   31.6020   48.6820 H   0  0  0  0  0  0  0  0  0  0  0  0
   38.1270   29.8740   48.6480 H   0  0  0  0  0  0  0  0  0  0  0  0
   38.5750   31.8230   50.9830 H   0  0  0  0  0  0  0  0  0  0  0  0
   39.2990   30.2360   50.6380 H   0  0  0  0  0  0  0  0  0  0  0  0
   36.8980   30.8750   52.1870 H   0  0  0  0  0  0  0  0  0  0  0  0
   37.8370   29.3160   52.0880 H   0  0  0  0  0  0  0  0  0  0  0  0
   35.4730   29.1260   51.5130 H   0  0  0  0  0  0  0  0  0  0  0  0
   36.5840   28.4550   50.3200 H   0  0  0  0  0  0  0  0  0  0  0  0
   34.7720   29.4180   48.8190 C   0  0  0  0  0  0  0  0  0  0  0  0
   34.2600   30.0400   47.6680 C   0  0  0  0  0  0  0  0  0  0  0  0
   33.5370   29.2400   46.7820 C   0  0  0  0  0  0  0  0  0  0  0  0
   33.3600   27.9130   47.0660 N   0  0  0  0  0  0  0  0  0  0  0  0
   33.8750   27.3430   48.2010 C   0  0  0  0  0  0  0  0  0  0  0  0
   34.5700   28.0990   49.0550 N   0  0  0  0  0  0  0  0  0  0  0  0
   34.3600   31.0580   47.3920 H   0  0  0  0  0  0  0  0  0  0  0  0
   33.6910   26.2890   48.3510 H   0  0  0  0  0  0  0  0  0  0  0  0
   32.9380   29.7610   45.5260 C   0  0  2  0  0  3  0  0  0  0  0  0
   32.1980   31.0470   45.7610 C   0  0  0  0  0  3  0  0  0  0  0  0
   32.8110   31.9320   45.5350 H   0  0  0  0  0  0  0  0  0  0  0  0
   31.1030   30.9590   44.7300 C   0  0  0  0  0  3  0  0  0  0  0  0
   30.1680   31.3810   45.1780 H   0  0  0  0  0  0  0  0  0  0  0  0
   30.8520   29.6310   44.4600 O   0  0  0  0  0  0  0  0  0  0  0  0
   31.8320   28.8650   45.0250 C   0  0  0  0  0  3  0  0  0  0  0  0
   31.3820   28.2570   45.8450 H   0  0  0  0  0  0  0  0  0  0  0  0
  1  7  1  0  0  0  0
  1  6  1  0  0  0  0
  2  3  1  0  0  0  0
  2  9  1  0  0  0  0
  2  1  1  0  0  0  0
  3  4  1  0  0  0  0
  4 13  1  0  0  0  0
  4 12  1  0  0  0  0
  4  5  1  0  0  0  0
  5 15  1  0  0  0  0
  5 14  1  0  0  0  0
  6  5  1  0  0  0  0
  6 16  1  0  0  0  0
  8  2  1  0  0  0  0
 10  3  1  0  0  0  0
 11  3  1  0  0  0  0
 17  6  1  0  0  0  0
 18 23  1  0  0  0  0
 18  1  1  0  0  0  0
 19 18  2  0  0  0  0
 20 21  2  0  0  0  0
 20 19  1  0  0  0  0
 21 22  1  0  0  0  0
 22 25  1  0  0  0  0
 22 23  2  0  0  0  0
 24 19  1  0  0  0  0
 26 27  1  0  0  0  0
 26 20  1  1  0  0  0
 28 27  1  0  0  0  0
 29 30  1  0  0  0  0
 29 27  1  0  0  0  0
 31 29  1  0  0  0  0
 31 32  1  0  0  0  0
 32 26  1  0  0  0  0
 32 33  1  0  0  0  0
M  END
>  <minimizedAffinity>
-5.19131184

>  <minimizedRMSD>
0.0486847572

$$$$
