
 OpenBabel03272508083D

 23 24  0  0  1  0  0  0  0  0999 V2000
   39.1210   32.6370   48.0580 O   0  0  0  0  0  0  0  0  0  0  0  0
   38.6210   31.6560   47.0450 P   0  0  2  0  0  0  0  0  0  0  0  0
   37.5780   32.4470   45.9620 O   0  0  0  0  0  0  0  0  0  0  0  0
   37.1880   33.2290   46.4650 H   0  0  0  0  0  0  0  0  0  0  0  0
   37.8840   30.2800   47.6980 O   0  0  0  0  0  0  0  0  0  0  0  0
   37.3340   30.1860   51.3620 C   0  0  0  0  0  0  0  0  0  0  0  0
   37.9970   30.4890   50.1750 C   0  0  0  0  0  0  0  0  0  0  0  0
   37.4320   30.0990   48.9640 C   0  0  0  0  0  0  0  0  0  0  0  0
   36.2340   29.4270   49.0090 N   0  0  0  0  0  0  0  0  0  0  0  0
   35.6270   29.1530   50.1880 C   0  0  0  0  0  0  0  0  0  0  0  0
   36.1650   29.5250   51.3470 N   0  0  0  0  0  0  0  0  0  0  0  0
   37.9060   30.5570   52.2080 H   0  0  0  0  0  0  0  0  0  0  0  0
   38.9350   31.0120   50.0610 H   0  0  0  0  0  0  0  0  0  0  0  0
   34.6840   28.6240   50.2430 H   0  0  0  0  0  0  0  0  0  0  0  0
   39.9650   31.1490   46.1290 O   0  0  0  0  0  0  0  0  0  0  0  0
   39.5600   31.0500   44.8100 C   0  0  1  0  0  0  0  0  0  0  0  0
   40.5980   31.4020   43.8000 C   0  0  0  0  0  0  0  0  0  0  0  0
   41.6350   31.4870   44.2390 H   0  0  0  0  0  0  0  0  0  0  0  0
   40.5350   30.2330   42.8270 C   0  0  0  0  0  0  0  0  0  0  0  0
   41.2760   29.4460   43.0570 H   0  0  0  0  0  0  0  0  0  0  0  0
   39.2530   29.6970   43.0210 O   0  0  0  0  0  0  0  0  0  0  0  0
   39.1720   29.6390   44.4290 C   0  0  0  0  0  0  0  0  0  0  0  0
   38.1090   29.4030   44.6890 H   0  0  0  0  0  0  0  0  0  0  0  0
  2  5  1  0  0  0  0
  2  1  2  1  0  0  0
  3  4  1  0  0  0  0
  3  2  1  0  0  0  0
  5  8  1  0  0  0  0
  6 12  1  0  0  0  0
  7  6  2  0  0  0  0
  8  9  2  0  0  0  0
  8  7  1  0  0  0  0
  9 10  1  0  0  0  0
 10 14  1  0  0  0  0
 10 11  2  0  0  0  0
 11  6  1  0  0  0  0
 13  7  1  0  0  0  0
 15  2  1  0  0  0  0
 16 15  1  1  0  0  0
 17 18  1  0  0  0  0
 17 16  1  0  0  0  0
 19 21  1  0  0  0  0
 19 20  1  0  0  0  0
 19 17  1  0  0  0  0
 21 22  1  0  0  0  0
 22 23  1  0  0  0  0
 22 16  1  0  0  0  0
M  END
>  <minimizedAffinity>
-4.96474457

>  <minimizedRMSD>
0.563607395

$$$$
