
 OpenBabel03272504053D

 40 43  0  0  1  0  0  0  0  0999 V2000
   36.7020   26.5590   31.8330 C   0  0  0  0  0  0  0  0  0  0  0  0
   36.3000   27.5430   31.6070 H   0  0  0  0  0  0  0  0  0  0  0  0
   37.6390   26.4740   31.2090 H   0  0  0  0  0  0  0  0  0  0  0  0
   37.1500   26.4180   33.2280 C   0  0  0  0  0  0  0  0  0  0  0  0
   37.0730   27.4730   34.1440 C   0  0  0  0  0  0  0  0  0  0  0  0
   37.5630   27.0230   35.3370 C   0  0  0  0  0  0  0  0  0  0  0  0
   37.9240   25.7430   35.1520 N   0  0  0  0  0  0  0  0  0  0  0  0
   37.6680   25.4220   33.9030 N   0  0  0  0  0  0  0  0  0  0  0  0
   36.6910   28.4770   33.9450 H   0  0  0  0  0  0  0  0  0  0  0  0
   37.6720   27.5360   36.2880 H   0  0  0  0  0  0  0  0  0  0  0  0
   38.4910   24.7820   36.0380 C   0  0  0  0  0  0  0  0  0  0  0  0
   37.8650   24.6550   37.2640 C   0  0  0  0  0  0  0  0  0  0  0  0
   38.2900   23.7630   38.2500 C   0  0  0  0  0  0  0  0  0  0  0  0
   39.4000   22.9840   37.9360 C   0  0  0  0  0  0  0  0  0  0  0  0
   40.0290   23.1090   36.7070 C   0  0  0  0  0  0  0  0  0  0  0  0
   39.5890   23.9990   35.7510 C   0  0  0  0  0  0  0  0  0  0  0  0
   36.9990   25.2480   37.5340 H   0  0  0  0  0  0  0  0  0  0  0  0
   37.7680   23.6980   39.1980 H   0  0  0  0  0  0  0  0  0  0  0  0
   39.7760   22.2740   38.6620 H   0  0  0  0  0  0  0  0  0  0  0  0
   40.8910   22.4920   36.4890 H   0  0  0  0  0  0  0  0  0  0  0  0
   40.0500   24.1280   34.7810 H   0  0  0  0  0  0  0  0  0  0  0  0
   35.7900   25.4710   31.3840 C   0  0  0  0  0  0  0  0  0  0  0  0
   34.9180   25.4940   32.0750 H   0  0  0  0  0  0  0  0  0  0  0  0
   35.3450   25.8190   30.4100 H   0  0  0  0  0  0  0  0  0  0  0  0
   36.3510   24.1740   31.1690 C   0  0  0  0  0  0  0  0  0  0  0  0
   37.6010   24.0240   30.6460 C   0  0  0  0  0  0  0  0  0  0  0  0
   38.1750   22.7520   30.4250 C   0  0  0  0  0  0  0  0  0  0  0  0
   37.3670   21.6760   30.7820 N   0  0  0  0  0  0  0  0  0  0  0  0
   36.1260   21.8770   31.3000 C   0  0  0  0  0  0  0  0  0  0  0  0
   35.6400   23.1160   31.4850 N   0  0  0  0  0  0  0  0  0  0  0  0
   38.2410   24.8500   30.3640 H   0  0  0  0  0  0  0  0  0  0  0  0
   39.1460   22.6200   30.0190 H   0  0  0  0  0  0  0  0  0  0  0  0
   35.3590   20.6380   31.6430 C   0  0  1  0  0  3  0  0  0  0  0  0
   35.9610   19.4130   31.0250 C   0  0  0  0  0  3  0  0  0  0  0  0
   35.2060   18.9740   30.3300 H   0  0  0  0  0  0  0  0  0  0  0  0
   36.1620   18.4390   32.1620 C   0  0  0  0  0  3  0  0  0  0  0  0
   35.7390   17.4410   31.9260 H   0  0  0  0  0  0  0  0  0  0  0  0
   35.4590   18.9480   33.2470 O   0  0  0  0  0  0  0  0  0  0  0  0
   35.4970   20.3310   33.1360 C   0  0  0  0  0  3  0  0  0  0  0  0
   34.7200   20.8120   33.7290 H   0  0  0  0  0  0  0  0  0  0  0  0
  1  4  1  0  0  0  0
  2  1  1  0  0  0  0
  3  1  1  0  0  0  0
  4  8  2  0  0  0  0
  4  5  1  0  0  0  0
  5  6  2  0  0  0  0
  6 10  1  0  0  0  0
  7  6  1  0  0  0  0
  7 11  1  0  0  0  0
  8  7  1  0  0  0  0
  9  5  1  0  0  0  0
 11 12  1  0  0  0  0
 12 17  1  0  0  0  0
 12 13  2  0  0  0  0
 13 18  1  0  0  0  0
 14 13  1  0  0  0  0
 14 19  1  0  0  0  0
 15 14  2  0  0  0  0
 16 11  2  0  0  0  0
 16 15  1  0  0  0  0
 20 15  1  0  0  0  0
 21 16  1  0  0  0  0
 22  1  1  0  0  0  0
 22 23  1  0  0  0  0
 24 22  1  0  0  0  0
 25 22  1  0  0  0  0
 25 30  1  0  0  0  0
 26 25  2  0  0  0  0
 27 26  1  0  0  0  0
 27 28  2  0  0  0  0
 28 29  1  0  0  0  0
 29 30  2  0  0  0  0
 31 26  1  0  0  0  0
 32 27  1  0  0  0  0
 33 29  1  1  0  0  0
 33 39  1  0  0  0  0
 34 33  1  0  0  0  0
 34 36  1  0  0  0  0
 35 34  1  0  0  0  0
 36 38  1  0  0  0  0
 37 36  1  0  0  0  0
 39 38  1  0  0  0  0
 39 40  1  0  0  0  0
M  END
>  <minimizedAffinity>
-6.12065268

$$$$

 OpenBabel03272504053D

 40 43  0  0  1  0  0  0  0  0999 V2000
   36.1890   27.0250   31.1180 C   0  0  0  0  0  0  0  0  0  0  0  0
   35.9390   27.7050   30.3090 H   0  0  0  0  0  0  0  0  0  0  0  0
   37.2530   26.7060   30.9170 H   0  0  0  0  0  0  0  0  0  0  0  0
   36.2210   27.6750   32.4380 C   0  0  0  0  0  0  0  0  0  0  0  0
   37.0030   27.1860   33.4900 C   0  0  0  0  0  0  0  0  0  0  0  0
   36.8120   28.0050   34.5650 C   0  0  0  0  0  0  0  0  0  0  0  0
   35.9450   28.9560   34.1810 N   0  0  0  0  0  0  0  0  0  0  0  0
   35.6200   28.7310   32.9270 N   0  0  0  0  0  0  0  0  0  0  0  0
   37.6520   26.3060   33.4600 H   0  0  0  0  0  0  0  0  0  0  0  0
   37.2370   27.9620   35.5640 H   0  0  0  0  0  0  0  0  0  0  0  0
   35.3870   30.0660   34.8790 C   0  0  0  0  0  0  0  0  0  0  0  0
   34.0190   30.2200   34.7620 C   0  0  0  0  0  0  0  0  0  0  0  0
   33.3110   31.2530   35.3790 C   0  0  0  0  0  0  0  0  0  0  0  0
   34.0630   32.1450   36.1390 C   0  0  0  0  0  0  0  0  0  0  0  0
   35.4360   31.9910   36.2580 C   0  0  0  0  0  0  0  0  0  0  0  0
   36.1100   30.9620   35.6370 C   0  0  0  0  0  0  0  0  0  0  0  0
   33.4090   29.5420   34.1770 H   0  0  0  0  0  0  0  0  0  0  0  0
   32.2370   31.3360   35.2590 H   0  0  0  0  0  0  0  0  0  0  0  0
   33.5690   32.9660   36.6420 H   0  0  0  0  0  0  0  0  0  0  0  0
   35.9960   32.6990   36.8540 H   0  0  0  0  0  0  0  0  0  0  0  0
   37.1790   30.8070   35.7040 H   0  0  0  0  0  0  0  0  0  0  0  0
   35.3590   25.7890   31.0790 C   0  0  0  0  0  0  0  0  0  0  0  0
   34.5990   25.9020   31.8840 H   0  0  0  0  0  0  0  0  0  0  0  0
   34.7390   25.8580   30.1410 H   0  0  0  0  0  0  0  0  0  0  0  0
   36.0350   24.5290   31.0640 C   0  0  0  0  0  0  0  0  0  0  0  0
   37.3490   24.4380   30.7130 C   0  0  0  0  0  0  0  0  0  0  0  0
   38.0360   23.2030   30.6910 C   0  0  0  0  0  0  0  0  0  0  0  0
   37.2690   22.1010   31.0540 N   0  0  0  0  0  0  0  0  0  0  0  0
   35.9600   22.2430   31.3970 C   0  0  0  0  0  0  0  0  0  0  0  0
   35.3660   23.4480   31.3970 N   0  0  0  0  0  0  0  0  0  0  0  0
   37.9580   25.2860   30.4280 H   0  0  0  0  0  0  0  0  0  0  0  0
   39.0580   23.1180   30.4190 H   0  0  0  0  0  0  0  0  0  0  0  0
   35.2470   20.9800   31.7670 C   0  0  1  0  0  3  0  0  0  0  0  0
   35.8450   19.7780   31.1020 C   0  0  0  0  0  3  0  0  0  0  0  0
   35.0640   19.3260   30.4450 H   0  0  0  0  0  0  0  0  0  0  0  0
   36.1360   18.7980   32.2150 C   0  0  0  0  0  3  0  0  0  0  0  0
   35.7260   17.7920   31.9910 H   0  0  0  0  0  0  0  0  0  0  0  0
   35.4820   19.2770   33.3430 O   0  0  0  0  0  0  0  0  0  0  0  0
   35.4760   20.6620   33.2460 C   0  0  0  0  0  3  0  0  0  0  0  0
   34.7220   21.1160   33.8870 H   0  0  0  0  0  0  0  0  0  0  0  0
  1  4  1  0  0  0  0
  2  1  1  0  0  0  0
  3  1  1  0  0  0  0
  4  8  2  0  0  0  0
  4  5  1  0  0  0  0
  5  6  2  0  0  0  0
  6 10  1  0  0  0  0
  7  6  1  0  0  0  0
  7 11  1  0  0  0  0
  8  7  1  0  0  0  0
  9  5  1  0  0  0  0
 11 16  1  0  0  0  0
 12 11  2  0  0  0  0
 12 13  1  0  0  0  0
 13 14  2  0  0  0  0
 14 15  1  0  0  0  0
 14 19  1  0  0  0  0
 15 20  1  0  0  0  0
 16 21  1  0  0  0  0
 16 15  2  0  0  0  0
 17 12  1  0  0  0  0
 18 13  1  0  0  0  0
 22  1  1  0  0  0  0
 22 23  1  0  0  0  0
 24 22  1  0  0  0  0
 25 22  1  0  0  0  0
 25 30  1  0  0  0  0
 26 25  2  0  0  0  0
 27 26  1  0  0  0  0
 27 28  2  0  0  0  0
 28 29  1  0  0  0  0
 30 29  2  0  0  0  0
 31 26  1  0  0  0  0
 32 27  1  0  0  0  0
 33 29  1  6  0  0  0
 33 39  1  0  0  0  0
 34 33  1  0  0  0  0
 34 36  1  0  0  0  0
 35 34  1  0  0  0  0
 36 38  1  0  0  0  0
 37 36  1  0  0  0  0
 39 38  1  0  0  0  0
 39 40  1  0  0  0  0
M  END
>  <minimizedAffinity>
-5.95803976

$$$$

 OpenBabel03272504053D

 40 43  0  0  1  0  0  0  0  0999 V2000
   37.4980   22.7750   31.1540 C   0  0  0  0  0  0  0  0  0  0  0  0
   37.9110   22.4710   30.1970 H   0  0  0  0  0  0  0  0  0  0  0  0
   38.3930   23.0080   31.8010 H   0  0  0  0  0  0  0  0  0  0  0  0
   36.7310   24.0300   31.0870 C   0  0  0  0  0  0  0  0  0  0  0  0
   35.3350   24.0450   31.0040 C   0  0  0  0  0  0  0  0  0  0  0  0
   34.9350   25.3500   30.9580 C   0  0  0  0  0  0  0  0  0  0  0  0
   36.0490   26.1000   31.0110 N   0  0  0  0  0  0  0  0  0  0  0  0
   37.0830   25.2920   31.0860 N   0  0  0  0  0  0  0  0  0  0  0  0
   34.6780   23.1720   30.9810 H   0  0  0  0  0  0  0  0  0  0  0  0
   33.9390   25.7770   30.8910 H   0  0  0  0  0  0  0  0  0  0  0  0
   36.2400   27.5110   30.9980 C   0  0  0  0  0  0  0  0  0  0  0  0
   35.6340   28.2080   32.0260 C   0  0  0  0  0  0  0  0  0  0  0  0
   35.7190   29.5950   32.1650 C   0  0  0  0  0  0  0  0  0  0  0  0
   36.4620   30.2640   31.1950 C   0  0  0  0  0  0  0  0  0  0  0  0
   37.0710   29.5670   30.1630 C   0  0  0  0  0  0  0  0  0  0  0  0
   36.9700   28.1980   30.0510 C   0  0  0  0  0  0  0  0  0  0  0  0
   35.0500   27.7130   32.7940 H   0  0  0  0  0  0  0  0  0  0  0  0
   35.2260   30.0990   32.9880 H   0  0  0  0  0  0  0  0  0  0  0  0
   36.5630   31.3400   31.2500 H   0  0  0  0  0  0  0  0  0  0  0  0
   37.6410   30.1120   29.4230 H   0  0  0  0  0  0  0  0  0  0  0  0
   37.4300   27.6160   29.2620 H   0  0  0  0  0  0  0  0  0  0  0  0
   36.7670   21.6620   31.8200 C   0  0  0  0  0  0  0  0  0  0  0  0
   35.7580   21.6300   31.3520 H   0  0  0  0  0  0  0  0  0  0  0  0
   37.2430   20.7100   31.4500 H   0  0  0  0  0  0  0  0  0  0  0  0
   36.7660   21.6220   33.2490 C   0  0  0  0  0  0  0  0  0  0  0  0
   35.8670   20.8580   33.9330 C   0  0  0  0  0  0  0  0  0  0  0  0
   35.8490   20.8040   35.3450 C   0  0  0  0  0  0  0  0  0  0  0  0
   36.8140   21.5840   35.9730 N   0  0  0  0  0  0  0  0  0  0  0  0
   37.6900   22.3290   35.2460 C   0  0  0  0  0  0  0  0  0  0  0  0
   37.6530   22.3370   33.9030 N   0  0  0  0  0  0  0  0  0  0  0  0
   35.1100   20.2470   33.4590 H   0  0  0  0  0  0  0  0  0  0  0  0
   35.1550   20.2150   35.8890 H   0  0  0  0  0  0  0  0  0  0  0  0
   38.6790   23.1240   36.0420 C   0  0  1  0  0  3  0  0  0  0  0  0
   38.0710   23.7000   37.2830 C   0  0  0  0  0  3  0  0  0  0  0  0
   38.1320   24.8120   37.2100 H   0  0  0  0  0  0  0  0  0  0  0  0
   38.9700   23.2630   38.4180 C   0  0  0  0  0  3  0  0  0  0  0  0
   39.2620   24.1190   39.0610 H   0  0  0  0  0  0  0  0  0  0  0  0
   40.1260   22.7600   37.8350 O   0  0  0  0  0  0  0  0  0  0  0  0
   39.7510   22.1980   36.6210 C   0  0  0  0  0  3  0  0  0  0  0  0
   40.5980   22.0750   35.9470 H   0  0  0  0  0  0  0  0  0  0  0  0
  1  3  1  0  0  0  0
  1 22  1  0  0  0  0
  2  1  1  0  0  0  0
  4  1  1  0  0  0  0
  5  4  1  0  0  0  0
  6  5  2  0  0  0  0
  6  7  1  0  0  0  0
  7  8  1  0  0  0  0
  8  4  2  0  0  0  0
  9  5  1  0  0  0  0
 10  6  1  0  0  0  0
 11  7  1  0  0  0  0
 11 12  1  0  0  0  0
 12 13  2  0  0  0  0
 12 17  1  0  0  0  0
 13 18  1  0  0  0  0
 14 19  1  0  0  0  0
 14 13  1  0  0  0  0
 15 14  2  0  0  0  0
 16 15  1  0  0  0  0
 16 11  2  0  0  0  0
 20 15  1  0  0  0  0
 21 16  1  0  0  0  0
 22 25  1  0  0  0  0
 23 22  1  0  0  0  0
 24 22  1  0  0  0  0
 25 30  2  0  0  0  0
 25 26  1  0  0  0  0
 26 27  2  0  0  0  0
 27 32  1  0  0  0  0
 27 28  1  0  0  0  0
 29 28  2  0  0  0  0
 30 29  1  0  0  0  0
 31 26  1  0  0  0  0
 33 29  1  1  0  0  0
 33 39  1  0  0  0  0
 33 34  1  0  0  0  0
 34 36  1  0  0  0  0
 35 34  1  0  0  0  0
 36 37  1  0  0  0  0
 38 36  1  0  0  0  0
 39 38  1  0  0  0  0
 40 39  1  0  0  0  0
M  END
>  <minimizedAffinity>
-5.92265797

$$$$

 OpenBabel03272504053D

 40 43  0  0  1  0  0  0  0  0999 V2000
   37.4060   27.3650   32.6450 C   0  0  0  0  0  0  0  0  0  0  0  0
   38.0980   27.7800   31.9180 H   0  0  0  0  0  0  0  0  0  0  0  0
   38.0090   27.2420   33.5910 H   0  0  0  0  0  0  0  0  0  0  0  0
   36.3120   28.2830   32.9990 C   0  0  0  0  0  0  0  0  0  0  0  0
   35.2930   28.6090   32.0980 C   0  0  0  0  0  0  0  0  0  0  0  0
   34.4430   29.4740   32.7260 C   0  0  0  0  0  0  0  0  0  0  0  0
   34.9290   29.6670   33.9630 N   0  0  0  0  0  0  0  0  0  0  0  0
   36.0260   28.9530   34.0880 N   0  0  0  0  0  0  0  0  0  0  0  0
   35.1910   28.2400   31.0740 H   0  0  0  0  0  0  0  0  0  0  0  0
   33.5380   29.9540   32.3660 H   0  0  0  0  0  0  0  0  0  0  0  0
   34.4620   30.4610   35.0500 C   0  0  0  0  0  0  0  0  0  0  0  0
   35.4130   31.2570   35.6620 C   0  0  0  0  0  0  0  0  0  0  0  0
   35.1270   32.0960   36.7410 C   0  0  0  0  0  0  0  0  0  0  0  0
   33.8080   32.0970   37.1860 C   0  0  0  0  0  0  0  0  0  0  0  0
   32.8530   31.3000   36.5730 C   0  0  0  0  0  0  0  0  0  0  0  0
   33.1630   30.4800   35.5100 C   0  0  0  0  0  0  0  0  0  0  0  0
   36.4460   31.2760   35.3370 H   0  0  0  0  0  0  0  0  0  0  0  0
   35.9050   32.7020   37.1900 H   0  0  0  0  0  0  0  0  0  0  0  0
   33.5270   32.7270   38.0200 H   0  0  0  0  0  0  0  0  0  0  0  0
   31.8360   31.3190   36.9400 H   0  0  0  0  0  0  0  0  0  0  0  0
   32.4480   29.8440   35.0030 H   0  0  0  0  0  0  0  0  0  0  0  0
   36.9430   26.0050   32.2540 C   0  0  0  0  0  0  0  0  0  0  0  0
   35.8350   26.0670   32.1700 H   0  0  0  0  0  0  0  0  0  0  0  0
   37.2650   25.8610   31.1840 H   0  0  0  0  0  0  0  0  0  0  0  0
   37.4260   24.8910   33.0090 C   0  0  0  0  0  0  0  0  0  0  0  0
   37.3650   23.6220   32.5110 C   0  0  0  0  0  0  0  0  0  0  0  0
   37.8360   22.5070   33.2400 C   0  0  0  0  0  0  0  0  0  0  0  0
   38.3630   22.8070   34.4920 N   0  0  0  0  0  0  0  0  0  0  0  0
   38.4020   24.0890   34.9450 C   0  0  0  0  0  0  0  0  0  0  0  0
   37.9360   25.1060   34.2000 N   0  0  0  0  0  0  0  0  0  0  0  0
   36.9580   23.3740   31.5400 H   0  0  0  0  0  0  0  0  0  0  0  0
   37.7940   21.5160   32.8660 H   0  0  0  0  0  0  0  0  0  0  0  0
   38.9940   24.2770   36.3070 C   0  0  1  0  0  3  0  0  0  0  0  0
   37.9420   24.4530   37.3590 C   0  0  0  0  0  3  0  0  0  0  0  0
   38.0750   25.4650   37.8110 H   0  0  0  0  0  0  0  0  0  0  0  0
   38.2550   23.4280   38.4240 C   0  0  0  0  0  3  0  0  0  0  0  0
   38.2840   23.8830   39.4350 H   0  0  0  0  0  0  0  0  0  0  0  0
   39.5270   22.9430   38.1440 O   0  0  0  0  0  0  0  0  0  0  0  0
   39.6790   22.9880   36.7650 C   0  0  0  0  0  3  0  0  0  0  0  0
   40.7250   22.9470   36.4650 H   0  0  0  0  0  0  0  0  0  0  0  0
  1  4  1  0  0  0  0
  1  3  1  0  0  0  0
  2  1  1  0  0  0  0
  4  8  2  0  0  0  0
  5  6  2  0  0  0  0
  5  4  1  0  0  0  0
  6  7  1  0  0  0  0
  7  8  1  0  0  0  0
  7 11  1  0  0  0  0
  9  5  1  0  0  0  0
 10  6  1  0  0  0  0
 11 16  2  0  0  0  0
 11 12  1  0  0  0  0
 12 13  2  0  0  0  0
 13 14  1  0  0  0  0
 13 18  1  0  0  0  0
 14 19  1  0  0  0  0
 15 20  1  0  0  0  0
 15 14  2  0  0  0  0
 16 15  1  0  0  0  0
 17 12  1  0  0  0  0
 21 16  1  0  0  0  0
 22  1  1  0  0  0  0
 22 25  1  0  0  0  0
 23 22  1  0  0  0  0
 24 22  1  0  0  0  0
 25 30  1  0  0  0  0
 26 25  2  0  0  0  0
 26 27  1  0  0  0  0
 27 28  2  0  0  0  0
 28 29  1  0  0  0  0
 30 29  2  0  0  0  0
 31 26  1  0  0  0  0
 32 27  1  0  0  0  0
 33 29  1  6  0  0  0
 33 39  1  0  0  0  0
 33 34  1  0  0  0  0
 34 35  1  0  0  0  0
 34 36  1  0  0  0  0
 36 37  1  0  0  0  0
 38 36  1  0  0  0  0
 39 38  1  0  0  0  0
 40 39  1  0  0  0  0
M  END
>  <minimizedAffinity>
-5.88614893

$$$$

 OpenBabel03272504053D

 40 43  0  0  1  0  0  0  0  0999 V2000
   35.1260   25.5940   30.8990 C   0  0  0  0  0  0  0  0  0  0  0  0
   34.4400   25.6430   30.0580 H   0  0  0  0  0  0  0  0  0  0  0  0
   34.4690   25.6190   31.8170 H   0  0  0  0  0  0  0  0  0  0  0  0
   35.8590   24.3200   30.9810 C   0  0  0  0  0  0  0  0  0  0  0  0
   37.2310   24.2340   30.7210 C   0  0  0  0  0  0  0  0  0  0  0  0
   37.6030   22.9300   30.8810 C   0  0  0  0  0  0  0  0  0  0  0  0
   36.4980   22.2500   31.2250 N   0  0  0  0  0  0  0  0  0  0  0  0
   35.4940   23.0970   31.2740 N   0  0  0  0  0  0  0  0  0  0  0  0
   37.8910   25.0600   30.4400 H   0  0  0  0  0  0  0  0  0  0  0  0
   38.5760   22.4590   30.7700 H   0  0  0  0  0  0  0  0  0  0  0  0
   36.2870   20.8710   31.5160 C   0  0  0  0  0  0  0  0  0  0  0  0
   35.6920   20.5990   32.7330 C   0  0  0  0  0  0  0  0  0  0  0  0
   35.4140   19.3040   33.1760 C   0  0  0  0  0  0  0  0  0  0  0  0
   35.7720   18.2710   32.3140 C   0  0  0  0  0  0  0  0  0  0  0  0
   36.3690   18.5410   31.0930 C   0  0  0  0  0  0  0  0  0  0  0  0
   36.6320   19.8290   30.6810 C   0  0  0  0  0  0  0  0  0  0  0  0
   35.4030   21.3830   33.4230 H   0  0  0  0  0  0  0  0  0  0  0  0
   34.9450   19.1380   34.1390 H   0  0  0  0  0  0  0  0  0  0  0  0
   35.5810   17.2460   32.6040 H   0  0  0  0  0  0  0  0  0  0  0  0
   36.6370   17.7190   30.4430 H   0  0  0  0  0  0  0  0  0  0  0  0
   37.0960   20.0840   29.7360 H   0  0  0  0  0  0  0  0  0  0  0  0
   36.0030   26.7950   30.9690 C   0  0  0  0  0  0  0  0  0  0  0  0
   36.9660   26.5030   30.4950 H   0  0  0  0  0  0  0  0  0  0  0  0
   35.5780   27.5350   30.2320 H   0  0  0  0  0  0  0  0  0  0  0  0
   36.1300   27.4590   32.2290 C   0  0  0  0  0  0  0  0  0  0  0  0
   35.3600   28.5410   32.5370 C   0  0  0  0  0  0  0  0  0  0  0  0
   35.4690   29.2110   33.7770 C   0  0  0  0  0  0  0  0  0  0  0  0
   36.4170   28.6810   34.6460 N   0  0  0  0  0  0  0  0  0  0  0  0
   37.1620   27.5990   34.2930 C   0  0  0  0  0  0  0  0  0  0  0  0
   37.0080   27.0080   33.0960 N   0  0  0  0  0  0  0  0  0  0  0  0
   34.6190   28.9640   31.8710 H   0  0  0  0  0  0  0  0  0  0  0  0
   34.8770   30.0530   34.0290 H   0  0  0  0  0  0  0  0  0  0  0  0
   38.1460   27.1270   35.3180 C   0  0  1  0  0  3  0  0  0  0  0  0
   37.8730   25.7210   35.7560 C   0  0  0  0  0  3  0  0  0  0  0  0
   37.6430   25.7400   36.8480 H   0  0  0  0  0  0  0  0  0  0  0  0
   39.1750   24.9770   35.5720 C   0  0  0  0  0  3  0  0  0  0  0  0
   39.4580   24.4150   36.4850 H   0  0  0  0  0  0  0  0  0  0  0  0
   40.1520   25.9400   35.3510 O   0  0  0  0  0  0  0  0  0  0  0  0
   39.5350   26.9940   34.6910 C   0  0  0  0  0  3  0  0  0  0  0  0
   40.1100   27.9160   34.7610 H   0  0  0  0  0  0  0  0  0  0  0  0
  1 22  1  0  0  0  0
  1  4  1  0  0  0  0
  1  3  1  0  0  0  0
  2  1  1  0  0  0  0
  4  8  2  0  0  0  0
  5  6  2  0  0  0  0
  5  4  1  0  0  0  0
  6  7  1  0  0  0  0
  7  8  1  0  0  0  0
  7 11  1  0  0  0  0
  9  5  1  0  0  0  0
 10  6  1  0  0  0  0
 11 12  1  0  0  0  0
 12 13  2  0  0  0  0
 12 17  1  0  0  0  0
 13 18  1  0  0  0  0
 14 19  1  0  0  0  0
 14 13  1  0  0  0  0
 15 14  2  0  0  0  0
 16 15  1  0  0  0  0
 16 11  2  0  0  0  0
 20 15  1  0  0  0  0
 21 16  1  0  0  0  0
 22 25  1  0  0  0  0
 23 22  1  0  0  0  0
 24 22  1  0  0  0  0
 25 26  2  0  0  0  0
 25 30  1  0  0  0  0
 26 27  1  0  0  0  0
 27 32  1  0  0  0  0
 27 28  2  0  0  0  0
 29 28  1  0  0  0  0
 30 29  2  0  0  0  0
 31 26  1  0  0  0  0
 33 29  1  6  0  0  0
 33 34  1  0  0  0  0
 34 35  1  0  0  0  0
 36 34  1  0  0  0  0
 36 37  1  0  0  0  0
 38 36  1  0  0  0  0
 39 40  1  0  0  0  0
 39 33  1  0  0  0  0
 39 38  1  0  0  0  0
M  END
>  <minimizedAffinity>
-5.85009623

$$$$

 OpenBabel03272504053D

 40 43  0  0  1  0  0  0  0  0999 V2000
   38.1550   26.1050   31.2080 C   0  0  0  0  0  0  0  0  0  0  0  0
   38.5530   26.3090   30.2180 H   0  0  0  0  0  0  0  0  0  0  0  0
   37.5750   27.0310   31.4900 H   0  0  0  0  0  0  0  0  0  0  0  0
   37.1710   25.0100   31.2270 C   0  0  0  0  0  0  0  0  0  0  0  0
   35.7930   25.2480   31.1750 C   0  0  0  0  0  0  0  0  0  0  0  0
   35.1610   24.0380   31.2100 C   0  0  0  0  0  0  0  0  0  0  0  0
   36.1210   23.1000   31.2820 N   0  0  0  0  0  0  0  0  0  0  0  0
   37.2870   23.7070   31.2890 N   0  0  0  0  0  0  0  0  0  0  0  0
   35.3060   26.2250   31.1160 H   0  0  0  0  0  0  0  0  0  0  0  0
   34.1020   23.7990   31.1900 H   0  0  0  0  0  0  0  0  0  0  0  0
   36.0510   21.6790   31.3430 C   0  0  0  0  0  0  0  0  0  0  0  0
   35.0160   21.1610   32.1000 C   0  0  0  0  0  0  0  0  0  0  0  0
   34.8020   19.7920   32.2680 C   0  0  0  0  0  0  0  0  0  0  0  0
   35.7000   18.9470   31.6220 C   0  0  0  0  0  0  0  0  0  0  0  0
   36.7390   19.4630   30.8620 C   0  0  0  0  0  0  0  0  0  0  0  0
   36.9270   20.8200   30.7140 C   0  0  0  0  0  0  0  0  0  0  0  0
   34.3030   21.7960   32.6130 H   0  0  0  0  0  0  0  0  0  0  0  0
   33.9770   19.4310   32.8710 H   0  0  0  0  0  0  0  0  0  0  0  0
   35.5850   17.8750   31.7150 H   0  0  0  0  0  0  0  0  0  0  0  0
   37.4220   18.7830   30.3710 H   0  0  0  0  0  0  0  0  0  0  0  0
   37.7240   21.2640   30.1300 H   0  0  0  0  0  0  0  0  0  0  0  0
   39.2380   25.9540   32.2190 C   0  0  0  0  0  0  0  0  0  0  0  0
   39.7890   25.0270   31.9460 H   0  0  0  0  0  0  0  0  0  0  0  0
   39.9880   26.7640   31.9950 H   0  0  0  0  0  0  0  0  0  0  0  0
   38.8830   26.0570   33.6000 C   0  0  0  0  0  0  0  0  0  0  0  0
   38.6560   27.2700   34.1810 C   0  0  0  0  0  0  0  0  0  0  0  0
   38.3040   27.3950   35.5440 C   0  0  0  0  0  0  0  0  0  0  0  0
   38.2080   26.1910   36.2360 N   0  0  0  0  0  0  0  0  0  0  0  0
   38.4440   25.0060   35.6110 C   0  0  0  0  0  0  0  0  0  0  0  0
   38.7760   24.9570   34.3100 N   0  0  0  0  0  0  0  0  0  0  0  0
   38.7260   28.2130   33.6560 H   0  0  0  0  0  0  0  0  0  0  0  0
   38.1250   28.3310   36.0080 H   0  0  0  0  0  0  0  0  0  0  0  0
   38.3080   23.7850   36.4670 C   0  0  1  0  0  3  0  0  0  0  0  0
   39.5670   22.9750   36.4980 C   0  0  0  0  0  3  0  0  0  0  0  0
   39.3410   21.9720   36.0650 H   0  0  0  0  0  0  0  0  0  0  0  0
   39.8920   22.7820   37.9620 C   0  0  0  0  0  3  0  0  0  0  0  0
   40.0840   21.7170   38.2010 H   0  0  0  0  0  0  0  0  0  0  0  0
   38.7650   23.1760   38.6720 O   0  0  0  0  0  0  0  0  0  0  0  0
   38.1610   24.1880   37.9360 C   0  0  0  0  0  3  0  0  0  0  0  0
   37.1200   24.3370   38.2210 H   0  0  0  0  0  0  0  0  0  0  0  0
  1  4  1  0  0  0  0
  1  3  1  0  0  0  0
  1 22  1  0  0  0  0
  2  1  1  0  0  0  0
  4  8  2  0  0  0  0
  5  6  2  0  0  0  0
  5  4  1  0  0  0  0
  6  7  1  0  0  0  0
  7  8  1  0  0  0  0
  7 11  1  0  0  0  0
  9  5  1  0  0  0  0
 10  6  1  0  0  0  0
 11 12  1  0  0  0  0
 12 13  2  0  0  0  0
 12 17  1  0  0  0  0
 13 18  1  0  0  0  0
 14 19  1  0  0  0  0
 14 13  1  0  0  0  0
 15 14  2  0  0  0  0
 16 15  1  0  0  0  0
 16 11  2  0  0  0  0
 20 15  1  0  0  0  0
 21 16  1  0  0  0  0
 22 25  1  0  0  0  0
 23 22  1  0  0  0  0
 24 22  1  0  0  0  0
 25 26  2  0  0  0  0
 25 30  1  0  0  0  0
 26 27  1  0  0  0  0
 27 32  1  0  0  0  0
 27 28  2  0  0  0  0
 29 28  1  0  0  0  0
 30 29  2  0  0  0  0
 31 26  1  0  0  0  0
 33 29  1  6  0  0  0
 33 34  1  0  0  0  0
 33 39  1  0  0  0  0
 34 36  1  0  0  0  0
 35 34  1  0  0  0  0
 36 37  1  0  0  0  0
 36 38  1  0  0  0  0
 39 40  1  0  0  0  0
 39 38  1  0  0  0  0
M  END
>  <minimizedAffinity>
-5.78308964

$$$$

 OpenBabel03272504053D

 40 43  0  0  1  0  0  0  0  0999 V2000
   37.6100   26.1960   35.0560 C   0  0  0  0  0  0  0  0  0  0  0  0
   36.5390   26.2480   35.2320 H   0  0  0  0  0  0  0  0  0  0  0  0
   38.0270   27.1500   35.4920 H   0  0  0  0  0  0  0  0  0  0  0  0
   38.2700   25.1090   35.7980 C   0  0  0  0  0  0  0  0  0  0  0  0
   37.6550   24.4630   36.8760 C   0  0  0  0  0  0  0  0  0  0  0  0
   38.5210   23.5140   37.3400 C   0  0  0  0  0  0  0  0  0  0  0  0
   39.6210   23.5820   36.5730 N   0  0  0  0  0  0  0  0  0  0  0  0
   39.4380   24.5290   35.6790 N   0  0  0  0  0  0  0  0  0  0  0  0
   36.6610   24.6760   37.2770 H   0  0  0  0  0  0  0  0  0  0  0  0
   38.4150   22.8090   38.1590 H   0  0  0  0  0  0  0  0  0  0  0  0
   40.8370   22.8400   36.5950 C   0  0  0  0  0  0  0  0  0  0  0  0
   41.8730   23.3670   35.8460 C   0  0  0  0  0  0  0  0  0  0  0  0
   43.1320   22.7690   35.7570 C   0  0  0  0  0  0  0  0  0  0  0  0
   43.3020   21.5870   36.4730 C   0  0  0  0  0  0  0  0  0  0  0  0
   42.2640   21.0570   37.2240 C   0  0  0  0  0  0  0  0  0  0  0  0
   41.0310   21.6690   37.2950 C   0  0  0  0  0  0  0  0  0  0  0  0
   41.7690   24.2850   35.2800 H   0  0  0  0  0  0  0  0  0  0  0  0
   43.9150   23.2170   35.1570 H   0  0  0  0  0  0  0  0  0  0  0  0
   44.2560   21.0770   36.4410 H   0  0  0  0  0  0  0  0  0  0  0  0
   42.4240   20.1370   37.7700 H   0  0  0  0  0  0  0  0  0  0  0  0
   40.1960   21.2890   37.8690 H   0  0  0  0  0  0  0  0  0  0  0  0
   37.9340   26.2120   33.6040 C   0  0  0  0  0  0  0  0  0  0  0  0
   38.0270   27.2840   33.3190 H   0  0  0  0  0  0  0  0  0  0  0  0
   38.9940   25.8400   33.5170 H   0  0  0  0  0  0  0  0  0  0  0  0
   37.1230   25.4260   32.7270 C   0  0  0  0  0  0  0  0  0  0  0  0
   36.2110   26.0100   31.8980 C   0  0  0  0  0  0  0  0  0  0  0  0
   35.3990   25.2520   31.0240 C   0  0  0  0  0  0  0  0  0  0  0  0
   35.6060   23.8770   31.0780 N   0  0  0  0  0  0  0  0  0  0  0  0
   36.5280   23.3420   31.9230 C   0  0  0  0  0  0  0  0  0  0  0  0
   37.2690   24.1210   32.7300 N   0  0  0  0  0  0  0  0  0  0  0  0
   36.0400   27.0770   31.8450 H   0  0  0  0  0  0  0  0  0  0  0  0
   34.6860   25.6920   30.3740 H   0  0  0  0  0  0  0  0  0  0  0  0
   36.6530   21.8510   31.8850 C   0  0  1  0  0  3  0  0  0  0  0  0
   36.5290   21.2390   33.2470 C   0  0  0  0  0  3  0  0  0  0  0  0
   37.4900   20.7210   33.4790 H   0  0  0  0  0  0  0  0  0  0  0  0
   35.4540   20.1850   33.1240 C   0  0  0  0  0  3  0  0  0  0  0  0
   35.7880   19.2100   33.5340 H   0  0  0  0  0  0  0  0  0  0  0  0
   35.2230   20.0120   31.7640 O   0  0  0  0  0  0  0  0  0  0  0  0
   35.4520   21.2420   31.1600 C   0  0  0  0  0  3  0  0  0  0  0  0
   35.6210   21.1470   30.0880 H   0  0  0  0  0  0  0  0  0  0  0  0
  1  2  1  0  0  0  0
  1  3  1  0  0  0  0
  1  4  1  0  0  0  0
  4  5  1  0  0  0  0
  5  9  1  0  0  0  0
  5  6  2  0  0  0  0
  6 10  1  0  0  0  0
  7 11  1  0  0  0  0
  7  6  1  0  0  0  0
  8  4  2  0  0  0  0
  8  7  1  0  0  0  0
 11 16  1  0  0  0  0
 12 11  2  0  0  0  0
 13 12  1  0  0  0  0
 13 14  2  0  0  0  0
 14 15  1  0  0  0  0
 15 16  2  0  0  0  0
 15 20  1  0  0  0  0
 16 21  1  0  0  0  0
 17 12  1  0  0  0  0
 18 13  1  0  0  0  0
 19 14  1  0  0  0  0
 22  1  1  0  0  0  0
 23 22  1  0  0  0  0
 24 22  1  0  0  0  0
 25 30  1  0  0  0  0
 25 22  1  0  0  0  0
 26 25  2  0  0  0  0
 27 28  2  0  0  0  0
 27 26  1  0  0  0  0
 28 29  1  0  0  0  0
 29 30  2  0  0  0  0
 31 26  1  0  0  0  0
 32 27  1  0  0  0  0
 33 29  1  1  0  0  0
 33 34  1  0  0  0  0
 34 35  1  0  0  0  0
 36 34  1  0  0  0  0
 36 37  1  0  0  0  0
 38 36  1  0  0  0  0
 39 38  1  0  0  0  0
 39 33  1  0  0  0  0
 40 39  1  0  0  0  0
M  END
>  <minimizedAffinity>
-5.7369504

$$$$

 OpenBabel03272504053D

 40 43  0  0  1  0  0  0  0  0999 V2000
   37.8840   26.6220   33.4180 C   0  0  0  0  0  0  0  0  0  0  0  0
   37.3450   25.6800   33.3780 H   0  0  0  0  0  0  0  0  0  0  0  0
   38.4380   26.6860   32.4370 H   0  0  0  0  0  0  0  0  0  0  0  0
   37.0010   27.7990   33.4430 C   0  0  0  0  0  0  0  0  0  0  0  0
   36.6020   28.4540   32.2730 C   0  0  0  0  0  0  0  0  0  0  0  0
   35.7940   29.4950   32.6350 C   0  0  0  0  0  0  0  0  0  0  0  0
   35.7070   29.4720   33.9750 N   0  0  0  0  0  0  0  0  0  0  0  0
   36.4270   28.4640   34.4150 N   0  0  0  0  0  0  0  0  0  0  0  0
   36.8830   28.1850   31.2510 H   0  0  0  0  0  0  0  0  0  0  0  0
   35.2890   30.2360   32.0220 H   0  0  0  0  0  0  0  0  0  0  0  0
   35.0090   30.3100   34.8910 C   0  0  0  0  0  0  0  0  0  0  0  0
   35.7850   31.2260   35.5770 C   0  0  0  0  0  0  0  0  0  0  0  0
   35.2630   32.1210   36.5120 C   0  0  0  0  0  0  0  0  0  0  0  0
   33.8900   32.0510   36.7300 C   0  0  0  0  0  0  0  0  0  0  0  0
   33.1100   31.1330   36.0430 C   0  0  0  0  0  0  0  0  0  0  0  0
   33.6510   30.2600   35.1250 C   0  0  0  0  0  0  0  0  0  0  0  0
   36.8560   31.3020   35.4270 H   0  0  0  0  0  0  0  0  0  0  0  0
   35.9110   32.8220   37.0270 H   0  0  0  0  0  0  0  0  0  0  0  0
   33.4290   32.7200   37.4450 H   0  0  0  0  0  0  0  0  0  0  0  0
   32.0450   31.1000   36.2330 H   0  0  0  0  0  0  0  0  0  0  0  0
   33.0780   29.5300   34.5680 H   0  0  0  0  0  0  0  0  0  0  0  0
   38.9140   26.6240   34.4930 C   0  0  0  0  0  0  0  0  0  0  0  0
   39.8890   26.8040   33.9870 H   0  0  0  0  0  0  0  0  0  0  0  0
   38.7570   27.5770   35.0740 H   0  0  0  0  0  0  0  0  0  0  0  0
   38.9130   25.5400   35.4250 C   0  0  0  0  0  0  0  0  0  0  0  0
   38.0540   25.5210   36.4840 C   0  0  0  0  0  0  0  0  0  0  0  0
   38.0360   24.4600   37.4160 C   0  0  0  0  0  0  0  0  0  0  0  0
   38.9550   23.4460   37.1660 N   0  0  0  0  0  0  0  0  0  0  0  0
   39.7910   23.5100   36.0950 C   0  0  0  0  0  0  0  0  0  0  0  0
   39.7570   24.5500   35.2450 N   0  0  0  0  0  0  0  0  0  0  0  0
   37.3340   26.3020   36.6910 H   0  0  0  0  0  0  0  0  0  0  0  0
   37.3740   24.4330   38.2440 H   0  0  0  0  0  0  0  0  0  0  0  0
   40.7320   22.3560   35.9390 C   0  0  1  0  0  3  0  0  0  0  0  0
   42.0940   22.7940   35.4960 C   0  0  0  0  0  3  0  0  0  0  0  0
   42.2980   22.3290   34.5030 H   0  0  0  0  0  0  0  0  0  0  0  0
   43.0590   22.1950   36.4930 C   0  0  0  0  0  3  0  0  0  0  0  0
   43.8860   21.6550   35.9880 H   0  0  0  0  0  0  0  0  0  0  0  0
   42.3380   21.2640   37.2310 O   0  0  0  0  0  0  0  0  0  0  0  0
   41.0340   21.7350   37.3040 C   0  0  0  0  0  3  0  0  0  0  0  0
   40.3270   20.9480   37.5650 H   0  0  0  0  0  0  0  0  0  0  0  0
  1  4  1  0  0  0  0
  1 22  1  0  0  0  0
  2  1  1  0  0  0  0
  3  1  1  0  0  0  0
  4  8  2  0  0  0  0
  5  6  2  0  0  0  0
  5  4  1  0  0  0  0
  6  7  1  0  0  0  0
  7  8  1  0  0  0  0
  7 11  1  0  0  0  0
  9  5  1  0  0  0  0
 10  6  1  0  0  0  0
 11 16  2  0  0  0  0
 11 12  1  0  0  0  0
 12 13  2  0  0  0  0
 13 14  1  0  0  0  0
 13 18  1  0  0  0  0
 14 19  1  0  0  0  0
 15 20  1  0  0  0  0
 15 14  2  0  0  0  0
 16 15  1  0  0  0  0
 17 12  1  0  0  0  0
 21 16  1  0  0  0  0
 22 24  1  0  0  0  0
 22 25  1  0  0  0  0
 23 22  1  0  0  0  0
 25 26  1  0  0  0  0
 26 31  1  0  0  0  0
 26 27  2  0  0  0  0
 27 32  1  0  0  0  0
 28 27  1  0  0  0  0
 29 28  2  0  0  0  0
 30 25  2  0  0  0  0
 30 29  1  0  0  0  0
 33 29  1  1  0  0  0
 33 39  1  0  0  0  0
 34 33  1  0  0  0  0
 34 36  1  0  0  0  0
 35 34  1  0  0  0  0
 36 38  1  0  0  0  0
 37 36  1  0  0  0  0
 38 39  1  0  0  0  0
 39 40  1  0  0  0  0
M  END
>  <minimizedAffinity>
-5.73078251

$$$$

 OpenBabel03272504053D

 40 43  0  0  1  0  0  0  0  0999 V2000
   37.5220   26.6930   32.9810 C   0  0  0  0  0  0  0  0  0  0  0  0
   37.0230   25.8580   32.4960 H   0  0  0  0  0  0  0  0  0  0  0  0
   38.3120   27.0300   32.2490 H   0  0  0  0  0  0  0  0  0  0  0  0
   36.6480   27.8610   33.1750 C   0  0  0  0  0  0  0  0  0  0  0  0
   35.9740   28.4710   32.1120 C   0  0  0  0  0  0  0  0  0  0  0  0
   35.2560   29.5160   32.6190 C   0  0  0  0  0  0  0  0  0  0  0  0
   35.4860   29.5400   33.9420 N   0  0  0  0  0  0  0  0  0  0  0  0
   36.3070   28.5550   34.2330 N   0  0  0  0  0  0  0  0  0  0  0  0
   36.0120   28.1690   31.0610 H   0  0  0  0  0  0  0  0  0  0  0  0
   34.6080   30.2300   32.1200 H   0  0  0  0  0  0  0  0  0  0  0  0
   35.0080   30.4020   34.9700 C   0  0  0  0  0  0  0  0  0  0  0  0
   33.6500   30.3380   35.2230 C   0  0  0  0  0  0  0  0  0  0  0  0
   33.0160   31.1140   36.1950 C   0  0  0  0  0  0  0  0  0  0  0  0
   33.8330   31.9780   36.9190 C   0  0  0  0  0  0  0  0  0  0  0  0
   35.1950   32.0440   36.6680 C   0  0  0  0  0  0  0  0  0  0  0  0
   35.7950   31.2660   35.7020 C   0  0  0  0  0  0  0  0  0  0  0  0
   32.9920   29.6750   34.6740 H   0  0  0  0  0  0  0  0  0  0  0  0
   31.9480   31.0310   36.3580 H   0  0  0  0  0  0  0  0  0  0  0  0
   33.3970   32.6050   37.6860 H   0  0  0  0  0  0  0  0  0  0  0  0
   35.8050   32.7240   37.2460 H   0  0  0  0  0  0  0  0  0  0  0  0
   36.8530   31.2860   35.4750 H   0  0  0  0  0  0  0  0  0  0  0  0
   38.2370   26.2690   34.2160 C   0  0  0  0  0  0  0  0  0  0  0  0
   39.2680   26.6790   34.1330 H   0  0  0  0  0  0  0  0  0  0  0  0
   37.7950   26.8750   35.0560 H   0  0  0  0  0  0  0  0  0  0  0  0
   38.1680   24.8900   34.5900 C   0  0  0  0  0  0  0  0  0  0  0  0
   38.4910   24.4850   35.8510 C   0  0  0  0  0  0  0  0  0  0  0  0
   38.4300   23.1280   36.2420 C   0  0  0  0  0  0  0  0  0  0  0  0
   38.0150   22.2510   35.2440 N   0  0  0  0  0  0  0  0  0  0  0  0
   37.7030   22.7040   34.0010 C   0  0  0  0  0  0  0  0  0  0  0  0
   37.7830   24.0100   33.6940 N   0  0  0  0  0  0  0  0  0  0  0  0
   38.8150   25.1550   36.6360 H   0  0  0  0  0  0  0  0  0  0  0  0
   38.6790   22.7980   37.2180 H   0  0  0  0  0  0  0  0  0  0  0  0
   37.2710   21.6590   33.0200 C   0  0  1  0  0  3  0  0  0  0  0  0
   36.0780   20.8920   33.5010 C   0  0  0  0  0  3  0  0  0  0  0  0
   36.3780   19.8220   33.6080 H   0  0  0  0  0  0  0  0  0  0  0  0
   35.0610   20.9770   32.3860 C   0  0  0  0  0  3  0  0  0  0  0  0
   34.6630   19.9780   32.1190 H   0  0  0  0  0  0  0  0  0  0  0  0
   35.7340   21.4730   31.2760 O   0  0  0  0  0  0  0  0  0  0  0  0
   36.7250   22.3200   31.7530 C   0  0  0  0  0  3  0  0  0  0  0  0
   37.5030   22.5000   31.0130 H   0  0  0  0  0  0  0  0  0  0  0  0
  1  4  1  0  0  0  0
  1 22  1  0  0  0  0
  2  1  1  0  0  0  0
  3  1  1  0  0  0  0
  4  8  2  0  0  0  0
  5  6  2  0  0  0  0
  5  4  1  0  0  0  0
  6  7  1  0  0  0  0
  7  8  1  0  0  0  0
  7 11  1  0  0  0  0
  9  5  1  0  0  0  0
 10  6  1  0  0  0  0
 11 12  2  0  0  0  0
 11 16  1  0  0  0  0
 12 13  1  0  0  0  0
 13 18  1  0  0  0  0
 13 14  2  0  0  0  0
 14 19  1  0  0  0  0
 15 14  1  0  0  0  0
 15 20  1  0  0  0  0
 16 15  2  0  0  0  0
 17 12  1  0  0  0  0
 21 16  1  0  0  0  0
 22 25  1  0  0  0  0
 22 24  1  0  0  0  0
 23 22  1  0  0  0  0
 25 26  1  0  0  0  0
 26 27  2  0  0  0  0
 26 31  1  0  0  0  0
 27 32  1  0  0  0  0
 28 27  1  0  0  0  0
 29 28  2  0  0  0  0
 30 29  1  0  0  0  0
 30 25  2  0  0  0  0
 33 34  1  0  0  0  0
 33 29  1  1  0  0  0
 34 35  1  0  0  0  0
 36 34  1  0  0  0  0
 37 36  1  0  0  0  0
 38 39  1  0  0  0  0
 38 36  1  0  0  0  0
 39 33  1  0  0  0  0
 40 39  1  0  0  0  0
M  END
>  <minimizedAffinity>
-5.5969286

$$$$
