
 OpenBabel03272510043D

 36 38  0  0  1  0  0  0  0  0999 V2000
   36.8780   30.8280   44.7650 C   0  0  0  0  0  0  0  0  0  0  0  0
   36.3720   30.5140   45.9860 C   0  0  0  0  0  0  0  0  0  0  0  0
   35.1160   29.9230   46.0820 C   0  0  0  0  0  0  0  0  0  0  0  0
   34.3400   29.6340   44.9850 C   0  0  0  0  0  0  0  0  0  0  0  0
   34.8140   29.9400   43.7330 C   0  0  0  0  0  0  0  0  0  0  0  0
   36.0560   30.5200   43.6690 C   0  0  0  0  0  0  0  0  0  0  0  0
   34.7400   29.6810   47.0920 H   0  0  0  0  0  0  0  0  0  0  0  0
   33.3900   29.1780   45.1770 H   0  0  0  0  0  0  0  0  0  0  0  0
   34.1760   29.6980   42.9220 H   0  0  0  0  0  0  0  0  0  0  0  0
   36.3130   30.7160   42.6180 H   0  0  0  0  0  0  0  0  0  0  0  0
   38.7020   32.1390   48.3170 C   0  0  0  0  0  0  0  0  0  0  0  0
   37.9780   31.8320   47.1760 C   0  0  0  0  0  0  0  0  0  0  0  0
   37.0870   30.8070   47.1820 C   0  0  0  0  0  0  0  0  0  0  0  0
   36.9430   30.1160   48.3470 N   0  0  0  0  0  0  0  0  0  0  0  0
   37.6350   30.4090   49.4530 C   0  0  0  0  0  0  0  0  0  0  0  0
   38.5110   31.4160   49.4300 N   0  0  0  0  0  0  0  0  0  0  0  0
   39.4380   32.9020   48.4840 H   0  0  0  0  0  0  0  0  0  0  0  0
   38.2880   32.5640   46.4700 H   0  0  0  0  0  0  0  0  0  0  0  0
   37.3260   29.6130   50.6720 C   0  0  0  0  0  0  0  0  0  0  0  0
   37.4560   30.3640   51.8240 F   0  0  0  0  0  0  0  0  0  0  0  0
   35.9140   29.2960   50.6690 F   0  0  0  0  0  0  0  0  0  0  0  0
   37.9070   28.4390   50.7860 F   0  0  0  0  0  0  0  0  0  0  0  0
   38.4140   31.5170   44.4970 S   0  0  0  0  0  0  0  0  0  0  0  0
   38.4200   32.9720   44.8750 O   0  0  0  0  0  0  0  0  0  0  0  0
   38.3230   31.7380   43.0120 O   0  0  0  0  0  0  0  0  0  0  0  0
   39.8800   30.7260   44.2180 C   0  0  0  0  0  0  0  0  0  0  0  0
   40.7510   31.3600   43.9850 H   0  0  0  0  0  0  0  0  0  0  0  0
   40.2050   30.3560   45.2550 H   0  0  0  0  0  0  0  0  0  0  0  0
   39.8170   29.4680   43.4320 C   0  0  1  0  0  3  0  0  0  0  0  0
   38.8210   28.4430   43.8180 C   0  0  0  0  0  3  0  0  0  0  0  0
   37.8690   28.8620   44.1810 H   0  0  0  0  0  0  0  0  0  0  0  0
   38.5650   27.7450   42.4690 C   0  0  0  0  0  3  0  0  0  0  0  0
   37.5120   27.4130   42.3780 H   0  0  0  0  0  0  0  0  0  0  0  0
   38.8710   28.6210   41.4720 O   0  0  0  0  0  0  0  0  0  0  0  0
   39.3300   29.7890   42.0020 C   0  0  0  0  0  3  0  0  0  0  0  0
   38.4950   30.5130   42.1730 H   0  0  0  0  0  0  0  0  0  0  0  0
  1  2  1  0  0  0  0
  2  3  2  0  0  0  0
  2 13  1  0  0  0  0
  3  7  1  0  0  0  0
  4  8  1  0  0  0  0
  4  3  1  0  0  0  0
  5  4  2  0  0  0  0
  6  5  1  0  0  0  0
  6  1  2  0  0  0  0
  9  5  1  0  0  0  0
 10  6  1  0  0  0  0
 11 17  1  0  0  0  0
 11 16  1  0  0  0  0
 12 13  1  0  0  0  0
 12 11  2  0  0  0  0
 13 14  2  0  0  0  0
 14 15  1  0  0  0  0
 15 19  1  0  0  0  0
 16 15  2  0  0  0  0
 18 12  1  0  0  0  0
 19 22  1  0  0  0  0
 19 20  1  0  0  0  0
 21 19  1  0  0  0  0
 23  1  1  0  0  0  0
 23 24  2  0  0  0  0
 25 23  2  0  0  0  0
 26 23  1  0  0  0  0
 26 28  1  0  0  0  0
 27 26  1  0  0  0  0
 29 30  1  0  0  0  0
 29 26  1  1  0  0  0
 30 31  1  0  0  0  0
 32 30  1  0  0  0  0
 33 32  1  0  0  0  0
 34 35  1  0  0  0  0
 34 32  1  0  0  0  0
 35 36  1  0  0  0  0
 35 29  1  0  0  0  0
M  END
>  <minimizedAffinity>
-5.47985458

>  <minimizedRMSD>
1.64278793

$$$$
