
 OpenBabel03272508093D

 23 24  0  0  1  0  0  0  0  0999 V2000
   39.1110   32.6930   48.1380 O   0  0  0  0  0  0  0  0  0  0  0  0
   38.6390   31.7010   47.1230 P   0  0  2  0  0  0  0  0  0  0  0  0
   37.5500   32.4560   46.0610 O   0  0  0  0  0  0  0  0  0  0  0  0
   37.1350   33.2180   46.5760 H   0  0  0  0  0  0  0  0  0  0  0  0
   37.9700   30.2890   47.7730 O   0  0  0  0  0  0  0  0  0  0  0  0
   37.2970   30.1750   51.4160 C   0  0  0  0  0  0  0  0  0  0  0  0
   37.9980   30.4860   50.2530 C   0  0  0  0  0  0  0  0  0  0  0  0
   37.4760   30.1010   49.0220 C   0  0  0  0  0  0  0  0  0  0  0  0
   36.2800   29.4240   49.0230 N   0  0  0  0  0  0  0  0  0  0  0  0
   35.6350   29.1420   50.1800 C   0  0  0  0  0  0  0  0  0  0  0  0
   36.1320   29.5100   51.3580 N   0  0  0  0  0  0  0  0  0  0  0  0
   37.8390   30.5440   52.2810 H   0  0  0  0  0  0  0  0  0  0  0  0
   38.9380   31.0130   50.1730 H   0  0  0  0  0  0  0  0  0  0  0  0
   34.6920   28.6090   50.2000 H   0  0  0  0  0  0  0  0  0  0  0  0
   39.9910   31.2590   46.1850 O   0  0  0  0  0  0  0  0  0  0  0  0
   39.5710   31.1430   44.8730 C   0  0  1  0  0  3  0  0  0  0  0  0
   40.5950   31.4890   43.8460 C   0  0  0  0  0  3  0  0  0  0  0  0
   41.6350   31.5860   44.2710 H   0  0  0  0  0  0  0  0  0  0  0  0
   40.5270   30.3070   42.8870 C   0  0  0  0  0  3  0  0  0  0  0  0
   41.2760   29.5280   43.1180 H   0  0  0  0  0  0  0  0  0  0  0  0
   39.2510   29.7660   43.1030 O   0  0  0  0  0  0  0  0  0  0  0  0
   39.1890   29.7250   44.5130 C   0  0  0  0  0  3  0  0  0  0  0  0
   38.1290   29.4840   44.7890 H   0  0  0  0  0  0  0  0  0  0  0  0
  2  5  1  0  0  0  0
  2  1  2  1  0  0  0
  3  4  1  0  0  0  0
  3  2  1  0  0  0  0
  5  8  1  0  0  0  0
  6 12  1  0  0  0  0
  7  6  2  0  0  0  0
  8  9  2  0  0  0  0
  8  7  1  0  0  0  0
  9 10  1  0  0  0  0
 10 14  1  0  0  0  0
 10 11  2  0  0  0  0
 11  6  1  0  0  0  0
 13  7  1  0  0  0  0
 15  2  1  0  0  0  0
 16 15  1  1  0  0  0
 17 18  1  0  0  0  0
 17 16  1  0  0  0  0
 19 21  1  0  0  0  0
 19 20  1  0  0  0  0
 19 17  1  0  0  0  0
 21 22  1  0  0  0  0
 22 23  1  0  0  0  0
 22 16  1  0  0  0  0
M  END
>  <minimizedAffinity>
-4.95176172

>  <minimizedRMSD>
0.939950585

$$$$
