
 OpenBabel03272508123D

 33 35  0  0  1  0  0  0  0  0999 V2000
   36.6760   29.4320   44.0210 Cl  0  0  0  0  0  0  0  0  0  0  0  0
   38.3150   29.8320   43.4960 C   0  0  0  0  0  0  0  0  0  0  0  0
   39.3060   30.3160   44.3520 C   0  0  0  0  0  0  0  0  0  0  0  0
   40.5580   30.5910   43.8060 C   0  0  0  0  0  0  0  0  0  0  0  0
   40.7840   30.3830   42.4670 C   0  0  0  0  0  0  0  0  0  0  0  0
   39.8310   29.9120   41.6120 C   0  0  0  0  0  0  0  0  0  0  0  0
   38.5960   29.6380   42.1360 C   0  0  0  0  0  0  0  0  0  0  0  0
   41.2470   30.9580   44.5540 H   0  0  0  0  0  0  0  0  0  0  0  0
   41.7970   30.6290   42.1340 H   0  0  0  0  0  0  0  0  0  0  0  0
   40.0990   29.7810   40.5740 H   0  0  0  0  0  0  0  0  0  0  0  0
   37.5450   29.1230   41.2200 C   0  0  2  0  0  3  0  0  0  0  0  0
   38.1300   28.4350   39.9960 C   0  0  0  0  0  3  0  0  0  0  0  0
   39.2210   28.3280   40.0290 H   0  0  0  0  0  0  0  0  0  0  0  0
   37.6660   29.3500   38.8830 C   0  0  0  0  0  3  0  0  0  0  0  0
   38.4420   29.4470   38.0820 H   0  0  0  0  0  0  0  0  0  0  0  0
   37.4170   30.5800   39.4880 O   0  0  0  0  0  0  0  0  0  0  0  0
   36.7170   30.2060   40.6330 C   0  0  0  0  0  3  0  0  0  0  0  0
   35.7790   29.7180   40.2440 H   0  0  0  0  0  0  0  0  0  0  0  0
   38.8640   30.4450   45.6400 O   0  0  0  0  0  0  0  0  0  0  0  0
   39.4340   32.5080   47.1030 O   0  0  0  0  0  0  0  0  0  0  0  0
   38.3050   31.8300   46.4150 P   0  0  1  0  0  0  0  0  0  0  0  0
   37.7060   32.8390   45.1740 O   0  0  0  0  0  0  0  0  0  0  0  0
   38.4860   33.1890   44.6600 H   0  0  0  0  0  0  0  0  0  0  0  0
   37.0210   31.4030   47.4380 O   0  0  0  0  0  0  0  0  0  0  0  0
   37.6120   30.5300   50.9840 C   0  0  0  0  0  0  0  0  0  0  0  0
   37.7050   31.3010   49.8210 C   0  0  0  0  0  0  0  0  0  0  0  0
   37.0670   30.8320   48.6640 C   0  0  0  0  0  0  0  0  0  0  0  0
   36.3900   29.6510   48.7330 N   0  0  0  0  0  0  0  0  0  0  0  0
   36.3260   28.9400   49.8750 C   0  0  0  0  0  0  0  0  0  0  0  0
   36.9340   29.3790   50.9890 N   0  0  0  0  0  0  0  0  0  0  0  0
   38.1280   30.9450   51.8490 H   0  0  0  0  0  0  0  0  0  0  0  0
   38.2200   32.2410   49.6920 H   0  0  0  0  0  0  0  0  0  0  0  0
   35.7950   28.0000   49.9540 H   0  0  0  0  0  0  0  0  0  0  0  0
  2  1  1  0  0  0  0
  2  3  1  0  0  0  0
  3 19  1  0  0  0  0
  4  3  2  0  0  0  0
  4  8  1  0  0  0  0
  5  4  1  0  0  0  0
  6  7  1  0  0  0  0
  6  5  2  0  0  0  0
  7  2  2  0  0  0  0
  9  5  1  0  0  0  0
 10  6  1  0  0  0  0
 11  7  1  1  0  0  0
 12 13  1  0  0  0  0
 12 11  1  0  0  0  0
 14 16  1  0  0  0  0
 14 12  1  0  0  0  0
 15 14  1  0  0  0  0
 16 17  1  0  0  0  0
 17 11  1  0  0  0  0
 18 17  1  0  0  0  0
 19 21  1  0  0  0  0
 21 20  2  1  0  0  0
 21 24  1  0  0  0  0
 22 21  1  0  0  0  0
 23 22  1  0  0  0  0
 24 27  1  0  0  0  0
 25 30  1  0  0  0  0
 25 31  1  0  0  0  0
 26 25  2  0  0  0  0
 27 28  2  0  0  0  0
 27 26  1  0  0  0  0
 28 29  1  0  0  0  0
 29 33  1  0  0  0  0
 29 30  2  0  0  0  0
 32 26  1  0  0  0  0
M  END
>  <minimizedAffinity>
-4.84878063

>  <minimizedRMSD>
0.708907187

$$$$
