
 OpenBabel03262521263D

 46 49  0  0  1  0  0  0  0  0999 V2000
   37.0190   27.5510   33.2070 C   0  0  0  0  0  0  0  0  0  0  0  0
   38.0950   27.6540   32.8860 H   0  0  0  0  0  0  0  0  0  0  0  0
   36.6530   26.6830   32.6000 H   0  0  0  0  0  0  0  0  0  0  0  0
   36.9150   27.1860   34.6660 C   0  0  0  0  0  0  0  0  0  0  0  0
   36.5010   28.0820   35.1810 H   0  0  0  0  0  0  0  0  0  0  0  0
   36.0460   26.4610   34.7100 H   0  0  0  0  0  0  0  0  0  0  0  0
   38.0570   26.6670   35.1870 C   0  0  0  0  0  0  0  0  0  0  0  0
   38.6360   27.3710   35.8470 H   0  0  0  0  0  0  0  0  0  0  0  0
   38.7930   26.2540   34.4650 H   0  0  0  0  0  0  0  0  0  0  0  0
   37.4980   25.6630   35.9330 O   0  0  0  0  0  0  0  0  0  0  0  0
   38.3190   24.6890   36.4390 C   0  0  0  0  0  0  0  0  0  0  0  0
   37.9960   24.3420   37.7290 C   0  0  0  0  0  0  0  0  0  0  0  0
   38.7590   23.3500   38.3760 C   0  0  0  0  0  0  0  0  0  0  0  0
   39.7830   22.7880   37.6750 N   0  0  0  0  0  0  0  0  0  0  0  0
   40.0780   23.1570   36.3870 C   0  0  0  0  0  0  0  0  0  0  0  0
   39.3330   24.1010   35.8060 N   0  0  0  0  0  0  0  0  0  0  0  0
   41.8600   21.5750   36.5460 C   0  0  0  0  0  0  0  0  0  0  0  0
   41.5880   21.2830   37.7590 O   0  0  0  0  0  0  0  0  0  0  0  0
   41.1690   22.5050   35.7510 N   0  0  0  0  0  0  0  0  0  0  0  0
   37.2170   24.7070   38.3950 H   0  0  0  0  0  0  0  0  0  0  0  0
   38.5980   23.0060   39.3670 H   0  0  0  0  0  0  0  0  0  0  0  0
   42.7060   21.0430   36.1090 H   0  0  0  0  0  0  0  0  0  0  0  0
   41.3970   22.7380   34.7610 H   0  0  0  0  0  0  0  0  0  0  0  0
   36.1200   28.9920   32.7290 S   0  0  0  0  0  0  0  0  0  0  0  0
   33.8040   29.4200   34.3260 C   0  0  0  0  0  0  0  0  0  0  0  0
   35.1260   29.7190   33.9870 C   0  0  0  0  0  0  0  0  0  0  0  0
   35.7390   30.7220   34.7370 C   0  0  0  0  0  0  0  0  0  0  0  0
   35.1140   31.3910   35.7510 C   0  0  0  0  0  0  0  0  0  0  0  0
   35.4400   32.3540   36.6040 N   0  0  0  0  0  0  0  0  0  0  0  0
   34.4010   32.6620   37.4420 C   0  0  0  0  0  0  0  0  0  0  0  0
   33.3640   31.8280   37.0790 C   0  0  0  0  0  0  0  0  0  0  0  0
   33.8120   31.0490   36.0370 C   0  0  0  0  0  0  0  0  0  0  0  0
   33.1540   30.0850   35.3480 C   0  0  0  0  0  0  0  0  0  0  0  0
   33.3750   28.6400   33.7170 H   0  0  0  0  0  0  0  0  0  0  0  0
   36.7750   31.0400   34.5600 H   0  0  0  0  0  0  0  0  0  0  0  0
   36.3790   32.8310   36.6420 H   0  0  0  0  0  0  0  0  0  0  0  0
   34.3960   33.3960   38.2170 H   0  0  0  0  0  0  0  0  0  0  0  0
   32.3810   31.8050   37.5400 H   0  0  0  0  0  0  0  0  0  0  0  0
   31.7630   29.7250   35.6570 C   0  0  2  0  0  3  0  0  0  0  0  0
   31.6670   28.3260   36.2770 C   0  0  0  0  0  3  0  0  0  0  0  0
   31.9320   28.3570   37.3400 H   0  0  0  0  0  0  0  0  0  0  0  0
   30.2400   27.9880   35.9760 C   0  0  0  0  0  3  0  0  0  0  0  0
   30.1030   26.9550   35.6110 H   0  0  0  0  0  0  0  0  0  0  0  0
   29.7430   28.9640   35.1290 O   0  0  0  0  0  0  0  0  0  0  0  0
   30.8590   29.5510   34.4850 C   0  0  0  0  0  3  0  0  0  0  0  0
   30.5240   30.4830   34.0220 H   0  0  0  0  0  0  0  0  0  0  0  0
  1  4  1  0  0  0  0
  2  1  1  0  0  0  0
  3  1  1  0  0  0  0
  4  6  1  0  0  0  0
  4  5  1  0  0  0  0
  4  7  1  0  0  0  0
  7  8  1  0  0  0  0
  7 10  1  0  0  0  0
  9  7  1  0  0  0  0
 10 11  1  0  0  0  0
 11 12  1  0  0  0  0
 12 13  2  0  0  0  0
 12 20  1  0  0  0  0
 13 21  1  0  0  0  0
 14 13  1  0  0  0  0
 15 14  2  0  0  0  0
 16 15  1  0  0  0  0
 16 11  2  0  0  0  0
 17 18  2  0  0  0  0
 19 15  1  0  0  0  0
 19 17  1  0  0  0  0
 22 17  1  0  0  0  0
 23 19  1  0  0  0  0
 24  1  1  0  0  0  0
 24 26  1  0  0  0  0
 25 33  1  0  0  0  0
 26 25  2  0  0  0  0
 26 27  1  0  0  0  0
 27 28  2  0  0  0  0
 28 32  1  0  0  0  0
 28 29  1  0  0  0  0
 29 36  1  0  0  0  0
 29 30  1  0  0  0  0
 30 37  1  0  0  0  0
 31 30  2  0  0  0  0
 31 38  1  0  0  0  0
 32 31  1  0  0  0  0
 33 32  2  0  0  0  0
 34 25  1  0  0  0  0
 35 27  1  0  0  0  0
 39 33  1  6  0  0  0
 39 40  1  0  0  0  0
 40 41  1  0  0  0  0
 42 40  1  0  0  0  0
 43 42  1  0  0  0  0
 44 42  1  0  0  0  0
 45 44  1  0  0  0  0
 45 39  1  0  0  0  0
 46 45  1  0  0  0  0
M  END
>  <minimizedAffinity>
-6.13219309

$$$$

 OpenBabel03262521263D

 46 49  0  0  1  0  0  0  0  0999 V2000
   35.5790   27.5710   31.7140 C   0  0  0  0  0  0  0  0  0  0  0  0
   34.9500   27.5070   30.7810 H   0  0  0  0  0  0  0  0  0  0  0  0
   34.9240   27.1080   32.4970 H   0  0  0  0  0  0  0  0  0  0  0  0
   36.8290   26.7390   31.5890 C   0  0  0  0  0  0  0  0  0  0  0  0
   36.5570   25.7160   31.9330 H   0  0  0  0  0  0  0  0  0  0  0  0
   36.9550   26.5910   30.4740 H   0  0  0  0  0  0  0  0  0  0  0  0
   37.9230   27.2970   32.1700 C   0  0  0  0  0  0  0  0  0  0  0  0
   37.6970   28.0400   32.9840 H   0  0  0  0  0  0  0  0  0  0  0  0
   38.6470   27.7980   31.4930 H   0  0  0  0  0  0  0  0  0  0  0  0
   38.4700   26.1580   32.7020 O   0  0  0  0  0  0  0  0  0  0  0  0
   38.3720   25.9550   34.0530 C   0  0  0  0  0  0  0  0  0  0  0  0
   38.5480   27.1100   34.7770 C   0  0  0  0  0  0  0  0  0  0  0  0
   38.4730   27.0490   36.1830 C   0  0  0  0  0  0  0  0  0  0  0  0
   38.2280   25.8340   36.7460 N   0  0  0  0  0  0  0  0  0  0  0  0
   38.0570   24.6990   35.9940 C   0  0  0  0  0  0  0  0  0  0  0  0
   38.1350   24.7950   34.6640 N   0  0  0  0  0  0  0  0  0  0  0  0
   37.8110   23.5790   38.0900 C   0  0  0  0  0  0  0  0  0  0  0  0
   38.0170   24.6430   38.7640 O   0  0  0  0  0  0  0  0  0  0  0  0
   37.8070   23.4830   36.6870 N   0  0  0  0  0  0  0  0  0  0  0  0
   38.7470   28.1310   34.4590 H   0  0  0  0  0  0  0  0  0  0  0  0
   38.5920   27.8760   36.8360 H   0  0  0  0  0  0  0  0  0  0  0  0
   37.6240   22.6770   38.6740 H   0  0  0  0  0  0  0  0  0  0  0  0
   37.6380   22.6100   36.1430 H   0  0  0  0  0  0  0  0  0  0  0  0
   35.8450   29.2650   32.1320 S   0  0  0  0  0  0  0  0  0  0  0  0
   33.6940   29.4610   33.9850 C   0  0  0  0  0  0  0  0  0  0  0  0
   34.9610   29.8470   33.5390 C   0  0  0  0  0  0  0  0  0  0  0  0
   35.6090   30.8180   34.3010 C   0  0  0  0  0  0  0  0  0  0  0  0
   35.0690   31.3780   35.4230 C   0  0  0  0  0  0  0  0  0  0  0  0
   35.4440   32.2890   36.3140 N   0  0  0  0  0  0  0  0  0  0  0  0
   34.4880   32.4820   37.2750 C   0  0  0  0  0  0  0  0  0  0  0  0
   33.4520   31.6310   36.9530 C   0  0  0  0  0  0  0  0  0  0  0  0
   33.8180   30.9550   35.8120 C   0  0  0  0  0  0  0  0  0  0  0  0
   33.1300   30.0150   35.1180 C   0  0  0  0  0  0  0  0  0  0  0  0
   33.2350   28.7100   33.3630 H   0  0  0  0  0  0  0  0  0  0  0  0
   36.6080   31.1970   34.0460 H   0  0  0  0  0  0  0  0  0  0  0  0
   36.3620   32.8050   36.2940 H   0  0  0  0  0  0  0  0  0  0  0  0
   34.5360   33.1540   38.1030 H   0  0  0  0  0  0  0  0  0  0  0  0
   32.5240   31.5260   37.5080 H   0  0  0  0  0  0  0  0  0  0  0  0
   31.7950   29.5670   35.5370 C   0  0  2  0  0  3  0  0  0  0  0  0
   31.8700   28.3200   36.4240 C   0  0  0  0  0  3  0  0  0  0  0  0
   32.1390   28.5920   37.4500 H   0  0  0  0  0  0  0  0  0  0  0  0
   30.4910   27.7670   36.2410 C   0  0  0  0  0  3  0  0  0  0  0  0
   30.4740   26.6730   36.0920 H   0  0  0  0  0  0  0  0  0  0  0  0
   29.8740   28.4900   35.2350 O   0  0  0  0  0  0  0  0  0  0  0  0
   30.9070   29.0610   34.4520 C   0  0  0  0  0  3  0  0  0  0  0  0
   30.4590   29.8370   33.8250 H   0  0  0  0  0  0  0  0  0  0  0  0
  1 24  1  0  0  0  0
  1  3  1  0  0  0  0
  2  1  1  0  0  0  0
  4  1  1  0  0  0  0
  4  5  1  0  0  0  0
  4  7  1  0  0  0  0
  6  4  1  0  0  0  0
  7 10  1  0  0  0  0
  7  8  1  0  0  0  0
  9  7  1  0  0  0  0
 10 11  1  0  0  0  0
 11 16  2  0  0  0  0
 11 12  1  0  0  0  0
 12 13  2  0  0  0  0
 13 14  1  0  0  0  0
 13 21  1  0  0  0  0
 15 19  1  0  0  0  0
 15 14  2  0  0  0  0
 16 15  1  0  0  0  0
 17 22  1  0  0  0  0
 17 18  2  0  0  0  0
 19 17  1  0  0  0  0
 20 12  1  0  0  0  0
 23 19  1  0  0  0  0
 24 26  1  0  0  0  0
 25 33  1  0  0  0  0
 26 25  2  0  0  0  0
 26 27  1  0  0  0  0
 27 28  2  0  0  0  0
 28 32  1  0  0  0  0
 28 29  1  0  0  0  0
 29 30  1  0  0  0  0
 30 37  1  0  0  0  0
 31 30  2  0  0  0  0
 31 38  1  0  0  0  0
 32 31  1  0  0  0  0
 33 32  2  0  0  0  0
 34 25  1  0  0  0  0
 35 27  1  0  0  0  0
 36 29  1  0  0  0  0
 39 33  1  6  0  0  0
 39 40  1  0  0  0  0
 40 41  1  0  0  0  0
 42 40  1  0  0  0  0
 43 42  1  0  0  0  0
 44 42  1  0  0  0  0
 45 44  1  0  0  0  0
 45 39  1  0  0  0  0
 46 45  1  0  0  0  0
M  END
>  <minimizedAffinity>
-5.92245483

$$$$

 OpenBabel03262521263D

 46 49  0  0  1  0  0  0  0  0999 V2000
   41.9160   21.9970   30.8400 C   0  0  0  0  0  0  0  0  0  0  0  0
   42.2490   23.0270   31.1530 H   0  0  0  0  0  0  0  0  0  0  0  0
   42.8360   21.5620   30.3700 H   0  0  0  0  0  0  0  0  0  0  0  0
   41.5510   21.1530   32.0340 C   0  0  0  0  0  0  0  0  0  0  0  0
   40.6310   20.5940   31.7500 H   0  0  0  0  0  0  0  0  0  0  0  0
   42.3340   20.3340   32.0450 H   0  0  0  0  0  0  0  0  0  0  0  0
   41.4990   21.8430   33.2020 C   0  0  0  0  0  0  0  0  0  0  0  0
   41.6920   22.9480   33.1050 H   0  0  0  0  0  0  0  0  0  0  0  0
   42.1610   21.4900   34.0210 H   0  0  0  0  0  0  0  0  0  0  0  0
   40.1840   21.6140   33.5120 O   0  0  0  0  0  0  0  0  0  0  0  0
   39.6200   22.3260   34.5380 C   0  0  0  0  0  0  0  0  0  0  0  0
   38.7900   23.3270   34.0940 C   0  0  0  0  0  0  0  0  0  0  0  0
   38.1410   24.1420   35.0420 C   0  0  0  0  0  0  0  0  0  0  0  0
   38.3770   23.8840   36.3580 N   0  0  0  0  0  0  0  0  0  0  0  0
   39.2120   22.8750   36.7690 C   0  0  0  0  0  0  0  0  0  0  0  0
   39.8100   22.1240   35.8410 N   0  0  0  0  0  0  0  0  0  0  0  0
   38.7090   23.6200   38.9820 C   0  0  0  0  0  0  0  0  0  0  0  0
   37.9720   24.5770   38.5690 O   0  0  0  0  0  0  0  0  0  0  0  0
   39.3870   22.6960   38.1680 N   0  0  0  0  0  0  0  0  0  0  0  0
   38.5180   23.6380   33.0870 H   0  0  0  0  0  0  0  0  0  0  0  0
   37.4810   24.9400   34.8110 H   0  0  0  0  0  0  0  0  0  0  0  0
   38.8060   23.5300   40.0640 H   0  0  0  0  0  0  0  0  0  0  0  0
   39.9870   21.9160   38.5120 H   0  0  0  0  0  0  0  0  0  0  0  0
   40.6630   22.1310   29.6050 S   0  0  0  0  0  0  0  0  0  0  0  0
   38.0770   21.6730   30.7010 C   0  0  0  0  0  0  0  0  0  0  0  0
   39.0540   22.5340   30.1970 C   0  0  0  0  0  0  0  0  0  0  0  0
   38.7160   23.8860   30.1540 C   0  0  0  0  0  0  0  0  0  0  0  0
   37.5110   24.3740   30.5730 C   0  0  0  0  0  0  0  0  0  0  0  0
   36.9360   25.5680   30.6460 N   0  0  0  0  0  0  0  0  0  0  0  0
   35.6700   25.4900   31.1640 C   0  0  0  0  0  0  0  0  0  0  0  0
   35.4520   24.1540   31.4270 C   0  0  0  0  0  0  0  0  0  0  0  0
   36.5900   23.4740   31.0600 C   0  0  0  0  0  0  0  0  0  0  0  0
   36.8520   22.1460   31.1300 C   0  0  0  0  0  0  0  0  0  0  0  0
   38.3860   20.6400   30.7130 H   0  0  0  0  0  0  0  0  0  0  0  0
   39.4050   24.6540   29.7780 H   0  0  0  0  0  0  0  0  0  0  0  0
   37.3880   26.4710   30.3470 H   0  0  0  0  0  0  0  0  0  0  0  0
   34.9920   26.2980   31.3290 H   0  0  0  0  0  0  0  0  0  0  0  0
   34.5420   23.7320   31.8460 H   0  0  0  0  0  0  0  0  0  0  0  0
   35.8650   21.1900   31.6510 C   0  0  2  0  0  3  0  0  0  0  0  0
   36.1500   20.8240   33.1120 C   0  0  0  0  0  3  0  0  0  0  0  0
   35.7910   21.6120   33.7830 H   0  0  0  0  0  0  0  0  0  0  0  0
   35.4340   19.5130   33.2130 C   0  0  0  0  0  3  0  0  0  0  0  0
   36.0100   18.7400   33.7510 H   0  0  0  0  0  0  0  0  0  0  0  0
   35.0360   19.1480   31.9390 O   0  0  0  0  0  0  0  0  0  0  0  0
   35.8840   19.8320   31.0360 C   0  0  0  0  0  3  0  0  0  0  0  0
   35.4320   19.7720   30.0420 H   0  0  0  0  0  0  0  0  0  0  0  0
  1  2  1  0  0  0  0
  1  4  1  0  0  0  0
  3  1  1  0  0  0  0
  4  6  1  0  0  0  0
  4  7  1  0  0  0  0
  5  4  1  0  0  0  0
  7 10  1  0  0  0  0
  7  9  1  0  0  0  0
  8  7  1  0  0  0  0
 10 11  1  0  0  0  0
 11 16  1  0  0  0  0
 12 11  2  0  0  0  0
 12 13  1  0  0  0  0
 13 14  2  0  0  0  0
 14 15  1  0  0  0  0
 15 19  1  0  0  0  0
 16 15  2  0  0  0  0
 17 22  1  0  0  0  0
 18 17  2  0  0  0  0
 19 23  1  0  0  0  0
 19 17  1  0  0  0  0
 20 12  1  0  0  0  0
 21 13  1  0  0  0  0
 24 26  1  0  0  0  0
 24  1  1  0  0  0  0
 25 34  1  0  0  0  0
 25 33  1  0  0  0  0
 26 25  2  0  0  0  0
 27 26  1  0  0  0  0
 27 28  2  0  0  0  0
 28 29  1  0  0  0  0
 28 32  1  0  0  0  0
 29 30  1  0  0  0  0
 30 37  1  0  0  0  0
 30 31  2  0  0  0  0
 31 38  1  0  0  0  0
 32 33  2  0  0  0  0
 32 31  1  0  0  0  0
 35 27  1  0  0  0  0
 36 29  1  0  0  0  0
 39 33  1  6  0  0  0
 39 40  1  0  0  0  0
 40 42  1  0  0  0  0
 40 41  1  0  0  0  0
 42 43  1  0  0  0  0
 44 42  1  0  0  0  0
 45 39  1  0  0  0  0
 45 44  1  0  0  0  0
 46 45  1  0  0  0  0
M  END
>  <minimizedAffinity>
-5.6106739

$$$$

 OpenBabel03262521263D

 46 49  0  0  1  0  0  0  0  0999 V2000
   35.9890   28.1580   32.0240 C   0  0  0  0  0  0  0  0  0  0  0  0
   36.5440   27.9440   31.0660 H   0  0  0  0  0  0  0  0  0  0  0  0
   35.1880   27.3740   32.0360 H   0  0  0  0  0  0  0  0  0  0  0  0
   36.8720   27.9490   33.2270 C   0  0  0  0  0  0  0  0  0  0  0  0
   37.0010   28.9510   33.6950 H   0  0  0  0  0  0  0  0  0  0  0  0
   36.2050   27.4200   33.9740 H   0  0  0  0  0  0  0  0  0  0  0  0
   38.0110   27.2590   32.9620 C   0  0  0  0  0  0  0  0  0  0  0  0
   38.8790   27.5050   33.6360 H   0  0  0  0  0  0  0  0  0  0  0  0
   38.4040   27.3220   31.9260 H   0  0  0  0  0  0  0  0  0  0  0  0
   37.5460   25.9970   33.2250 O   0  0  0  0  0  0  0  0  0  0  0  0
   38.1290   25.2820   34.2380 C   0  0  0  0  0  0  0  0  0  0  0  0
   39.2690   24.6280   33.8380 C   0  0  0  0  0  0  0  0  0  0  0  0
   39.9740   23.8530   34.7800 C   0  0  0  0  0  0  0  0  0  0  0  0
   39.4760   23.7970   36.0460 N   0  0  0  0  0  0  0  0  0  0  0  0
   38.3340   24.4630   36.4140 C   0  0  0  0  0  0  0  0  0  0  0  0
   37.6930   25.1890   35.4940 N   0  0  0  0  0  0  0  0  0  0  0  0
   38.6880   23.4870   38.5650 C   0  0  0  0  0  0  0  0  0  0  0  0
   39.7220   22.8450   38.1830 O   0  0  0  0  0  0  0  0  0  0  0  0
   37.9040   24.3350   37.7620 N   0  0  0  0  0  0  0  0  0  0  0  0
   39.7690   24.5870   32.8720 H   0  0  0  0  0  0  0  0  0  0  0  0
   40.8620   23.3090   34.5800 H   0  0  0  0  0  0  0  0  0  0  0  0
   38.4050   23.3510   39.6090 H   0  0  0  0  0  0  0  0  0  0  0  0
   37.0600   24.8570   38.0820 H   0  0  0  0  0  0  0  0  0  0  0  0
   35.2230   29.7440   31.9220 S   0  0  0  0  0  0  0  0  0  0  0  0
   35.5520   31.6150   34.0410 C   0  0  0  0  0  0  0  0  0  0  0  0
   34.8910   30.5280   33.4640 C   0  0  0  0  0  0  0  0  0  0  0  0
   33.8350   29.9920   34.2000 C   0  0  0  0  0  0  0  0  0  0  0  0
   33.4420   30.4770   35.4140 C   0  0  0  0  0  0  0  0  0  0  0  0
   32.5050   30.1780   36.3060 N   0  0  0  0  0  0  0  0  0  0  0  0
   32.5520   31.0130   37.3910 C   0  0  0  0  0  0  0  0  0  0  0  0
   33.5910   31.8880   37.1480 C   0  0  0  0  0  0  0  0  0  0  0  0
   34.1330   31.5510   35.9290 C   0  0  0  0  0  0  0  0  0  0  0  0
   35.1710   32.1210   35.2690 C   0  0  0  0  0  0  0  0  0  0  0  0
   36.3600   31.9920   33.4350 H   0  0  0  0  0  0  0  0  0  0  0  0
   33.2440   29.1380   33.8440 H   0  0  0  0  0  0  0  0  0  0  0  0
   31.8060   29.3970   36.2030 H   0  0  0  0  0  0  0  0  0  0  0  0
   31.9160   30.9910   38.2470 H   0  0  0  0  0  0  0  0  0  0  0  0
   33.9100   32.6890   37.8090 H   0  0  0  0  0  0  0  0  0  0  0  0
   35.9050   33.2660   35.8240 C   0  0  2  0  0  3  0  0  0  0  0  0
   35.1620   34.5840   35.5800 C   0  0  0  0  0  3  0  0  0  0  0  0
   34.3510   34.7090   36.3060 H   0  0  0  0  0  0  0  0  0  0  0  0
   36.2890   35.5630   35.6970 C   0  0  0  0  0  3  0  0  0  0  0  0
   36.2740   36.3440   34.9170 H   0  0  0  0  0  0  0  0  0  0  0  0
   37.4700   34.8430   35.7600 O   0  0  0  0  0  0  0  0  0  0  0  0
   37.2090   33.5810   35.1750 C   0  0  0  0  0  3  0  0  0  0  0  0
   38.0300   32.9110   35.4460 H   0  0  0  0  0  0  0  0  0  0  0  0
  1  3  1  0  0  0  0
  1  4  1  0  0  0  0
  2  1  1  0  0  0  0
  4  5  1  0  0  0  0
  4  6  1  0  0  0  0
  7 10  1  0  0  0  0
  7  4  1  0  0  0  0
  7  8  1  0  0  0  0
  9  7  1  0  0  0  0
 10 11  1  0  0  0  0
 11 16  1  0  0  0  0
 12 11  2  0  0  0  0
 12 13  1  0  0  0  0
 13 14  2  0  0  0  0
 14 15  1  0  0  0  0
 15 19  1  0  0  0  0
 16 15  2  0  0  0  0
 17 22  1  0  0  0  0
 18 17  2  0  0  0  0
 19 23  1  0  0  0  0
 19 17  1  0  0  0  0
 20 12  1  0  0  0  0
 21 13  1  0  0  0  0
 24  1  1  0  0  0  0
 24 26  1  0  0  0  0
 25 33  1  0  0  0  0
 26 25  2  0  0  0  0
 26 27  1  0  0  0  0
 27 28  2  0  0  0  0
 28 32  1  0  0  0  0
 28 29  1  0  0  0  0
 29 30  1  0  0  0  0
 30 37  1  0  0  0  0
 31 30  2  0  0  0  0
 31 38  1  0  0  0  0
 32 31  1  0  0  0  0
 33 32  2  0  0  0  0
 34 25  1  0  0  0  0
 35 27  1  0  0  0  0
 36 29  1  0  0  0  0
 39 33  1  6  0  0  0
 40 42  1  0  0  0  0
 40 39  1  0  0  0  0
 40 41  1  0  0  0  0
 42 44  1  0  0  0  0
 43 42  1  0  0  0  0
 45 46  1  0  0  0  0
 45 44  1  0  0  0  0
 45 39  1  0  0  0  0
M  END
>  <minimizedAffinity>
-5.56796455

$$$$

 OpenBabel03262521263D

 46 49  0  0  1  0  0  0  0  0999 V2000
   37.3190   27.4490   32.8830 C   0  0  0  0  0  0  0  0  0  0  0  0
   38.4090   27.3670   32.6070 H   0  0  0  0  0  0  0  0  0  0  0  0
   36.8700   26.5280   32.4290 H   0  0  0  0  0  0  0  0  0  0  0  0
   37.1260   27.3830   34.3760 C   0  0  0  0  0  0  0  0  0  0  0  0
   36.7470   28.3830   34.6850 H   0  0  0  0  0  0  0  0  0  0  0  0
   36.2110   26.7290   34.5090 H   0  0  0  0  0  0  0  0  0  0  0  0
   38.2070   26.9150   35.0510 C   0  0  0  0  0  0  0  0  0  0  0  0
   38.6700   27.6500   35.7670 H   0  0  0  0  0  0  0  0  0  0  0  0
   39.0440   26.5170   34.4400 H   0  0  0  0  0  0  0  0  0  0  0  0
   37.5900   25.9030   35.7400 O   0  0  0  0  0  0  0  0  0  0  0  0
   38.3610   24.8870   36.2400 C   0  0  0  0  0  0  0  0  0  0  0  0
   37.9700   24.4950   37.4980 C   0  0  0  0  0  0  0  0  0  0  0  0
   38.6770   23.4560   38.1360 C   0  0  0  0  0  0  0  0  0  0  0  0
   39.7170   22.8970   37.4590 N   0  0  0  0  0  0  0  0  0  0  0  0
   40.0820   23.3110   36.2030 C   0  0  0  0  0  0  0  0  0  0  0  0
   39.3890   24.2990   35.6300 N   0  0  0  0  0  0  0  0  0  0  0  0
   41.8140   21.6750   36.3740 C   0  0  0  0  0  0  0  0  0  0  0  0
   41.4790   21.3400   37.5590 O   0  0  0  0  0  0  0  0  0  0  0  0
   41.1850   22.6570   35.5890 N   0  0  0  0  0  0  0  0  0  0  0  0
   37.1700   24.8520   38.1430 H   0  0  0  0  0  0  0  0  0  0  0  0
   38.4610   23.0750   39.1020 H   0  0  0  0  0  0  0  0  0  0  0  0
   42.6660   21.1400   35.9540 H   0  0  0  0  0  0  0  0  0  0  0  0
   41.4640   22.9250   34.6210 H   0  0  0  0  0  0  0  0  0  0  0  0
   36.6150   28.8640   32.0980 S   0  0  0  0  0  0  0  0  0  0  0  0
   35.1920   30.5960   33.8510 C   0  0  0  0  0  0  0  0  0  0  0  0
   35.2180   29.5650   32.9080 C   0  0  0  0  0  0  0  0  0  0  0  0
   33.9820   29.0200   32.5620 C   0  0  0  0  0  0  0  0  0  0  0  0
   32.7970   29.4450   33.0930 C   0  0  0  0  0  0  0  0  0  0  0  0
   31.5170   29.1220   32.9550 N   0  0  0  0  0  0  0  0  0  0  0  0
   30.7120   29.8900   33.7530 C   0  0  0  0  0  0  0  0  0  0  0  0
   31.5560   30.7450   34.4300 C   0  0  0  0  0  0  0  0  0  0  0  0
   32.8380   30.4640   34.0170 C   0  0  0  0  0  0  0  0  0  0  0  0
   34.0050   31.0400   34.4000 C   0  0  0  0  0  0  0  0  0  0  0  0
   36.1710   30.9830   34.0840 H   0  0  0  0  0  0  0  0  0  0  0  0
   33.8810   28.2070   31.8310 H   0  0  0  0  0  0  0  0  0  0  0  0
   31.1530   28.3700   32.3130 H   0  0  0  0  0  0  0  0  0  0  0  0
   29.6490   29.8370   33.8340 H   0  0  0  0  0  0  0  0  0  0  0  0
   31.2500   31.4960   35.1520 H   0  0  0  0  0  0  0  0  0  0  0  0
   34.0420   32.1280   35.3870 C   0  0  2  0  0  3  0  0  0  0  0  0
   34.8320   33.3340   34.8670 C   0  0  0  0  0  3  0  0  0  0  0  0
   34.2180   33.9310   34.1830 H   0  0  0  0  0  0  0  0  0  0  0  0
   35.1970   34.0020   36.1570 C   0  0  0  0  0  3  0  0  0  0  0  0
   36.2440   34.3510   36.1880 H   0  0  0  0  0  0  0  0  0  0  0  0
   34.8480   33.1480   37.1900 O   0  0  0  0  0  0  0  0  0  0  0  0
   34.7980   31.8450   36.6400 C   0  0  0  0  0  3  0  0  0  0  0  0
   34.2770   31.2020   37.3550 H   0  0  0  0  0  0  0  0  0  0  0  0
  1  4  1  0  0  0  0
  2  1  1  0  0  0  0
  3  1  1  0  0  0  0
  4  6  1  0  0  0  0
  4  5  1  0  0  0  0
  4  7  1  0  0  0  0
  7 10  1  0  0  0  0
  7  8  1  0  0  0  0
  9  7  1  0  0  0  0
 10 11  1  0  0  0  0
 11 12  1  0  0  0  0
 12 13  2  0  0  0  0
 12 20  1  0  0  0  0
 13 21  1  0  0  0  0
 14 13  1  0  0  0  0
 15 14  2  0  0  0  0
 16 15  1  0  0  0  0
 16 11  2  0  0  0  0
 17 18  2  0  0  0  0
 19 15  1  0  0  0  0
 19 17  1  0  0  0  0
 22 17  1  0  0  0  0
 23 19  1  0  0  0  0
 24  1  1  0  0  0  0
 24 26  1  0  0  0  0
 25 34  1  0  0  0  0
 25 33  1  0  0  0  0
 26 25  2  0  0  0  0
 27 26  1  0  0  0  0
 27 28  2  0  0  0  0
 28 32  1  0  0  0  0
 29 28  1  0  0  0  0
 29 30  1  0  0  0  0
 30 37  1  0  0  0  0
 30 31  2  0  0  0  0
 31 38  1  0  0  0  0
 32 33  2  0  0  0  0
 32 31  1  0  0  0  0
 35 27  1  0  0  0  0
 36 29  1  0  0  0  0
 39 33  1  6  0  0  0
 39 45  1  0  0  0  0
 40 39  1  0  0  0  0
 40 42  1  0  0  0  0
 41 40  1  0  0  0  0
 42 43  1  0  0  0  0
 42 44  1  0  0  0  0
 45 44  1  0  0  0  0
 45 46  1  0  0  0  0
M  END
>  <minimizedAffinity>
-5.55444098

$$$$

 OpenBabel03262521263D

 46 49  0  0  1  0  0  0  0  0999 V2000
   35.5370   22.7500   31.5260 C   0  0  0  0  0  0  0  0  0  0  0  0
   34.4960   22.7810   31.0910 H   0  0  0  0  0  0  0  0  0  0  0  0
   35.3570   22.8660   32.6260 H   0  0  0  0  0  0  0  0  0  0  0  0
   36.1880   21.4120   31.2900 C   0  0  0  0  0  0  0  0  0  0  0  0
   35.6870   20.6970   31.9810 H   0  0  0  0  0  0  0  0  0  0  0  0
   35.7940   21.0850   30.2800 H   0  0  0  0  0  0  0  0  0  0  0  0
   37.5450   21.4430   31.3380 C   0  0  0  0  0  0  0  0  0  0  0  0
   37.9890   22.4730   31.4340 H   0  0  0  0  0  0  0  0  0  0  0  0
   38.0860   20.9550   30.5000 H   0  0  0  0  0  0  0  0  0  0  0  0
   37.7210   20.7380   32.5000 O   0  0  0  0  0  0  0  0  0  0  0  0
   38.1070   21.4180   33.6260 C   0  0  0  0  0  0  0  0  0  0  0  0
   39.3970   21.8840   33.5460 C   0  0  0  0  0  0  0  0  0  0  0  0
   39.9280   22.6030   34.6350 C   0  0  0  0  0  0  0  0  0  0  0  0
   39.1210   22.7940   35.7150 N   0  0  0  0  0  0  0  0  0  0  0  0
   37.8360   22.3150   35.7620 C   0  0  0  0  0  0  0  0  0  0  0  0
   37.3670   21.6380   34.7110 N   0  0  0  0  0  0  0  0  0  0  0  0
   37.7700   23.2580   37.9560 C   0  0  0  0  0  0  0  0  0  0  0  0
   38.9820   23.6550   37.8990 O   0  0  0  0  0  0  0  0  0  0  0  0
   37.0820   22.5710   36.9400 N   0  0  0  0  0  0  0  0  0  0  0  0
   40.1410   21.8030   32.7550 H   0  0  0  0  0  0  0  0  0  0  0  0
   40.9080   23.0080   34.6800 H   0  0  0  0  0  0  0  0  0  0  0  0
   37.2400   23.4830   38.8820 H   0  0  0  0  0  0  0  0  0  0  0  0
   36.0920   22.2510   36.9930 H   0  0  0  0  0  0  0  0  0  0  0  0
   36.4580   24.1430   30.9560 S   0  0  0  0  0  0  0  0  0  0  0  0
   36.3060   26.7480   32.0910 C   0  0  0  0  0  0  0  0  0  0  0  0
   36.7230   25.4150   32.1440 C   0  0  0  0  0  0  0  0  0  0  0  0
   37.4400   25.0420   33.2800 C   0  0  0  0  0  0  0  0  0  0  0  0
   37.7340   25.9020   34.2990 C   0  0  0  0  0  0  0  0  0  0  0  0
   38.3760   25.8260   35.4590 N   0  0  0  0  0  0  0  0  0  0  0  0
   38.3790   27.0270   36.1170 C   0  0  0  0  0  0  0  0  0  0  0  0
   37.6890   27.9030   35.3050 C   0  0  0  0  0  0  0  0  0  0  0  0
   37.2960   27.2020   34.1880 C   0  0  0  0  0  0  0  0  0  0  0  0
   36.5940   27.6340   33.1120 C   0  0  0  0  0  0  0  0  0  0  0  0
   35.7570   26.9870   31.1940 H   0  0  0  0  0  0  0  0  0  0  0  0
   37.8160   24.0210   33.4300 H   0  0  0  0  0  0  0  0  0  0  0  0
   38.8320   24.9540   35.8370 H   0  0  0  0  0  0  0  0  0  0  0  0
   38.8230   27.2410   37.0640 H   0  0  0  0  0  0  0  0  0  0  0  0
   37.5010   28.9510   35.5210 H   0  0  0  0  0  0  0  0  0  0  0  0
   36.1300   29.0230   32.9980 C   0  0  2  0  0  3  0  0  0  0  0  0
   34.6030   29.1000   32.8880 C   0  0  0  0  0  3  0  0  0  0  0  0
   34.1390   28.9890   33.8750 H   0  0  0  0  0  0  0  0  0  0  0  0
   34.4390   30.4410   32.2430 C   0  0  0  0  0  3  0  0  0  0  0  0
   33.6910   30.4490   31.4310 H   0  0  0  0  0  0  0  0  0  0  0  0
   35.6950   30.8870   31.8680 O   0  0  0  0  0  0  0  0  0  0  0  0
   36.5150   29.7390   31.7490 C   0  0  0  0  0  3  0  0  0  0  0  0
   37.5550   30.0750   31.7150 H   0  0  0  0  0  0  0  0  0  0  0  0
  1  3  1  0  0  0  0
  2  1  1  0  0  0  0
  4  7  1  0  0  0  0
  4  1  1  0  0  0  0
  4  5  1  0  0  0  0
  6  4  1  0  0  0  0
  7  8  1  0  0  0  0
  7 10  1  0  0  0  0
  9  7  1  0  0  0  0
 10 11  1  0  0  0  0
 11 16  1  0  0  0  0
 12 11  2  0  0  0  0
 12 13  1  0  0  0  0
 13 21  1  0  0  0  0
 13 14  2  0  0  0  0
 14 15  1  0  0  0  0
 15 19  1  0  0  0  0
 16 15  2  0  0  0  0
 17 22  1  0  0  0  0
 18 17  2  0  0  0  0
 19 23  1  0  0  0  0
 19 17  1  0  0  0  0
 20 12  1  0  0  0  0
 24  1  1  0  0  0  0
 24 26  1  0  0  0  0
 25 26  2  0  0  0  0
 25 33  1  0  0  0  0
 26 27  1  0  0  0  0
 27 35  1  0  0  0  0
 27 28  2  0  0  0  0
 28 29  1  0  0  0  0
 29 36  1  0  0  0  0
 29 30  1  0  0  0  0
 30 37  1  0  0  0  0
 31 38  1  0  0  0  0
 31 30  2  0  0  0  0
 32 28  1  0  0  0  0
 32 31  1  0  0  0  0
 33 32  2  0  0  0  0
 34 25  1  0  0  0  0
 39 33  1  6  0  0  0
 40 39  1  0  0  0  0
 40 41  1  0  0  0  0
 42 40  1  0  0  0  0
 43 42  1  0  0  0  0
 44 42  1  0  0  0  0
 45 44  1  0  0  0  0
 45 39  1  0  0  0  0
 46 45  1  0  0  0  0
M  END
>  <minimizedAffinity>
-5.55354834

$$$$

 OpenBabel03262521263D

 46 49  0  0  1  0  0  0  0  0999 V2000
   36.9000   20.1190   32.3740 C   0  0  0  0  0  0  0  0  0  0  0  0
   36.5810   19.8620   33.4250 H   0  0  0  0  0  0  0  0  0  0  0  0
   37.1190   19.1180   31.9210 H   0  0  0  0  0  0  0  0  0  0  0  0
   35.7730   20.7520   31.6000 C   0  0  0  0  0  0  0  0  0  0  0  0
   36.0680   20.7060   30.5280 H   0  0  0  0  0  0  0  0  0  0  0  0
   34.9370   19.9890   31.6510 H   0  0  0  0  0  0  0  0  0  0  0  0
   35.3980   21.9710   32.0680 C   0  0  0  0  0  0  0  0  0  0  0  0
   36.0800   22.4040   32.8520 H   0  0  0  0  0  0  0  0  0  0  0  0
   34.3710   22.0540   32.4810 H   0  0  0  0  0  0  0  0  0  0  0  0
   35.5060   22.6770   30.8990 O   0  0  0  0  0  0  0  0  0  0  0  0
   36.1170   23.9040   30.9290 C   0  0  0  0  0  0  0  0  0  0  0  0
   35.2440   24.9220   31.2280 C   0  0  0  0  0  0  0  0  0  0  0  0
   35.7370   26.2410   31.2930 C   0  0  0  0  0  0  0  0  0  0  0  0
   37.0630   26.4280   31.0510 N   0  0  0  0  0  0  0  0  0  0  0  0
   37.9080   25.3880   30.7560 C   0  0  0  0  0  0  0  0  0  0  0  0
   37.4060   24.1520   30.7030 N   0  0  0  0  0  0  0  0  0  0  0  0
   39.5990   27.0660   30.5740 C   0  0  0  0  0  0  0  0  0  0  0  0
   38.7810   28.0170   30.8100 O   0  0  0  0  0  0  0  0  0  0  0  0
   39.2750   25.6990   30.5210 N   0  0  0  0  0  0  0  0  0  0  0  0
   34.1770   24.9120   31.4380 H   0  0  0  0  0  0  0  0  0  0  0  0
   35.1540   27.0990   31.5150 H   0  0  0  0  0  0  0  0  0  0  0  0
   40.6340   27.3630   30.4020 H   0  0  0  0  0  0  0  0  0  0  0  0
   39.9490   24.9270   30.3280 H   0  0  0  0  0  0  0  0  0  0  0  0
   38.3950   21.0550   32.4220 S   0  0  0  0  0  0  0  0  0  0  0  0
   39.3430   23.3090   33.8780 C   0  0  0  0  0  0  0  0  0  0  0  0
   38.5580   22.1570   33.7860 C   0  0  0  0  0  0  0  0  0  0  0  0
   37.8070   21.8360   34.9160 C   0  0  0  0  0  0  0  0  0  0  0  0
   37.8140   22.5800   36.0600 C   0  0  0  0  0  0  0  0  0  0  0  0
   37.2210   22.5170   37.2470 N   0  0  0  0  0  0  0  0  0  0  0  0
   37.5950   23.5570   38.0560 C   0  0  0  0  0  0  0  0  0  0  0  0
   38.4790   24.3130   37.3160 C   0  0  0  0  0  0  0  0  0  0  0  0
   38.6080   23.7050   36.0880 C   0  0  0  0  0  0  0  0  0  0  0  0
   39.3640   24.0770   35.0260 C   0  0  0  0  0  0  0  0  0  0  0  0
   39.9040   23.5140   32.9800 H   0  0  0  0  0  0  0  0  0  0  0  0
   37.1540   20.9540   34.9570 H   0  0  0  0  0  0  0  0  0  0  0  0
   36.5460   21.7640   37.5400 H   0  0  0  0  0  0  0  0  0  0  0  0
   37.2680   23.7430   39.0550 H   0  0  0  0  0  0  0  0  0  0  0  0
   38.9740   25.2190   37.6540 H   0  0  0  0  0  0  0  0  0  0  0  0
   40.2110   25.2770   35.0620 C   0  0  2  0  0  3  0  0  0  0  0  0
   39.6060   26.4180   34.2350 C   0  0  0  0  0  3  0  0  0  0  0  0
   38.8100   26.9200   34.7960 H   0  0  0  0  0  0  0  0  0  0  0  0
   40.8270   27.2420   33.9670 C   0  0  0  0  0  3  0  0  0  0  0  0
   40.8920   27.6020   32.9250 H   0  0  0  0  0  0  0  0  0  0  0  0
   41.9280   26.5180   34.3920 O   0  0  0  0  0  0  0  0  0  0  0  0
   41.5410   25.1570   34.4020 C   0  0  0  0  0  3  0  0  0  0  0  0
   42.2890   24.6020   34.9750 H   0  0  0  0  0  0  0  0  0  0  0  0
  1 24  1  0  0  0  0
  1  2  1  0  0  0  0
  3  1  1  0  0  0  0
  4  6  1  0  0  0  0
  4  7  1  0  0  0  0
  4  1  1  0  0  0  0
  5  4  1  0  0  0  0
  7  9  1  0  0  0  0
  7  8  1  0  0  0  0
 10 11  1  0  0  0  0
 10  7  1  0  0  0  0
 11 12  1  0  0  0  0
 12 13  2  0  0  0  0
 12 20  1  0  0  0  0
 13 21  1  0  0  0  0
 14 13  1  0  0  0  0
 15 14  2  0  0  0  0
 16 15  1  0  0  0  0
 16 11  2  0  0  0  0
 17 18  2  0  0  0  0
 19 17  1  0  0  0  0
 19 15  1  0  0  0  0
 22 17  1  0  0  0  0
 23 19  1  0  0  0  0
 24 26  1  0  0  0  0
 25 33  1  0  0  0  0
 26 25  2  0  0  0  0
 26 27  1  0  0  0  0
 27 35  1  0  0  0  0
 27 28  2  0  0  0  0
 28 32  1  0  0  0  0
 28 29  1  0  0  0  0
 29 36  1  0  0  0  0
 29 30  1  0  0  0  0
 30 37  1  0  0  0  0
 31 38  1  0  0  0  0
 31 30  2  0  0  0  0
 32 31  1  0  0  0  0
 33 32  2  0  0  0  0
 34 25  1  0  0  0  0
 39 33  1  6  0  0  0
 40 41  1  0  0  0  0
 40 39  1  0  0  0  0
 42 40  1  0  0  0  0
 42 44  1  0  0  0  0
 43 42  1  0  0  0  0
 44 45  1  0  0  0  0
 45 46  1  0  0  0  0
 45 39  1  0  0  0  0
M  END
>  <minimizedAffinity>
-5.51244831

$$$$

 OpenBabel03262521263D

 46 49  0  0  1  0  0  0  0  0999 V2000
   37.8300   24.8280   36.5170 C   0  0  0  0  0  0  0  0  0  0  0  0
   38.0960   24.1070   35.6920 H   0  0  0  0  0  0  0  0  0  0  0  0
   36.7090   24.8400   36.4940 H   0  0  0  0  0  0  0  0  0  0  0  0
   38.2710   24.3110   37.8610 C   0  0  0  0  0  0  0  0  0  0  0  0
   38.8540   25.1320   38.3340 H   0  0  0  0  0  0  0  0  0  0  0  0
   37.3230   24.3030   38.4810 H   0  0  0  0  0  0  0  0  0  0  0  0
   38.8750   23.0960   37.8130 C   0  0  0  0  0  0  0  0  0  0  0  0
   38.1810   22.2320   37.6100 H   0  0  0  0  0  0  0  0  0  0  0  0
   39.4760   22.8000   38.6990 H   0  0  0  0  0  0  0  0  0  0  0  0
   39.6880   23.3180   36.7320 O   0  0  0  0  0  0  0  0  0  0  0  0
   40.8860   22.6570   36.6670 C   0  0  0  0  0  0  0  0  0  0  0  0
   41.8720   23.4060   36.0710 C   0  0  0  0  0  0  0  0  0  0  0  0
   43.1600   22.8500   35.9360 C   0  0  0  0  0  0  0  0  0  0  0  0
   43.3510   21.5880   36.4120 N   0  0  0  0  0  0  0  0  0  0  0  0
   42.3450   20.8670   37.0030 C   0  0  0  0  0  0  0  0  0  0  0  0
   41.1370   21.4270   37.1130 N   0  0  0  0  0  0  0  0  0  0  0  0
   43.9720   19.1310   37.2110 C   0  0  0  0  0  0  0  0  0  0  0  0
   44.8760   19.8090   36.6190 O   0  0  0  0  0  0  0  0  0  0  0  0
   42.6570   19.5590   37.4630 N   0  0  0  0  0  0  0  0  0  0  0  0
   41.8540   24.4100   35.6530 H   0  0  0  0  0  0  0  0  0  0  0  0
   43.9920   23.3380   35.4940 H   0  0  0  0  0  0  0  0  0  0  0  0
   44.2680   18.1350   37.5430 H   0  0  0  0  0  0  0  0  0  0  0  0
   41.9230   18.9990   37.9480 H   0  0  0  0  0  0  0  0  0  0  0  0
   38.4170   26.4400   36.1040 S   0  0  0  0  0  0  0  0  0  0  0  0
   38.3300   26.8620   33.2910 C   0  0  0  0  0  0  0  0  0  0  0  0
   37.8330   27.0930   34.5770 C   0  0  0  0  0  0  0  0  0  0  0  0
   36.7370   27.9500   34.6650 C   0  0  0  0  0  0  0  0  0  0  0  0
   36.1570   28.5440   33.5810 C   0  0  0  0  0  0  0  0  0  0  0  0
   35.1400   29.3720   33.3740 N   0  0  0  0  0  0  0  0  0  0  0  0
   34.9850   29.6620   32.0440 C   0  0  0  0  0  0  0  0  0  0  0  0
   35.9760   28.9620   31.3870 C   0  0  0  0  0  0  0  0  0  0  0  0
   36.6920   28.2760   32.3410 C   0  0  0  0  0  0  0  0  0  0  0  0
   37.7580   27.4530   32.1810 C   0  0  0  0  0  0  0  0  0  0  0  0
   39.1770   26.1950   33.2760 H   0  0  0  0  0  0  0  0  0  0  0  0
   36.2630   28.2020   35.6230 H   0  0  0  0  0  0  0  0  0  0  0  0
   34.5220   29.7660   34.1310 H   0  0  0  0  0  0  0  0  0  0  0  0
   34.2490   30.2990   31.6060 H   0  0  0  0  0  0  0  0  0  0  0  0
   36.1450   28.9630   30.3140 H   0  0  0  0  0  0  0  0  0  0  0  0
   38.3250   27.1720   30.8550 C   0  0  2  0  0  3  0  0  0  0  0  0
   38.5050   25.6670   30.6270 C   0  0  0  0  0  3  0  0  0  0  0  0
   37.5510   25.2020   30.3550 H   0  0  0  0  0  0  0  0  0  0  0  0
   39.5500   25.6730   29.5550 C   0  0  0  0  0  3  0  0  0  0  0  0
   40.3460   24.9250   29.7150 H   0  0  0  0  0  0  0  0  0  0  0  0
   40.0060   26.9730   29.4150 O   0  0  0  0  0  0  0  0  0  0  0  0
   39.7240   27.6360   30.6330 C   0  0  0  0  0  3  0  0  0  0  0  0
   39.8290   28.7100   30.4590 H   0  0  0  0  0  0  0  0  0  0  0  0
  1  4  1  0  0  0  0
  2  1  1  0  0  0  0
  3  1  1  0  0  0  0
  4  5  1  0  0  0  0
  4  6  1  0  0  0  0
  7  4  1  0  0  0  0
  7  9  1  0  0  0  0
  8  7  1  0  0  0  0
 10  7  1  0  0  0  0
 11 10  1  0  0  0  0
 11 16  1  0  0  0  0
 12 11  2  0  0  0  0
 13 12  1  0  0  0  0
 13 14  2  0  0  0  0
 14 15  1  0  0  0  0
 15 16  2  0  0  0  0
 15 19  1  0  0  0  0
 17 19  1  0  0  0  0
 17 22  1  0  0  0  0
 18 17  2  0  0  0  0
 19 23  1  0  0  0  0
 20 12  1  0  0  0  0
 21 13  1  0  0  0  0
 24  1  1  0  0  0  0
 25 26  1  0  0  0  0
 26 27  2  0  0  0  0
 26 24  1  0  0  0  0
 27 35  1  0  0  0  0
 28 27  1  0  0  0  0
 29 28  1  0  0  0  0
 29 36  1  0  0  0  0
 30 29  1  0  0  0  0
 31 30  2  0  0  0  0
 31 32  1  0  0  0  0
 32 28  2  0  0  0  0
 33 32  1  0  0  0  0
 33 25  2  0  0  0  0
 34 25  1  0  0  0  0
 37 30  1  0  0  0  0
 38 31  1  0  0  0  0
 39 33  1  1  0  0  0
 40 39  1  0  0  0  0
 41 40  1  0  0  0  0
 42 43  1  0  0  0  0
 42 40  1  0  0  0  0
 44 42  1  0  0  0  0
 44 45  1  0  0  0  0
 45 39  1  0  0  0  0
 46 45  1  0  0  0  0
M  END
>  <minimizedAffinity>
-5.50662756

$$$$

 OpenBabel03262521263D

 46 49  0  0  1  0  0  0  0  0999 V2000
   35.7850   22.0430   31.8610 C   0  0  0  0  0  0  0  0  0  0  0  0
   34.9630   22.2470   32.6070 H   0  0  0  0  0  0  0  0  0  0  0  0
   35.3330   21.2700   31.1870 H   0  0  0  0  0  0  0  0  0  0  0  0
   36.0920   23.2670   31.0380 C   0  0  0  0  0  0  0  0  0  0  0  0
   37.2000   23.3710   31.0370 H   0  0  0  0  0  0  0  0  0  0  0  0
   35.8810   22.9460   29.9720 H   0  0  0  0  0  0  0  0  0  0  0  0
   35.3850   24.3680   31.4010 C   0  0  0  0  0  0  0  0  0  0  0  0
   34.5050   24.1630   32.0720 H   0  0  0  0  0  0  0  0  0  0  0  0
   34.9980   25.0080   30.5800 H   0  0  0  0  0  0  0  0  0  0  0  0
   36.3710   25.0190   32.0960 O   0  0  0  0  0  0  0  0  0  0  0  0
   36.8860   26.1760   31.5720 C   0  0  0  0  0  0  0  0  0  0  0  0
   38.2600   26.1750   31.5350 C   0  0  0  0  0  0  0  0  0  0  0  0
   38.9260   27.3050   31.0190 C   0  0  0  0  0  0  0  0  0  0  0  0
   38.1580   28.3420   30.5840 N   0  0  0  0  0  0  0  0  0  0  0  0
   36.7880   28.3110   30.6350 C   0  0  0  0  0  0  0  0  0  0  0  0
   36.1910   27.2230   31.1300 N   0  0  0  0  0  0  0  0  0  0  0  0
   36.8950   30.5130   29.7170 C   0  0  0  0  0  0  0  0  0  0  0  0
   38.1710   30.5300   29.7220 O   0  0  0  0  0  0  0  0  0  0  0  0
   36.0860   29.4490   30.1530 N   0  0  0  0  0  0  0  0  0  0  0  0
   38.9840   25.4260   31.8460 H   0  0  0  0  0  0  0  0  0  0  0  0
   39.9790   27.4100   30.9440 H   0  0  0  0  0  0  0  0  0  0  0  0
   36.4100   31.4130   29.3370 H   0  0  0  0  0  0  0  0  0  0  0  0
   35.0440   29.4420   30.1460 H   0  0  0  0  0  0  0  0  0  0  0  0
   37.1700   21.3290   32.6880 S   0  0  0  0  0  0  0  0  0  0  0  0
   38.7860   23.2440   34.0370 C   0  0  0  0  0  0  0  0  0  0  0  0
   37.8020   22.2520   34.0480 C   0  0  0  0  0  0  0  0  0  0  0  0
   37.2470   21.9530   35.2920 C   0  0  0  0  0  0  0  0  0  0  0  0
   37.6200   22.5720   36.4500 C   0  0  0  0  0  0  0  0  0  0  0  0
   37.2760   22.4940   37.7300 N   0  0  0  0  0  0  0  0  0  0  0  0
   37.9880   23.3750   38.5010 C   0  0  0  0  0  0  0  0  0  0  0  0
   38.8290   24.0410   37.6330 C   0  0  0  0  0  0  0  0  0  0  0  0
   38.5950   23.5410   36.3730 C   0  0  0  0  0  0  0  0  0  0  0  0
   39.1780   23.8820   35.1970 C   0  0  0  0  0  0  0  0  0  0  0  0
   39.1840   23.4380   33.0530 H   0  0  0  0  0  0  0  0  0  0  0  0
   36.4660   21.1920   35.4200 H   0  0  0  0  0  0  0  0  0  0  0  0
   36.5470   21.8400   38.1170 H   0  0  0  0  0  0  0  0  0  0  0  0
   37.9080   23.5160   39.5560 H   0  0  0  0  0  0  0  0  0  0  0  0
   39.5390   24.8150   37.9110 H   0  0  0  0  0  0  0  0  0  0  0  0
   40.2190   24.9170   35.1220 C   0  0  2  0  0  3  0  0  0  0  0  0
   39.6180   26.3050   34.8760 C   0  0  0  0  0  3  0  0  0  0  0  0
   39.2210   26.7240   35.8070 H   0  0  0  0  0  0  0  0  0  0  0  0
   40.7990   27.0190   34.2970 C   0  0  0  0  0  3  0  0  0  0  0  0
   40.5490   27.6430   33.4210 H   0  0  0  0  0  0  0  0  0  0  0  0
   41.7900   26.0800   34.0660 O   0  0  0  0  0  0  0  0  0  0  0  0
   41.1450   24.8260   33.9570 C   0  0  0  0  0  3  0  0  0  0  0  0
   41.9100   24.0490   34.0390 H   0  0  0  0  0  0  0  0  0  0  0  0
  1  2  1  0  0  0  0
  1 24  1  0  0  0  0
  3  1  1  0  0  0  0
  4  7  1  0  0  0  0
  4  1  1  0  0  0  0
  5  4  1  0  0  0  0
  6  4  1  0  0  0  0
  7  8  1  0  0  0  0
  7 10  1  0  0  0  0
  9  7  1  0  0  0  0
 11 10  1  0  0  0  0
 12 11  1  0  0  0  0
 12 20  1  0  0  0  0
 13 12  2  0  0  0  0
 14 15  2  0  0  0  0
 14 13  1  0  0  0  0
 15 16  1  0  0  0  0
 16 11  2  0  0  0  0
 17 18  2  0  0  0  0
 17 19  1  0  0  0  0
 19 15  1  0  0  0  0
 21 13  1  0  0  0  0
 22 17  1  0  0  0  0
 23 19  1  0  0  0  0
 24 26  1  0  0  0  0
 25 26  2  0  0  0  0
 25 33  1  0  0  0  0
 26 27  1  0  0  0  0
 27 35  1  0  0  0  0
 27 28  2  0  0  0  0
 28 29  1  0  0  0  0
 29 36  1  0  0  0  0
 29 30  1  0  0  0  0
 30 37  1  0  0  0  0
 31 38  1  0  0  0  0
 31 30  2  0  0  0  0
 32 28  1  0  0  0  0
 32 31  1  0  0  0  0
 33 32  2  0  0  0  0
 34 25  1  0  0  0  0
 39 33  1  6  0  0  0
 40 39  1  0  0  0  0
 40 41  1  0  0  0  0
 42 40  1  0  0  0  0
 43 42  1  0  0  0  0
 44 42  1  0  0  0  0
 45 46  1  0  0  0  0
 45 44  1  0  0  0  0
 45 39  1  0  0  0  0
M  END
>  <minimizedAffinity>
-5.45685387

$$$$
