
 OpenBabel03272505273D

 30 32  0  0  1  0  0  0  0  0999 V2000
   37.3760   31.0590   47.1550 N   0  0  0  0  0  0  0  0  0  0  0  0
   36.7900   30.7230   45.9750 C   0  0  0  0  0  0  0  0  0  0  0  0
   37.2490   31.1950   44.7570 C   0  0  0  0  0  0  0  0  0  0  0  0
   38.3590   32.0470   44.7790 C   0  0  0  0  0  0  0  0  0  0  0  0
   38.8160   32.5020   43.7040 O   0  0  0  0  0  0  0  0  0  0  0  0
   38.9560   32.3910   45.9680 N   0  0  0  0  0  0  0  0  0  0  0  0
   38.4180   31.8690   47.0760 C   0  0  0  0  0  0  0  0  0  0  0  0
   38.9830   32.2040   48.1350 O   0  0  0  0  0  0  0  0  0  0  0  0
   35.9520   30.0770   45.9780 H   0  0  0  0  0  0  0  0  0  0  0  0
   37.2330   29.4740   50.5100 C   0  0  0  0  0  0  0  0  0  0  0  0
   37.7420   29.9560   49.2860 C   0  0  0  0  0  0  0  0  0  0  0  0
   36.8930   30.5690   48.3710 C   0  0  0  0  0  0  0  0  0  0  0  0
   35.5780   30.6850   48.6910 N   0  0  0  0  0  0  0  0  0  0  0  0
   35.0790   30.2210   49.8700 C   0  0  0  0  0  0  0  0  0  0  0  0
   35.9050   29.6190   50.7730 N   0  0  0  0  0  0  0  0  0  0  0  0
   37.8380   28.9890   51.2620 H   0  0  0  0  0  0  0  0  0  0  0  0
   38.7830   29.7690   49.2050 H   0  0  0  0  0  0  0  0  0  0  0  0
   34.0280   30.3230   50.1050 H   0  0  0  0  0  0  0  0  0  0  0  0
   36.6620   30.8710   43.4350 C   0  0  2  0  0  0  0  0  0  0  0  0
   37.6300   30.0970   42.5450 C   0  0  0  0  0  0  0  0  0  0  0  0
   38.6810   30.3260   42.8330 H   0  0  0  0  0  0  0  0  0  0  0  0
   37.3630   30.7080   41.1840 C   0  0  0  0  0  0  0  0  0  0  0  0
   38.2030   31.2920   40.7940 H   0  0  0  0  0  0  0  0  0  0  0  0
   36.2080   31.5000   41.3320 O   0  0  0  0  0  0  0  0  0  0  0  0
   36.4750   32.1130   42.5830 C   0  0  0  0  0  0  0  0  0  0  0  0
   37.4650   32.5990   42.4230 H   0  0  0  0  0  0  0  0  0  0  0  0
   40.1030   33.2710   45.9890 C   0  0  0  0  0  0  0  0  0  0  0  0
   39.9590   34.2430   45.0430 F   0  0  0  0  0  0  0  0  0  0  0  0
   41.2910   32.6140   45.7050 F   0  0  0  0  0  0  0  0  0  0  0  0
   40.1730   33.8830   47.2320 F   0  0  0  0  0  0  0  0  0  0  0  0
  1 12  1  0  0  0  0
  2  9  1  0  0  0  0
  2  1  1  0  0  0  0
  3  4  1  0  0  0  0
  3  2  2  0  0  0  0
  4  6  1  0  0  0  0
  5  4  2  0  0  0  0
  6 27  1  0  0  0  0
  6  7  1  0  0  0  0
  7  1  1  0  0  0  0
  7  8  2  0  0  0  0
 10 15  1  0  0  0  0
 10 16  1  0  0  0  0
 11 10  2  0  0  0  0
 12 13  2  0  0  0  0
 12 11  1  0  0  0  0
 13 14  1  0  0  0  0
 14 18  1  0  0  0  0
 14 15  2  0  0  0  0
 17 11  1  0  0  0  0
 19  3  1  1  0  0  0
 20 21  1  0  0  0  0
 20 19  1  0  0  0  0
 22 24  1  0  0  0  0
 22 20  1  0  0  0  0
 23 22  1  0  0  0  0
 24 25  1  0  0  0  0
 25 19  1  0  0  0  0
 26 25  1  0  0  0  0
 27 30  1  0  0  0  0
 28 27  1  0  0  0  0
 29 27  1  0  0  0  0
M  END
>  <minimizedAffinity>
-6.07233286

>  <minimizedRMSD>
0.246959344

$$$$
