
 OpenBabel03272507533D

 31 33  0  0  1  0  0  0  0  0999 V2000
   36.6170   31.3410   48.7300 N   0  0  0  0  0  0  0  0  0  0  0  0
   36.7810   32.1920   49.7330 C   0  0  0  0  0  0  0  0  0  0  0  0
   37.8210   33.1180   49.6930 C   0  0  0  0  0  0  0  0  0  0  0  0
   38.6010   33.0550   48.5800 C   0  0  0  0  0  0  0  0  0  0  0  0
   39.5480   33.9050   48.5510 O   0  0  0  0  0  0  0  0  0  0  0  0
   38.4680   32.2190   47.5580 N   0  0  0  0  0  0  0  0  0  0  0  0
   37.4490   31.3450   47.6410 C   0  0  0  0  0  0  0  0  0  0  0  0
   37.2920   30.5300   46.6730 O   0  0  0  0  0  0  0  0  0  0  0  0
   36.0820   32.1380   50.5770 H   0  0  0  0  0  0  0  0  0  0  0  0
   37.9510   33.8030   50.5060 H   0  0  0  0  0  0  0  0  0  0  0  0
   35.3850   29.5910   49.8880 C   0  0  0  0  0  0  0  0  0  0  0  0
   35.5780   30.3640   48.7130 C   0  0  0  0  0  0  0  0  0  0  0  0
   34.7390   30.1140   47.6220 C   0  0  0  0  0  0  0  0  0  0  0  0
   33.7910   29.1560   47.7380 N   0  0  0  0  0  0  0  0  0  0  0  0
   33.6180   28.4410   48.8360 C   0  0  0  0  0  0  0  0  0  0  0  0
   34.4080   28.6530   49.9070 N   0  0  0  0  0  0  0  0  0  0  0  0
   34.8990   30.7120   46.7350 H   0  0  0  0  0  0  0  0  0  0  0  0
   32.8710   27.6680   48.9620 H   0  0  0  0  0  0  0  0  0  0  0  0
   37.4160   29.2000   51.4740 C   0  0  0  0  0  0  0  0  0  0  0  0
   38.1110   28.4840   50.7170 O   0  0  0  0  0  0  0  0  0  0  0  0
   36.1570   29.7560   51.0600 N   0  0  0  0  0  0  0  0  0  0  0  0
   37.8390   29.3600   52.4510 H   0  0  0  0  0  0  0  0  0  0  0  0
   35.7890   30.4020   51.8100 H   0  0  0  0  0  0  0  0  0  0  0  0
   39.3810   32.2950   46.4710 C   0  0  1  0  0  0  0  0  0  0  0  0
   40.0930   31.0640   46.0410 C   0  0  0  0  0  0  0  0  0  0  0  0
   40.7650   30.6130   46.7680 H   0  0  0  0  0  0  0  0  0  0  0  0
   40.8530   31.7500   44.8840 C   0  0  0  0  0  0  0  0  0  0  0  0
   41.6120   32.3690   45.4030 H   0  0  0  0  0  0  0  0  0  0  0  0
   39.8560   32.4900   44.2570 O   0  0  0  0  0  0  0  0  0  0  0  0
   38.8180   32.7060   45.1450 C   0  0  0  0  0  0  0  0  0  0  0  0
   38.6470   33.8150   45.1450 H   0  0  0  0  0  0  0  0  0  0  0  0
  1  2  1  0  0  0  0
  2  9  1  0  0  0  0
  3  2  2  0  0  0  0
  3 10  1  0  0  0  0
  4  3  1  0  0  0  0
  5  4  2  0  0  0  0
  6  7  1  0  0  0  0
  6  4  1  0  0  0  0
  7  1  1  0  0  0  0
  8  7  2  0  0  0  0
 11 16  1  0  0  0  0
 11 21  1  0  0  0  0
 12  1  1  0  0  0  0
 12 11  2  0  0  0  0
 13 14  2  0  0  0  0
 13 12  1  0  0  0  0
 14 15  1  0  0  0  0
 15 18  1  0  0  0  0
 15 16  2  0  0  0  0
 17 13  1  0  0  0  0
 19 22  1  0  0  0  0
 20 19  2  0  0  0  0
 21 19  1  0  0  0  0
 21 23  1  0  0  0  0
 24  6  1  1  0  0  0
 25 24  1  0  0  0  0
 25 26  1  0  0  0  0
 27 28  1  0  0  0  0
 27 25  1  0  0  0  0
 29 27  1  0  0  0  0
 29 30  1  0  0  0  0
 30 31  1  0  0  0  0
 30 24  1  0  0  0  0
M  END
>  <minimizedAffinity>
-6.14187336

>  <minimizedRMSD>
0.99415195

$$$$
