
 OpenBabel03272508283D

 37 40  0  0  1  0  0  0  0  0999 V2000
   33.9770   29.0130   47.3480 C   0  0  2  0  0  0  0  0  0  0  0  0
   34.7400   28.2480   48.4190 C   0  0  2  0  0  0  0  0  0  0  0  0
   33.8530   28.0660   49.4430 O   0  0  0  0  0  0  0  0  0  0  0  0
   32.5750   28.1210   48.9870 C   0  0  0  0  0  0  0  0  0  0  0  0
   32.6100   28.3330   47.4890 C   0  0  1  0  0  0  0  0  0  0  0  0
   33.8070   30.0580   47.6210 H   0  0  0  0  0  0  0  0  0  0  0  0
   35.0340   27.2900   47.9260 H   0  0  0  0  0  0  0  0  0  0  0  0
   32.0070   27.2170   49.2710 H   0  0  0  0  0  0  0  0  0  0  0  0
   32.0830   29.0190   49.4530 H   0  0  0  0  0  0  0  0  0  0  0  0
   32.6720   27.3470   46.9840 H   0  0  0  0  0  0  0  0  0  0  0  0
   35.8050   30.5200   49.0420 C   0  0  1  0  0  0  0  0  0  0  0  0
   35.8980   29.0950   48.8340 C   0  0  1  0  0  0  0  0  0  0  0  0
   36.0530   29.5880   50.2360 C   0  0  0  0  0  0  0  0  0  0  0  0
   34.9020   31.1230   49.2260 H   0  0  0  0  0  0  0  0  0  0  0  0
   36.8680   28.7240   48.3900 H   0  0  0  0  0  0  0  0  0  0  0  0
   35.2090   29.3470   50.9070 H   0  0  0  0  0  0  0  0  0  0  0  0
   37.0360   29.5990   50.7280 H   0  0  0  0  0  0  0  0  0  0  0  0
   36.9930   31.4320   48.7870 C   0  0  0  0  0  0  0  0  0  0  0  0
   37.1990   32.4870   49.6750 C   0  0  0  0  0  0  0  0  0  0  0  0
   38.2840   33.3020   49.3800 C   0  0  0  0  0  0  0  0  0  0  0  0
   39.0760   33.0560   48.2840 N   0  0  0  0  0  0  0  0  0  0  0  0
   38.8350   32.0190   47.4520 C   0  0  0  0  0  0  0  0  0  0  0  0
   37.7850   31.2000   47.7070 N   0  0  0  0  0  0  0  0  0  0  0  0
   36.5500   32.6320   50.5140 H   0  0  0  0  0  0  0  0  0  0  0  0
   38.4770   34.1330   50.0470 H   0  0  0  0  0  0  0  0  0  0  0  0
   39.4900   31.8760   46.6090 H   0  0  0  0  0  0  0  0  0  0  0  0
   34.4940   28.8510   46.0770 O   0  0  0  0  0  0  0  0  0  0  0  0
   34.4880   27.8800   45.8720 H   0  0  0  0  0  0  0  0  0  0  0  0
   31.6020   29.1200   47.0030 O   0  0  0  0  0  0  0  0  0  0  0  0
   30.9150   28.5830   45.9340 C   0  0  2  0  0  3  0  0  0  0  0  0
   29.5160   29.1590   45.7960 C   0  0  0  0  0  3  0  0  0  0  0  0
   29.4560   30.0120   45.1230 H   0  0  0  0  0  0  0  0  0  0  0  0
   28.8140   27.9860   45.1300 C   0  0  0  0  0  3  0  0  0  0  0  0
   28.9320   28.0550   44.0170 H   0  0  0  0  0  0  0  0  0  0  0  0
   29.3820   26.8350   45.6360 O   0  0  0  0  0  0  0  0  0  0  0  0
   30.5800   27.1470   46.2560 C   0  0  0  0  0  3  0  0  0  0  0  0
   31.4000   26.4350   46.0330 H   0  0  0  0  0  0  0  0  0  0  0  0
  1  5  1  0  0  0  0
  1  6  1  1  0  0  0
  1  2  1  0  0  0  0
  2  7  1  6  0  0  0
  2 12  1  0  0  0  0
  2  3  1  0  0  0  0
  4  8  1  0  0  0  0
  4  3  1  0  0  0  0
  4  9  1  0  0  0  0
  5 10  1  6  0  0  0
  5  4  1  0  0  0  0
 11 14  1  6  0  0  0
 11 13  1  0  0  0  0
 12 15  1  6  0  0  0
 12 11  1  0  0  0  0
 12 13  1  0  0  0  0
 13 17  1  0  0  0  0
 13 16  1  0  0  0  0
 18 11  1  0  0  0  0
 18 19  1  0  0  0  0
 19 24  1  0  0  0  0
 20 19  2  0  0  0  0
 20 25  1  0  0  0  0
 21 20  1  0  0  0  0
 22 23  1  0  0  0  0
 22 21  2  0  0  0  0
 23 18  2  0  0  0  0
 26 22  1  0  0  0  0
 27  1  1  0  0  0  0
 28 27  1  0  0  0  0
 29  5  1  0  0  0  0
 30 36  1  0  0  0  0
 30 29  1  1  0  0  0
 31 30  1  0  0  0  0
 32 31  1  0  0  0  0
 33 35  1  0  0  0  0
 33 31  1  0  0  0  0
 34 33  1  0  0  0  0
 35 36  1  0  0  0  0
 37 36  1  0  0  0  0
M  END
>  <minimizedAffinity>
-4.78279018

>  <minimizedRMSD>
0.132356554

$$$$
