
 OpenBabel03272506093D

 43 46  0  0  1  0  0  0  0  0999 V2000
   34.9790   28.5210   49.1820 C   0  0  0  0  0  0  0  0  0  0  0  0
   35.8930   28.3470   48.5750 H   0  0  0  0  0  0  0  0  0  0  0  0
   34.9940   27.7100   49.9490 H   0  0  0  0  0  0  0  0  0  0  0  0
   33.7550   28.3390   48.3250 C   0  0  0  0  0  0  0  0  0  0  0  0
   33.8560   28.5500   46.8990 C   0  0  0  0  0  0  0  0  0  0  0  0
   32.1890   28.2160   46.3970 S   0  0  0  0  0  0  0  0  0  0  0  0
   31.5680   27.8420   48.1280 C   0  0  0  0  0  0  0  0  0  0  0  0
   32.5810   28.0030   48.7570 N   0  0  0  0  0  0  0  0  0  0  0  0
   30.2530   27.4650   48.6110 N   0  0  0  0  0  0  0  0  0  0  0  0
   29.4190   26.7630   47.7030 C   0  0  0  0  0  0  0  0  0  0  0  0
   27.9800   26.7130   48.0890 C   0  0  0  0  0  0  0  0  0  0  0  0
   27.6550   27.5940   49.1960 N   0  0  0  0  0  0  0  0  0  0  0  0
   28.5530   27.1990   50.2770 C   0  0  0  0  0  0  0  0  0  0  0  0
   29.8820   27.8250   49.9680 C   0  0  0  0  0  0  0  0  0  0  0  0
   34.7110   28.8230   46.3640 H   0  0  0  0  0  0  0  0  0  0  0  0
   29.4590   27.3340   46.7290 H   0  0  0  0  0  0  0  0  0  0  0  0
   29.7870   25.7500   47.4200 H   0  0  0  0  0  0  0  0  0  0  0  0
   27.2940   26.8920   47.2160 H   0  0  0  0  0  0  0  0  0  0  0  0
   27.7430   25.6890   48.4490 H   0  0  0  0  0  0  0  0  0  0  0  0
   27.9150   28.5610   48.8970 H   0  0  0  0  0  0  0  0  0  0  0  0
   28.6210   26.0980   50.3700 H   0  0  0  0  0  0  0  0  0  0  0  0
   28.1390   27.6640   51.2010 H   0  0  0  0  0  0  0  0  0  0  0  0
   29.8000   28.9200   50.1020 H   0  0  0  0  0  0  0  0  0  0  0  0
   30.6400   27.4150   50.6670 H   0  0  0  0  0  0  0  0  0  0  0  0
   35.0270   29.8450   49.8210 C   0  0  0  0  0  0  0  0  0  0  0  0
   34.1650   30.4650   49.4530 H   0  0  0  0  0  0  0  0  0  0  0  0
   34.9330   29.7500   50.9220 H   0  0  0  0  0  0  0  0  0  0  0  0
   37.9910   32.1000   49.8700 C   0  0  0  0  0  0  0  0  0  0  0  0
   38.5660   31.8720   48.6120 C   0  0  0  0  0  0  0  0  0  0  0  0
   37.9240   30.9500   47.7740 C   0  0  0  0  0  0  0  0  0  0  0  0
   36.7950   30.3330   48.2160 N   0  0  0  0  0  0  0  0  0  0  0  0
   36.2820   30.5890   49.4390 C   0  0  0  0  0  0  0  0  0  0  0  0
   36.8780   31.4550   50.2380 N   0  0  0  0  0  0  0  0  0  0  0  0
   38.4920   32.8150   50.5150 H   0  0  0  0  0  0  0  0  0  0  0  0
   39.4490   32.3570   48.2710 H   0  0  0  0  0  0  0  0  0  0  0  0
   38.4280   30.6140   46.4120 C   0  0  2  0  0  3  0  0  0  0  0  0
   39.6900   31.3340   46.0630 C   0  0  0  0  0  3  0  0  0  0  0  0
   40.3990   30.6320   45.5600 H   0  0  0  0  0  0  0  0  0  0  0  0
   39.2690   32.4510   45.1150 C   0  0  0  0  0  3  0  0  0  0  0  0
   39.5860   32.2290   44.0800 H   0  0  0  0  0  0  0  0  0  0  0  0
   37.8850   32.4640   45.1480 O   0  0  0  0  0  0  0  0  0  0  0  0
   37.4480   31.1810   45.3800 C   0  0  0  0  0  3  0  0  0  0  0  0
   36.4310   31.2280   45.8690 H   0  0  0  0  0  0  0  0  0  0  0  0
  1 25  1  0  0  0  0
  1  3  1  0  0  0  0
  2  1  1  0  0  0  0
  4  8  1  0  0  0  0
  4  1  1  0  0  0  0
  5  4  2  0  0  0  0
  6  5  1  0  0  0  0
  6  7  1  0  0  0  0
  7  9  1  0  0  0  0
  7  8  2  0  0  0  0
  9 14  1  0  0  0  0
 10 11  1  0  0  0  0
 10  9  1  0  0  0  0
 11 19  1  0  0  0  0
 11 12  1  0  0  0  0
 12 13  1  0  0  0  0
 13 21  1  0  0  0  0
 13 22  1  0  0  0  0
 14 23  1  0  0  0  0
 14 13  1  0  0  0  0
 14 24  1  0  0  0  0
 15  5  1  0  0  0  0
 16 10  1  0  0  0  0
 17 10  1  0  0  0  0
 18 11  1  0  0  0  0
 20 12  1  0  0  0  0
 25 27  1  0  0  0  0
 26 25  1  0  0  0  0
 28 33  1  0  0  0  0
 28 34  1  0  0  0  0
 29 28  2  0  0  0  0
 30 31  2  0  0  0  0
 30 29  1  0  0  0  0
 31 32  1  0  0  0  0
 32 25  1  0  0  0  0
 32 33  2  0  0  0  0
 35 29  1  0  0  0  0
 36 30  1  1  0  0  0
 37 36  1  0  0  0  0
 38 37  1  0  0  0  0
 39 41  1  0  0  0  0
 39 37  1  0  0  0  0
 40 39  1  0  0  0  0
 41 42  1  0  0  0  0
 42 43  1  0  0  0  0
 42 36  1  0  0  0  0
M  END
>  <minimizedAffinity>
-6.47454166

>  <minimizedRMSD>
0.760173023

$$$$
