
 OpenBabel03272506093D

 43 46  0  0  1  0  0  0  0  0999 V2000
   35.1930   28.7080   49.1090 C   0  0  0  0  0  0  0  0  0  0  0  0
   36.1090   28.6230   48.4860 H   0  0  0  0  0  0  0  0  0  0  0  0
   35.2690   27.8620   49.8340 H   0  0  0  0  0  0  0  0  0  0  0  0
   33.9730   28.4900   48.2550 C   0  0  0  0  0  0  0  0  0  0  0  0
   34.0660   28.6920   46.8270 C   0  0  0  0  0  0  0  0  0  0  0  0
   32.4070   28.3140   46.3310 S   0  0  0  0  0  0  0  0  0  0  0  0
   31.7980   27.9400   48.0660 C   0  0  0  0  0  0  0  0  0  0  0  0
   32.8080   28.1300   48.6920 N   0  0  0  0  0  0  0  0  0  0  0  0
   30.4930   27.5350   48.5540 N   0  0  0  0  0  0  0  0  0  0  0  0
   29.6750   26.8060   47.6530 C   0  0  0  0  0  0  0  0  0  0  0  0
   28.2370   26.7260   48.0410 C   0  0  0  0  0  0  0  0  0  0  0  0
   27.8930   27.6070   49.1410 N   0  0  0  0  0  0  0  0  0  0  0  0
   28.8020   27.2420   50.2240 C   0  0  0  0  0  0  0  0  0  0  0  0
   30.1150   27.8980   49.9080 C   0  0  0  0  0  0  0  0  0  0  0  0
   34.9140   28.9810   46.2890 H   0  0  0  0  0  0  0  0  0  0  0  0
   29.6990   27.3700   46.6740 H   0  0  0  0  0  0  0  0  0  0  0  0
   30.0660   25.8000   47.3770 H   0  0  0  0  0  0  0  0  0  0  0  0
   27.5460   26.8820   47.1680 H   0  0  0  0  0  0  0  0  0  0  0  0
   28.0260   25.6990   48.4100 H   0  0  0  0  0  0  0  0  0  0  0  0
   28.1290   28.5780   48.8350 H   0  0  0  0  0  0  0  0  0  0  0  0
   28.8950   26.1440   50.3260 H   0  0  0  0  0  0  0  0  0  0  0  0
   28.3780   27.7050   51.1460 H   0  0  0  0  0  0  0  0  0  0  0  0
   30.0070   28.9910   50.0330 H   0  0  0  0  0  0  0  0  0  0  0  0
   30.8830   27.5110   50.6090 H   0  0  0  0  0  0  0  0  0  0  0  0
   35.1640   29.9990   49.8140 C   0  0  0  0  0  0  0  0  0  0  0  0
   34.2140   30.5410   49.5530 H   0  0  0  0  0  0  0  0  0  0  0  0
   35.1790   29.8430   50.9110 H   0  0  0  0  0  0  0  0  0  0  0  0
   37.7050   32.7160   49.6290 C   0  0  0  0  0  0  0  0  0  0  0  0
   38.3830   32.4170   48.4380 C   0  0  0  0  0  0  0  0  0  0  0  0
   37.9530   31.2900   47.7240 C   0  0  0  0  0  0  0  0  0  0  0  0
   36.9180   30.5550   48.2140 N   0  0  0  0  0  0  0  0  0  0  0  0
   36.2990   30.8870   49.3680 C   0  0  0  0  0  0  0  0  0  0  0  0
   36.6950   31.9470   50.0500 N   0  0  0  0  0  0  0  0  0  0  0  0
   38.0420   33.5900   50.1770 H   0  0  0  0  0  0  0  0  0  0  0  0
   39.1910   32.9950   48.0590 H   0  0  0  0  0  0  0  0  0  0  0  0
   38.5840   30.8590   46.4450 C   0  0  2  0  0  3  0  0  0  0  0  0
   39.7740   31.6830   46.0750 C   0  0  0  0  0  3  0  0  0  0  0  0
   40.5930   31.0200   45.7040 H   0  0  0  0  0  0  0  0  0  0  0  0
   39.2920   32.6180   44.9730 C   0  0  0  0  0  3  0  0  0  0  0  0
   39.7020   32.3150   43.9920 H   0  0  0  0  0  0  0  0  0  0  0  0
   37.9170   32.4620   44.9300 O   0  0  0  0  0  0  0  0  0  0  0  0
   37.6160   31.1730   45.2990 C   0  0  0  0  0  3  0  0  0  0  0  0
   36.5710   31.1510   45.7220 H   0  0  0  0  0  0  0  0  0  0  0  0
  1 25  1  0  0  0  0
  1  3  1  0  0  0  0
  2  1  1  0  0  0  0
  4  8  1  0  0  0  0
  4  1  1  0  0  0  0
  5  4  2  0  0  0  0
  6  5  1  0  0  0  0
  6  7  1  0  0  0  0
  7  9  1  0  0  0  0
  7  8  2  0  0  0  0
  9 14  1  0  0  0  0
 10 11  1  0  0  0  0
 10  9  1  0  0  0  0
 11 19  1  0  0  0  0
 11 12  1  0  0  0  0
 12 13  1  0  0  0  0
 13 21  1  0  0  0  0
 13 22  1  0  0  0  0
 14 23  1  0  0  0  0
 14 13  1  0  0  0  0
 14 24  1  0  0  0  0
 15  5  1  0  0  0  0
 16 10  1  0  0  0  0
 17 10  1  0  0  0  0
 18 11  1  0  0  0  0
 20 12  1  0  0  0  0
 25 27  1  0  0  0  0
 26 25  1  0  0  0  0
 28 33  1  0  0  0  0
 28 34  1  0  0  0  0
 29 28  2  0  0  0  0
 30 31  2  0  0  0  0
 30 29  1  0  0  0  0
 31 32  1  0  0  0  0
 32 25  1  0  0  0  0
 32 33  2  0  0  0  0
 35 29  1  0  0  0  0
 36 30  1  1  0  0  0
 37 36  1  0  0  0  0
 38 37  1  0  0  0  0
 39 37  1  0  0  0  0
 40 39  1  0  0  0  0
 41 39  1  0  0  0  0
 41 42  1  0  0  0  0
 42 43  1  0  0  0  0
 42 36  1  0  0  0  0
M  END
>  <minimizedAffinity>
-6.50403261

>  <minimizedRMSD>
0.807703912

$$$$
