
 OpenBabel03272503353D

 40 43  0  0  1  0  0  0  0  0999 V2000
   37.5880   23.9210   33.0680 C   0  0  0  0  0  0  0  0  0  0  0  0
   37.1590   22.8710   32.2540 C   0  0  0  0  0  0  0  0  0  0  0  0
   36.3050   23.1860   31.1900 C   0  0  0  0  0  0  0  0  0  0  0  0
   35.9570   24.5120   31.0340 N   0  0  0  0  0  0  0  0  0  0  0  0
   36.3970   25.4760   31.8430 C   0  0  0  0  0  0  0  0  0  0  0  0
   37.2130   25.1890   32.8630 N   0  0  0  0  0  0  0  0  0  0  0  0
   37.4220   21.8480   32.3670 H   0  0  0  0  0  0  0  0  0  0  0  0
   35.9420   22.4260   30.5320 H   0  0  0  0  0  0  0  0  0  0  0  0
   38.4640   23.5860   34.1550 N   0  0  0  0  0  0  0  0  0  0  0  0
   38.8710   24.4440   35.2290 C   0  0  0  0  0  0  0  0  0  0  0  0
   39.1410   23.4460   36.3550 C   0  0  2  0  0  0  0  0  0  0  0  0
   38.7260   22.0800   35.8210 C   0  0  0  0  0  0  0  0  0  0  0  0
   39.1080   22.2970   34.3680 C   0  0  0  0  0  0  0  0  0  0  0  0
   39.7340   25.0760   34.9940 H   0  0  0  0  0  0  0  0  0  0  0  0
   37.9810   25.0510   35.5310 H   0  0  0  0  0  0  0  0  0  0  0  0
   40.2130   23.4910   36.5700 H   0  0  0  0  0  0  0  0  0  0  0  0
   39.4110   21.3420   36.2610 H   0  0  0  0  0  0  0  0  0  0  0  0
   37.6650   21.8900   35.9680 H   0  0  0  0  0  0  0  0  0  0  0  0
   38.6890   21.5340   33.7010 H   0  0  0  0  0  0  0  0  0  0  0  0
   40.2100   22.3710   34.3340 H   0  0  0  0  0  0  0  0  0  0  0  0
   38.4080   23.7990   37.6220 C   0  0  0  0  0  0  0  0  0  0  0  0
   39.2080   23.3980   38.6720 F   0  0  0  0  0  0  0  0  0  0  0  0
   37.2770   23.0060   37.6700 F   0  0  0  0  0  0  0  0  0  0  0  0
   38.0750   25.1230   37.7040 F   0  0  0  0  0  0  0  0  0  0  0  0
   35.8970   27.1630   31.5700 S   0  0  0  0  0  0  0  0  0  0  0  0
   35.8440   28.2080   32.8860 C   0  0  0  0  0  0  0  0  0  0  0  0
   36.4740   28.4820   34.0640 C   0  0  0  0  0  0  0  0  0  0  0  0
   36.1410   29.4610   34.9360 C   0  0  0  0  0  0  0  0  0  0  0  0
   34.9690   30.2560   34.4830 C   0  0  0  0  0  0  0  0  0  0  0  0
   34.4990   29.5110   32.8800 S   0  0  0  0  0  0  0  0  0  0  0  0
   37.2980   27.8020   34.2210 H   0  0  0  0  0  0  0  0  0  0  0  0
   36.6250   29.6770   35.8510 H   0  0  0  0  0  0  0  0  0  0  0  0
   34.4150   31.3660   35.2450 C   0  0  2  0  0  3  0  0  0  0  0  0
   35.3810   32.0070   36.2190 C   0  0  0  0  0  3  0  0  0  0  0  0
   35.9740   31.2030   36.7060 H   0  0  0  0  0  0  0  0  0  0  0  0
   34.4080   32.6060   37.2070 C   0  0  0  0  0  3  0  0  0  0  0  0
   34.2310   33.6610   36.8600 H   0  0  0  0  0  0  0  0  0  0  0  0
   33.2630   31.8310   37.2120 O   0  0  0  0  0  0  0  0  0  0  0  0
   33.2620   31.0100   36.1200 C   0  0  0  0  0  3  0  0  0  0  0  0
   33.2450   29.9370   36.4150 H   0  0  0  0  0  0  0  0  0  0  0  0
  1  9  1  0  0  0  0
  2  7  1  0  0  0  0
  2  1  2  0  0  0  0
  3  2  1  0  0  0  0
  4  3  2  0  0  0  0
  4  5  1  0  0  0  0
  5  6  2  0  0  0  0
  6  1  1  0  0  0  0
  8  3  1  0  0  0  0
  9 13  1  0  0  0  0
  9 10  1  0  0  0  0
 10 15  1  0  0  0  0
 10 11  1  0  0  0  0
 11 16  1  1  0  0  0
 11 21  1  0  0  0  0
 12 18  1  0  0  0  0
 12 17  1  0  0  0  0
 12 11  1  0  0  0  0
 13 12  1  0  0  0  0
 14 10  1  0  0  0  0
 19 13  1  0  0  0  0
 20 13  1  0  0  0  0
 21 23  1  0  0  0  0
 21 24  1  0  0  0  0
 21 22  1  0  0  0  0
 25  5  1  0  0  0  0
 25 26  1  0  0  0  0
 26 27  2  0  0  0  0
 27 31  1  0  0  0  0
 27 28  1  0  0  0  0
 28 32  1  0  0  0  0
 29 28  2  0  0  0  0
 30 26  1  0  0  0  0
 30 29  1  0  0  0  0
 33 29  1  1  0  0  0
 33 39  1  0  0  0  0
 33 34  1  0  0  0  0
 34 35  1  0  0  0  0
 34 36  1  0  0  0  0
 36 38  1  0  0  0  0
 37 36  1  0  0  0  0
 39 40  1  0  0  0  0
 39 38  1  0  0  0  0
M  END
>  <minimizedAffinity>
-6.11758852

$$$$

 OpenBabel03272503353D

 40 43  0  0  1  0  0  0  0  0999 V2000
   36.3850   30.1900   31.5050 C   0  0  0  0  0  0  0  0  0  0  0  0
   36.5580   30.7170   30.2240 C   0  0  0  0  0  0  0  0  0  0  0  0
   37.2230   29.9220   29.2820 C   0  0  0  0  0  0  0  0  0  0  0  0
   37.6520   28.6790   29.7000 N   0  0  0  0  0  0  0  0  0  0  0  0
   37.4600   28.2250   30.9380 C   0  0  0  0  0  0  0  0  0  0  0  0
   36.8270   28.9740   31.8470 N   0  0  0  0  0  0  0  0  0  0  0  0
   36.2300   31.6730   29.8950 H   0  0  0  0  0  0  0  0  0  0  0  0
   37.3860   30.2710   28.2850 H   0  0  0  0  0  0  0  0  0  0  0  0
   35.7020   31.0140   32.4620 N   0  0  0  0  0  0  0  0  0  0  0  0
   35.1850   30.6070   33.7360 C   0  0  0  0  0  0  0  0  0  0  0  0
   35.2510   31.9060   34.5400 C   0  0  2  0  0  0  0  0  0  0  0  0
   35.9390   32.9280   33.6430 C   0  0  0  0  0  0  0  0  0  0  0  0
   35.4050   32.4320   32.3110 C   0  0  0  0  0  0  0  0  0  0  0  0
   34.1790   30.1750   33.6930 H   0  0  0  0  0  0  0  0  0  0  0  0
   35.9230   29.9000   34.1890 H   0  0  0  0  0  0  0  0  0  0  0  0
   34.2190   32.1920   34.7670 H   0  0  0  0  0  0  0  0  0  0  0  0
   35.4870   33.9050   33.8630 H   0  0  0  0  0  0  0  0  0  0  0  0
   37.0220   32.8760   33.7230 H   0  0  0  0  0  0  0  0  0  0  0  0
   35.9420   32.8570   31.4540 H   0  0  0  0  0  0  0  0  0  0  0  0
   34.3180   32.6320   32.3070 H   0  0  0  0  0  0  0  0  0  0  0  0
   35.9730   31.7330   35.8490 C   0  0  0  0  0  0  0  0  0  0  0  0
   37.0000   32.6540   35.8650 F   0  0  0  0  0  0  0  0  0  0  0  0
   36.5700   30.4870   35.8220 F   0  0  0  0  0  0  0  0  0  0  0  0
   35.1550   31.8540   36.9390 F   0  0  0  0  0  0  0  0  0  0  0  0
   38.0480   26.6080   31.3940 S   0  0  0  0  0  0  0  0  0  0  0  0
   38.1630   26.2240   33.0270 C   0  0  0  0  0  0  0  0  0  0  0  0
   38.3120   26.7980   34.2550 C   0  0  0  0  0  0  0  0  0  0  0  0
   38.3710   26.1430   35.4370 C   0  0  0  0  0  0  0  0  0  0  0  0
   38.2560   24.6690   35.2810 C   0  0  0  0  0  0  0  0  0  0  0  0
   38.0770   24.4090   33.4790 S   0  0  0  0  0  0  0  0  0  0  0  0
   38.3770   27.8710   34.1670 H   0  0  0  0  0  0  0  0  0  0  0  0
   38.4870   26.5820   36.3920 H   0  0  0  0  0  0  0  0  0  0  0  0
   38.2920   23.7430   36.4040 C   0  0  2  0  0  3  0  0  0  0  0  0
   37.9610   24.3630   37.7450 C   0  0  0  0  0  3  0  0  0  0  0  0
   38.4430   25.3630   37.7970 H   0  0  0  0  0  0  0  0  0  0  0  0
   38.6650   23.3970   38.6680 C   0  0  0  0  0  3  0  0  0  0  0  0
   37.8930   22.6320   38.9570 H   0  0  0  0  0  0  0  0  0  0  0  0
   39.7440   22.8580   37.9910 O   0  0  0  0  0  0  0  0  0  0  0  0
   39.6210   23.1170   36.6560 C   0  0  0  0  0  3  0  0  0  0  0  0
   40.4740   23.7210   36.2750 H   0  0  0  0  0  0  0  0  0  0  0  0
  1  6  1  0  0  0  0
  1  9  1  0  0  0  0
  2  1  2  0  0  0  0
  3  4  2  0  0  0  0
  3  2  1  0  0  0  0
  4  5  1  0  0  0  0
  5 25  1  0  0  0  0
  5  6  2  0  0  0  0
  7  2  1  0  0  0  0
  8  3  1  0  0  0  0
  9 10  1  0  0  0  0
 10 15  1  0  0  0  0
 10 11  1  0  0  0  0
 11 16  1  1  0  0  0
 11 21  1  0  0  0  0
 12 18  1  0  0  0  0
 12 17  1  0  0  0  0
 12 11  1  0  0  0  0
 13  9  1  0  0  0  0
 13 12  1  0  0  0  0
 14 10  1  0  0  0  0
 19 13  1  0  0  0  0
 20 13  1  0  0  0  0
 21 22  1  0  0  0  0
 21 24  1  0  0  0  0
 23 21  1  0  0  0  0
 25 26  1  0  0  0  0
 26 30  1  0  0  0  0
 26 27  2  0  0  0  0
 27 28  1  0  0  0  0
 28 32  1  0  0  0  0
 29 28  2  0  0  0  0
 30 29  1  0  0  0  0
 31 27  1  0  0  0  0
 33 29  1  6  0  0  0
 33 39  1  0  0  0  0
 33 34  1  0  0  0  0
 34 35  1  0  0  0  0
 34 36  1  0  0  0  0
 36 37  1  0  0  0  0
 38 36  1  0  0  0  0
 39 38  1  0  0  0  0
 40 39  1  0  0  0  0
M  END
>  <minimizedAffinity>
-6.0754118

$$$$

 OpenBabel03272503353D

 40 43  0  0  1  0  0  0  0  0999 V2000
   35.6320   29.4510   31.9550 C   0  0  0  0  0  0  0  0  0  0  0  0
   36.3940   30.0760   30.9650 C   0  0  0  0  0  0  0  0  0  0  0  0
   37.0250   29.2560   30.0210 C   0  0  0  0  0  0  0  0  0  0  0  0
   36.8400   27.8940   30.1480 N   0  0  0  0  0  0  0  0  0  0  0  0
   36.1000   27.3510   31.1140 C   0  0  0  0  0  0  0  0  0  0  0  0
   35.4920   28.1220   32.0220 N   0  0  0  0  0  0  0  0  0  0  0  0
   36.5420   31.1230   30.8620 H   0  0  0  0  0  0  0  0  0  0  0  0
   37.6230   29.6740   29.2410 H   0  0  0  0  0  0  0  0  0  0  0  0
   34.9900   30.3020   32.9160 N   0  0  0  0  0  0  0  0  0  0  0  0
   34.8820   30.0780   34.3280 C   0  0  0  0  0  0  0  0  0  0  0  0
   34.7940   31.5030   34.8750 C   0  0  2  0  0  0  0  0  0  0  0  0
   34.9920   32.4300   33.6810 C   0  0  0  0  0  0  0  0  0  0  0  0
   34.3210   31.5640   32.6290 C   0  0  0  0  0  0  0  0  0  0  0  0
   34.0320   29.4500   34.6180 H   0  0  0  0  0  0  0  0  0  0  0  0
   35.8540   29.6500   34.6770 H   0  0  0  0  0  0  0  0  0  0  0  0
   33.7980   31.6130   35.3160 H   0  0  0  0  0  0  0  0  0  0  0  0
   34.3680   33.3180   33.8570 H   0  0  0  0  0  0  0  0  0  0  0  0
   36.0440   32.6190   33.4820 H   0  0  0  0  0  0  0  0  0  0  0  0
   34.5350   31.8980   31.6060 H   0  0  0  0  0  0  0  0  0  0  0  0
   33.2450   31.5320   32.8780 H   0  0  0  0  0  0  0  0  0  0  0  0
   35.8040   31.7640   35.9600 C   0  0  0  0  0  0  0  0  0  0  0  0
   36.6220   30.6550   36.0220 F   0  0  0  0  0  0  0  0  0  0  0  0
   35.1120   31.8030   37.1560 F   0  0  0  0  0  0  0  0  0  0  0  0
   36.5130   32.9190   35.7740 F   0  0  0  0  0  0  0  0  0  0  0  0
   35.9140   25.5820   31.2040 S   0  0  0  0  0  0  0  0  0  0  0  0
   36.8380   24.7320   32.3220 C   0  0  0  0  0  0  0  0  0  0  0  0
   37.3490   23.4920   32.5690 C   0  0  0  0  0  0  0  0  0  0  0  0
   38.0960   23.1380   33.6400 C   0  0  0  0  0  0  0  0  0  0  0  0
   38.3260   24.2700   34.5760 C   0  0  0  0  0  0  0  0  0  0  0  0
   37.4550   25.6850   33.8120 S   0  0  0  0  0  0  0  0  0  0  0  0
   37.0780   22.8060   31.7820 H   0  0  0  0  0  0  0  0  0  0  0  0
   38.4930   22.1780   33.8370 H   0  0  0  0  0  0  0  0  0  0  0  0
   39.0990   24.1450   35.8040 C   0  0  2  0  0  3  0  0  0  0  0  0
   39.8820   22.8550   35.9280 C   0  0  0  0  0  3  0  0  0  0  0  0
   39.2510   22.0230   35.5490 H   0  0  0  0  0  0  0  0  0  0  0  0
   40.0140   22.7650   37.4300 C   0  0  0  0  0  3  0  0  0  0  0  0
   40.9950   23.2550   37.6810 H   0  0  0  0  0  0  0  0  0  0  0  0
   38.9240   23.3970   38.0000 O   0  0  0  0  0  0  0  0  0  0  0  0
   38.2900   24.1540   37.0560 C   0  0  0  0  0  3  0  0  0  0  0  0
   37.2390   23.8250   36.9050 H   0  0  0  0  0  0  0  0  0  0  0  0
  1  6  1  0  0  0  0
  1  9  1  0  0  0  0
  2  1  2  0  0  0  0
  3  4  2  0  0  0  0
  3  2  1  0  0  0  0
  4  5  1  0  0  0  0
  5 25  1  0  0  0  0
  5  6  2  0  0  0  0
  7  2  1  0  0  0  0
  8  3  1  0  0  0  0
  9 10  1  0  0  0  0
 10 14  1  0  0  0  0
 10 15  1  0  0  0  0
 10 11  1  0  0  0  0
 11 16  1  1  0  0  0
 11 21  1  0  0  0  0
 12 17  1  0  0  0  0
 12 11  1  0  0  0  0
 13 20  1  0  0  0  0
 13  9  1  0  0  0  0
 13 12  1  0  0  0  0
 18 12  1  0  0  0  0
 19 13  1  0  0  0  0
 21 22  1  0  0  0  0
 21 23  1  0  0  0  0
 24 21  1  0  0  0  0
 25 26  1  0  0  0  0
 26 27  2  0  0  0  0
 26 30  1  0  0  0  0
 27 28  1  0  0  0  0
 28 32  1  0  0  0  0
 28 29  2  0  0  0  0
 30 29  1  0  0  0  0
 31 27  1  0  0  0  0
 33 29  1  6  0  0  0
 33 34  1  0  0  0  0
 33 39  1  0  0  0  0
 34 36  1  0  0  0  0
 35 34  1  0  0  0  0
 36 37  1  0  0  0  0
 36 38  1  0  0  0  0
 39 38  1  0  0  0  0
 40 39  1  0  0  0  0
M  END
>  <minimizedAffinity>
-5.96832657

$$$$

 OpenBabel03272503353D

 40 43  0  0  1  0  0  0  0  0999 V2000
   37.6230   24.4460   33.0310 C   0  0  0  0  0  0  0  0  0  0  0  0
   36.8290   23.3960   32.5670 C   0  0  0  0  0  0  0  0  0  0  0  0
   35.9410   23.6710   31.5200 C   0  0  0  0  0  0  0  0  0  0  0  0
   35.9250   24.9610   31.0320 N   0  0  0  0  0  0  0  0  0  0  0  0
   36.7070   25.9270   31.5130 C   0  0  0  0  0  0  0  0  0  0  0  0
   37.5590   25.6790   32.5130 N   0  0  0  0  0  0  0  0  0  0  0  0
   36.8350   22.4000   32.9380 H   0  0  0  0  0  0  0  0  0  0  0  0
   35.3060   22.9080   31.1230 H   0  0  0  0  0  0  0  0  0  0  0  0
   38.5300   24.1530   34.1040 N   0  0  0  0  0  0  0  0  0  0  0  0
   38.6890   24.8890   35.3250 C   0  0  0  0  0  0  0  0  0  0  0  0
   39.1720   23.8090   36.2930 C   0  0  2  0  0  0  0  0  0  0  0  0
   39.1200   22.4940   35.5230 C   0  0  0  0  0  0  0  0  0  0  0  0
   39.4690   23.0390   34.1500 C   0  0  0  0  0  0  0  0  0  0  0  0
   39.3740   25.7400   35.2480 H   0  0  0  0  0  0  0  0  0  0  0  0
   37.6700   25.2040   35.6620 H   0  0  0  0  0  0  0  0  0  0  0  0
   40.1940   24.0730   36.5790 H   0  0  0  0  0  0  0  0  0  0  0  0
   39.9560   21.8780   35.8820 H   0  0  0  0  0  0  0  0  0  0  0  0
   38.1360   22.0330   35.5710 H   0  0  0  0  0  0  0  0  0  0  0  0
   39.2660   22.3220   33.3450 H   0  0  0  0  0  0  0  0  0  0  0  0
   40.5180   23.3800   34.1970 H   0  0  0  0  0  0  0  0  0  0  0  0
   38.3470   23.7550   37.5500 C   0  0  0  0  0  0  0  0  0  0  0  0
   38.0960   25.0600   37.9200 F   0  0  0  0  0  0  0  0  0  0  0  0
   39.1500   23.2190   38.5390 F   0  0  0  0  0  0  0  0  0  0  0  0
   37.1960   23.0280   37.4130 F   0  0  0  0  0  0  0  0  0  0  0  0
   36.6210   27.5670   30.8240 S   0  0  0  0  0  0  0  0  0  0  0  0
   36.2470   28.8490   31.8450 C   0  0  0  0  0  0  0  0  0  0  0  0
   35.9870   30.1890   31.8330 C   0  0  0  0  0  0  0  0  0  0  0  0
   35.7100   30.9550   32.9130 C   0  0  0  0  0  0  0  0  0  0  0  0
   35.7140   30.1790   34.1810 C   0  0  0  0  0  0  0  0  0  0  0  0
   36.1070   28.4660   33.6720 S   0  0  0  0  0  0  0  0  0  0  0  0
   36.0280   30.5740   30.8260 H   0  0  0  0  0  0  0  0  0  0  0  0
   35.5090   31.9930   32.9100 H   0  0  0  0  0  0  0  0  0  0  0  0
   35.4450   30.7750   35.4820 C   0  0  2  0  0  3  0  0  0  0  0  0
   33.9950   31.1340   35.7240 C   0  0  0  0  0  3  0  0  0  0  0  0
   33.5790   31.5650   34.7880 H   0  0  0  0  0  0  0  0  0  0  0  0
   34.1570   32.2160   36.7660 C   0  0  0  0  0  3  0  0  0  0  0  0
   34.0780   31.6960   37.7600 H   0  0  0  0  0  0  0  0  0  0  0  0
   35.3780   32.8330   36.5650 O   0  0  0  0  0  0  0  0  0  0  0  0
   36.1450   32.0670   35.7340 C   0  0  0  0  0  3  0  0  0  0  0  0
   36.4130   32.6140   34.8040 H   0  0  0  0  0  0  0  0  0  0  0  0
  1  9  1  0  0  0  0
  2  7  1  0  0  0  0
  2  1  1  0  0  0  0
  3  2  2  0  0  0  0
  4  5  2  0  0  0  0
  4  3  1  0  0  0  0
  5  6  1  0  0  0  0
  6  1  2  0  0  0  0
  8  3  1  0  0  0  0
  9 13  1  0  0  0  0
  9 10  1  0  0  0  0
 10 15  1  0  0  0  0
 10 11  1  0  0  0  0
 11 16  1  1  0  0  0
 11 21  1  0  0  0  0
 12 18  1  0  0  0  0
 12 17  1  0  0  0  0
 12 11  1  0  0  0  0
 13 20  1  0  0  0  0
 13 12  1  0  0  0  0
 14 10  1  0  0  0  0
 19 13  1  0  0  0  0
 21 22  1  0  0  0  0
 21 23  1  0  0  0  0
 24 21  1  0  0  0  0
 25  5  1  0  0  0  0
 25 26  1  0  0  0  0
 26 30  1  0  0  0  0
 27 26  2  0  0  0  0
 27 28  1  0  0  0  0
 28 29  2  0  0  0  0
 30 29  1  0  0  0  0
 31 27  1  0  0  0  0
 32 28  1  0  0  0  0
 33 29  1  6  0  0  0
 33 34  1  0  0  0  0
 33 39  1  0  0  0  0
 34 36  1  0  0  0  0
 35 34  1  0  0  0  0
 36 37  1  0  0  0  0
 38 36  1  0  0  0  0
 39 38  1  0  0  0  0
 40 39  1  0  0  0  0
M  END
>  <minimizedAffinity>
-5.95132637

$$$$

 OpenBabel03272503353D

 40 43  0  0  1  0  0  0  0  0999 V2000
   36.3700   30.1940   31.4250 C   0  0  0  0  0  0  0  0  0  0  0  0
   36.6010   30.9210   30.2550 C   0  0  0  0  0  0  0  0  0  0  0  0
   37.3530   30.3030   29.2480 C   0  0  0  0  0  0  0  0  0  0  0  0
   37.8060   29.0240   29.4970 N   0  0  0  0  0  0  0  0  0  0  0  0
   37.5560   28.3750   30.6340 C   0  0  0  0  0  0  0  0  0  0  0  0
   36.8390   28.9530   31.6040 N   0  0  0  0  0  0  0  0  0  0  0  0
   36.2560   31.9060   30.0570 H   0  0  0  0  0  0  0  0  0  0  0  0
   37.5640   30.8090   28.3310 H   0  0  0  0  0  0  0  0  0  0  0  0
   35.5970   30.8360   32.4500 N   0  0  0  0  0  0  0  0  0  0  0  0
   35.2750   30.3100   33.7440 C   0  0  0  0  0  0  0  0  0  0  0  0
   35.1180   31.5810   34.5790 C   0  0  2  0  0  0  0  0  0  0  0  0
   35.5010   32.7400   33.6660 C   0  0  0  0  0  0  0  0  0  0  0  0
   34.9900   32.1580   32.3600 C   0  0  0  0  0  0  0  0  0  0  0  0
   34.3870   29.6700   33.7580 H   0  0  0  0  0  0  0  0  0  0  0  0
   36.1810   29.7740   34.1250 H   0  0  0  0  0  0  0  0  0  0  0  0
   34.0680   31.6320   34.8840 H   0  0  0  0  0  0  0  0  0  0  0  0
   34.8660   33.5920   33.9460 H   0  0  0  0  0  0  0  0  0  0  0  0
   36.5730   32.9240   33.6700 H   0  0  0  0  0  0  0  0  0  0  0  0
   35.3590   32.7000   31.4820 H   0  0  0  0  0  0  0  0  0  0  0  0
   33.8890   32.1170   32.4370 H   0  0  0  0  0  0  0  0  0  0  0  0
   35.9540   31.5520   35.8300 C   0  0  0  0  0  0  0  0  0  0  0  0
   36.9330   32.5120   35.6800 F   0  0  0  0  0  0  0  0  0  0  0  0
   36.6060   30.3340   35.8540 F   0  0  0  0  0  0  0  0  0  0  0  0
   35.2260   31.7340   36.9730 F   0  0  0  0  0  0  0  0  0  0  0  0
   38.1790   26.7250   30.8720 S   0  0  0  0  0  0  0  0  0  0  0  0
   37.0780   25.4670   31.0510 C   0  0  0  0  0  0  0  0  0  0  0  0
   35.7640   25.2230   31.3270 C   0  0  0  0  0  0  0  0  0  0  0  0
   35.1790   24.0060   31.3990 C   0  0  0  0  0  0  0  0  0  0  0  0
   36.1340   22.8960   31.1410 C   0  0  0  0  0  0  0  0  0  0  0  0
   37.7330   23.7270   30.8290 S   0  0  0  0  0  0  0  0  0  0  0  0
   35.2310   26.1480   31.4850 H   0  0  0  0  0  0  0  0  0  0  0  0
   34.1630   23.8110   31.6130 H   0  0  0  0  0  0  0  0  0  0  0  0
   35.7500   21.4920   31.1610 C   0  0  2  0  0  3  0  0  0  0  0  0
   35.0200   21.0550   32.4140 C   0  0  0  0  0  3  0  0  0  0  0  0
   35.5040   21.5410   33.2890 H   0  0  0  0  0  0  0  0  0  0  0  0
   35.3310   19.5770   32.4040 C   0  0  0  0  0  3  0  0  0  0  0  0
   34.4710   19.0880   31.8670 H   0  0  0  0  0  0  0  0  0  0  0  0
   36.5470   19.3930   31.7730 O   0  0  0  0  0  0  0  0  0  0  0  0
   36.8880   20.5310   31.0990 C   0  0  0  0  0  3  0  0  0  0  0  0
   37.8460   20.9560   31.4720 H   0  0  0  0  0  0  0  0  0  0  0  0
  1  6  1  0  0  0  0
  1  9  1  0  0  0  0
  2  1  2  0  0  0  0
  3  4  2  0  0  0  0
  3  2  1  0  0  0  0
  4  5  1  0  0  0  0
  5 25  1  0  0  0  0
  5  6  2  0  0  0  0
  7  2  1  0  0  0  0
  8  3  1  0  0  0  0
  9 10  1  0  0  0  0
 10 14  1  0  0  0  0
 10 15  1  0  0  0  0
 10 11  1  0  0  0  0
 11 16  1  1  0  0  0
 11 21  1  0  0  0  0
 12 18  1  0  0  0  0
 12 17  1  0  0  0  0
 12 11  1  0  0  0  0
 13 20  1  0  0  0  0
 13  9  1  0  0  0  0
 13 12  1  0  0  0  0
 19 13  1  0  0  0  0
 21 23  1  0  0  0  0
 21 24  1  0  0  0  0
 22 21  1  0  0  0  0
 25 26  1  0  0  0  0
 26 27  2  0  0  0  0
 27 28  1  0  0  0  0
 27 31  1  0  0  0  0
 28 32  1  0  0  0  0
 29 28  2  0  0  0  0
 30 26  1  0  0  0  0
 30 29  1  0  0  0  0
 33 29  1  1  0  0  0
 33 34  1  0  0  0  0
 34 35  1  0  0  0  0
 36 34  1  0  0  0  0
 37 36  1  0  0  0  0
 38 36  1  0  0  0  0
 39 33  1  0  0  0  0
 39 40  1  0  0  0  0
 39 38  1  0  0  0  0
M  END
>  <minimizedAffinity>
-5.89176702

$$$$

 OpenBabel03272503353D

 40 43  0  0  1  0  0  0  0  0999 V2000
   37.3400   25.4040   33.4090 C   0  0  0  0  0  0  0  0  0  0  0  0
   38.1440   25.3220   34.5480 C   0  0  0  0  0  0  0  0  0  0  0  0
   38.2450   26.4650   35.3520 C   0  0  0  0  0  0  0  0  0  0  0  0
   37.5390   27.5800   34.9490 N   0  0  0  0  0  0  0  0  0  0  0  0
   36.7850   27.6030   33.8500 C   0  0  0  0  0  0  0  0  0  0  0  0
   36.6800   26.5190   33.0740 N   0  0  0  0  0  0  0  0  0  0  0  0
   38.6910   24.4680   34.8640 H   0  0  0  0  0  0  0  0  0  0  0  0
   38.8450   26.4650   36.2350 H   0  0  0  0  0  0  0  0  0  0  0  0
   37.2440   24.2270   32.5930 N   0  0  0  0  0  0  0  0  0  0  0  0
   37.6240   22.8930   32.9570 C   0  0  0  0  0  0  0  0  0  0  0  0
   36.6920   22.0450   32.0920 C   0  0  2  0  0  0  0  0  0  0  0  0
   35.7580   23.0230   31.3870 C   0  0  0  0  0  0  0  0  0  0  0  0
   36.7380   24.1720   31.2290 C   0  0  0  0  0  0  0  0  0  0  0  0
   38.6840   22.6700   32.7990 H   0  0  0  0  0  0  0  0  0  0  0  0
   37.3200   22.7350   34.0220 H   0  0  0  0  0  0  0  0  0  0  0  0
   37.3240   21.5020   31.3820 H   0  0  0  0  0  0  0  0  0  0  0  0
   35.5430   22.6020   30.3950 H   0  0  0  0  0  0  0  0  0  0  0  0
   34.8930   23.2700   31.9970 H   0  0  0  0  0  0  0  0  0  0  0  0
   36.2460   25.1130   30.9540 H   0  0  0  0  0  0  0  0  0  0  0  0
   37.5090   23.8390   30.5110 H   0  0  0  0  0  0  0  0  0  0  0  0
   35.9320   21.0250   32.8960 C   0  0  0  0  0  0  0  0  0  0  0  0
   36.4030   19.7850   32.5190 F   0  0  0  0  0  0  0  0  0  0  0  0
   34.6150   21.0820   32.4820 F   0  0  0  0  0  0  0  0  0  0  0  0
   36.0240   21.2220   34.2470 F   0  0  0  0  0  0  0  0  0  0  0  0
   35.9080   29.0860   33.4050 S   0  0  0  0  0  0  0  0  0  0  0  0
   35.4960   30.1730   34.6200 C   0  0  0  0  0  0  0  0  0  0  0  0
   36.0510   30.9800   35.5700 C   0  0  0  0  0  0  0  0  0  0  0  0
   35.3760   31.7690   36.4370 C   0  0  0  0  0  0  0  0  0  0  0  0
   33.9020   31.6810   36.2620 C   0  0  0  0  0  0  0  0  0  0  0  0
   33.6710   30.4920   34.8900 S   0  0  0  0  0  0  0  0  0  0  0  0
   37.1280   30.9110   35.5450 H   0  0  0  0  0  0  0  0  0  0  0  0
   35.8000   32.3950   37.1750 H   0  0  0  0  0  0  0  0  0  0  0  0
   32.9560   32.4320   37.0730 C   0  0  2  0  0  3  0  0  0  0  0  0
   31.6410   32.7400   36.3870 C   0  0  0  0  0  3  0  0  0  0  0  0
   31.8530   33.0150   35.3310 H   0  0  0  0  0  0  0  0  0  0  0  0
   31.2120   33.9610   37.1660 C   0  0  0  0  0  3  0  0  0  0  0  0
   30.5600   33.5780   37.9990 H   0  0  0  0  0  0  0  0  0  0  0  0
   32.3470   34.6120   37.6130 O   0  0  0  0  0  0  0  0  0  0  0  0
   33.4260   33.7840   37.4920 C   0  0  0  0  0  3  0  0  0  0  0  0
   34.1970   34.2130   36.8150 H   0  0  0  0  0  0  0  0  0  0  0  0
  1  2  1  0  0  0  0
  2  7  1  0  0  0  0
  2  3  2  0  0  0  0
  3  8  1  0  0  0  0
  4  3  1  0  0  0  0
  5  4  2  0  0  0  0
  6  1  2  0  0  0  0
  6  5  1  0  0  0  0
  9 10  1  0  0  0  0
  9  1  1  0  0  0  0
 10 15  1  0  0  0  0
 11 16  1  6  0  0  0
 11 21  1  0  0  0  0
 11 10  1  0  0  0  0
 12 18  1  0  0  0  0
 12 11  1  0  0  0  0
 13 12  1  0  0  0  0
 13  9  1  0  0  0  0
 14 10  1  0  0  0  0
 17 12  1  0  0  0  0
 19 13  1  0  0  0  0
 20 13  1  0  0  0  0
 21 24  1  0  0  0  0
 22 21  1  0  0  0  0
 23 21  1  0  0  0  0
 25  5  1  0  0  0  0
 25 26  1  0  0  0  0
 26 30  1  0  0  0  0
 26 27  2  0  0  0  0
 27 28  1  0  0  0  0
 28 32  1  0  0  0  0
 29 28  2  0  0  0  0
 30 29  1  0  0  0  0
 31 27  1  0  0  0  0
 33 29  1  6  0  0  0
 33 39  1  0  0  0  0
 34 33  1  0  0  0  0
 34 36  1  0  0  0  0
 35 34  1  0  0  0  0
 36 38  1  0  0  0  0
 36 37  1  0  0  0  0
 39 38  1  0  0  0  0
 40 39  1  0  0  0  0
M  END
>  <minimizedAffinity>
-5.82809448

$$$$

 OpenBabel03272503353D

 40 43  0  0  1  0  0  0  0  0999 V2000
   37.3150   26.0750   33.5040 C   0  0  0  0  0  0  0  0  0  0  0  0
   36.9730   25.1300   32.5340 C   0  0  0  0  0  0  0  0  0  0  0  0
   36.0980   25.5340   31.5180 C   0  0  0  0  0  0  0  0  0  0  0  0
   35.6450   26.8360   31.5600 N   0  0  0  0  0  0  0  0  0  0  0  0
   36.0040   27.6980   32.5110 C   0  0  0  0  0  0  0  0  0  0  0  0
   36.8380   27.3260   33.4870 N   0  0  0  0  0  0  0  0  0  0  0  0
   37.3180   24.1260   32.4960 H   0  0  0  0  0  0  0  0  0  0  0  0
   35.8000   24.8560   30.7480 H   0  0  0  0  0  0  0  0  0  0  0  0
   38.2120   25.6500   34.5400 N   0  0  0  0  0  0  0  0  0  0  0  0
   38.0330   25.8080   35.9540 C   0  0  0  0  0  0  0  0  0  0  0  0
   38.8270   24.6280   36.5140 C   0  0  2  0  0  0  0  0  0  0  0  0
   39.2920   23.8180   35.3090 C   0  0  0  0  0  0  0  0  0  0  0  0
   39.4870   24.9730   34.3420 C   0  0  0  0  0  0  0  0  0  0  0  0
   38.3660   26.7770   36.3420 H   0  0  0  0  0  0  0  0  0  0  0  0
   36.9540   25.6190   36.1800 H   0  0  0  0  0  0  0  0  0  0  0  0
   39.6690   25.0470   37.0730 H   0  0  0  0  0  0  0  0  0  0  0  0
   40.2770   23.4010   35.5640 H   0  0  0  0  0  0  0  0  0  0  0  0
   38.5410   23.1020   34.9850 H   0  0  0  0  0  0  0  0  0  0  0  0
   39.5980   24.6410   33.3030 H   0  0  0  0  0  0  0  0  0  0  0  0
   40.3380   25.5670   34.7200 H   0  0  0  0  0  0  0  0  0  0  0  0
   38.0160   23.7940   37.4700 C   0  0  0  0  0  0  0  0  0  0  0  0
   37.5890   24.6380   38.4740 F   0  0  0  0  0  0  0  0  0  0  0  0
   38.8850   22.8960   38.0600 F   0  0  0  0  0  0  0  0  0  0  0  0
   36.9760   23.1390   36.8700 F   0  0  0  0  0  0  0  0  0  0  0  0
   35.3700   29.3610   32.4890 S   0  0  0  0  0  0  0  0  0  0  0  0
   35.2780   30.2060   33.9400 C   0  0  0  0  0  0  0  0  0  0  0  0
   36.0200   30.5420   35.0340 C   0  0  0  0  0  0  0  0  0  0  0  0
   35.5980   31.2810   36.0850 C   0  0  0  0  0  0  0  0  0  0  0  0
   34.1840   31.7210   35.9440 C   0  0  0  0  0  0  0  0  0  0  0  0
   33.6440   31.0290   34.3400 S   0  0  0  0  0  0  0  0  0  0  0  0
   37.0160   30.1340   34.9570 H   0  0  0  0  0  0  0  0  0  0  0  0
   36.1670   31.5440   36.9360 H   0  0  0  0  0  0  0  0  0  0  0  0
   33.4960   32.5280   36.9420 C   0  0  2  0  0  3  0  0  0  0  0  0
   32.2560   33.2340   36.4370 C   0  0  0  0  0  3  0  0  0  0  0  0
   32.4640   33.6210   35.4160 H   0  0  0  0  0  0  0  0  0  0  0  0
   32.1800   34.3780   37.4200 C   0  0  0  0  0  3  0  0  0  0  0  0
   31.5060   34.0250   38.2480 H   0  0  0  0  0  0  0  0  0  0  0  0
   33.4630   34.6720   37.8450 O   0  0  0  0  0  0  0  0  0  0  0  0
   34.3020   33.6500   37.5030 C   0  0  0  0  0  3  0  0  0  0  0  0
   35.1120   33.9950   36.8240 H   0  0  0  0  0  0  0  0  0  0  0  0
  1  9  1  0  0  0  0
  2  1  2  0  0  0  0
  3  4  2  0  0  0  0
  3  2  1  0  0  0  0
  4  5  1  0  0  0  0
  5  6  2  0  0  0  0
  6  1  1  0  0  0  0
  7  2  1  0  0  0  0
  8  3  1  0  0  0  0
  9 10  1  0  0  0  0
 10 15  1  0  0  0  0
 10 14  1  0  0  0  0
 10 11  1  0  0  0  0
 11 16  1  1  0  0  0
 11 21  1  0  0  0  0
 12 17  1  0  0  0  0
 12 11  1  0  0  0  0
 13  9  1  0  0  0  0
 13 20  1  0  0  0  0
 13 12  1  0  0  0  0
 18 12  1  0  0  0  0
 19 13  1  0  0  0  0
 21 23  1  0  0  0  0
 21 22  1  0  0  0  0
 24 21  1  0  0  0  0
 25  5  1  0  0  0  0
 25 26  1  0  0  0  0
 26 30  1  0  0  0  0
 26 27  2  0  0  0  0
 27 28  1  0  0  0  0
 28 32  1  0  0  0  0
 29 28  2  0  0  0  0
 30 29  1  0  0  0  0
 31 27  1  0  0  0  0
 33 29  1  6  0  0  0
 33 39  1  0  0  0  0
 34 33  1  0  0  0  0
 34 36  1  0  0  0  0
 35 34  1  0  0  0  0
 36 38  1  0  0  0  0
 36 37  1  0  0  0  0
 39 38  1  0  0  0  0
 40 39  1  0  0  0  0
M  END
>  <minimizedAffinity>
-5.72686768

$$$$

 OpenBabel03272503353D

 40 43  0  0  1  0  0  0  0  0999 V2000
   37.5460   22.9510   33.1980 C   0  0  0  0  0  0  0  0  0  0  0  0
   36.8630   21.9770   32.4660 C   0  0  0  0  0  0  0  0  0  0  0  0
   36.0640   22.4100   31.4010 C   0  0  0  0  0  0  0  0  0  0  0  0
   36.0180   23.7690   31.1620 N   0  0  0  0  0  0  0  0  0  0  0  0
   36.6910   24.6560   31.8940 C   0  0  0  0  0  0  0  0  0  0  0  0
   37.4570   24.2560   32.9140 N   0  0  0  0  0  0  0  0  0  0  0  0
   36.8940   20.9300   32.6440 H   0  0  0  0  0  0  0  0  0  0  0  0
   35.5170   21.7130   30.8040 H   0  0  0  0  0  0  0  0  0  0  0  0
   38.3620   22.4950   34.2870 N   0  0  0  0  0  0  0  0  0  0  0  0
   39.7560   22.1650   34.2400 C   0  0  0  0  0  0  0  0  0  0  0  0
   40.2060   22.4550   35.6710 C   0  0  2  0  0  0  0  0  0  0  0  0
   39.0000   23.0610   36.3810 C   0  0  0  0  0  0  0  0  0  0  0  0
   37.9170   22.2820   35.6570 C   0  0  0  0  0  0  0  0  0  0  0  0
   39.9620   21.1370   33.9210 H   0  0  0  0  0  0  0  0  0  0  0  0
   40.2580   22.9130   33.5770 H   0  0  0  0  0  0  0  0  0  0  0  0
   40.5000   21.4980   36.1130 H   0  0  0  0  0  0  0  0  0  0  0  0
   39.0400   22.7240   37.4260 H   0  0  0  0  0  0  0  0  0  0  0  0
   38.9370   24.1360   36.2310 H   0  0  0  0  0  0  0  0  0  0  0  0
   36.9160   22.7020   35.8150 H   0  0  0  0  0  0  0  0  0  0  0  0
   38.0180   21.2270   35.9690 H   0  0  0  0  0  0  0  0  0  0  0  0
   41.4030   23.3670   35.7230 C   0  0  0  0  0  0  0  0  0  0  0  0
   40.9430   24.6450   35.4840 F   0  0  0  0  0  0  0  0  0  0  0  0
   42.2090   23.0370   34.6500 F   0  0  0  0  0  0  0  0  0  0  0  0
   42.0990   23.2800   36.8970 F   0  0  0  0  0  0  0  0  0  0  0  0
   36.5730   26.3920   31.5170 S   0  0  0  0  0  0  0  0  0  0  0  0
   36.4400   27.4840   32.7880 C   0  0  0  0  0  0  0  0  0  0  0  0
   36.8660   27.6990   34.0660 C   0  0  0  0  0  0  0  0  0  0  0  0
   36.5370   28.7530   34.8480 C   0  0  0  0  0  0  0  0  0  0  0  0
   35.6240   29.7080   34.1660 C   0  0  0  0  0  0  0  0  0  0  0  0
   35.3560   28.9850   32.5070 S   0  0  0  0  0  0  0  0  0  0  0  0
   37.5190   26.9020   34.3880 H   0  0  0  0  0  0  0  0  0  0  0  0
   36.8630   28.9240   35.8380 H   0  0  0  0  0  0  0  0  0  0  0  0
   35.1240   30.9220   34.7950 C   0  0  2  0  0  3  0  0  0  0  0  0
   35.9960   31.4590   35.9110 C   0  0  0  0  0  3  0  0  0  0  0  0
   36.3660   30.6000   36.5110 H   0  0  0  0  0  0  0  0  0  0  0  0
   34.9710   32.2400   36.6990 C   0  0  0  0  0  3  0  0  0  0  0  0
   35.0200   33.2920   36.3050 H   0  0  0  0  0  0  0  0  0  0  0  0
   33.7370   31.6440   36.5170 O   0  0  0  0  0  0  0  0  0  0  0  0
   33.7980   30.7820   35.4600 C   0  0  0  0  0  3  0  0  0  0  0  0
   33.5660   29.7380   35.7680 H   0  0  0  0  0  0  0  0  0  0  0  0
  1  9  1  0  0  0  0
  2  7  1  0  0  0  0
  2  1  2  0  0  0  0
  3  2  1  0  0  0  0
  4  3  2  0  0  0  0
  4  5  1  0  0  0  0
  5  6  2  0  0  0  0
  6  1  1  0  0  0  0
  8  3  1  0  0  0  0
  9 13  1  0  0  0  0
 10  9  1  0  0  0  0
 10 11  1  0  0  0  0
 11 21  1  0  0  0  0
 11 16  1  1  0  0  0
 11 12  1  0  0  0  0
 12 17  1  0  0  0  0
 13 19  1  0  0  0  0
 13 20  1  0  0  0  0
 13 12  1  0  0  0  0
 14 10  1  0  0  0  0
 15 10  1  0  0  0  0
 18 12  1  0  0  0  0
 21 24  1  0  0  0  0
 22 21  1  0  0  0  0
 23 21  1  0  0  0  0
 25  5  1  0  0  0  0
 25 26  1  0  0  0  0
 26 27  2  0  0  0  0
 27 31  1  0  0  0  0
 27 28  1  0  0  0  0
 28 32  1  0  0  0  0
 29 28  2  0  0  0  0
 30 26  1  0  0  0  0
 30 29  1  0  0  0  0
 33 29  1  1  0  0  0
 33 39  1  0  0  0  0
 33 34  1  0  0  0  0
 34 35  1  0  0  0  0
 34 36  1  0  0  0  0
 37 36  1  0  0  0  0
 38 36  1  0  0  0  0
 39 40  1  0  0  0  0
 39 38  1  0  0  0  0
M  END
>  <minimizedAffinity>
-5.64915609

$$$$

 OpenBabel03272503353D

 40 43  0  0  1  0  0  0  0  0999 V2000
   34.1370   29.9960   32.2160 C   0  0  0  0  0  0  0  0  0  0  0  0
   34.4980   31.2100   31.6280 C   0  0  0  0  0  0  0  0  0  0  0  0
   35.8190   31.3450   31.1830 C   0  0  0  0  0  0  0  0  0  0  0  0
   36.6570   30.2640   31.3640 N   0  0  0  0  0  0  0  0  0  0  0  0
   36.2590   29.1270   31.9320 C   0  0  0  0  0  0  0  0  0  0  0  0
   35.0010   28.9830   32.3620 N   0  0  0  0  0  0  0  0  0  0  0  0
   33.8580   32.0460   31.4860 H   0  0  0  0  0  0  0  0  0  0  0  0
   36.1550   32.2510   30.7260 H   0  0  0  0  0  0  0  0  0  0  0  0
   32.7810   29.8680   32.6680 N   0  0  0  0  0  0  0  0  0  0  0  0
   32.0990   28.6560   33.0170 C   0  0  0  0  0  0  0  0  0  0  0  0
   31.0700   29.1460   34.0350 C   0  0  2  0  0  0  0  0  0  0  0  0
   31.3640   30.6250   34.2600 C   0  0  0  0  0  0  0  0  0  0  0  0
   31.8360   30.9610   32.8560 C   0  0  0  0  0  0  0  0  0  0  0  0
   31.6510   28.1330   32.1650 H   0  0  0  0  0  0  0  0  0  0  0  0
   32.8260   28.0070   33.5680 H   0  0  0  0  0  0  0  0  0  0  0  0
   30.0830   28.9910   33.5890 H   0  0  0  0  0  0  0  0  0  0  0  0
   30.4000   31.1210   34.4370 H   0  0  0  0  0  0  0  0  0  0  0  0
   32.1240   30.7770   35.0220 H   0  0  0  0  0  0  0  0  0  0  0  0
   32.3430   31.9320   32.8010 H   0  0  0  0  0  0  0  0  0  0  0  0
   30.9580   30.8720   32.1930 H   0  0  0  0  0  0  0  0  0  0  0  0
   31.1160   28.3640   35.3200 C   0  0  0  0  0  0  0  0  0  0  0  0
   30.3090   29.0260   36.2220 F   0  0  0  0  0  0  0  0  0  0  0  0
   32.4060   28.4620   35.8080 F   0  0  0  0  0  0  0  0  0  0  0  0
   30.7540   27.0530   35.1700 F   0  0  0  0  0  0  0  0  0  0  0  0
   37.4080   27.7800   32.1260 S   0  0  0  0  0  0  0  0  0  0  0  0
   37.6340   27.1310   33.6610 C   0  0  0  0  0  0  0  0  0  0  0  0
   37.8140   27.4950   34.9630 C   0  0  0  0  0  0  0  0  0  0  0  0
   37.9770   26.6520   36.0090 C   0  0  0  0  0  0  0  0  0  0  0  0
   37.9440   25.2230   35.6030 C   0  0  0  0  0  0  0  0  0  0  0  0
   37.6840   25.2640   33.7930 S   0  0  0  0  0  0  0  0  0  0  0  0
   37.8090   28.5690   35.0610 H   0  0  0  0  0  0  0  0  0  0  0  0
   38.1180   26.9280   37.0200 H   0  0  0  0  0  0  0  0  0  0  0  0
   38.0980   24.1220   36.5430 C   0  0  2  0  0  3  0  0  0  0  0  0
   37.9870   24.5170   38.0010 C   0  0  0  0  0  3  0  0  0  0  0  0
   38.5150   25.4850   38.1430 H   0  0  0  0  0  0  0  0  0  0  0  0
   38.7720   23.3980   38.6420 C   0  0  0  0  0  3  0  0  0  0  0  0
   38.0160   22.6110   38.9140 H   0  0  0  0  0  0  0  0  0  0  0  0
   39.7200   22.9580   37.7370 O   0  0  0  0  0  0  0  0  0  0  0  0
   39.4210   23.4370   36.4940 C   0  0  0  0  0  3  0  0  0  0  0  0
   40.2370   24.0790   36.0950 H   0  0  0  0  0  0  0  0  0  0  0  0
  1  6  1  0  0  0  0
  1  9  1  0  0  0  0
  2  1  2  0  0  0  0
  3  4  2  0  0  0  0
  3  2  1  0  0  0  0
  4  5  1  0  0  0  0
  5 25  1  0  0  0  0
  5  6  2  0  0  0  0
  7  2  1  0  0  0  0
  8  3  1  0  0  0  0
  9 13  1  0  0  0  0
  9 10  1  0  0  0  0
 10 15  1  0  0  0  0
 10 11  1  0  0  0  0
 11 16  1  6  0  0  0
 11 12  1  0  0  0  0
 11 21  1  0  0  0  0
 12 17  1  0  0  0  0
 12 18  1  0  0  0  0
 13 12  1  0  0  0  0
 14 10  1  0  0  0  0
 19 13  1  0  0  0  0
 20 13  1  0  0  0  0
 21 23  1  0  0  0  0
 21 22  1  0  0  0  0
 24 21  1  0  0  0  0
 25 26  1  0  0  0  0
 26 30  1  0  0  0  0
 26 27  2  0  0  0  0
 27 31  1  0  0  0  0
 27 28  1  0  0  0  0
 28 32  1  0  0  0  0
 29 28  2  0  0  0  0
 30 29  1  0  0  0  0
 33 29  1  6  0  0  0
 33 34  1  0  0  0  0
 34 35  1  0  0  0  0
 34 36  1  0  0  0  0
 36 37  1  0  0  0  0
 38 36  1  0  0  0  0
 39 33  1  0  0  0  0
 39 38  1  0  0  0  0
 40 39  1  0  0  0  0
M  END
>  <minimizedAffinity>
-5.6418252

$$$$
