
 OpenBabel03272508283D

 37 40  0  0  1  0  0  0  0  0999 V2000
   33.8140   28.8910   47.2240 C   0  0  2  0  0  0  0  0  0  0  0  0
   34.5320   28.1240   48.3230 C   0  0  2  0  0  0  0  0  0  0  0  0
   33.6140   27.9710   49.3240 O   0  0  0  0  0  0  0  0  0  0  0  0
   32.3500   28.0440   48.8320 C   0  0  0  0  0  0  0  0  0  0  0  0
   32.4310   28.2380   47.3340 C   0  0  1  0  0  0  0  0  0  0  0  0
   33.6560   29.9420   47.4790 H   0  0  0  0  0  0  0  0  0  0  0  0
   34.8210   27.1550   47.8500 H   0  0  0  0  0  0  0  0  0  0  0  0
   31.7580   27.1550   49.1110 H   0  0  0  0  0  0  0  0  0  0  0  0
   31.8630   28.9570   49.2750 H   0  0  0  0  0  0  0  0  0  0  0  0
   32.4880   27.2450   46.8420 H   0  0  0  0  0  0  0  0  0  0  0  0
   35.6070   30.3730   49.0120 C   0  0  1  0  0  0  0  0  0  0  0  0
   35.6940   28.9540   48.7600 C   0  0  1  0  0  0  0  0  0  0  0  0
   35.8540   29.4050   50.1770 C   0  0  0  0  0  0  0  0  0  0  0  0
   34.7070   30.9730   49.2150 H   0  0  0  0  0  0  0  0  0  0  0  0
   36.6610   28.5930   48.3040 H   0  0  0  0  0  0  0  0  0  0  0  0
   35.0110   29.1470   50.8420 H   0  0  0  0  0  0  0  0  0  0  0  0
   36.8380   29.3970   50.6660 H   0  0  0  0  0  0  0  0  0  0  0  0
   36.7980   31.2870   48.7810 C   0  0  0  0  0  0  0  0  0  0  0  0
   37.0440   32.2780   49.7320 C   0  0  0  0  0  0  0  0  0  0  0  0
   38.1290   33.1000   49.4580 C   0  0  0  0  0  0  0  0  0  0  0  0
   38.8840   32.9200   48.3230 N   0  0  0  0  0  0  0  0  0  0  0  0
   38.6050   31.9440   47.4310 C   0  0  0  0  0  0  0  0  0  0  0  0
   37.5530   31.1200   47.6630 N   0  0  0  0  0  0  0  0  0  0  0  0
   36.4230   32.3730   50.5980 H   0  0  0  0  0  0  0  0  0  0  0  0
   38.3530   33.8820   50.1720 H   0  0  0  0  0  0  0  0  0  0  0  0
   39.2310   31.8520   46.5600 H   0  0  0  0  0  0  0  0  0  0  0  0
   34.3630   28.7040   45.9690 O   0  0  0  0  0  0  0  0  0  0  0  0
   34.3430   27.7310   45.7750 H   0  0  0  0  0  0  0  0  0  0  0  0
   31.4520   29.0380   46.8110 O   0  0  0  0  0  0  0  0  0  0  0  0
   30.2650   28.3920   46.5360 C   0  0  2  0  0  3  0  0  0  0  0  0
   29.8310   28.5660   45.0910 C   0  0  0  0  0  3  0  0  0  0  0  0
   30.1650   27.7660   44.4310 H   0  0  0  0  0  0  0  0  0  0  0  0
   28.3250   28.4420   45.2520 C   0  0  0  0  0  3  0  0  0  0  0  0
   28.0240   27.3630   45.1920 H   0  0  0  0  0  0  0  0  0  0  0  0
   28.0020   28.9990   46.4730 O   0  0  0  0  0  0  0  0  0  0  0  0
   29.1480   29.1240   47.2380 C   0  0  0  0  0  3  0  0  0  0  0  0
   29.0150   28.8290   48.2980 H   0  0  0  0  0  0  0  0  0  0  0  0
  1  5  1  0  0  0  0
  1  6  1  1  0  0  0
  1  2  1  0  0  0  0
  2  7  1  6  0  0  0
  2 12  1  0  0  0  0
  2  3  1  0  0  0  0
  4  8  1  0  0  0  0
  4  9  1  0  0  0  0
  4  3  1  0  0  0  0
  5 10  1  6  0  0  0
  5  4  1  0  0  0  0
 11 14  1  6  0  0  0
 11 13  1  0  0  0  0
 12 15  1  6  0  0  0
 12 11  1  0  0  0  0
 12 13  1  0  0  0  0
 13 17  1  0  0  0  0
 13 16  1  0  0  0  0
 18 11  1  0  0  0  0
 18 19  1  0  0  0  0
 19 24  1  0  0  0  0
 20 19  2  0  0  0  0
 20 25  1  0  0  0  0
 21 20  1  0  0  0  0
 22 23  1  0  0  0  0
 22 21  2  0  0  0  0
 23 18  2  0  0  0  0
 26 22  1  0  0  0  0
 27  1  1  0  0  0  0
 28 27  1  0  0  0  0
 29  5  1  0  0  0  0
 30 29  1  6  0  0  0
 30 36  1  0  0  0  0
 31 33  1  0  0  0  0
 31 30  1  0  0  0  0
 32 31  1  0  0  0  0
 33 35  1  0  0  0  0
 34 33  1  0  0  0  0
 35 36  1  0  0  0  0
 36 37  1  0  0  0  0
M  END
>  <minimizedAffinity>
-5.00567389

>  <minimizedRMSD>
0.613554358

$$$$
