
 OpenBabel03272510043D

 36 38  0  0  1  0  0  0  0  0999 V2000
   36.8790   30.8290   44.7660 C   0  0  0  0  0  0  0  0  0  0  0  0
   36.3720   30.5140   45.9870 C   0  0  0  0  0  0  0  0  0  0  0  0
   35.1160   29.9230   46.0830 C   0  0  0  0  0  0  0  0  0  0  0  0
   34.3400   29.6340   44.9850 C   0  0  0  0  0  0  0  0  0  0  0  0
   34.8150   29.9410   43.7330 C   0  0  0  0  0  0  0  0  0  0  0  0
   36.0570   30.5220   43.6690 C   0  0  0  0  0  0  0  0  0  0  0  0
   34.7400   29.6800   47.0930 H   0  0  0  0  0  0  0  0  0  0  0  0
   33.3910   29.1780   45.1770 H   0  0  0  0  0  0  0  0  0  0  0  0
   34.1770   29.6990   42.9220 H   0  0  0  0  0  0  0  0  0  0  0  0
   36.3140   30.7180   42.6190 H   0  0  0  0  0  0  0  0  0  0  0  0
   38.7020   32.1370   48.3190 C   0  0  0  0  0  0  0  0  0  0  0  0
   37.9790   31.8310   47.1770 C   0  0  0  0  0  0  0  0  0  0  0  0
   37.0870   30.8060   47.1830 C   0  0  0  0  0  0  0  0  0  0  0  0
   36.9420   30.1160   48.3480 N   0  0  0  0  0  0  0  0  0  0  0  0
   37.6340   30.4070   49.4540 C   0  0  0  0  0  0  0  0  0  0  0  0
   38.5100   31.4140   49.4320 N   0  0  0  0  0  0  0  0  0  0  0  0
   39.4390   32.8990   48.4860 H   0  0  0  0  0  0  0  0  0  0  0  0
   38.2890   32.5630   46.4720 H   0  0  0  0  0  0  0  0  0  0  0  0
   37.3230   29.6120   50.6730 C   0  0  0  0  0  0  0  0  0  0  0  0
   37.4470   30.3650   51.8250 F   0  0  0  0  0  0  0  0  0  0  0  0
   35.9130   29.2910   50.6660 F   0  0  0  0  0  0  0  0  0  0  0  0
   37.9080   28.4410   50.7910 F   0  0  0  0  0  0  0  0  0  0  0  0
   38.4140   31.5180   44.4990 S   0  0  0  0  0  0  0  0  0  0  0  0
   38.4200   32.9720   44.8790 O   0  0  0  0  0  0  0  0  0  0  0  0
   38.3230   31.7410   43.0140 O   0  0  0  0  0  0  0  0  0  0  0  0
   39.8800   30.7270   44.2180 C   0  0  0  0  0  0  0  0  0  0  0  0
   40.7510   31.3620   43.9830 H   0  0  0  0  0  0  0  0  0  0  0  0
   40.2070   30.3580   45.2550 H   0  0  0  0  0  0  0  0  0  0  0  0
   39.8170   29.4680   43.4340 C   0  0  1  0  0  3  0  0  0  0  0  0
   38.8190   28.4450   43.8200 C   0  0  0  0  0  3  0  0  0  0  0  0
   37.8670   28.8650   44.1830 H   0  0  0  0  0  0  0  0  0  0  0  0
   38.5640   27.7450   42.4720 C   0  0  0  0  0  3  0  0  0  0  0  0
   37.5100   27.4140   42.3810 H   0  0  0  0  0  0  0  0  0  0  0  0
   38.8700   28.6210   41.4730 O   0  0  0  0  0  0  0  0  0  0  0  0
   39.3300   29.7890   42.0040 C   0  0  0  0  0  3  0  0  0  0  0  0
   38.4950   30.5140   42.1730 H   0  0  0  0  0  0  0  0  0  0  0  0
  1  2  1  0  0  0  0
  2  3  2  0  0  0  0
  2 13  1  0  0  0  0
  3  7  1  0  0  0  0
  4  8  1  0  0  0  0
  4  3  1  0  0  0  0
  5  4  2  0  0  0  0
  6  5  1  0  0  0  0
  6  1  2  0  0  0  0
  9  5  1  0  0  0  0
 10  6  1  0  0  0  0
 11 17  1  0  0  0  0
 11 16  1  0  0  0  0
 12 13  1  0  0  0  0
 12 11  2  0  0  0  0
 13 14  2  0  0  0  0
 14 15  1  0  0  0  0
 15 19  1  0  0  0  0
 16 15  2  0  0  0  0
 18 12  1  0  0  0  0
 19 22  1  0  0  0  0
 19 20  1  0  0  0  0
 21 19  1  0  0  0  0
 23  1  1  0  0  0  0
 23 24  2  0  0  0  0
 25 23  2  0  0  0  0
 26 23  1  0  0  0  0
 26 28  1  0  0  0  0
 27 26  1  0  0  0  0
 29 30  1  0  0  0  0
 29 26  1  1  0  0  0
 30 31  1  0  0  0  0
 32 30  1  0  0  0  0
 33 32  1  0  0  0  0
 34 35  1  0  0  0  0
 34 32  1  0  0  0  0
 35 36  1  0  0  0  0
 35 29  1  0  0  0  0
M  END
>  <minimizedAffinity>
-5.47927523

>  <minimizedRMSD>
1.75591087

$$$$
