
 OpenBabel03272506443D

 31 33  0  0  1  0  0  0  0  0999 V2000
   32.2990   28.3210   47.4280 C   0  0  2  0  0  0  0  0  0  0  0  0
   33.4920   28.3590   48.3610 C   0  0  1  0  0  0  0  0  0  0  0  0
   34.0580   27.1050   48.3570 O   0  0  0  0  0  0  0  0  0  0  0  0
   33.4630   26.3450   47.3770 C   0  0  0  0  0  0  0  0  0  0  0  0
   32.8230   27.3270   46.4010 C   0  0  1  0  0  0  0  0  0  0  0  0
   31.4030   27.8840   47.8750 H   0  0  0  0  0  0  0  0  0  0  0  0
   33.2110   28.6530   49.3860 H   0  0  0  0  0  0  0  0  0  0  0  0
   34.1340   25.6340   46.8930 H   0  0  0  0  0  0  0  0  0  0  0  0
   32.5880   25.8410   47.8800 H   0  0  0  0  0  0  0  0  0  0  0  0
   33.5670   27.8110   45.7360 H   0  0  0  0  0  0  0  0  0  0  0  0
   32.0770   29.5820   46.8560 O   0  0  0  0  0  0  0  0  0  0  0  0
   32.6950   29.6950   46.0890 H   0  0  0  0  0  0  0  0  0  0  0  0
   34.6960   29.5070   47.6220 S   0  0  0  0  0  0  0  0  0  0  0  0
   37.3110   29.2920   50.5930 C   0  0  0  0  0  0  0  0  0  0  0  0
   37.7420   30.5950   50.7990 C   0  0  0  0  0  0  0  0  0  0  0  0
   37.2050   31.5940   49.9860 C   0  0  0  0  0  0  0  0  0  0  0  0
   36.2990   31.2440   49.0470 N   0  0  0  0  0  0  0  0  0  0  0  0
   35.8950   29.9570   48.8680 C   0  0  0  0  0  0  0  0  0  0  0  0
   36.3990   28.9640   49.6430 N   0  0  0  0  0  0  0  0  0  0  0  0
   37.7370   28.5290   51.2330 H   0  0  0  0  0  0  0  0  0  0  0  0
   38.4500   30.9100   51.5250 H   0  0  0  0  0  0  0  0  0  0  0  0
   37.5200   32.6210   50.1210 H   0  0  0  0  0  0  0  0  0  0  0  0
   31.7930   26.7120   45.7050 O   0  0  0  0  0  0  0  0  0  0  0  0
   32.0260   26.6090   44.3570 C   0  0  1  0  0  3  0  0  0  0  0  0
   33.0710   27.6290   43.9460 C   0  0  0  0  0  3  0  0  0  0  0  0
   32.6120   28.5730   43.5990 H   0  0  0  0  0  0  0  0  0  0  0  0
   33.7130   26.8860   42.7700 C   0  0  0  0  0  3  0  0  0  0  0  0
   34.6990   27.2960   42.5400 H   0  0  0  0  0  0  0  0  0  0  0  0
   33.8890   25.6280   43.3510 O   0  0  0  0  0  0  0  0  0  0  0  0
   32.6510   25.3240   43.9080 C   0  0  0  0  0  3  0  0  0  0  0  0
   32.8280   24.6200   44.7470 H   0  0  0  0  0  0  0  0  0  0  0  0
  1  6  1  1  0  0  0
  1  2  1  0  0  0  0
  2  7  1  1  0  0  0
  3  2  1  0  0  0  0
  4  9  1  0  0  0  0
  4  3  1  0  0  0  0
  5 10  1  6  0  0  0
  5  4  1  0  0  0  0
  5  1  1  0  0  0  0
  8  4  1  0  0  0  0
 11  1  1  0  0  0  0
 12 11  1  0  0  0  0
 13  2  1  0  0  0  0
 13 18  1  0  0  0  0
 14 15  1  0  0  0  0
 14 20  1  0  0  0  0
 15 21  1  0  0  0  0
 16 22  1  0  0  0  0
 16 15  2  0  0  0  0
 17 16  1  0  0  0  0
 18 17  2  0  0  0  0
 18 19  1  0  0  0  0
 19 14  2  0  0  0  0
 23  5  1  0  0  0  0
 24 23  1  1  0  0  0
 25 24  1  0  0  0  0
 26 25  1  0  0  0  0
 27 29  1  0  0  0  0
 27 25  1  0  0  0  0
 28 27  1  0  0  0  0
 29 30  1  0  0  0  0
 30 24  1  0  0  0  0
 30 31  1  0  0  0  0
M  END
>  <minimizedAffinity>
-3.72005725

>  <minimizedRMSD>
0.586131215

$$$$
