
 OpenBabel03272508123D

 33 35  0  0  1  0  0  0  0  0999 V2000
   36.7040   29.4410   44.1060 Cl  0  0  0  0  0  0  0  0  0  0  0  0
   38.3500   29.8390   43.6010 C   0  0  0  0  0  0  0  0  0  0  0  0
   39.3280   30.3300   44.4670 C   0  0  0  0  0  0  0  0  0  0  0  0
   40.5880   30.6030   43.9360 C   0  0  0  0  0  0  0  0  0  0  0  0
   40.8330   30.3860   42.6010 C   0  0  0  0  0  0  0  0  0  0  0  0
   39.8920   29.9070   41.7370 C   0  0  0  0  0  0  0  0  0  0  0  0
   38.6510   29.6350   42.2450 C   0  0  0  0  0  0  0  0  0  0  0  0
   41.2660   30.9770   44.6910 H   0  0  0  0  0  0  0  0  0  0  0  0
   41.8500   30.6300   42.2800 H   0  0  0  0  0  0  0  0  0  0  0  0
   40.1750   29.7680   40.7040 H   0  0  0  0  0  0  0  0  0  0  0  0
   37.6130   29.1120   41.3190 C   0  0  2  0  0  3  0  0  0  0  0  0
   37.6400   27.5940   41.2140 C   0  0  0  0  0  3  0  0  0  0  0  0
   38.3400   27.1180   41.9130 H   0  0  0  0  0  0  0  0  0  0  0  0
   38.0340   27.3980   39.7660 C   0  0  0  0  0  3  0  0  0  0  0  0
   38.7150   26.5180   39.6440 H   0  0  0  0  0  0  0  0  0  0  0  0
   38.6700   28.5770   39.3870 O   0  0  0  0  0  0  0  0  0  0  0  0
   37.8250   29.5490   39.9160 C   0  0  0  0  0  3  0  0  0  0  0  0
   36.8460   29.3940   39.3810 H   0  0  0  0  0  0  0  0  0  0  0  0
   38.8690   30.4690   45.7470 O   0  0  0  0  0  0  0  0  0  0  0  0
   39.4030   32.5460   47.2030 O   0  0  0  0  0  0  0  0  0  0  0  0
   38.2900   31.8570   46.5010 P   0  0  1  0  0  0  0  0  0  0  0  0
   37.7080   32.8540   45.2420 O   0  0  0  0  0  0  0  0  0  0  0  0
   38.4950   33.2040   44.7390 H   0  0  0  0  0  0  0  0  0  0  0  0
   36.9900   31.4320   47.5050 O   0  0  0  0  0  0  0  0  0  0  0  0
   37.5000   30.5310   51.0560 C   0  0  0  0  0  0  0  0  0  0  0  0
   37.6050   31.3190   49.9060 C   0  0  0  0  0  0  0  0  0  0  0  0
   37.0160   30.8470   48.7240 C   0  0  0  0  0  0  0  0  0  0  0  0
   36.3730   29.6450   48.7590 N   0  0  0  0  0  0  0  0  0  0  0  0
   36.2970   28.9180   49.8900 C   0  0  0  0  0  0  0  0  0  0  0  0
   36.8570   29.3610   51.0270 N   0  0  0  0  0  0  0  0  0  0  0  0
   37.9770   30.9500   51.9410 H   0  0  0  0  0  0  0  0  0  0  0  0
   38.0950   32.2760   49.8040 H   0  0  0  0  0  0  0  0  0  0  0  0
   35.7920   27.9620   49.9410 H   0  0  0  0  0  0  0  0  0  0  0  0
  2  1  1  0  0  0  0
  2  3  1  0  0  0  0
  3 19  1  0  0  0  0
  4  3  2  0  0  0  0
  4  8  1  0  0  0  0
  5  4  1  0  0  0  0
  6  7  1  0  0  0  0
  6  5  2  0  0  0  0
  7  2  2  0  0  0  0
  9  5  1  0  0  0  0
 10  6  1  0  0  0  0
 11  7  1  1  0  0  0
 12 11  1  0  0  0  0
 12 13  1  0  0  0  0
 14 12  1  0  0  0  0
 15 14  1  0  0  0  0
 16 14  1  0  0  0  0
 16 17  1  0  0  0  0
 17 11  1  0  0  0  0
 18 17  1  0  0  0  0
 19 21  1  0  0  0  0
 21 20  2  1  0  0  0
 21 24  1  0  0  0  0
 22 21  1  0  0  0  0
 23 22  1  0  0  0  0
 24 27  1  0  0  0  0
 25 31  1  0  0  0  0
 26 25  2  0  0  0  0
 27 28  2  0  0  0  0
 27 26  1  0  0  0  0
 28 29  1  0  0  0  0
 29 33  1  0  0  0  0
 29 30  2  0  0  0  0
 30 25  1  0  0  0  0
 32 26  1  0  0  0  0
M  END
>  <minimizedAffinity>
-4.86328983

>  <minimizedRMSD>
1.20182979

$$$$
