
 OpenBabel03272507513D

 27 29  0  0  1  0  0  0  0  0999 V2000
   36.5460   29.5940   49.4870 C   0  0  0  0  0  0  0  0  0  0  0  0
   36.4710   30.5640   48.4740 C   0  0  0  0  0  0  0  0  0  0  0  0
   35.4410   30.4080   47.5340 C   0  0  0  0  0  0  0  0  0  0  0  0
   34.5910   29.3590   47.6450 N   0  0  0  0  0  0  0  0  0  0  0  0
   34.6920   28.4510   48.6260 C   0  0  0  0  0  0  0  0  0  0  0  0
   35.6770   28.5710   49.5520 N   0  0  0  0  0  0  0  0  0  0  0  0
   35.3900   31.1590   46.7560 H   0  0  0  0  0  0  0  0  0  0  0  0
   33.9490   27.6660   48.5960 H   0  0  0  0  0  0  0  0  0  0  0  0
   37.4180   31.6190   48.4610 N   0  0  0  0  0  0  0  0  0  0  0  0
   37.3820   32.6130   49.3540 C   0  0  0  0  0  0  0  0  0  0  0  0
   38.3360   33.6320   49.3120 C   0  0  0  0  0  0  0  0  0  0  0  0
   39.2510   33.4880   48.3020 C   0  0  0  0  0  0  0  0  0  0  0  0
   40.1390   34.4070   48.2380 O   0  0  0  0  0  0  0  0  0  0  0  0
   39.3180   32.5110   47.3930 N   0  0  0  0  0  0  0  0  0  0  0  0
   38.3600   31.5510   47.4890 C   0  0  0  0  0  0  0  0  0  0  0  0
   38.4100   30.6170   46.6310 O   0  0  0  0  0  0  0  0  0  0  0  0
   36.6190   32.6660   50.1310 H   0  0  0  0  0  0  0  0  0  0  0  0
   38.3630   34.4640   50.0040 H   0  0  0  0  0  0  0  0  0  0  0  0
   40.0660   32.5080   46.6660 H   0  0  0  0  0  0  0  0  0  0  0  0
   37.5570   29.5950   50.5420 C   0  0  2  0  0  3  0  0  0  0  0  0
   38.0630   28.1900   50.8590 C   0  0  0  0  0  3  0  0  0  0  0  0
   39.0350   28.0090   50.3640 H   0  0  0  0  0  0  0  0  0  0  0  0
   38.2880   28.2740   52.3480 C   0  0  0  0  0  3  0  0  0  0  0  0
   37.5530   27.6770   52.9370 H   0  0  0  0  0  0  0  0  0  0  0  0
   38.0880   29.6150   52.7130 O   0  0  0  0  0  0  0  0  0  0  0  0
   37.0140   30.0110   51.8880 C   0  0  0  0  0  3  0  0  0  0  0  0
   36.8770   31.1010   51.9830 H   0  0  0  0  0  0  0  0  0  0  0  0
  1  6  1  0  0  0  0
  2  1  2  0  0  0  0
  3  4  2  0  0  0  0
  3  2  1  0  0  0  0
  4  5  1  0  0  0  0
  5  6  2  0  0  0  0
  7  3  1  0  0  0  0
  8  5  1  0  0  0  0
  9  2  1  0  0  0  0
  9 10  1  0  0  0  0
 10 17  1  0  0  0  0
 11 10  2  0  0  0  0
 11 18  1  0  0  0  0
 12 11  1  0  0  0  0
 13 12  2  0  0  0  0
 14 15  1  0  0  0  0
 14 12  1  0  0  0  0
 15  9  1  0  0  0  0
 16 15  2  0  0  0  0
 19 14  1  0  0  0  0
 20  1  1  6  0  0  0
 20 21  1  0  0  0  0
 20 26  1  0  0  0  0
 21 23  1  0  0  0  0
 22 21  1  0  0  0  0
 23 25  1  0  0  0  0
 23 24  1  0  0  0  0
 26 27  1  0  0  0  0
 26 25  1  0  0  0  0
M  END
>  <minimizedAffinity>
-3.79563403

>  <minimizedRMSD>
0.588729203

$$$$
