
 OpenBabel03272508123D

 33 35  0  0  1  0  0  0  0  0999 V2000
   36.6760   29.6030   44.1640 Cl  0  0  0  0  0  0  0  0  0  0  0  0
   38.3090   29.9540   43.5870 C   0  0  0  0  0  0  0  0  0  0  0  0
   39.3440   30.3950   44.4130 C   0  0  0  0  0  0  0  0  0  0  0  0
   40.5850   30.6350   43.8270 C   0  0  0  0  0  0  0  0  0  0  0  0
   40.7590   30.4340   42.4790 C   0  0  0  0  0  0  0  0  0  0  0  0
   39.7620   30.0040   41.6530 C   0  0  0  0  0  0  0  0  0  0  0  0
   38.5370   29.7650   42.2160 C   0  0  0  0  0  0  0  0  0  0  0  0
   41.3110   30.9710   44.5550 H   0  0  0  0  0  0  0  0  0  0  0  0
   41.7670   30.6490   42.1140 H   0  0  0  0  0  0  0  0  0  0  0  0
   39.9900   29.8750   40.6050 H   0  0  0  0  0  0  0  0  0  0  0  0
   37.4390   29.2950   41.3320 C   0  0  2  0  0  3  0  0  0  0  0  0
   37.9570   28.6830   40.0390 C   0  0  0  0  0  3  0  0  0  0  0  0
   39.0490   28.5830   40.0070 H   0  0  0  0  0  0  0  0  0  0  0  0
   37.4270   29.6560   39.0090 C   0  0  0  0  0  3  0  0  0  0  0  0
   38.1580   29.8050   38.1730 H   0  0  0  0  0  0  0  0  0  0  0  0
   37.2070   30.8470   39.6960 O   0  0  0  0  0  0  0  0  0  0  0  0
   36.5740   30.4040   40.8550 C   0  0  0  0  0  3  0  0  0  0  0  0
   35.6190   29.9310   40.4910 H   0  0  0  0  0  0  0  0  0  0  0  0
   38.9510   30.5250   45.7160 O   0  0  0  0  0  0  0  0  0  0  0  0
   39.4770   32.5750   47.2150 O   0  0  0  0  0  0  0  0  0  0  0  0
   38.3670   31.8980   46.4960 P   0  0  1  0  0  0  0  0  0  0  0  0
   37.7860   32.9170   45.2550 O   0  0  0  0  0  0  0  0  0  0  0  0
   38.5740   33.2790   44.7610 H   0  0  0  0  0  0  0  0  0  0  0  0
   37.0650   31.4500   47.4880 O   0  0  0  0  0  0  0  0  0  0  0  0
   37.5960   30.5120   51.0260 C   0  0  0  0  0  0  0  0  0  0  0  0
   37.7090   31.3030   49.8790 C   0  0  0  0  0  0  0  0  0  0  0  0
   37.0890   30.8570   48.7030 C   0  0  0  0  0  0  0  0  0  0  0  0
   36.4080   29.6770   48.7400 N   0  0  0  0  0  0  0  0  0  0  0  0
   36.3250   28.9460   49.8680 C   0  0  0  0  0  0  0  0  0  0  0  0
   36.9150   29.3630   51.0000 N   0  0  0  0  0  0  0  0  0  0  0  0
   38.0980   30.9100   51.9070 H   0  0  0  0  0  0  0  0  0  0  0  0
   38.2290   32.2450   49.7760 H   0  0  0  0  0  0  0  0  0  0  0  0
   35.7910   28.0050   49.9210 H   0  0  0  0  0  0  0  0  0  0  0  0
  2  1  1  0  0  0  0
  2  3  1  0  0  0  0
  3 19  1  0  0  0  0
  4  3  2  0  0  0  0
  4  8  1  0  0  0  0
  5  4  1  0  0  0  0
  6  7  1  0  0  0  0
  6  5  2  0  0  0  0
  7  2  2  0  0  0  0
  9  5  1  0  0  0  0
 10  6  1  0  0  0  0
 11  7  1  1  0  0  0
 12 11  1  0  0  0  0
 13 12  1  0  0  0  0
 14 16  1  0  0  0  0
 14 12  1  0  0  0  0
 15 14  1  0  0  0  0
 16 17  1  0  0  0  0
 17 11  1  0  0  0  0
 18 17  1  0  0  0  0
 19 21  1  0  0  0  0
 21 20  2  1  0  0  0
 21 24  1  0  0  0  0
 22 21  1  0  0  0  0
 23 22  1  0  0  0  0
 24 27  1  0  0  0  0
 25 31  1  0  0  0  0
 26 25  2  0  0  0  0
 27 28  2  0  0  0  0
 27 26  1  0  0  0  0
 28 29  1  0  0  0  0
 29 33  1  0  0  0  0
 29 30  2  0  0  0  0
 30 25  1  0  0  0  0
 32 26  1  0  0  0  0
M  END
>  <minimizedAffinity>
-4.87508631

>  <minimizedRMSD>
1.1961062

$$$$
