
 OpenBabel03272508123D

 33 35  0  0  1  0  0  0  0  0999 V2000
   36.6630   29.6100   44.1700 Cl  0  0  0  0  0  0  0  0  0  0  0  0
   38.2990   29.9620   43.6030 C   0  0  0  0  0  0  0  0  0  0  0  0
   39.3320   30.3920   44.4370 C   0  0  0  0  0  0  0  0  0  0  0  0
   40.5760   30.6340   43.8580 C   0  0  0  0  0  0  0  0  0  0  0  0
   40.7540   30.4450   42.5080 C   0  0  0  0  0  0  0  0  0  0  0  0
   39.7590   30.0250   41.6740 C   0  0  0  0  0  0  0  0  0  0  0  0
   38.5320   29.7850   42.2300 C   0  0  0  0  0  0  0  0  0  0  0  0
   41.3000   30.9610   44.5910 H   0  0  0  0  0  0  0  0  0  0  0  0
   41.7650   30.6610   42.1480 H   0  0  0  0  0  0  0  0  0  0  0  0
   39.9910   29.9050   40.6260 H   0  0  0  0  0  0  0  0  0  0  0  0
   37.4350   29.3260   41.3380 C   0  0  2  0  0  3  0  0  0  0  0  0
   37.9560   28.7080   40.0490 C   0  0  0  0  0  3  0  0  0  0  0  0
   39.0490   28.5960   40.0250 H   0  0  0  0  0  0  0  0  0  0  0  0
   37.4450   29.6860   39.0160 C   0  0  0  0  0  3  0  0  0  0  0  0
   38.1830   29.8270   38.1840 H   0  0  0  0  0  0  0  0  0  0  0  0
   37.2320   30.8790   39.7020 O   0  0  0  0  0  0  0  0  0  0  0  0
   36.5860   30.4430   40.8550 C   0  0  0  0  0  3  0  0  0  0  0  0
   35.6270   29.9800   40.4840 H   0  0  0  0  0  0  0  0  0  0  0  0
   38.9340   30.5110   45.7390 O   0  0  0  0  0  0  0  0  0  0  0  0
   39.4420   32.5440   47.2670 O   0  0  0  0  0  0  0  0  0  0  0  0
   38.3410   31.8760   46.5260 P   0  0  1  0  0  0  0  0  0  0  0  0
   37.7780   32.9100   45.2900 O   0  0  0  0  0  0  0  0  0  0  0  0
   38.5730   33.2760   44.8100 H   0  0  0  0  0  0  0  0  0  0  0  0
   37.0260   31.4180   47.4960 O   0  0  0  0  0  0  0  0  0  0  0  0
   37.4930   30.5300   51.0560 C   0  0  0  0  0  0  0  0  0  0  0  0
   37.6170   31.3110   49.9030 C   0  0  0  0  0  0  0  0  0  0  0  0
   37.0340   30.8400   48.7180 C   0  0  0  0  0  0  0  0  0  0  0  0
   36.3780   29.6450   48.7520 N   0  0  0  0  0  0  0  0  0  0  0  0
   36.2830   28.9250   49.8870 C   0  0  0  0  0  0  0  0  0  0  0  0
   36.8370   29.3670   51.0270 N   0  0  0  0  0  0  0  0  0  0  0  0
   37.9660   30.9480   51.9440 H   0  0  0  0  0  0  0  0  0  0  0  0
   38.1190   32.2620   49.8010 H   0  0  0  0  0  0  0  0  0  0  0  0
   35.7670   27.9740   49.9380 H   0  0  0  0  0  0  0  0  0  0  0  0
  2  1  1  0  0  0  0
  2  3  1  0  0  0  0
  3 19  1  0  0  0  0
  4  3  2  0  0  0  0
  4  8  1  0  0  0  0
  5  4  1  0  0  0  0
  6  7  1  0  0  0  0
  6  5  2  0  0  0  0
  7  2  2  0  0  0  0
  9  5  1  0  0  0  0
 10  6  1  0  0  0  0
 11  7  1  1  0  0  0
 12 11  1  0  0  0  0
 13 12  1  0  0  0  0
 14 16  1  0  0  0  0
 14 12  1  0  0  0  0
 15 14  1  0  0  0  0
 16 17  1  0  0  0  0
 17 11  1  0  0  0  0
 18 17  1  0  0  0  0
 19 21  1  0  0  0  0
 21 20  2  1  0  0  0
 21 24  1  0  0  0  0
 22 21  1  0  0  0  0
 23 22  1  0  0  0  0
 24 27  1  0  0  0  0
 25 31  1  0  0  0  0
 26 25  2  0  0  0  0
 27 28  2  0  0  0  0
 27 26  1  0  0  0  0
 28 29  1  0  0  0  0
 29 33  1  0  0  0  0
 29 30  2  0  0  0  0
 30 25  1  0  0  0  0
 32 26  1  0  0  0  0
M  END
>  <minimizedAffinity>
-4.86264706

>  <minimizedRMSD>
1.30823076

$$$$
