
 OpenBabel03272506443D

 31 33  0  0  1  0  0  0  0  0999 V2000
   32.3510   28.2120   47.6400 C   0  0  2  0  0  0  0  0  0  0  0  0
   33.6510   28.2550   48.4180 C   0  0  1  0  0  0  0  0  0  0  0  0
   34.2440   27.0200   48.2980 O   0  0  0  0  0  0  0  0  0  0  0  0
   33.5500   26.2750   47.3740 C   0  0  0  0  0  0  0  0  0  0  0  0
   32.7680   27.2680   46.5210 C   0  0  1  0  0  0  0  0  0  0  0  0
   31.5300   27.7340   48.1800 H   0  0  0  0  0  0  0  0  0  0  0  0
   33.4940   28.5070   49.4800 H   0  0  0  0  0  0  0  0  0  0  0  0
   34.1730   25.6000   46.7850 H   0  0  0  0  0  0  0  0  0  0  0  0
   32.7590   25.7280   47.9640 H   0  0  0  0  0  0  0  0  0  0  0  0
   33.4090   27.7960   45.7870 H   0  0  0  0  0  0  0  0  0  0  0  0
   32.0270   29.4840   47.1460 O   0  0  0  0  0  0  0  0  0  0  0  0
   32.5410   29.6400   46.3120 H   0  0  0  0  0  0  0  0  0  0  0  0
   34.7230   29.4620   47.5760 S   0  0  0  0  0  0  0  0  0  0  0  0
   37.3730   29.4740   50.5240 C   0  0  0  0  0  0  0  0  0  0  0  0
   37.9620   30.7300   50.4840 C   0  0  0  0  0  0  0  0  0  0  0  0
   37.5270   31.6220   49.5040 C   0  0  0  0  0  0  0  0  0  0  0  0
   36.5600   31.2200   48.6490 N   0  0  0  0  0  0  0  0  0  0  0  0
   35.9990   29.9810   48.7120 C   0  0  0  0  0  0  0  0  0  0  0  0
   36.4030   29.0930   49.6540 N   0  0  0  0  0  0  0  0  0  0  0  0
   37.7220   28.7940   51.2910 H   0  0  0  0  0  0  0  0  0  0  0  0
   38.7220   31.0820   51.1360 H   0  0  0  0  0  0  0  0  0  0  0  0
   37.9660   32.6100   49.4450 H   0  0  0  0  0  0  0  0  0  0  0  0
   31.6740   26.6450   45.9370 O   0  0  0  0  0  0  0  0  0  0  0  0
   31.4890   26.9810   44.6200 C   0  0  1  0  0  3  0  0  0  0  0  0
   30.2630   27.8650   44.4940 C   0  0  0  0  0  3  0  0  0  0  0  0
   29.3520   27.2780   44.2720 H   0  0  0  0  0  0  0  0  0  0  0  0
   30.6670   28.7000   43.2760 C   0  0  0  0  0  3  0  0  0  0  0  0
   30.0740   29.6170   43.2140 H   0  0  0  0  0  0  0  0  0  0  0  0
   31.9690   29.0460   43.6450 O   0  0  0  0  0  0  0  0  0  0  0  0
   32.5570   27.8430   44.0190 C   0  0  0  0  0  3  0  0  0  0  0  0
   33.3680   28.0790   44.7380 H   0  0  0  0  0  0  0  0  0  0  0  0
  1  6  1  1  0  0  0
  1  2  1  0  0  0  0
  2  7  1  1  0  0  0
  3  2  1  0  0  0  0
  4  9  1  0  0  0  0
  4  3  1  0  0  0  0
  5 10  1  6  0  0  0
  5  4  1  0  0  0  0
  5  1  1  0  0  0  0
  8  4  1  0  0  0  0
 11  1  1  0  0  0  0
 12 11  1  0  0  0  0
 13  2  1  0  0  0  0
 13 18  1  0  0  0  0
 14 20  1  0  0  0  0
 15 14  1  0  0  0  0
 15 21  1  0  0  0  0
 16 15  2  0  0  0  0
 17 18  2  0  0  0  0
 17 16  1  0  0  0  0
 18 19  1  0  0  0  0
 19 14  2  0  0  0  0
 22 16  1  0  0  0  0
 23  5  1  0  0  0  0
 24 23  1  1  0  0  0
 25 24  1  0  0  0  0
 26 25  1  0  0  0  0
 27 29  1  0  0  0  0
 27 25  1  0  0  0  0
 28 27  1  0  0  0  0
 29 30  1  0  0  0  0
 30 24  1  0  0  0  0
 30 31  1  0  0  0  0
M  END
>  <minimizedAffinity>
-3.75368738

>  <minimizedRMSD>
0.440403283

$$$$
