
 OpenBabel03272508093D

 23 24  0  0  1  0  0  0  0  0999 V2000
   39.6560   27.2940   33.7340 O   0  0  0  0  0  0  0  0  0  0  0  0
   38.6850   26.7410   34.7290 P   0  0  2  0  0  0  0  0  0  0  0  0
   38.8600   27.5630   36.2050 O   0  0  0  0  0  0  0  0  0  0  0  0
   39.8120   27.8970   36.2310 H   0  0  0  0  0  0  0  0  0  0  0  0
   38.7810   25.0670   34.9530 O   0  0  0  0  0  0  0  0  0  0  0  0
   39.7350   22.8260   37.7470 C   0  0  0  0  0  0  0  0  0  0  0  0
   39.7930   23.3710   36.4670 C   0  0  0  0  0  0  0  0  0  0  0  0
   38.9110   24.3900   36.1220 C   0  0  0  0  0  0  0  0  0  0  0  0
   38.0180   24.8080   37.0790 N   0  0  0  0  0  0  0  0  0  0  0  0
   37.9970   24.2470   38.3110 C   0  0  0  0  0  0  0  0  0  0  0  0
   38.8400   23.2720   38.6440 N   0  0  0  0  0  0  0  0  0  0  0  0
   40.4850   22.0480   37.8510 H   0  0  0  0  0  0  0  0  0  0  0  0
   40.4650   23.0970   35.6660 H   0  0  0  0  0  0  0  0  0  0  0  0
   37.3000   24.5630   39.0770 H   0  0  0  0  0  0  0  0  0  0  0  0
   37.1200   27.1070   34.1620 O   0  0  0  0  0  0  0  0  0  0  0  0
   37.1400   27.0110   32.7830 C   0  0  1  0  0  3  0  0  0  0  0  0
   36.6180   25.7290   32.2300 C   0  0  0  0  0  3  0  0  0  0  0  0
   36.0750   25.1030   32.9950 H   0  0  0  0  0  0  0  0  0  0  0  0
   35.6500   26.1950   31.1500 C   0  0  0  0  0  3  0  0  0  0  0  0
   34.6080   26.2610   31.5110 H   0  0  0  0  0  0  0  0  0  0  0  0
   36.0880   27.4910   30.8370 O   0  0  0  0  0  0  0  0  0  0  0  0
   36.2700   28.0540   32.1190 C   0  0  0  0  0  3  0  0  0  0  0  0
   36.8030   29.0280   31.9770 H   0  0  0  0  0  0  0  0  0  0  0  0
  2  1  2  6  0  0  0
  2  5  1  0  0  0  0
  2  3  1  0  0  0  0
  3  4  1  0  0  0  0
  5  8  1  0  0  0  0
  6 12  1  0  0  0  0
  6 11  1  0  0  0  0
  7  6  2  0  0  0  0
  8  7  1  0  0  0  0
  8  9  2  0  0  0  0
  9 10  1  0  0  0  0
 10 11  2  0  0  0  0
 10 14  1  0  0  0  0
 13  7  1  0  0  0  0
 15  2  1  0  0  0  0
 16 15  1  1  0  0  0
 17 16  1  0  0  0  0
 17 18  1  0  0  0  0
 19 20  1  0  0  0  0
 19 17  1  0  0  0  0
 21 19  1  0  0  0  0
 21 22  1  0  0  0  0
 22 16  1  0  0  0  0
 23 22  1  0  0  0  0
M  END
>  <minimizedAffinity>
-4.48863077

$$$$

 OpenBabel03272508093D

 23 24  0  0  1  0  0  0  0  0999 V2000
   39.0590   27.3250   33.5670 O   0  0  0  0  0  0  0  0  0  0  0  0
   38.3430   26.7770   34.7600 P   0  0  2  0  0  0  0  0  0  0  0  0
   38.8310   27.6240   36.1490 O   0  0  0  0  0  0  0  0  0  0  0  0
   39.7590   27.9690   35.9580 H   0  0  0  0  0  0  0  0  0  0  0  0
   38.5100   25.1080   34.9790 O   0  0  0  0  0  0  0  0  0  0  0  0
   38.3530   23.6640   38.3890 C   0  0  0  0  0  0  0  0  0  0  0  0
   37.9500   24.4510   37.3130 C   0  0  0  0  0  0  0  0  0  0  0  0
   38.7020   24.4360   36.1420 C   0  0  0  0  0  0  0  0  0  0  0  0
   39.8180   23.6350   36.1140 N   0  0  0  0  0  0  0  0  0  0  0  0
   40.1730   22.8880   37.1860 C   0  0  0  0  0  0  0  0  0  0  0  0
   39.4540   22.8990   38.3060 N   0  0  0  0  0  0  0  0  0  0  0  0
   37.6620   23.7910   39.2170 H   0  0  0  0  0  0  0  0  0  0  0  0
   37.0900   25.1020   37.2600 H   0  0  0  0  0  0  0  0  0  0  0  0
   41.0480   22.2510   37.1810 H   0  0  0  0  0  0  0  0  0  0  0  0
   36.6860   27.1180   34.5520 O   0  0  0  0  0  0  0  0  0  0  0  0
   36.5850   28.2280   33.7340 C   0  0  1  0  0  3  0  0  0  0  0  0
   35.8790   28.0000   32.4410 C   0  0  0  0  0  3  0  0  0  0  0  0
   35.3310   27.0140   32.4010 H   0  0  0  0  0  0  0  0  0  0  0  0
   34.8880   29.1540   32.3880 C   0  0  0  0  0  3  0  0  0  0  0  0
   33.8910   28.8790   32.7790 H   0  0  0  0  0  0  0  0  0  0  0  0
   35.4420   30.1190   33.2420 O   0  0  0  0  0  0  0  0  0  0  0  0
   35.7880   29.3440   34.3710 C   0  0  0  0  0  3  0  0  0  0  0  0
   36.4140   29.9920   35.0350 H   0  0  0  0  0  0  0  0  0  0  0  0
  2  1  2  6  0  0  0
  2  5  1  0  0  0  0
  2  3  1  0  0  0  0
  4  3  1  0  0  0  0
  5  8  1  0  0  0  0
  6 12  1  0  0  0  0
  7  6  2  0  0  0  0
  8  7  1  0  0  0  0
  9  8  2  0  0  0  0
  9 10  1  0  0  0  0
 10 11  2  0  0  0  0
 11  6  1  0  0  0  0
 13  7  1  0  0  0  0
 14 10  1  0  0  0  0
 15  2  1  0  0  0  0
 16 22  1  0  0  0  0
 16 15  1  1  0  0  0
 17 16  1  0  0  0  0
 18 17  1  0  0  0  0
 19 17  1  0  0  0  0
 19 20  1  0  0  0  0
 19 21  1  0  0  0  0
 21 22  1  0  0  0  0
 22 23  1  0  0  0  0
M  END
>  <minimizedAffinity>
-4.25332308

$$$$

 OpenBabel03272508093D

 23 24  0  0  1  0  0  0  0  0999 V2000
   36.6900   27.5720   34.8050 O   0  0  0  0  0  0  0  0  0  0  0  0
   37.9100   26.7750   35.1440 P   0  0  2  0  0  0  0  0  0  0  0  0
   38.7960   27.5850   36.3460 O   0  0  0  0  0  0  0  0  0  0  0  0
   38.5760   28.5650   36.2480 H   0  0  0  0  0  0  0  0  0  0  0  0
   38.8940   26.3930   33.8220 O   0  0  0  0  0  0  0  0  0  0  0  0
   42.2770   27.4730   32.7630 C   0  0  0  0  0  0  0  0  0  0  0  0
   40.8900   27.3690   32.7020 C   0  0  0  0  0  0  0  0  0  0  0  0
   40.2210   26.6320   33.6750 C   0  0  0  0  0  0  0  0  0  0  0  0
   40.9790   26.0390   34.6560 N   0  0  0  0  0  0  0  0  0  0  0  0
   42.3260   26.1660   34.6740 C   0  0  0  0  0  0  0  0  0  0  0  0
   42.9690   26.8710   33.7460 N   0  0  0  0  0  0  0  0  0  0  0  0
   42.6380   28.0770   31.9370 H   0  0  0  0  0  0  0  0  0  0  0  0
   40.2300   27.8050   31.9660 H   0  0  0  0  0  0  0  0  0  0  0  0
   42.9390   25.7060   35.4390 H   0  0  0  0  0  0  0  0  0  0  0  0
   37.3790   25.3160   35.8460 O   0  0  0  0  0  0  0  0  0  0  0  0
   38.3570   24.8950   36.7280 C   0  0  1  0  0  3  0  0  0  0  0  0
   37.8950   24.6690   38.1260 C   0  0  0  0  0  3  0  0  0  0  0  0
   36.7710   24.6590   38.2270 H   0  0  0  0  0  0  0  0  0  0  0  0
   38.4640   23.2960   38.4550 C   0  0  0  0  0  3  0  0  0  0  0  0
   37.7410   22.4800   38.2710 H   0  0  0  0  0  0  0  0  0  0  0  0
   39.5310   23.1460   37.5580 O   0  0  0  0  0  0  0  0  0  0  0  0
   38.9480   23.5570   36.3400 C   0  0  0  0  0  3  0  0  0  0  0  0
   39.7770   23.6560   35.5940 H   0  0  0  0  0  0  0  0  0  0  0  0
  2  1  2  6  0  0  0
  2 15  1  0  0  0  0
  2  3  1  0  0  0  0
  4  3  1  0  0  0  0
  5  2  1  0  0  0  0
  6 11  1  0  0  0  0
  7  6  2  0  0  0  0
  7  8  1  0  0  0  0
  8  5  1  0  0  0  0
  8  9  2  0  0  0  0
  9 10  1  0  0  0  0
 10 14  1  0  0  0  0
 11 10  2  0  0  0  0
 12  6  1  0  0  0  0
 13  7  1  0  0  0  0
 16 15  1  6  0  0  0
 16 17  1  0  0  0  0
 17 18  1  0  0  0  0
 17 19  1  0  0  0  0
 20 19  1  0  0  0  0
 21 19  1  0  0  0  0
 22 16  1  0  0  0  0
 22 21  1  0  0  0  0
 23 22  1  0  0  0  0
M  END
>  <minimizedAffinity>
-4.02213049

$$$$

 OpenBabel03272508093D

 23 24  0  0  1  0  0  0  0  0999 V2000
   36.5840   27.6590   34.9090 O   0  0  0  0  0  0  0  0  0  0  0  0
   37.7700   26.7670   35.1000 P   0  0  2  0  0  0  0  0  0  0  0  0
   38.9020   27.5420   36.1020 O   0  0  0  0  0  0  0  0  0  0  0  0
   38.7530   28.5330   35.9840 H   0  0  0  0  0  0  0  0  0  0  0  0
   38.4950   26.2390   33.6650 O   0  0  0  0  0  0  0  0  0  0  0  0
   37.8030   23.3160   31.4930 C   0  0  0  0  0  0  0  0  0  0  0  0
   38.4750   24.0630   32.4590 C   0  0  0  0  0  0  0  0  0  0  0  0
   38.0140   25.3380   32.7730 C   0  0  0  0  0  0  0  0  0  0  0  0
   36.9050   25.7950   32.1020 N   0  0  0  0  0  0  0  0  0  0  0  0
   36.2850   25.0340   31.1700 C   0  0  0  0  0  0  0  0  0  0  0  0
   36.7240   23.8140   30.8680 N   0  0  0  0  0  0  0  0  0  0  0  0
   38.2890   22.3530   31.3690 H   0  0  0  0  0  0  0  0  0  0  0  0
   39.3480   23.7720   33.0250 H   0  0  0  0  0  0  0  0  0  0  0  0
   35.4110   25.3780   30.6320 H   0  0  0  0  0  0  0  0  0  0  0  0
   37.2360   25.3950   35.9570 O   0  0  0  0  0  0  0  0  0  0  0  0
   38.3070   24.9120   36.6850 C   0  0  1  0  0  3  0  0  0  0  0  0
   38.0360   24.6790   38.1320 C   0  0  0  0  0  3  0  0  0  0  0  0
   36.9390   24.7190   38.3920 H   0  0  0  0  0  0  0  0  0  0  0  0
   38.5790   23.2750   38.3580 C   0  0  0  0  0  3  0  0  0  0  0  0
   37.8000   22.4970   38.2680 H   0  0  0  0  0  0  0  0  0  0  0  0
   39.5010   23.0940   37.3160 O   0  0  0  0  0  0  0  0  0  0  0  0
   38.7720   23.5570   36.1990 C   0  0  0  0  0  3  0  0  0  0  0  0
   39.4910   23.6320   35.3450 H   0  0  0  0  0  0  0  0  0  0  0  0
  2  1  2  6  0  0  0
  2 15  1  0  0  0  0
  2  3  1  0  0  0  0
  4  3  1  0  0  0  0
  5  2  1  0  0  0  0
  6  7  1  0  0  0  0
  7  8  2  0  0  0  0
  7 13  1  0  0  0  0
  8  5  1  0  0  0  0
  9  8  1  0  0  0  0
 10  9  2  0  0  0  0
 11 10  1  0  0  0  0
 11  6  2  0  0  0  0
 12  6  1  0  0  0  0
 14 10  1  0  0  0  0
 16 15  1  6  0  0  0
 16 17  1  0  0  0  0
 17 19  1  0  0  0  0
 17 18  1  0  0  0  0
 20 19  1  0  0  0  0
 21 19  1  0  0  0  0
 22 16  1  0  0  0  0
 22 21  1  0  0  0  0
 23 22  1  0  0  0  0
M  END
>  <minimizedAffinity>
-4.02010918

$$$$

 OpenBabel03272508093D

 23 24  0  0  1  0  0  0  0  0999 V2000
   34.1590   28.9050   32.6070 O   0  0  0  0  0  0  0  0  0  0  0  0
   35.4950   29.2640   33.1740 P   0  0  2  0  0  0  0  0  0  0  0  0
   36.6500   29.2790   31.9290 O   0  0  0  0  0  0  0  0  0  0  0  0
   36.3120   28.6450   31.2210 H   0  0  0  0  0  0  0  0  0  0  0  0
   36.0030   28.2860   34.4590 O   0  0  0  0  0  0  0  0  0  0  0  0
   39.2240   26.7430   35.4490 C   0  0  0  0  0  0  0  0  0  0  0  0
   38.1090   27.5680   35.5730 C   0  0  0  0  0  0  0  0  0  0  0  0
   37.1550   27.5770   34.5600 C   0  0  0  0  0  0  0  0  0  0  0  0
   37.3700   26.7580   33.4770 N   0  0  0  0  0  0  0  0  0  0  0  0
   38.4710   25.9730   33.3990 C   0  0  0  0  0  0  0  0  0  0  0  0
   39.3840   25.9620   34.3670 N   0  0  0  0  0  0  0  0  0  0  0  0
   39.8640   26.8550   36.3190 H   0  0  0  0  0  0  0  0  0  0  0  0
   37.8720   28.2350   36.3890 H   0  0  0  0  0  0  0  0  0  0  0  0
   38.6570   25.3220   32.5550 H   0  0  0  0  0  0  0  0  0  0  0  0
   35.3870   30.8670   33.7430 O   0  0  0  0  0  0  0  0  0  0  0  0
   35.1850   30.8140   35.1100 C   0  0  1  0  0  3  0  0  0  0  0  0
   36.0250   31.7480   35.9110 C   0  0  0  0  0  3  0  0  0  0  0  0
   36.5510   32.5240   35.2830 H   0  0  0  0  0  0  0  0  0  0  0  0
   35.0100   32.4160   36.8280 C   0  0  0  0  0  3  0  0  0  0  0  0
   34.6370   33.3750   36.4260 H   0  0  0  0  0  0  0  0  0  0  0  0
   33.9380   31.5120   36.8670 O   0  0  0  0  0  0  0  0  0  0  0  0
   33.7740   31.1970   35.5000 C   0  0  0  0  0  3  0  0  0  0  0  0
   33.0650   30.3330   35.4440 H   0  0  0  0  0  0  0  0  0  0  0  0
  2  1  2  6  0  0  0
  2 15  1  0  0  0  0
  2  5  1  0  0  0  0
  3  2  1  0  0  0  0
  4  3  1  0  0  0  0
  5  8  1  0  0  0  0
  6  7  1  0  0  0  0
  6 12  1  0  0  0  0
  7 13  1  0  0  0  0
  8  7  2  0  0  0  0
  9  8  1  0  0  0  0
 10  9  2  0  0  0  0
 10 11  1  0  0  0  0
 11  6  2  0  0  0  0
 14 10  1  0  0  0  0
 16 15  1  6  0  0  0
 16 22  1  0  0  0  0
 16 17  1  0  0  0  0
 17 19  1  0  0  0  0
 18 17  1  0  0  0  0
 19 21  1  0  0  0  0
 20 19  1  0  0  0  0
 22 21  1  0  0  0  0
 23 22  1  0  0  0  0
M  END
>  <minimizedAffinity>
-3.95405459

$$$$

 OpenBabel03272508093D

 23 24  0  0  1  0  0  0  0  0999 V2000
   40.5780   24.8460   33.4160 O   0  0  0  0  0  0  0  0  0  0  0  0
   39.1860   25.3590   33.6090 P   0  0  2  0  0  0  0  0  0  0  0  0
   39.2470   26.9840   34.0970 O   0  0  0  0  0  0  0  0  0  0  0  0
   40.1340   27.1080   34.5610 H   0  0  0  0  0  0  0  0  0  0  0  0
   38.2370   24.4440   34.6700 O   0  0  0  0  0  0  0  0  0  0  0  0
   39.7460   22.8390   37.6500 C   0  0  0  0  0  0  0  0  0  0  0  0
   39.6090   23.1620   36.3020 C   0  0  0  0  0  0  0  0  0  0  0  0
   38.5680   23.9960   35.9070 C   0  0  0  0  0  0  0  0  0  0  0  0
   37.7200   24.4610   36.8840 N   0  0  0  0  0  0  0  0  0  0  0  0
   37.8920   24.1190   38.1820 C   0  0  0  0  0  0  0  0  0  0  0  0
   38.8880   23.3220   38.5630 N   0  0  0  0  0  0  0  0  0  0  0  0
   40.6020   22.1840   37.7860 H   0  0  0  0  0  0  0  0  0  0  0  0
   40.2320   22.8380   35.4810 H   0  0  0  0  0  0  0  0  0  0  0  0
   37.2350   24.4750   38.9650 H   0  0  0  0  0  0  0  0  0  0  0  0
   38.4290   25.3470   32.0820 O   0  0  0  0  0  0  0  0  0  0  0  0
   37.0830   25.1000   32.2830 C   0  0  1  0  0  3  0  0  0  0  0  0
   36.1610   26.1360   31.7380 C   0  0  0  0  0  3  0  0  0  0  0  0
   36.6710   26.8670   31.0460 H   0  0  0  0  0  0  0  0  0  0  0  0
   35.1390   25.3100   30.9690 C   0  0  0  0  0  3  0  0  0  0  0  0
   35.3860   25.2170   29.8960 H   0  0  0  0  0  0  0  0  0  0  0  0
   35.2240   24.0360   31.5490 O   0  0  0  0  0  0  0  0  0  0  0  0
   36.6210   23.8330   31.6000 C   0  0  0  0  0  3  0  0  0  0  0  0
   36.7980   22.9210   32.2250 H   0  0  0  0  0  0  0  0  0  0  0  0
  2  1  2  6  0  0  0
  2  3  1  0  0  0  0
  2  5  1  0  0  0  0
  3  4  1  0  0  0  0
  5  8  1  0  0  0  0
  6 12  1  0  0  0  0
  6 11  1  0  0  0  0
  7  6  2  0  0  0  0
  8  7  1  0  0  0  0
  8  9  2  0  0  0  0
  9 10  1  0  0  0  0
 10 11  2  0  0  0  0
 10 14  1  0  0  0  0
 13  7  1  0  0  0  0
 15  2  1  0  0  0  0
 16 15  1  6  0  0  0
 17 16  1  0  0  0  0
 18 17  1  0  0  0  0
 19 21  1  0  0  0  0
 19 17  1  0  0  0  0
 20 19  1  0  0  0  0
 21 22  1  0  0  0  0
 22 23  1  0  0  0  0
 22 16  1  0  0  0  0
M  END
>  <minimizedAffinity>
-3.93047094

$$$$

 OpenBabel03272508093D

 23 24  0  0  1  0  0  0  0  0999 V2000
   39.3980   27.2620   33.9360 O   0  0  0  0  0  0  0  0  0  0  0  0
   38.5600   26.7470   35.0630 P   0  0  2  0  0  0  0  0  0  0  0  0
   38.7110   27.7850   36.3980 O   0  0  0  0  0  0  0  0  0  0  0  0
   39.6130   28.2280   36.3120 H   0  0  0  0  0  0  0  0  0  0  0  0
   38.8770   25.1440   35.5030 O   0  0  0  0  0  0  0  0  0  0  0  0
   37.5670   22.4320   33.3430 C   0  0  0  0  0  0  0  0  0  0  0  0
   38.1390   23.6670   33.6420 C   0  0  0  0  0  0  0  0  0  0  0  0
   38.3450   24.0150   34.9730 C   0  0  0  0  0  0  0  0  0  0  0  0
   37.9660   23.1060   35.9330 N   0  0  0  0  0  0  0  0  0  0  0  0
   37.4120   21.9180   35.5950 C   0  0  0  0  0  0  0  0  0  0  0  0
   37.2150   21.5830   34.3220 N   0  0  0  0  0  0  0  0  0  0  0  0
   37.4770   22.3200   32.2670 H   0  0  0  0  0  0  0  0  0  0  0  0
   38.4610   24.4280   32.9460 H   0  0  0  0  0  0  0  0  0  0  0  0
   37.1070   21.1910   36.3360 H   0  0  0  0  0  0  0  0  0  0  0  0
   36.9330   26.8440   34.5660 O   0  0  0  0  0  0  0  0  0  0  0  0
   36.8150   27.9380   33.7290 C   0  0  1  0  0  3  0  0  0  0  0  0
   36.2090   27.6540   32.3970 C   0  0  0  0  0  3  0  0  0  0  0  0
   35.7290   26.6350   32.3340 H   0  0  0  0  0  0  0  0  0  0  0  0
   35.1520   28.7420   32.2660 C   0  0  0  0  0  3  0  0  0  0  0  0
   34.1520   28.4070   32.5960 H   0  0  0  0  0  0  0  0  0  0  0  0
   35.5870   29.7480   33.1410 O   0  0  0  0  0  0  0  0  0  0  0  0
   35.9090   29.0060   34.2990 C   0  0  0  0  0  3  0  0  0  0  0  0
   36.4480   29.6980   34.9940 H   0  0  0  0  0  0  0  0  0  0  0  0
  2  1  2  6  0  0  0
  2  5  1  0  0  0  0
  2  3  1  0  0  0  0
  4  3  1  0  0  0  0
  6  7  2  0  0  0  0
  6 11  1  0  0  0  0
  7  8  1  0  0  0  0
  8  5  1  0  0  0  0
  8  9  2  0  0  0  0
 10  9  1  0  0  0  0
 10 14  1  0  0  0  0
 11 10  2  0  0  0  0
 12  6  1  0  0  0  0
 13  7  1  0  0  0  0
 15  2  1  0  0  0  0
 16 22  1  0  0  0  0
 16 15  1  1  0  0  0
 17 16  1  0  0  0  0
 18 17  1  0  0  0  0
 19 17  1  0  0  0  0
 19 20  1  0  0  0  0
 19 21  1  0  0  0  0
 21 22  1  0  0  0  0
 22 23  1  0  0  0  0
M  END
>  <minimizedAffinity>
-3.91830349

$$$$

 OpenBabel03272508093D

 23 24  0  0  1  0  0  0  0  0999 V2000
   34.8180   25.0250   30.5080 O   0  0  0  0  0  0  0  0  0  0  0  0
   36.0270   24.6100   31.2840 P   0  0  2  0  0  0  0  0  0  0  0  0
   37.3240   24.3580   30.2170 O   0  0  0  0  0  0  0  0  0  0  0  0
   36.9150   24.1110   29.3280 H   0  0  0  0  0  0  0  0  0  0  0  0
   35.7980   23.2650   32.2850 O   0  0  0  0  0  0  0  0  0  0  0  0
   35.0640   19.6600   31.8380 C   0  0  0  0  0  0  0  0  0  0  0  0
   34.9130   20.9410   32.3630 C   0  0  0  0  0  0  0  0  0  0  0  0
   35.7550   21.9580   31.9250 C   0  0  0  0  0  0  0  0  0  0  0  0
   36.7050   21.6350   30.9850 N   0  0  0  0  0  0  0  0  0  0  0  0
   36.8160   20.3750   30.5040 C   0  0  0  0  0  0  0  0  0  0  0  0
   36.0110   19.4010   30.9210 N   0  0  0  0  0  0  0  0  0  0  0  0
   34.3340   18.9910   32.2830 H   0  0  0  0  0  0  0  0  0  0  0  0
   34.1940   21.2690   33.0990 H   0  0  0  0  0  0  0  0  0  0  0  0
   37.5580   20.1020   29.7640 H   0  0  0  0  0  0  0  0  0  0  0  0
   36.4700   25.9290   32.2690 O   0  0  0  0  0  0  0  0  0  0  0  0
   36.3500   27.0780   31.5090 C   0  0  1  0  0  3  0  0  0  0  0  0
   35.4880   28.1410   32.0990 C   0  0  0  0  0  3  0  0  0  0  0  0
   35.2300   27.9540   33.1820 H   0  0  0  0  0  0  0  0  0  0  0  0
   36.3530   29.3880   31.9730 C   0  0  0  0  0  3  0  0  0  0  0  0
   36.9360   29.5970   32.8890 H   0  0  0  0  0  0  0  0  0  0  0  0
   37.2530   29.0760   30.9440 O   0  0  0  0  0  0  0  0  0  0  0  0
   37.6750   27.7790   31.3100 C   0  0  0  0  0  3  0  0  0  0  0  0
   38.2530   27.3650   30.4450 H   0  0  0  0  0  0  0  0  0  0  0  0
  2  1  2  6  0  0  0
  2 15  1  0  0  0  0
  2  5  1  0  0  0  0
  3  2  1  0  0  0  0
  4  3  1  0  0  0  0
  6 12  1  0  0  0  0
  6  7  1  0  0  0  0
  7 13  1  0  0  0  0
  8  5  1  0  0  0  0
  8  7  2  0  0  0  0
  9  8  1  0  0  0  0
 10 11  1  0  0  0  0
 10  9  2  0  0  0  0
 11  6  2  0  0  0  0
 14 10  1  0  0  0  0
 16 17  1  0  0  0  0
 16 15  1  1  0  0  0
 17 18  1  0  0  0  0
 19 17  1  0  0  0  0
 19 20  1  0  0  0  0
 21 22  1  0  0  0  0
 21 19  1  0  0  0  0
 22 16  1  0  0  0  0
 23 22  1  0  0  0  0
M  END
>  <minimizedAffinity>
-3.88453865

$$$$

 OpenBabel03272508093D

 23 24  0  0  1  0  0  0  0  0999 V2000
   40.2470   21.7500   34.4360 O   0  0  0  0  0  0  0  0  0  0  0  0
   39.1140   22.5920   34.9320 P   0  0  2  0  0  0  0  0  0  0  0  0
   38.2950   21.7640   36.1670 O   0  0  0  0  0  0  0  0  0  0  0  0
   38.4440   20.7810   35.9970 H   0  0  0  0  0  0  0  0  0  0  0  0
   38.0380   23.1070   33.7320 O   0  0  0  0  0  0  0  0  0  0  0  0
   35.5500   21.6480   31.4050 C   0  0  0  0  0  0  0  0  0  0  0  0
   36.5350   22.5340   31.8340 C   0  0  0  0  0  0  0  0  0  0  0  0
   37.0820   22.3790   33.1040 C   0  0  0  0  0  0  0  0  0  0  0  0
   36.6110   21.3430   33.8760 N   0  0  0  0  0  0  0  0  0  0  0  0
   35.6510   20.5070   33.4170 C   0  0  0  0  0  0  0  0  0  0  0  0
   35.1270   20.6530   32.2020 N   0  0  0  0  0  0  0  0  0  0  0  0
   35.2340   21.9080   30.3990 H   0  0  0  0  0  0  0  0  0  0  0  0
   36.9540   23.3670   31.2870 H   0  0  0  0  0  0  0  0  0  0  0  0
   35.2680   19.6860   34.0100 H   0  0  0  0  0  0  0  0  0  0  0  0
   39.7960   23.9750   35.6570 O   0  0  0  0  0  0  0  0  0  0  0  0
   39.1400   25.0810   35.1500 C   0  0  1  0  0  3  0  0  0  0  0  0
   38.1650   25.7210   36.0790 C   0  0  0  0  0  3  0  0  0  0  0  0
   38.2560   25.3520   37.1410 H   0  0  0  0  0  0  0  0  0  0  0  0
   38.5390   27.1950   36.0000 C   0  0  0  0  0  3  0  0  0  0  0  0
   39.2360   27.5010   36.8010 H   0  0  0  0  0  0  0  0  0  0  0  0
   39.2050   27.3130   34.7720 O   0  0  0  0  0  0  0  0  0  0  0  0
   40.0870   26.2110   34.8120 C   0  0  0  0  0  3  0  0  0  0  0  0
   40.5310   26.1060   33.7900 H   0  0  0  0  0  0  0  0  0  0  0  0
  2  1  2  6  0  0  0
  2 15  1  0  0  0  0
  2  3  1  0  0  0  0
  4  3  1  0  0  0  0
  5  2  1  0  0  0  0
  6  7  2  0  0  0  0
  6 11  1  0  0  0  0
  7  8  1  0  0  0  0
  8  5  1  0  0  0  0
  8  9  2  0  0  0  0
 10  9  1  0  0  0  0
 10 14  1  0  0  0  0
 11 10  2  0  0  0  0
 12  6  1  0  0  0  0
 13  7  1  0  0  0  0
 16 15  1  1  0  0  0
 16 17  1  0  0  0  0
 17 18  1  0  0  0  0
 19 17  1  0  0  0  0
 19 20  1  0  0  0  0
 21 22  1  0  0  0  0
 21 19  1  0  0  0  0
 22 16  1  0  0  0  0
 23 22  1  0  0  0  0
M  END
>  <minimizedAffinity>
-3.87413335

$$$$
