
 OpenBabel03272508283D

 37 40  0  0  1  0  0  0  0  0999 V2000
   33.9740   28.9570   47.3350 C   0  0  2  0  0  0  0  0  0  0  0  0
   34.7120   28.2210   48.4430 C   0  0  2  0  0  0  0  0  0  0  0  0
   33.8020   28.0690   49.4520 O   0  0  0  0  0  0  0  0  0  0  0  0
   32.5340   28.1140   48.9660 C   0  0  0  0  0  0  0  0  0  0  0  0
   32.6030   28.2830   47.4640 C   0  0  1  0  0  0  0  0  0  0  0  0
   33.8010   30.0090   47.5730 H   0  0  0  0  0  0  0  0  0  0  0  0
   35.0140   27.2480   47.9840 H   0  0  0  0  0  0  0  0  0  0  0  0
   31.9590   27.2190   49.2630 H   0  0  0  0  0  0  0  0  0  0  0  0
   32.0350   29.0250   49.3960 H   0  0  0  0  0  0  0  0  0  0  0  0
   32.6740   27.2840   46.9890 H   0  0  0  0  0  0  0  0  0  0  0  0
   35.7640   30.5060   49.0400 C   0  0  1  0  0  0  0  0  0  0  0  0
   35.8620   29.0770   48.8590 C   0  0  1  0  0  0  0  0  0  0  0  0
   35.9960   29.5960   50.2540 C   0  0  0  0  0  0  0  0  0  0  0  0
   34.8580   31.1100   49.1990 H   0  0  0  0  0  0  0  0  0  0  0  0
   36.8390   28.7000   48.4360 H   0  0  0  0  0  0  0  0  0  0  0  0
   35.1430   29.3660   50.9170 H   0  0  0  0  0  0  0  0  0  0  0  0
   36.9720   29.6170   50.7600 H   0  0  0  0  0  0  0  0  0  0  0  0
   36.9550   31.4140   48.7850 C   0  0  0  0  0  0  0  0  0  0  0  0
   37.1750   32.4560   49.6870 C   0  0  0  0  0  0  0  0  0  0  0  0
   38.2620   33.2690   49.3920 C   0  0  0  0  0  0  0  0  0  0  0  0
   39.0410   33.0350   48.2840 N   0  0  0  0  0  0  0  0  0  0  0  0
   38.7860   32.0100   47.4400 C   0  0  0  0  0  0  0  0  0  0  0  0
   37.7340   31.1930   47.6940 N   0  0  0  0  0  0  0  0  0  0  0  0
   36.5350   32.5930   50.5340 H   0  0  0  0  0  0  0  0  0  0  0  0
   38.4660   34.0900   50.0680 H   0  0  0  0  0  0  0  0  0  0  0  0
   39.4310   31.8760   46.5880 H   0  0  0  0  0  0  0  0  0  0  0  0
   34.5190   28.7580   46.0800 O   0  0  0  0  0  0  0  0  0  0  0  0
   34.5150   27.7820   45.9020 H   0  0  0  0  0  0  0  0  0  0  0  0
   31.6080   29.0580   46.9340 O   0  0  0  0  0  0  0  0  0  0  0  0
   30.8730   28.4510   45.9370 C   0  0  2  0  0  3  0  0  0  0  0  0
   31.2820   27.0040   45.7170 C   0  0  0  0  0  3  0  0  0  0  0  0
   30.6930   26.2870   46.2850 H   0  0  0  0  0  0  0  0  0  0  0  0
   30.9170   26.8500   44.2490 C   0  0  0  0  0  3  0  0  0  0  0  0
   29.8440   26.5400   44.1540 H   0  0  0  0  0  0  0  0  0  0  0  0
   31.1570   28.0670   43.6420 O   0  0  0  0  0  0  0  0  0  0  0  0
   31.2780   29.0470   44.6140 C   0  0  0  0  0  3  0  0  0  0  0  0
   30.7530   29.9910   44.3670 H   0  0  0  0  0  0  0  0  0  0  0  0
  1  5  1  0  0  0  0
  1  6  1  1  0  0  0
  1  2  1  0  0  0  0
  2  7  1  6  0  0  0
  2 12  1  0  0  0  0
  2  3  1  0  0  0  0
  4  8  1  0  0  0  0
  4  9  1  0  0  0  0
  4  3  1  0  0  0  0
  5 10  1  6  0  0  0
  5  4  1  0  0  0  0
 11 14  1  6  0  0  0
 11 13  1  0  0  0  0
 12 15  1  6  0  0  0
 12 11  1  0  0  0  0
 12 13  1  0  0  0  0
 13 17  1  0  0  0  0
 13 16  1  0  0  0  0
 18 11  1  0  0  0  0
 18 19  1  0  0  0  0
 19 24  1  0  0  0  0
 20 19  2  0  0  0  0
 20 25  1  0  0  0  0
 21 20  1  0  0  0  0
 22 23  1  0  0  0  0
 22 21  2  0  0  0  0
 23 18  2  0  0  0  0
 26 22  1  0  0  0  0
 27  1  1  0  0  0  0
 28 27  1  0  0  0  0
 29  5  1  0  0  0  0
 30 29  1  1  0  0  0
 31 30  1  0  0  0  0
 31 32  1  0  0  0  0
 33 31  1  0  0  0  0
 34 33  1  0  0  0  0
 35 33  1  0  0  0  0
 35 36  1  0  0  0  0
 36 30  1  0  0  0  0
 37 36  1  0  0  0  0
M  END
>  <minimizedAffinity>
-4.67768717

>  <minimizedRMSD>
0.338727087

$$$$
