
 OpenBabel03272506443D

 31 33  0  0  1  0  0  0  0  0999 V2000
   32.2430   28.1840   47.5840 C   0  0  2  0  0  0  0  0  0  0  0  0
   33.5150   28.1910   48.4070 C   0  0  1  0  0  0  0  0  0  0  0  0
   34.0920   26.9490   48.2850 O   0  0  0  0  0  0  0  0  0  0  0  0
   33.4200   26.2320   47.3230 C   0  0  0  0  0  0  0  0  0  0  0  0
   32.6840   27.2540   46.4620 C   0  0  1  0  0  0  0  0  0  0  0  0
   31.3960   27.7100   48.0850 H   0  0  0  0  0  0  0  0  0  0  0  0
   33.3240   28.4260   49.4680 H   0  0  0  0  0  0  0  0  0  0  0  0
   34.0520   25.5580   46.7440 H   0  0  0  0  0  0  0  0  0  0  0  0
   32.5990   25.6880   47.8740 H   0  0  0  0  0  0  0  0  0  0  0  0
   33.3590   27.7850   45.7610 H   0  0  0  0  0  0  0  0  0  0  0  0
   31.9570   29.4700   47.1030 O   0  0  0  0  0  0  0  0  0  0  0  0
   32.5030   29.6320   46.2910 H   0  0  0  0  0  0  0  0  0  0  0  0
   34.6350   29.3950   47.6270 S   0  0  0  0  0  0  0  0  0  0  0  0
   37.2810   29.3120   50.5780 C   0  0  0  0  0  0  0  0  0  0  0  0
   37.7470   30.6140   50.6910 C   0  0  0  0  0  0  0  0  0  0  0  0
   37.2250   31.5700   49.8190 C   0  0  0  0  0  0  0  0  0  0  0  0
   36.2990   31.1820   48.9150 N   0  0  0  0  0  0  0  0  0  0  0  0
   35.8600   29.8960   48.8270 C   0  0  0  0  0  0  0  0  0  0  0  0
   36.3490   28.9450   49.6610 N   0  0  0  0  0  0  0  0  0  0  0  0
   37.6950   28.5830   51.2630 H   0  0  0  0  0  0  0  0  0  0  0  0
   38.4710   30.9580   51.3870 H   0  0  0  0  0  0  0  0  0  0  0  0
   37.5670   32.5950   49.8810 H   0  0  0  0  0  0  0  0  0  0  0  0
   31.6020   26.6600   45.8280 O   0  0  0  0  0  0  0  0  0  0  0  0
   31.7070   26.6460   44.4610 C   0  0  1  0  0  3  0  0  0  0  0  0
   32.6940   27.7100   44.0200 C   0  0  0  0  0  3  0  0  0  0  0  0
   32.1910   28.6640   43.7780 H   0  0  0  0  0  0  0  0  0  0  0  0
   33.2330   27.0540   42.7440 C   0  0  0  0  0  3  0  0  0  0  0  0
   34.1860   27.4970   42.4480 H   0  0  0  0  0  0  0  0  0  0  0  0
   33.4800   25.7660   43.2240 O   0  0  0  0  0  0  0  0  0  0  0  0
   32.3060   25.4040   43.8750 C   0  0  0  0  0  3  0  0  0  0  0  0
   32.5700   24.6520   44.6470 H   0  0  0  0  0  0  0  0  0  0  0  0
  1  6  1  1  0  0  0
  1  2  1  0  0  0  0
  2  7  1  1  0  0  0
  3  2  1  0  0  0  0
  4  9  1  0  0  0  0
  4  3  1  0  0  0  0
  5 10  1  6  0  0  0
  5  4  1  0  0  0  0
  5  1  1  0  0  0  0
  8  4  1  0  0  0  0
 11  1  1  0  0  0  0
 12 11  1  0  0  0  0
 13  2  1  0  0  0  0
 13 18  1  0  0  0  0
 14 15  1  0  0  0  0
 14 20  1  0  0  0  0
 15 21  1  0  0  0  0
 16 22  1  0  0  0  0
 16 15  2  0  0  0  0
 17 16  1  0  0  0  0
 18 17  2  0  0  0  0
 18 19  1  0  0  0  0
 19 14  2  0  0  0  0
 23  5  1  0  0  0  0
 24 23  1  1  0  0  0
 25 24  1  0  0  0  0
 26 25  1  0  0  0  0
 27 29  1  0  0  0  0
 27 25  1  0  0  0  0
 28 27  1  0  0  0  0
 29 30  1  0  0  0  0
 30 24  1  0  0  0  0
 30 31  1  0  0  0  0
M  END
>  <minimizedAffinity>
-3.69188547

>  <minimizedRMSD>
0.660947382

$$$$
