
 OpenBabel03272508093D

 23 24  0  0  1  0  0  0  0  0999 V2000
   39.1190   32.6370   48.0580 O   0  0  0  0  0  0  0  0  0  0  0  0
   38.6190   31.6560   47.0460 P   0  0  2  0  0  0  0  0  0  0  0  0
   37.5760   32.4460   45.9620 O   0  0  0  0  0  0  0  0  0  0  0  0
   37.1860   33.2290   46.4640 H   0  0  0  0  0  0  0  0  0  0  0  0
   37.8830   30.2800   47.6990 O   0  0  0  0  0  0  0  0  0  0  0  0
   37.3340   30.1850   51.3630 C   0  0  0  0  0  0  0  0  0  0  0  0
   37.9960   30.4870   50.1750 C   0  0  0  0  0  0  0  0  0  0  0  0
   37.4310   30.0990   48.9650 C   0  0  0  0  0  0  0  0  0  0  0  0
   36.2320   29.4280   49.0100 N   0  0  0  0  0  0  0  0  0  0  0  0
   35.6260   29.1540   50.1890 C   0  0  0  0  0  0  0  0  0  0  0  0
   36.1640   29.5250   51.3480 N   0  0  0  0  0  0  0  0  0  0  0  0
   37.9060   30.5550   52.2080 H   0  0  0  0  0  0  0  0  0  0  0  0
   38.9350   31.0100   50.0610 H   0  0  0  0  0  0  0  0  0  0  0  0
   34.6820   28.6260   50.2440 H   0  0  0  0  0  0  0  0  0  0  0  0
   39.9630   31.1490   46.1290 O   0  0  0  0  0  0  0  0  0  0  0  0
   39.5590   31.0510   44.8110 C   0  0  1  0  0  3  0  0  0  0  0  0
   40.5990   31.4030   43.8020 C   0  0  0  0  0  3  0  0  0  0  0  0
   41.6330   31.4870   44.2410 H   0  0  0  0  0  0  0  0  0  0  0  0
   40.5340   30.2330   42.8280 C   0  0  0  0  0  3  0  0  0  0  0  0
   41.2750   29.4460   43.0580 H   0  0  0  0  0  0  0  0  0  0  0  0
   39.2530   29.6980   43.0210 O   0  0  0  0  0  0  0  0  0  0  0  0
   39.1720   29.6400   44.4300 C   0  0  0  0  0  3  0  0  0  0  0  0
   38.1080   29.4030   44.6880 H   0  0  0  0  0  0  0  0  0  0  0  0
  2  5  1  0  0  0  0
  2  1  2  1  0  0  0
  3  4  1  0  0  0  0
  3  2  1  0  0  0  0
  5  8  1  0  0  0  0
  6 12  1  0  0  0  0
  7  6  2  0  0  0  0
  8  9  2  0  0  0  0
  8  7  1  0  0  0  0
  9 10  1  0  0  0  0
 10 14  1  0  0  0  0
 10 11  2  0  0  0  0
 11  6  1  0  0  0  0
 13  7  1  0  0  0  0
 15  2  1  0  0  0  0
 16 15  1  1  0  0  0
 17 18  1  0  0  0  0
 17 16  1  0  0  0  0
 19 21  1  0  0  0  0
 19 20  1  0  0  0  0
 19 17  1  0  0  0  0
 21 22  1  0  0  0  0
 22 23  1  0  0  0  0
 22 16  1  0  0  0  0
M  END
>  <minimizedAffinity>
-4.96430349

>  <minimizedRMSD>
0.650684297

$$$$
