
 OpenBabel03262523383D

 44 47  0  0  1  0  0  0  0  0999 V2000
   35.2410   30.2430   49.9860 C   0  0  2  0  0  0  0  0  0  0  0  0
   36.1780   31.1830   49.3150 C   0  0  0  0  0  0  0  0  0  0  0  0
   37.6250   30.7000   49.3290 C   0  0  2  0  0  0  0  0  0  0  0  0
   38.0800   30.6120   50.7690 C   0  0  0  0  0  0  0  0  0  0  0  0
   37.0890   29.8570   51.6300 C   0  0  0  0  0  0  0  0  0  0  0  0
   35.9920   29.2190   50.8110 C   0  0  0  0  0  0  0  0  0  0  0  0
   34.5210   30.7550   50.6890 H   0  0  0  0  0  0  0  0  0  0  0  0
   36.2230   32.0910   50.0200 H   0  0  0  0  0  0  0  0  0  0  0  0
   35.9800   31.5900   48.3640 H   0  0  0  0  0  0  0  0  0  0  0  0
   37.5950   29.6440   48.9950 H   0  0  0  0  0  0  0  0  0  0  0  0
   38.3930   31.5710   51.2030 H   0  0  0  0  0  0  0  0  0  0  0  0
   39.0190   29.9880   50.7510 H   0  0  0  0  0  0  0  0  0  0  0  0
   37.5280   29.1500   52.3260 H   0  0  0  0  0  0  0  0  0  0  0  0
   36.5680   30.6280   52.2590 H   0  0  0  0  0  0  0  0  0  0  0  0
   36.3760   28.3930   50.1780 H   0  0  0  0  0  0  0  0  0  0  0  0
   35.2730   28.7820   51.5280 H   0  0  0  0  0  0  0  0  0  0  0  0
   38.4940   31.4530   48.4260 C   0  0  2  0  0  0  0  0  0  0  0  0
   38.7500   32.9000   48.8290 C   0  0  0  0  0  0  0  0  0  0  0  0
   39.4710   33.3380   47.5420 C   0  0  0  0  0  0  0  0  0  0  0  0
   38.7260   32.7850   46.5300 O   0  0  0  0  0  0  0  0  0  0  0  0
   38.0690   31.6480   47.0290 C   0  0  1  0  0  0  0  0  0  0  0  0
   39.4970   30.9780   48.4230 H   0  0  0  0  0  0  0  0  0  0  0  0
   39.4290   32.9000   49.6840 H   0  0  0  0  0  0  0  0  0  0  0  0
   37.8280   33.4760   48.9850 H   0  0  0  0  0  0  0  0  0  0  0  0
   39.5630   34.4250   47.4920 H   0  0  0  0  0  0  0  0  0  0  0  0
   40.4590   32.8160   47.6010 H   0  0  0  0  0  0  0  0  0  0  0  0
   37.0040   31.8380   46.8410 H   0  0  0  0  0  0  0  0  0  0  0  0
   38.4630   30.5450   46.0680 C   0  0  2  0  0  0  0  0  0  0  0  0
   39.8390   30.8650   45.5090 C   0  0  0  0  0  0  0  0  0  0  0  0
   40.6570   30.3970   46.0870 H   0  0  0  0  0  0  0  0  0  0  0  0
   39.7480   30.3940   44.0820 C   0  0  0  0  0  0  0  0  0  0  0  0
   40.3970   29.4960   43.9770 H   0  0  0  0  0  0  0  0  0  0  0  0
   38.4540   30.0190   43.8040 O   0  0  0  0  0  0  0  0  0  0  0  0
   37.6350   30.4980   44.8130 C   0  0  0  0  0  0  0  0  0  0  0  0
   36.8310   29.7550   44.9660 H   0  0  0  0  0  0  0  0  0  0  0  0
   34.3880   29.5010   49.0340 C   0  0  0  0  0  0  0  0  0  0  0  0
   34.3440   30.0150   47.7380 C   0  0  0  0  0  0  0  0  0  0  0  0
   33.5820   29.3570   46.7960 C   0  0  0  0  0  0  0  0  0  0  0  0
   32.8920   28.2170   47.1710 N   0  0  0  0  0  0  0  0  0  0  0  0
   32.9580   27.7420   48.4500 C   0  0  0  0  0  0  0  0  0  0  0  0
   33.6980   28.3910   49.3380 N   0  0  0  0  0  0  0  0  0  0  0  0
   34.7540   30.8460   47.1890 H   0  0  0  0  0  0  0  0  0  0  0  0
   33.3750   29.5240   45.7610 H   0  0  0  0  0  0  0  0  0  0  0  0
   32.4340   26.8620   48.7610 H   0  0  0  0  0  0  0  0  0  0  0  0
  1  7  1  1  0  0  0
  1  6  1  0  0  0  0
  2  3  1  0  0  0  0
  2  1  1  0  0  0  0
  2  8  1  0  0  0  0
  3 10  1  6  0  0  0
  3  4  1  0  0  0  0
  4 11  1  0  0  0  0
  4  5  1  0  0  0  0
  5 14  1  0  0  0  0
  5 13  1  0  0  0  0
  6 16  1  0  0  0  0
  6  5  1  0  0  0  0
  9  2  1  0  0  0  0
 12  4  1  0  0  0  0
 15  6  1  0  0  0  0
 17 22  1  6  0  0  0
 17 18  1  0  0  0  0
 17  3  1  0  0  0  0
 18 24  1  0  0  0  0
 18 23  1  0  0  0  0
 19 26  1  0  0  0  0
 19 18  1  0  0  0  0
 20 21  1  0  0  0  0
 20 19  1  0  0  0  0
 21 27  1  6  0  0  0
 21 17  1  0  0  0  0
 25 19  1  0  0  0  0
 28 34  1  6  0  0  0
 28 21  1  0  0  0  0
 29 28  1  0  0  0  0
 29 30  1  0  0  0  0
 31 29  1  0  0  0  0
 32 31  1  0  0  0  0
 33 31  1  0  0  0  0
 33 34  1  0  0  0  0
 34 35  1  0  0  0  0
 36 41  1  0  0  0  0
 36  1  1  0  0  0  0
 37 36  2  0  0  0  0
 38 39  2  0  0  0  0
 38 37  1  0  0  0  0
 39 40  1  0  0  0  0
 40 44  1  0  0  0  0
 40 41  2  0  0  0  0
 42 37  1  0  0  0  0
 43 38  1  0  0  0  0
M  END
>  <minimizedAffinity>
-6.9414463

>  <minimizedRMSD>
0.907889187

$$$$
