
 OpenBabel03272507513D

 27 29  0  0  1  0  0  0  0  0999 V2000
   36.5550   29.6680   49.3930 C   0  0  0  0  0  0  0  0  0  0  0  0
   36.5020   30.6350   48.3760 C   0  0  0  0  0  0  0  0  0  0  0  0
   35.4990   30.4720   47.4080 C   0  0  0  0  0  0  0  0  0  0  0  0
   34.6520   29.4180   47.4990 N   0  0  0  0  0  0  0  0  0  0  0  0
   34.7310   28.5130   48.4840 C   0  0  0  0  0  0  0  0  0  0  0  0
   35.6900   28.6410   49.4360 N   0  0  0  0  0  0  0  0  0  0  0  0
   35.4640   31.2200   46.6280 H   0  0  0  0  0  0  0  0  0  0  0  0
   33.9940   27.7240   48.4360 H   0  0  0  0  0  0  0  0  0  0  0  0
   37.4430   31.6950   48.3860 N   0  0  0  0  0  0  0  0  0  0  0  0
   37.4700   32.6090   49.3620 C   0  0  0  0  0  0  0  0  0  0  0  0
   38.4150   33.6360   49.3400 C   0  0  0  0  0  0  0  0  0  0  0  0
   39.2560   33.5860   48.2580 C   0  0  0  0  0  0  0  0  0  0  0  0
   40.1340   34.5150   48.2110 O   0  0  0  0  0  0  0  0  0  0  0  0
   39.2590   32.6930   47.2660 N   0  0  0  0  0  0  0  0  0  0  0  0
   38.3130   31.7190   47.3470 C   0  0  0  0  0  0  0  0  0  0  0  0
   38.3030   30.8630   46.4100 O   0  0  0  0  0  0  0  0  0  0  0  0
   36.7650   32.5890   50.1940 H   0  0  0  0  0  0  0  0  0  0  0  0
   38.4910   34.4050   50.0980 H   0  0  0  0  0  0  0  0  0  0  0  0
   39.9530   32.7580   46.4900 H   0  0  0  0  0  0  0  0  0  0  0  0
   37.5370   29.6760   50.4750 C   0  0  2  0  0  3  0  0  0  0  0  0
   38.0860   28.2830   50.7690 C   0  0  0  0  0  3  0  0  0  0  0  0
   39.0770   28.1500   50.2980 H   0  0  0  0  0  0  0  0  0  0  0  0
   38.2680   28.3350   52.2650 C   0  0  0  0  0  3  0  0  0  0  0  0
   37.5390   27.6960   52.8180 H   0  0  0  0  0  0  0  0  0  0  0  0
   38.0080   29.6580   52.6590 O   0  0  0  0  0  0  0  0  0  0  0  0
   36.9420   30.0370   51.8160 C   0  0  0  0  0  3  0  0  0  0  0  0
   36.7630   31.1180   51.9350 H   0  0  0  0  0  0  0  0  0  0  0  0
  1  6  1  0  0  0  0
  2  9  1  0  0  0  0
  2  1  2  0  0  0  0
  3  4  2  0  0  0  0
  3  2  1  0  0  0  0
  4  5  1  0  0  0  0
  5  6  2  0  0  0  0
  7  3  1  0  0  0  0
  8  5  1  0  0  0  0
  9 10  1  0  0  0  0
 10 17  1  0  0  0  0
 11 10  2  0  0  0  0
 11 18  1  0  0  0  0
 12 11  1  0  0  0  0
 13 12  2  0  0  0  0
 14 15  1  0  0  0  0
 14 12  1  0  0  0  0
 15  9  1  0  0  0  0
 16 15  2  0  0  0  0
 19 14  1  0  0  0  0
 20  1  1  6  0  0  0
 20 21  1  0  0  0  0
 20 26  1  0  0  0  0
 21 23  1  0  0  0  0
 22 21  1  0  0  0  0
 23 25  1  0  0  0  0
 23 24  1  0  0  0  0
 26 27  1  0  0  0  0
 26 25  1  0  0  0  0
M  END
>  <minimizedAffinity>
-3.9771452

>  <minimizedRMSD>
0.880734026

$$$$
