
 OpenBabel03272501393D

 44 48  0  0  1  0  0  0  0  0999 V2000
   37.5580   30.6860   50.7180 C   0  0  0  0  0  0  0  0  0  0  0  0
   38.3030   31.3630   49.7740 C   0  0  0  0  0  0  0  0  0  0  0  0
   37.9450   31.3960   48.4200 C   0  0  0  0  0  0  0  0  0  0  0  0
   36.8600   30.7570   48.0730 N   0  0  0  0  0  0  0  0  0  0  0  0
   36.1300   30.0870   49.0220 C   0  0  0  0  0  0  0  0  0  0  0  0
   36.4690   30.0530   50.3060 N   0  0  0  0  0  0  0  0  0  0  0  0
   37.8500   30.6720   51.7510 H   0  0  0  0  0  0  0  0  0  0  0  0
   39.1960   31.8740   50.1580 H   0  0  0  0  0  0  0  0  0  0  0  0
   34.9100   29.3720   48.6560 C   0  0  0  0  0  0  0  0  0  0  0  0
   34.1220   28.4980   49.3550 C   0  0  0  0  0  0  0  0  0  0  0  0
   33.0230   27.9570   48.8020 C   0  0  0  0  0  0  0  0  0  0  0  0
   32.7580   28.3560   47.4780 C   0  0  0  0  0  0  0  0  0  0  0  0
   34.1170   29.5060   47.0780 S   0  0  0  0  0  0  0  0  0  0  0  0
   34.4460   28.2770   50.3720 H   0  0  0  0  0  0  0  0  0  0  0  0
   32.3480   27.2630   49.2790 H   0  0  0  0  0  0  0  0  0  0  0  0
   31.6900   28.0150   46.5220 C   0  0  2  0  0  0  0  0  0  0  0  0
   30.8130   29.2000   46.1820 C   0  0  0  0  0  0  0  0  0  0  0  0
   31.3860   30.1160   46.4650 H   0  0  0  0  0  0  0  0  0  0  0  0
   29.6420   29.0730   47.1000 C   0  0  0  0  0  0  0  0  0  0  0  0
   29.5800   29.9250   47.8370 H   0  0  0  0  0  0  0  0  0  0  0  0
   29.7880   27.9160   47.8460 O   0  0  0  0  0  0  0  0  0  0  0  0
   30.7200   27.1070   47.2200 C   0  0  0  0  0  0  0  0  0  0  0  0
   31.1900   26.4170   47.9380 H   0  0  0  0  0  0  0  0  0  0  0  0
   38.8810   32.0630   47.5580 C   0  0  1  0  0  0  0  0  0  0  0  0
   39.8630   31.7420   48.0950 H   0  0  0  0  0  0  0  0  0  0  0  0
   38.9970   31.5300   46.1460 C   0  0  2  0  0  0  0  0  0  0  0  0
   40.4610   31.1420   45.9440 C   0  0  0  0  0  0  0  0  0  0  0  0
   39.7950   32.2250   45.1670 C   0  0  1  0  0  0  0  0  0  0  0  0
   38.2350   30.7980   45.8660 H   0  0  0  0  0  0  0  0  0  0  0  0
   40.6030   30.1510   45.4810 H   0  0  0  0  0  0  0  0  0  0  0  0
   41.2770   31.4830   46.5750 H   0  0  0  0  0  0  0  0  0  0  0  0
   39.9450   33.3000   45.3910 H   0  0  0  0  0  0  0  0  0  0  0  0
   39.7740   31.9770   43.7190 C   0  0  0  0  0  0  0  0  0  0  0  0
   39.0920   32.8680   42.9330 C   0  0  0  0  0  0  0  0  0  0  0  0
   39.1100   32.6280   41.5790 C   0  0  0  0  0  0  0  0  0  0  0  0
   39.7600   31.5680   41.0000 C   0  0  0  0  0  0  0  0  0  0  0  0
   40.4320   30.6970   41.8220 C   0  0  0  0  0  0  0  0  0  0  0  0
   40.4310   30.9080   43.1530 N   0  0  0  0  0  0  0  0  0  0  0  0
   38.5660   33.7190   43.3600 H   0  0  0  0  0  0  0  0  0  0  0  0
   38.5930   33.2900   40.9010 H   0  0  0  0  0  0  0  0  0  0  0  0
   39.7780   31.3770   39.9560 H   0  0  0  0  0  0  0  0  0  0  0  0
   40.9870   29.8220   41.5180 H   0  0  0  0  0  0  0  0  0  0  0  0
   39.1180   33.3460   47.6560 O   0  0  0  0  0  0  0  0  0  0  0  0
   38.4150   33.9970   47.4120 H   0  0  0  0  0  0  0  0  0  0  0  0
  1  7  1  0  0  0  0
  2  8  1  0  0  0  0
  2  1  2  0  0  0  0
  3  2  1  0  0  0  0
  4  3  2  0  0  0  0
  4  5  1  0  0  0  0
  5  6  2  0  0  0  0
  6  1  1  0  0  0  0
  9  5  1  0  0  0  0
  9 10  2  0  0  0  0
 10 14  1  0  0  0  0
 11 15  1  0  0  0  0
 11 10  1  0  0  0  0
 12 11  2  0  0  0  0
 13 12  1  0  0  0  0
 13  9  1  0  0  0  0
 16 22  1  0  0  0  0
 16 12  1  1  0  0  0
 17 18  1  0  0  0  0
 17 16  1  0  0  0  0
 17 19  1  0  0  0  0
 19 20  1  0  0  0  0
 19 21  1  0  0  0  0
 22 21  1  0  0  0  0
 22 23  1  0  0  0  0
 24 43  1  0  0  0  0
 24 25  1  1  0  0  0
 24  3  1  0  0  0  0
 26 29  1  6  0  0  0
 26 24  1  0  0  0  0
 27 26  1  0  0  0  0
 27 31  1  0  0  0  0
 28 32  1  1  0  0  0
 28 27  1  0  0  0  0
 28 26  1  0  0  0  0
 30 27  1  0  0  0  0
 33 28  1  0  0  0  0
 34 39  1  0  0  0  0
 34 33  2  0  0  0  0
 35 34  1  0  0  0  0
 36 35  2  0  0  0  0
 36 37  1  0  0  0  0
 37 38  2  0  0  0  0
 38 33  1  0  0  0  0
 40 35  1  0  0  0  0
 41 36  1  0  0  0  0
 42 37  1  0  0  0  0
 44 43  1  0  0  0  0
M  END
>  <minimizedAffinity>
-6.71969557

>  <minimizedRMSD>
0.677388668

$$$$
