
 OpenBabel03272500033D

 27 29  0  0  1  0  0  0  0  0999 V2000
   38.3510   26.8500   35.7550 C   0  0  0  0  0  0  0  0  0  0  0  0
   38.3690   25.5850   35.1330 C   0  0  0  0  0  0  0  0  0  0  0  0
   37.6750   25.4430   33.9260 C   0  0  0  0  0  0  0  0  0  0  0  0
   37.0260   26.5240   33.4160 N   0  0  0  0  0  0  0  0  0  0  0  0
   37.0250   27.7170   34.0290 C   0  0  0  0  0  0  0  0  0  0  0  0
   37.6820   27.8880   35.1910 N   0  0  0  0  0  0  0  0  0  0  0  0
   38.8760   26.9980   36.6910 H   0  0  0  0  0  0  0  0  0  0  0  0
   37.6960   24.4720   33.4600 H   0  0  0  0  0  0  0  0  0  0  0  0
   39.0890   24.5390   35.7760 N   0  0  0  0  0  0  0  0  0  0  0  0
   40.3560   24.2440   35.4420 C   0  0  0  0  0  0  0  0  0  0  0  0
   41.0360   23.2190   36.0860 C   0  0  0  0  0  0  0  0  0  0  0  0
   40.2910   22.5800   37.0520 C   0  0  0  0  0  0  0  0  0  0  0  0
   40.8900   21.6330   37.6620 O   0  0  0  0  0  0  0  0  0  0  0  0
   39.0330   22.8470   37.4110 N   0  0  0  0  0  0  0  0  0  0  0  0
   38.4220   23.8620   36.7440 C   0  0  0  0  0  0  0  0  0  0  0  0
   37.2370   24.1320   37.0610 O   0  0  0  0  0  0  0  0  0  0  0  0
   40.8740   24.7980   34.6660 H   0  0  0  0  0  0  0  0  0  0  0  0
   42.0470   22.9320   35.8670 H   0  0  0  0  0  0  0  0  0  0  0  0
   38.5500   22.3020   38.1620 H   0  0  0  0  0  0  0  0  0  0  0  0
   36.3110   28.8980   33.4630 C   0  0  2  0  0  3  0  0  0  0  0  0
   35.6110   29.7230   34.4930 C   0  0  0  0  0  3  0  0  0  0  0  0
   35.9960   29.3820   35.4830 H   0  0  0  0  0  0  0  0  0  0  0  0
   34.1670   29.2980   34.3980 C   0  0  0  0  0  3  0  0  0  0  0  0
   33.5010   30.0970   34.7520 H   0  0  0  0  0  0  0  0  0  0  0  0
   34.0150   29.0790   33.0440 O   0  0  0  0  0  0  0  0  0  0  0  0
   35.1510   28.4650   32.5730 C   0  0  0  0  0  3  0  0  0  0  0  0
   35.3530   28.8240   31.5460 H   0  0  0  0  0  0  0  0  0  0  0  0
  1  7  1  0  0  0  0
  2  1  2  0  0  0  0
  2  9  1  0  0  0  0
  3  2  1  0  0  0  0
  4  3  2  0  0  0  0
  4  5  1  0  0  0  0
  5  6  2  0  0  0  0
  6  1  1  0  0  0  0
  8  3  1  0  0  0  0
  9 15  1  0  0  0  0
 10  9  1  0  0  0  0
 10 11  2  0  0  0  0
 11 12  1  0  0  0  0
 12 14  1  0  0  0  0
 12 13  2  0  0  0  0
 14 19  1  0  0  0  0
 15 16  2  0  0  0  0
 15 14  1  0  0  0  0
 17 10  1  0  0  0  0
 18 11  1  0  0  0  0
 20  5  1  1  0  0  0
 20 21  1  0  0  0  0
 21 22  1  0  0  0  0
 23 21  1  0  0  0  0
 23 24  1  0  0  0  0
 25 23  1  0  0  0  0
 26 25  1  0  0  0  0
 26 20  1  0  0  0  0
 27 26  1  0  0  0  0
M  END
>  <minimizedAffinity>
-5.12310314

$$$$

 OpenBabel03272500033D

 27 29  0  0  1  0  0  0  0  0999 V2000
   38.2980   24.4260   32.6560 C   0  0  0  0  0  0  0  0  0  0  0  0
   37.9120   25.7580   32.9130 C   0  0  0  0  0  0  0  0  0  0  0  0
   37.6470   26.1160   34.2390 C   0  0  0  0  0  0  0  0  0  0  0  0
   37.7770   25.1690   35.2080 N   0  0  0  0  0  0  0  0  0  0  0  0
   38.1460   23.9080   34.9360 C   0  0  0  0  0  0  0  0  0  0  0  0
   38.4080   23.5310   33.6710 N   0  0  0  0  0  0  0  0  0  0  0  0
   38.5100   24.1130   31.6410 H   0  0  0  0  0  0  0  0  0  0  0  0
   37.3530   27.1360   34.4230 H   0  0  0  0  0  0  0  0  0  0  0  0
   37.8160   26.6460   31.8040 N   0  0  0  0  0  0  0  0  0  0  0  0
   38.8540   27.4060   31.4160 C   0  0  0  0  0  0  0  0  0  0  0  0
   38.7330   28.2640   30.3310 C   0  0  0  0  0  0  0  0  0  0  0  0
   37.4900   28.2400   29.7390 C   0  0  0  0  0  0  0  0  0  0  0  0
   37.3490   29.0190   28.7380 O   0  0  0  0  0  0  0  0  0  0  0  0
   36.4380   27.4990   30.0970 N   0  0  0  0  0  0  0  0  0  0  0  0
   36.6200   26.6790   31.1660 C   0  0  0  0  0  0  0  0  0  0  0  0
   35.6460   25.9710   31.5250 O   0  0  0  0  0  0  0  0  0  0  0  0
   39.8030   27.3660   31.9380 H   0  0  0  0  0  0  0  0  0  0  0  0
   39.5210   28.8970   29.9700 H   0  0  0  0  0  0  0  0  0  0  0  0
   35.5300   27.5510   29.5810 H   0  0  0  0  0  0  0  0  0  0  0  0
   38.2860   22.8760   36.0030 C   0  0  2  0  0  3  0  0  0  0  0  0
   37.4130   23.1220   37.1900 C   0  0  0  0  0  3  0  0  0  0  0  0
   36.6800   23.9040   36.8830 H   0  0  0  0  0  0  0  0  0  0  0  0
   38.3330   23.7390   38.2130 C   0  0  0  0  0  3  0  0  0  0  0  0
   37.9610   23.5590   39.2310 H   0  0  0  0  0  0  0  0  0  0  0  0
   39.5170   23.0660   37.9860 O   0  0  0  0  0  0  0  0  0  0  0  0
   39.6760   22.9150   36.6280 C   0  0  0  0  0  3  0  0  0  0  0  0
   40.1700   21.9440   36.4310 H   0  0  0  0  0  0  0  0  0  0  0  0
  1  2  2  0  0  0  0
  1  6  1  0  0  0  0
  2  3  1  0  0  0  0
  3  8  1  0  0  0  0
  3  4  2  0  0  0  0
  5  4  1  0  0  0  0
  6  5  2  0  0  0  0
  7  1  1  0  0  0  0
  9  2  1  0  0  0  0
 10  9  1  0  0  0  0
 10 17  1  0  0  0  0
 11 10  2  0  0  0  0
 12 14  1  0  0  0  0
 12 11  1  0  0  0  0
 13 12  2  0  0  0  0
 14 15  1  0  0  0  0
 15 16  2  0  0  0  0
 15  9  1  0  0  0  0
 18 11  1  0  0  0  0
 19 14  1  0  0  0  0
 20  5  1  6  0  0  0
 20 26  1  0  0  0  0
 20 21  1  0  0  0  0
 21 23  1  0  0  0  0
 22 21  1  0  0  0  0
 23 24  1  0  0  0  0
 25 23  1  0  0  0  0
 26 25  1  0  0  0  0
 27 26  1  0  0  0  0
M  END
>  <minimizedAffinity>
-5.01164818

$$$$

 OpenBabel03272500033D

 27 29  0  0  1  0  0  0  0  0999 V2000
   37.9500   24.5170   33.6210 C   0  0  0  0  0  0  0  0  0  0  0  0
   38.5060   24.9810   34.8300 C   0  0  0  0  0  0  0  0  0  0  0  0
   38.2540   26.3080   35.1960 C   0  0  0  0  0  0  0  0  0  0  0  0
   37.4890   27.0760   34.3750 N   0  0  0  0  0  0  0  0  0  0  0  0
   36.9720   26.6080   33.2280 C   0  0  0  0  0  0  0  0  0  0  0  0
   37.1950   25.3380   32.8470 N   0  0  0  0  0  0  0  0  0  0  0  0
   38.1240   23.4950   33.3050 H   0  0  0  0  0  0  0  0  0  0  0  0
   38.6840   26.6520   36.1220 H   0  0  0  0  0  0  0  0  0  0  0  0
   39.2870   24.0690   35.5940 N   0  0  0  0  0  0  0  0  0  0  0  0
   40.5960   23.8850   35.3530 C   0  0  0  0  0  0  0  0  0  0  0  0
   41.3350   22.9890   36.1140 C   0  0  0  0  0  0  0  0  0  0  0  0
   40.6010   22.3510   37.0880 C   0  0  0  0  0  0  0  0  0  0  0  0
   41.2550   21.5200   37.8050 O   0  0  0  0  0  0  0  0  0  0  0  0
   39.3030   22.5090   37.3570 N   0  0  0  0  0  0  0  0  0  0  0  0
   38.6350   23.4010   36.5770 C   0  0  0  0  0  0  0  0  0  0  0  0
   37.4110   23.5680   36.8080 O   0  0  0  0  0  0  0  0  0  0  0  0
   41.1020   24.4300   34.5630 H   0  0  0  0  0  0  0  0  0  0  0  0
   42.3810   22.7950   35.9730 H   0  0  0  0  0  0  0  0  0  0  0  0
   38.8330   21.9750   38.1240 H   0  0  0  0  0  0  0  0  0  0  0  0
   36.1340   27.4580   32.3330 C   0  0  2  0  0  3  0  0  0  0  0  0
   36.6540   27.5460   30.9350 C   0  0  0  0  0  3  0  0  0  0  0  0
   37.4280   26.7490   30.8380 H   0  0  0  0  0  0  0  0  0  0  0  0
   37.3630   28.8760   30.8810 C   0  0  0  0  0  3  0  0  0  0  0  0
   37.3960   29.2590   29.8520 H   0  0  0  0  0  0  0  0  0  0  0  0
   36.5670   29.6660   31.6860 O   0  0  0  0  0  0  0  0  0  0  0  0
   36.1680   28.9180   32.7690 C   0  0  0  0  0  3  0  0  0  0  0  0
   35.1410   29.2170   33.0520 H   0  0  0  0  0  0  0  0  0  0  0  0
  1  2  1  0  0  0  0
  2  3  2  0  0  0  0
  2  9  1  0  0  0  0
  3  8  1  0  0  0  0
  4  3  1  0  0  0  0
  5  4  2  0  0  0  0
  6  5  1  0  0  0  0
  6  1  2  0  0  0  0
  7  1  1  0  0  0  0
  9 15  1  0  0  0  0
 10  9  1  0  0  0  0
 10 11  2  0  0  0  0
 11 12  1  0  0  0  0
 12 14  1  0  0  0  0
 12 13  2  0  0  0  0
 14 19  1  0  0  0  0
 15 16  2  0  0  0  0
 15 14  1  0  0  0  0
 17 10  1  0  0  0  0
 18 11  1  0  0  0  0
 20 26  1  0  0  0  0
 20  5  1  1  0  0  0
 21 20  1  0  0  0  0
 22 21  1  0  0  0  0
 23 21  1  0  0  0  0
 23 25  1  0  0  0  0
 24 23  1  0  0  0  0
 25 26  1  0  0  0  0
 26 27  1  0  0  0  0
M  END
>  <minimizedAffinity>
-4.88554382

$$$$

 OpenBabel03272500033D

 27 29  0  0  1  0  0  0  0  0999 V2000
   35.7110   24.8650   31.0930 C   0  0  0  0  0  0  0  0  0  0  0  0
   36.4790   23.9820   31.8790 C   0  0  0  0  0  0  0  0  0  0  0  0
   37.3440   24.5380   32.8270 C   0  0  0  0  0  0  0  0  0  0  0  0
   37.3990   25.8920   32.9440 N   0  0  0  0  0  0  0  0  0  0  0  0
   36.6560   26.7100   32.1830 C   0  0  0  0  0  0  0  0  0  0  0  0
   35.8140   26.2080   31.2620 N   0  0  0  0  0  0  0  0  0  0  0  0
   35.0290   24.4700   30.3490 H   0  0  0  0  0  0  0  0  0  0  0  0
   37.9260   23.8540   33.4220 H   0  0  0  0  0  0  0  0  0  0  0  0
   36.3230   22.5850   31.6520 N   0  0  0  0  0  0  0  0  0  0  0  0
   35.2760   21.9020   32.1460 C   0  0  0  0  0  0  0  0  0  0  0  0
   35.1480   20.5390   31.9090 C   0  0  0  0  0  0  0  0  0  0  0  0
   36.1680   20.0090   31.1530 C   0  0  0  0  0  0  0  0  0  0  0  0
   36.0770   18.7570   30.9180 O   0  0  0  0  0  0  0  0  0  0  0  0
   37.2200   20.6560   30.6460 N   0  0  0  0  0  0  0  0  0  0  0  0
   37.2890   21.9880   30.9120 C   0  0  0  0  0  0  0  0  0  0  0  0
   38.2700   22.6210   30.4480 O   0  0  0  0  0  0  0  0  0  0  0  0
   34.5120   22.3970   32.7350 H   0  0  0  0  0  0  0  0  0  0  0  0
   34.3380   19.9360   32.2740 H   0  0  0  0  0  0  0  0  0  0  0  0
   37.9470   20.1610   30.0790 H   0  0  0  0  0  0  0  0  0  0  0  0
   36.7220   28.1940   32.3170 C   0  0  2  0  0  3  0  0  0  0  0  0
   35.8710   28.7330   33.4200 C   0  0  0  0  0  3  0  0  0  0  0  0
   35.5700   27.8570   34.0400 H   0  0  0  0  0  0  0  0  0  0  0  0
   34.6340   29.2450   32.7250 C   0  0  0  0  0  3  0  0  0  0  0  0
   34.1520   30.0340   33.3180 H   0  0  0  0  0  0  0  0  0  0  0  0
   35.1460   29.7440   31.5450 O   0  0  0  0  0  0  0  0  0  0  0  0
   36.1220   28.8840   31.0970 C   0  0  0  0  0  3  0  0  0  0  0  0
   36.9200   29.4730   30.6060 H   0  0  0  0  0  0  0  0  0  0  0  0
  1  6  2  0  0  0  0
  1  2  1  0  0  0  0
  2  3  2  0  0  0  0
  3  4  1  0  0  0  0
  3  8  1  0  0  0  0
  5  4  2  0  0  0  0
  6  5  1  0  0  0  0
  7  1  1  0  0  0  0
  9  2  1  0  0  0  0
  9 10  1  0  0  0  0
 10 17  1  0  0  0  0
 11 10  2  0  0  0  0
 11 18  1  0  0  0  0
 12 11  1  0  0  0  0
 13 12  2  0  0  0  0
 14 15  1  0  0  0  0
 14 12  1  0  0  0  0
 15  9  1  0  0  0  0
 16 15  2  0  0  0  0
 19 14  1  0  0  0  0
 20  5  1  6  0  0  0
 20 21  1  0  0  0  0
 21 22  1  0  0  0  0
 23 24  1  0  0  0  0
 23 21  1  0  0  0  0
 25 23  1  0  0  0  0
 26 25  1  0  0  0  0
 26 20  1  0  0  0  0
 27 26  1  0  0  0  0
M  END
>  <minimizedAffinity>
-4.69849396

$$$$

 OpenBabel03272500033D

 27 29  0  0  1  0  0  0  0  0999 V2000
   35.2940   25.7720   30.9580 C   0  0  0  0  0  0  0  0  0  0  0  0
   36.1190   26.6990   31.6280 C   0  0  0  0  0  0  0  0  0  0  0  0
   37.2150   26.1980   32.3400 C   0  0  0  0  0  0  0  0  0  0  0  0
   37.4290   24.8550   32.3480 N   0  0  0  0  0  0  0  0  0  0  0  0
   36.6280   23.9960   31.7000 C   0  0  0  0  0  0  0  0  0  0  0  0
   35.5660   24.4430   31.0060 N   0  0  0  0  0  0  0  0  0  0  0  0
   34.4360   26.1230   30.3960 H   0  0  0  0  0  0  0  0  0  0  0  0
   37.8380   26.9150   32.8490 H   0  0  0  0  0  0  0  0  0  0  0  0
   35.7790   28.0780   31.5370 N   0  0  0  0  0  0  0  0  0  0  0  0
   34.9480   28.6600   32.4170 C   0  0  0  0  0  0  0  0  0  0  0  0
   34.6330   30.0090   32.3050 C   0  0  0  0  0  0  0  0  0  0  0  0
   35.2430   30.6340   31.2410 C   0  0  0  0  0  0  0  0  0  0  0  0
   34.9720   31.8750   31.1120 O   0  0  0  0  0  0  0  0  0  0  0  0
   36.0730   30.0880   30.3490 N   0  0  0  0  0  0  0  0  0  0  0  0
   36.3420   28.7660   30.5130 C   0  0  0  0  0  0  0  0  0  0  0  0
   37.1200   28.2270   29.6870 O   0  0  0  0  0  0  0  0  0  0  0  0
   34.5070   28.0950   33.2300 H   0  0  0  0  0  0  0  0  0  0  0  0
   33.9770   30.5340   32.9720 H   0  0  0  0  0  0  0  0  0  0  0  0
   36.4890   30.6510   29.5710 H   0  0  0  0  0  0  0  0  0  0  0  0
   36.8690   22.5240   31.7130 C   0  0  2  0  0  3  0  0  0  0  0  0
   35.6860   21.7200   31.2820 C   0  0  0  0  0  3  0  0  0  0  0  0
   34.9700   22.4400   30.8200 H   0  0  0  0  0  0  0  0  0  0  0  0
   35.0720   21.2340   32.5710 C   0  0  0  0  0  3  0  0  0  0  0  0
   34.5010   20.3110   32.4060 H   0  0  0  0  0  0  0  0  0  0  0  0
   36.1830   21.0050   33.3570 O   0  0  0  0  0  0  0  0  0  0  0  0
   37.0880   22.0150   33.1340 C   0  0  0  0  0  3  0  0  0  0  0  0
   38.1120   21.5990   33.1960 H   0  0  0  0  0  0  0  0  0  0  0  0
  1  6  2  0  0  0  0
  1  2  1  0  0  0  0
  2  3  2  0  0  0  0
  3  4  1  0  0  0  0
  3  8  1  0  0  0  0
  5  4  2  0  0  0  0
  6  5  1  0  0  0  0
  7  1  1  0  0  0  0
  9  2  1  0  0  0  0
  9 10  1  0  0  0  0
 10 17  1  0  0  0  0
 11 10  2  0  0  0  0
 11 18  1  0  0  0  0
 12 11  1  0  0  0  0
 13 12  2  0  0  0  0
 14 15  1  0  0  0  0
 14 12  1  0  0  0  0
 15  9  1  0  0  0  0
 16 15  2  0  0  0  0
 19 14  1  0  0  0  0
 20  5  1  1  0  0  0
 20 26  1  0  0  0  0
 21 20  1  0  0  0  0
 21 23  1  0  0  0  0
 22 21  1  0  0  0  0
 23 25  1  0  0  0  0
 24 23  1  0  0  0  0
 26 27  1  0  0  0  0
 26 25  1  0  0  0  0
M  END
>  <minimizedAffinity>
-4.6946907

$$$$

 OpenBabel03272500033D

 27 29  0  0  1  0  0  0  0  0999 V2000
   36.2680   28.3450   34.4610 C   0  0  0  0  0  0  0  0  0  0  0  0
   35.4280   29.3860   34.0160 C   0  0  0  0  0  0  0  0  0  0  0  0
   35.0360   29.3770   32.6730 C   0  0  0  0  0  0  0  0  0  0  0  0
   35.4790   28.3720   31.8710 N   0  0  0  0  0  0  0  0  0  0  0  0
   36.2790   27.3930   32.3210 C   0  0  0  0  0  0  0  0  0  0  0  0
   36.6740   27.3720   33.6070 N   0  0  0  0  0  0  0  0  0  0  0  0
   36.5930   28.3200   35.4950 H   0  0  0  0  0  0  0  0  0  0  0  0
   34.3940   30.1770   32.3440 H   0  0  0  0  0  0  0  0  0  0  0  0
   35.0390   30.3750   34.9630 N   0  0  0  0  0  0  0  0  0  0  0  0
   35.8980   31.3100   35.4020 C   0  0  0  0  0  0  0  0  0  0  0  0
   35.4910   32.2640   36.3270 C   0  0  0  0  0  0  0  0  0  0  0  0
   34.1760   32.1370   36.7130 C   0  0  0  0  0  0  0  0  0  0  0  0
   33.7740   33.0010   37.5620 O   0  0  0  0  0  0  0  0  0  0  0  0
   33.2950   31.2230   36.2970 N   0  0  0  0  0  0  0  0  0  0  0  0
   33.7540   30.3180   35.3930 C   0  0  0  0  0  0  0  0  0  0  0  0
   32.9460   29.4470   34.9860 O   0  0  0  0  0  0  0  0  0  0  0  0
   36.9220   31.3410   35.0470 H   0  0  0  0  0  0  0  0  0  0  0  0
   36.1260   33.0360   36.7180 H   0  0  0  0  0  0  0  0  0  0  0  0
   32.3110   31.2100   36.6520 H   0  0  0  0  0  0  0  0  0  0  0  0
   36.7610   26.2940   31.4360 C   0  0  2  0  0  3  0  0  0  0  0  0
   35.6620   25.5720   30.7270 C   0  0  0  0  0  3  0  0  0  0  0  0
   34.7460   26.1950   30.8520 H   0  0  0  0  0  0  0  0  0  0  0  0
   35.4640   24.3090   31.5270 C   0  0  0  0  0  3  0  0  0  0  0  0
   35.0340   23.5150   30.9010 H   0  0  0  0  0  0  0  0  0  0  0  0
   36.7530   24.0020   31.9130 O   0  0  0  0  0  0  0  0  0  0  0  0
   37.3960   25.1710   32.2480 C   0  0  0  0  0  3  0  0  0  0  0  0
   38.4590   25.0920   31.9540 H   0  0  0  0  0  0  0  0  0  0  0  0
  1  7  1  0  0  0  0
  2  1  1  0  0  0  0
  2  9  1  0  0  0  0
  3  2  2  0  0  0  0
  4  5  2  0  0  0  0
  4  3  1  0  0  0  0
  5  6  1  0  0  0  0
  6  1  2  0  0  0  0
  8  3  1  0  0  0  0
  9 15  1  0  0  0  0
  9 10  1  0  0  0  0
 10 11  2  0  0  0  0
 11 12  1  0  0  0  0
 11 18  1  0  0  0  0
 12 13  2  0  0  0  0
 14 19  1  0  0  0  0
 14 12  1  0  0  0  0
 15 14  1  0  0  0  0
 16 15  2  0  0  0  0
 17 10  1  0  0  0  0
 20 26  1  0  0  0  0
 20  5  1  1  0  0  0
 21 22  1  0  0  0  0
 21 20  1  0  0  0  0
 21 23  1  0  0  0  0
 23 25  1  0  0  0  0
 24 23  1  0  0  0  0
 25 26  1  0  0  0  0
 27 26  1  0  0  0  0
M  END
>  <minimizedAffinity>
-4.63957644

$$$$

 OpenBabel03272500033D

 27 29  0  0  1  0  0  0  0  0999 V2000
   37.4320   25.1510   33.4330 C   0  0  0  0  0  0  0  0  0  0  0  0
   37.9040   25.6180   34.6770 C   0  0  0  0  0  0  0  0  0  0  0  0
   37.6980   26.9670   34.9870 C   0  0  0  0  0  0  0  0  0  0  0  0
   37.0580   27.7530   34.0800 N   0  0  0  0  0  0  0  0  0  0  0  0
   36.6190   27.2830   32.9030 C   0  0  0  0  0  0  0  0  0  0  0  0
   36.8000   25.9910   32.5740 N   0  0  0  0  0  0  0  0  0  0  0  0
   37.5730   24.1120   33.1590 H   0  0  0  0  0  0  0  0  0  0  0  0
   38.0630   27.3120   35.9400 H   0  0  0  0  0  0  0  0  0  0  0  0
   38.5570   24.6860   35.5320 N   0  0  0  0  0  0  0  0  0  0  0  0
   37.9200   24.1050   36.5630 C   0  0  0  0  0  0  0  0  0  0  0  0
   38.5820   23.1990   37.3810 C   0  0  0  0  0  0  0  0  0  0  0  0
   39.8940   22.9830   37.0240 C   0  0  0  0  0  0  0  0  0  0  0  0
   40.5280   22.1540   37.7580 O   0  0  0  0  0  0  0  0  0  0  0  0
   40.5570   23.5400   36.0080 N   0  0  0  0  0  0  0  0  0  0  0  0
   39.8550   24.4180   35.2440 C   0  0  0  0  0  0  0  0  0  0  0  0
   40.4560   24.9580   34.2810 O   0  0  0  0  0  0  0  0  0  0  0  0
   36.8810   24.3300   36.7780 H   0  0  0  0  0  0  0  0  0  0  0  0
   38.1330   22.7010   38.2190 H   0  0  0  0  0  0  0  0  0  0  0  0
   41.5600   23.3100   35.8160 H   0  0  0  0  0  0  0  0  0  0  0  0
   35.9180   28.1520   31.9140 C   0  0  2  0  0  3  0  0  0  0  0  0
   36.5150   28.1020   30.5460 C   0  0  0  0  0  3  0  0  0  0  0  0
   37.2090   27.2290   30.5380 H   0  0  0  0  0  0  0  0  0  0  0  0
   37.3560   29.3510   30.4570 C   0  0  0  0  0  3  0  0  0  0  0  0
   37.4790   29.6640   29.4110 H   0  0  0  0  0  0  0  0  0  0  0  0
   36.6030   30.2630   31.1680 O   0  0  0  0  0  0  0  0  0  0  0  0
   36.0770   29.6260   32.2680 C   0  0  0  0  0  3  0  0  0  0  0  0
   35.0710   30.0410   32.4750 H   0  0  0  0  0  0  0  0  0  0  0  0
  1  2  1  0  0  0  0
  2  3  2  0  0  0  0
  2  9  1  0  0  0  0
  3  8  1  0  0  0  0
  4  3  1  0  0  0  0
  5  4  2  0  0  0  0
  6  5  1  0  0  0  0
  6  1  2  0  0  0  0
  7  1  1  0  0  0  0
  9 10  1  0  0  0  0
 10 17  1  0  0  0  0
 10 11  2  0  0  0  0
 11 18  1  0  0  0  0
 12 11  1  0  0  0  0
 12 13  2  0  0  0  0
 14 12  1  0  0  0  0
 15  9  1  0  0  0  0
 15 14  1  0  0  0  0
 16 15  2  0  0  0  0
 19 14  1  0  0  0  0
 20 26  1  0  0  0  0
 20  5  1  1  0  0  0
 21 20  1  0  0  0  0
 22 21  1  0  0  0  0
 23 21  1  0  0  0  0
 23 25  1  0  0  0  0
 24 23  1  0  0  0  0
 25 26  1  0  0  0  0
 26 27  1  0  0  0  0
M  END
>  <minimizedAffinity>
-4.62231112

$$$$

 OpenBabel03272500033D

 27 29  0  0  1  0  0  0  0  0999 V2000
   37.7790   26.0820   34.6400 C   0  0  0  0  0  0  0  0  0  0  0  0
   37.6510   25.7530   33.2750 C   0  0  0  0  0  0  0  0  0  0  0  0
   37.7450   24.4020   32.9200 C   0  0  0  0  0  0  0  0  0  0  0  0
   37.9500   23.4830   33.9010 N   0  0  0  0  0  0  0  0  0  0  0  0
   38.0680   23.8250   35.1930 C   0  0  0  0  0  0  0  0  0  0  0  0
   37.9830   25.1140   35.5690 N   0  0  0  0  0  0  0  0  0  0  0  0
   37.7120   27.1180   34.9520 H   0  0  0  0  0  0  0  0  0  0  0  0
   37.6460   24.1620   31.8740 H   0  0  0  0  0  0  0  0  0  0  0  0
   37.4380   26.8150   32.3530 N   0  0  0  0  0  0  0  0  0  0  0  0
   36.2200   27.3490   32.1580 C   0  0  0  0  0  0  0  0  0  0  0  0
   36.0400   28.3860   31.2520 C   0  0  0  0  0  0  0  0  0  0  0  0
   37.1980   28.7740   30.6150 C   0  0  0  0  0  0  0  0  0  0  0  0
   37.0630   29.7260   29.7760 O   0  0  0  0  0  0  0  0  0  0  0  0
   38.4220   28.2680   30.7840 N   0  0  0  0  0  0  0  0  0  0  0  0
   38.5330   27.2560   31.6850 C   0  0  0  0  0  0  0  0  0  0  0  0
   39.6740   26.7610   31.8620 O   0  0  0  0  0  0  0  0  0  0  0  0
   35.3560   26.9840   32.7020 H   0  0  0  0  0  0  0  0  0  0  0  0
   35.0970   28.8550   31.0490 H   0  0  0  0  0  0  0  0  0  0  0  0
   39.2440   28.6340   30.2500 H   0  0  0  0  0  0  0  0  0  0  0  0
   38.2930   22.8100   36.2640 C   0  0  2  0  0  3  0  0  0  0  0  0
   37.4860   23.0540   37.4970 C   0  0  0  0  0  3  0  0  0  0  0  0
   36.7190   23.8160   37.2240 H   0  0  0  0  0  0  0  0  0  0  0  0
   38.4520   23.7050   38.4560 C   0  0  0  0  0  3  0  0  0  0  0  0
   38.1440   23.5310   39.4960 H   0  0  0  0  0  0  0  0  0  0  0  0
   39.6340   23.0540   38.1670 O   0  0  0  0  0  0  0  0  0  0  0  0
   39.7170   22.8880   36.8040 C   0  0  0  0  0  3  0  0  0  0  0  0
   40.2190   21.9260   36.5900 H   0  0  0  0  0  0  0  0  0  0  0  0
  1  7  1  0  0  0  0
  1  6  1  0  0  0  0
  2  1  2  0  0  0  0
  3  2  1  0  0  0  0
  3  4  2  0  0  0  0
  4  5  1  0  0  0  0
  5  6  2  0  0  0  0
  8  3  1  0  0  0  0
  9  2  1  0  0  0  0
 10  9  1  0  0  0  0
 10 17  1  0  0  0  0
 11 10  2  0  0  0  0
 12 14  1  0  0  0  0
 12 11  1  0  0  0  0
 13 12  2  0  0  0  0
 14 15  1  0  0  0  0
 15 16  2  0  0  0  0
 15  9  1  0  0  0  0
 18 11  1  0  0  0  0
 19 14  1  0  0  0  0
 20  5  1  6  0  0  0
 20 26  1  0  0  0  0
 20 21  1  0  0  0  0
 21 23  1  0  0  0  0
 22 21  1  0  0  0  0
 23 24  1  0  0  0  0
 25 23  1  0  0  0  0
 26 25  1  0  0  0  0
 27 26  1  0  0  0  0
M  END
>  <minimizedAffinity>
-4.57768822

$$$$

 OpenBabel03272500033D

 27 29  0  0  1  0  0  0  0  0999 V2000
   37.9010   26.5380   33.6420 C   0  0  0  0  0  0  0  0  0  0  0  0
   37.9750   26.0340   32.3270 C   0  0  0  0  0  0  0  0  0  0  0  0
   38.0850   24.6480   32.1670 C   0  0  0  0  0  0  0  0  0  0  0  0
   38.1140   23.8640   33.2780 N   0  0  0  0  0  0  0  0  0  0  0  0
   38.0420   24.3710   34.5180 C   0  0  0  0  0  0  0  0  0  0  0  0
   37.9360   25.6990   34.7080 N   0  0  0  0  0  0  0  0  0  0  0  0
   37.8150   27.6060   33.8050 H   0  0  0  0  0  0  0  0  0  0  0  0
   38.1400   24.2740   31.1590 H   0  0  0  0  0  0  0  0  0  0  0  0
   37.9330   26.9680   31.2550 N   0  0  0  0  0  0  0  0  0  0  0  0
   39.0360   27.6070   30.8310 C   0  0  0  0  0  0  0  0  0  0  0  0
   38.9670   28.5140   29.7810 C   0  0  0  0  0  0  0  0  0  0  0  0
   37.7020   28.6670   29.2620 C   0  0  0  0  0  0  0  0  0  0  0  0
   37.6080   29.4950   28.2950 O   0  0  0  0  0  0  0  0  0  0  0  0
   36.5860   28.0500   29.6570 N   0  0  0  0  0  0  0  0  0  0  0  0
   36.7180   27.1740   30.6870 C   0  0  0  0  0  0  0  0  0  0  0  0
   35.6830   26.5800   31.0790 O   0  0  0  0  0  0  0  0  0  0  0  0
   40.0000   27.4300   31.2960 H   0  0  0  0  0  0  0  0  0  0  0  0
   39.8090   29.0570   29.3950 H   0  0  0  0  0  0  0  0  0  0  0  0
   35.6650   28.2340   29.1950 H   0  0  0  0  0  0  0  0  0  0  0  0
   38.0750   23.5040   35.7320 C   0  0  2  0  0  3  0  0  0  0  0  0
   39.0490   23.9630   36.7680 C   0  0  0  0  0  3  0  0  0  0  0  0
   39.3510   24.9960   36.4780 H   0  0  0  0  0  0  0  0  0  0  0  0
   40.2490   23.0690   36.5780 C   0  0  0  0  0  3  0  0  0  0  0  0
   40.8250   22.9880   37.5100 H   0  0  0  0  0  0  0  0  0  0  0  0
   39.6660   21.8640   36.2410 O   0  0  0  0  0  0  0  0  0  0  0  0
   38.6070   22.1140   35.4010 C   0  0  0  0  0  3  0  0  0  0  0  0
   37.8040   21.3800   35.6070 H   0  0  0  0  0  0  0  0  0  0  0  0
  1  7  1  0  0  0  0
  1  6  1  0  0  0  0
  2  1  2  0  0  0  0
  3  2  1  0  0  0  0
  3  4  2  0  0  0  0
  4  5  1  0  0  0  0
  5  6  2  0  0  0  0
  8  3  1  0  0  0  0
  9  2  1  0  0  0  0
 10  9  1  0  0  0  0
 10 17  1  0  0  0  0
 11 10  2  0  0  0  0
 12 14  1  0  0  0  0
 12 11  1  0  0  0  0
 13 12  2  0  0  0  0
 14 15  1  0  0  0  0
 15 16  2  0  0  0  0
 15  9  1  0  0  0  0
 18 11  1  0  0  0  0
 19 14  1  0  0  0  0
 20  5  1  6  0  0  0
 20 21  1  0  0  0  0
 22 21  1  0  0  0  0
 23 21  1  0  0  0  0
 23 24  1  0  0  0  0
 25 23  1  0  0  0  0
 26 27  1  0  0  0  0
 26 20  1  0  0  0  0
 26 25  1  0  0  0  0
M  END
>  <minimizedAffinity>
-4.52952147

$$$$
