
 OpenBabel03272508273D

 37 40  0  0  1  0  0  0  0  0999 V2000
   33.8650   28.9010   47.2540 C   0  0  2  0  0  0  0  0  0  0  0  0
   34.5770   28.1490   48.3670 C   0  0  2  0  0  0  0  0  0  0  0  0
   33.6560   28.0140   49.3680 O   0  0  0  0  0  0  0  0  0  0  0  0
   32.3940   28.0850   48.8710 C   0  0  0  0  0  0  0  0  0  0  0  0
   32.4790   28.2550   47.3700 C   0  0  1  0  0  0  0  0  0  0  0  0
   33.7110   29.9570   47.4930 H   0  0  0  0  0  0  0  0  0  0  0  0
   34.8640   27.1710   47.9090 H   0  0  0  0  0  0  0  0  0  0  0  0
   31.7980   27.2020   49.1620 H   0  0  0  0  0  0  0  0  0  0  0  0
   31.9090   29.0060   49.2990 H   0  0  0  0  0  0  0  0  0  0  0  0
   32.5330   27.2560   46.8940 H   0  0  0  0  0  0  0  0  0  0  0  0
   35.6510   30.3970   49.0570 C   0  0  1  0  0  0  0  0  0  0  0  0
   35.7420   28.9810   48.7940 C   0  0  1  0  0  0  0  0  0  0  0  0
   35.9190   29.4220   50.2110 C   0  0  0  0  0  0  0  0  0  0  0  0
   34.7510   30.9910   49.2780 H   0  0  0  0  0  0  0  0  0  0  0  0
   36.7040   28.6280   48.3210 H   0  0  0  0  0  0  0  0  0  0  0  0
   35.0860   29.1540   50.8860 H   0  0  0  0  0  0  0  0  0  0  0  0
   36.9100   29.4140   50.6870 H   0  0  0  0  0  0  0  0  0  0  0  0
   36.8350   31.3180   48.8170 C   0  0  0  0  0  0  0  0  0  0  0  0
   37.0600   32.3350   49.7460 C   0  0  0  0  0  0  0  0  0  0  0  0
   38.1390   33.1620   49.4640 C   0  0  0  0  0  0  0  0  0  0  0  0
   38.9080   32.9630   48.3410 N   0  0  0  0  0  0  0  0  0  0  0  0
   38.6490   31.9620   47.4710 C   0  0  0  0  0  0  0  0  0  0  0  0
   37.6040   31.1330   47.7120 N   0  0  0  0  0  0  0  0  0  0  0  0
   36.4280   32.4440   50.6030 H   0  0  0  0  0  0  0  0  0  0  0  0
   38.3470   33.9630   50.1610 H   0  0  0  0  0  0  0  0  0  0  0  0
   39.2870   31.8560   46.6090 H   0  0  0  0  0  0  0  0  0  0  0  0
   34.4160   28.6930   46.0030 O   0  0  0  0  0  0  0  0  0  0  0  0
   34.3930   27.7180   45.8240 H   0  0  0  0  0  0  0  0  0  0  0  0
   31.5040   29.0520   46.8330 O   0  0  0  0  0  0  0  0  0  0  0  0
   30.7780   28.4680   45.8160 C   0  0  2  0  0  3  0  0  0  0  0  0
   31.2020   27.0330   45.5530 C   0  0  0  0  0  3  0  0  0  0  0  0
   30.6180   26.2940   46.0980 H   0  0  0  0  0  0  0  0  0  0  0  0
   30.8430   26.9200   44.0800 C   0  0  0  0  0  3  0  0  0  0  0  0
   29.7730   26.6030   43.9720 H   0  0  0  0  0  0  0  0  0  0  0  0
   31.0720   28.1580   43.5110 O   0  0  0  0  0  0  0  0  0  0  0  0
   31.1820   29.1080   44.5120 C   0  0  0  0  0  3  0  0  0  0  0  0
   30.6480   30.0540   44.2930 H   0  0  0  0  0  0  0  0  0  0  0  0
  1  5  1  0  0  0  0
  1  6  1  1  0  0  0
  1  2  1  0  0  0  0
  2  7  1  6  0  0  0
  2 12  1  0  0  0  0
  2  3  1  0  0  0  0
  4  8  1  0  0  0  0
  4  9  1  0  0  0  0
  4  3  1  0  0  0  0
  5 10  1  6  0  0  0
  5  4  1  0  0  0  0
 11 14  1  6  0  0  0
 11 13  1  0  0  0  0
 12 15  1  6  0  0  0
 12 11  1  0  0  0  0
 12 13  1  0  0  0  0
 13 17  1  0  0  0  0
 13 16  1  0  0  0  0
 18 11  1  0  0  0  0
 18 19  1  0  0  0  0
 19 24  1  0  0  0  0
 20 19  2  0  0  0  0
 20 25  1  0  0  0  0
 21 20  1  0  0  0  0
 22 23  1  0  0  0  0
 22 21  2  0  0  0  0
 23 18  2  0  0  0  0
 26 22  1  0  0  0  0
 27  1  1  0  0  0  0
 28 27  1  0  0  0  0
 29  5  1  0  0  0  0
 30 29  1  1  0  0  0
 31 30  1  0  0  0  0
 31 32  1  0  0  0  0
 33 31  1  0  0  0  0
 34 33  1  0  0  0  0
 35 33  1  0  0  0  0
 35 36  1  0  0  0  0
 36 30  1  0  0  0  0
 37 36  1  0  0  0  0
M  END
>  <minimizedAffinity>
-4.6592679

>  <minimizedRMSD>
0.296684295

$$$$
