
 OpenBabel03272500093D

 38 41  0  0  1  0  0  0  0  0999 V2000
   38.0270   23.8620   33.2370 C   0  0  0  0  0  0  0  0  0  0  0  0
   38.4590   24.4350   34.4490 C   0  0  0  0  0  0  0  0  0  0  0  0
   38.0090   25.7190   34.7630 C   0  0  0  0  0  0  0  0  0  0  0  0
   37.1800   26.3430   33.8810 N   0  0  0  0  0  0  0  0  0  0  0  0
   36.7870   25.7760   32.7390 C   0  0  0  0  0  0  0  0  0  0  0  0
   37.2050   24.5180   32.3930 N   0  0  0  0  0  0  0  0  0  0  0  0
   38.3700   22.8670   32.9840 H   0  0  0  0  0  0  0  0  0  0  0  0
   38.3320   26.1590   35.6820 H   0  0  0  0  0  0  0  0  0  0  0  0
   39.3260   23.6740   35.2770 N   0  0  0  0  0  0  0  0  0  0  0  0
   40.6500   23.7220   35.1630 C   0  0  0  0  0  0  0  0  0  0  0  0
   41.4260   22.9420   36.0170 C   0  0  0  0  0  0  0  0  0  0  0  0
   40.7430   22.1790   36.9160 C   0  0  0  0  0  0  0  0  0  0  0  0
   41.4470   21.4650   37.6970 O   0  0  0  0  0  0  0  0  0  0  0  0
   39.4350   22.1070   37.0550 N   0  0  0  0  0  0  0  0  0  0  0  0
   38.7020   22.8770   36.2110 C   0  0  0  0  0  0  0  0  0  0  0  0
   37.4370   22.8190   36.3330 O   0  0  0  0  0  0  0  0  0  0  0  0
   41.0890   24.3650   34.4130 H   0  0  0  0  0  0  0  0  0  0  0  0
   42.5020   23.0000   35.9040 H   0  0  0  0  0  0  0  0  0  0  0  0
   38.9680   21.5020   37.7640 H   0  0  0  0  0  0  0  0  0  0  0  0
   35.9320   26.4260   31.8320 O   0  0  0  0  0  0  0  0  0  0  0  0
   36.3870   27.6540   31.3670 C   0  0  0  0  0  0  0  0  0  0  0  0
   37.4230   27.5740   30.4660 C   0  0  0  0  0  0  0  0  0  0  0  0
   37.9900   28.6990   29.9090 C   0  0  0  0  0  0  0  0  0  0  0  0
   37.4780   29.9480   30.2850 C   0  0  0  0  0  0  0  0  0  0  0  0
   36.4330   30.0250   31.1930 C   0  0  0  0  0  0  0  0  0  0  0  0
   35.9030   28.8870   31.7210 C   0  0  0  0  0  0  0  0  0  0  0  0
   37.8580   26.6300   30.1390 H   0  0  0  0  0  0  0  0  0  0  0  0
   38.8070   28.6240   29.1980 H   0  0  0  0  0  0  0  0  0  0  0  0
   37.9350   30.8340   29.8360 H   0  0  0  0  0  0  0  0  0  0  0  0
   36.1170   31.0140   31.4150 H   0  0  0  0  0  0  0  0  0  0  0  0
   34.8140   28.9600   32.6770 C   0  0  1  0  0  3  0  0  0  0  0  0
   35.2560   29.4100   34.0670 C   0  0  0  0  0  3  0  0  0  0  0  0
   35.9650   30.2490   34.0170 H   0  0  0  0  0  0  0  0  0  0  0  0
   33.9230   29.8910   34.6220 C   0  0  0  0  0  3  0  0  0  0  0  0
   33.9990   30.8610   35.1410 H   0  0  0  0  0  0  0  0  0  0  0  0
   33.0570   30.0170   33.5550 O   0  0  0  0  0  0  0  0  0  0  0  0
   33.8380   30.1100   32.3970 C   0  0  0  0  0  3  0  0  0  0  0  0
   33.2320   29.9310   31.5130 H   0  0  0  0  0  0  0  0  0  0  0  0
  1  2  1  0  0  0  0
  2  3  2  0  0  0  0
  2  9  1  0  0  0  0
  3  8  1  0  0  0  0
  4  3  1  0  0  0  0
  5  4  2  0  0  0  0
  6  5  1  0  0  0  0
  6  1  2  0  0  0  0
  7  1  1  0  0  0  0
  9 15  1  0  0  0  0
 10  9  1  0  0  0  0
 10 11  2  0  0  0  0
 11 12  1  0  0  0  0
 12 14  1  0  0  0  0
 12 13  2  0  0  0  0
 14 19  1  0  0  0  0
 15 16  2  0  0  0  0
 15 14  1  0  0  0  0
 17 10  1  0  0  0  0
 18 11  1  0  0  0  0
 20  5  1  0  0  0  0
 21 26  1  0  0  0  0
 21 20  1  0  0  0  0
 22 21  2  0  0  0  0
 23 24  2  0  0  0  0
 23 22  1  0  0  0  0
 24 25  1  0  0  0  0
 25 30  1  0  0  0  0
 25 26  2  0  0  0  0
 27 22  1  0  0  0  0
 28 23  1  0  0  0  0
 29 24  1  0  0  0  0
 31 26  1  6  0  0  0
 31 32  1  0  0  0  0
 32 34  1  0  0  0  0
 33 32  1  0  0  0  0
 34 35  1  0  0  0  0
 36 34  1  0  0  0  0
 37 31  1  0  0  0  0
 37 36  1  0  0  0  0
 38 37  1  0  0  0  0
M  END
>  <minimizedAffinity>
-5.81466722

$$$$

 OpenBabel03272500093D

 38 41  0  0  1  0  0  0  0  0999 V2000
   37.2610   25.4930   32.3780 C   0  0  0  0  0  0  0  0  0  0  0  0
   37.9930   26.6860   32.5420 C   0  0  0  0  0  0  0  0  0  0  0  0
   39.0800   26.6710   33.4190 C   0  0  0  0  0  0  0  0  0  0  0  0
   39.3700   25.5060   34.0640 N   0  0  0  0  0  0  0  0  0  0  0  0
   38.6590   24.3910   33.8890 C   0  0  0  0  0  0  0  0  0  0  0  0
   37.5850   24.3620   33.0380 N   0  0  0  0  0  0  0  0  0  0  0  0
   36.4170   25.4930   31.7010 H   0  0  0  0  0  0  0  0  0  0  0  0
   39.6400   27.5720   33.5470 H   0  0  0  0  0  0  0  0  0  0  0  0
   37.5810   27.8300   31.8090 N   0  0  0  0  0  0  0  0  0  0  0  0
   38.0580   28.1180   30.6030 C   0  0  0  0  0  0  0  0  0  0  0  0
   37.5970   29.2630   29.9550 C   0  0  0  0  0  0  0  0  0  0  0  0
   36.6760   30.0030   30.6320 C   0  0  0  0  0  0  0  0  0  0  0  0
   36.2530   31.0480   30.0450 O   0  0  0  0  0  0  0  0  0  0  0  0
   36.1830   29.7480   31.8270 N   0  0  0  0  0  0  0  0  0  0  0  0
   36.6490   28.6270   32.4360 C   0  0  0  0  0  0  0  0  0  0  0  0
   36.1830   28.3650   33.5910 O   0  0  0  0  0  0  0  0  0  0  0  0
   38.7880   27.4590   30.1560 H   0  0  0  0  0  0  0  0  0  0  0  0
   38.0010   29.4740   28.9720 H   0  0  0  0  0  0  0  0  0  0  0  0
   35.4780   30.3540   32.2960 H   0  0  0  0  0  0  0  0  0  0  0  0
   38.9620   23.1930   34.5580 O   0  0  0  0  0  0  0  0  0  0  0  0
   38.9380   23.2680   35.9460 C   0  0  0  0  0  0  0  0  0  0  0  0
   37.7740   23.7800   36.4680 C   0  0  0  0  0  0  0  0  0  0  0  0
   37.5880   23.9210   37.8260 C   0  0  0  0  0  0  0  0  0  0  0  0
   38.6280   23.5240   38.6770 C   0  0  0  0  0  0  0  0  0  0  0  0
   39.8000   23.0090   38.1460 C   0  0  0  0  0  0  0  0  0  0  0  0
   39.9430   22.8870   36.7970 C   0  0  0  0  0  0  0  0  0  0  0  0
   36.9350   24.1030   35.8530 H   0  0  0  0  0  0  0  0  0  0  0  0
   36.6640   24.3270   38.2280 H   0  0  0  0  0  0  0  0  0  0  0  0
   38.4680   23.6410   39.7520 H   0  0  0  0  0  0  0  0  0  0  0  0
   40.5280   22.7380   38.8710 H   0  0  0  0  0  0  0  0  0  0  0  0
   41.1690   22.3550   36.2340 C   0  0  1  0  0  3  0  0  0  0  0  0
   42.2910   23.3860   36.1390 C   0  0  0  0  0  3  0  0  0  0  0  0
   42.3570   24.0010   37.0480 H   0  0  0  0  0  0  0  0  0  0  0  0
   43.4940   22.4570   36.0550 C   0  0  0  0  0  3  0  0  0  0  0  0
   44.3250   22.7690   36.7100 H   0  0  0  0  0  0  0  0  0  0  0  0
   43.0670   21.2000   36.4350 O   0  0  0  0  0  0  0  0  0  0  0  0
   41.8850   21.3680   37.1650 C   0  0  0  0  0  3  0  0  0  0  0  0
   41.3540   20.4240   37.2540 H   0  0  0  0  0  0  0  0  0  0  0  0
  1  2  2  0  0  0  0
  1  6  1  0  0  0  0
  2  3  1  0  0  0  0
  3  8  1  0  0  0  0
  3  4  2  0  0  0  0
  5  4  1  0  0  0  0
  5 20  1  0  0  0  0
  6  5  2  0  0  0  0
  7  1  1  0  0  0  0
  9 15  1  0  0  0  0
  9  2  1  0  0  0  0
 10  9  1  0  0  0  0
 11 10  2  0  0  0  0
 11 12  1  0  0  0  0
 12 14  1  0  0  0  0
 13 12  2  0  0  0  0
 14 19  1  0  0  0  0
 14 15  1  0  0  0  0
 15 16  2  0  0  0  0
 17 10  1  0  0  0  0
 18 11  1  0  0  0  0
 20 21  1  0  0  0  0
 21 22  2  0  0  0  0
 21 26  1  0  0  0  0
 22 23  1  0  0  0  0
 23 28  1  0  0  0  0
 23 24  2  0  0  0  0
 24 29  1  0  0  0  0
 25 24  1  0  0  0  0
 25 30  1  0  0  0  0
 26 25  2  0  0  0  0
 27 22  1  0  0  0  0
 31 26  1  1  0  0  0
 31 37  1  0  0  0  0
 32 31  1  0  0  0  0
 32 33  1  0  0  0  0
 34 32  1  0  0  0  0
 34 36  1  0  0  0  0
 34 35  1  0  0  0  0
 36 37  1  0  0  0  0
 37 38  1  0  0  0  0
M  END
>  <minimizedAffinity>
-5.71906328

$$$$

 OpenBabel03272500093D

 38 41  0  0  1  0  0  0  0  0999 V2000
   38.0640   24.0690   33.1330 C   0  0  0  0  0  0  0  0  0  0  0  0
   38.3940   24.5780   34.4040 C   0  0  0  0  0  0  0  0  0  0  0  0
   37.8570   25.8130   34.7740 C   0  0  0  0  0  0  0  0  0  0  0  0
   37.0450   26.4530   33.8860 N   0  0  0  0  0  0  0  0  0  0  0  0
   36.7510   25.9460   32.6880 C   0  0  0  0  0  0  0  0  0  0  0  0
   37.2570   24.7380   32.2850 N   0  0  0  0  0  0  0  0  0  0  0  0
   38.4760   23.1130   32.8360 H   0  0  0  0  0  0  0  0  0  0  0  0
   38.1020   26.2040   35.7370 H   0  0  0  0  0  0  0  0  0  0  0  0
   39.2540   23.8080   35.2310 N   0  0  0  0  0  0  0  0  0  0  0  0
   40.5740   23.9640   35.2340 C   0  0  0  0  0  0  0  0  0  0  0  0
   41.3430   23.1650   36.0770 C   0  0  0  0  0  0  0  0  0  0  0  0
   40.6570   22.2720   36.8440 C   0  0  0  0  0  0  0  0  0  0  0  0
   41.3540   21.5410   37.6150 O   0  0  0  0  0  0  0  0  0  0  0  0
   39.3520   22.0910   36.8660 N   0  0  0  0  0  0  0  0  0  0  0  0
   38.6260   22.8820   36.0340 C   0  0  0  0  0  0  0  0  0  0  0  0
   37.3650   22.7200   36.0430 O   0  0  0  0  0  0  0  0  0  0  0  0
   41.0160   24.7060   34.5840 H   0  0  0  0  0  0  0  0  0  0  0  0
   42.4160   23.3130   36.0610 H   0  0  0  0  0  0  0  0  0  0  0  0
   38.8820   21.3880   37.4760 H   0  0  0  0  0  0  0  0  0  0  0  0
   35.9140   26.6120   31.7750 O   0  0  0  0  0  0  0  0  0  0  0  0
   36.0280   27.9970   31.7690 C   0  0  0  0  0  0  0  0  0  0  0  0
   35.2680   28.6350   32.7210 C   0  0  0  0  0  0  0  0  0  0  0  0
   35.2660   30.0060   32.8500 C   0  0  0  0  0  0  0  0  0  0  0  0
   36.0700   30.7490   31.9750 C   0  0  0  0  0  0  0  0  0  0  0  0
   36.8350   30.1030   31.0160 C   0  0  0  0  0  0  0  0  0  0  0  0
   36.8060   28.7440   30.9230 C   0  0  0  0  0  0  0  0  0  0  0  0
   34.6270   28.1060   33.4260 H   0  0  0  0  0  0  0  0  0  0  0  0
   34.6630   30.5000   33.6050 H   0  0  0  0  0  0  0  0  0  0  0  0
   36.0610   31.8370   32.0860 H   0  0  0  0  0  0  0  0  0  0  0  0
   37.4080   30.7520   30.4010 H   0  0  0  0  0  0  0  0  0  0  0  0
   37.5980   28.0610   29.9180 C   0  0  1  0  0  3  0  0  0  0  0  0
   37.7820   28.8700   28.6370 C   0  0  0  0  0  3  0  0  0  0  0  0
   38.0050   29.9250   28.8510 H   0  0  0  0  0  0  0  0  0  0  0  0
   39.0160   28.1850   28.0690 C   0  0  0  0  0  3  0  0  0  0  0  0
   39.7710   28.8980   27.6980 H   0  0  0  0  0  0  0  0  0  0  0  0
   39.5690   27.4310   29.0850 O   0  0  0  0  0  0  0  0  0  0  0  0
   39.0810   27.9430   30.2920 C   0  0  0  0  0  3  0  0  0  0  0  0
   39.2480   27.2370   31.1020 H   0  0  0  0  0  0  0  0  0  0  0  0
  1  2  1  0  0  0  0
  2  3  2  0  0  0  0
  2  9  1  0  0  0  0
  3  8  1  0  0  0  0
  4  3  1  0  0  0  0
  5  4  2  0  0  0  0
  6  5  1  0  0  0  0
  6  1  2  0  0  0  0
  7  1  1  0  0  0  0
  9 10  1  0  0  0  0
  9 15  1  0  0  0  0
 10 11  2  0  0  0  0
 11 12  1  0  0  0  0
 12 14  1  0  0  0  0
 12 13  2  0  0  0  0
 14 19  1  0  0  0  0
 15 16  2  0  0  0  0
 15 14  1  0  0  0  0
 17 10  1  0  0  0  0
 18 11  1  0  0  0  0
 20  5  1  0  0  0  0
 21 20  1  0  0  0  0
 21 22  1  0  0  0  0
 22 23  2  0  0  0  0
 22 27  1  0  0  0  0
 23 28  1  0  0  0  0
 24 29  1  0  0  0  0
 24 23  1  0  0  0  0
 25 24  2  0  0  0  0
 26 25  1  0  0  0  0
 26 21  2  0  0  0  0
 30 25  1  0  0  0  0
 31 37  1  0  0  0  0
 31 26  1  1  0  0  0
 32 33  1  0  0  0  0
 32 31  1  0  0  0  0
 34 32  1  0  0  0  0
 34 36  1  0  0  0  0
 35 34  1  0  0  0  0
 36 37  1  0  0  0  0
 37 38  1  0  0  0  0
M  END
>  <minimizedAffinity>
-5.70484638

$$$$

 OpenBabel03272500093D

 38 41  0  0  1  0  0  0  0  0999 V2000
   37.4050   24.6310   32.2010 C   0  0  0  0  0  0  0  0  0  0  0  0
   38.3050   25.7130   32.1540 C   0  0  0  0  0  0  0  0  0  0  0  0
   39.4260   25.6700   32.9860 C   0  0  0  0  0  0  0  0  0  0  0  0
   39.5830   24.5850   33.7950 N   0  0  0  0  0  0  0  0  0  0  0  0
   38.7140   23.5740   33.8190 C   0  0  0  0  0  0  0  0  0  0  0  0
   37.6020   23.5760   33.0190 N   0  0  0  0  0  0  0  0  0  0  0  0
   36.5330   24.6550   31.5600 H   0  0  0  0  0  0  0  0  0  0  0  0
   40.1130   26.4870   32.9540 H   0  0  0  0  0  0  0  0  0  0  0  0
   38.0180   26.7840   31.2650 N   0  0  0  0  0  0  0  0  0  0  0  0
   37.2150   27.7900   31.5930 C   0  0  0  0  0  0  0  0  0  0  0  0
   36.9880   28.8000   30.6590 C   0  0  0  0  0  0  0  0  0  0  0  0
   37.6260   28.6610   29.4630 C   0  0  0  0  0  0  0  0  0  0  0  0
   37.4220   29.5790   28.6080 O   0  0  0  0  0  0  0  0  0  0  0  0
   38.4270   27.6780   29.1060 N   0  0  0  0  0  0  0  0  0  0  0  0
   38.6310   26.7080   30.0340 C   0  0  0  0  0  0  0  0  0  0  0  0
   39.4020   25.7510   29.7050 O   0  0  0  0  0  0  0  0  0  0  0  0
   36.7600   27.8010   32.5730 H   0  0  0  0  0  0  0  0  0  0  0  0
   36.3300   29.6090   30.9510 H   0  0  0  0  0  0  0  0  0  0  0  0
   38.8880   27.6260   28.1730 H   0  0  0  0  0  0  0  0  0  0  0  0
   38.8820   22.4580   34.6570 O   0  0  0  0  0  0  0  0  0  0  0  0
   38.9270   22.7400   36.0170 C   0  0  0  0  0  0  0  0  0  0  0  0
   37.7390   23.1880   36.5460 C   0  0  0  0  0  0  0  0  0  0  0  0
   37.6140   23.5130   37.8780 C   0  0  0  0  0  0  0  0  0  0  0  0
   38.7420   23.3730   38.6980 C   0  0  0  0  0  0  0  0  0  0  0  0
   39.9380   22.9210   38.1620 C   0  0  0  0  0  0  0  0  0  0  0  0
   40.0180   22.6120   36.8370 C   0  0  0  0  0  0  0  0  0  0  0  0
   36.8330   23.3140   35.9540 H   0  0  0  0  0  0  0  0  0  0  0  0
   36.6710   23.8650   38.2850 H   0  0  0  0  0  0  0  0  0  0  0  0
   38.6300   23.6340   39.7540 H   0  0  0  0  0  0  0  0  0  0  0  0
   40.7330   22.8500   38.8620 H   0  0  0  0  0  0  0  0  0  0  0  0
   41.2670   22.1450   36.2680 C   0  0  1  0  0  3  0  0  0  0  0  0
   42.3500   23.2200   36.2170 C   0  0  0  0  0  3  0  0  0  0  0  0
   42.3860   23.8060   37.1460 H   0  0  0  0  0  0  0  0  0  0  0  0
   43.5880   22.3400   36.1120 C   0  0  0  0  0  3  0  0  0  0  0  0
   44.4010   22.6610   36.7830 H   0  0  0  0  0  0  0  0  0  0  0  0
   43.2060   21.0560   36.4470 O   0  0  0  0  0  0  0  0  0  0  0  0
   42.0140   21.1550   37.1720 C   0  0  0  0  0  3  0  0  0  0  0  0
   41.5170   20.1900   37.2240 H   0  0  0  0  0  0  0  0  0  0  0  0
  1  6  1  0  0  0  0
  2  1  2  0  0  0  0
  2  3  1  0  0  0  0
  3  4  2  0  0  0  0
  4  5  1  0  0  0  0
  5 20  1  0  0  0  0
  6  5  2  0  0  0  0
  7  1  1  0  0  0  0
  8  3  1  0  0  0  0
  9 10  1  0  0  0  0
  9  2  1  0  0  0  0
 10 17  1  0  0  0  0
 11 18  1  0  0  0  0
 11 10  2  0  0  0  0
 12 11  1  0  0  0  0
 13 12  2  0  0  0  0
 14 12  1  0  0  0  0
 14 15  1  0  0  0  0
 15  9  1  0  0  0  0
 16 15  2  0  0  0  0
 19 14  1  0  0  0  0
 20 21  1  0  0  0  0
 21 22  2  0  0  0  0
 21 26  1  0  0  0  0
 22 23  1  0  0  0  0
 23 28  1  0  0  0  0
 23 24  2  0  0  0  0
 24 29  1  0  0  0  0
 25 24  1  0  0  0  0
 25 30  1  0  0  0  0
 26 25  2  0  0  0  0
 27 22  1  0  0  0  0
 31 26  1  1  0  0  0
 31 37  1  0  0  0  0
 32 31  1  0  0  0  0
 32 33  1  0  0  0  0
 34 32  1  0  0  0  0
 34 36  1  0  0  0  0
 34 35  1  0  0  0  0
 36 37  1  0  0  0  0
 37 38  1  0  0  0  0
M  END
>  <minimizedAffinity>
-5.6687088

$$$$

 OpenBabel03272500093D

 38 41  0  0  1  0  0  0  0  0999 V2000
   37.6750   25.9750   33.4280 C   0  0  0  0  0  0  0  0  0  0  0  0
   38.3830   26.2440   34.6160 C   0  0  0  0  0  0  0  0  0  0  0  0
   38.0400   27.3890   35.3380 C   0  0  0  0  0  0  0  0  0  0  0  0
   37.0400   28.1790   34.8530 N   0  0  0  0  0  0  0  0  0  0  0  0
   36.3860   27.8990   33.7250 C   0  0  0  0  0  0  0  0  0  0  0  0
   36.6920   26.7870   32.9860 N   0  0  0  0  0  0  0  0  0  0  0  0
   37.9330   25.0910   32.8610 H   0  0  0  0  0  0  0  0  0  0  0  0
   38.5720   27.5980   36.2400 H   0  0  0  0  0  0  0  0  0  0  0  0
   39.4050   25.3380   35.0050 N   0  0  0  0  0  0  0  0  0  0  0  0
   40.6650   25.4630   34.6010 C   0  0  0  0  0  0  0  0  0  0  0  0
   41.6040   24.5280   35.0320 C   0  0  0  0  0  0  0  0  0  0  0  0
   41.1350   23.5430   35.8490 C   0  0  0  0  0  0  0  0  0  0  0  0
   41.9880   22.6880   36.2450 O   0  0  0  0  0  0  0  0  0  0  0  0
   39.8950   23.3900   36.2680 N   0  0  0  0  0  0  0  0  0  0  0  0
   39.0010   24.3140   35.8340 C   0  0  0  0  0  0  0  0  0  0  0  0
   37.7990   24.1810   36.2290 O   0  0  0  0  0  0  0  0  0  0  0  0
   40.9290   26.2850   33.9510 H   0  0  0  0  0  0  0  0  0  0  0  0
   42.6240   24.6520   34.6890 H   0  0  0  0  0  0  0  0  0  0  0  0
   39.5960   22.6130   36.8950 H   0  0  0  0  0  0  0  0  0  0  0  0
   35.3570   28.7180   33.2300 O   0  0  0  0  0  0  0  0  0  0  0  0
   35.7620   29.9670   32.7740 C   0  0  0  0  0  0  0  0  0  0  0  0
   36.3520   29.9550   31.5310 C   0  0  0  0  0  0  0  0  0  0  0  0
   36.8100   31.1090   30.9340 C   0  0  0  0  0  0  0  0  0  0  0  0
   36.6580   32.3150   31.6310 C   0  0  0  0  0  0  0  0  0  0  0  0
   36.0630   32.3230   32.8840 C   0  0  0  0  0  0  0  0  0  0  0  0
   35.6250   31.1580   33.4380 C   0  0  0  0  0  0  0  0  0  0  0  0
   36.4940   29.0470   30.9470 H   0  0  0  0  0  0  0  0  0  0  0  0
   37.2750   31.0880   29.9530 H   0  0  0  0  0  0  0  0  0  0  0  0
   37.0260   33.2240   31.1470 H   0  0  0  0  0  0  0  0  0  0  0  0
   35.9950   33.2840   33.3310 H   0  0  0  0  0  0  0  0  0  0  0  0
   35.0070   31.1580   34.7500 C   0  0  1  0  0  3  0  0  0  0  0  0
   35.9230   31.6840   35.8520 C   0  0  0  0  0  3  0  0  0  0  0  0
   36.4700   32.5830   35.5320 H   0  0  0  0  0  0  0  0  0  0  0  0
   34.8840   32.0570   36.9000 C   0  0  0  0  0  3  0  0  0  0  0  0
   35.0690   33.0440   37.3560 H   0  0  0  0  0  0  0  0  0  0  0  0
   33.6560   32.0740   36.2700 O   0  0  0  0  0  0  0  0  0  0  0  0
   33.8960   32.2060   34.8980 C   0  0  0  0  0  3  0  0  0  0  0  0
   33.0080   31.9480   34.3280 H   0  0  0  0  0  0  0  0  0  0  0  0
  1  2  1  0  0  0  0
  2  9  1  0  0  0  0
  2  3  2  0  0  0  0
  3  8  1  0  0  0  0
  4  3  1  0  0  0  0
  5  4  2  0  0  0  0
  6  1  2  0  0  0  0
  6  5  1  0  0  0  0
  7  1  1  0  0  0  0
  9 15  1  0  0  0  0
 10  9  1  0  0  0  0
 10 11  2  0  0  0  0
 11 12  1  0  0  0  0
 12 13  2  0  0  0  0
 12 14  1  0  0  0  0
 14 19  1  0  0  0  0
 15 16  2  0  0  0  0
 15 14  1  0  0  0  0
 17 10  1  0  0  0  0
 18 11  1  0  0  0  0
 20  5  1  0  0  0  0
 21 20  1  0  0  0  0
 21 26  1  0  0  0  0
 22 21  2  0  0  0  0
 23 22  1  0  0  0  0
 23 24  2  0  0  0  0
 24 25  1  0  0  0  0
 25 30  1  0  0  0  0
 25 26  2  0  0  0  0
 27 22  1  0  0  0  0
 28 23  1  0  0  0  0
 29 24  1  0  0  0  0
 31 26  1  6  0  0  0
 31 37  1  0  0  0  0
 31 32  1  0  0  0  0
 32 34  1  0  0  0  0
 33 32  1  0  0  0  0
 34 35  1  0  0  0  0
 36 34  1  0  0  0  0
 37 36  1  0  0  0  0
 38 37  1  0  0  0  0
M  END
>  <minimizedAffinity>
-5.62260008

$$$$

 OpenBabel03272500093D

 38 41  0  0  1  0  0  0  0  0999 V2000
   37.6870   23.6930   33.0420 C   0  0  0  0  0  0  0  0  0  0  0  0
   36.6460   23.3150   32.1720 C   0  0  0  0  0  0  0  0  0  0  0  0
   35.8780   24.3260   31.5910 C   0  0  0  0  0  0  0  0  0  0  0  0
   36.1800   25.6190   31.8980 N   0  0  0  0  0  0  0  0  0  0  0  0
   37.1730   25.9480   32.7260 C   0  0  0  0  0  0  0  0  0  0  0  0
   37.9500   24.9880   33.3180 N   0  0  0  0  0  0  0  0  0  0  0  0
   38.2880   22.9170   33.4990 H   0  0  0  0  0  0  0  0  0  0  0  0
   35.0880   24.0460   30.9290 H   0  0  0  0  0  0  0  0  0  0  0  0
   36.4370   21.9290   31.9410 N   0  0  0  0  0  0  0  0  0  0  0  0
   35.5240   21.2230   32.6000 C   0  0  0  0  0  0  0  0  0  0  0  0
   35.3860   19.8670   32.3090 C   0  0  0  0  0  0  0  0  0  0  0  0
   36.2210   19.3730   31.3530 C   0  0  0  0  0  0  0  0  0  0  0  0
   36.1000   18.1360   31.0850 O   0  0  0  0  0  0  0  0  0  0  0  0
   37.1370   20.0440   30.6820 N   0  0  0  0  0  0  0  0  0  0  0  0
   37.2500   21.3620   30.9840 C   0  0  0  0  0  0  0  0  0  0  0  0
   38.1280   22.0240   30.3460 O   0  0  0  0  0  0  0  0  0  0  0  0
   34.9120   21.7170   33.3400 H   0  0  0  0  0  0  0  0  0  0  0  0
   34.6340   19.3140   32.8590 H   0  0  0  0  0  0  0  0  0  0  0  0
   37.7480   19.6090   29.9590 H   0  0  0  0  0  0  0  0  0  0  0  0
   37.4780   27.2840   33.0390 O   0  0  0  0  0  0  0  0  0  0  0  0
   37.2230   28.2030   32.0290 C   0  0  0  0  0  0  0  0  0  0  0  0
   38.0560   28.0980   30.9390 C   0  0  0  0  0  0  0  0  0  0  0  0
   37.9360   28.9330   29.8510 C   0  0  0  0  0  0  0  0  0  0  0  0
   36.9310   29.9080   29.8780 C   0  0  0  0  0  0  0  0  0  0  0  0
   36.0930   30.0120   30.9780 C   0  0  0  0  0  0  0  0  0  0  0  0
   36.2470   29.1650   32.0340 C   0  0  0  0  0  0  0  0  0  0  0  0
   38.8520   27.3580   30.8670 H   0  0  0  0  0  0  0  0  0  0  0  0
   38.5990   28.8410   28.9960 H   0  0  0  0  0  0  0  0  0  0  0  0
   36.8460   30.5660   29.0080 H   0  0  0  0  0  0  0  0  0  0  0  0
   35.3650   30.7810   30.9040 H   0  0  0  0  0  0  0  0  0  0  0  0
   35.3780   29.2710   33.1910 C   0  0  1  0  0  3  0  0  0  0  0  0
   35.4320   30.6390   33.8660 C   0  0  0  0  0  3  0  0  0  0  0  0
   35.4260   31.4570   33.1310 H   0  0  0  0  0  0  0  0  0  0  0  0
   34.1100   30.6110   34.6200 C   0  0  0  0  0  3  0  0  0  0  0  0
   33.5410   31.5510   34.5250 H   0  0  0  0  0  0  0  0  0  0  0  0
   33.3620   29.5770   34.0950 O   0  0  0  0  0  0  0  0  0  0  0  0
   33.8870   29.2860   32.8310 C   0  0  0  0  0  3  0  0  0  0  0  0
   33.5370   28.3180   32.4850 H   0  0  0  0  0  0  0  0  0  0  0  0
  1  6  1  0  0  0  0
  1  7  1  0  0  0  0
  2  1  2  0  0  0  0
  3  4  2  0  0  0  0
  3  2  1  0  0  0  0
  4  5  1  0  0  0  0
  5 20  1  0  0  0  0
  5  6  2  0  0  0  0
  8  3  1  0  0  0  0
  9  2  1  0  0  0  0
  9 10  1  0  0  0  0
 10 17  1  0  0  0  0
 11 10  2  0  0  0  0
 11 18  1  0  0  0  0
 12 11  1  0  0  0  0
 13 12  2  0  0  0  0
 14 15  1  0  0  0  0
 14 12  1  0  0  0  0
 15  9  1  0  0  0  0
 16 15  2  0  0  0  0
 19 14  1  0  0  0  0
 21 26  1  0  0  0  0
 21 20  1  0  0  0  0
 22 21  2  0  0  0  0
 23 24  2  0  0  0  0
 23 22  1  0  0  0  0
 24 25  1  0  0  0  0
 25 26  2  0  0  0  0
 27 22  1  0  0  0  0
 28 23  1  0  0  0  0
 29 24  1  0  0  0  0
 30 25  1  0  0  0  0
 31 26  1  6  0  0  0
 31 32  1  0  0  0  0
 32 34  1  0  0  0  0
 33 32  1  0  0  0  0
 35 34  1  0  0  0  0
 36 34  1  0  0  0  0
 37 31  1  0  0  0  0
 37 36  1  0  0  0  0
 38 37  1  0  0  0  0
M  END
>  <minimizedAffinity>
-5.49545813

$$$$

 OpenBabel03272500093D

 38 41  0  0  1  0  0  0  0  0999 V2000
   36.9530   27.1790   34.7770 C   0  0  0  0  0  0  0  0  0  0  0  0
   37.7800   26.7320   33.7280 C   0  0  0  0  0  0  0  0  0  0  0  0
   37.7110   27.4050   32.5070 C   0  0  0  0  0  0  0  0  0  0  0  0
   36.8480   28.4550   32.4000 N   0  0  0  0  0  0  0  0  0  0  0  0
   36.0760   28.8570   33.4110 C   0  0  0  0  0  0  0  0  0  0  0  0
   36.1130   28.2240   34.6250 N   0  0  0  0  0  0  0  0  0  0  0  0
   36.9980   26.6630   35.7270 H   0  0  0  0  0  0  0  0  0  0  0  0
   38.3360   27.0720   31.7080 H   0  0  0  0  0  0  0  0  0  0  0  0
   38.6320   25.6220   33.9740 N   0  0  0  0  0  0  0  0  0  0  0  0
   38.2630   24.3690   33.7300 C   0  0  0  0  0  0  0  0  0  0  0  0
   39.1630   23.3390   34.0010 C   0  0  0  0  0  0  0  0  0  0  0  0
   40.3700   23.7190   34.5060 C   0  0  0  0  0  0  0  0  0  0  0  0
   41.1940   22.7840   34.7560 O   0  0  0  0  0  0  0  0  0  0  0  0
   40.7670   24.9490   34.7610 N   0  0  0  0  0  0  0  0  0  0  0  0
   39.8720   25.9330   34.4870 C   0  0  0  0  0  0  0  0  0  0  0  0
   40.2390   27.1270   34.7270 O   0  0  0  0  0  0  0  0  0  0  0  0
   37.2790   24.1800   33.3270 H   0  0  0  0  0  0  0  0  0  0  0  0
   38.8390   22.3270   33.7930 H   0  0  0  0  0  0  0  0  0  0  0  0
   41.7060   25.1780   35.1490 H   0  0  0  0  0  0  0  0  0  0  0  0
   35.1880   29.9390   33.2940 O   0  0  0  0  0  0  0  0  0  0  0  0
   34.8970   30.5970   34.4830 C   0  0  0  0  0  0  0  0  0  0  0  0
   35.9010   31.4180   34.9400 C   0  0  0  0  0  0  0  0  0  0  0  0
   35.7730   32.1420   36.1050 C   0  0  0  0  0  0  0  0  0  0  0  0
   34.5770   32.0230   36.8250 C   0  0  0  0  0  0  0  0  0  0  0  0
   33.5670   31.1940   36.3610 C   0  0  0  0  0  0  0  0  0  0  0  0
   33.7360   30.4950   35.2040 C   0  0  0  0  0  0  0  0  0  0  0  0
   36.8490   31.5480   34.4190 H   0  0  0  0  0  0  0  0  0  0  0  0
   36.5720   32.7880   36.4560 H   0  0  0  0  0  0  0  0  0  0  0  0
   34.4870   32.6030   37.7480 H   0  0  0  0  0  0  0  0  0  0  0  0
   32.7020   31.1700   36.9770 H   0  0  0  0  0  0  0  0  0  0  0  0
   32.6860   29.6210   34.7160 C   0  0  1  0  0  3  0  0  0  0  0  0
   32.0700   28.7460   35.8050 C   0  0  0  0  0  3  0  0  0  0  0  0
   31.8900   29.3130   36.7290 H   0  0  0  0  0  0  0  0  0  0  0  0
   30.7430   28.4010   35.1430 C   0  0  0  0  0  3  0  0  0  0  0  0
   29.8840   28.4970   35.8280 H   0  0  0  0  0  0  0  0  0  0  0  0
   30.5750   29.2710   34.0850 O   0  0  0  0  0  0  0  0  0  0  0  0
   31.4090   30.3710   34.3170 C   0  0  0  0  0  3  0  0  0  0  0  0
   31.5380   30.9520   33.4080 H   0  0  0  0  0  0  0  0  0  0  0  0
  1  7  1  0  0  0  0
  2  9  1  0  0  0  0
  2  1  2  0  0  0  0
  3  2  1  0  0  0  0
  4  3  2  0  0  0  0
  4  5  1  0  0  0  0
  5  6  2  0  0  0  0
  6  1  1  0  0  0  0
  8  3  1  0  0  0  0
  9 15  1  0  0  0  0
 10  9  1  0  0  0  0
 10 11  2  0  0  0  0
 11 12  1  0  0  0  0
 12 13  2  0  0  0  0
 12 14  1  0  0  0  0
 14 19  1  0  0  0  0
 15 16  2  0  0  0  0
 15 14  1  0  0  0  0
 17 10  1  0  0  0  0
 18 11  1  0  0  0  0
 20  5  1  0  0  0  0
 20 21  1  0  0  0  0
 21 22  2  0  0  0  0
 21 26  1  0  0  0  0
 22 23  1  0  0  0  0
 23 28  1  0  0  0  0
 23 24  2  0  0  0  0
 24 29  1  0  0  0  0
 25 24  1  0  0  0  0
 25 30  1  0  0  0  0
 26 25  2  0  0  0  0
 27 22  1  0  0  0  0
 31 26  1  1  0  0  0
 31 32  1  0  0  0  0
 32 33  1  0  0  0  0
 34 32  1  0  0  0  0
 34 35  1  0  0  0  0
 36 37  1  0  0  0  0
 36 34  1  0  0  0  0
 37 31  1  0  0  0  0
 38 37  1  0  0  0  0
M  END
>  <minimizedAffinity>
-5.47830343

$$$$

 OpenBabel03272500093D

 38 41  0  0  1  0  0  0  0  0999 V2000
   38.0480   26.0540   31.2300 C   0  0  0  0  0  0  0  0  0  0  0  0
   36.7370   26.5660   31.1730 C   0  0  0  0  0  0  0  0  0  0  0  0
   35.6850   25.6580   31.0390 C   0  0  0  0  0  0  0  0  0  0  0  0
   35.9860   24.3300   30.9720 N   0  0  0  0  0  0  0  0  0  0  0  0
   37.2380   23.8740   31.0290 C   0  0  0  0  0  0  0  0  0  0  0  0
   38.2990   24.7300   31.1590 N   0  0  0  0  0  0  0  0  0  0  0  0
   38.8710   26.7490   31.3330 H   0  0  0  0  0  0  0  0  0  0  0  0
   34.6880   26.0390   30.9970 H   0  0  0  0  0  0  0  0  0  0  0  0
   36.5640   27.9730   31.2510 N   0  0  0  0  0  0  0  0  0  0  0  0
   36.6170   28.7620   30.1820 C   0  0  0  0  0  0  0  0  0  0  0  0
   36.4360   30.1330   30.3510 C   0  0  0  0  0  0  0  0  0  0  0  0
   36.2170   30.5550   31.6280 C   0  0  0  0  0  0  0  0  0  0  0  0
   36.0520   31.8050   31.7860 O   0  0  0  0  0  0  0  0  0  0  0  0
   36.1600   29.8020   32.7080 N   0  0  0  0  0  0  0  0  0  0  0  0
   36.3390   28.4700   32.5160 C   0  0  0  0  0  0  0  0  0  0  0  0
   36.2870   27.7290   33.5480 O   0  0  0  0  0  0  0  0  0  0  0  0
   36.7960   28.3200   29.2130 H   0  0  0  0  0  0  0  0  0  0  0  0
   36.4830   30.7540   29.4640 H   0  0  0  0  0  0  0  0  0  0  0  0
   35.9890   30.1840   33.6620 H   0  0  0  0  0  0  0  0  0  0  0  0
   37.5420   22.5030   30.9580 O   0  0  0  0  0  0  0  0  0  0  0  0
   36.7710   21.6830   31.7720 C   0  0  0  0  0  0  0  0  0  0  0  0
   35.7860   20.9880   31.1100 C   0  0  0  0  0  0  0  0  0  0  0  0
   34.9330   20.1310   31.7700 C   0  0  0  0  0  0  0  0  0  0  0  0
   35.0950   19.9790   33.1540 C   0  0  0  0  0  0  0  0  0  0  0  0
   36.0890   20.6820   33.8180 C   0  0  0  0  0  0  0  0  0  0  0  0
   36.9100   21.5200   33.1260 C   0  0  0  0  0  0  0  0  0  0  0  0
   35.6180   21.0680   30.0360 H   0  0  0  0  0  0  0  0  0  0  0  0
   34.1590   19.5860   31.2380 H   0  0  0  0  0  0  0  0  0  0  0  0
   34.4120   19.2960   33.6670 H   0  0  0  0  0  0  0  0  0  0  0  0
   36.1300   20.5010   34.8630 H   0  0  0  0  0  0  0  0  0  0  0  0
   37.9480   22.2630   33.8150 C   0  0  1  0  0  3  0  0  0  0  0  0
   37.9070   22.0980   35.3310 C   0  0  0  0  0  3  0  0  0  0  0  0
   37.7320   21.0520   35.6220 H   0  0  0  0  0  0  0  0  0  0  0  0
   39.3340   22.4990   35.6770 C   0  0  0  0  0  3  0  0  0  0  0  0
   39.8100   21.8150   36.4010 H   0  0  0  0  0  0  0  0  0  0  0  0
   40.0590   22.4860   34.5020 O   0  0  0  0  0  0  0  0  0  0  0  0
   39.3540   21.6920   33.5900 C   0  0  0  0  0  3  0  0  0  0  0  0
   39.7110   21.8620   32.5780 H   0  0  0  0  0  0  0  0  0  0  0  0
  1  7  1  0  0  0  0
  2  1  1  0  0  0  0
  2  9  1  0  0  0  0
  3  2  2  0  0  0  0
  4  5  2  0  0  0  0
  4  3  1  0  0  0  0
  5  6  1  0  0  0  0
  6  1  2  0  0  0  0
  8  3  1  0  0  0  0
  9 15  1  0  0  0  0
 10 11  2  0  0  0  0
 10  9  1  0  0  0  0
 11 12  1  0  0  0  0
 12 13  2  0  0  0  0
 12 14  1  0  0  0  0
 14 19  1  0  0  0  0
 15 14  1  0  0  0  0
 15 16  2  0  0  0  0
 17 10  1  0  0  0  0
 18 11  1  0  0  0  0
 20  5  1  0  0  0  0
 20 21  1  0  0  0  0
 21 26  1  0  0  0  0
 22 23  1  0  0  0  0
 22 21  2  0  0  0  0
 23 24  2  0  0  0  0
 24 29  1  0  0  0  0
 24 25  1  0  0  0  0
 25 30  1  0  0  0  0
 26 25  2  0  0  0  0
 27 22  1  0  0  0  0
 28 23  1  0  0  0  0
 31 26  1  6  0  0  0
 31 32  1  0  0  0  0
 32 33  1  0  0  0  0
 32 34  1  0  0  0  0
 34 35  1  0  0  0  0
 36 34  1  0  0  0  0
 37 31  1  0  0  0  0
 37 36  1  0  0  0  0
 38 37  1  0  0  0  0
M  END
>  <minimizedAffinity>
-5.46286726

$$$$

 OpenBabel03272500093D

 38 41  0  0  1  0  0  0  0  0999 V2000
   36.3610   28.3440   34.5540 C   0  0  0  0  0  0  0  0  0  0  0  0
   35.7110   29.4910   34.0570 C   0  0  0  0  0  0  0  0  0  0  0  0
   35.6950   29.6870   32.6750 C   0  0  0  0  0  0  0  0  0  0  0  0
   36.3080   28.7590   31.8870 N   0  0  0  0  0  0  0  0  0  0  0  0
   36.9160   27.6820   32.3860 C   0  0  0  0  0  0  0  0  0  0  0  0
   36.9560   27.4520   33.7360 N   0  0  0  0  0  0  0  0  0  0  0  0
   36.3800   28.1830   35.6250 H   0  0  0  0  0  0  0  0  0  0  0  0
   35.2020   30.5530   32.2910 H   0  0  0  0  0  0  0  0  0  0  0  0
   35.1140   30.3790   34.9910 N   0  0  0  0  0  0  0  0  0  0  0  0
   35.8160   31.2810   35.6700 C   0  0  0  0  0  0  0  0  0  0  0  0
   35.1490   32.1130   36.5680 C   0  0  0  0  0  0  0  0  0  0  0  0
   33.8030   31.9240   36.6720 C   0  0  0  0  0  0  0  0  0  0  0  0
   33.1910   32.6800   37.4890 O   0  0  0  0  0  0  0  0  0  0  0  0
   33.0790   31.0400   36.0150 N   0  0  0  0  0  0  0  0  0  0  0  0
   33.7530   30.2430   35.1480 C   0  0  0  0  0  0  0  0  0  0  0  0
   33.0680   29.3840   34.5060 O   0  0  0  0  0  0  0  0  0  0  0  0
   36.8820   31.3460   35.5100 H   0  0  0  0  0  0  0  0  0  0  0  0
   35.7430   32.8400   37.1080 H   0  0  0  0  0  0  0  0  0  0  0  0
   32.0480   30.9420   36.1370 H   0  0  0  0  0  0  0  0  0  0  0  0
   37.5480   26.7290   31.5680 O   0  0  0  0  0  0  0  0  0  0  0  0
   37.0490   25.4360   31.6720 C   0  0  0  0  0  0  0  0  0  0  0  0
   35.7880   25.2690   31.1480 C   0  0  0  0  0  0  0  0  0  0  0  0
   35.1490   24.0490   31.1700 C   0  0  0  0  0  0  0  0  0  0  0  0
   35.8220   22.9640   31.7470 C   0  0  0  0  0  0  0  0  0  0  0  0
   37.0930   23.1370   32.2740 C   0  0  0  0  0  0  0  0  0  0  0  0
   37.6880   24.3610   32.2320 C   0  0  0  0  0  0  0  0  0  0  0  0
   35.2210   26.0770   30.6880 H   0  0  0  0  0  0  0  0  0  0  0  0
   34.1530   23.9280   30.7530 H   0  0  0  0  0  0  0  0  0  0  0  0
   35.3050   22.0010   31.7590 H   0  0  0  0  0  0  0  0  0  0  0  0
   37.5190   22.2570   32.6890 H   0  0  0  0  0  0  0  0  0  0  0  0
   39.0150   24.5510   32.7870 C   0  0  1  0  0  3  0  0  0  0  0  0
   39.0350   24.5830   34.3130 C   0  0  0  0  0  3  0  0  0  0  0  0
   38.3940   23.8010   34.7460 H   0  0  0  0  0  0  0  0  0  0  0  0
   40.4980   24.2490   34.5640 C   0  0  0  0  0  3  0  0  0  0  0  0
   40.6380   23.4980   35.3590 H   0  0  0  0  0  0  0  0  0  0  0  0
   41.0130   23.7560   33.3810 O   0  0  0  0  0  0  0  0  0  0  0  0
   39.9290   23.3330   32.6030 C   0  0  0  0  0  3  0  0  0  0  0  0
   40.2320   23.1970   31.5690 H   0  0  0  0  0  0  0  0  0  0  0  0
  1  7  1  0  0  0  0
  2  1  1  0  0  0  0
  2  9  1  0  0  0  0
  3  2  2  0  0  0  0
  4  5  2  0  0  0  0
  4  3  1  0  0  0  0
  5  6  1  0  0  0  0
  6  1  2  0  0  0  0
  8  3  1  0  0  0  0
  9 15  1  0  0  0  0
  9 10  1  0  0  0  0
 10 11  2  0  0  0  0
 11 12  1  0  0  0  0
 11 18  1  0  0  0  0
 12 13  2  0  0  0  0
 14 19  1  0  0  0  0
 14 12  1  0  0  0  0
 15 14  1  0  0  0  0
 16 15  2  0  0  0  0
 17 10  1  0  0  0  0
 20 21  1  0  0  0  0
 20  5  1  0  0  0  0
 21 26  1  0  0  0  0
 22 23  1  0  0  0  0
 22 21  2  0  0  0  0
 23 24  2  0  0  0  0
 24 29  1  0  0  0  0
 24 25  1  0  0  0  0
 25 30  1  0  0  0  0
 26 25  2  0  0  0  0
 27 22  1  0  0  0  0
 28 23  1  0  0  0  0
 31 26  1  1  0  0  0
 31 32  1  0  0  0  0
 32 34  1  0  0  0  0
 32 33  1  0  0  0  0
 34 35  1  0  0  0  0
 36 34  1  0  0  0  0
 37 31  1  0  0  0  0
 37 36  1  0  0  0  0
 38 37  1  0  0  0  0
M  END
>  <minimizedAffinity>
-5.45302725

$$$$
