
 OpenBabel03272505283D

 30 32  0  0  1  0  0  0  0  0999 V2000
   37.8910   22.9870   34.1670 N   0  0  0  0  0  0  0  0  0  0  0  0
   37.9300   24.2180   33.5890 C   0  0  0  0  0  0  0  0  0  0  0  0
   38.0800   25.3800   34.3270 C   0  0  0  0  0  0  0  0  0  0  0  0
   38.1930   25.2450   35.7160 C   0  0  0  0  0  0  0  0  0  0  0  0
   38.3310   26.2660   36.4300 O   0  0  0  0  0  0  0  0  0  0  0  0
   38.1540   24.0060   36.3060 N   0  0  0  0  0  0  0  0  0  0  0  0
   38.0050   22.9610   35.4840 C   0  0  0  0  0  0  0  0  0  0  0  0
   37.9720   21.8520   36.0540 O   0  0  0  0  0  0  0  0  0  0  0  0
   37.8440   24.2990   32.5380 H   0  0  0  0  0  0  0  0  0  0  0  0
   36.3530   20.1170   32.3830 C   0  0  0  0  0  0  0  0  0  0  0  0
   36.4820   21.2840   33.1650 C   0  0  0  0  0  0  0  0  0  0  0  0
   37.7390   21.8290   33.4000 C   0  0  0  0  0  0  0  0  0  0  0  0
   38.8210   21.2100   32.8610 N   0  0  0  0  0  0  0  0  0  0  0  0
   38.7050   20.0830   32.1050 C   0  0  0  0  0  0  0  0  0  0  0  0
   37.4750   19.5410   31.8690 N   0  0  0  0  0  0  0  0  0  0  0  0
   35.4070   19.6430   32.1630 H   0  0  0  0  0  0  0  0  0  0  0  0
   35.5370   21.6190   33.5090 H   0  0  0  0  0  0  0  0  0  0  0  0
   39.5790   19.6050   31.6850 H   0  0  0  0  0  0  0  0  0  0  0  0
   38.1310   26.7510   33.7650 C   0  0  2  0  0  3  0  0  0  0  0  0
   36.7760   27.4490   33.8180 C   0  0  0  0  0  3  0  0  0  0  0  0
   35.9560   26.6950   33.8140 H   0  0  0  0  0  0  0  0  0  0  0  0
   36.7520   28.1910   32.4970 C   0  0  0  0  0  3  0  0  0  0  0  0
   36.0040   27.8080   31.7940 H   0  0  0  0  0  0  0  0  0  0  0  0
   38.0540   28.0910   31.9700 O   0  0  0  0  0  0  0  0  0  0  0  0
   38.3460   26.7340   32.2630 C   0  0  0  0  0  3  0  0  0  0  0  0
   37.5080   26.1820   31.7790 H   0  0  0  0  0  0  0  0  0  0  0  0
   38.2710   23.8680   37.7400 C   0  0  0  0  0  0  0  0  0  0  0  0
   37.3270   23.0000   38.2020 F   0  0  0  0  0  0  0  0  0  0  0  0
   38.0730   25.0640   38.4130 F   0  0  0  0  0  0  0  0  0  0  0  0
   39.5220   23.3460   38.0380 F   0  0  0  0  0  0  0  0  0  0  0  0
  1  7  1  0  0  0  0
  2  1  1  0  0  0  0
  2  3  2  0  0  0  0
  3  4  1  0  0  0  0
  4  6  1  0  0  0  0
  4  5  2  0  0  0  0
  6 27  1  0  0  0  0
  7  8  2  0  0  0  0
  7  6  1  0  0  0  0
  9  2  1  0  0  0  0
 10 11  1  0  0  0  0
 11 12  2  0  0  0  0
 11 17  1  0  0  0  0
 12  1  1  0  0  0  0
 13 12  1  0  0  0  0
 14 13  2  0  0  0  0
 15 14  1  0  0  0  0
 15 10  2  0  0  0  0
 16 10  1  0  0  0  0
 18 14  1  0  0  0  0
 19 20  1  0  0  0  0
 19  3  1  6  0  0  0
 21 20  1  0  0  0  0
 22 20  1  0  0  0  0
 23 22  1  0  0  0  0
 24 25  1  0  0  0  0
 24 22  1  0  0  0  0
 25 19  1  0  0  0  0
 26 25  1  0  0  0  0
 27 30  1  0  0  0  0
 27 28  1  0  0  0  0
 27 29  1  0  0  0  0
M  END
>  <minimizedAffinity>
-5.6177268

$$$$

 OpenBabel03272505283D

 30 32  0  0  1  0  0  0  0  0999 V2000
   38.0270   23.6190   34.2260 N   0  0  0  0  0  0  0  0  0  0  0  0
   37.4140   22.6410   33.5070 C   0  0  0  0  0  0  0  0  0  0  0  0
   36.7510   22.8980   32.3190 C   0  0  0  0  0  0  0  0  0  0  0  0
   36.7320   24.2240   31.8710 C   0  0  0  0  0  0  0  0  0  0  0  0
   36.1470   24.5100   30.8010 O   0  0  0  0  0  0  0  0  0  0  0  0
   37.3490   25.2170   32.5920 N   0  0  0  0  0  0  0  0  0  0  0  0
   37.9550   24.8410   33.7240 C   0  0  0  0  0  0  0  0  0  0  0  0
   38.5020   25.7670   34.3540 O   0  0  0  0  0  0  0  0  0  0  0  0
   37.4400   21.6440   33.8620 H   0  0  0  0  0  0  0  0  0  0  0  0
   40.6250   22.5300   36.6450 C   0  0  0  0  0  0  0  0  0  0  0  0
   39.9740   22.8040   35.4240 C   0  0  0  0  0  0  0  0  0  0  0  0
   38.6890   23.3340   35.4230 C   0  0  0  0  0  0  0  0  0  0  0  0
   38.0910   23.5750   36.6190 N   0  0  0  0  0  0  0  0  0  0  0  0
   38.7120   23.3120   37.8020 C   0  0  0  0  0  0  0  0  0  0  0  0
   39.9730   22.7930   37.8120 N   0  0  0  0  0  0  0  0  0  0  0  0
   41.6220   22.1190   36.7150 H   0  0  0  0  0  0  0  0  0  0  0  0
   40.5870   22.5440   34.5980 H   0  0  0  0  0  0  0  0  0  0  0  0
   38.2180   23.5110   38.7440 H   0  0  0  0  0  0  0  0  0  0  0  0
   36.0640   21.8830   31.4850 C   0  0  2  0  0  3  0  0  0  0  0  0
   35.0590   21.0600   32.2850 C   0  0  0  0  0  3  0  0  0  0  0  0
   35.3520   21.0360   33.3590 H   0  0  0  0  0  0  0  0  0  0  0  0
   35.2530   19.6740   31.7050 C   0  0  0  0  0  3  0  0  0  0  0  0
   35.6920   18.9620   32.4100 H   0  0  0  0  0  0  0  0  0  0  0  0
   36.0630   19.8390   30.5650 O   0  0  0  0  0  0  0  0  0  0  0  0
   37.0090   20.7760   31.0550 C   0  0  0  0  0  3  0  0  0  0  0  0
   37.4200   20.2740   31.9610 H   0  0  0  0  0  0  0  0  0  0  0  0
   37.3290   26.5860   32.1280 C   0  0  0  0  0  0  0  0  0  0  0  0
   37.6280   26.6290   30.7990 F   0  0  0  0  0  0  0  0  0  0  0  0
   38.2610   27.3860   32.7710 F   0  0  0  0  0  0  0  0  0  0  0  0
   36.0500   27.0970   32.3010 F   0  0  0  0  0  0  0  0  0  0  0  0
  1 12  1  0  0  0  0
  2  9  1  0  0  0  0
  2  1  1  0  0  0  0
  3  2  2  0  0  0  0
  4  3  1  0  0  0  0
  4  6  1  0  0  0  0
  5  4  2  0  0  0  0
  6  7  1  0  0  0  0
  7  1  1  0  0  0  0
  7  8  2  0  0  0  0
 10 16  1  0  0  0  0
 10 15  1  0  0  0  0
 11 10  2  0  0  0  0
 12 11  1  0  0  0  0
 12 13  2  0  0  0  0
 13 14  1  0  0  0  0
 14 15  2  0  0  0  0
 14 18  1  0  0  0  0
 17 11  1  0  0  0  0
 19 20  1  0  0  0  0
 19  3  1  1  0  0  0
 20 21  1  0  0  0  0
 22 20  1  0  0  0  0
 22 23  1  0  0  0  0
 24 25  1  0  0  0  0
 24 22  1  0  0  0  0
 25 19  1  0  0  0  0
 25 26  1  0  0  0  0
 27 30  1  0  0  0  0
 27  6  1  0  0  0  0
 27 29  1  0  0  0  0
 28 27  1  0  0  0  0
M  END
>  <minimizedAffinity>
-5.47556782

$$$$

 OpenBabel03272505283D

 30 32  0  0  1  0  0  0  0  0999 V2000
   37.9020   22.9190   34.1150 N   0  0  0  0  0  0  0  0  0  0  0  0
   37.9710   24.1410   33.5240 C   0  0  0  0  0  0  0  0  0  0  0  0
   38.1280   25.3100   34.2500 C   0  0  0  0  0  0  0  0  0  0  0  0
   38.2180   25.1900   35.6420 C   0  0  0  0  0  0  0  0  0  0  0  0
   38.3630   26.2170   36.3450 O   0  0  0  0  0  0  0  0  0  0  0  0
   38.1510   23.9580   36.2460 N   0  0  0  0  0  0  0  0  0  0  0  0
   37.9970   22.9060   35.4350 C   0  0  0  0  0  0  0  0  0  0  0  0
   37.9370   21.8060   36.0160 O   0  0  0  0  0  0  0  0  0  0  0  0
   37.9010   24.2110   32.4700 H   0  0  0  0  0  0  0  0  0  0  0  0
   38.6460   19.9560   32.0040 C   0  0  0  0  0  0  0  0  0  0  0  0
   38.8310   21.1340   32.7580 C   0  0  0  0  0  0  0  0  0  0  0  0
   37.7430   21.7540   33.3600 C   0  0  0  0  0  0  0  0  0  0  0  0
   36.5150   21.1960   33.2010 N   0  0  0  0  0  0  0  0  0  0  0  0
   36.3270   20.0590   32.4750 C   0  0  0  0  0  0  0  0  0  0  0  0
   37.3900   19.4440   31.8810 N   0  0  0  0  0  0  0  0  0  0  0  0
   39.4490   19.4260   31.5110 H   0  0  0  0  0  0  0  0  0  0  0  0
   39.8510   21.4280   32.7630 H   0  0  0  0  0  0  0  0  0  0  0  0
   35.3410   19.6310   32.3600 H   0  0  0  0  0  0  0  0  0  0  0  0
   38.2110   26.6720   33.6730 C   0  0  2  0  0  3  0  0  0  0  0  0
   36.8340   27.2930   33.4540 C   0  0  0  0  0  3  0  0  0  0  0  0
   36.0710   26.4930   33.3160 H   0  0  0  0  0  0  0  0  0  0  0  0
   37.0190   28.0120   32.1330 C   0  0  0  0  0  3  0  0  0  0  0  0
   36.4380   27.5760   31.3130 H   0  0  0  0  0  0  0  0  0  0  0  0
   38.4000   27.9790   31.8610 O   0  0  0  0  0  0  0  0  0  0  0  0
   38.7050   26.6460   32.2380 C   0  0  0  0  0  3  0  0  0  0  0  0
   38.0030   26.0390   31.6200 H   0  0  0  0  0  0  0  0  0  0  0  0
   38.2440   23.8370   37.6830 C   0  0  0  0  0  0  0  0  0  0  0  0
   37.2920   22.9730   38.1380 F   0  0  0  0  0  0  0  0  0  0  0  0
   38.0350   25.0390   38.3400 F   0  0  0  0  0  0  0  0  0  0  0  0
   39.4900   23.3180   38.0080 F   0  0  0  0  0  0  0  0  0  0  0  0
  1  7  1  0  0  0  0
  2  1  1  0  0  0  0
  2  3  2  0  0  0  0
  3  4  1  0  0  0  0
  4  6  1  0  0  0  0
  4  5  2  0  0  0  0
  6 27  1  0  0  0  0
  7  8  2  0  0  0  0
  7  6  1  0  0  0  0
  9  2  1  0  0  0  0
 10 11  1  0  0  0  0
 11 17  1  0  0  0  0
 11 12  2  0  0  0  0
 12  1  1  0  0  0  0
 13 12  1  0  0  0  0
 14 13  2  0  0  0  0
 15 10  2  0  0  0  0
 15 14  1  0  0  0  0
 16 10  1  0  0  0  0
 18 14  1  0  0  0  0
 19  3  1  6  0  0  0
 20 19  1  0  0  0  0
 21 20  1  0  0  0  0
 22 20  1  0  0  0  0
 23 22  1  0  0  0  0
 24 22  1  0  0  0  0
 24 25  1  0  0  0  0
 25 19  1  0  0  0  0
 26 25  1  0  0  0  0
 27 30  1  0  0  0  0
 27 28  1  0  0  0  0
 27 29  1  0  0  0  0
M  END
>  <minimizedAffinity>
-5.46475172

$$$$

 OpenBabel03272505283D

 30 32  0  0  1  0  0  0  0  0999 V2000
   37.4010   23.2260   33.0510 N   0  0  0  0  0  0  0  0  0  0  0  0
   38.1000   23.0430   34.2030 C   0  0  0  0  0  0  0  0  0  0  0  0
   38.4960   24.0980   35.0070 C   0  0  0  0  0  0  0  0  0  0  0  0
   38.1460   25.3870   34.5880 C   0  0  0  0  0  0  0  0  0  0  0  0
   38.4800   26.3770   35.2810 O   0  0  0  0  0  0  0  0  0  0  0  0
   37.4400   25.5800   33.4260 N   0  0  0  0  0  0  0  0  0  0  0  0
   37.1170   24.4800   32.7370 C   0  0  0  0  0  0  0  0  0  0  0  0
   36.4800   24.6920   31.6880 O   0  0  0  0  0  0  0  0  0  0  0  0
   38.3540   22.0600   34.5030 H   0  0  0  0  0  0  0  0  0  0  0  0
   35.4200   20.4220   31.6360 C   0  0  0  0  0  0  0  0  0  0  0  0
   35.7930   21.5090   32.4540 C   0  0  0  0  0  0  0  0  0  0  0  0
   37.0130   22.1450   32.2560 C   0  0  0  0  0  0  0  0  0  0  0  0
   37.8210   21.6900   31.2640 N   0  0  0  0  0  0  0  0  0  0  0  0
   37.4690   20.6410   30.4700 C   0  0  0  0  0  0  0  0  0  0  0  0
   36.2740   20.0120   30.6570 N   0  0  0  0  0  0  0  0  0  0  0  0
   34.4870   19.8860   31.7380 H   0  0  0  0  0  0  0  0  0  0  0  0
   35.0460   21.7160   33.1790 H   0  0  0  0  0  0  0  0  0  0  0  0
   38.1280   20.2950   29.6840 H   0  0  0  0  0  0  0  0  0  0  0  0
   39.2570   23.9710   36.2730 C   0  0  2  0  0  3  0  0  0  0  0  0
   40.4320   23.0060   36.1480 C   0  0  0  0  0  3  0  0  0  0  0  0
   40.2300   22.2590   35.3470 H   0  0  0  0  0  0  0  0  0  0  0  0
   40.3980   22.2940   37.4860 C   0  0  0  0  0  3  0  0  0  0  0  0
   40.1240   21.2370   37.4120 H   0  0  0  0  0  0  0  0  0  0  0  0
   39.4850   23.0090   38.2840 O   0  0  0  0  0  0  0  0  0  0  0  0
   38.4540   23.2530   37.3410 C   0  0  0  0  0  3  0  0  0  0  0  0
   38.1930   22.2320   36.9790 H   0  0  0  0  0  0  0  0  0  0  0  0
   37.0800   26.9120   32.9950 C   0  0  0  0  0  0  0  0  0  0  0  0
   36.6470   27.6420   34.0620 F   0  0  0  0  0  0  0  0  0  0  0  0
   36.0510   26.9180   32.0670 F   0  0  0  0  0  0  0  0  0  0  0  0
   38.2070   27.5330   32.4740 F   0  0  0  0  0  0  0  0  0  0  0  0
  1  2  1  0  0  0  0
  2  9  1  0  0  0  0
  2  3  2  0  0  0  0
  4  3  1  0  0  0  0
  4  5  2  0  0  0  0
  6  4  1  0  0  0  0
  7  1  1  0  0  0  0
  7  6  1  0  0  0  0
  8  7  2  0  0  0  0
 10 16  1  0  0  0  0
 10 11  1  0  0  0  0
 11 17  1  0  0  0  0
 12 11  2  0  0  0  0
 12  1  1  0  0  0  0
 13 12  1  0  0  0  0
 14 15  1  0  0  0  0
 14 13  2  0  0  0  0
 15 10  2  0  0  0  0
 18 14  1  0  0  0  0
 19  3  1  6  0  0  0
 19 25  1  0  0  0  0
 20 19  1  0  0  0  0
 20 22  1  0  0  0  0
 21 20  1  0  0  0  0
 22 24  1  0  0  0  0
 23 22  1  0  0  0  0
 25 24  1  0  0  0  0
 26 25  1  0  0  0  0
 27  6  1  0  0  0  0
 27 28  1  0  0  0  0
 29 27  1  0  0  0  0
 30 27  1  0  0  0  0
M  END
>  <minimizedAffinity>
-5.36266279

$$$$

 OpenBabel03272505283D

 30 32  0  0  1  0  0  0  0  0999 V2000
   39.0110   24.4060   34.8200 N   0  0  0  0  0  0  0  0  0  0  0  0
   40.0620   23.5700   34.6060 C   0  0  0  0  0  0  0  0  0  0  0  0
   40.6100   22.7930   35.6120 C   0  0  0  0  0  0  0  0  0  0  0  0
   40.0360   22.8960   36.8840 C   0  0  0  0  0  0  0  0  0  0  0  0
   40.4940   22.2130   37.8300 O   0  0  0  0  0  0  0  0  0  0  0  0
   38.9740   23.7380   37.1080 N   0  0  0  0  0  0  0  0  0  0  0  0
   38.5360   24.4360   36.0540 C   0  0  0  0  0  0  0  0  0  0  0  0
   37.5740   25.1910   36.2940 O   0  0  0  0  0  0  0  0  0  0  0  0
   40.4820   23.5050   33.6360 H   0  0  0  0  0  0  0  0  0  0  0  0
   38.4210   27.2090   32.4580 C   0  0  0  0  0  0  0  0  0  0  0  0
   38.9740   26.4480   33.5080 C   0  0  0  0  0  0  0  0  0  0  0  0
   38.4760   25.1800   33.7880 C   0  0  0  0  0  0  0  0  0  0  0  0
   37.4550   24.7080   33.0270 N   0  0  0  0  0  0  0  0  0  0  0  0
   36.9150   25.4370   32.0110 C   0  0  0  0  0  0  0  0  0  0  0  0
   37.3980   26.6810   31.7300 N   0  0  0  0  0  0  0  0  0  0  0  0
   38.7610   28.1990   32.1890 H   0  0  0  0  0  0  0  0  0  0  0  0
   39.7510   26.9790   33.9970 H   0  0  0  0  0  0  0  0  0  0  0  0
   36.1020   25.0420   31.4160 H   0  0  0  0  0  0  0  0  0  0  0  0
   41.7520   21.8620   35.4500 C   0  0  2  0  0  3  0  0  0  0  0  0
   43.0980   22.5750   35.5400 C   0  0  0  0  0  3  0  0  0  0  0  0
   42.9860   23.6430   35.2430 H   0  0  0  0  0  0  0  0  0  0  0  0
   43.9040   21.8630   34.4730 C   0  0  0  0  0  3  0  0  0  0  0  0
   44.1520   22.4970   33.6160 H   0  0  0  0  0  0  0  0  0  0  0  0
   43.1380   20.7470   34.0850 O   0  0  0  0  0  0  0  0  0  0  0  0
   41.8450   21.3290   34.0310 C   0  0  0  0  0  3  0  0  0  0  0  0
   41.9780   22.1830   33.3280 H   0  0  0  0  0  0  0  0  0  0  0  0
   38.3820   23.8440   38.4230 C   0  0  0  0  0  0  0  0  0  0  0  0
   37.8580   25.0910   38.5970 F   0  0  0  0  0  0  0  0  0  0  0  0
   39.3000   23.6530   39.4440 F   0  0  0  0  0  0  0  0  0  0  0  0
   37.3480   22.9220   38.5220 F   0  0  0  0  0  0  0  0  0  0  0  0
  1  7  1  0  0  0  0
  2  1  1  0  0  0  0
  2  3  2  0  0  0  0
  3  4  1  0  0  0  0
  4  6  1  0  0  0  0
  4  5  2  0  0  0  0
  6 27  1  0  0  0  0
  7  8  2  0  0  0  0
  7  6  1  0  0  0  0
  9  2  1  0  0  0  0
 10 11  1  0  0  0  0
 11 12  2  0  0  0  0
 11 17  1  0  0  0  0
 12  1  1  0  0  0  0
 13 12  1  0  0  0  0
 14 13  2  0  0  0  0
 15 14  1  0  0  0  0
 15 10  2  0  0  0  0
 16 10  1  0  0  0  0
 18 14  1  0  0  0  0
 19 20  1  0  0  0  0
 19  3  1  6  0  0  0
 21 20  1  0  0  0  0
 22 20  1  0  0  0  0
 23 22  1  0  0  0  0
 24 22  1  0  0  0  0
 25 24  1  0  0  0  0
 25 19  1  0  0  0  0
 26 25  1  0  0  0  0
 27 30  1  0  0  0  0
 27 28  1  0  0  0  0
 27 29  1  0  0  0  0
M  END
>  <minimizedAffinity>
-5.35379171

$$$$

 OpenBabel03272505283D

 30 32  0  0  1  0  0  0  0  0999 V2000
   37.9620   23.3340   34.2040 N   0  0  0  0  0  0  0  0  0  0  0  0
   38.0040   24.5410   33.5800 C   0  0  0  0  0  0  0  0  0  0  0  0
   37.3430   24.7850   32.3880 C   0  0  0  0  0  0  0  0  0  0  0  0
   36.6120   23.7270   31.8350 C   0  0  0  0  0  0  0  0  0  0  0  0
   35.9940   23.8950   30.7580 O   0  0  0  0  0  0  0  0  0  0  0  0
   36.5640   22.5040   32.4600 N   0  0  0  0  0  0  0  0  0  0  0  0
   37.2460   22.3960   33.6060 C   0  0  0  0  0  0  0  0  0  0  0  0
   37.1830   21.2740   34.1440 O   0  0  0  0  0  0  0  0  0  0  0  0
   38.5620   25.3290   34.0150 H   0  0  0  0  0  0  0  0  0  0  0  0
   38.8150   23.3200   37.8180 C   0  0  0  0  0  0  0  0  0  0  0  0
   38.1170   23.5590   36.6160 C   0  0  0  0  0  0  0  0  0  0  0  0
   38.6380   23.1130   35.4070 C   0  0  0  0  0  0  0  0  0  0  0  0
   39.8240   22.4510   35.4220 N   0  0  0  0  0  0  0  0  0  0  0  0
   40.5050   22.2170   36.5780 C   0  0  0  0  0  0  0  0  0  0  0  0
   40.0010   22.6500   37.7690 N   0  0  0  0  0  0  0  0  0  0  0  0
   38.4660   23.6390   38.7890 H   0  0  0  0  0  0  0  0  0  0  0  0
   37.2210   24.0970   36.7960 H   0  0  0  0  0  0  0  0  0  0  0  0
   41.4480   21.6870   36.5680 H   0  0  0  0  0  0  0  0  0  0  0  0
   37.3450   26.0720   31.6550 C   0  0  2  0  0  3  0  0  0  0  0  0
   38.6210   26.2740   30.8420 C   0  0  0  0  0  3  0  0  0  0  0  0
   39.4590   25.6980   31.2960 H   0  0  0  0  0  0  0  0  0  0  0  0
   38.8920   27.7510   31.0420 C   0  0  0  0  0  3  0  0  0  0  0  0
   39.7910   27.9550   31.6320 H   0  0  0  0  0  0  0  0  0  0  0  0
   37.7410   28.2790   31.6570 O   0  0  0  0  0  0  0  0  0  0  0  0
   37.4590   27.2560   32.5980 C   0  0  0  0  0  3  0  0  0  0  0  0
   38.4090   27.1730   33.1760 H   0  0  0  0  0  0  0  0  0  0  0  0
   35.8090   21.4130   31.8880 C   0  0  0  0  0  0  0  0  0  0  0  0
   35.2030   21.8220   30.7370 F   0  0  0  0  0  0  0  0  0  0  0  0
   34.8030   20.9560   32.7250 F   0  0  0  0  0  0  0  0  0  0  0  0
   36.6830   20.3820   31.5730 F   0  0  0  0  0  0  0  0  0  0  0  0
  1 12  1  0  0  0  0
  2  9  1  0  0  0  0
  2  1  1  0  0  0  0
  3  2  2  0  0  0  0
  4  3  1  0  0  0  0
  4  6  1  0  0  0  0
  5  4  2  0  0  0  0
  6  7  1  0  0  0  0
  7  8  2  0  0  0  0
  7  1  1  0  0  0  0
 10 16  1  0  0  0  0
 11 17  1  0  0  0  0
 11 10  2  0  0  0  0
 12 13  2  0  0  0  0
 12 11  1  0  0  0  0
 13 14  1  0  0  0  0
 14 15  2  0  0  0  0
 15 10  1  0  0  0  0
 18 14  1  0  0  0  0
 19  3  1  1  0  0  0
 19 25  1  0  0  0  0
 20 22  1  0  0  0  0
 20 21  1  0  0  0  0
 20 19  1  0  0  0  0
 22 23  1  0  0  0  0
 22 24  1  0  0  0  0
 24 25  1  0  0  0  0
 25 26  1  0  0  0  0
 27  6  1  0  0  0  0
 27 29  1  0  0  0  0
 28 27  1  0  0  0  0
 30 27  1  0  0  0  0
M  END
>  <minimizedAffinity>
-5.32864475

$$$$

 OpenBabel03272505283D

 30 32  0  0  1  0  0  0  0  0999 V2000
   37.8860   22.8230   34.7810 N   0  0  0  0  0  0  0  0  0  0  0  0
   38.2900   23.6390   33.7710 C   0  0  0  0  0  0  0  0  0  0  0  0
   37.8970   23.4460   32.4570 C   0  0  0  0  0  0  0  0  0  0  0  0
   37.0530   22.3600   32.1960 C   0  0  0  0  0  0  0  0  0  0  0  0
   36.6670   22.1410   31.0240 O   0  0  0  0  0  0  0  0  0  0  0  0
   36.6400   21.5320   33.2120 N   0  0  0  0  0  0  0  0  0  0  0  0
   37.0890   21.8250   34.4370 C   0  0  0  0  0  0  0  0  0  0  0  0
   36.6980   21.0520   35.3330 O   0  0  0  0  0  0  0  0  0  0  0  0
   38.9280   24.4550   33.9880 H   0  0  0  0  0  0  0  0  0  0  0  0
   39.9070   22.7850   37.8950 C   0  0  0  0  0  0  0  0  0  0  0  0
   39.5110   22.5490   36.5620 C   0  0  0  0  0  0  0  0  0  0  0  0
   38.2960   23.0400   36.0990 C   0  0  0  0  0  0  0  0  0  0  0  0
   37.5160   23.7440   36.9590 N   0  0  0  0  0  0  0  0  0  0  0  0
   37.8910   23.9760   38.2480 C   0  0  0  0  0  0  0  0  0  0  0  0
   39.0810   23.4980   38.7110 N   0  0  0  0  0  0  0  0  0  0  0  0
   40.8370   22.4310   38.3180 H   0  0  0  0  0  0  0  0  0  0  0  0
   40.2380   21.9750   36.0440 H   0  0  0  0  0  0  0  0  0  0  0  0
   37.2540   24.5390   38.9180 H   0  0  0  0  0  0  0  0  0  0  0  0
   38.2970   24.2930   31.3100 C   0  0  2  0  0  3  0  0  0  0  0  0
   39.7660   24.7010   31.3750 C   0  0  0  0  0  3  0  0  0  0  0  0
   40.1170   24.7010   32.4320 H   0  0  0  0  0  0  0  0  0  0  0  0
   39.7180   26.1350   30.8860 C   0  0  0  0  0  3  0  0  0  0  0  0
   39.9620   26.8690   31.6610 H   0  0  0  0  0  0  0  0  0  0  0  0
   38.4180   26.3300   30.3810 O   0  0  0  0  0  0  0  0  0  0  0  0
   37.6530   25.6660   31.3740 C   0  0  0  0  0  3  0  0  0  0  0  0
   37.9640   26.1730   32.3170 H   0  0  0  0  0  0  0  0  0  0  0  0
   35.7680   20.4120   32.9400 C   0  0  0  0  0  0  0  0  0  0  0  0
   34.6170   20.8520   32.3570 F   0  0  0  0  0  0  0  0  0  0  0  0
   35.3950   19.7290   34.0880 F   0  0  0  0  0  0  0  0  0  0  0  0
   36.4040   19.5560   32.0520 F   0  0  0  0  0  0  0  0  0  0  0  0
  1 12  1  0  0  0  0
  2  9  1  0  0  0  0
  2  1  1  0  0  0  0
  3  2  2  0  0  0  0
  4  3  1  0  0  0  0
  4  6  1  0  0  0  0
  5  4  2  0  0  0  0
  6  7  1  0  0  0  0
  7  1  1  0  0  0  0
  7  8  2  0  0  0  0
 10 16  1  0  0  0  0
 10 15  1  0  0  0  0
 11 10  2  0  0  0  0
 12 11  1  0  0  0  0
 12 13  2  0  0  0  0
 13 14  1  0  0  0  0
 14 15  2  0  0  0  0
 14 18  1  0  0  0  0
 17 11  1  0  0  0  0
 19 25  1  0  0  0  0
 19 20  1  0  0  0  0
 19  3  1  1  0  0  0
 20 21  1  0  0  0  0
 22 20  1  0  0  0  0
 22 23  1  0  0  0  0
 24 22  1  0  0  0  0
 24 25  1  0  0  0  0
 25 26  1  0  0  0  0
 27  6  1  0  0  0  0
 27 29  1  0  0  0  0
 28 27  1  0  0  0  0
 30 27  1  0  0  0  0
M  END
>  <minimizedAffinity>
-5.30707312

$$$$

 OpenBabel03272505283D

 30 32  0  0  1  0  0  0  0  0999 V2000
   37.3200   24.8630   32.5300 N   0  0  0  0  0  0  0  0  0  0  0  0
   38.0180   24.4670   33.6280 C   0  0  0  0  0  0  0  0  0  0  0  0
   37.9940   23.1630   34.0930 C   0  0  0  0  0  0  0  0  0  0  0  0
   37.2120   22.2460   33.3810 C   0  0  0  0  0  0  0  0  0  0  0  0
   37.1570   21.0520   33.7600 O   0  0  0  0  0  0  0  0  0  0  0  0
   36.5050   22.6380   32.2710 N   0  0  0  0  0  0  0  0  0  0  0  0
   36.6110   23.9260   31.9240 C   0  0  0  0  0  0  0  0  0  0  0  0
   35.9550   24.2470   30.9140 O   0  0  0  0  0  0  0  0  0  0  0  0
   38.6040   25.1760   34.1530 H   0  0  0  0  0  0  0  0  0  0  0  0
   36.6540   28.5030   32.2180 C   0  0  0  0  0  0  0  0  0  0  0  0
   36.5920   27.1730   32.6860 C   0  0  0  0  0  0  0  0  0  0  0  0
   37.3610   26.1850   32.0810 C   0  0  0  0  0  0  0  0  0  0  0  0
   38.1610   26.5380   31.0410 N   0  0  0  0  0  0  0  0  0  0  0  0
   38.2260   27.8190   30.5830 C   0  0  0  0  0  0  0  0  0  0  0  0
   37.4750   28.7950   31.1710 N   0  0  0  0  0  0  0  0  0  0  0  0
   36.0840   29.3160   32.6430 H   0  0  0  0  0  0  0  0  0  0  0  0
   35.9100   27.0840   33.4930 H   0  0  0  0  0  0  0  0  0  0  0  0
   38.8690   28.0800   29.7540 H   0  0  0  0  0  0  0  0  0  0  0  0
   38.7280   22.6630   35.2790 C   0  0  2  0  0  3  0  0  0  0  0  0
   37.9630   22.9040   36.5780 C   0  0  0  0  0  3  0  0  0  0  0  0
   37.2810   23.7770   36.4640 H   0  0  0  0  0  0  0  0  0  0  0  0
   39.0760   23.2880   37.5320 C   0  0  0  0  0  3  0  0  0  0  0  0
   39.0320   24.3320   37.8580 H   0  0  0  0  0  0  0  0  0  0  0  0
   40.2800   23.0080   36.8590 O   0  0  0  0  0  0  0  0  0  0  0  0
   39.9690   23.4900   35.5620 C   0  0  0  0  0  3  0  0  0  0  0  0
   39.6700   24.5470   35.7470 H   0  0  0  0  0  0  0  0  0  0  0  0
   35.6990   21.6890   31.5370 C   0  0  0  0  0  0  0  0  0  0  0  0
   36.4870   20.6850   31.0560 F   0  0  0  0  0  0  0  0  0  0  0  0
   35.0640   22.2540   30.4420 F   0  0  0  0  0  0  0  0  0  0  0  0
   34.7680   21.1310   32.4020 F   0  0  0  0  0  0  0  0  0  0  0  0
  1  2  1  0  0  0  0
  2  3  2  0  0  0  0
  2  9  1  0  0  0  0
  4  5  2  0  0  0  0
  4  3  1  0  0  0  0
  6  4  1  0  0  0  0
  7  6  1  0  0  0  0
  7  1  1  0  0  0  0
  8  7  2  0  0  0  0
 10 16  1  0  0  0  0
 10 11  1  0  0  0  0
 11 17  1  0  0  0  0
 12  1  1  0  0  0  0
 12 11  2  0  0  0  0
 13 12  1  0  0  0  0
 14 13  2  0  0  0  0
 14 15  1  0  0  0  0
 15 10  2  0  0  0  0
 18 14  1  0  0  0  0
 19  3  1  6  0  0  0
 19 25  1  0  0  0  0
 19 20  1  0  0  0  0
 20 22  1  0  0  0  0
 21 20  1  0  0  0  0
 22 23  1  0  0  0  0
 24 22  1  0  0  0  0
 25 26  1  0  0  0  0
 25 24  1  0  0  0  0
 27  6  1  0  0  0  0
 27 30  1  0  0  0  0
 28 27  1  0  0  0  0
 29 27  1  0  0  0  0
M  END
>  <minimizedAffinity>
-5.14783907

$$$$

 OpenBabel03272505283D

 30 32  0  0  1  0  0  0  0  0999 V2000
   37.0240   25.1740   32.1070 N   0  0  0  0  0  0  0  0  0  0  0  0
   36.4010   24.1440   31.4740 C   0  0  0  0  0  0  0  0  0  0  0  0
   36.4860   22.8370   31.9220 C   0  0  0  0  0  0  0  0  0  0  0  0
   37.2480   22.6040   33.0730 C   0  0  0  0  0  0  0  0  0  0  0  0
   37.3560   21.4390   33.5220 O   0  0  0  0  0  0  0  0  0  0  0  0
   37.8790   23.6400   33.7180 N   0  0  0  0  0  0  0  0  0  0  0  0
   37.7200   24.8570   33.1860 C   0  0  0  0  0  0  0  0  0  0  0  0
   38.3080   25.7720   33.7950 O   0  0  0  0  0  0  0  0  0  0  0  0
   35.8300   24.3400   30.6050 H   0  0  0  0  0  0  0  0  0  0  0  0
   37.7010   28.3090   30.2350 C   0  0  0  0  0  0  0  0  0  0  0  0
   37.8260   26.9840   30.7020 C   0  0  0  0  0  0  0  0  0  0  0  0
   36.9230   26.4850   31.6340 C   0  0  0  0  0  0  0  0  0  0  0  0
   35.9320   27.3040   32.0720 N   0  0  0  0  0  0  0  0  0  0  0  0
   35.8040   28.5850   31.6270 C   0  0  0  0  0  0  0  0  0  0  0  0
   36.6860   29.0820   30.7120 N   0  0  0  0  0  0  0  0  0  0  0  0
   38.3690   28.7570   29.5130 H   0  0  0  0  0  0  0  0  0  0  0  0
   38.6610   26.5000   30.2600 H   0  0  0  0  0  0  0  0  0  0  0  0
   35.0080   29.2210   31.9880 H   0  0  0  0  0  0  0  0  0  0  0  0
   35.8360   21.6680   31.2840 C   0  0  2  0  0  3  0  0  0  0  0  0
   34.9100   20.9250   32.2420 C   0  0  0  0  0  3  0  0  0  0  0  0
   35.2400   21.0850   33.2940 H   0  0  0  0  0  0  0  0  0  0  0  0
   35.1700   19.4790   31.8740 C   0  0  0  0  0  3  0  0  0  0  0  0
   35.6760   18.9110   32.6620 H   0  0  0  0  0  0  0  0  0  0  0  0
   35.9310   19.5090   30.6900 O   0  0  0  0  0  0  0  0  0  0  0  0
   36.8330   20.5620   30.9900 C   0  0  0  0  0  3  0  0  0  0  0  0
   37.3040   20.2310   31.9440 H   0  0  0  0  0  0  0  0  0  0  0  0
   38.6640   23.3980   34.9070 C   0  0  0  0  0  0  0  0  0  0  0  0
   39.7840   24.1770   34.8900 F   0  0  0  0  0  0  0  0  0  0  0  0
   39.0970   22.0850   35.0090 F   0  0  0  0  0  0  0  0  0  0  0  0
   37.9110   23.7480   36.0190 F   0  0  0  0  0  0  0  0  0  0  0  0
  1  7  1  0  0  0  0
  2  3  2  0  0  0  0
  2  1  1  0  0  0  0
  3  4  1  0  0  0  0
  4  5  2  0  0  0  0
  4  6  1  0  0  0  0
  6 27  1  0  0  0  0
  7  6  1  0  0  0  0
  7  8  2  0  0  0  0
  9  2  1  0  0  0  0
 10 11  2  0  0  0  0
 10 15  1  0  0  0  0
 11 12  1  0  0  0  0
 12 13  2  0  0  0  0
 12  1  1  0  0  0  0
 14 18  1  0  0  0  0
 14 13  1  0  0  0  0
 15 14  2  0  0  0  0
 16 10  1  0  0  0  0
 17 11  1  0  0  0  0
 19  3  1  1  0  0  0
 19 20  1  0  0  0  0
 20 21  1  0  0  0  0
 22 20  1  0  0  0  0
 22 23  1  0  0  0  0
 24 25  1  0  0  0  0
 24 22  1  0  0  0  0
 25 19  1  0  0  0  0
 25 26  1  0  0  0  0
 27 29  1  0  0  0  0
 27 30  1  0  0  0  0
 28 27  1  0  0  0  0
M  END
>  <minimizedAffinity>
-5.11447477

$$$$
