
 OpenBabel03272508123D

 33 35  0  0  1  0  0  0  0  0999 V2000
   36.6760   29.4810   44.0800 Cl  0  0  0  0  0  0  0  0  0  0  0  0
   38.3180   29.8590   43.5460 C   0  0  0  0  0  0  0  0  0  0  0  0
   39.3190   30.3330   44.3970 C   0  0  0  0  0  0  0  0  0  0  0  0
   40.5720   30.5910   43.8450 C   0  0  0  0  0  0  0  0  0  0  0  0
   40.7890   30.3780   42.5040 C   0  0  0  0  0  0  0  0  0  0  0  0
   39.8270   29.9160   41.6550 C   0  0  0  0  0  0  0  0  0  0  0  0
   38.5910   29.6580   42.1850 C   0  0  0  0  0  0  0  0  0  0  0  0
   41.2680   30.9520   44.5890 H   0  0  0  0  0  0  0  0  0  0  0  0
   41.8040   30.6100   42.1660 H   0  0  0  0  0  0  0  0  0  0  0  0
   40.0890   29.7790   40.6160 H   0  0  0  0  0  0  0  0  0  0  0  0
   37.5290   29.1540   41.2750 C   0  0  2  0  0  3  0  0  0  0  0  0
   37.5040   27.6340   41.1990 C   0  0  0  0  0  3  0  0  0  0  0  0
   38.1910   27.1470   41.9040 H   0  0  0  0  0  0  0  0  0  0  0  0
   37.8820   27.3970   39.7530 C   0  0  0  0  0  3  0  0  0  0  0  0
   38.5310   26.4920   39.6440 H   0  0  0  0  0  0  0  0  0  0  0  0
   38.5560   28.5470   39.3480 O   0  0  0  0  0  0  0  0  0  0  0  0
   37.7480   29.5570   39.8630 C   0  0  0  0  0  3  0  0  0  0  0  0
   36.7610   29.4250   39.3350 H   0  0  0  0  0  0  0  0  0  0  0  0
   38.8840   30.4700   45.6860 O   0  0  0  0  0  0  0  0  0  0  0  0
   39.4420   32.5420   47.1410 O   0  0  0  0  0  0  0  0  0  0  0  0
   38.3180   31.8580   46.4510 P   0  0  1  0  0  0  0  0  0  0  0  0
   37.7220   32.8600   45.2030 O   0  0  0  0  0  0  0  0  0  0  0  0
   38.5050   33.2090   44.6900 H   0  0  0  0  0  0  0  0  0  0  0  0
   37.0300   31.4330   47.4710 O   0  0  0  0  0  0  0  0  0  0  0  0
   37.6050   30.5180   51.0080 C   0  0  0  0  0  0  0  0  0  0  0  0
   37.7030   31.3030   49.8550 C   0  0  0  0  0  0  0  0  0  0  0  0
   37.0700   30.8480   48.6890 C   0  0  0  0  0  0  0  0  0  0  0  0
   36.3930   29.6660   48.7410 N   0  0  0  0  0  0  0  0  0  0  0  0
   36.3250   28.9420   49.8750 C   0  0  0  0  0  0  0  0  0  0  0  0
   36.9270   29.3680   50.9970 N   0  0  0  0  0  0  0  0  0  0  0  0
   38.1160   30.9230   51.8800 H   0  0  0  0  0  0  0  0  0  0  0  0
   38.2190   32.2450   49.7400 H   0  0  0  0  0  0  0  0  0  0  0  0
   35.7940   28.0000   49.9400 H   0  0  0  0  0  0  0  0  0  0  0  0
  2  1  1  0  0  0  0
  2  3  1  0  0  0  0
  3 19  1  0  0  0  0
  4  3  2  0  0  0  0
  4  8  1  0  0  0  0
  5  4  1  0  0  0  0
  6  7  1  0  0  0  0
  6  5  2  0  0  0  0
  7  2  2  0  0  0  0
  9  5  1  0  0  0  0
 10  6  1  0  0  0  0
 11  7  1  1  0  0  0
 12 11  1  0  0  0  0
 12 13  1  0  0  0  0
 14 12  1  0  0  0  0
 15 14  1  0  0  0  0
 16 14  1  0  0  0  0
 16 17  1  0  0  0  0
 17 11  1  0  0  0  0
 18 17  1  0  0  0  0
 19 21  1  0  0  0  0
 21 20  2  1  0  0  0
 21 24  1  0  0  0  0
 22 21  1  0  0  0  0
 23 22  1  0  0  0  0
 24 27  1  0  0  0  0
 25 31  1  0  0  0  0
 26 25  2  0  0  0  0
 27 28  2  0  0  0  0
 27 26  1  0  0  0  0
 28 29  1  0  0  0  0
 29 33  1  0  0  0  0
 29 30  2  0  0  0  0
 30 25  1  0  0  0  0
 32 26  1  0  0  0  0
M  END
>  <minimizedAffinity>
-4.88329363

>  <minimizedRMSD>
0.0906850174

$$$$
