
 OpenBabel03272507373D

 22 23  0  0  1  0  0  0  0  0999 V2000
   37.2370   30.6310   49.2290 C   0  0  0  0  0  0  0  0  0  0  0  0
   36.2830   29.6760   48.9260 C   0  0  0  0  0  0  0  0  0  0  0  0
   35.7250   28.9250   49.9320 C   0  0  0  0  0  0  0  0  0  0  0  0
   36.1510   29.1670   51.2110 N   0  0  0  0  0  0  0  0  0  0  0  0
   37.0890   30.1100   51.4960 C   0  0  0  0  0  0  0  0  0  0  0  0
   37.6160   30.8230   50.5070 N   0  0  0  0  0  0  0  0  0  0  0  0
   34.9720   28.1640   49.7400 H   0  0  0  0  0  0  0  0  0  0  0  0
   37.4070   30.2780   52.5170 H   0  0  0  0  0  0  0  0  0  0  0  0
   34.5850   29.9600   47.1980 C   0  0  0  0  0  0  0  0  0  0  0  0
   33.7020   30.7310   47.6950 O   0  0  0  0  0  0  0  0  0  0  0  0
   35.8210   29.4000   47.6300 N   0  0  0  0  0  0  0  0  0  0  0  0
   34.1590   29.7640   46.2100 H   0  0  0  0  0  0  0  0  0  0  0  0
   36.2780   28.8210   46.9160 H   0  0  0  0  0  0  0  0  0  0  0  0
   37.7120   31.3080   48.1230 O   0  0  0  0  0  0  0  0  0  0  0  0
   38.7940   32.1750   48.3660 C   0  0  2  0  0  3  0  0  0  0  0  0
   38.3970   33.4340   49.1100 C   0  0  0  0  0  3  0  0  0  0  0  0
   38.3150   33.3050   50.1960 H   0  0  0  0  0  0  0  0  0  0  0  0
   39.5380   34.3480   48.7000 C   0  0  0  0  0  3  0  0  0  0  0  0
   39.1710   35.3750   48.5090 H   0  0  0  0  0  0  0  0  0  0  0  0
   40.1330   33.7970   47.5870 O   0  0  0  0  0  0  0  0  0  0  0  0
   39.3090   32.8250   47.0780 C   0  0  0  0  0  3  0  0  0  0  0  0
   39.8520   32.0310   46.5320 H   0  0  0  0  0  0  0  0  0  0  0  0
  1  6  1  0  0  0  0
  2  1  2  0  0  0  0
  2  3  1  0  0  0  0
  3  4  2  0  0  0  0
  4  5  1  0  0  0  0
  5  8  1  0  0  0  0
  6  5  2  0  0  0  0
  7  3  1  0  0  0  0
  9 11  1  0  0  0  0
  9 10  2  0  0  0  0
 11  2  1  0  0  0  0
 12  9  1  0  0  0  0
 13 11  1  0  0  0  0
 14  1  1  0  0  0  0
 15 14  1  6  0  0  0
 15 16  1  0  0  0  0
 16 17  1  0  0  0  0
 18 16  1  0  0  0  0
 19 18  1  0  0  0  0
 20 18  1  0  0  0  0
 21 20  1  0  0  0  0
 21 15  1  0  0  0  0
 22 21  1  0  0  0  0
M  END
>  <minimizedAffinity>
-3.99099565

>  <minimizedRMSD>
5.26375055

$$$$
