
 OpenBabel03262522593D

 37 41  0  0  1  0  0  0  0  0999 V2000
   34.6960   28.8970   48.5700 C   0  0  0  0  0  0  0  0  0  0  0  0
   34.5620   28.2740   47.3250 C   0  0  0  0  0  0  0  0  0  0  0  0
   33.2880   27.7790   47.2380 C   0  0  0  0  0  0  0  0  0  0  0  0
   32.6620   28.1040   48.4290 N   0  0  0  0  0  0  0  0  0  0  0  0
   33.5360   28.7590   49.1710 N   0  0  0  0  0  0  0  0  0  0  0  0
   30.4220   27.3750   47.7300 N   0  0  0  0  0  0  0  0  0  0  0  0
   31.3130   27.7350   48.6760 C   0  0  0  0  0  0  0  0  0  0  0  0
   30.6650   27.6670   49.8610 N   0  0  0  0  0  0  0  0  0  0  0  0
   29.3910   27.2750   49.6790 C   0  0  0  0  0  0  0  0  0  0  0  0
   28.2840   27.0290   50.4470 C   0  0  0  0  0  0  0  0  0  0  0  0
   27.1350   26.6300   49.8590 N   0  0  0  0  0  0  0  0  0  0  0  0
   27.0330   26.4630   48.5280 C   0  0  0  0  0  0  0  0  0  0  0  0
   28.0890   26.6910   47.7380 N   0  0  0  0  0  0  0  0  0  0  0  0
   29.2410   27.0910   48.3200 C   0  0  0  0  0  0  0  0  0  0  0  0
   35.3300   28.2070   46.5830 H   0  0  0  0  0  0  0  0  0  0  0  0
   32.8870   27.2410   46.3840 H   0  0  0  0  0  0  0  0  0  0  0  0
   30.6050   27.3220   46.6840 H   0  0  0  0  0  0  0  0  0  0  0  0
   26.0570   26.1410   48.1860 H   0  0  0  0  0  0  0  0  0  0  0  0
   37.7730   29.5510   50.4570 C   0  0  0  0  0  0  0  0  0  0  0  0
   38.1840   30.8030   49.9240 C   0  0  0  0  0  0  0  0  0  0  0  0
   37.3990   31.3800   48.9410 C   0  0  0  0  0  0  0  0  0  0  0  0
   36.2830   30.7350   48.5320 N   0  0  0  0  0  0  0  0  0  0  0  0
   35.9000   29.5470   49.0430 C   0  0  0  0  0  0  0  0  0  0  0  0
   36.6490   28.9750   49.9950 N   0  0  0  0  0  0  0  0  0  0  0  0
   38.3610   29.0890   51.2140 H   0  0  0  0  0  0  0  0  0  0  0  0
   39.0860   31.3000   50.2710 H   0  0  0  0  0  0  0  0  0  0  0  0
   37.7850   32.6750   48.3600 C   0  0  1  0  0  0  0  0  0  0  0  0
   38.0790   33.7140   49.4190 C   0  0  0  0  0  0  0  0  0  0  0  0
   37.4130   34.5980   49.3280 H   0  0  0  0  0  0  0  0  0  0  0  0
   39.5120   34.0820   49.1700 C   0  0  0  0  0  0  0  0  0  0  0  0
   40.1310   33.6260   49.9710 H   0  0  0  0  0  0  0  0  0  0  0  0
   39.8460   33.6480   47.9090 O   0  0  0  0  0  0  0  0  0  0  0  0
   39.0670   32.5370   47.6070 C   0  0  0  0  0  0  0  0  0  0  0  0
   39.5750   31.5800   47.7220 H   0  0  0  0  0  0  0  0  0  0  0  0
   28.4200   27.2130   51.8470 N   0  0  0  0  0  0  0  0  0  0  0  0
   28.7090   28.0990   52.2780 H   0  0  0  0  0  0  0  0  0  0  0  0
   28.1620   26.2740   52.2650 H   0  0  0  0  0  0  0  0  0  0  0  0
  1 23  1  0  0  0  0
  1  5  2  0  0  0  0
  2  1  1  0  0  0  0
  3  2  2  0  0  0  0
  3  4  1  0  0  0  0
  4  7  1  0  0  0  0
  4  5  1  0  0  0  0
  6 14  1  0  0  0  0
  6  7  1  0  0  0  0
  7  8  2  0  0  0  0
  9  8  1  0  0  0  0
  9 10  1  0  0  0  0
 10 35  1  0  0  0  0
 11 10  2  0  0  0  0
 12 11  1  0  0  0  0
 13 14  1  0  0  0  0
 13 12  2  0  0  0  0
 14  9  2  0  0  0  0
 15  2  1  0  0  0  0
 16  3  1  0  0  0  0
 17  6  1  0  0  0  0
 18 12  1  0  0  0  0
 19 25  1  0  0  0  0
 20 26  1  0  0  0  0
 20 19  2  0  0  0  0
 21 20  1  0  0  0  0
 22 21  2  0  0  0  0
 22 23  1  0  0  0  0
 23 24  2  0  0  0  0
 24 19  1  0  0  0  0
 27 21  1  1  0  0  0
 27 28  1  0  0  0  0
 29 28  1  0  0  0  0
 30 28  1  0  0  0  0
 30 31  1  0  0  0  0
 32 30  1  0  0  0  0
 33 34  1  0  0  0  0
 33 32  1  0  0  0  0
 33 27  1  0  0  0  0
 35 37  1  0  0  0  0
 35 36  1  0  0  0  0
M  END
>  <minimizedAffinity>
-7.30535078

>  <minimizedRMSD>
0.607566893

$$$$
