
 OpenBabel03272508093D

 23 24  0  0  1  0  0  0  0  0999 V2000
   39.0480   33.0390   48.1410 O   0  0  0  0  0  0  0  0  0  0  0  0
   38.6850   31.9900   47.1390 P   0  0  2  0  0  0  0  0  0  0  0  0
   37.4330   32.5680   46.1470 O   0  0  0  0  0  0  0  0  0  0  0  0
   36.9310   33.2510   46.6930 H   0  0  0  0  0  0  0  0  0  0  0  0
   38.2840   30.4870   47.8030 O   0  0  0  0  0  0  0  0  0  0  0  0
   37.3050   30.2380   51.3690 C   0  0  0  0  0  0  0  0  0  0  0  0
   38.0830   30.6220   50.2800 C   0  0  0  0  0  0  0  0  0  0  0  0
   37.6970   30.2360   49.0000 C   0  0  0  0  0  0  0  0  0  0  0  0
   36.5520   29.4840   48.8820 N   0  0  0  0  0  0  0  0  0  0  0  0
   35.8280   29.1320   49.9710 C   0  0  0  0  0  0  0  0  0  0  0  0
   36.1950   29.5020   51.1950 N   0  0  0  0  0  0  0  0  0  0  0  0
   37.7430   30.6190   52.2870 H   0  0  0  0  0  0  0  0  0  0  0  0
   38.9890   31.2100   50.2940 H   0  0  0  0  0  0  0  0  0  0  0  0
   34.9250   28.5410   49.8970 H   0  0  0  0  0  0  0  0  0  0  0  0
   40.0360   31.7740   46.1240 O   0  0  0  0  0  0  0  0  0  0  0  0
   39.7210   30.7850   45.2100 C   0  0  1  0  0  3  0  0  0  0  0  0
   38.4190   30.9680   44.5050 C   0  0  0  0  0  3  0  0  0  0  0  0
   37.9760   31.9950   44.6490 H   0  0  0  0  0  0  0  0  0  0  0  0
   38.7930   30.7580   43.0440 C   0  0  0  0  0  3  0  0  0  0  0  0
   39.0120   31.7040   42.5190 H   0  0  0  0  0  0  0  0  0  0  0  0
   39.9770   30.0060   43.1000 O   0  0  0  0  0  0  0  0  0  0  0  0
   40.7190   30.7050   44.0780 C   0  0  0  0  0  3  0  0  0  0  0  0
   41.6050   30.0700   44.3340 H   0  0  0  0  0  0  0  0  0  0  0  0
  2  5  1  0  0  0  0
  2  1  2  1  0  0  0
  3  4  1  0  0  0  0
  3  2  1  0  0  0  0
  5  8  1  0  0  0  0
  6 12  1  0  0  0  0
  7 13  1  0  0  0  0
  7  6  2  0  0  0  0
  8  7  1  0  0  0  0
  9  8  2  0  0  0  0
  9 10  1  0  0  0  0
 10 11  2  0  0  0  0
 11  6  1  0  0  0  0
 14 10  1  0  0  0  0
 15  2  1  0  0  0  0
 16 15  1  1  0  0  0
 17 18  1  0  0  0  0
 17 16  1  0  0  0  0
 19 21  1  0  0  0  0
 19 17  1  0  0  0  0
 20 19  1  0  0  0  0
 21 22  1  0  0  0  0
 22 23  1  0  0  0  0
 22 16  1  0  0  0  0
M  END
>  <minimizedAffinity>
-4.62729263

>  <minimizedRMSD>
0.545868039

$$$$
