
 OpenBabel03272508063D

 34 37  0  0  1  0  0  0  0  0999 V2000
   38.9180   30.8900   45.7710 C   0  0  0  0  0  0  0  0  0  0  0  0
   40.1130   31.5100   46.0240 C   0  0  0  0  0  0  0  0  0  0  0  0
   40.9420   31.4490   44.9090 C   0  0  0  0  0  0  0  0  0  0  0  0
   40.1910   30.7770   44.0070 N   0  0  0  0  0  0  0  0  0  0  0  0
   39.0090   30.4460   44.4980 N   0  0  0  0  0  0  0  0  0  0  0  0
   40.4080   31.9920   46.9510 H   0  0  0  0  0  0  0  0  0  0  0  0
   41.9310   31.8170   44.7380 H   0  0  0  0  0  0  0  0  0  0  0  0
   37.7970   30.7450   46.6790 C   0  0  0  0  0  0  0  0  0  0  0  0
   38.0160   30.9740   48.0640 C   0  0  0  0  0  0  0  0  0  0  0  0
   36.9340   30.8320   48.9220 C   0  0  0  0  0  0  0  0  0  0  0  0
   35.7260   30.4820   48.3880 N   0  0  0  0  0  0  0  0  0  0  0  0
   35.5400   30.2690   47.0630 C   0  0  0  0  0  0  0  0  0  0  0  0
   36.5820   30.4030   46.2190 N   0  0  0  0  0  0  0  0  0  0  0  0
   38.9930   31.2510   48.4420 H   0  0  0  0  0  0  0  0  0  0  0  0
   34.5450   29.9950   46.7380 H   0  0  0  0  0  0  0  0  0  0  0  0
   37.1360   31.0660   50.3730 C   0  0  0  0  0  0  0  0  0  0  0  0
   36.6040   32.3070   50.6260 F   0  0  0  0  0  0  0  0  0  0  0  0
   36.4710   30.1370   51.1590 F   0  0  0  0  0  0  0  0  0  0  0  0
   38.4900   31.0750   50.7070 F   0  0  0  0  0  0  0  0  0  0  0  0
   40.5390   30.4080   42.6350 C   0  0  0  0  0  0  0  0  0  0  0  0
   40.2130   31.2420   41.5510 C   0  0  0  0  0  0  0  0  0  0  0  0
   40.5610   30.8510   40.2920 C   0  0  0  0  0  0  0  0  0  0  0  0
   41.2410   29.6140   40.1110 C   0  0  0  0  0  0  0  0  0  0  0  0
   41.3890   28.9800   41.8490 S   0  0  0  0  0  0  0  0  0  0  0  0
   39.6970   32.1870   41.6500 H   0  0  0  0  0  0  0  0  0  0  0  0
   40.4100   31.3310   39.3420 H   0  0  0  0  0  0  0  0  0  0  0  0
   41.7840   28.8010   39.1050 C   0  0  1  0  0  3  0  0  0  0  0  0
   41.2760   27.3950   39.2300 C   0  0  0  0  0  3  0  0  0  0  0  0
   41.0650   27.2200   40.3020 H   0  0  0  0  0  0  0  0  0  0  0  0
   40.0550   27.3870   38.3710 C   0  0  0  0  0  3  0  0  0  0  0  0
   39.1480   27.1640   38.9700 H   0  0  0  0  0  0  0  0  0  0  0  0
   39.8980   28.6670   37.8580 O   0  0  0  0  0  0  0  0  0  0  0  0
   41.1480   29.2380   37.7810 C   0  0  0  0  0  3  0  0  0  0  0  0
   41.0480   30.3390   37.7140 H   0  0  0  0  0  0  0  0  0  0  0  0
  1  2  1  0  0  0  0
  1  8  1  0  0  0  0
  2  6  1  0  0  0  0
  3  2  2  0  0  0  0
  4  5  1  0  0  0  0
  4  3  1  0  0  0  0
  5  1  2  0  0  0  0
  7  3  1  0  0  0  0
  8  9  1  0  0  0  0
  9 14  1  0  0  0  0
  9 10  2  0  0  0  0
 10 16  1  0  0  0  0
 11 10  1  0  0  0  0
 12 11  2  0  0  0  0
 13  8  2  0  0  0  0
 13 12  1  0  0  0  0
 15 12  1  0  0  0  0
 16 17  1  0  0  0  0
 16 19  1  0  0  0  0
 16 18  1  0  0  0  0
 20  4  1  0  0  0  0
 21 25  1  0  0  0  0
 21 20  2  0  0  0  0
 22 21  1  0  0  0  0
 23 22  2  0  0  0  0
 23 24  1  0  0  0  0
 24 20  1  0  0  0  0
 26 22  1  0  0  0  0
 27 28  1  0  0  0  0
 27 23  1  1  0  0  0
 28 29  1  0  0  0  0
 30 31  1  0  0  0  0
 30 28  1  0  0  0  0
 32 30  1  0  0  0  0
 33 32  1  0  0  0  0
 33 27  1  0  0  0  0
 34 33  1  0  0  0  0
M  END
>  <minimizedAffinity>
-6.14082146

>  <minimizedRMSD>
0.200681105

$$$$
