
 OpenBabel03272505413D

 44 47  0  0  1  0  0  0  0  0999 V2000
   35.7470   30.2320   46.5160 C   0  0  0  0  0  0  0  0  0  0  0  0
   34.4120   29.8370   46.5900 C   0  0  0  0  0  0  0  0  0  0  0  0
   33.7460   29.4770   45.4330 C   0  0  0  0  0  0  0  0  0  0  0  0
   34.3310   29.4830   44.1820 C   0  0  0  0  0  0  0  0  0  0  0  0
   35.6620   29.8770   44.1060 C   0  0  0  0  0  0  0  0  0  0  0  0
   36.3090   30.2340   45.2790 C   0  0  0  0  0  0  0  0  0  0  0  0
   33.8720   29.8020   47.5310 H   0  0  0  0  0  0  0  0  0  0  0  0
   32.7090   29.1730   45.5190 H   0  0  0  0  0  0  0  0  0  0  0  0
   33.7600   29.1900   43.3070 H   0  0  0  0  0  0  0  0  0  0  0  0
   36.0680   29.8660   43.1190 H   0  0  0  0  0  0  0  0  0  0  0  0
   37.6570   30.6060   45.0050 N   0  0  0  0  0  0  0  0  0  0  0  0
   38.9570   30.0070   45.0400 C   0  0  0  0  0  0  0  0  0  0  0  0
   39.8340   30.8760   45.9110 C   0  0  0  0  0  0  0  0  0  0  0  0
   40.0740   32.1110   45.2010 N   0  0  0  0  0  0  0  0  0  0  0  0
   39.0770   32.4300   44.2380 C   0  0  0  0  0  0  0  0  0  0  0  0
   37.6970   31.9640   44.5640 C   0  0  0  0  0  0  0  0  0  0  0  0
   38.9080   28.9650   45.3900 H   0  0  0  0  0  0  0  0  0  0  0  0
   39.4030   30.0570   44.0230 H   0  0  0  0  0  0  0  0  0  0  0  0
   39.7600   30.8530   46.9500 H   0  0  0  0  0  0  0  0  0  0  0  0
   40.8320   30.3290   45.7530 H   0  0  0  0  0  0  0  0  0  0  0  0
   41.0030   32.2470   44.8040 H   0  0  0  0  0  0  0  0  0  0  0  0
   39.0150   33.5600   44.2240 H   0  0  0  0  0  0  0  0  0  0  0  0
   39.4150   32.1760   43.2120 H   0  0  0  0  0  0  0  0  0  0  0  0
   37.0770   32.6880   45.0800 H   0  0  0  0  0  0  0  0  0  0  0  0
   37.2050   31.9070   43.5400 H   0  0  0  0  0  0  0  0  0  0  0  0
   37.1400   30.1630   49.8830 C   0  0  0  0  0  0  0  0  0  0  0  0
   37.8150   31.3930   49.9590 C   0  0  0  0  0  0  0  0  0  0  0  0
   37.7840   32.2340   48.8460 C   0  0  0  0  0  0  0  0  0  0  0  0
   37.0900   31.7750   47.7710 N   0  0  0  0  0  0  0  0  0  0  0  0
   36.4580   30.6150   47.7080 C   0  0  0  0  0  0  0  0  0  0  0  0
   36.4820   29.7970   48.7780 N   0  0  0  0  0  0  0  0  0  0  0  0
   38.3560   31.7240   50.8300 H   0  0  0  0  0  0  0  0  0  0  0  0
   38.4810   33.5220   48.9060 C   0  0  2  0  0  3  0  0  0  0  0  0
   39.4780   33.7170   47.7870 C   0  0  0  0  0  3  0  0  0  0  0  0
   39.0400   34.1230   46.8580 H   0  0  0  0  0  0  0  0  0  0  0  0
   40.3630   34.7860   48.4070 C   0  0  0  0  0  3  0  0  0  0  0  0
   41.4370   34.5790   48.2270 H   0  0  0  0  0  0  0  0  0  0  0  0
   40.1000   34.8300   49.7490 O   0  0  0  0  0  0  0  0  0  0  0  0
   39.4290   33.6550   50.0930 C   0  0  0  0  0  3  0  0  0  0  0  0
   40.2170   32.8630   50.0710 H   0  0  0  0  0  0  0  0  0  0  0  0
   37.1890   29.2880   51.1100 C   0  0  0  0  0  0  0  0  0  0  0  0
   35.8640   28.9640   51.4560 F   0  0  0  0  0  0  0  0  0  0  0  0
   37.9240   28.2060   50.8340 F   0  0  0  0  0  0  0  0  0  0  0  0
   37.6740   30.0330   52.1550 F   0  0  0  0  0  0  0  0  0  0  0  0
  1  2  1  0  0  0  0
  1 30  1  0  0  0  0
  2  7  1  0  0  0  0
  3  8  1  0  0  0  0
  3  2  2  0  0  0  0
  4  3  1  0  0  0  0
  5  4  2  0  0  0  0
  5  6  1  0  0  0  0
  6  1  2  0  0  0  0
  9  4  1  0  0  0  0
 10  5  1  0  0  0  0
 11 12  1  0  0  0  0
 11  6  1  0  0  0  0
 12 17  1  0  0  0  0
 12 13  1  0  0  0  0
 13 19  1  0  0  0  0
 14 13  1  0  0  0  0
 15 16  1  0  0  0  0
 15 14  1  0  0  0  0
 16 11  1  0  0  0  0
 16 24  1  0  0  0  0
 18 12  1  0  0  0  0
 20 13  1  0  0  0  0
 21 14  1  0  0  0  0
 22 15  1  0  0  0  0
 23 15  1  0  0  0  0
 25 16  1  0  0  0  0
 26 27  1  0  0  0  0
 26 41  1  0  0  0  0
 27 32  1  0  0  0  0
 28 27  2  0  0  0  0
 29 28  1  0  0  0  0
 30 29  2  0  0  0  0
 30 31  1  0  0  0  0
 31 26  2  0  0  0  0
 33 28  1  6  0  0  0
 33 39  1  0  0  0  0
 34 36  1  0  0  0  0
 34 33  1  0  0  0  0
 35 34  1  0  0  0  0
 36 38  1  0  0  0  0
 37 36  1  0  0  0  0
 38 39  1  0  0  0  0
 40 39  1  0  0  0  0
 41 42  1  0  0  0  0
 41 44  1  0  0  0  0
 43 41  1  0  0  0  0
M  END
>  <minimizedAffinity>
-5.80148077

>  <minimizedRMSD>
0.566675961

$$$$
