
 OpenBabel03272508053D

 34 37  0  0  1  0  0  0  0  0999 V2000
   38.9180   30.8900   45.7720 C   0  0  0  0  0  0  0  0  0  0  0  0
   40.1140   31.5100   46.0250 C   0  0  0  0  0  0  0  0  0  0  0  0
   40.9420   31.4490   44.9100 C   0  0  0  0  0  0  0  0  0  0  0  0
   40.1910   30.7770   44.0080 N   0  0  0  0  0  0  0  0  0  0  0  0
   39.0090   30.4460   44.4990 N   0  0  0  0  0  0  0  0  0  0  0  0
   40.4090   31.9920   46.9520 H   0  0  0  0  0  0  0  0  0  0  0  0
   41.9320   31.8170   44.7390 H   0  0  0  0  0  0  0  0  0  0  0  0
   37.7970   30.7450   46.6800 C   0  0  0  0  0  0  0  0  0  0  0  0
   38.0170   30.9740   48.0650 C   0  0  0  0  0  0  0  0  0  0  0  0
   36.9350   30.8320   48.9240 C   0  0  0  0  0  0  0  0  0  0  0  0
   35.7270   30.4830   48.3900 N   0  0  0  0  0  0  0  0  0  0  0  0
   35.5410   30.2690   47.0650 C   0  0  0  0  0  0  0  0  0  0  0  0
   36.5830   30.4030   46.2200 N   0  0  0  0  0  0  0  0  0  0  0  0
   38.9940   31.2510   48.4430 H   0  0  0  0  0  0  0  0  0  0  0  0
   34.5460   29.9960   46.7390 H   0  0  0  0  0  0  0  0  0  0  0  0
   37.1370   31.0660   50.3740 C   0  0  0  0  0  0  0  0  0  0  0  0
   36.6040   32.3060   50.6290 F   0  0  0  0  0  0  0  0  0  0  0  0
   36.4730   30.1360   51.1600 F   0  0  0  0  0  0  0  0  0  0  0  0
   38.4910   31.0750   50.7090 F   0  0  0  0  0  0  0  0  0  0  0  0
   40.5390   30.4090   42.6360 C   0  0  0  0  0  0  0  0  0  0  0  0
   40.2140   31.2420   41.5520 C   0  0  0  0  0  0  0  0  0  0  0  0
   40.5610   30.8510   40.2930 C   0  0  0  0  0  0  0  0  0  0  0  0
   41.2410   29.6150   40.1120 C   0  0  0  0  0  0  0  0  0  0  0  0
   41.3890   28.9810   41.8500 S   0  0  0  0  0  0  0  0  0  0  0  0
   39.6970   32.1870   41.6520 H   0  0  0  0  0  0  0  0  0  0  0  0
   40.4100   31.3320   39.3430 H   0  0  0  0  0  0  0  0  0  0  0  0
   41.7840   28.8020   39.1050 C   0  0  1  0  0  3  0  0  0  0  0  0
   41.2760   27.3950   39.2320 C   0  0  0  0  0  3  0  0  0  0  0  0
   41.0660   27.2200   40.3050 H   0  0  0  0  0  0  0  0  0  0  0  0
   40.0550   27.3870   38.3720 C   0  0  0  0  0  3  0  0  0  0  0  0
   39.1480   27.1650   38.9720 H   0  0  0  0  0  0  0  0  0  0  0  0
   39.8990   28.6680   37.8600 O   0  0  0  0  0  0  0  0  0  0  0  0
   41.1480   29.2380   37.7820 C   0  0  0  0  0  3  0  0  0  0  0  0
   41.0480   30.3390   37.7150 H   0  0  0  0  0  0  0  0  0  0  0  0
  1  2  1  0  0  0  0
  1  8  1  0  0  0  0
  2  6  1  0  0  0  0
  3  2  2  0  0  0  0
  4  5  1  0  0  0  0
  4  3  1  0  0  0  0
  5  1  2  0  0  0  0
  7  3  1  0  0  0  0
  8  9  1  0  0  0  0
  9 14  1  0  0  0  0
  9 10  2  0  0  0  0
 10 16  1  0  0  0  0
 11 10  1  0  0  0  0
 12 11  2  0  0  0  0
 13  8  2  0  0  0  0
 13 12  1  0  0  0  0
 15 12  1  0  0  0  0
 16 17  1  0  0  0  0
 16 19  1  0  0  0  0
 16 18  1  0  0  0  0
 20  4  1  0  0  0  0
 21 25  1  0  0  0  0
 21 20  2  0  0  0  0
 22 21  1  0  0  0  0
 23 22  2  0  0  0  0
 23 24  1  0  0  0  0
 24 20  1  0  0  0  0
 26 22  1  0  0  0  0
 27 28  1  0  0  0  0
 27 23  1  1  0  0  0
 28 29  1  0  0  0  0
 30 31  1  0  0  0  0
 30 28  1  0  0  0  0
 32 30  1  0  0  0  0
 33 32  1  0  0  0  0
 33 27  1  0  0  0  0
 34 33  1  0  0  0  0
M  END
>  <minimizedAffinity>
-6.14270926

>  <minimizedRMSD>
1.08364165

$$$$
