
 OpenBabel03262521553D

 38 40  0  0  1  0  0  0  0  0999 V2000
   31.9460   26.7040   48.1960 C   0  0  1  0  0  0  0  0  0  0  0  0
   32.5520   28.0950   48.2970 C   0  0  2  0  0  0  0  0  0  0  0  0
   32.4300   28.7400   46.9640 C   0  0  0  0  0  0  0  0  0  0  0  0
   31.8190   27.9580   46.0170 O   0  0  0  0  0  0  0  0  0  0  0  0
   30.5360   27.5610   46.4080 C   0  0  0  0  0  0  0  0  0  0  0  0
   30.5200   26.8970   47.7580 C   0  0  2  0  0  0  0  0  0  0  0  0
   31.9730   26.2170   49.1850 H   0  0  0  0  0  0  0  0  0  0  0  0
   31.9210   28.6600   49.0280 H   0  0  0  0  0  0  0  0  0  0  0  0
   31.9390   29.7470   47.0250 H   0  0  0  0  0  0  0  0  0  0  0  0
   33.4600   28.9540   46.5710 H   0  0  0  0  0  0  0  0  0  0  0  0
   29.8620   28.4150   46.3280 H   0  0  0  0  0  0  0  0  0  0  0  0
   30.2000   26.7830   45.6650 H   0  0  0  0  0  0  0  0  0  0  0  0
   30.0050   25.9380   47.7720 H   0  0  0  0  0  0  0  0  0  0  0  0
   32.5780   25.9530   47.2060 O   0  0  0  0  0  0  0  0  0  0  0  0
   33.5520   25.9210   47.4020 H   0  0  0  0  0  0  0  0  0  0  0  0
   34.2770   28.0400   48.8390 S   0  0  0  0  0  0  0  0  0  0  0  0
   34.6070   29.3420   50.0410 C   0  0  0  0  0  0  0  0  0  0  0  0
   34.2390   30.2900   49.5950 H   0  0  0  0  0  0  0  0  0  0  0  0
   33.9550   29.1290   50.9310 H   0  0  0  0  0  0  0  0  0  0  0  0
   36.3020   29.4520   50.5580 S   0  0  0  0  0  0  0  0  0  0  0  0
   37.1670   30.6220   49.5180 C   0  0  0  0  0  0  0  0  0  0  0  0
   37.2060   31.9100   50.0180 C   0  0  0  0  0  0  0  0  0  0  0  0
   37.8720   32.8960   49.2530 C   0  0  0  0  0  0  0  0  0  0  0  0
   38.4380   32.5080   48.0610 N   0  0  0  0  0  0  0  0  0  0  0  0
   38.3540   31.2240   47.6420 C   0  0  0  0  0  0  0  0  0  0  0  0
   37.7360   30.3100   48.3530 N   0  0  0  0  0  0  0  0  0  0  0  0
   36.7780   32.2740   50.9510 H   0  0  0  0  0  0  0  0  0  0  0  0
   37.9350   33.9100   49.5910 H   0  0  0  0  0  0  0  0  0  0  0  0
   38.8440   31.0600   46.6850 H   0  0  0  0  0  0  0  0  0  0  0  0
   29.9320   27.7700   48.6890 O   0  0  0  0  0  0  0  0  0  0  0  0
   28.7720   27.2340   49.2290 C   0  0  2  0  0  0  0  0  0  0  0  0
   27.7600   28.3580   49.3070 C   0  0  0  0  0  0  0  0  0  0  0  0
   26.8780   28.2250   48.6780 H   0  0  0  0  0  0  0  0  0  0  0  0
   27.3140   28.3850   50.7510 C   0  0  0  0  0  0  0  0  0  0  0  0
   27.5190   29.3470   51.2610 H   0  0  0  0  0  0  0  0  0  0  0  0
   27.9000   27.2980   51.3830 O   0  0  0  0  0  0  0  0  0  0  0  0
   29.0490   26.9690   50.6990 C   0  0  0  0  0  0  0  0  0  0  0  0
   29.2610   25.8780   50.8910 H   0  0  0  0  0  0  0  0  0  0  0  0
  1  2  1  0  0  0  0
  1  7  1  1  0  0  0
  2 16  1  0  0  0  0
  2  8  1  1  0  0  0
  3  9  1  0  0  0  0
  3  2  1  0  0  0  0
  4  5  1  0  0  0  0
  4  3  1  0  0  0  0
  5  6  1  0  0  0  0
  6 13  1  6  0  0  0
  6  1  1  0  0  0  0
  6 30  1  0  0  0  0
 10  3  1  0  0  0  0
 11  5  1  0  0  0  0
 12  5  1  0  0  0  0
 14 15  1  0  0  0  0
 14  1  1  0  0  0  0
 16 17  1  0  0  0  0
 17 20  1  0  0  0  0
 17 19  1  0  0  0  0
 18 17  1  0  0  0  0
 21 22  1  0  0  0  0
 21 20  1  0  0  0  0
 22 27  1  0  0  0  0
 23 28  1  0  0  0  0
 23 22  2  0  0  0  0
 24 23  1  0  0  0  0
 25 24  2  0  0  0  0
 25 26  1  0  0  0  0
 26 21  2  0  0  0  0
 29 25  1  0  0  0  0
 31 30  1  6  0  0  0
 31 32  1  0  0  0  0
 31 37  1  0  0  0  0
 32 34  1  0  0  0  0
 33 32  1  0  0  0  0
 34 35  1  0  0  0  0
 34 36  1  0  0  0  0
 37 38  1  0  0  0  0
 37 36  1  0  0  0  0
M  END
>  <minimizedAffinity>
-5.15515423

>  <minimizedRMSD>
1.39974797

$$$$
