
 OpenBabel03272502243D

 28 30  0  0  1  0  0  0  0  0999 V2000
   36.4660   28.3100   34.0020 C   0  0  0  0  0  0  0  0  0  0  0  0
   36.8640   27.2350   34.8200 C   0  0  0  0  0  0  0  0  0  0  0  0
   37.5450   26.1940   34.2090 C   0  0  0  0  0  0  0  0  0  0  0  0
   37.7890   26.2640   32.8770 N   0  0  0  0  0  0  0  0  0  0  0  0
   37.3940   27.3090   32.1180 C   0  0  0  0  0  0  0  0  0  0  0  0
   36.7310   28.3330   32.6860 N   0  0  0  0  0  0  0  0  0  0  0  0
   35.9410   29.0740   34.5710 H   0  0  0  0  0  0  0  0  0  0  0  0
   36.6760   27.1710   35.8760 H   0  0  0  0  0  0  0  0  0  0  0  0
   38.0280   25.0010   34.9220 C   0  0  0  0  0  0  0  0  0  0  0  0
   38.5760   23.9230   34.2640 C   0  0  0  0  0  0  0  0  0  0  0  0
   39.0330   22.7980   34.9240 C   0  0  0  0  0  0  0  0  0  0  0  0
   38.9430   22.7420   36.2740 N   0  0  0  0  0  0  0  0  0  0  0  0
   38.4100   23.7960   36.8950 C   0  0  0  0  0  0  0  0  0  0  0  0
   37.9630   24.8920   36.2700 N   0  0  0  0  0  0  0  0  0  0  0  0
   38.6380   23.9920   33.1790 H   0  0  0  0  0  0  0  0  0  0  0  0
   39.4500   21.9970   34.3260 H   0  0  0  0  0  0  0  0  0  0  0  0
   38.2910   23.7770   38.3800 C   0  0  0  0  0  0  0  0  0  0  0  0
   39.5130   23.3860   38.9160 F   0  0  0  0  0  0  0  0  0  0  0  0
   37.9120   25.0160   38.8740 F   0  0  0  0  0  0  0  0  0  0  0  0
   37.3710   22.8750   38.8100 F   0  0  0  0  0  0  0  0  0  0  0  0
   37.6530   27.3890   30.6820 C   0  0  2  0  0  3  0  0  0  0  0  0
   39.0280   27.9160   30.3210 C   0  0  0  0  0  3  0  0  0  0  0  0
   39.7970   27.1260   30.3950 H   0  0  0  0  0  0  0  0  0  0  0  0
   38.7670   28.3620   28.9000 C   0  0  0  0  0  3  0  0  0  0  0  0
   39.4750   29.1360   28.5870 H   0  0  0  0  0  0  0  0  0  0  0  0
   37.4400   28.7060   28.7810 O   0  0  0  0  0  0  0  0  0  0  0  0
   36.8110   28.4520   29.9820 C   0  0  0  0  0  3  0  0  0  0  0  0
   36.8790   29.3780   30.5890 H   0  0  0  0  0  0  0  0  0  0  0  0
  1  7  1  0  0  0  0
  1  2  1  0  0  0  0
  2  8  1  0  0  0  0
  3  2  2  0  0  0  0
  3  9  1  0  0  0  0
  4  3  1  0  0  0  0
  5  6  1  0  0  0  0
  5  4  2  0  0  0  0
  6  1  2  0  0  0  0
  9 14  1  0  0  0  0
 10  9  2  0  0  0  0
 10 11  1  0  0  0  0
 11 12  2  0  0  0  0
 12 13  1  0  0  0  0
 13 17  1  0  0  0  0
 14 13  2  0  0  0  0
 15 10  1  0  0  0  0
 16 11  1  0  0  0  0
 17 20  1  0  0  0  0
 17 19  1  0  0  0  0
 17 18  1  0  0  0  0
 21  5  1  1  0  0  0
 22 23  1  0  0  0  0
 22 21  1  0  0  0  0
 24 22  1  0  0  0  0
 25 24  1  0  0  0  0
 26 24  1  0  0  0  0
 26 27  1  0  0  0  0
 27 28  1  0  0  0  0
 27 21  1  0  0  0  0
M  END
>  <minimizedAffinity>
-5.72768736

$$$$

 OpenBabel03272502243D

 28 30  0  0  1  0  0  0  0  0999 V2000
   36.9140   24.0910   31.8450 C   0  0  0  0  0  0  0  0  0  0  0  0
   37.7470   24.1970   32.9750 C   0  0  0  0  0  0  0  0  0  0  0  0
   37.8910   23.0670   33.7640 C   0  0  0  0  0  0  0  0  0  0  0  0
   37.2320   21.9350   33.4120 N   0  0  0  0  0  0  0  0  0  0  0  0
   36.4390   21.8640   32.3210 C   0  0  0  0  0  0  0  0  0  0  0  0
   36.2820   22.9460   31.5380 N   0  0  0  0  0  0  0  0  0  0  0  0
   36.8660   25.0260   31.2930 H   0  0  0  0  0  0  0  0  0  0  0  0
   38.2730   25.0890   33.2620 H   0  0  0  0  0  0  0  0  0  0  0  0
   38.7230   23.0140   34.9760 C   0  0  0  0  0  0  0  0  0  0  0  0
   40.0330   22.5910   34.9500 C   0  0  0  0  0  0  0  0  0  0  0  0
   40.8250   22.5380   36.0820 C   0  0  0  0  0  0  0  0  0  0  0  0
   40.3000   22.9160   37.2720 N   0  0  0  0  0  0  0  0  0  0  0  0
   39.0300   23.3240   37.2780 C   0  0  0  0  0  0  0  0  0  0  0  0
   38.2510   23.3800   36.1910 N   0  0  0  0  0  0  0  0  0  0  0  0
   40.4320   22.2920   33.9820 H   0  0  0  0  0  0  0  0  0  0  0  0
   41.8440   22.1920   35.9690 H   0  0  0  0  0  0  0  0  0  0  0  0
   38.4120   23.7490   38.5660 C   0  0  0  0  0  0  0  0  0  0  0  0
   37.9710   25.0600   38.4320 F   0  0  0  0  0  0  0  0  0  0  0  0
   37.3660   22.9130   38.9270 F   0  0  0  0  0  0  0  0  0  0  0  0
   39.3040   23.7410   39.5910 F   0  0  0  0  0  0  0  0  0  0  0  0
   35.7260   20.6470   31.9370 C   0  0  2  0  0  3  0  0  0  0  0  0
   35.4740   19.6810   33.0780 C   0  0  0  0  0  3  0  0  0  0  0  0
   34.5960   19.9820   33.6770 H   0  0  0  0  0  0  0  0  0  0  0  0
   35.2500   18.4080   32.2920 C   0  0  0  0  0  3  0  0  0  0  0  0
   35.4620   17.5220   32.8980 H   0  0  0  0  0  0  0  0  0  0  0  0
   35.9540   18.4880   31.1130 O   0  0  0  0  0  0  0  0  0  0  0  0
   36.5520   19.7290   31.0400 C   0  0  0  0  0  3  0  0  0  0  0  0
   37.5570   19.6360   31.5010 H   0  0  0  0  0  0  0  0  0  0  0  0
  1  2  1  0  0  0  0
  2  8  1  0  0  0  0
  2  3  2  0  0  0  0
  3  9  1  0  0  0  0
  4  3  1  0  0  0  0
  5  4  2  0  0  0  0
  6  1  2  0  0  0  0
  6  5  1  0  0  0  0
  7  1  1  0  0  0  0
  9 14  1  0  0  0  0
 10  9  2  0  0  0  0
 10 11  1  0  0  0  0
 11 12  2  0  0  0  0
 12 13  1  0  0  0  0
 13 17  1  0  0  0  0
 14 13  2  0  0  0  0
 15 10  1  0  0  0  0
 16 11  1  0  0  0  0
 17 19  1  0  0  0  0
 17 20  1  0  0  0  0
 18 17  1  0  0  0  0
 21  5  1  1  0  0  0
 21 22  1  0  0  0  0
 22 23  1  0  0  0  0
 24 25  1  0  0  0  0
 24 22  1  0  0  0  0
 26 24  1  0  0  0  0
 27 26  1  0  0  0  0
 27 28  1  0  0  0  0
 27 21  1  0  0  0  0
M  END
>  <minimizedAffinity>
-5.69366741

$$$$

 OpenBabel03272502243D

 28 30  0  0  1  0  0  0  0  0999 V2000
   36.9220   24.4060   31.5390 C   0  0  0  0  0  0  0  0  0  0  0  0
   37.5620   23.6700   32.5540 C   0  0  0  0  0  0  0  0  0  0  0  0
   37.9240   24.3560   33.7020 C   0  0  0  0  0  0  0  0  0  0  0  0
   37.6470   25.6810   33.7870 N   0  0  0  0  0  0  0  0  0  0  0  0
   37.0310   26.3610   32.7960 C   0  0  0  0  0  0  0  0  0  0  0  0
   36.6690   25.7180   31.6710 N   0  0  0  0  0  0  0  0  0  0  0  0
   36.6780   23.7820   30.6830 H   0  0  0  0  0  0  0  0  0  0  0  0
   37.7860   22.6200   32.4960 H   0  0  0  0  0  0  0  0  0  0  0  0
   38.6000   23.7320   34.8510 C   0  0  0  0  0  0  0  0  0  0  0  0
   39.6600   22.8680   34.6990 C   0  0  0  0  0  0  0  0  0  0  0  0
   40.3020   22.2760   35.7710 C   0  0  0  0  0  0  0  0  0  0  0  0
   39.8790   22.5520   37.0270 N   0  0  0  0  0  0  0  0  0  0  0  0
   38.8510   23.3930   37.1560 C   0  0  0  0  0  0  0  0  0  0  0  0
   38.2190   23.9730   36.1280 N   0  0  0  0  0  0  0  0  0  0  0  0
   39.9810   22.6620   33.6790 H   0  0  0  0  0  0  0  0  0  0  0  0
   41.1270   21.6080   35.5580 H   0  0  0  0  0  0  0  0  0  0  0  0
   38.3530   23.7240   38.5210 C   0  0  0  0  0  0  0  0  0  0  0  0
   37.8930   25.0360   38.5160 F   0  0  0  0  0  0  0  0  0  0  0  0
   37.3500   22.8540   38.9190 F   0  0  0  0  0  0  0  0  0  0  0  0
   39.3360   23.6590   39.4560 F   0  0  0  0  0  0  0  0  0  0  0  0
   36.7300   27.7880   32.8820 C   0  0  2  0  0  3  0  0  0  0  0  0
   36.3390   28.2650   34.2670 C   0  0  0  0  0  3  0  0  0  0  0  0
   37.2270   28.4350   34.9030 H   0  0  0  0  0  0  0  0  0  0  0  0
   35.6150   29.5420   33.9040 C   0  0  0  0  0  3  0  0  0  0  0  0
   34.9010   29.8320   34.6820 H   0  0  0  0  0  0  0  0  0  0  0  0
   35.0770   29.4030   32.6450 O   0  0  0  0  0  0  0  0  0  0  0  0
   35.4540   28.1760   32.1400 C   0  0  0  0  0  3  0  0  0  0  0  0
   34.6700   27.4470   32.4310 H   0  0  0  0  0  0  0  0  0  0  0  0
  1  6  2  0  0  0  0
  1  2  1  0  0  0  0
  2  3  2  0  0  0  0
  3  4  1  0  0  0  0
  3  9  1  0  0  0  0
  5  4  2  0  0  0  0
  6  5  1  0  0  0  0
  7  1  1  0  0  0  0
  8  2  1  0  0  0  0
  9 14  1  0  0  0  0
 10  9  2  0  0  0  0
 10 11  1  0  0  0  0
 11 12  2  0  0  0  0
 12 13  1  0  0  0  0
 13 17  1  0  0  0  0
 14 13  2  0  0  0  0
 15 10  1  0  0  0  0
 16 11  1  0  0  0  0
 17 19  1  0  0  0  0
 17 20  1  0  0  0  0
 18 17  1  0  0  0  0
 21  5  1  1  0  0  0
 21 22  1  0  0  0  0
 22 23  1  0  0  0  0
 24 22  1  0  0  0  0
 24 25  1  0  0  0  0
 26 24  1  0  0  0  0
 27 28  1  0  0  0  0
 27 26  1  0  0  0  0
 27 21  1  0  0  0  0
M  END
>  <minimizedAffinity>
-5.6485095

$$$$

 OpenBabel03272502243D

 28 30  0  0  1  0  0  0  0  0999 V2000
   38.6220   24.4190   30.5580 C   0  0  0  0  0  0  0  0  0  0  0  0
   38.8180   25.0740   31.7890 C   0  0  0  0  0  0  0  0  0  0  0  0
   38.0200   24.6780   32.8510 C   0  0  0  0  0  0  0  0  0  0  0  0
   37.1060   23.6960   32.6510 N   0  0  0  0  0  0  0  0  0  0  0  0
   36.9420   23.0850   31.4580 C   0  0  0  0  0  0  0  0  0  0  0  0
   37.7030   23.4510   30.4110 N   0  0  0  0  0  0  0  0  0  0  0  0
   39.2930   24.7990   29.7900 H   0  0  0  0  0  0  0  0  0  0  0  0
   39.5390   25.8530   31.9560 H   0  0  0  0  0  0  0  0  0  0  0  0
   38.1010   25.2620   34.1990 C   0  0  0  0  0  0  0  0  0  0  0  0
   38.1960   26.6200   34.4060 C   0  0  0  0  0  0  0  0  0  0  0  0
   38.2730   27.1800   35.6680 C   0  0  0  0  0  0  0  0  0  0  0  0
   38.2530   26.3690   36.7520 N   0  0  0  0  0  0  0  0  0  0  0  0
   38.1590   25.0560   36.5320 C   0  0  0  0  0  0  0  0  0  0  0  0
   38.0850   24.4990   35.3170 N   0  0  0  0  0  0  0  0  0  0  0  0
   38.2110   27.2510   33.5190 H   0  0  0  0  0  0  0  0  0  0  0  0
   38.3460   28.2580   35.7370 H   0  0  0  0  0  0  0  0  0  0  0  0
   38.1330   24.1270   37.6970 C   0  0  0  0  0  0  0  0  0  0  0  0
   37.9640   24.8760   38.8550 F   0  0  0  0  0  0  0  0  0  0  0  0
   37.1250   23.1830   37.5700 F   0  0  0  0  0  0  0  0  0  0  0  0
   39.3020   23.4490   37.8380 F   0  0  0  0  0  0  0  0  0  0  0  0
   35.9590   22.0270   31.2380 C   0  0  2  0  0  3  0  0  0  0  0  0
   35.1960   21.6100   32.4800 C   0  0  0  0  0  3  0  0  0  0  0  0
   34.3670   22.3070   32.6990 H   0  0  0  0  0  0  0  0  0  0  0  0
   34.7240   20.2410   32.0450 C   0  0  0  0  0  3  0  0  0  0  0  0
   34.5180   19.5970   32.9050 H   0  0  0  0  0  0  0  0  0  0  0  0
   35.6250   19.7310   31.1380 O   0  0  0  0  0  0  0  0  0  0  0  0
   36.5950   20.6810   30.9000 C   0  0  0  0  0  3  0  0  0  0  0  0
   37.4090   20.5090   31.6340 H   0  0  0  0  0  0  0  0  0  0  0  0
  1  2  1  0  0  0  0
  2  8  1  0  0  0  0
  2  3  2  0  0  0  0
  3  9  1  0  0  0  0
  4  3  1  0  0  0  0
  5  4  2  0  0  0  0
  6  1  2  0  0  0  0
  6  5  1  0  0  0  0
  7  1  1  0  0  0  0
  9 10  2  0  0  0  0
  9 14  1  0  0  0  0
 10 11  1  0  0  0  0
 11 16  1  0  0  0  0
 11 12  2  0  0  0  0
 13 12  1  0  0  0  0
 13 17  1  0  0  0  0
 14 13  2  0  0  0  0
 15 10  1  0  0  0  0
 17 20  1  0  0  0  0
 17 18  1  0  0  0  0
 19 17  1  0  0  0  0
 21  5  1  1  0  0  0
 21 22  1  0  0  0  0
 22 23  1  0  0  0  0
 24 22  1  0  0  0  0
 24 25  1  0  0  0  0
 26 24  1  0  0  0  0
 27 26  1  0  0  0  0
 27 21  1  0  0  0  0
 27 28  1  0  0  0  0
M  END
>  <minimizedAffinity>
-5.55192089

$$$$

 OpenBabel03272502243D

 28 30  0  0  1  0  0  0  0  0999 V2000
   36.0470   29.9380   31.1910 C   0  0  0  0  0  0  0  0  0  0  0  0
   36.5440   28.6450   31.4420 C   0  0  0  0  0  0  0  0  0  0  0  0
   36.5360   28.2080   32.7580 C   0  0  0  0  0  0  0  0  0  0  0  0
   36.0550   29.0350   33.7180 N   0  0  0  0  0  0  0  0  0  0  0  0
   35.5830   30.2710   33.4460 C   0  0  0  0  0  0  0  0  0  0  0  0
   35.5810   30.7200   32.1780 N   0  0  0  0  0  0  0  0  0  0  0  0
   36.0950   30.1880   30.1340 H   0  0  0  0  0  0  0  0  0  0  0  0
   36.9270   27.9820   30.6880 H   0  0  0  0  0  0  0  0  0  0  0  0
   37.0210   26.8860   33.1850 C   0  0  0  0  0  0  0  0  0  0  0  0
   37.1800   25.8410   32.3020 C   0  0  0  0  0  0  0  0  0  0  0  0
   37.6350   24.5960   32.6930 C   0  0  0  0  0  0  0  0  0  0  0  0
   37.9400   24.3830   33.9940 N   0  0  0  0  0  0  0  0  0  0  0  0
   37.7810   25.4070   34.8350 C   0  0  0  0  0  0  0  0  0  0  0  0
   37.3410   26.6180   34.4730 N   0  0  0  0  0  0  0  0  0  0  0  0
   36.9270   26.0370   31.2620 H   0  0  0  0  0  0  0  0  0  0  0  0
   37.7290   23.8320   31.9310 H   0  0  0  0  0  0  0  0  0  0  0  0
   38.1050   25.2170   36.2770 C   0  0  0  0  0  0  0  0  0  0  0  0
   39.2750   24.4710   36.3720 F   0  0  0  0  0  0  0  0  0  0  0  0
   38.2430   26.4320   36.9300 F   0  0  0  0  0  0  0  0  0  0  0  0
   37.1430   24.5160   36.9320 F   0  0  0  0  0  0  0  0  0  0  0  0
   35.0650   31.1670   34.4780 C   0  0  2  0  0  3  0  0  0  0  0  0
   35.9890   31.3600   35.6630 C   0  0  0  0  0  3  0  0  0  0  0  0
   36.7790   32.1020   35.4450 H   0  0  0  0  0  0  0  0  0  0  0  0
   34.9910   31.8400   36.6930 C   0  0  0  0  0  3  0  0  0  0  0  0
   35.3410   31.6450   37.7110 H   0  0  0  0  0  0  0  0  0  0  0  0
   33.7570   31.3100   36.3920 O   0  0  0  0  0  0  0  0  0  0  0  0
   33.8620   30.5910   35.2200 C   0  0  0  0  0  3  0  0  0  0  0  0
   34.1150   29.5470   35.4970 H   0  0  0  0  0  0  0  0  0  0  0  0
  1  2  2  0  0  0  0
  1  6  1  0  0  0  0
  2  3  1  0  0  0  0
  3  9  1  0  0  0  0
  3  4  2  0  0  0  0
  5  4  1  0  0  0  0
  6  5  2  0  0  0  0
  7  1  1  0  0  0  0
  8  2  1  0  0  0  0
  9 14  1  0  0  0  0
 10 11  1  0  0  0  0
 10  9  2  0  0  0  0
 11 12  2  0  0  0  0
 12 13  1  0  0  0  0
 13 17  1  0  0  0  0
 14 13  2  0  0  0  0
 15 10  1  0  0  0  0
 16 11  1  0  0  0  0
 17 18  1  0  0  0  0
 17 19  1  0  0  0  0
 17 20  1  0  0  0  0
 21  5  1  6  0  0  0
 21 27  1  0  0  0  0
 21 22  1  0  0  0  0
 22 24  1  0  0  0  0
 23 22  1  0  0  0  0
 24 25  1  0  0  0  0
 26 24  1  0  0  0  0
 27 28  1  0  0  0  0
 27 26  1  0  0  0  0
M  END
>  <minimizedAffinity>
-5.29068756

$$$$

 OpenBabel03272502243D

 28 30  0  0  1  0  0  0  0  0999 V2000
   38.1210   25.0650   31.7580 C   0  0  0  0  0  0  0  0  0  0  0  0
   38.4800   24.3510   32.9170 C   0  0  0  0  0  0  0  0  0  0  0  0
   38.2220   24.9540   34.1380 C   0  0  0  0  0  0  0  0  0  0  0  0
   37.6460   26.1820   34.1520 N   0  0  0  0  0  0  0  0  0  0  0  0
   37.3120   26.8420   33.0230 C   0  0  0  0  0  0  0  0  0  0  0  0
   37.5520   26.2800   31.8240 N   0  0  0  0  0  0  0  0  0  0  0  0
   38.3620   24.5110   30.8540 H   0  0  0  0  0  0  0  0  0  0  0  0
   38.9370   23.3780   32.9150 H   0  0  0  0  0  0  0  0  0  0  0  0
   38.5370   24.3410   35.4380 C   0  0  0  0  0  0  0  0  0  0  0  0
   37.7150   24.4780   36.5330 C   0  0  0  0  0  0  0  0  0  0  0  0
   38.0010   23.9060   37.7590 C   0  0  0  0  0  0  0  0  0  0  0  0
   39.1330   23.1780   37.8990 N   0  0  0  0  0  0  0  0  0  0  0  0
   39.9180   23.0550   36.8260 C   0  0  0  0  0  0  0  0  0  0  0  0
   39.6550   23.6030   35.6330 N   0  0  0  0  0  0  0  0  0  0  0  0
   36.8100   25.0680   36.3950 H   0  0  0  0  0  0  0  0  0  0  0  0
   37.2970   24.0660   38.5660 H   0  0  0  0  0  0  0  0  0  0  0  0
   41.1750   22.2620   36.9360 C   0  0  0  0  0  0  0  0  0  0  0  0
   41.2660   21.4240   35.8300 F   0  0  0  0  0  0  0  0  0  0  0  0
   42.2880   23.0860   37.0210 F   0  0  0  0  0  0  0  0  0  0  0  0
   41.1830   21.4620   38.0330 F   0  0  0  0  0  0  0  0  0  0  0  0
   36.6910   28.1650   33.0320 C   0  0  2  0  0  3  0  0  0  0  0  0
   36.1100   28.5760   34.3700 C   0  0  0  0  0  3  0  0  0  0  0  0
   36.8910   28.9610   35.0510 H   0  0  0  0  0  0  0  0  0  0  0  0
   35.1420   29.6440   33.9130 C   0  0  0  0  0  3  0  0  0  0  0  0
   34.3300   29.7830   34.6340 H   0  0  0  0  0  0  0  0  0  0  0  0
   34.7360   29.3530   32.6300 O   0  0  0  0  0  0  0  0  0  0  0  0
   35.4140   28.2330   32.1990 C   0  0  0  0  0  3  0  0  0  0  0  0
   34.7970   27.3520   32.4720 H   0  0  0  0  0  0  0  0  0  0  0  0
  1  6  2  0  0  0  0
  1  2  1  0  0  0  0
  2  3  2  0  0  0  0
  3  4  1  0  0  0  0
  3  9  1  0  0  0  0
  5  4  2  0  0  0  0
  6  5  1  0  0  0  0
  7  1  1  0  0  0  0
  8  2  1  0  0  0  0
  9 14  2  0  0  0  0
  9 10  1  0  0  0  0
 10 11  2  0  0  0  0
 11 12  1  0  0  0  0
 11 16  1  0  0  0  0
 13 17  1  0  0  0  0
 13 12  2  0  0  0  0
 14 13  1  0  0  0  0
 15 10  1  0  0  0  0
 17 19  1  0  0  0  0
 17 20  1  0  0  0  0
 18 17  1  0  0  0  0
 21  5  1  1  0  0  0
 21 22  1  0  0  0  0
 22 23  1  0  0  0  0
 24 22  1  0  0  0  0
 24 25  1  0  0  0  0
 26 24  1  0  0  0  0
 27 28  1  0  0  0  0
 27 26  1  0  0  0  0
 27 21  1  0  0  0  0
M  END
>  <minimizedAffinity>
-5.25504398

$$$$

 OpenBabel03272502243D

 28 30  0  0  1  0  0  0  0  0999 V2000
   35.7390   28.0520   31.7570 C   0  0  0  0  0  0  0  0  0  0  0  0
   36.6410   27.1200   32.3030 C   0  0  0  0  0  0  0  0  0  0  0  0
   37.0690   27.3380   33.6030 C   0  0  0  0  0  0  0  0  0  0  0  0
   36.6020   28.4220   34.2710 N   0  0  0  0  0  0  0  0  0  0  0  0
   35.7360   29.2990   33.7220 C   0  0  0  0  0  0  0  0  0  0  0  0
   35.3050   29.1110   32.4610 N   0  0  0  0  0  0  0  0  0  0  0  0
   35.4640   27.7950   30.7370 H   0  0  0  0  0  0  0  0  0  0  0  0
   37.0160   26.2580   31.7810 H   0  0  0  0  0  0  0  0  0  0  0  0
   38.0090   26.4580   34.3150 C   0  0  0  0  0  0  0  0  0  0  0  0
   39.2870   26.2250   33.8580 C   0  0  0  0  0  0  0  0  0  0  0  0
   40.1780   25.4010   34.5190 C   0  0  0  0  0  0  0  0  0  0  0  0
   39.7900   24.7920   35.6640 N   0  0  0  0  0  0  0  0  0  0  0  0
   38.5490   25.0300   36.0930 C   0  0  0  0  0  0  0  0  0  0  0  0
   37.6740   25.8250   35.4640 N   0  0  0  0  0  0  0  0  0  0  0  0
   39.5750   26.7250   32.9350 H   0  0  0  0  0  0  0  0  0  0  0  0
   41.1630   25.2740   34.0870 H   0  0  0  0  0  0  0  0  0  0  0  0
   38.0800   24.3810   37.3490 C   0  0  0  0  0  0  0  0  0  0  0  0
   36.7750   23.9400   37.1580 F   0  0  0  0  0  0  0  0  0  0  0  0
   38.9060   23.3290   37.7150 F   0  0  0  0  0  0  0  0  0  0  0  0
   38.0480   25.2490   38.3940 F   0  0  0  0  0  0  0  0  0  0  0  0
   35.2310   30.4690   34.4370 C   0  0  2  0  0  3  0  0  0  0  0  0
   36.0540   30.8700   35.6450 C   0  0  0  0  0  3  0  0  0  0  0  0
   36.9430   31.4580   35.3530 H   0  0  0  0  0  0  0  0  0  0  0  0
   35.0250   31.6820   36.4000 C   0  0  0  0  0  3  0  0  0  0  0  0
   35.2520   31.7180   37.4700 H   0  0  0  0  0  0  0  0  0  0  0  0
   33.7720   31.2070   36.0870 O   0  0  0  0  0  0  0  0  0  0  0  0
   33.9030   30.2100   35.1430 C   0  0  0  0  0  3  0  0  0  0  0  0
   34.0040   29.2510   35.6920 H   0  0  0  0  0  0  0  0  0  0  0  0
  1  2  2  0  0  0  0
  1  6  1  0  0  0  0
  2  3  1  0  0  0  0
  3  4  2  0  0  0  0
  3  9  1  0  0  0  0
  5  4  1  0  0  0  0
  6  5  2  0  0  0  0
  7  1  1  0  0  0  0
  8  2  1  0  0  0  0
  9 14  1  0  0  0  0
 10  9  2  0  0  0  0
 10 11  1  0  0  0  0
 11 12  2  0  0  0  0
 12 13  1  0  0  0  0
 13 17  1  0  0  0  0
 14 13  2  0  0  0  0
 15 10  1  0  0  0  0
 16 11  1  0  0  0  0
 17 19  1  0  0  0  0
 17 20  1  0  0  0  0
 18 17  1  0  0  0  0
 21  5  1  1  0  0  0
 21 27  1  0  0  0  0
 21 22  1  0  0  0  0
 22 24  1  0  0  0  0
 23 22  1  0  0  0  0
 24 25  1  0  0  0  0
 26 24  1  0  0  0  0
 27 28  1  0  0  0  0
 27 26  1  0  0  0  0
M  END
>  <minimizedAffinity>
-5.21880007

$$$$

 OpenBabel03272502243D

 28 30  0  0  1  0  0  0  0  0999 V2000
   35.6720   31.1000   32.2870 C   0  0  0  0  0  0  0  0  0  0  0  0
   36.0880   29.7720   32.0740 C   0  0  0  0  0  0  0  0  0  0  0  0
   36.1880   28.9540   33.1890 C   0  0  0  0  0  0  0  0  0  0  0  0
   35.8850   29.4680   34.4060 N   0  0  0  0  0  0  0  0  0  0  0  0
   35.4880   30.7470   34.5790 C   0  0  0  0  0  0  0  0  0  0  0  0
   35.3820   31.5620   33.5140 N   0  0  0  0  0  0  0  0  0  0  0  0
   35.6240   31.6600   31.3550 H   0  0  0  0  0  0  0  0  0  0  0  0
   36.3300   29.3570   31.1130 H   0  0  0  0  0  0  0  0  0  0  0  0
   36.6090   27.5450   33.1350 C   0  0  0  0  0  0  0  0  0  0  0  0
   37.5140   27.0140   34.0260 C   0  0  0  0  0  0  0  0  0  0  0  0
   37.9160   25.6920   33.9860 C   0  0  0  0  0  0  0  0  0  0  0  0
   37.4040   24.8760   33.0350 N   0  0  0  0  0  0  0  0  0  0  0  0
   36.5270   25.4070   32.1800 C   0  0  0  0  0  0  0  0  0  0  0  0
   36.1290   26.6850   32.2060 N   0  0  0  0  0  0  0  0  0  0  0  0
   37.9110   27.6910   34.7810 H   0  0  0  0  0  0  0  0  0  0  0  0
   38.6320   25.3600   34.7260 H   0  0  0  0  0  0  0  0  0  0  0  0
   35.9390   24.5450   31.1170 C   0  0  0  0  0  0  0  0  0  0  0  0
   35.0420   25.3070   30.3770 F   0  0  0  0  0  0  0  0  0  0  0  0
   36.9210   24.0090   30.2970 F   0  0  0  0  0  0  0  0  0  0  0  0
   35.2340   23.5040   31.6320 F   0  0  0  0  0  0  0  0  0  0  0  0
   35.1600   31.3060   35.8890 C   0  0  2  0  0  3  0  0  0  0  0  0
   33.6750   31.4560   36.1530 C   0  0  0  0  0  3  0  0  0  0  0  0
   33.2220   30.4990   36.4710 H   0  0  0  0  0  0  0  0  0  0  0  0
   33.7140   32.4910   37.2560 C   0  0  0  0  0  3  0  0  0  0  0  0
   32.7740   33.0490   37.3120 H   0  0  0  0  0  0  0  0  0  0  0  0
   34.8410   33.2640   37.0970 O   0  0  0  0  0  0  0  0  0  0  0  0
   35.5650   32.7700   36.0320 C   0  0  0  0  0  3  0  0  0  0  0  0
   35.2130   33.2990   35.1230 H   0  0  0  0  0  0  0  0  0  0  0  0
  1  6  1  0  0  0  0
  2  1  2  0  0  0  0
  2  3  1  0  0  0  0
  3  4  2  0  0  0  0
  4  5  1  0  0  0  0
  6  5  2  0  0  0  0
  7  1  1  0  0  0  0
  8  2  1  0  0  0  0
  9  3  1  0  0  0  0
  9 10  1  0  0  0  0
 10 15  1  0  0  0  0
 11 10  2  0  0  0  0
 11 16  1  0  0  0  0
 12 11  1  0  0  0  0
 13 14  1  0  0  0  0
 13 12  2  0  0  0  0
 14  9  2  0  0  0  0
 17 20  1  0  0  0  0
 17 13  1  0  0  0  0
 18 17  1  0  0  0  0
 19 17  1  0  0  0  0
 21  5  1  6  0  0  0
 21 27  1  0  0  0  0
 21 22  1  0  0  0  0
 22 23  1  0  0  0  0
 22 24  1  0  0  0  0
 24 25  1  0  0  0  0
 26 24  1  0  0  0  0
 27 26  1  0  0  0  0
 28 27  1  0  0  0  0
M  END
>  <minimizedAffinity>
-5.18480253

$$$$

 OpenBabel03272502243D

 28 30  0  0  1  0  0  0  0  0999 V2000
   37.0250   27.2350   33.9530 C   0  0  0  0  0  0  0  0  0  0  0  0
   37.4350   26.5910   35.1360 C   0  0  0  0  0  0  0  0  0  0  0  0
   37.9640   25.3160   35.0120 C   0  0  0  0  0  0  0  0  0  0  0  0
   38.0580   24.7640   33.7770 N   0  0  0  0  0  0  0  0  0  0  0  0
   37.6570   25.4080   32.6600 C   0  0  0  0  0  0  0  0  0  0  0  0
   37.1390   26.6460   32.7520 N   0  0  0  0  0  0  0  0  0  0  0  0
   36.6250   28.2260   34.1540 H   0  0  0  0  0  0  0  0  0  0  0  0
   37.3640   27.0200   36.1190 H   0  0  0  0  0  0  0  0  0  0  0  0
   38.4370   24.5110   36.1500 C   0  0  0  0  0  0  0  0  0  0  0  0
   37.7640   24.4680   37.3500 C   0  0  0  0  0  0  0  0  0  0  0  0
   38.1980   23.7160   38.4240 C   0  0  0  0  0  0  0  0  0  0  0  0
   39.3320   22.9850   38.3030 N   0  0  0  0  0  0  0  0  0  0  0  0
   39.9710   23.0380   37.1320 C   0  0  0  0  0  0  0  0  0  0  0  0
   39.5630   23.7620   36.0830 N   0  0  0  0  0  0  0  0  0  0  0  0
   36.8550   25.0640   37.4220 H   0  0  0  0  0  0  0  0  0  0  0  0
   37.6060   23.7420   39.3300 H   0  0  0  0  0  0  0  0  0  0  0  0
   41.2230   22.2490   36.9550 C   0  0  0  0  0  0  0  0  0  0  0  0
   41.1470   21.5670   35.7460 F   0  0  0  0  0  0  0  0  0  0  0  0
   42.3440   23.0650   36.9890 F   0  0  0  0  0  0  0  0  0  0  0  0
   41.3800   21.3100   37.9240 F   0  0  0  0  0  0  0  0  0  0  0  0
   37.7550   24.8180   31.3260 C   0  0  2  0  0  3  0  0  0  0  0  0
   38.3060   23.4060   31.3040 C   0  0  0  0  0  3  0  0  0  0  0  0
   37.5260   22.6630   31.5520 H   0  0  0  0  0  0  0  0  0  0  0  0
   38.7620   23.3300   29.8640 C   0  0  0  0  0  3  0  0  0  0  0  0
   39.5490   22.5810   29.7330 H   0  0  0  0  0  0  0  0  0  0  0  0
   39.0880   24.5970   29.4370 O   0  0  0  0  0  0  0  0  0  0  0  0
   38.8130   25.4880   30.4530 C   0  0  0  0  0  3  0  0  0  0  0  0
   39.7340   25.5810   31.0650 H   0  0  0  0  0  0  0  0  0  0  0  0
  1  7  1  0  0  0  0
  1  2  1  0  0  0  0
  2  8  1  0  0  0  0
  3  2  2  0  0  0  0
  3  9  1  0  0  0  0
  4  3  1  0  0  0  0
  5  6  1  0  0  0  0
  5  4  2  0  0  0  0
  6  1  2  0  0  0  0
  9 10  1  0  0  0  0
 10 15  1  0  0  0  0
 10 11  2  0  0  0  0
 11 16  1  0  0  0  0
 12 11  1  0  0  0  0
 13 12  2  0  0  0  0
 14  9  2  0  0  0  0
 14 13  1  0  0  0  0
 17 19  1  0  0  0  0
 17 13  1  0  0  0  0
 17 20  1  0  0  0  0
 18 17  1  0  0  0  0
 21  5  1  1  0  0  0
 22 21  1  0  0  0  0
 22 23  1  0  0  0  0
 24 22  1  0  0  0  0
 25 24  1  0  0  0  0
 26 24  1  0  0  0  0
 26 27  1  0  0  0  0
 27 28  1  0  0  0  0
 27 21  1  0  0  0  0
M  END
>  <minimizedAffinity>
-5.14676809

$$$$
