
 OpenBabel03272507513D

 27 29  0  0  1  0  0  0  0  0999 V2000
   36.5490   29.6000   49.4660 C   0  0  0  0  0  0  0  0  0  0  0  0
   36.4810   30.5650   48.4480 C   0  0  0  0  0  0  0  0  0  0  0  0
   35.4560   30.4060   47.5020 C   0  0  0  0  0  0  0  0  0  0  0  0
   34.6050   29.3580   47.6130 N   0  0  0  0  0  0  0  0  0  0  0  0
   34.6980   28.4550   48.5990 C   0  0  0  0  0  0  0  0  0  0  0  0
   35.6780   28.5790   49.5300 N   0  0  0  0  0  0  0  0  0  0  0  0
   35.4110   31.1530   46.7200 H   0  0  0  0  0  0  0  0  0  0  0  0
   33.9550   27.6710   48.5690 H   0  0  0  0  0  0  0  0  0  0  0  0
   37.4290   31.6190   48.4350 N   0  0  0  0  0  0  0  0  0  0  0  0
   37.3970   32.6100   49.3320 C   0  0  0  0  0  0  0  0  0  0  0  0
   38.3520   33.6290   49.2900 C   0  0  0  0  0  0  0  0  0  0  0  0
   39.2640   33.4860   48.2770 C   0  0  0  0  0  0  0  0  0  0  0  0
   40.1520   34.4040   48.2140 O   0  0  0  0  0  0  0  0  0  0  0  0
   39.3270   32.5130   47.3640 N   0  0  0  0  0  0  0  0  0  0  0  0
   38.3690   31.5530   47.4600 C   0  0  0  0  0  0  0  0  0  0  0  0
   38.4140   30.6220   46.5990 O   0  0  0  0  0  0  0  0  0  0  0  0
   36.6370   32.6620   50.1120 H   0  0  0  0  0  0  0  0  0  0  0  0
   38.3820   34.4580   49.9850 H   0  0  0  0  0  0  0  0  0  0  0  0
   40.0730   32.5110   46.6360 H   0  0  0  0  0  0  0  0  0  0  0  0
   37.5530   29.6050   50.5270 C   0  0  2  0  0  3  0  0  0  0  0  0
   38.0630   28.2020   50.8480 C   0  0  0  0  0  3  0  0  0  0  0  0
   39.0390   28.0250   50.3590 H   0  0  0  0  0  0  0  0  0  0  0  0
   38.2780   28.2870   52.3380 C   0  0  0  0  0  3  0  0  0  0  0  0
   37.5420   27.6880   52.9220 H   0  0  0  0  0  0  0  0  0  0  0  0
   38.0710   29.6270   52.7000 O   0  0  0  0  0  0  0  0  0  0  0  0
   36.9990   30.0190   51.8700 C   0  0  0  0  0  3  0  0  0  0  0  0
   36.8580   31.1080   51.9630 H   0  0  0  0  0  0  0  0  0  0  0  0
  1  6  1  0  0  0  0
  2  1  2  0  0  0  0
  3  4  2  0  0  0  0
  3  2  1  0  0  0  0
  4  5  1  0  0  0  0
  5  6  2  0  0  0  0
  7  3  1  0  0  0  0
  8  5  1  0  0  0  0
  9  2  1  0  0  0  0
  9 10  1  0  0  0  0
 10 17  1  0  0  0  0
 11 10  2  0  0  0  0
 11 18  1  0  0  0  0
 12 11  1  0  0  0  0
 13 12  2  0  0  0  0
 14 15  1  0  0  0  0
 14 12  1  0  0  0  0
 15  9  1  0  0  0  0
 16 15  2  0  0  0  0
 19 14  1  0  0  0  0
 20  1  1  6  0  0  0
 20 21  1  0  0  0  0
 20 26  1  0  0  0  0
 21 23  1  0  0  0  0
 22 21  1  0  0  0  0
 23 25  1  0  0  0  0
 23 24  1  0  0  0  0
 26 27  1  0  0  0  0
 26 25  1  0  0  0  0
M  END
>  <minimizedAffinity>
-3.80265713

>  <minimizedRMSD>
0.627748728

$$$$
