
 OpenBabel03272508073D

 34 37  0  0  1  0  0  0  0  0999 V2000
   37.5250   26.3780   34.2920 C   0  0  0  0  0  0  0  0  0  0  0  0
   37.6610   26.7220   32.9730 C   0  0  0  0  0  0  0  0  0  0  0  0
   36.9810   27.9040   32.7030 C   0  0  0  0  0  0  0  0  0  0  0  0
   36.4500   28.2320   33.9030 N   0  0  0  0  0  0  0  0  0  0  0  0
   36.7600   27.3500   34.8370 N   0  0  0  0  0  0  0  0  0  0  0  0
   38.2130   26.1740   32.2160 H   0  0  0  0  0  0  0  0  0  0  0  0
   36.8650   28.4670   31.8010 H   0  0  0  0  0  0  0  0  0  0  0  0
   38.0850   25.2180   34.9580 C   0  0  0  0  0  0  0  0  0  0  0  0
   37.9080   25.0940   36.3620 C   0  0  0  0  0  0  0  0  0  0  0  0
   38.4490   23.9780   36.9850 C   0  0  0  0  0  0  0  0  0  0  0  0
   39.1180   23.0680   36.2170 N   0  0  0  0  0  0  0  0  0  0  0  0
   39.2750   23.2070   34.8790 C   0  0  0  0  0  0  0  0  0  0  0  0
   38.7550   24.2860   34.2600 N   0  0  0  0  0  0  0  0  0  0  0  0
   37.3680   25.8420   36.9300 H   0  0  0  0  0  0  0  0  0  0  0  0
   39.8210   22.4320   34.3580 H   0  0  0  0  0  0  0  0  0  0  0  0
   38.2770   23.8240   38.4510 C   0  0  0  0  0  0  0  0  0  0  0  0
   39.4990   23.4120   38.9270 F   0  0  0  0  0  0  0  0  0  0  0  0
   37.9460   25.0170   39.0750 F   0  0  0  0  0  0  0  0  0  0  0  0
   37.3200   22.8570   38.7570 F   0  0  0  0  0  0  0  0  0  0  0  0
   35.6230   29.3900   34.2400 C   0  0  0  0  0  0  0  0  0  0  0  0
   34.3560   29.5760   33.6590 C   0  0  0  0  0  0  0  0  0  0  0  0
   33.6260   30.6730   34.0080 C   0  0  0  0  0  0  0  0  0  0  0  0
   34.1630   31.5950   34.9470 C   0  0  0  0  0  0  0  0  0  0  0  0
   35.8110   30.8430   35.3510 S   0  0  0  0  0  0  0  0  0  0  0  0
   33.9160   28.8960   32.9420 H   0  0  0  0  0  0  0  0  0  0  0  0
   32.6520   30.9970   33.6870 H   0  0  0  0  0  0  0  0  0  0  0  0
   33.8520   32.7970   35.6010 C   0  0  1  0  0  3  0  0  0  0  0  0
   32.3710   33.0400   35.5830 C   0  0  0  0  0  3  0  0  0  0  0  0
   31.9740   32.5600   34.6670 H   0  0  0  0  0  0  0  0  0  0  0  0
   31.8980   32.4010   36.8460 C   0  0  0  0  0  3  0  0  0  0  0  0
   31.1900   31.5730   36.6340 H   0  0  0  0  0  0  0  0  0  0  0  0
   33.0040   31.8420   37.4700 O   0  0  0  0  0  0  0  0  0  0  0  0
   34.1060   32.5740   37.0960 C   0  0  0  0  0  3  0  0  0  0  0  0
   35.0230   31.9800   37.2760 H   0  0  0  0  0  0  0  0  0  0  0  0
  1  5  2  0  0  0  0
  1  8  1  0  0  0  0
  2  1  1  0  0  0  0
  3  2  2  0  0  0  0
  3  4  1  0  0  0  0
  4 20  1  0  0  0  0
  4  5  1  0  0  0  0
  6  2  1  0  0  0  0
  7  3  1  0  0  0  0
  8  9  1  0  0  0  0
  9 14  1  0  0  0  0
  9 10  2  0  0  0  0
 10 16  1  0  0  0  0
 11 10  1  0  0  0  0
 12 11  2  0  0  0  0
 13 12  1  0  0  0  0
 13  8  2  0  0  0  0
 15 12  1  0  0  0  0
 16 19  1  0  0  0  0
 16 17  1  0  0  0  0
 16 18  1  0  0  0  0
 20 24  1  0  0  0  0
 21 22  1  0  0  0  0
 21 20  2  0  0  0  0
 22 23  2  0  0  0  0
 23 24  1  0  0  0  0
 25 21  1  0  0  0  0
 26 22  1  0  0  0  0
 27 23  1  6  0  0  0
 27 33  1  0  0  0  0
 28 27  1  0  0  0  0
 28 30  1  0  0  0  0
 29 28  1  0  0  0  0
 30 32  1  0  0  0  0
 31 30  1  0  0  0  0
 33 34  1  0  0  0  0
 33 32  1  0  0  0  0
M  END
>  <minimizedAffinity>
-6.22454786

$$$$

 OpenBabel03272508073D

 34 37  0  0  1  0  0  0  0  0999 V2000
   37.4610   26.4200   34.3060 C   0  0  0  0  0  0  0  0  0  0  0  0
   37.5970   26.8070   32.9980 C   0  0  0  0  0  0  0  0  0  0  0  0
   36.8860   27.9780   32.7590 C   0  0  0  0  0  0  0  0  0  0  0  0
   36.3380   28.2550   33.9630 N   0  0  0  0  0  0  0  0  0  0  0  0
   36.6660   27.3540   34.8730 N   0  0  0  0  0  0  0  0  0  0  0  0
   38.1690   26.2980   32.2290 H   0  0  0  0  0  0  0  0  0  0  0  0
   36.7610   28.5640   31.8730 H   0  0  0  0  0  0  0  0  0  0  0  0
   38.0490   25.2560   34.9400 C   0  0  0  0  0  0  0  0  0  0  0  0
   37.8960   25.1040   36.3440 C   0  0  0  0  0  0  0  0  0  0  0  0
   38.4640   23.9840   36.9380 C   0  0  0  0  0  0  0  0  0  0  0  0
   39.1330   23.0980   36.1430 N   0  0  0  0  0  0  0  0  0  0  0  0
   39.2660   23.2640   34.8050 C   0  0  0  0  0  0  0  0  0  0  0  0
   38.7200   24.3470   34.2150 N   0  0  0  0  0  0  0  0  0  0  0  0
   37.3560   25.8330   36.9350 H   0  0  0  0  0  0  0  0  0  0  0  0
   39.8150   22.5070   34.2610 H   0  0  0  0  0  0  0  0  0  0  0  0
   38.3180   23.8010   38.4030 C   0  0  0  0  0  0  0  0  0  0  0  0
   37.9460   25.0290   38.8960 F   0  0  0  0  0  0  0  0  0  0  0  0
   37.3310   22.8830   38.7280 F   0  0  0  0  0  0  0  0  0  0  0  0
   39.5220   23.4200   38.9950 F   0  0  0  0  0  0  0  0  0  0  0  0
   35.4770   29.3790   34.3280 C   0  0  0  0  0  0  0  0  0  0  0  0
   35.9610   30.4470   35.1040 C   0  0  0  0  0  0  0  0  0  0  0  0
   35.1160   31.4700   35.4170 C   0  0  0  0  0  0  0  0  0  0  0  0
   33.7730   31.4280   34.9510 C   0  0  0  0  0  0  0  0  0  0  0  0
   33.7230   29.8290   34.0110 S   0  0  0  0  0  0  0  0  0  0  0  0
   36.9750   30.5110   35.4750 H   0  0  0  0  0  0  0  0  0  0  0  0
   35.2820   32.3660   35.9870 H   0  0  0  0  0  0  0  0  0  0  0  0
   32.5790   32.1660   34.9870 C   0  0  1  0  0  3  0  0  0  0  0  0
   31.3920   31.2490   35.0380 C   0  0  0  0  0  3  0  0  0  0  0  0
   31.6810   30.3140   34.5190 H   0  0  0  0  0  0  0  0  0  0  0  0
   31.1520   31.0710   36.5010 C   0  0  0  0  0  3  0  0  0  0  0  0
   31.2700   30.0080   36.7970 H   0  0  0  0  0  0  0  0  0  0  0  0
   32.1280   31.7920   37.1740 O   0  0  0  0  0  0  0  0  0  0  0  0
   32.5060   32.8370   36.3630 C   0  0  0  0  0  3  0  0  0  0  0  0
   33.4920   33.2200   36.6890 H   0  0  0  0  0  0  0  0  0  0  0  0
  1  5  2  0  0  0  0
  1  8  1  0  0  0  0
  2  1  1  0  0  0  0
  3  2  2  0  0  0  0
  3  4  1  0  0  0  0
  4 20  1  0  0  0  0
  4  5  1  0  0  0  0
  6  2  1  0  0  0  0
  7  3  1  0  0  0  0
  8  9  1  0  0  0  0
  9 14  1  0  0  0  0
  9 10  2  0  0  0  0
 10 16  1  0  0  0  0
 11 10  1  0  0  0  0
 12 11  2  0  0  0  0
 13 12  1  0  0  0  0
 13  8  2  0  0  0  0
 15 12  1  0  0  0  0
 16 18  1  0  0  0  0
 16 17  1  0  0  0  0
 16 19  1  0  0  0  0
 20 21  2  0  0  0  0
 21 22  1  0  0  0  0
 21 25  1  0  0  0  0
 22 26  1  0  0  0  0
 23 22  2  0  0  0  0
 24 20  1  0  0  0  0
 24 23  1  0  0  0  0
 27 23  1  1  0  0  0
 27 28  1  0  0  0  0
 27 33  1  0  0  0  0
 28 30  1  0  0  0  0
 29 28  1  0  0  0  0
 30 31  1  0  0  0  0
 30 32  1  0  0  0  0
 33 34  1  0  0  0  0
 33 32  1  0  0  0  0
M  END
>  <minimizedAffinity>
-6.16636992

$$$$

 OpenBabel03272508073D

 34 37  0  0  1  0  0  0  0  0999 V2000
   37.6180   25.2610   33.7810 C   0  0  0  0  0  0  0  0  0  0  0  0
   37.3300   25.0900   32.4530 C   0  0  0  0  0  0  0  0  0  0  0  0
   36.8070   26.2590   31.9110 C   0  0  0  0  0  0  0  0  0  0  0  0
   36.8030   27.1080   32.9630 N   0  0  0  0  0  0  0  0  0  0  0  0
   37.2730   26.5380   34.0590 N   0  0  0  0  0  0  0  0  0  0  0  0
   37.4740   24.1850   31.8720 H   0  0  0  0  0  0  0  0  0  0  0  0
   36.4730   26.4970   30.9230 H   0  0  0  0  0  0  0  0  0  0  0  0
   38.1760   24.2790   34.6900 C   0  0  0  0  0  0  0  0  0  0  0  0
   37.9850   24.4660   36.0860 C   0  0  0  0  0  0  0  0  0  0  0  0
   38.5240   23.5170   36.9450 C   0  0  0  0  0  0  0  0  0  0  0  0
   39.2020   22.4640   36.4020 N   0  0  0  0  0  0  0  0  0  0  0  0
   39.3730   22.3060   35.0670 C   0  0  0  0  0  0  0  0  0  0  0  0
   38.8550   23.2190   34.2220 N   0  0  0  0  0  0  0  0  0  0  0  0
   37.4370   25.3180   36.4710 H   0  0  0  0  0  0  0  0  0  0  0  0
   39.9260   21.4380   34.7340 H   0  0  0  0  0  0  0  0  0  0  0  0
   38.3380   23.6890   38.4070 C   0  0  0  0  0  0  0  0  0  0  0  0
   39.5520   23.3840   38.9740 F   0  0  0  0  0  0  0  0  0  0  0  0
   38.0110   24.9920   38.7510 F   0  0  0  0  0  0  0  0  0  0  0  0
   37.3700   22.8190   38.9070 F   0  0  0  0  0  0  0  0  0  0  0  0
   36.3580   28.5010   33.0000 C   0  0  0  0  0  0  0  0  0  0  0  0
   36.4660   29.3310   31.8710 C   0  0  0  0  0  0  0  0  0  0  0  0
   36.0360   30.6220   31.9590 C   0  0  0  0  0  0  0  0  0  0  0  0
   35.4920   31.0910   33.1860 C   0  0  0  0  0  0  0  0  0  0  0  0
   35.6040   29.5910   34.2740 S   0  0  0  0  0  0  0  0  0  0  0  0
   36.8750   29.0090   30.9230 H   0  0  0  0  0  0  0  0  0  0  0  0
   36.0280   31.4090   31.2270 H   0  0  0  0  0  0  0  0  0  0  0  0
   34.9450   32.2430   33.7710 C   0  0  1  0  0  3  0  0  0  0  0  0
   35.3000   32.3150   35.2280 C   0  0  0  0  0  3  0  0  0  0  0  0
   35.4130   31.2740   35.5870 H   0  0  0  0  0  0  0  0  0  0  0  0
   36.5730   33.0940   35.2380 C   0  0  0  0  0  3  0  0  0  0  0  0
   37.4070   32.4890   35.6490 H   0  0  0  0  0  0  0  0  0  0  0  0
   36.8940   33.3870   33.9200 O   0  0  0  0  0  0  0  0  0  0  0  0
   35.7170   33.4420   33.2090 C   0  0  0  0  0  3  0  0  0  0  0  0
   35.9320   33.3270   32.1290 H   0  0  0  0  0  0  0  0  0  0  0  0
  1  5  2  0  0  0  0
  1  8  1  0  0  0  0
  2  1  1  0  0  0  0
  3  2  2  0  0  0  0
  3  4  1  0  0  0  0
  4 20  1  0  0  0  0
  4  5  1  0  0  0  0
  6  2  1  0  0  0  0
  7  3  1  0  0  0  0
  8  9  1  0  0  0  0
  9 14  1  0  0  0  0
  9 10  2  0  0  0  0
 10 16  1  0  0  0  0
 11 10  1  0  0  0  0
 12 11  2  0  0  0  0
 13  8  2  0  0  0  0
 13 12  1  0  0  0  0
 15 12  1  0  0  0  0
 16 18  1  0  0  0  0
 16 19  1  0  0  0  0
 16 17  1  0  0  0  0
 20 24  1  0  0  0  0
 21 22  1  0  0  0  0
 21 20  2  0  0  0  0
 22 23  2  0  0  0  0
 23 24  1  0  0  0  0
 25 21  1  0  0  0  0
 26 22  1  0  0  0  0
 27 23  1  6  0  0  0
 27 28  1  0  0  0  0
 28 30  1  0  0  0  0
 28 29  1  0  0  0  0
 30 31  1  0  0  0  0
 32 30  1  0  0  0  0
 33 27  1  0  0  0  0
 33 32  1  0  0  0  0
 34 33  1  0  0  0  0
M  END
>  <minimizedAffinity>
-6.0308857

$$$$

 OpenBabel03272508073D

 34 37  0  0  1  0  0  0  0  0999 V2000
   37.5520   26.2040   34.2890 C   0  0  0  0  0  0  0  0  0  0  0  0
   36.7750   27.2070   34.8070 C   0  0  0  0  0  0  0  0  0  0  0  0
   36.5830   28.2120   33.8660 C   0  0  0  0  0  0  0  0  0  0  0  0
   37.2690   27.7610   32.7920 N   0  0  0  0  0  0  0  0  0  0  0  0
   37.8380   26.5910   33.0260 N   0  0  0  0  0  0  0  0  0  0  0  0
   36.3530   27.2470   35.8060 H   0  0  0  0  0  0  0  0  0  0  0  0
   36.0420   29.1340   33.9110 H   0  0  0  0  0  0  0  0  0  0  0  0
   37.9730   24.9880   34.9570 C   0  0  0  0  0  0  0  0  0  0  0  0
   37.9280   24.9480   36.3760 C   0  0  0  0  0  0  0  0  0  0  0  0
   38.3340   23.7770   37.0030 C   0  0  0  0  0  0  0  0  0  0  0  0
   38.7500   22.7360   36.2230 N   0  0  0  0  0  0  0  0  0  0  0  0
   38.7840   22.7970   34.8700 C   0  0  0  0  0  0  0  0  0  0  0  0
   38.3930   23.9280   34.2490 N   0  0  0  0  0  0  0  0  0  0  0  0
   37.5890   25.7990   36.9540 H   0  0  0  0  0  0  0  0  0  0  0  0
   39.1300   21.9190   34.3400 H   0  0  0  0  0  0  0  0  0  0  0  0
   38.2960   23.7090   38.4850 C   0  0  0  0  0  0  0  0  0  0  0  0
   39.5660   23.3540   38.8720 F   0  0  0  0  0  0  0  0  0  0  0  0
   37.9890   24.9310   39.0650 F   0  0  0  0  0  0  0  0  0  0  0  0
   37.3970   22.7430   38.9310 F   0  0  0  0  0  0  0  0  0  0  0  0
   37.4290   28.4000   31.4860 C   0  0  0  0  0  0  0  0  0  0  0  0
   36.5980   29.4620   31.0870 C   0  0  0  0  0  0  0  0  0  0  0  0
   36.7900   30.0230   29.8590 C   0  0  0  0  0  0  0  0  0  0  0  0
   37.8220   29.5200   29.0200 C   0  0  0  0  0  0  0  0  0  0  0  0
   38.5570   28.1660   30.0540 S   0  0  0  0  0  0  0  0  0  0  0  0
   35.8040   29.8690   31.6980 H   0  0  0  0  0  0  0  0  0  0  0  0
   36.2750   30.8300   29.3690 H   0  0  0  0  0  0  0  0  0  0  0  0
   38.3990   29.7210   27.7560 C   0  0  1  0  0  3  0  0  0  0  0  0
   38.0420   31.0770   27.2220 C   0  0  0  0  0  3  0  0  0  0  0  0
   37.0540   31.3440   27.6460 H   0  0  0  0  0  0  0  0  0  0  0  0
   39.1560   31.9460   27.7060 C   0  0  0  0  0  3  0  0  0  0  0  0
   38.7760   32.7400   28.3820 H   0  0  0  0  0  0  0  0  0  0  0  0
   40.0120   31.1500   28.4530 O   0  0  0  0  0  0  0  0  0  0  0  0
   39.9100   29.8650   27.9700 C   0  0  0  0  0  3  0  0  0  0  0  0
   40.2900   29.1550   28.7300 H   0  0  0  0  0  0  0  0  0  0  0  0
  1  2  1  0  0  0  0
  1  8  1  0  0  0  0
  2  6  1  0  0  0  0
  3  7  1  0  0  0  0
  3  2  2  0  0  0  0
  4  5  1  0  0  0  0
  4  3  1  0  0  0  0
  5  1  2  0  0  0  0
  8  9  1  0  0  0  0
  9 14  1  0  0  0  0
  9 10  2  0  0  0  0
 10 16  1  0  0  0  0
 11 10  1  0  0  0  0
 12 11  2  0  0  0  0
 13 12  1  0  0  0  0
 13  8  2  0  0  0  0
 15 12  1  0  0  0  0
 16 17  1  0  0  0  0
 16 19  1  0  0  0  0
 16 18  1  0  0  0  0
 20  4  1  0  0  0  0
 21 20  2  0  0  0  0
 21 25  1  0  0  0  0
 22 21  1  0  0  0  0
 23 22  2  0  0  0  0
 23 24  1  0  0  0  0
 24 20  1  0  0  0  0
 26 22  1  0  0  0  0
 27 33  1  0  0  0  0
 27 23  1  1  0  0  0
 28 29  1  0  0  0  0
 28 30  1  0  0  0  0
 28 27  1  0  0  0  0
 30 31  1  0  0  0  0
 30 32  1  0  0  0  0
 33 32  1  0  0  0  0
 33 34  1  0  0  0  0
M  END
>  <minimizedAffinity>
-5.88956118

$$$$

 OpenBabel03272508073D

 34 37  0  0  1  0  0  0  0  0999 V2000
   37.2250   26.6430   34.2560 C   0  0  0  0  0  0  0  0  0  0  0  0
   36.8940   26.8240   32.9390 C   0  0  0  0  0  0  0  0  0  0  0  0
   36.2370   28.0370   32.7630 C   0  0  0  0  0  0  0  0  0  0  0  0
   36.2000   28.5490   34.0140 N   0  0  0  0  0  0  0  0  0  0  0  0
   36.7730   27.7460   34.8930 N   0  0  0  0  0  0  0  0  0  0  0  0
   37.0970   26.1400   32.1210 H   0  0  0  0  0  0  0  0  0  0  0  0
   35.8360   28.5080   31.8900 H   0  0  0  0  0  0  0  0  0  0  0  0
   37.9160   25.5080   34.8370 C   0  0  0  0  0  0  0  0  0  0  0  0
   37.7710   25.2710   36.2310 C   0  0  0  0  0  0  0  0  0  0  0  0
   38.4380   24.1810   36.7740 C   0  0  0  0  0  0  0  0  0  0  0  0
   39.1900   23.4020   35.9410 N   0  0  0  0  0  0  0  0  0  0  0  0
   39.3140   23.6470   34.6140 C   0  0  0  0  0  0  0  0  0  0  0  0
   38.6720   24.7020   34.0740 N   0  0  0  0  0  0  0  0  0  0  0  0
   37.1620   25.9160   36.8520 H   0  0  0  0  0  0  0  0  0  0  0  0
   39.9330   22.9720   34.0380 H   0  0  0  0  0  0  0  0  0  0  0  0
   38.3030   23.9110   38.2260 C   0  0  0  0  0  0  0  0  0  0  0  0
   37.3030   22.9740   38.3380 F   0  0  0  0  0  0  0  0  0  0  0  0
   39.4600   23.3830   38.7780 F   0  0  0  0  0  0  0  0  0  0  0  0
   37.9330   25.0570   38.9290 F   0  0  0  0  0  0  0  0  0  0  0  0
   35.6260   29.8200   34.4540 C   0  0  0  0  0  0  0  0  0  0  0  0
   36.1740   30.5320   35.5360 C   0  0  0  0  0  0  0  0  0  0  0  0
   35.6000   31.7120   35.9060 C   0  0  0  0  0  0  0  0  0  0  0  0
   34.4660   32.1880   35.1910 C   0  0  0  0  0  0  0  0  0  0  0  0
   34.2130   30.8650   33.9140 S   0  0  0  0  0  0  0  0  0  0  0  0
   37.0330   30.2010   36.1020 H   0  0  0  0  0  0  0  0  0  0  0  0
   35.8580   32.4010   36.6900 H   0  0  0  0  0  0  0  0  0  0  0  0
   33.5620   33.2600   35.1630 C   0  0  1  0  0  3  0  0  0  0  0  0
   34.0200   34.3610   36.0740 C   0  0  0  0  0  3  0  0  0  0  0  0
   34.5960   33.8880   36.8920 H   0  0  0  0  0  0  0  0  0  0  0  0
   34.8470   35.2290   35.1830 C   0  0  0  0  0  3  0  0  0  0  0  0
   35.8980   35.2720   35.5350 H   0  0  0  0  0  0  0  0  0  0  0  0
   34.8630   34.6410   33.9260 O   0  0  0  0  0  0  0  0  0  0  0  0
   33.6960   33.9260   33.7880 C   0  0  0  0  0  3  0  0  0  0  0  0
   33.8130   33.1810   32.9780 H   0  0  0  0  0  0  0  0  0  0  0  0
  1  8  1  0  0  0  0
  1  5  2  0  0  0  0
  2  1  1  0  0  0  0
  3  2  2  0  0  0  0
  3  4  1  0  0  0  0
  4 20  1  0  0  0  0
  4  5  1  0  0  0  0
  6  2  1  0  0  0  0
  7  3  1  0  0  0  0
  8  9  1  0  0  0  0
  9 10  2  0  0  0  0
  9 14  1  0  0  0  0
 10 16  1  0  0  0  0
 11 10  1  0  0  0  0
 12 11  2  0  0  0  0
 13 12  1  0  0  0  0
 13  8  2  0  0  0  0
 15 12  1  0  0  0  0
 16 17  1  0  0  0  0
 16 18  1  0  0  0  0
 16 19  1  0  0  0  0
 20 21  2  0  0  0  0
 21 22  1  0  0  0  0
 21 25  1  0  0  0  0
 22 26  1  0  0  0  0
 23 22  2  0  0  0  0
 24 20  1  0  0  0  0
 24 23  1  0  0  0  0
 27 23  1  6  0  0  0
 27 28  1  0  0  0  0
 28 29  1  0  0  0  0
 30 31  1  0  0  0  0
 30 28  1  0  0  0  0
 32 30  1  0  0  0  0
 33 32  1  0  0  0  0
 33 27  1  0  0  0  0
 34 33  1  0  0  0  0
M  END
>  <minimizedAffinity>
-5.85559273

$$$$

 OpenBabel03272508073D

 34 37  0  0  1  0  0  0  0  0999 V2000
   37.9550   24.9480   34.7380 C   0  0  0  0  0  0  0  0  0  0  0  0
   37.9150   24.4330   33.4690 C   0  0  0  0  0  0  0  0  0  0  0  0
   37.3970   25.3670   32.5790 C   0  0  0  0  0  0  0  0  0  0  0  0
   37.1400   26.4330   33.3700 N   0  0  0  0  0  0  0  0  0  0  0  0
   37.4610   26.2010   34.6310 N   0  0  0  0  0  0  0  0  0  0  0  0
   38.2340   23.4420   33.1630 H   0  0  0  0  0  0  0  0  0  0  0  0
   37.2200   25.3220   31.5250 H   0  0  0  0  0  0  0  0  0  0  0  0
   38.4270   24.2840   35.9380 C   0  0  0  0  0  0  0  0  0  0  0  0
   39.6310   23.5340   35.8640 C   0  0  0  0  0  0  0  0  0  0  0  0
   40.0720   22.9040   37.0200 C   0  0  0  0  0  0  0  0  0  0  0  0
   39.3270   23.0420   38.1570 N   0  0  0  0  0  0  0  0  0  0  0  0
   38.1810   23.7620   38.2040 C   0  0  0  0  0  0  0  0  0  0  0  0
   37.7410   24.3790   37.0890 N   0  0  0  0  0  0  0  0  0  0  0  0
   40.1900   23.4530   34.9390 H   0  0  0  0  0  0  0  0  0  0  0  0
   37.6620   23.8110   39.1520 H   0  0  0  0  0  0  0  0  0  0  0  0
   41.3270   22.1140   36.9700 C   0  0  0  0  0  0  0  0  0  0  0  0
   42.3470   23.0340   37.0220 F   0  0  0  0  0  0  0  0  0  0  0  0
   41.4590   21.2560   38.0520 F   0  0  0  0  0  0  0  0  0  0  0  0
   41.4300   21.3880   35.7850 F   0  0  0  0  0  0  0  0  0  0  0  0
   36.5800   27.7290   32.9880 C   0  0  0  0  0  0  0  0  0  0  0  0
   36.6970   28.2160   31.6740 C   0  0  0  0  0  0  0  0  0  0  0  0
   36.1570   29.4300   31.3710 C   0  0  0  0  0  0  0  0  0  0  0  0
   35.4920   30.1680   32.3880 C   0  0  0  0  0  0  0  0  0  0  0  0
   35.6530   29.0530   33.8630 S   0  0  0  0  0  0  0  0  0  0  0  0
   37.1950   27.6830   30.8760 H   0  0  0  0  0  0  0  0  0  0  0  0
   36.1340   29.9760   30.4440 H   0  0  0  0  0  0  0  0  0  0  0  0
   34.8130   31.3790   32.5950 C   0  0  1  0  0  3  0  0  0  0  0  0
   34.3130   31.9330   31.2930 C   0  0  0  0  0  3  0  0  0  0  0  0
   35.0110   31.5910   30.5050 H   0  0  0  0  0  0  0  0  0  0  0  0
   32.9420   31.3550   31.1720 C   0  0  0  0  0  3  0  0  0  0  0  0
   32.8610   30.7080   30.2740 H   0  0  0  0  0  0  0  0  0  0  0  0
   32.7310   30.5450   32.2790 O   0  0  0  0  0  0  0  0  0  0  0  0
   33.4980   31.0410   33.3080 C   0  0  0  0  0  3  0  0  0  0  0  0
   33.6340   30.2570   34.0770 H   0  0  0  0  0  0  0  0  0  0  0  0
  1  8  1  0  0  0  0
  2  1  1  0  0  0  0
  3  4  1  0  0  0  0
  3  2  2  0  0  0  0
  4  5  1  0  0  0  0
  5  1  2  0  0  0  0
  6  2  1  0  0  0  0
  7  3  1  0  0  0  0
  8 13  1  0  0  0  0
  9  8  2  0  0  0  0
  9 10  1  0  0  0  0
 10 11  2  0  0  0  0
 11 12  1  0  0  0  0
 12 15  1  0  0  0  0
 13 12  2  0  0  0  0
 14  9  1  0  0  0  0
 16 10  1  0  0  0  0
 16 17  1  0  0  0  0
 16 18  1  0  0  0  0
 19 16  1  0  0  0  0
 20  4  1  0  0  0  0
 20 24  1  0  0  0  0
 21 20  2  0  0  0  0
 22 21  1  0  0  0  0
 22 23  2  0  0  0  0
 23 24  1  0  0  0  0
 25 21  1  0  0  0  0
 26 22  1  0  0  0  0
 27 23  1  6  0  0  0
 27 33  1  0  0  0  0
 28 27  1  0  0  0  0
 29 28  1  0  0  0  0
 30 28  1  0  0  0  0
 30 32  1  0  0  0  0
 31 30  1  0  0  0  0
 32 33  1  0  0  0  0
 33 34  1  0  0  0  0
M  END
>  <minimizedAffinity>
-5.74439669

$$$$

 OpenBabel03272508073D

 34 37  0  0  1  0  0  0  0  0999 V2000
   35.5240   29.2850   31.9970 C   0  0  0  0  0  0  0  0  0  0  0  0
   36.2810   29.5150   30.8780 C   0  0  0  0  0  0  0  0  0  0  0  0
   36.7350   28.3160   30.3410 C   0  0  0  0  0  0  0  0  0  0  0  0
   36.2180   27.3890   31.1790 N   0  0  0  0  0  0  0  0  0  0  0  0
   35.5100   27.9420   32.1490 N   0  0  0  0  0  0  0  0  0  0  0  0
   36.5150   30.4810   30.4440 H   0  0  0  0  0  0  0  0  0  0  0  0
   37.3410   28.1050   29.4840 H   0  0  0  0  0  0  0  0  0  0  0  0
   34.8760   30.2750   32.8350 C   0  0  0  0  0  0  0  0  0  0  0  0
   35.5230   30.6680   34.0380 C   0  0  0  0  0  0  0  0  0  0  0  0
   34.8910   31.6180   34.8300 C   0  0  0  0  0  0  0  0  0  0  0  0
   33.6920   32.1170   34.4100 N   0  0  0  0  0  0  0  0  0  0  0  0
   33.0930   31.7270   33.2590 C   0  0  0  0  0  0  0  0  0  0  0  0
   33.6950   30.8060   32.4800 N   0  0  0  0  0  0  0  0  0  0  0  0
   36.4760   30.2450   34.3300 H   0  0  0  0  0  0  0  0  0  0  0  0
   32.1420   32.1810   33.0130 H   0  0  0  0  0  0  0  0  0  0  0  0
   35.5460   32.0460   36.0910 C   0  0  0  0  0  0  0  0  0  0  0  0
   36.7140   31.3250   36.1660 F   0  0  0  0  0  0  0  0  0  0  0  0
   35.8650   33.3950   36.0920 F   0  0  0  0  0  0  0  0  0  0  0  0
   34.7580   31.7530   37.2030 F   0  0  0  0  0  0  0  0  0  0  0  0
   36.3590   25.9350   31.1180 C   0  0  0  0  0  0  0  0  0  0  0  0
   37.6120   25.3320   30.9090 C   0  0  0  0  0  0  0  0  0  0  0  0
   37.6880   23.9710   30.8610 C   0  0  0  0  0  0  0  0  0  0  0  0
   36.5020   23.2030   31.0220 C   0  0  0  0  0  0  0  0  0  0  0  0
   35.2060   24.5100   31.2580 S   0  0  0  0  0  0  0  0  0  0  0  0
   38.5330   25.8830   30.7820 H   0  0  0  0  0  0  0  0  0  0  0  0
   38.5320   23.3210   30.7140 H   0  0  0  0  0  0  0  0  0  0  0  0
   36.0560   21.8730   31.0540 C   0  0  1  0  0  3  0  0  0  0  0  0
   37.2180   20.9290   31.1560 C   0  0  0  0  0  3  0  0  0  0  0  0
   38.0800   21.4190   30.6620 H   0  0  0  0  0  0  0  0  0  0  0  0
   37.3940   20.7490   32.6270 C   0  0  0  0  0  3  0  0  0  0  0  0
   38.3900   21.1100   32.9570 H   0  0  0  0  0  0  0  0  0  0  0  0
   36.4440   21.5400   33.2600 O   0  0  0  0  0  0  0  0  0  0  0  0
   35.3710   21.6600   32.4090 C   0  0  0  0  0  3  0  0  0  0  0  0
   34.7600   22.5350   32.7050 H   0  0  0  0  0  0  0  0  0  0  0  0
  1  5  2  0  0  0  0
  1  8  1  0  0  0  0
  2  1  1  0  0  0  0
  3  2  2  0  0  0  0
  3  4  1  0  0  0  0
  4  5  1  0  0  0  0
  6  2  1  0  0  0  0
  7  3  1  0  0  0  0
  8  9  1  0  0  0  0
  9 14  1  0  0  0  0
  9 10  2  0  0  0  0
 10 16  1  0  0  0  0
 11 10  1  0  0  0  0
 12 11  2  0  0  0  0
 13  8  2  0  0  0  0
 13 12  1  0  0  0  0
 15 12  1  0  0  0  0
 16 18  1  0  0  0  0
 16 17  1  0  0  0  0
 16 19  1  0  0  0  0
 20  4  1  0  0  0  0
 20 24  1  0  0  0  0
 21 20  2  0  0  0  0
 22 21  1  0  0  0  0
 22 23  2  0  0  0  0
 23 24  1  0  0  0  0
 25 21  1  0  0  0  0
 26 22  1  0  0  0  0
 27 23  1  1  0  0  0
 27 28  1  0  0  0  0
 27 33  1  0  0  0  0
 28 30  1  0  0  0  0
 29 28  1  0  0  0  0
 30 31  1  0  0  0  0
 30 32  1  0  0  0  0
 33 34  1  0  0  0  0
 33 32  1  0  0  0  0
M  END
>  <minimizedAffinity>
-5.71104383

$$$$

 OpenBabel03272508073D

 34 37  0  0  1  0  0  0  0  0999 V2000
   35.7010   29.0580   33.3800 C   0  0  0  0  0  0  0  0  0  0  0  0
   36.2680   29.0350   32.1330 C   0  0  0  0  0  0  0  0  0  0  0  0
   37.2900   28.0930   32.0780 C   0  0  0  0  0  0  0  0  0  0  0  0
   37.2940   27.5740   33.3270 N   0  0  0  0  0  0  0  0  0  0  0  0
   36.3720   28.1280   34.0950 N   0  0  0  0  0  0  0  0  0  0  0  0
   35.9890   29.6510   31.2840 H   0  0  0  0  0  0  0  0  0  0  0  0
   37.9450   27.8010   31.2850 H   0  0  0  0  0  0  0  0  0  0  0  0
   34.6110   29.9010   33.8310 C   0  0  0  0  0  0  0  0  0  0  0  0
   34.6860   30.4640   35.1330 C   0  0  0  0  0  0  0  0  0  0  0  0
   33.6360   31.2690   35.5520 C   0  0  0  0  0  0  0  0  0  0  0  0
   32.5950   31.4750   34.6910 N   0  0  0  0  0  0  0  0  0  0  0  0
   32.5440   30.9280   33.4530 C   0  0  0  0  0  0  0  0  0  0  0  0
   33.5570   30.1430   33.0340 N   0  0  0  0  0  0  0  0  0  0  0  0
   35.5330   30.2730   35.7810 H   0  0  0  0  0  0  0  0  0  0  0  0
   31.6770   31.1500   32.8450 H   0  0  0  0  0  0  0  0  0  0  0  0
   33.6910   31.8690   36.9080 C   0  0  0  0  0  0  0  0  0  0  0  0
   35.0160   31.8460   37.2700 F   0  0  0  0  0  0  0  0  0  0  0  0
   33.2570   33.1860   36.9240 F   0  0  0  0  0  0  0  0  0  0  0  0
   32.9550   31.1250   37.8280 F   0  0  0  0  0  0  0  0  0  0  0  0
   38.1620   26.5290   33.8690 C   0  0  0  0  0  0  0  0  0  0  0  0
   39.2670   26.8460   34.6780 C   0  0  0  0  0  0  0  0  0  0  0  0
   40.0440   25.8340   35.1570 C   0  0  0  0  0  0  0  0  0  0  0  0
   39.7160   24.4900   34.8280 C   0  0  0  0  0  0  0  0  0  0  0  0
   38.2050   24.6940   33.7690 S   0  0  0  0  0  0  0  0  0  0  0  0
   39.5470   27.8550   34.9480 H   0  0  0  0  0  0  0  0  0  0  0  0
   40.9190   25.8580   35.7820 H   0  0  0  0  0  0  0  0  0  0  0  0
   40.1520   23.1740   35.0420 C   0  0  1  0  0  3  0  0  0  0  0  0
   41.0170   23.0960   36.2660 C   0  0  0  0  0  3  0  0  0  0  0  0
   41.5170   24.0780   36.3740 H   0  0  0  0  0  0  0  0  0  0  0  0
   40.0460   22.7950   37.3600 C   0  0  0  0  0  3  0  0  0  0  0  0
   40.0330   23.6080   38.1150 H   0  0  0  0  0  0  0  0  0  0  0  0
   38.7810   22.7460   36.7920 O   0  0  0  0  0  0  0  0  0  0  0  0
   38.9290   22.3600   35.4800 C   0  0  0  0  0  3  0  0  0  0  0  0
   38.0220   22.6370   34.9090 H   0  0  0  0  0  0  0  0  0  0  0  0
  1  8  1  0  0  0  0
  1  5  2  0  0  0  0
  2  1  1  0  0  0  0
  3  2  2  0  0  0  0
  3  4  1  0  0  0  0
  4 20  1  0  0  0  0
  4  5  1  0  0  0  0
  6  2  1  0  0  0  0
  7  3  1  0  0  0  0
  8  9  1  0  0  0  0
  9 10  2  0  0  0  0
  9 14  1  0  0  0  0
 10 16  1  0  0  0  0
 11 10  1  0  0  0  0
 12 11  2  0  0  0  0
 13 12  1  0  0  0  0
 13  8  2  0  0  0  0
 15 12  1  0  0  0  0
 16 18  1  0  0  0  0
 16 17  1  0  0  0  0
 16 19  1  0  0  0  0
 20 21  2  0  0  0  0
 21 25  1  0  0  0  0
 21 22  1  0  0  0  0
 22 26  1  0  0  0  0
 23 22  2  0  0  0  0
 24 20  1  0  0  0  0
 24 23  1  0  0  0  0
 27 23  1  1  0  0  0
 27 33  1  0  0  0  0
 27 28  1  0  0  0  0
 28 29  1  0  0  0  0
 28 30  1  0  0  0  0
 30 31  1  0  0  0  0
 32 30  1  0  0  0  0
 33 32  1  0  0  0  0
 34 33  1  0  0  0  0
M  END
>  <minimizedAffinity>
-5.67779398

$$$$

 OpenBabel03272508073D

 34 37  0  0  1  0  0  0  0  0999 V2000
   37.4870   25.7220   33.9890 C   0  0  0  0  0  0  0  0  0  0  0  0
   37.0230   25.5110   32.7170 C   0  0  0  0  0  0  0  0  0  0  0  0
   36.4230   26.6620   32.2180 C   0  0  0  0  0  0  0  0  0  0  0  0
   36.5540   27.5410   33.2370 N   0  0  0  0  0  0  0  0  0  0  0  0
   37.1730   27.0050   34.2750 N   0  0  0  0  0  0  0  0  0  0  0  0
   37.0950   24.5900   32.1470 H   0  0  0  0  0  0  0  0  0  0  0  0
   35.9570   26.8700   31.2780 H   0  0  0  0  0  0  0  0  0  0  0  0
   38.1700   24.7680   34.8410 C   0  0  0  0  0  0  0  0  0  0  0  0
   37.8840   24.7820   36.2330 C   0  0  0  0  0  0  0  0  0  0  0  0
   38.5450   23.8630   37.0380 C   0  0  0  0  0  0  0  0  0  0  0  0
   39.4270   23.0030   36.4480 N   0  0  0  0  0  0  0  0  0  0  0  0
   39.6840   23.0090   35.1180 C   0  0  0  0  0  0  0  0  0  0  0  0
   39.0500   23.8960   34.3250 N   0  0  0  0  0  0  0  0  0  0  0  0
   37.1740   25.4830   36.6560 H   0  0  0  0  0  0  0  0  0  0  0  0
   40.4000   22.2880   34.7460 H   0  0  0  0  0  0  0  0  0  0  0  0
   38.2630   23.8560   38.4940 C   0  0  0  0  0  0  0  0  0  0  0  0
   37.8130   25.1200   38.7910 F   0  0  0  0  0  0  0  0  0  0  0  0
   37.2740   22.9480   38.8390 F   0  0  0  0  0  0  0  0  0  0  0  0
   39.4130   23.5960   39.2380 F   0  0  0  0  0  0  0  0  0  0  0  0
   36.1080   28.9330   33.2950 C   0  0  0  0  0  0  0  0  0  0  0  0
   35.6820   29.5120   34.5030 C   0  0  0  0  0  0  0  0  0  0  0  0
   35.2750   30.8140   34.5010 C   0  0  0  0  0  0  0  0  0  0  0  0
   35.2930   31.5460   33.2820 C   0  0  0  0  0  0  0  0  0  0  0  0
   35.9310   30.2930   32.0710 S   0  0  0  0  0  0  0  0  0  0  0  0
   35.6540   28.9870   35.4470 H   0  0  0  0  0  0  0  0  0  0  0  0
   34.9190   31.4370   35.3020 H   0  0  0  0  0  0  0  0  0  0  0  0
   34.9980   32.8170   32.7650 C   0  0  1  0  0  3  0  0  0  0  0  0
   34.4220   32.7050   31.3840 C   0  0  0  0  0  3  0  0  0  0  0  0
   34.8470   31.7900   30.9280 H   0  0  0  0  0  0  0  0  0  0  0  0
   32.9510   32.6250   31.6260 C   0  0  0  0  0  3  0  0  0  0  0  0
   32.5390   31.6620   31.2600 H   0  0  0  0  0  0  0  0  0  0  0  0
   32.7520   32.6590   32.9990 O   0  0  0  0  0  0  0  0  0  0  0  0
   33.7990   33.3570   33.5530 C   0  0  0  0  0  3  0  0  0  0  0  0
   33.8720   33.1180   34.6320 H   0  0  0  0  0  0  0  0  0  0  0  0
  1  5  2  0  0  0  0
  1  8  1  0  0  0  0
  2  1  1  0  0  0  0
  3  2  2  0  0  0  0
  3  4  1  0  0  0  0
  4 20  1  0  0  0  0
  4  5  1  0  0  0  0
  6  2  1  0  0  0  0
  7  3  1  0  0  0  0
  8  9  1  0  0  0  0
  9 14  1  0  0  0  0
  9 10  2  0  0  0  0
 10 16  1  0  0  0  0
 11 10  1  0  0  0  0
 12 11  2  0  0  0  0
 13  8  2  0  0  0  0
 13 12  1  0  0  0  0
 15 12  1  0  0  0  0
 16 17  1  0  0  0  0
 16 18  1  0  0  0  0
 16 19  1  0  0  0  0
 20 21  2  0  0  0  0
 21 25  1  0  0  0  0
 22 21  1  0  0  0  0
 22 26  1  0  0  0  0
 23 22  2  0  0  0  0
 24 23  1  0  0  0  0
 24 20  1  0  0  0  0
 27 23  1  1  0  0  0
 27 33  1  0  0  0  0
 28 30  1  0  0  0  0
 28 27  1  0  0  0  0
 29 28  1  0  0  0  0
 30 32  1  0  0  0  0
 31 30  1  0  0  0  0
 32 33  1  0  0  0  0
 33 34  1  0  0  0  0
M  END
>  <minimizedAffinity>
-5.61611795

$$$$
