
 OpenBabel03272507513D

 27 29  0  0  1  0  0  0  0  0999 V2000
   36.5460   29.5930   49.4890 C   0  0  0  0  0  0  0  0  0  0  0  0
   36.4700   30.5640   48.4770 C   0  0  0  0  0  0  0  0  0  0  0  0
   35.4390   30.4080   47.5370 C   0  0  0  0  0  0  0  0  0  0  0  0
   34.5900   29.3590   47.6490 N   0  0  0  0  0  0  0  0  0  0  0  0
   34.6910   28.4510   48.6290 C   0  0  0  0  0  0  0  0  0  0  0  0
   35.6770   28.5710   49.5540 N   0  0  0  0  0  0  0  0  0  0  0  0
   35.3870   31.1590   46.7600 H   0  0  0  0  0  0  0  0  0  0  0  0
   33.9490   27.6660   48.5990 H   0  0  0  0  0  0  0  0  0  0  0  0
   37.4170   31.6190   48.4630 N   0  0  0  0  0  0  0  0  0  0  0  0
   37.3800   32.6130   49.3560 C   0  0  0  0  0  0  0  0  0  0  0  0
   38.3330   33.6330   49.3140 C   0  0  0  0  0  0  0  0  0  0  0  0
   39.2490   33.4880   48.3040 C   0  0  0  0  0  0  0  0  0  0  0  0
   40.1370   34.4070   48.2410 O   0  0  0  0  0  0  0  0  0  0  0  0
   39.3170   32.5110   47.3960 N   0  0  0  0  0  0  0  0  0  0  0  0
   38.3600   31.5500   47.4920 C   0  0  0  0  0  0  0  0  0  0  0  0
   38.4100   30.6150   46.6350 O   0  0  0  0  0  0  0  0  0  0  0  0
   36.6170   32.6670   50.1330 H   0  0  0  0  0  0  0  0  0  0  0  0
   38.3600   34.4650   50.0050 H   0  0  0  0  0  0  0  0  0  0  0  0
   40.0660   32.5070   46.6700 H   0  0  0  0  0  0  0  0  0  0  0  0
   37.5570   29.5940   50.5430 C   0  0  2  0  0  3  0  0  0  0  0  0
   38.0630   28.1890   50.8600 C   0  0  0  0  0  3  0  0  0  0  0  0
   39.0360   28.0070   50.3640 H   0  0  0  0  0  0  0  0  0  0  0  0
   38.2900   28.2730   52.3480 C   0  0  0  0  0  3  0  0  0  0  0  0
   37.5550   27.6760   52.9380 H   0  0  0  0  0  0  0  0  0  0  0  0
   38.0900   29.6130   52.7130 O   0  0  0  0  0  0  0  0  0  0  0  0
   37.0150   30.0100   51.8890 C   0  0  0  0  0  3  0  0  0  0  0  0
   36.8790   31.1000   51.9850 H   0  0  0  0  0  0  0  0  0  0  0  0
  1  6  1  0  0  0  0
  2  1  2  0  0  0  0
  3  4  2  0  0  0  0
  3  2  1  0  0  0  0
  4  5  1  0  0  0  0
  5  6  2  0  0  0  0
  7  3  1  0  0  0  0
  8  5  1  0  0  0  0
  9  2  1  0  0  0  0
  9 10  1  0  0  0  0
 10 17  1  0  0  0  0
 11 10  2  0  0  0  0
 11 18  1  0  0  0  0
 12 11  1  0  0  0  0
 13 12  2  0  0  0  0
 14 15  1  0  0  0  0
 14 12  1  0  0  0  0
 15  9  1  0  0  0  0
 16 15  2  0  0  0  0
 19 14  1  0  0  0  0
 20  1  1  6  0  0  0
 20 21  1  0  0  0  0
 20 26  1  0  0  0  0
 21 23  1  0  0  0  0
 22 21  1  0  0  0  0
 23 25  1  0  0  0  0
 23 24  1  0  0  0  0
 26 27  1  0  0  0  0
 26 25  1  0  0  0  0
M  END
>  <minimizedAffinity>
-3.79099584

>  <minimizedRMSD>
0.59900254

$$$$
