
 OpenBabel03262523373D

 33 35  0  0  1  0  0  0  0  0999 V2000
   37.9190   26.1640   33.4780 C   0  0  2  0  0  0  0  0  0  0  0  0
   38.3780   25.0980   34.4530 C   0  0  0  0  0  0  0  0  0  0  0  0
   37.8540   25.3310   35.8470 C   0  0  2  0  0  0  0  0  0  0  0  0
   38.2560   26.6780   36.3740 C   0  0  0  0  0  0  0  0  0  0  0  0
   37.9880   27.7810   35.3750 C   0  0  0  0  0  0  0  0  0  0  0  0
   37.2330   27.2980   34.1600 C   0  0  0  0  0  0  0  0  0  0  0  0
   38.8060   26.5500   32.9360 H   0  0  0  0  0  0  0  0  0  0  0  0
   38.0560   24.0740   34.1680 H   0  0  0  0  0  0  0  0  0  0  0  0
   39.4880   25.0920   34.5140 H   0  0  0  0  0  0  0  0  0  0  0  0
   36.7310   25.4070   35.7130 H   0  0  0  0  0  0  0  0  0  0  0  0
   39.3520   26.6800   36.5540 H   0  0  0  0  0  0  0  0  0  0  0  0
   37.7240   26.8700   37.3280 H   0  0  0  0  0  0  0  0  0  0  0  0
   38.9030   28.2690   34.9980 H   0  0  0  0  0  0  0  0  0  0  0  0
   37.3880   28.5540   35.8660 H   0  0  0  0  0  0  0  0  0  0  0  0
   36.2040   27.0060   34.5110 H   0  0  0  0  0  0  0  0  0  0  0  0
   37.0860   28.1380   33.4850 H   0  0  0  0  0  0  0  0  0  0  0  0
   36.9470   25.5600   32.5140 C   0  0  0  0  0  0  0  0  0  0  0  0
   37.0030   24.1650   32.3490 C   0  0  0  0  0  0  0  0  0  0  0  0
   36.1080   23.5990   31.4500 C   0  0  0  0  0  0  0  0  0  0  0  0
   35.2220   24.4070   30.7680 N   0  0  0  0  0  0  0  0  0  0  0  0
   35.2070   25.7610   30.9620 C   0  0  0  0  0  0  0  0  0  0  0  0
   36.0610   26.3150   31.8240 N   0  0  0  0  0  0  0  0  0  0  0  0
   37.6690   23.5060   32.8540 H   0  0  0  0  0  0  0  0  0  0  0  0
   36.0880   22.5260   31.2670 H   0  0  0  0  0  0  0  0  0  0  0  0
   34.4800   26.3190   30.3870 H   0  0  0  0  0  0  0  0  0  0  0  0
   38.0870   24.2070   36.7560 C   0  0  2  0  0  3  0  0  0  0  0  0
   38.0710   24.5460   38.2320 C   0  0  0  0  0  3  0  0  0  0  0  0
   37.0850   24.7690   38.6300 H   0  0  0  0  0  0  0  0  0  0  0  0
   38.6120   23.2030   38.7520 C   0  0  0  0  0  3  0  0  0  0  0  0
   37.7440   22.5110   38.7260 H   0  0  0  0  0  0  0  0  0  0  0  0
   39.6030   22.8360   37.8580 O   0  0  0  0  0  0  0  0  0  0  0  0
   39.4080   23.5140   36.6620 C   0  0  0  0  0  3  0  0  0  0  0  0
   40.2690   24.2230   36.5900 H   0  0  0  0  0  0  0  0  0  0  0  0
  1  7  1  6  0  0  0
  1  6  1  0  0  0  0
  1  2  1  0  0  0  0
  2  9  1  0  0  0  0
  2  3  1  0  0  0  0
  3 10  1  6  0  0  0
  3  4  1  0  0  0  0
  3 26  1  0  0  0  0
  4 11  1  0  0  0  0
  4 12  1  0  0  0  0
  5 14  1  0  0  0  0
  5  4  1  0  0  0  0
  6 15  1  0  0  0  0
  6  5  1  0  0  0  0
  8  2  1  0  0  0  0
 13  5  1  0  0  0  0
 16  6  1  0  0  0  0
 17  1  1  0  0  0  0
 18 17  1  0  0  0  0
 18 23  1  0  0  0  0
 19 18  2  0  0  0  0
 20 21  2  0  0  0  0
 20 19  1  0  0  0  0
 21 22  1  0  0  0  0
 22 17  2  0  0  0  0
 24 19  1  0  0  0  0
 25 21  1  0  0  0  0
 26 32  1  6  0  0  0
 26 27  1  0  0  0  0
 27 28  1  0  0  0  0
 27 29  1  0  0  0  0
 30 29  1  0  0  0  0
 31 29  1  0  0  0  0
 32 31  1  0  0  0  0
 33 32  1  0  0  0  0
M  END
>  <minimizedAffinity>
-5.28216887

$$$$

 OpenBabel03262523373D

 33 35  0  0  1  0  0  0  0  0999 V2000
   37.9280   25.9620   33.3750 C   0  0  2  0  0  0  0  0  0  0  0  0
   38.7310   25.2520   34.4480 C   0  0  0  0  0  0  0  0  0  0  0  0
   38.2290   25.5560   35.8360 C   0  0  2  0  0  0  0  0  0  0  0  0
   38.2370   27.0300   36.1190 C   0  0  0  0  0  0  0  0  0  0  0  0
   37.6040   27.8260   35.0000 C   0  0  0  0  0  0  0  0  0  0  0  0
   36.9690   26.9500   33.9470 C   0  0  0  0  0  0  0  0  0  0  0  0
   38.6320   26.4890   32.7000 H   0  0  0  0  0  0  0  0  0  0  0  0
   38.7150   24.1460   34.3470 H   0  0  0  0  0  0  0  0  0  0  0  0
   39.7940   25.5740   34.4010 H   0  0  0  0  0  0  0  0  0  0  0  0
   37.1300   25.2830   35.8010 H   0  0  0  0  0  0  0  0  0  0  0  0
   39.2900   27.3760   36.1910 H   0  0  0  0  0  0  0  0  0  0  0  0
   37.7200   27.2190   37.0820 H   0  0  0  0  0  0  0  0  0  0  0  0
   38.3130   28.4850   34.4690 H   0  0  0  0  0  0  0  0  0  0  0  0
   36.8260   28.4660   35.4280 H   0  0  0  0  0  0  0  0  0  0  0  0
   36.0920   26.4390   34.4350 H   0  0  0  0  0  0  0  0  0  0  0  0
   36.5460   27.5870   33.1740 H   0  0  0  0  0  0  0  0  0  0  0  0
   37.1340   24.9530   32.6080 C   0  0  0  0  0  0  0  0  0  0  0  0
   36.1270   25.4500   31.7620 C   0  0  0  0  0  0  0  0  0  0  0  0
   35.3820   24.5180   31.0520 C   0  0  0  0  0  0  0  0  0  0  0  0
   35.6500   23.1720   31.2010 N   0  0  0  0  0  0  0  0  0  0  0  0
   36.6400   22.7370   32.0370 C   0  0  0  0  0  0  0  0  0  0  0  0
   37.3630   23.6240   32.7230 N   0  0  0  0  0  0  0  0  0  0  0  0
   35.8880   26.4770   31.6180 H   0  0  0  0  0  0  0  0  0  0  0  0
   34.5840   24.8230   30.3760 H   0  0  0  0  0  0  0  0  0  0  0  0
   36.7830   21.6660   32.0940 H   0  0  0  0  0  0  0  0  0  0  0  0
   38.8310   24.7150   36.8730 C   0  0  2  0  0  3  0  0  0  0  0  0
   39.4510   23.4220   36.3860 C   0  0  0  0  0  3  0  0  0  0  0  0
   40.3790   23.5490   35.8350 H   0  0  0  0  0  0  0  0  0  0  0  0
   39.6820   22.7790   37.7650 C   0  0  0  0  0  3  0  0  0  0  0  0
   40.5960   23.2680   38.1630 H   0  0  0  0  0  0  0  0  0  0  0  0
   38.5550   23.0880   38.5070 O   0  0  0  0  0  0  0  0  0  0  0  0
   37.9230   24.1850   37.9360 C   0  0  0  0  0  3  0  0  0  0  0  0
   36.9620   23.7840   37.5300 H   0  0  0  0  0  0  0  0  0  0  0  0
  1  7  1  6  0  0  0
  1  6  1  0  0  0  0
  1  2  1  0  0  0  0
  2  3  1  0  0  0  0
  3 10  1  6  0  0  0
  3  4  1  0  0  0  0
  3 26  1  0  0  0  0
  4 11  1  0  0  0  0
  4 12  1  0  0  0  0
  5 14  1  0  0  0  0
  5  4  1  0  0  0  0
  6 15  1  0  0  0  0
  6  5  1  0  0  0  0
  8  2  1  0  0  0  0
  9  2  1  0  0  0  0
 13  5  1  0  0  0  0
 16  6  1  0  0  0  0
 17 22  1  0  0  0  0
 17  1  1  0  0  0  0
 18 17  2  0  0  0  0
 19 20  2  0  0  0  0
 19 18  1  0  0  0  0
 20 21  1  0  0  0  0
 21 25  1  0  0  0  0
 21 22  2  0  0  0  0
 23 18  1  0  0  0  0
 24 19  1  0  0  0  0
 26 27  1  6  0  0  0
 26 32  1  0  0  0  0
 27 29  1  0  0  0  0
 28 27  1  0  0  0  0
 29 30  1  0  0  0  0
 29 31  1  0  0  0  0
 32 31  1  0  0  0  0
 33 32  1  0  0  0  0
M  END
>  <minimizedAffinity>
-4.99213886

$$$$

 OpenBabel03262523373D

 33 35  0  0  1  0  0  0  0  0999 V2000
   38.5940   25.0540   35.8890 C   0  0  2  0  0  0  0  0  0  0  0  0
   39.8060   24.1430   35.8330 C   0  0  0  0  0  0  0  0  0  0  0  0
   39.5900   22.8540   36.5840 C   0  0  2  0  0  0  0  0  0  0  0  0
   39.2340   23.1020   38.0210 C   0  0  0  0  0  0  0  0  0  0  0  0
   38.1440   24.1390   38.1650 C   0  0  0  0  0  0  0  0  0  0  0  0
   37.5570   24.5590   36.8390 C   0  0  0  0  0  0  0  0  0  0  0  0
   38.9270   26.0620   36.2090 H   0  0  0  0  0  0  0  0  0  0  0  0
   40.0910   23.8560   34.7990 H   0  0  0  0  0  0  0  0  0  0  0  0
   40.6830   24.6510   36.2900 H   0  0  0  0  0  0  0  0  0  0  0  0
   38.6450   22.4240   36.1320 H   0  0  0  0  0  0  0  0  0  0  0  0
   40.1240   23.5100   38.5460 H   0  0  0  0  0  0  0  0  0  0  0  0
   38.9340   22.1440   38.4930 H   0  0  0  0  0  0  0  0  0  0  0  0
   38.4770   25.0660   38.6630 H   0  0  0  0  0  0  0  0  0  0  0  0
   37.3410   23.7150   38.7760 H   0  0  0  0  0  0  0  0  0  0  0  0
   37.0150   23.6620   36.4250 H   0  0  0  0  0  0  0  0  0  0  0  0
   36.7910   25.3090   37.0180 H   0  0  0  0  0  0  0  0  0  0  0  0
   37.9700   25.1230   34.5320 C   0  0  0  0  0  0  0  0  0  0  0  0
   37.4300   26.3630   34.1460 C   0  0  0  0  0  0  0  0  0  0  0  0
   36.8430   26.4330   32.8900 C   0  0  0  0  0  0  0  0  0  0  0  0
   36.8090   25.3100   32.0880 N   0  0  0  0  0  0  0  0  0  0  0  0
   37.3470   24.1250   32.5090 C   0  0  0  0  0  0  0  0  0  0  0  0
   37.9150   24.0470   33.7130 N   0  0  0  0  0  0  0  0  0  0  0  0
   37.4350   27.2520   34.7320 H   0  0  0  0  0  0  0  0  0  0  0  0
   36.4030   27.3570   32.5180 H   0  0  0  0  0  0  0  0  0  0  0  0
   37.2770   23.2960   31.8170 H   0  0  0  0  0  0  0  0  0  0  0  0
   40.6450   21.8640   36.3610 C   0  0  2  0  0  3  0  0  0  0  0  0
   41.4790   21.5130   37.5750 C   0  0  0  0  0  3  0  0  0  0  0  0
   40.9600   20.9130   38.3180 H   0  0  0  0  0  0  0  0  0  0  0  0
   42.5690   20.7100   36.8450 C   0  0  0  0  0  3  0  0  0  0  0  0
   42.1170   19.7140   36.6540 H   0  0  0  0  0  0  0  0  0  0  0  0
   42.8160   21.4060   35.6740 O   0  0  0  0  0  0  0  0  0  0  0  0
   41.7280   22.2240   35.3950 C   0  0  0  0  0  3  0  0  0  0  0  0
   42.1090   23.2650   35.5340 H   0  0  0  0  0  0  0  0  0  0  0  0
  1  7  1  1  0  0  0
  1  6  1  0  0  0  0
  2  1  1  0  0  0  0
  2  9  1  0  0  0  0
  2  3  1  0  0  0  0
  3 10  1  6  0  0  0
  3  4  1  0  0  0  0
  4  5  1  0  0  0  0
  4 12  1  0  0  0  0
  4 11  1  0  0  0  0
  5 13  1  0  0  0  0
  5 14  1  0  0  0  0
  6 16  1  0  0  0  0
  6  5  1  0  0  0  0
  8  2  1  0  0  0  0
 15  6  1  0  0  0  0
 17  1  1  0  0  0  0
 18 17  1  0  0  0  0
 18 23  1  0  0  0  0
 19 18  2  0  0  0  0
 20 21  2  0  0  0  0
 20 19  1  0  0  0  0
 21 22  1  0  0  0  0
 22 17  2  0  0  0  0
 24 19  1  0  0  0  0
 25 21  1  0  0  0  0
 26 32  1  6  0  0  0
 26  3  1  0  0  0  0
 26 27  1  0  0  0  0
 27 28  1  0  0  0  0
 29 27  1  0  0  0  0
 30 29  1  0  0  0  0
 31 29  1  0  0  0  0
 32 33  1  0  0  0  0
 32 31  1  0  0  0  0
M  END
>  <minimizedAffinity>
-4.69932461

$$$$

 OpenBabel03262523373D

 33 35  0  0  1  0  0  0  0  0999 V2000
   39.7100   22.4420   36.5230 C   0  0  2  0  0  0  0  0  0  0  0  0
   38.7840   23.3890   35.7850 C   0  0  0  0  0  0  0  0  0  0  0  0
   38.5050   24.6460   36.5670 C   0  0  2  0  0  0  0  0  0  0  0  0
   37.9160   24.3420   37.9150 C   0  0  0  0  0  0  0  0  0  0  0  0
   38.6920   23.2700   38.6450 C   0  0  0  0  0  0  0  0  0  0  0  0
   39.9610   22.8760   37.9270 C   0  0  0  0  0  0  0  0  0  0  0  0
   39.2480   21.4340   36.5330 H   0  0  0  0  0  0  0  0  0  0  0  0
   39.1850   23.7170   34.8030 H   0  0  0  0  0  0  0  0  0  0  0  0
   37.8070   22.8920   35.5950 H   0  0  0  0  0  0  0  0  0  0  0  0
   39.5320   25.0640   36.7990 H   0  0  0  0  0  0  0  0  0  0  0  0
   36.8890   23.9440   37.7760 H   0  0  0  0  0  0  0  0  0  0  0  0
   37.8730   25.2760   38.5120 H   0  0  0  0  0  0  0  0  0  0  0  0
   38.1220   22.3380   38.7990 H   0  0  0  0  0  0  0  0  0  0  0  0
   38.9630   23.6510   39.6350 H   0  0  0  0  0  0  0  0  0  0  0  0
   40.6470   23.7690   37.9650 H   0  0  0  0  0  0  0  0  0  0  0  0
   40.4590   22.0990   38.5010 H   0  0  0  0  0  0  0  0  0  0  0  0
   41.0290   22.3980   35.8190 C   0  0  0  0  0  0  0  0  0  0  0  0
   42.1440   22.8710   36.5350 C   0  0  0  0  0  0  0  0  0  0  0  0
   43.3710   22.8390   35.8840 C   0  0  0  0  0  0  0  0  0  0  0  0
   43.4470   22.3590   34.5930 N   0  0  0  0  0  0  0  0  0  0  0  0
   42.3330   21.9110   33.9380 C   0  0  0  0  0  0  0  0  0  0  0  0
   41.1490   21.9360   34.5540 N   0  0  0  0  0  0  0  0  0  0  0  0
   42.1290   23.2480   37.5290 H   0  0  0  0  0  0  0  0  0  0  0  0
   44.2810   23.1870   36.3700 H   0  0  0  0  0  0  0  0  0  0  0  0
   42.4830   21.5520   32.9290 H   0  0  0  0  0  0  0  0  0  0  0  0
   37.8050   25.6740   35.7940 C   0  0  2  0  0  3  0  0  0  0  0  0
   37.8020   25.4730   34.2930 C   0  0  0  0  0  3  0  0  0  0  0  0
   37.1620   24.6630   33.9510 H   0  0  0  0  0  0  0  0  0  0  0  0
   37.2420   26.8530   33.9070 C   0  0  0  0  0  3  0  0  0  0  0  0
   36.1490   26.7840   34.0920 H   0  0  0  0  0  0  0  0  0  0  0  0
   37.8620   27.7510   34.7580 O   0  0  0  0  0  0  0  0  0  0  0  0
   38.3380   27.0690   35.8690 C   0  0  0  0  0  3  0  0  0  0  0  0
   39.4510   27.1160   35.7800 H   0  0  0  0  0  0  0  0  0  0  0  0
  1  7  1  1  0  0  0
  1  6  1  0  0  0  0
  2  1  1  0  0  0  0
  2  3  1  0  0  0  0
  3 10  1  1  0  0  0
  3  4  1  0  0  0  0
  4 12  1  0  0  0  0
  4  5  1  0  0  0  0
  5 13  1  0  0  0  0
  5 14  1  0  0  0  0
  6 15  1  0  0  0  0
  6 16  1  0  0  0  0
  6  5  1  0  0  0  0
  8  2  1  0  0  0  0
  9  2  1  0  0  0  0
 11  4  1  0  0  0  0
 17  1  1  0  0  0  0
 17 18  1  0  0  0  0
 18 23  1  0  0  0  0
 19 24  1  0  0  0  0
 19 18  2  0  0  0  0
 20 19  1  0  0  0  0
 21 22  1  0  0  0  0
 21 20  2  0  0  0  0
 22 17  2  0  0  0  0
 25 21  1  0  0  0  0
 26 27  1  6  0  0  0
 26 32  1  0  0  0  0
 26  3  1  0  0  0  0
 28 27  1  0  0  0  0
 29 30  1  0  0  0  0
 29 27  1  0  0  0  0
 29 31  1  0  0  0  0
 31 32  1  0  0  0  0
 33 32  1  0  0  0  0
M  END
>  <minimizedAffinity>
-4.67290783

$$$$

 OpenBabel03262523373D

 33 35  0  0  1  0  0  0  0  0999 V2000
   36.7400   23.7670   31.0400 C   0  0  2  0  0  0  0  0  0  0  0  0
   37.7330   24.3810   32.0070 C   0  0  0  0  0  0  0  0  0  0  0  0
   37.0920   25.3880   32.9270 C   0  0  2  0  0  0  0  0  0  0  0  0
   36.4140   26.4870   32.1620 C   0  0  0  0  0  0  0  0  0  0  0  0
   35.5350   25.9500   31.0550 C   0  0  0  0  0  0  0  0  0  0  0  0
   35.4130   24.4450   31.0840 C   0  0  0  0  0  0  0  0  0  0  0  0
   37.1530   23.8440   30.0140 H   0  0  0  0  0  0  0  0  0  0  0  0
   38.2270   23.6330   32.6620 H   0  0  0  0  0  0  0  0  0  0  0  0
   38.5330   24.9090   31.4440 H   0  0  0  0  0  0  0  0  0  0  0  0
   36.2400   24.8180   33.4110 H   0  0  0  0  0  0  0  0  0  0  0  0
   37.1900   27.1110   31.6680 H   0  0  0  0  0  0  0  0  0  0  0  0
   35.8280   27.1130   32.8650 H   0  0  0  0  0  0  0  0  0  0  0  0
   35.8860   26.2130   30.0430 H   0  0  0  0  0  0  0  0  0  0  0  0
   34.5330   26.3770   31.1710 H   0  0  0  0  0  0  0  0  0  0  0  0
   34.8460   24.1830   32.0210 H   0  0  0  0  0  0  0  0  0  0  0  0
   34.7780   24.1320   30.2590 H   0  0  0  0  0  0  0  0  0  0  0  0
   36.5260   22.3310   31.4030 C   0  0  0  0  0  0  0  0  0  0  0  0
   35.2770   21.9970   31.9570 C   0  0  0  0  0  0  0  0  0  0  0  0
   35.0750   20.6670   32.3020 C   0  0  0  0  0  0  0  0  0  0  0  0
   36.0820   19.7470   32.0960 N   0  0  0  0  0  0  0  0  0  0  0  0
   37.2810   20.1210   31.5540 C   0  0  0  0  0  0  0  0  0  0  0  0
   37.4860   21.3960   31.2170 N   0  0  0  0  0  0  0  0  0  0  0  0
   34.4750   22.6740   32.1330 H   0  0  0  0  0  0  0  0  0  0  0  0
   34.1350   20.3300   32.7360 H   0  0  0  0  0  0  0  0  0  0  0  0
   38.0140   19.3360   31.4260 H   0  0  0  0  0  0  0  0  0  0  0  0
   37.9670   25.8270   34.0150 C   0  0  2  0  0  3  0  0  0  0  0  0
   37.3810   26.8680   34.9450 C   0  0  0  0  0  3  0  0  0  0  0  0
   36.6070   26.4910   35.6100 H   0  0  0  0  0  0  0  0  0  0  0  0
   38.6750   27.2130   35.7020 C   0  0  0  0  0  3  0  0  0  0  0  0
   38.8120   26.3880   36.4330 H   0  0  0  0  0  0  0  0  0  0  0  0
   39.6690   27.2320   34.7400 O   0  0  0  0  0  0  0  0  0  0  0  0
   39.2430   26.5080   33.6340 C   0  0  0  0  0  3  0  0  0  0  0  0
   39.1080   27.2690   32.8260 H   0  0  0  0  0  0  0  0  0  0  0  0
  1  7  1  6  0  0  0
  1  6  1  0  0  0  0
  1 17  1  0  0  0  0
  1  2  1  0  0  0  0
  2  8  1  0  0  0  0
  2  3  1  0  0  0  0
  3 10  1  1  0  0  0
  3 26  1  0  0  0  0
  4 12  1  0  0  0  0
  4  3  1  0  0  0  0
  5  6  1  0  0  0  0
  5 14  1  0  0  0  0
  5  4  1  0  0  0  0
  6 15  1  0  0  0  0
  9  2  1  0  0  0  0
 11  4  1  0  0  0  0
 13  5  1  0  0  0  0
 16  6  1  0  0  0  0
 17 18  1  0  0  0  0
 18 23  1  0  0  0  0
 18 19  2  0  0  0  0
 19 24  1  0  0  0  0
 20 19  1  0  0  0  0
 21 20  2  0  0  0  0
 22 17  2  0  0  0  0
 22 21  1  0  0  0  0
 25 21  1  0  0  0  0
 26 32  1  6  0  0  0
 26 27  1  0  0  0  0
 27 28  1  0  0  0  0
 27 29  1  0  0  0  0
 29 30  1  0  0  0  0
 31 29  1  0  0  0  0
 32 31  1  0  0  0  0
 33 32  1  0  0  0  0
M  END
>  <minimizedAffinity>
-4.63442707

$$$$

 OpenBabel03262523373D

 33 35  0  0  1  0  0  0  0  0999 V2000
   35.3330   30.1770   33.1390 C   0  0  2  0  0  0  0  0  0  0  0  0
   35.5180   28.9790   34.0500 C   0  0  0  0  0  0  0  0  0  0  0  0
   36.6640   28.1010   33.6170 C   0  0  2  0  0  0  0  0  0  0  0  0
   36.4920   27.6180   32.2060 C   0  0  0  0  0  0  0  0  0  0  0  0
   36.1300   28.7420   31.2620 C   0  0  0  0  0  0  0  0  0  0  0  0
   36.1880   30.1000   31.9200 C   0  0  0  0  0  0  0  0  0  0  0  0
   34.2690   30.2260   32.8340 H   0  0  0  0  0  0  0  0  0  0  0  0
   35.7210   29.2570   35.1050 H   0  0  0  0  0  0  0  0  0  0  0  0
   34.5990   28.3530   34.0430 H   0  0  0  0  0  0  0  0  0  0  0  0
   37.5500   28.8050   33.5660 H   0  0  0  0  0  0  0  0  0  0  0  0
   35.6460   26.8990   32.1730 H   0  0  0  0  0  0  0  0  0  0  0  0
   37.4220   27.1100   31.8790 H   0  0  0  0  0  0  0  0  0  0  0  0
   35.1180   28.6500   30.8310 H   0  0  0  0  0  0  0  0  0  0  0  0
   36.8380   28.7350   30.4270 H   0  0  0  0  0  0  0  0  0  0  0  0
   37.2700   30.2980   32.1620 H   0  0  0  0  0  0  0  0  0  0  0  0
   35.9070   30.8530   31.1880 H   0  0  0  0  0  0  0  0  0  0  0  0
   35.7150   31.4190   33.8810 C   0  0  0  0  0  0  0  0  0  0  0  0
   35.7140   31.3440   35.2850 C   0  0  0  0  0  0  0  0  0  0  0  0
   36.0600   32.4950   35.9800 C   0  0  0  0  0  0  0  0  0  0  0  0
   36.3820   33.6430   35.2830 N   0  0  0  0  0  0  0  0  0  0  0  0
   36.3670   33.6670   33.9160 C   0  0  0  0  0  0  0  0  0  0  0  0
   36.0370   32.5660   33.2380 N   0  0  0  0  0  0  0  0  0  0  0  0
   35.4730   30.4810   35.8600 H   0  0  0  0  0  0  0  0  0  0  0  0
   36.0830   32.5170   37.0680 H   0  0  0  0  0  0  0  0  0  0  0  0
   36.6320   34.6070   33.4520 H   0  0  0  0  0  0  0  0  0  0  0  0
   37.0120   27.0680   34.5960 C   0  0  2  0  0  3  0  0  0  0  0  0
   38.0850   27.4490   35.5940 C   0  0  0  0  0  3  0  0  0  0  0  0
   37.7650   28.1680   36.3440 H   0  0  0  0  0  0  0  0  0  0  0  0
   38.3070   26.0500   36.1930 C   0  0  0  0  0  3  0  0  0  0  0  0
   37.4620   25.9000   36.8990 H   0  0  0  0  0  0  0  0  0  0  0  0
   38.2550   25.1780   35.1200 O   0  0  0  0  0  0  0  0  0  0  0  0
   37.5860   25.7930   34.0690 C   0  0  0  0  0  3  0  0  0  0  0  0
   38.3680   25.9550   33.2870 H   0  0  0  0  0  0  0  0  0  0  0  0
  1  7  1  6  0  0  0
  1 17  1  0  0  0  0
  1  2  1  0  0  0  0
  2  8  1  0  0  0  0
  3 10  1  6  0  0  0
  3  2  1  0  0  0  0
  3 26  1  0  0  0  0
  4  3  1  0  0  0  0
  5  6  1  0  0  0  0
  5  4  1  0  0  0  0
  6 15  1  0  0  0  0
  6  1  1  0  0  0  0
  9  2  1  0  0  0  0
 11  4  1  0  0  0  0
 12  4  1  0  0  0  0
 13  5  1  0  0  0  0
 14  5  1  0  0  0  0
 16  6  1  0  0  0  0
 17 18  1  0  0  0  0
 18 23  1  0  0  0  0
 18 19  2  0  0  0  0
 19 24  1  0  0  0  0
 20 19  1  0  0  0  0
 21 20  2  0  0  0  0
 22 17  2  0  0  0  0
 22 21  1  0  0  0  0
 25 21  1  0  0  0  0
 26 32  1  6  0  0  0
 26 27  1  0  0  0  0
 27 29  1  0  0  0  0
 27 28  1  0  0  0  0
 29 30  1  0  0  0  0
 31 29  1  0  0  0  0
 32 31  1  0  0  0  0
 33 32  1  0  0  0  0
M  END
>  <minimizedAffinity>
-4.61410856

$$$$

 OpenBabel03262523373D

 33 35  0  0  1  0  0  0  0  0999 V2000
   37.7260   25.3200   35.6170 C   0  0  2  0  0  0  0  0  0  0  0  0
   37.9680   25.0660   34.1420 C   0  0  0  0  0  0  0  0  0  0  0  0
   38.7140   26.1960   33.4790 C   0  0  2  0  0  0  0  0  0  0  0  0
   37.9930   27.5030   33.6360 C   0  0  0  0  0  0  0  0  0  0  0  0
   37.5610   27.7470   35.0640 C   0  0  0  0  0  0  0  0  0  0  0  0
   38.0940   26.7070   36.0210 C   0  0  0  0  0  0  0  0  0  0  0  0
   36.6510   25.1540   35.8310 H   0  0  0  0  0  0  0  0  0  0  0  0
   38.5600   24.1470   33.9470 H   0  0  0  0  0  0  0  0  0  0  0  0
   36.9970   24.9530   33.6120 H   0  0  0  0  0  0  0  0  0  0  0  0
   39.6500   26.3160   34.1060 H   0  0  0  0  0  0  0  0  0  0  0  0
   37.0630   27.4750   33.0290 H   0  0  0  0  0  0  0  0  0  0  0  0
   38.6460   28.3240   33.2740 H   0  0  0  0  0  0  0  0  0  0  0  0
   36.4660   27.7590   35.1990 H   0  0  0  0  0  0  0  0  0  0  0  0
   37.9360   28.7260   35.3770 H   0  0  0  0  0  0  0  0  0  0  0  0
   39.2120   26.8420   36.0570 H   0  0  0  0  0  0  0  0  0  0  0  0
   37.7370   26.9390   37.0210 H   0  0  0  0  0  0  0  0  0  0  0  0
   38.5630   24.3770   36.4210 C   0  0  0  0  0  0  0  0  0  0  0  0
   38.1600   24.1480   37.7490 C   0  0  0  0  0  0  0  0  0  0  0  0
   38.9370   23.2780   38.5040 C   0  0  0  0  0  0  0  0  0  0  0  0
   40.0490   22.6890   37.9370 N   0  0  0  0  0  0  0  0  0  0  0  0
   40.4010   22.9450   36.6410 C   0  0  0  0  0  0  0  0  0  0  0  0
   39.6610   23.7770   35.9060 N   0  0  0  0  0  0  0  0  0  0  0  0
   37.3120   24.5800   38.2240 H   0  0  0  0  0  0  0  0  0  0  0  0
   38.6910   23.0490   39.5390 H   0  0  0  0  0  0  0  0  0  0  0  0
   41.2860   22.4400   36.2770 H   0  0  0  0  0  0  0  0  0  0  0  0
   39.1620   25.8840   32.1200 C   0  0  2  0  0  3  0  0  0  0  0  0
   38.9950   26.9970   31.1070 C   0  0  0  0  0  3  0  0  0  0  0  0
   39.6870   27.8260   31.2330 H   0  0  0  0  0  0  0  0  0  0  0  0
   39.3080   26.1700   29.8480 C   0  0  0  0  0  3  0  0  0  0  0  0
   40.4150   26.0830   29.8270 H   0  0  0  0  0  0  0  0  0  0  0  0
   38.6900   24.9480   30.0480 O   0  0  0  0  0  0  0  0  0  0  0  0
   38.4600   24.7740   31.4070 C   0  0  0  0  0  3  0  0  0  0  0  0
   37.3480   24.8160   31.5180 H   0  0  0  0  0  0  0  0  0  0  0  0
  1  7  1  1  0  0  0
  1  6  1  0  0  0  0
  1 17  1  0  0  0  0
  2  1  1  0  0  0  0
  3  4  1  0  0  0  0
  3 10  1  1  0  0  0
  3  2  1  0  0  0  0
  4  5  1  0  0  0  0
  5 13  1  0  0  0  0
  5 14  1  0  0  0  0
  5  6  1  0  0  0  0
  6 15  1  0  0  0  0
  6 16  1  0  0  0  0
  8  2  1  0  0  0  0
  9  2  1  0  0  0  0
 11  4  1  0  0  0  0
 12  4  1  0  0  0  0
 17 18  1  0  0  0  0
 18 23  1  0  0  0  0
 18 19  2  0  0  0  0
 19 24  1  0  0  0  0
 20 19  1  0  0  0  0
 21 20  2  0  0  0  0
 22 17  2  0  0  0  0
 22 21  1  0  0  0  0
 25 21  1  0  0  0  0
 26 27  1  6  0  0  0
 26  3  1  0  0  0  0
 27 28  1  0  0  0  0
 29 31  1  0  0  0  0
 29 27  1  0  0  0  0
 30 29  1  0  0  0  0
 31 32  1  0  0  0  0
 32 33  1  0  0  0  0
 32 26  1  0  0  0  0
M  END
>  <minimizedAffinity>
-4.52095747

$$$$

 OpenBabel03262523373D

 33 35  0  0  1  0  0  0  0  0999 V2000
   37.0690   27.7270   31.9860 C   0  0  2  0  0  0  0  0  0  0  0  0
   36.5700   28.2640   33.3130 C   0  0  0  0  0  0  0  0  0  0  0  0
   35.4630   29.2730   33.1430 C   0  0  2  0  0  0  0  0  0  0  0  0
   35.8900   30.4260   32.2820 C   0  0  0  0  0  0  0  0  0  0  0  0
   36.5620   29.9650   31.0090 C   0  0  0  0  0  0  0  0  0  0  0  0
   36.5000   28.4670   30.8240 C   0  0  0  0  0  0  0  0  0  0  0  0
   38.1740   27.8140   31.9650 H   0  0  0  0  0  0  0  0  0  0  0  0
   36.1690   27.4740   33.9820 H   0  0  0  0  0  0  0  0  0  0  0  0
   37.3990   28.7690   33.8540 H   0  0  0  0  0  0  0  0  0  0  0  0
   34.6860   28.7320   32.5220 H   0  0  0  0  0  0  0  0  0  0  0  0
   36.6450   31.0260   32.8330 H   0  0  0  0  0  0  0  0  0  0  0  0
   35.0080   31.0590   32.0570 H   0  0  0  0  0  0  0  0  0  0  0  0
   37.6300   30.2400   30.9460 H   0  0  0  0  0  0  0  0  0  0  0  0
   36.0570   30.4360   30.1590 H   0  0  0  0  0  0  0  0  0  0  0  0
   35.4170   28.2050   30.6600 H   0  0  0  0  0  0  0  0  0  0  0  0
   37.0090   28.2090   29.8990 H   0  0  0  0  0  0  0  0  0  0  0  0
   36.6630   26.2940   31.8530 C   0  0  0  0  0  0  0  0  0  0  0  0
   35.4880   26.0340   31.1230 C   0  0  0  0  0  0  0  0  0  0  0  0
   35.1020   24.7050   31.0020 C   0  0  0  0  0  0  0  0  0  0  0  0
   35.8640   23.7150   31.5880 N   0  0  0  0  0  0  0  0  0  0  0  0
   36.9980   24.0180   32.2890 C   0  0  0  0  0  0  0  0  0  0  0  0
   37.3800   25.2910   32.4110 N   0  0  0  0  0  0  0  0  0  0  0  0
   34.8730   26.7650   30.6560 H   0  0  0  0  0  0  0  0  0  0  0  0
   34.2050   24.4220   30.4530 H   0  0  0  0  0  0  0  0  0  0  0  0
   37.5350   23.1820   32.7150 H   0  0  0  0  0  0  0  0  0  0  0  0
   34.8070   29.6390   34.4000 C   0  0  2  0  0  3  0  0  0  0  0  0
   33.3410   30.0010   34.2900 C   0  0  0  0  0  3  0  0  0  0  0  0
   32.6840   29.1560   34.0970 H   0  0  0  0  0  0  0  0  0  0  0  0
   33.1640   30.5560   35.7140 C   0  0  0  0  0  3  0  0  0  0  0  0
   33.0710   29.6610   36.3650 H   0  0  0  0  0  0  0  0  0  0  0  0
   34.3170   31.2760   35.9730 O   0  0  0  0  0  0  0  0  0  0  0  0
   35.3210   30.8480   35.1140 C   0  0  0  0  0  3  0  0  0  0  0  0
   35.5040   31.7140   34.4310 H   0  0  0  0  0  0  0  0  0  0  0  0
  1  7  1  6  0  0  0
  1  2  1  0  0  0  0
  2  9  1  0  0  0  0
  2  8  1  0  0  0  0
  3 10  1  6  0  0  0
  3  2  1  0  0  0  0
  3 26  1  0  0  0  0
  4 11  1  0  0  0  0
  4  3  1  0  0  0  0
  5  4  1  0  0  0  0
  6  5  1  0  0  0  0
  6  1  1  0  0  0  0
 12  4  1  0  0  0  0
 13  5  1  0  0  0  0
 14  5  1  0  0  0  0
 15  6  1  0  0  0  0
 16  6  1  0  0  0  0
 17  1  1  0  0  0  0
 17 22  1  0  0  0  0
 18 17  2  0  0  0  0
 19 18  1  0  0  0  0
 19 20  2  0  0  0  0
 20 21  1  0  0  0  0
 21 22  2  0  0  0  0
 21 25  1  0  0  0  0
 23 18  1  0  0  0  0
 24 19  1  0  0  0  0
 26 27  1  6  0  0  0
 26 32  1  0  0  0  0
 27 29  1  0  0  0  0
 28 27  1  0  0  0  0
 29 31  1  0  0  0  0
 29 30  1  0  0  0  0
 32 31  1  0  0  0  0
 33 32  1  0  0  0  0
M  END
>  <minimizedAffinity>
-4.50342607

$$$$

 OpenBabel03262523373D

 33 35  0  0  1  0  0  0  0  0999 V2000
   37.1230   26.6950   34.0400 C   0  0  2  0  0  0  0  0  0  0  0  0
   36.9320   26.8600   32.5440 C   0  0  0  0  0  0  0  0  0  0  0  0
   36.9300   28.3070   32.1220 C   0  0  2  0  0  0  0  0  0  0  0  0
   35.8690   29.0920   32.8370 C   0  0  0  0  0  0  0  0  0  0  0  0
   35.8840   28.8400   34.3280 C   0  0  0  0  0  0  0  0  0  0  0  0
   37.0560   27.9950   34.7660 C   0  0  0  0  0  0  0  0  0  0  0  0
   36.3280   26.0240   34.4230 H   0  0  0  0  0  0  0  0  0  0  0  0
   37.7230   26.3630   31.9440 H   0  0  0  0  0  0  0  0  0  0  0  0
   35.9570   26.4220   32.2360 H   0  0  0  0  0  0  0  0  0  0  0  0
   37.9040   28.7170   32.5300 H   0  0  0  0  0  0  0  0  0  0  0  0
   34.8720   28.7610   32.4750 H   0  0  0  0  0  0  0  0  0  0  0  0
   36.0030   30.1710   32.6160 H   0  0  0  0  0  0  0  0  0  0  0  0
   34.9790   28.3300   34.7000 H   0  0  0  0  0  0  0  0  0  0  0  0
   35.9460   29.8050   34.8420 H   0  0  0  0  0  0  0  0  0  0  0  0
   37.9830   28.6110   34.5940 H   0  0  0  0  0  0  0  0  0  0  0  0
   36.9960   27.8480   35.8410 H   0  0  0  0  0  0  0  0  0  0  0  0
   38.4700   26.1000   34.2990 C   0  0  0  0  0  0  0  0  0  0  0  0
   39.5270   27.0000   34.5240 C   0  0  0  0  0  0  0  0  0  0  0  0
   40.7820   26.4540   34.7580 C   0  0  0  0  0  0  0  0  0  0  0  0
   40.9410   25.0830   34.7610 N   0  0  0  0  0  0  0  0  0  0  0  0
   39.8820   24.2480   34.5360 C   0  0  0  0  0  0  0  0  0  0  0  0
   38.6710   24.7620   34.3110 N   0  0  0  0  0  0  0  0  0  0  0  0
   39.4490   28.0610   34.5300 H   0  0  0  0  0  0  0  0  0  0  0  0
   41.6510   27.0840   34.9410 H   0  0  0  0  0  0  0  0  0  0  0  0
   40.0960   23.1880   34.5560 H   0  0  0  0  0  0  0  0  0  0  0  0
   36.9770   28.4930   30.6700 C   0  0  2  0  0  3  0  0  0  0  0  0
   38.3170   28.2190   30.0200 C   0  0  0  0  0  3  0  0  0  0  0  0
   38.5870   27.1660   29.9770 H   0  0  0  0  0  0  0  0  0  0  0  0
   37.9850   28.7870   28.6300 C   0  0  0  0  0  3  0  0  0  0  0  0
   37.3860   27.9970   28.1290 H   0  0  0  0  0  0  0  0  0  0  0  0
   37.2460   29.9330   28.8690 O   0  0  0  0  0  0  0  0  0  0  0  0
   36.7100   29.8680   30.1480 C   0  0  0  0  0  3  0  0  0  0  0  0
   37.2420   30.6650   30.7230 H   0  0  0  0  0  0  0  0  0  0  0  0
  1 17  1  0  0  0  0
  1  7  1  1  0  0  0
  1  6  1  0  0  0  0
  2  1  1  0  0  0  0
  3 10  1  1  0  0  0
  3  2  1  0  0  0  0
  3  4  1  0  0  0  0
  4  5  1  0  0  0  0
  5 13  1  0  0  0  0
  5  6  1  0  0  0  0
  5 14  1  0  0  0  0
  6 16  1  0  0  0  0
  8  2  1  0  0  0  0
  9  2  1  0  0  0  0
 11  4  1  0  0  0  0
 12  4  1  0  0  0  0
 15  6  1  0  0  0  0
 17 22  2  0  0  0  0
 17 18  1  0  0  0  0
 18 23  1  0  0  0  0
 18 19  2  0  0  0  0
 19 20  1  0  0  0  0
 19 24  1  0  0  0  0
 21 25  1  0  0  0  0
 21 20  2  0  0  0  0
 22 21  1  0  0  0  0
 26 27  1  1  0  0  0
 26  3  1  0  0  0  0
 28 27  1  0  0  0  0
 29 31  1  0  0  0  0
 29 27  1  0  0  0  0
 30 29  1  0  0  0  0
 31 32  1  0  0  0  0
 32 26  1  0  0  0  0
 32 33  1  0  0  0  0
M  END
>  <minimizedAffinity>
-4.45897579

$$$$
