
 OpenBabel03272509173D

 29 31  0  0  1  0  0  0  0  0999 V2000
   35.8590   30.3220   45.0950 C   0  0  0  0  0  0  0  0  0  0  0  0
   37.0450   30.7540   45.7270 C   0  0  0  0  0  0  0  0  0  0  0  0
   37.0880   30.6850   47.1130 C   0  0  0  0  0  0  0  0  0  0  0  0
   36.0150   30.2170   47.7990 N   0  0  0  0  0  0  0  0  0  0  0  0
   34.8850   29.8080   47.1520 C   0  0  0  0  0  0  0  0  0  0  0  0
   34.8110   29.8620   45.8050 N   0  0  0  0  0  0  0  0  0  0  0  0
   35.7520   30.3460   44.0240 H   0  0  0  0  0  0  0  0  0  0  0  0
   34.0870   29.4500   47.7990 H   0  0  0  0  0  0  0  0  0  0  0  0
   39.1360   30.4250   44.4320 C   0  0  0  0  0  0  0  0  0  0  0  0
   38.1260   31.2320   44.9400 C   0  0  0  0  0  0  0  0  0  0  0  0
   38.2670   32.5690   44.6060 C   0  0  0  0  0  0  0  0  0  0  0  0
   39.3240   33.0550   43.8330 C   0  0  0  0  0  0  0  0  0  0  0  0
   40.2880   32.1510   43.3730 C   0  0  0  0  0  0  0  0  0  0  0  0
   40.1900   30.8110   43.6800 C   0  0  0  0  0  0  0  0  0  0  0  0
   37.5630   33.3130   44.9260 H   0  0  0  0  0  0  0  0  0  0  0  0
   39.4100   34.1030   43.5850 H   0  0  0  0  0  0  0  0  0  0  0  0
   41.1090   32.5250   42.7730 H   0  0  0  0  0  0  0  0  0  0  0  0
   39.0920   29.0430   44.7130 O   0  0  0  0  0  0  0  0  0  0  0  0
   39.9380   28.4840   44.8190 H   0  0  0  0  0  0  0  0  0  0  0  0
   41.1640   29.9510   43.2050 O   0  0  0  0  0  0  0  0  0  0  0  0
   40.9850   29.2460   42.4970 H   0  0  0  0  0  0  0  0  0  0  0  0
   38.2930   31.1190   47.8480 C   0  0  1  0  0  3  0  0  0  0  0  0
   38.3540   32.6080   48.0100 C   0  0  0  0  0  3  0  0  0  0  0  0
   37.6550   33.1590   47.3510 H   0  0  0  0  0  0  0  0  0  0  0  0
   38.0170   32.8490   49.4520 C   0  0  0  0  0  3  0  0  0  0  0  0
   37.2380   33.6390   49.5410 H   0  0  0  0  0  0  0  0  0  0  0  0
   37.5430   31.6430   49.9610 O   0  0  0  0  0  0  0  0  0  0  0  0
   38.1630   30.6320   49.2740 C   0  0  0  0  0  3  0  0  0  0  0  0
   37.5050   29.7270   49.3230 H   0  0  0  0  0  0  0  0  0  0  0  0
  1  2  2  0  0  0  0
  1  6  1  0  0  0  0
  2  3  1  0  0  0  0
  3  4  2  0  0  0  0
  5  8  1  0  0  0  0
  5  4  1  0  0  0  0
  6  5  2  0  0  0  0
  7  1  1  0  0  0  0
  9 18  1  0  0  0  0
  9 10  1  0  0  0  0
 10  2  1  0  0  0  0
 11 15  1  0  0  0  0
 11 10  2  0  0  0  0
 12 11  1  0  0  0  0
 13 14  1  0  0  0  0
 13 12  2  0  0  0  0
 14  9  2  0  0  0  0
 16 12  1  0  0  0  0
 17 13  1  0  0  0  0
 18 19  1  0  0  0  0
 20 14  1  0  0  0  0
 21 20  1  0  0  0  0
 22  3  1  6  0  0  0
 22 23  1  0  0  0  0
 22 28  1  0  0  0  0
 23 25  1  0  0  0  0
 24 23  1  0  0  0  0
 25 26  1  0  0  0  0
 25 27  1  0  0  0  0
 28 29  1  0  0  0  0
 28 27  1  0  0  0  0
M  END
>  <minimizedAffinity>
-5.59124565

>  <minimizedRMSD>
3.94231105

$$$$
