
 OpenBabel03272507373D

 22 23  0  0  1  0  0  0  0  0999 V2000
   36.9510   30.3890   49.2500 C   0  0  0  0  0  0  0  0  0  0  0  0
   35.5760   30.2700   49.1490 C   0  0  0  0  0  0  0  0  0  0  0  0
   34.8640   29.6900   50.1700 C   0  0  0  0  0  0  0  0  0  0  0  0
   35.5680   29.2490   51.2590 N   0  0  0  0  0  0  0  0  0  0  0  0
   36.9190   29.3730   51.3470 C   0  0  0  0  0  0  0  0  0  0  0  0
   37.5870   29.9360   50.3480 N   0  0  0  0  0  0  0  0  0  0  0  0
   33.7830   29.5760   50.1330 H   0  0  0  0  0  0  0  0  0  0  0  0
   37.4480   29.0140   52.2210 H   0  0  0  0  0  0  0  0  0  0  0  0
   34.3050   29.7500   47.1320 C   0  0  0  0  0  0  0  0  0  0  0  0
   34.3180   28.4820   47.0260 O   0  0  0  0  0  0  0  0  0  0  0  0
   34.8220   30.7100   48.0500 N   0  0  0  0  0  0  0  0  0  0  0  0
   33.7300   30.0290   46.2450 H   0  0  0  0  0  0  0  0  0  0  0  0
   34.5790   31.6770   47.8080 H   0  0  0  0  0  0  0  0  0  0  0  0
   37.5370   30.9900   48.1540 O   0  0  0  0  0  0  0  0  0  0  0  0
   38.5870   31.8820   48.4440 C   0  0  2  0  0  0  0  0  0  0  0  0
   38.1440   33.0830   49.2540 C   0  0  0  0  0  0  0  0  0  0  0  0
   38.0680   32.8920   50.3320 H   0  0  0  0  0  0  0  0  0  0  0  0
   39.2490   34.0600   48.8960 C   0  0  0  0  0  0  0  0  0  0  0  0
   38.8450   35.0810   48.7620 H   0  0  0  0  0  0  0  0  0  0  0  0
   39.8630   33.5920   47.7540 O   0  0  0  0  0  0  0  0  0  0  0  0
   39.0750   32.6190   47.1940 C   0  0  0  0  0  0  0  0  0  0  0  0
   39.6460   31.8760   46.6060 H   0  0  0  0  0  0  0  0  0  0  0  0
  1  6  1  0  0  0  0
  2  1  2  0  0  0  0
  2  3  1  0  0  0  0
  3  4  2  0  0  0  0
  4  5  1  0  0  0  0
  5  8  1  0  0  0  0
  6  5  2  0  0  0  0
  7  3  1  0  0  0  0
  9 11  1  0  0  0  0
 10  9  2  0  0  0  0
 11  2  1  0  0  0  0
 12  9  1  0  0  0  0
 13 11  1  0  0  0  0
 14  1  1  0  0  0  0
 15 14  1  6  0  0  0
 15 16  1  0  0  0  0
 16 17  1  0  0  0  0
 18 16  1  0  0  0  0
 19 18  1  0  0  0  0
 20 18  1  0  0  0  0
 21 20  1  0  0  0  0
 21 15  1  0  0  0  0
 22 21  1  0  0  0  0
M  END
>  <minimizedAffinity>
-4.47214556

>  <minimizedRMSD>
5.25848722

$$$$
