
 OpenBabel03272510043D

 36 38  0  0  1  0  0  0  0  0999 V2000
   36.1490   30.5410   43.3140 C   0  0  0  0  0  0  0  0  0  0  0  0
   36.0510   29.9820   44.5490 C   0  0  0  0  0  0  0  0  0  0  0  0
   35.2930   28.8290   44.7280 C   0  0  0  0  0  0  0  0  0  0  0  0
   34.6210   28.2100   43.7010 C   0  0  0  0  0  0  0  0  0  0  0  0
   34.6910   28.7460   42.4390 C   0  0  0  0  0  0  0  0  0  0  0  0
   35.4470   29.8820   42.2920 C   0  0  0  0  0  0  0  0  0  0  0  0
   35.2400   28.4040   45.7460 H   0  0  0  0  0  0  0  0  0  0  0  0
   34.0700   27.3270   43.9530 H   0  0  0  0  0  0  0  0  0  0  0  0
   34.1540   28.2310   41.6840 H   0  0  0  0  0  0  0  0  0  0  0  0
   35.4170   30.2070   41.2430 H   0  0  0  0  0  0  0  0  0  0  0  0
   38.4820   31.8510   46.5750 C   0  0  0  0  0  0  0  0  0  0  0  0
   37.8300   31.2750   45.4960 C   0  0  0  0  0  0  0  0  0  0  0  0
   36.6840   30.5710   45.6810 C   0  0  0  0  0  0  0  0  0  0  0  0
   36.2170   30.4690   46.9560 N   0  0  0  0  0  0  0  0  0  0  0  0
   36.8370   31.0250   48.0020 C   0  0  0  0  0  0  0  0  0  0  0  0
   37.9660   31.7100   47.8050 N   0  0  0  0  0  0  0  0  0  0  0  0
   39.3860   32.4290   46.6080 H   0  0  0  0  0  0  0  0  0  0  0  0
   38.4170   31.5640   44.6570 H   0  0  0  0  0  0  0  0  0  0  0  0
   36.1770   30.8890   49.3280 C   0  0  0  0  0  0  0  0  0  0  0  0
   36.3170   32.0320   50.0930 F   0  0  0  0  0  0  0  0  0  0  0  0
   34.7450   30.8310   49.1260 F   0  0  0  0  0  0  0  0  0  0  0  0
   36.4370   29.8040   50.0210 F   0  0  0  0  0  0  0  0  0  0  0  0
   37.0710   31.9260   42.9450 S   0  0  0  0  0  0  0  0  0  0  0  0
   36.2820   33.1780   43.2030 O   0  0  0  0  0  0  0  0  0  0  0  0
   36.9020   31.9350   41.4500 O   0  0  0  0  0  0  0  0  0  0  0  0
   38.7370   32.0330   42.6850 C   0  0  0  0  0  0  0  0  0  0  0  0
   39.1170   32.9850   42.2800 H   0  0  0  0  0  0  0  0  0  0  0  0
   39.1850   32.1010   43.7400 H   0  0  0  0  0  0  0  0  0  0  0  0
   39.4030   30.8280   42.1290 C   0  0  1  0  0  3  0  0  0  0  0  0
   40.1880   30.9670   40.8830 C   0  0  0  0  0  3  0  0  0  0  0  0
   40.7230   31.9260   40.7980 H   0  0  0  0  0  0  0  0  0  0  0  0
   41.2250   29.8410   41.0500 C   0  0  0  0  0  3  0  0  0  0  0  0
   42.2040   30.1230   40.6120 H   0  0  0  0  0  0  0  0  0  0  0  0
   41.3640   29.5840   42.3810 O   0  0  0  0  0  0  0  0  0  0  0  0
   40.5170   30.3750   43.0980 C   0  0  0  0  0  3  0  0  0  0  0  0
   41.0100   31.3360   43.3900 H   0  0  0  0  0  0  0  0  0  0  0  0
  1  2  1  0  0  0  0
  2  3  2  0  0  0  0
  2 13  1  0  0  0  0
  3  7  1  0  0  0  0
  4  8  1  0  0  0  0
  4  3  1  0  0  0  0
  5  4  2  0  0  0  0
  6  5  1  0  0  0  0
  6  1  2  0  0  0  0
  9  5  1  0  0  0  0
 10  6  1  0  0  0  0
 11 17  1  0  0  0  0
 11 16  1  0  0  0  0
 12 13  1  0  0  0  0
 12 11  2  0  0  0  0
 13 14  2  0  0  0  0
 14 15  1  0  0  0  0
 15 19  1  0  0  0  0
 16 15  2  0  0  0  0
 18 12  1  0  0  0  0
 19 22  1  0  0  0  0
 19 20  1  0  0  0  0
 21 19  1  0  0  0  0
 23 24  2  0  0  0  0
 23  1  1  0  0  0  0
 25 23  2  0  0  0  0
 26 23  1  0  0  0  0
 26 28  1  0  0  0  0
 27 26  1  0  0  0  0
 29 26  1  1  0  0  0
 29 35  1  0  0  0  0
 30 32  1  0  0  0  0
 30 29  1  0  0  0  0
 31 30  1  0  0  0  0
 32 34  1  0  0  0  0
 33 32  1  0  0  0  0
 34 35  1  0  0  0  0
 35 36  1  0  0  0  0
M  END
>  <minimizedAffinity>
-4.52699614

>  <minimizedRMSD>
2.92194176

$$$$
