
 OpenBabel03272508123D

 33 35  0  0  1  0  0  0  0  0999 V2000
   36.7100   29.4580   44.0980 Cl  0  0  0  0  0  0  0  0  0  0  0  0
   38.3500   29.8540   43.5710 C   0  0  0  0  0  0  0  0  0  0  0  0
   39.3400   30.3450   44.4240 C   0  0  0  0  0  0  0  0  0  0  0  0
   40.5920   30.6160   43.8770 C   0  0  0  0  0  0  0  0  0  0  0  0
   40.8190   30.3970   42.5390 C   0  0  0  0  0  0  0  0  0  0  0  0
   39.8670   29.9190   41.6870 C   0  0  0  0  0  0  0  0  0  0  0  0
   38.6320   29.6480   42.2120 C   0  0  0  0  0  0  0  0  0  0  0  0
   41.2800   30.9900   44.6220 H   0  0  0  0  0  0  0  0  0  0  0  0
   41.8330   30.6400   42.2040 H   0  0  0  0  0  0  0  0  0  0  0  0
   40.1360   29.7790   40.6510 H   0  0  0  0  0  0  0  0  0  0  0  0
   37.5820   29.1250   41.3000 C   0  0  2  0  0  0  0  0  0  0  0  0
   37.5990   27.6070   41.2060 C   0  0  0  0  0  0  0  0  0  0  0  0
   38.3020   27.1310   41.9010 H   0  0  0  0  0  0  0  0  0  0  0  0
   37.9770   27.3990   39.7550 C   0  0  0  0  0  0  0  0  0  0  0  0
   38.6520   26.5130   39.6320 H   0  0  0  0  0  0  0  0  0  0  0  0
   38.6170   28.5700   39.3620 O   0  0  0  0  0  0  0  0  0  0  0  0
   37.7840   29.5520   39.8930 C   0  0  0  0  0  0  0  0  0  0  0  0
   36.7980   29.3990   39.3670 H   0  0  0  0  0  0  0  0  0  0  0  0
   38.8970   30.4840   45.7100 O   0  0  0  0  0  0  0  0  0  0  0  0
   39.4360   32.5660   47.1580 O   0  0  0  0  0  0  0  0  0  0  0  0
   38.3200   31.8720   46.4670 P   0  0  1  0  0  0  0  0  0  0  0  0
   37.7220   32.8640   45.2130 O   0  0  0  0  0  0  0  0  0  0  0  0
   38.5040   33.2160   44.7010 H   0  0  0  0  0  0  0  0  0  0  0  0
   37.0300   31.4420   47.4840 O   0  0  0  0  0  0  0  0  0  0  0  0
   37.5990   30.5140   51.0180 C   0  0  0  0  0  0  0  0  0  0  0  0
   37.6980   31.3040   49.8690 C   0  0  0  0  0  0  0  0  0  0  0  0
   37.0690   30.8530   48.7000 C   0  0  0  0  0  0  0  0  0  0  0  0
   36.3950   29.6680   48.7450 N   0  0  0  0  0  0  0  0  0  0  0  0
   36.3260   28.9390   49.8760 C   0  0  0  0  0  0  0  0  0  0  0  0
   36.9240   29.3630   51.0010 N   0  0  0  0  0  0  0  0  0  0  0  0
   38.1080   30.9170   51.8940 H   0  0  0  0  0  0  0  0  0  0  0  0
   38.2110   32.2480   49.7590 H   0  0  0  0  0  0  0  0  0  0  0  0
   35.7970   27.9960   49.9360 H   0  0  0  0  0  0  0  0  0  0  0  0
  2  1  1  0  0  0  0
  2  3  1  0  0  0  0
  3 19  1  0  0  0  0
  4  3  2  0  0  0  0
  4  8  1  0  0  0  0
  5  4  1  0  0  0  0
  6  7  1  0  0  0  0
  6  5  2  0  0  0  0
  7  2  2  0  0  0  0
  9  5  1  0  0  0  0
 10  6  1  0  0  0  0
 11  7  1  1  0  0  0
 12 11  1  0  0  0  0
 12 13  1  0  0  0  0
 14 12  1  0  0  0  0
 15 14  1  0  0  0  0
 16 14  1  0  0  0  0
 16 17  1  0  0  0  0
 17 11  1  0  0  0  0
 18 17  1  0  0  0  0
 19 21  1  0  0  0  0
 21 20  2  1  0  0  0
 21 24  1  0  0  0  0
 22 21  1  0  0  0  0
 23 22  1  0  0  0  0
 24 27  1  0  0  0  0
 25 31  1  0  0  0  0
 26 25  2  0  0  0  0
 27 28  2  0  0  0  0
 27 26  1  0  0  0  0
 28 29  1  0  0  0  0
 29 33  1  0  0  0  0
 29 30  2  0  0  0  0
 30 25  1  0  0  0  0
 32 26  1  0  0  0  0
M  END
>  <minimizedAffinity>
-4.88511944

>  <minimizedRMSD>
0.755143404

$$$$
