
 OpenBabel03272508053D

 34 37  0  0  1  0  0  0  0  0999 V2000
   38.9190   30.8910   45.7740 C   0  0  0  0  0  0  0  0  0  0  0  0
   40.1140   31.5110   46.0280 C   0  0  0  0  0  0  0  0  0  0  0  0
   40.9430   31.4500   44.9130 C   0  0  0  0  0  0  0  0  0  0  0  0
   40.1930   30.7790   44.0100 N   0  0  0  0  0  0  0  0  0  0  0  0
   39.0100   30.4480   44.5000 N   0  0  0  0  0  0  0  0  0  0  0  0
   40.4090   31.9910   46.9550 H   0  0  0  0  0  0  0  0  0  0  0  0
   41.9330   31.8180   44.7430 H   0  0  0  0  0  0  0  0  0  0  0  0
   37.7970   30.7450   46.6810 C   0  0  0  0  0  0  0  0  0  0  0  0
   38.0160   30.9730   48.0660 C   0  0  0  0  0  0  0  0  0  0  0  0
   36.9330   30.8300   48.9240 C   0  0  0  0  0  0  0  0  0  0  0  0
   35.7260   30.4810   48.3890 N   0  0  0  0  0  0  0  0  0  0  0  0
   35.5400   30.2690   47.0640 C   0  0  0  0  0  0  0  0  0  0  0  0
   36.5830   30.4040   46.2210 N   0  0  0  0  0  0  0  0  0  0  0  0
   38.9930   31.2490   48.4450 H   0  0  0  0  0  0  0  0  0  0  0  0
   34.5460   29.9960   46.7380 H   0  0  0  0  0  0  0  0  0  0  0  0
   37.1350   31.0630   50.3750 C   0  0  0  0  0  0  0  0  0  0  0  0
   36.6010   32.3030   50.6300 F   0  0  0  0  0  0  0  0  0  0  0  0
   36.4710   30.1320   51.1600 F   0  0  0  0  0  0  0  0  0  0  0  0
   38.4890   31.0730   50.7100 F   0  0  0  0  0  0  0  0  0  0  0  0
   40.5410   30.4110   42.6390 C   0  0  0  0  0  0  0  0  0  0  0  0
   40.2120   31.2430   41.5540 C   0  0  0  0  0  0  0  0  0  0  0  0
   40.5600   30.8530   40.2950 C   0  0  0  0  0  0  0  0  0  0  0  0
   41.2440   29.6190   40.1150 C   0  0  0  0  0  0  0  0  0  0  0  0
   41.3970   28.9860   41.8530 S   0  0  0  0  0  0  0  0  0  0  0  0
   39.6920   32.1860   41.6540 H   0  0  0  0  0  0  0  0  0  0  0  0
   40.4060   31.3320   39.3450 H   0  0  0  0  0  0  0  0  0  0  0  0
   41.7910   28.8080   39.1080 C   0  0  1  0  0  3  0  0  0  0  0  0
   41.2840   27.4010   39.2300 C   0  0  0  0  0  3  0  0  0  0  0  0
   41.0720   27.2240   40.3020 H   0  0  0  0  0  0  0  0  0  0  0  0
   40.0640   27.3930   38.3690 C   0  0  0  0  0  3  0  0  0  0  0  0
   39.1570   27.1680   38.9660 H   0  0  0  0  0  0  0  0  0  0  0  0
   39.9070   28.6740   37.8580 O   0  0  0  0  0  0  0  0  0  0  0  0
   41.1550   29.2460   37.7830 C   0  0  0  0  0  3  0  0  0  0  0  0
   41.0540   30.3470   37.7180 H   0  0  0  0  0  0  0  0  0  0  0  0
  1  2  1  0  0  0  0
  1  8  1  0  0  0  0
  2  6  1  0  0  0  0
  3  2  2  0  0  0  0
  4  5  1  0  0  0  0
  4  3  1  0  0  0  0
  5  1  2  0  0  0  0
  7  3  1  0  0  0  0
  8  9  1  0  0  0  0
  9 14  1  0  0  0  0
  9 10  2  0  0  0  0
 10 16  1  0  0  0  0
 11 10  1  0  0  0  0
 12 11  2  0  0  0  0
 13  8  2  0  0  0  0
 13 12  1  0  0  0  0
 15 12  1  0  0  0  0
 16 17  1  0  0  0  0
 16 19  1  0  0  0  0
 16 18  1  0  0  0  0
 20  4  1  0  0  0  0
 21 25  1  0  0  0  0
 21 20  2  0  0  0  0
 22 21  1  0  0  0  0
 23 22  2  0  0  0  0
 23 24  1  0  0  0  0
 24 20  1  0  0  0  0
 26 22  1  0  0  0  0
 27 28  1  0  0  0  0
 27 23  1  1  0  0  0
 28 29  1  0  0  0  0
 30 31  1  0  0  0  0
 30 28  1  0  0  0  0
 32 30  1  0  0  0  0
 33 32  1  0  0  0  0
 33 27  1  0  0  0  0
 34 33  1  0  0  0  0
M  END
>  <minimizedAffinity>
-6.14324474

>  <minimizedRMSD>
0.208094418

$$$$
