
 OpenBabel03272506103D

 43 46  0  0  1  0  0  0  0  0999 V2000
   36.8770   27.3930   34.7150 C   0  0  0  0  0  0  0  0  0  0  0  0
   36.7440   26.2900   34.6790 H   0  0  0  0  0  0  0  0  0  0  0  0
   36.0040   27.7600   35.3050 H   0  0  0  0  0  0  0  0  0  0  0  0
   36.7830   27.9630   33.3250 C   0  0  0  0  0  0  0  0  0  0  0  0
   35.7470   28.9260   33.0280 C   0  0  0  0  0  0  0  0  0  0  0  0
   36.0820   29.2530   31.3180 S   0  0  0  0  0  0  0  0  0  0  0  0
   37.5420   28.0800   31.2090 C   0  0  0  0  0  0  0  0  0  0  0  0
   37.5650   27.6620   32.3370 N   0  0  0  0  0  0  0  0  0  0  0  0
   38.4180   27.7450   30.1020 N   0  0  0  0  0  0  0  0  0  0  0  0
   38.6050   28.7450   29.1140 C   0  0  0  0  0  0  0  0  0  0  0  0
   39.1990   28.2550   27.8360 C   0  0  0  0  0  0  0  0  0  0  0  0
   39.2540   26.8080   27.7500 N   0  0  0  0  0  0  0  0  0  0  0  0
   40.0010   26.3810   28.9310 C   0  0  0  0  0  0  0  0  0  0  0  0
   39.0340   26.4300   30.0780 C   0  0  0  0  0  0  0  0  0  0  0  0
   35.0240   29.2940   33.6870 H   0  0  0  0  0  0  0  0  0  0  0  0
   37.5760   29.1270   28.8490 H   0  0  0  0  0  0  0  0  0  0  0  0
   39.1340   29.6590   29.4700 H   0  0  0  0  0  0  0  0  0  0  0  0
   38.6960   28.6940   26.9320 H   0  0  0  0  0  0  0  0  0  0  0  0
   40.2570   28.5940   27.7830 H   0  0  0  0  0  0  0  0  0  0  0  0
   38.2730   26.4630   27.8470 H   0  0  0  0  0  0  0  0  0  0  0  0
   40.8890   27.0190   29.1040 H   0  0  0  0  0  0  0  0  0  0  0  0
   40.2880   25.3210   28.7420 H   0  0  0  0  0  0  0  0  0  0  0  0
   38.2890   25.6220   29.9500 H   0  0  0  0  0  0  0  0  0  0  0  0
   39.5950   26.2800   31.0230 H   0  0  0  0  0  0  0  0  0  0  0  0
   38.1420   27.7400   35.3810 C   0  0  0  0  0  0  0  0  0  0  0  0
   38.6100   28.6150   34.8530 H   0  0  0  0  0  0  0  0  0  0  0  0
   37.9590   28.0340   36.4340 H   0  0  0  0  0  0  0  0  0  0  0  0
   41.1900   25.7140   34.6880 C   0  0  0  0  0  0  0  0  0  0  0  0
   40.8380   24.4540   35.1930 C   0  0  0  0  0  0  0  0  0  0  0  0
   39.5620   24.3270   35.7600 C   0  0  0  0  0  0  0  0  0  0  0  0
   38.7440   25.4140   35.7920 N   0  0  0  0  0  0  0  0  0  0  0  0
   39.1330   26.6060   35.2910 C   0  0  0  0  0  0  0  0  0  0  0  0
   40.3320   26.7390   34.7530 N   0  0  0  0  0  0  0  0  0  0  0  0
   42.1780   25.8070   34.2490 H   0  0  0  0  0  0  0  0  0  0  0  0
   41.4810   23.6080   35.1650 H   0  0  0  0  0  0  0  0  0  0  0  0
   39.0610   23.0460   36.3330 C   0  0  2  0  0  3  0  0  0  0  0  0
   37.6740   23.1540   36.8760 C   0  0  0  0  0  3  0  0  0  0  0  0
   37.0790   22.2570   36.5800 H   0  0  0  0  0  0  0  0  0  0  0  0
   37.8360   23.2210   38.3910 C   0  0  0  0  0  3  0  0  0  0  0  0
   37.5130   22.2740   38.8630 H   0  0  0  0  0  0  0  0  0  0  0  0
   39.1940   23.3700   38.6130 O   0  0  0  0  0  0  0  0  0  0  0  0
   39.8690   22.7330   37.5970 C   0  0  0  0  0  3  0  0  0  0  0  0
   40.8830   23.2140   37.4790 H   0  0  0  0  0  0  0  0  0  0  0  0
  1  3  1  0  0  0  0
  1 25  1  0  0  0  0
  2  1  1  0  0  0  0
  4  1  1  0  0  0  0
  5  4  2  0  0  0  0
  5 15  1  0  0  0  0
  6  5  1  0  0  0  0
  7  6  1  0  0  0  0
  7  8  2  0  0  0  0
  8  4  1  0  0  0  0
  9  7  1  0  0  0  0
 10 17  1  0  0  0  0
 10  9  1  0  0  0  0
 11 10  1  0  0  0  0
 12 11  1  0  0  0  0
 12 20  1  0  0  0  0
 12 13  1  0  0  0  0
 13 21  1  0  0  0  0
 13 14  1  0  0  0  0
 14  9  1  0  0  0  0
 14 24  1  0  0  0  0
 16 10  1  0  0  0  0
 18 11  1  0  0  0  0
 19 11  1  0  0  0  0
 22 13  1  0  0  0  0
 23 14  1  0  0  0  0
 25 27  1  0  0  0  0
 26 25  1  0  0  0  0
 28 33  2  0  0  0  0
 28 29  1  0  0  0  0
 29 30  2  0  0  0  0
 30 31  1  0  0  0  0
 32 25  1  0  0  0  0
 32 31  2  0  0  0  0
 33 32  1  0  0  0  0
 34 28  1  0  0  0  0
 35 29  1  0  0  0  0
 36 30  1  1  0  0  0
 36 37  1  0  0  0  0
 36 42  1  0  0  0  0
 37 39  1  0  0  0  0
 38 37  1  0  0  0  0
 39 41  1  0  0  0  0
 39 40  1  0  0  0  0
 42 41  1  0  0  0  0
 43 42  1  0  0  0  0
M  END
>  <minimizedAffinity>
-5.81334591

$$$$

 OpenBabel03272506103D

 43 46  0  0  1  0  0  0  0  0999 V2000
   36.2580   28.9220   34.6030 C   0  0  0  0  0  0  0  0  0  0  0  0
   37.0670   29.5710   35.0040 H   0  0  0  0  0  0  0  0  0  0  0  0
   35.5910   28.7340   35.4800 H   0  0  0  0  0  0  0  0  0  0  0  0
   36.8330   27.6060   34.1560 C   0  0  0  0  0  0  0  0  0  0  0  0
   36.8820   27.3010   32.7440 C   0  0  0  0  0  0  0  0  0  0  0  0
   37.6220   25.6900   32.7790 S   0  0  0  0  0  0  0  0  0  0  0  0
   37.7740   25.6200   34.6480 C   0  0  0  0  0  0  0  0  0  0  0  0
   37.3030   26.6880   34.9400 N   0  0  0  0  0  0  0  0  0  0  0  0
   38.3010   24.5930   35.5260 N   0  0  0  0  0  0  0  0  0  0  0  0
   39.3110   23.7540   34.9890 C   0  0  0  0  0  0  0  0  0  0  0  0
   39.5660   22.5070   35.7670 C   0  0  0  0  0  0  0  0  0  0  0  0
   38.5720   22.2630   36.7950 N   0  0  0  0  0  0  0  0  0  0  0  0
   38.5720   23.4670   37.6220 C   0  0  0  0  0  0  0  0  0  0  0  0
   37.7690   24.4900   36.8730 C   0  0  0  0  0  0  0  0  0  0  0  0
   36.5540   27.9090   31.9590 H   0  0  0  0  0  0  0  0  0  0  0  0
   38.9390   23.4160   33.9770 H   0  0  0  0  0  0  0  0  0  0  0  0
   40.2690   24.2720   34.7490 H   0  0  0  0  0  0  0  0  0  0  0  0
   39.6930   21.6060   35.1060 H   0  0  0  0  0  0  0  0  0  0  0  0
   40.5300   22.6170   36.3100 H   0  0  0  0  0  0  0  0  0  0  0  0
   37.6470   22.2040   36.3120 H   0  0  0  0  0  0  0  0  0  0  0  0
   39.6010   23.8150   37.8360 H   0  0  0  0  0  0  0  0  0  0  0  0
   38.0300   23.1930   38.5570 H   0  0  0  0  0  0  0  0  0  0  0  0
   36.7060   24.1850   36.8800 H   0  0  0  0  0  0  0  0  0  0  0  0
   37.8840   25.4720   37.3790 H   0  0  0  0  0  0  0  0  0  0  0  0
   35.5260   29.6110   33.5290 C   0  0  0  0  0  0  0  0  0  0  0  0
   35.7880   30.7040   33.5460 H   0  0  0  0  0  0  0  0  0  0  0  0
   35.8160   29.2050   32.5390 H   0  0  0  0  0  0  0  0  0  0  0  0
   31.8820   29.0120   33.0460 C   0  0  0  0  0  0  0  0  0  0  0  0
   31.3420   29.4230   34.2730 C   0  0  0  0  0  0  0  0  0  0  0  0
   32.2390   29.8980   35.2390 C   0  0  0  0  0  0  0  0  0  0  0  0
   33.5670   29.9340   34.9430 N   0  0  0  0  0  0  0  0  0  0  0  0
   34.0360   29.5250   33.7440 C   0  0  0  0  0  0  0  0  0  0  0  0
   33.2000   29.0760   32.8250 N   0  0  0  0  0  0  0  0  0  0  0  0
   31.1820   28.6460   32.3010 H   0  0  0  0  0  0  0  0  0  0  0  0
   30.3030   29.3930   34.4990 H   0  0  0  0  0  0  0  0  0  0  0  0
   31.8000   30.3660   36.5830 C   0  0  2  0  0  3  0  0  0  0  0  0
   30.6420   31.3070   36.5240 C   0  0  0  0  0  3  0  0  0  0  0  0
   29.9030   31.0520   37.3220 H   0  0  0  0  0  0  0  0  0  0  0  0
   31.2340   32.6930   36.7570 C   0  0  0  0  0  3  0  0  0  0  0  0
   30.9690   33.0700   37.7610 H   0  0  0  0  0  0  0  0  0  0  0  0
   32.6060   32.5230   36.7090 O   0  0  0  0  0  0  0  0  0  0  0  0
   32.9000   31.2600   37.1670 C   0  0  0  0  0  3  0  0  0  0  0  0
   33.8800   30.9290   36.7150 H   0  0  0  0  0  0  0  0  0  0  0  0
  1  2  1  0  0  0  0
  1  3  1  0  0  0  0
  4  1  1  0  0  0  0
  4  8  1  0  0  0  0
  5  6  1  0  0  0  0
  5  4  2  0  0  0  0
  6  7  1  0  0  0  0
  7  8  2  0  0  0  0
  7  9  1  0  0  0  0
  9 14  1  0  0  0  0
 10  9  1  0  0  0  0
 10 11  1  0  0  0  0
 11 19  1  0  0  0  0
 11 12  1  0  0  0  0
 12 13  1  0  0  0  0
 13 21  1  0  0  0  0
 13 22  1  0  0  0  0
 14 23  1  0  0  0  0
 14 24  1  0  0  0  0
 14 13  1  0  0  0  0
 15  5  1  0  0  0  0
 16 10  1  0  0  0  0
 17 10  1  0  0  0  0
 18 11  1  0  0  0  0
 20 12  1  0  0  0  0
 25 26  1  0  0  0  0
 25 32  1  0  0  0  0
 25  1  1  0  0  0  0
 27 25  1  0  0  0  0
 28 29  1  0  0  0  0
 29 35  1  0  0  0  0
 29 30  2  0  0  0  0
 31 30  1  0  0  0  0
 32 31  2  0  0  0  0
 33 28  2  0  0  0  0
 33 32  1  0  0  0  0
 34 28  1  0  0  0  0
 36 30  1  6  0  0  0
 36 42  1  0  0  0  0
 37 36  1  0  0  0  0
 37 39  1  0  0  0  0
 37 38  1  0  0  0  0
 39 40  1  0  0  0  0
 41 39  1  0  0  0  0
 41 42  1  0  0  0  0
 43 42  1  0  0  0  0
M  END
>  <minimizedAffinity>
-5.65469408

$$$$

 OpenBabel03272506103D

 43 46  0  0  1  0  0  0  0  0999 V2000
   37.0130   28.3000   32.3960 C   0  0  0  0  0  0  0  0  0  0  0  0
   37.7970   28.7460   31.7460 H   0  0  0  0  0  0  0  0  0  0  0  0
   37.2010   28.7430   33.4040 H   0  0  0  0  0  0  0  0  0  0  0  0
   37.2120   26.8110   32.4880 C   0  0  0  0  0  0  0  0  0  0  0  0
   36.9910   25.9960   31.3160 C   0  0  0  0  0  0  0  0  0  0  0  0
   37.3520   24.3850   31.9610 S   0  0  0  0  0  0  0  0  0  0  0  0
   37.7490   24.9870   33.6940 C   0  0  0  0  0  0  0  0  0  0  0  0
   37.5730   26.1690   33.5540 N   0  0  0  0  0  0  0  0  0  0  0  0
   38.1540   24.2670   34.8860 N   0  0  0  0  0  0  0  0  0  0  0  0
   38.8650   23.0560   34.6870 C   0  0  0  0  0  0  0  0  0  0  0  0
   38.9440   22.1750   35.8880 C   0  0  0  0  0  0  0  0  0  0  0  0
   38.0770   22.6030   36.9690 N   0  0  0  0  0  0  0  0  0  0  0  0
   38.4620   23.9850   37.2450 C   0  0  0  0  0  0  0  0  0  0  0  0
   37.8090   24.8220   36.1830 C   0  0  0  0  0  0  0  0  0  0  0  0
   36.6980   26.3260   30.3690 H   0  0  0  0  0  0  0  0  0  0  0  0
   38.2870   22.4710   33.9120 H   0  0  0  0  0  0  0  0  0  0  0  0
   39.8700   23.1770   34.2200 H   0  0  0  0  0  0  0  0  0  0  0  0
   38.7720   21.0910   35.6380 H   0  0  0  0  0  0  0  0  0  0  0  0
   39.9750   22.2260   36.2990 H   0  0  0  0  0  0  0  0  0  0  0  0
   37.1030   22.6100   36.5900 H   0  0  0  0  0  0  0  0  0  0  0  0
   39.5620   24.1070   37.2570 H   0  0  0  0  0  0  0  0  0  0  0  0
   38.0110   24.2350   38.2330 H   0  0  0  0  0  0  0  0  0  0  0  0
   36.7160   24.8300   36.3570 H   0  0  0  0  0  0  0  0  0  0  0  0
   38.2090   25.8550   36.2480 H   0  0  0  0  0  0  0  0  0  0  0  0
   35.6720   28.6600   31.9090 C   0  0  0  0  0  0  0  0  0  0  0  0
   35.7690   29.4160   31.0830 H   0  0  0  0  0  0  0  0  0  0  0  0
   35.1560   27.7680   31.4970 H   0  0  0  0  0  0  0  0  0  0  0  0
   32.8450   29.8080   34.0450 C   0  0  0  0  0  0  0  0  0  0  0  0
   33.4970   30.5610   35.0320 C   0  0  0  0  0  0  0  0  0  0  0  0
   34.8920   30.6590   34.9430 C   0  0  0  0  0  0  0  0  0  0  0  0
   35.5330   30.0280   33.9210 N   0  0  0  0  0  0  0  0  0  0  0  0
   34.8560   29.3140   32.9960 C   0  0  0  0  0  0  0  0  0  0  0  0
   33.5410   29.2150   33.0690 N   0  0  0  0  0  0  0  0  0  0  0  0
   31.7650   29.7360   34.1190 H   0  0  0  0  0  0  0  0  0  0  0  0
   32.9920   31.0520   35.8280 H   0  0  0  0  0  0  0  0  0  0  0  0
   35.7090   31.4270   35.9240 C   0  0  2  0  0  3  0  0  0  0  0  0
   34.8810   32.1270   36.9510 C   0  0  0  0  0  3  0  0  0  0  0  0
   35.3460   32.0080   37.9590 H   0  0  0  0  0  0  0  0  0  0  0  0
   34.8690   33.5930   36.5300 C   0  0  0  0  0  3  0  0  0  0  0  0
   35.4970   34.2010   37.2060 H   0  0  0  0  0  0  0  0  0  0  0  0
   35.4420   33.6220   35.2700 O   0  0  0  0  0  0  0  0  0  0  0  0
   36.3640   32.6040   35.1930 C   0  0  0  0  0  3  0  0  0  0  0  0
   36.4840   32.3050   34.1100 H   0  0  0  0  0  0  0  0  0  0  0  0
  1  4  1  0  0  0  0
  1  3  1  0  0  0  0
  2  1  1  0  0  0  0
  4  8  1  0  0  0  0
  5  6  1  0  0  0  0
  5  4  2  0  0  0  0
  6  7  1  0  0  0  0
  7  9  1  0  0  0  0
  8  7  2  0  0  0  0
  9 14  1  0  0  0  0
 10  9  1  0  0  0  0
 10 11  1  0  0  0  0
 11 19  1  0  0  0  0
 11 12  1  0  0  0  0
 12 13  1  0  0  0  0
 13 21  1  0  0  0  0
 13 22  1  0  0  0  0
 14 24  1  0  0  0  0
 14 23  1  0  0  0  0
 14 13  1  0  0  0  0
 15  5  1  0  0  0  0
 16 10  1  0  0  0  0
 17 10  1  0  0  0  0
 18 11  1  0  0  0  0
 20 12  1  0  0  0  0
 25  1  1  0  0  0  0
 25 32  1  0  0  0  0
 26 25  1  0  0  0  0
 27 25  1  0  0  0  0
 28 34  1  0  0  0  0
 28 29  1  0  0  0  0
 29 35  1  0  0  0  0
 30 29  2  0  0  0  0
 31 30  1  0  0  0  0
 32 33  1  0  0  0  0
 32 31  2  0  0  0  0
 33 28  2  0  0  0  0
 36 30  1  6  0  0  0
 36 37  1  0  0  0  0
 37 38  1  0  0  0  0
 39 37  1  0  0  0  0
 39 40  1  0  0  0  0
 41 39  1  0  0  0  0
 42 41  1  0  0  0  0
 42 36  1  0  0  0  0
 43 42  1  0  0  0  0
M  END
>  <minimizedAffinity>
-5.65126228

$$$$

 OpenBabel03272506103D

 43 46  0  0  1  0  0  0  0  0999 V2000
   36.2640   28.2900   34.3580 C   0  0  0  0  0  0  0  0  0  0  0  0
   36.8760   29.0220   34.9290 H   0  0  0  0  0  0  0  0  0  0  0  0
   35.3470   28.1470   34.9800 H   0  0  0  0  0  0  0  0  0  0  0  0
   36.9890   26.9730   34.2760 C   0  0  0  0  0  0  0  0  0  0  0  0
   37.2020   26.3650   32.9820 C   0  0  0  0  0  0  0  0  0  0  0  0
   38.0670   24.8900   33.4480 S   0  0  0  0  0  0  0  0  0  0  0  0
   38.0380   25.2580   35.2890 C   0  0  0  0  0  0  0  0  0  0  0  0
   37.4530   26.3100   35.2860 N   0  0  0  0  0  0  0  0  0  0  0  0
   38.5600   24.5150   36.4190 N   0  0  0  0  0  0  0  0  0  0  0  0
   39.6850   23.6860   36.1720 C   0  0  0  0  0  0  0  0  0  0  0  0
   39.9640   22.6800   37.2370 C   0  0  0  0  0  0  0  0  0  0  0  0
   38.8970   22.5710   38.2140 N   0  0  0  0  0  0  0  0  0  0  0  0
   38.7160   23.9230   38.7350 C   0  0  0  0  0  0  0  0  0  0  0  0
   37.9080   24.6630   37.7080 C   0  0  0  0  0  0  0  0  0  0  0  0
   36.9030   26.7440   32.0540 H   0  0  0  0  0  0  0  0  0  0  0  0
   39.4440   23.0930   35.2410 H   0  0  0  0  0  0  0  0  0  0  0  0
   40.6150   24.2330   35.8920 H   0  0  0  0  0  0  0  0  0  0  0  0
   40.2300   21.6710   36.8160 H   0  0  0  0  0  0  0  0  0  0  0  0
   40.8570   23.0080   37.8110 H   0  0  0  0  0  0  0  0  0  0  0  0
   38.0330   22.3090   37.6880 H   0  0  0  0  0  0  0  0  0  0  0  0
   39.6860   24.4150   38.9400 H   0  0  0  0  0  0  0  0  0  0  0  0
   38.1090   23.8120   39.6630 H   0  0  0  0  0  0  0  0  0  0  0  0
   36.8790   24.2590   37.7050 H   0  0  0  0  0  0  0  0  0  0  0  0
   37.8900   25.7390   37.9780 H   0  0  0  0  0  0  0  0  0  0  0  0
   35.9180   28.8260   33.0330 C   0  0  0  0  0  0  0  0  0  0  0  0
   36.6750   29.6030   32.7400 H   0  0  0  0  0  0  0  0  0  0  0  0
   35.9410   28.0220   32.2700 H   0  0  0  0  0  0  0  0  0  0  0  0
   32.9290   30.8460   32.1060 C   0  0  0  0  0  0  0  0  0  0  0  0
   32.1200   30.7320   33.2470 C   0  0  0  0  0  0  0  0  0  0  0  0
   32.6190   29.9650   34.3090 C   0  0  0  0  0  0  0  0  0  0  0  0
   33.8400   29.3790   34.1820 N   0  0  0  0  0  0  0  0  0  0  0  0
   34.5790   29.5200   33.0600 C   0  0  0  0  0  0  0  0  0  0  0  0
   34.1210   30.2410   32.0530 N   0  0  0  0  0  0  0  0  0  0  0  0
   32.5380   31.4410   31.2870 H   0  0  0  0  0  0  0  0  0  0  0  0
   31.1670   31.1920   33.3410 H   0  0  0  0  0  0  0  0  0  0  0  0
   31.8640   29.7610   35.5770 C   0  0  2  0  0  3  0  0  0  0  0  0
   32.1110   28.4240   36.1940 C   0  0  0  0  0  3  0  0  0  0  0  0
   32.2440   28.5330   37.2980 H   0  0  0  0  0  0  0  0  0  0  0  0
   30.8700   27.5960   35.8770 C   0  0  0  0  0  3  0  0  0  0  0  0
   30.2530   27.4500   36.7830 H   0  0  0  0  0  0  0  0  0  0  0  0
   30.1400   28.3520   34.9770 O   0  0  0  0  0  0  0  0  0  0  0  0
   30.3700   29.6820   35.2440 C   0  0  0  0  0  3  0  0  0  0  0  0
   30.2020   30.2760   34.2990 H   0  0  0  0  0  0  0  0  0  0  0  0
  1  2  1  0  0  0  0
  1  3  1  0  0  0  0
  4  1  1  0  0  0  0
  4  8  1  0  0  0  0
  5  6  1  0  0  0  0
  5  4  2  0  0  0  0
  6  7  1  0  0  0  0
  7  9  1  0  0  0  0
  8  7  2  0  0  0  0
  9 14  1  0  0  0  0
 10  9  1  0  0  0  0
 10 11  1  0  0  0  0
 11 19  1  0  0  0  0
 11 12  1  0  0  0  0
 12 13  1  0  0  0  0
 13 21  1  0  0  0  0
 13 22  1  0  0  0  0
 14 24  1  0  0  0  0
 14 13  1  0  0  0  0
 15  5  1  0  0  0  0
 16 10  1  0  0  0  0
 17 10  1  0  0  0  0
 18 11  1  0  0  0  0
 20 12  1  0  0  0  0
 23 14  1  0  0  0  0
 25 32  1  0  0  0  0
 25  1  1  0  0  0  0
 26 25  1  0  0  0  0
 27 25  1  0  0  0  0
 28 29  1  0  0  0  0
 29 35  1  0  0  0  0
 29 30  2  0  0  0  0
 31 30  1  0  0  0  0
 32 31  2  0  0  0  0
 33 28  2  0  0  0  0
 33 32  1  0  0  0  0
 34 28  1  0  0  0  0
 36 30  1  6  0  0  0
 36 37  1  0  0  0  0
 37 38  1  0  0  0  0
 39 37  1  0  0  0  0
 39 40  1  0  0  0  0
 41 42  1  0  0  0  0
 41 39  1  0  0  0  0
 42 36  1  0  0  0  0
 43 42  1  0  0  0  0
M  END
>  <minimizedAffinity>
-5.63168001

$$$$

 OpenBabel03272506103D

 43 46  0  0  1  0  0  0  0  0999 V2000
   39.3580   26.5110   31.9800 C   0  0  0  0  0  0  0  0  0  0  0  0
   39.7050   25.5060   31.6570 H   0  0  0  0  0  0  0  0  0  0  0  0
   40.2530   27.1680   31.8580 H   0  0  0  0  0  0  0  0  0  0  0  0
   38.9920   26.4790   33.4400 C   0  0  0  0  0  0  0  0  0  0  0  0
   38.4410   27.6650   34.0550 C   0  0  0  0  0  0  0  0  0  0  0  0
   38.2010   27.0940   35.7160 S   0  0  0  0  0  0  0  0  0  0  0  0
   38.8570   25.3660   35.3920 C   0  0  0  0  0  0  0  0  0  0  0  0
   39.1280   25.4570   34.2240 N   0  0  0  0  0  0  0  0  0  0  0  0
   39.0080   24.2220   36.2710 N   0  0  0  0  0  0  0  0  0  0  0  0
   38.1060   24.1340   37.3630 C   0  0  0  0  0  0  0  0  0  0  0  0
   38.5100   23.1730   38.4290 C   0  0  0  0  0  0  0  0  0  0  0  0
   39.8660   22.6820   38.2720 N   0  0  0  0  0  0  0  0  0  0  0  0
   39.9120   22.1050   36.9320 C   0  0  0  0  0  0  0  0  0  0  0  0
   40.0560   23.2590   35.9830 C   0  0  0  0  0  0  0  0  0  0  0  0
   38.2560   28.5830   33.5910 H   0  0  0  0  0  0  0  0  0  0  0  0
   38.0980   25.1520   37.8510 H   0  0  0  0  0  0  0  0  0  0  0  0
   37.0410   23.9800   37.0750 H   0  0  0  0  0  0  0  0  0  0  0  0
   38.3470   23.5840   39.4630 H   0  0  0  0  0  0  0  0  0  0  0  0
   37.8610   22.2730   38.3610 H   0  0  0  0  0  0  0  0  0  0  0  0
   40.4920   23.5190   38.2850 H   0  0  0  0  0  0  0  0  0  0  0  0
   39.0120   21.4960   36.7180 H   0  0  0  0  0  0  0  0  0  0  0  0
   40.8410   21.4890   36.8980 H   0  0  0  0  0  0  0  0  0  0  0  0
   41.0670   23.6930   36.1000 H   0  0  0  0  0  0  0  0  0  0  0  0
   39.9230   22.8860   34.9460 H   0  0  0  0  0  0  0  0  0  0  0  0
   38.2500   26.9740   31.1310 C   0  0  0  0  0  0  0  0  0  0  0  0
   37.8240   27.9200   31.5620 H   0  0  0  0  0  0  0  0  0  0  0  0
   38.6110   27.1960   30.1070 H   0  0  0  0  0  0  0  0  0  0  0  0
   34.8790   25.3970   30.9700 C   0  0  0  0  0  0  0  0  0  0  0  0
   35.1760   24.0320   31.0910 C   0  0  0  0  0  0  0  0  0  0  0  0
   36.5260   23.6820   31.2270 C   0  0  0  0  0  0  0  0  0  0  0  0
   37.4650   24.6680   31.2320 N   0  0  0  0  0  0  0  0  0  0  0  0
   37.1250   25.9690   31.1110 C   0  0  0  0  0  0  0  0  0  0  0  0
   35.8550   26.3120   30.9840 N   0  0  0  0  0  0  0  0  0  0  0  0
   33.8320   25.6630   30.8660 H   0  0  0  0  0  0  0  0  0  0  0  0
   34.4390   23.2660   31.0870 H   0  0  0  0  0  0  0  0  0  0  0  0
   36.9820   22.2700   31.3640 C   0  0  2  0  0  3  0  0  0  0  0  0
   35.9070   21.3560   31.8540 C   0  0  0  0  0  3  0  0  0  0  0  0
   35.9270   20.4010   31.2750 H   0  0  0  0  0  0  0  0  0  0  0  0
   36.2280   21.1050   33.3240 C   0  0  0  0  0  3  0  0  0  0  0  0
   36.6100   20.0790   33.4730 H   0  0  0  0  0  0  0  0  0  0  0  0
   37.2430   21.9910   33.6380 O   0  0  0  0  0  0  0  0  0  0  0  0
   37.9990   22.1990   32.5080 C   0  0  0  0  0  3  0  0  0  0  0  0
   38.4940   23.2110   32.5840 H   0  0  0  0  0  0  0  0  0  0  0  0
  1  4  1  0  0  0  0
  2  1  1  0  0  0  0
  3  1  1  0  0  0  0
  4  5  2  0  0  0  0
  4  8  1  0  0  0  0
  5  6  1  0  0  0  0
  7  6  1  0  0  0  0
  7  9  1  0  0  0  0
  8  7  2  0  0  0  0
  9 10  1  0  0  0  0
 10 16  1  0  0  0  0
 10 11  1  0  0  0  0
 11 18  1  0  0  0  0
 12 20  1  0  0  0  0
 12 11  1  0  0  0  0
 13 12  1  0  0  0  0
 14 23  1  0  0  0  0
 14  9  1  0  0  0  0
 14 13  1  0  0  0  0
 15  5  1  0  0  0  0
 17 10  1  0  0  0  0
 19 11  1  0  0  0  0
 21 13  1  0  0  0  0
 22 13  1  0  0  0  0
 24 14  1  0  0  0  0
 25 26  1  0  0  0  0
 25  1  1  0  0  0  0
 27 25  1  0  0  0  0
 28 33  2  0  0  0  0
 28 29  1  0  0  0  0
 29 30  2  0  0  0  0
 30 31  1  0  0  0  0
 32 25  1  0  0  0  0
 32 31  2  0  0  0  0
 33 32  1  0  0  0  0
 34 28  1  0  0  0  0
 35 29  1  0  0  0  0
 36 30  1  1  0  0  0
 36 37  1  0  0  0  0
 36 42  1  0  0  0  0
 37 39  1  0  0  0  0
 38 37  1  0  0  0  0
 39 40  1  0  0  0  0
 39 41  1  0  0  0  0
 42 43  1  0  0  0  0
 42 41  1  0  0  0  0
M  END
>  <minimizedAffinity>
-5.62435293

$$$$

 OpenBabel03272506103D

 43 46  0  0  1  0  0  0  0  0999 V2000
   37.7400   26.9510   34.5980 C   0  0  0  0  0  0  0  0  0  0  0  0
   37.2750   25.9420   34.6510 H   0  0  0  0  0  0  0  0  0  0  0  0
   37.9340   27.2240   35.6640 H   0  0  0  0  0  0  0  0  0  0  0  0
   36.7570   27.9370   34.0280 C   0  0  0  0  0  0  0  0  0  0  0  0
   36.3050   27.7750   32.6650 C   0  0  0  0  0  0  0  0  0  0  0  0
   35.2030   29.1550   32.5160 S   0  0  0  0  0  0  0  0  0  0  0  0
   35.4750   29.7730   34.2670 C   0  0  0  0  0  0  0  0  0  0  0  0
   36.2610   28.9520   34.6620 N   0  0  0  0  0  0  0  0  0  0  0  0
   34.9190   30.9090   34.9760 N   0  0  0  0  0  0  0  0  0  0  0  0
   33.6300   31.3430   34.5710 C   0  0  0  0  0  0  0  0  0  0  0  0
   33.2500   32.7020   35.0530 C   0  0  0  0  0  0  0  0  0  0  0  0
   34.3570   33.4290   35.6460 N   0  0  0  0  0  0  0  0  0  0  0  0
   34.8590   32.5620   36.7090 C   0  0  0  0  0  0  0  0  0  0  0  0
   35.7030   31.5180   36.0350 C   0  0  0  0  0  0  0  0  0  0  0  0
   36.5880   27.0230   31.9960 H   0  0  0  0  0  0  0  0  0  0  0  0
   33.6580   31.4120   33.4440 H   0  0  0  0  0  0  0  0  0  0  0  0
   32.8110   30.6130   34.7620 H   0  0  0  0  0  0  0  0  0  0  0  0
   32.7450   33.3160   34.2570 H   0  0  0  0  0  0  0  0  0  0  0  0
   32.5000   32.5940   35.8670 H   0  0  0  0  0  0  0  0  0  0  0  0
   35.0980   33.5010   34.9120 H   0  0  0  0  0  0  0  0  0  0  0  0
   34.0340   32.1170   37.2970 H   0  0  0  0  0  0  0  0  0  0  0  0
   35.5140   33.2050   37.3420 H   0  0  0  0  0  0  0  0  0  0  0  0
   36.6230   31.9980   35.6510 H   0  0  0  0  0  0  0  0  0  0  0  0
   35.9660   30.7390   36.7800 H   0  0  0  0  0  0  0  0  0  0  0  0
   38.9960   26.9020   33.8340 C   0  0  0  0  0  0  0  0  0  0  0  0
   38.7780   26.5580   32.7870 H   0  0  0  0  0  0  0  0  0  0  0  0
   39.4540   27.9110   33.7750 H   0  0  0  0  0  0  0  0  0  0  0  0
   42.0900   25.1180   34.8910 C   0  0  0  0  0  0  0  0  0  0  0  0
   41.5790   23.9870   35.5450 C   0  0  0  0  0  0  0  0  0  0  0  0
   40.1850   23.8610   35.6080 C   0  0  0  0  0  0  0  0  0  0  0  0
   39.4100   24.8260   35.0430 N   0  0  0  0  0  0  0  0  0  0  0  0
   39.9530   25.8970   34.4250 C   0  0  0  0  0  0  0  0  0  0  0  0
   41.2660   26.0270   34.3580 N   0  0  0  0  0  0  0  0  0  0  0  0
   43.1700   25.2100   34.8440 H   0  0  0  0  0  0  0  0  0  0  0  0
   42.1890   23.2360   35.9850 H   0  0  0  0  0  0  0  0  0  0  0  0
   39.5110   22.7100   36.2730 C   0  0  2  0  0  3  0  0  0  0  0  0
   38.0580   22.9510   36.5220 C   0  0  0  0  0  3  0  0  0  0  0  0
   37.4710   22.0360   36.2650 H   0  0  0  0  0  0  0  0  0  0  0  0
   37.9500   23.2640   38.0110 C   0  0  0  0  0  3  0  0  0  0  0  0
   37.4900   22.4200   38.5570 H   0  0  0  0  0  0  0  0  0  0  0  0
   39.2520   23.4050   38.4560 O   0  0  0  0  0  0  0  0  0  0  0  0
   40.0570   22.5870   37.6990 C   0  0  0  0  0  3  0  0  0  0  0  0
   41.1050   23.0090   37.6970 H   0  0  0  0  0  0  0  0  0  0  0  0
  1  2  1  0  0  0  0
  1  3  1  0  0  0  0
  4  1  1  0  0  0  0
  4  8  1  0  0  0  0
  5  4  2  0  0  0  0
  6  5  1  0  0  0  0
  6  7  1  0  0  0  0
  7  8  2  0  0  0  0
  7  9  1  0  0  0  0
  9 14  1  0  0  0  0
 10 17  1  0  0  0  0
 10  9  1  0  0  0  0
 10 11  1  0  0  0  0
 11 12  1  0  0  0  0
 11 19  1  0  0  0  0
 12 13  1  0  0  0  0
 13 21  1  0  0  0  0
 13 22  1  0  0  0  0
 14 13  1  0  0  0  0
 14 24  1  0  0  0  0
 15  5  1  0  0  0  0
 16 10  1  0  0  0  0
 18 11  1  0  0  0  0
 20 12  1  0  0  0  0
 23 14  1  0  0  0  0
 25 32  1  0  0  0  0
 25  1  1  0  0  0  0
 26 25  1  0  0  0  0
 27 25  1  0  0  0  0
 28 29  1  0  0  0  0
 29 30  2  0  0  0  0
 29 35  1  0  0  0  0
 31 30  1  0  0  0  0
 32 31  2  0  0  0  0
 33 32  1  0  0  0  0
 33 28  2  0  0  0  0
 34 28  1  0  0  0  0
 36 30  1  1  0  0  0
 36 37  1  0  0  0  0
 36 42  1  0  0  0  0
 37 39  1  0  0  0  0
 38 37  1  0  0  0  0
 39 41  1  0  0  0  0
 39 40  1  0  0  0  0
 42 41  1  0  0  0  0
 43 42  1  0  0  0  0
M  END
>  <minimizedAffinity>
-5.4097333

$$$$

 OpenBabel03272506103D

 43 46  0  0  1  0  0  0  0  0999 V2000
   37.3840   25.9960   31.1730 C   0  0  0  0  0  0  0  0  0  0  0  0
   36.9610   26.4840   30.2680 H   0  0  0  0  0  0  0  0  0  0  0  0
   38.2940   26.5970   31.4140 H   0  0  0  0  0  0  0  0  0  0  0  0
   37.8170   24.5940   30.8420 C   0  0  0  0  0  0  0  0  0  0  0  0
   39.0130   24.3920   30.0560 C   0  0  0  0  0  0  0  0  0  0  0  0
   39.0540   22.6220   29.9650 S   0  0  0  0  0  0  0  0  0  0  0  0
   37.4910   22.3700   30.9720 C   0  0  0  0  0  0  0  0  0  0  0  0
   37.1990   23.5140   31.2030 N   0  0  0  0  0  0  0  0  0  0  0  0
   36.8000   21.1600   31.3770 N   0  0  0  0  0  0  0  0  0  0  0  0
   37.5950   19.9950   31.5330 C   0  0  0  0  0  0  0  0  0  0  0  0
   36.8260   18.7190   31.5890 C   0  0  0  0  0  0  0  0  0  0  0  0
   35.4290   18.8780   31.2340 N   0  0  0  0  0  0  0  0  0  0  0  0
   34.9160   19.8970   32.1450 C   0  0  0  0  0  0  0  0  0  0  0  0
   35.3650   21.2180   31.5910 C   0  0  0  0  0  0  0  0  0  0  0  0
   39.6440   25.1320   29.6730 H   0  0  0  0  0  0  0  0  0  0  0  0
   38.2420   19.9260   30.6090 H   0  0  0  0  0  0  0  0  0  0  0  0
   38.3380   20.0450   32.3620 H   0  0  0  0  0  0  0  0  0  0  0  0
   37.3060   17.9010   30.9830 H   0  0  0  0  0  0  0  0  0  0  0  0
   36.8240   18.3510   32.6380 H   0  0  0  0  0  0  0  0  0  0  0  0
   35.4060   19.2700   30.2660 H   0  0  0  0  0  0  0  0  0  0  0  0
   35.2690   19.7350   33.1810 H   0  0  0  0  0  0  0  0  0  0  0  0
   33.8050   19.8340   32.0770 H   0  0  0  0  0  0  0  0  0  0  0  0
   34.8110   21.4200   30.6560 H   0  0  0  0  0  0  0  0  0  0  0  0
   35.1470   22.0100   32.3380 H   0  0  0  0  0  0  0  0  0  0  0  0
   36.4200   26.0400   32.2830 C   0  0  0  0  0  0  0  0  0  0  0  0
   35.6920   26.8780   32.1070 H   0  0  0  0  0  0  0  0  0  0  0  0
   35.8450   25.0930   32.3370 H   0  0  0  0  0  0  0  0  0  0  0  0
   37.7560   27.7790   35.2940 C   0  0  0  0  0  0  0  0  0  0  0  0
   38.4060   26.7430   35.9790 C   0  0  0  0  0  0  0  0  0  0  0  0
   38.3730   25.4710   35.3930 C   0  0  0  0  0  0  0  0  0  0  0  0
   37.7220   25.3070   34.2100 N   0  0  0  0  0  0  0  0  0  0  0  0
   37.1100   26.3400   33.5910 C   0  0  0  0  0  0  0  0  0  0  0  0
   37.1350   27.5440   34.1330 N   0  0  0  0  0  0  0  0  0  0  0  0
   37.7850   28.7630   35.7520 H   0  0  0  0  0  0  0  0  0  0  0  0
   38.9140   26.8760   36.9040 H   0  0  0  0  0  0  0  0  0  0  0  0
   39.0230   24.2820   36.0140 C   0  0  2  0  0  3  0  0  0  0  0  0
   38.8310   23.0320   35.2190 C   0  0  0  0  0  3  0  0  0  0  0  0
   39.7880   22.4580   35.1770 H   0  0  0  0  0  0  0  0  0  0  0  0
   37.7580   22.2410   35.9610 C   0  0  0  0  0  3  0  0  0  0  0  0
   38.1980   21.3670   36.4740 H   0  0  0  0  0  0  0  0  0  0  0  0
   37.2640   23.1020   36.9250 O   0  0  0  0  0  0  0  0  0  0  0  0
   38.2790   23.9460   37.3110 C   0  0  0  0  0  3  0  0  0  0  0  0
   37.8260   24.9040   37.6990 H   0  0  0  0  0  0  0  0  0  0  0  0
  1  3  1  0  0  0  0
  1 25  1  0  0  0  0
  2  1  1  0  0  0  0
  4  1  1  0  0  0  0
  4  8  1  0  0  0  0
  5  4  2  0  0  0  0
  6  5  1  0  0  0  0
  6  7  1  0  0  0  0
  7  8  2  0  0  0  0
  7  9  1  0  0  0  0
  9 10  1  0  0  0  0
  9 14  1  0  0  0  0
 10 11  1  0  0  0  0
 10 17  1  0  0  0  0
 11 19  1  0  0  0  0
 12 11  1  0  0  0  0
 12 13  1  0  0  0  0
 13 21  1  0  0  0  0
 14 13  1  0  0  0  0
 14 24  1  0  0  0  0
 15  5  1  0  0  0  0
 16 10  1  0  0  0  0
 18 11  1  0  0  0  0
 20 12  1  0  0  0  0
 22 13  1  0  0  0  0
 23 14  1  0  0  0  0
 25 27  1  0  0  0  0
 25 32  1  0  0  0  0
 26 25  1  0  0  0  0
 28 34  1  0  0  0  0
 28 29  1  0  0  0  0
 29 35  1  0  0  0  0
 30 29  2  0  0  0  0
 31 30  1  0  0  0  0
 32 33  1  0  0  0  0
 32 31  2  0  0  0  0
 33 28  2  0  0  0  0
 36 30  1  6  0  0  0
 36 42  1  0  0  0  0
 37 39  1  0  0  0  0
 37 36  1  0  0  0  0
 38 37  1  0  0  0  0
 39 40  1  0  0  0  0
 39 41  1  0  0  0  0
 41 42  1  0  0  0  0
 42 43  1  0  0  0  0
M  END
>  <minimizedAffinity>
-5.38031912

$$$$

 OpenBabel03272506103D

 43 46  0  0  1  0  0  0  0  0999 V2000
   39.4160   27.0920   32.6350 C   0  0  0  0  0  0  0  0  0  0  0  0
   39.4530   28.1180   32.2090 H   0  0  0  0  0  0  0  0  0  0  0  0
   40.2840   26.5660   32.1690 H   0  0  0  0  0  0  0  0  0  0  0  0
   38.1530   26.4020   32.1950 C   0  0  0  0  0  0  0  0  0  0  0  0
   37.1000   27.1810   31.5850 C   0  0  0  0  0  0  0  0  0  0  0  0
   35.8930   25.9200   31.2750 S   0  0  0  0  0  0  0  0  0  0  0  0
   36.9270   24.5250   31.9890 C   0  0  0  0  0  0  0  0  0  0  0  0
   37.9100   25.1360   32.3170 N   0  0  0  0  0  0  0  0  0  0  0  0
   36.6540   23.1070   32.1240 N   0  0  0  0  0  0  0  0  0  0  0  0
   35.7740   22.5350   31.1700 C   0  0  0  0  0  0  0  0  0  0  0  0
   35.2370   21.1940   31.5430 C   0  0  0  0  0  0  0  0  0  0  0  0
   35.5220   20.8270   32.9170 N   0  0  0  0  0  0  0  0  0  0  0  0
   36.9740   20.9200   33.0450 C   0  0  0  0  0  0  0  0  0  0  0  0
   37.2870   22.3790   33.2080 C   0  0  0  0  0  0  0  0  0  0  0  0
   37.1070   28.2100   31.4010 H   0  0  0  0  0  0  0  0  0  0  0  0
   34.8780   23.2210   31.1120 H   0  0  0  0  0  0  0  0  0  0  0  0
   36.1590   22.5290   30.1240 H   0  0  0  0  0  0  0  0  0  0  0  0
   34.1390   21.0930   31.3170 H   0  0  0  0  0  0  0  0  0  0  0  0
   35.7420   20.4240   30.9210 H   0  0  0  0  0  0  0  0  0  0  0  0
   35.0970   21.5660   33.5210 H   0  0  0  0  0  0  0  0  0  0  0  0
   37.4900   20.4750   32.1730 H   0  0  0  0  0  0  0  0  0  0  0  0
   37.2300   20.3850   33.9890 H   0  0  0  0  0  0  0  0  0  0  0  0
   36.9290   22.7120   34.2010 H   0  0  0  0  0  0  0  0  0  0  0  0
   38.3860   22.5160   33.1380 H   0  0  0  0  0  0  0  0  0  0  0  0
   39.5550   27.1340   34.0990 C   0  0  0  0  0  0  0  0  0  0  0  0
   40.1020   28.0710   34.3910 H   0  0  0  0  0  0  0  0  0  0  0  0
   38.5580   27.1550   34.5830 H   0  0  0  0  0  0  0  0  0  0  0  0
   42.4110   24.8990   34.9470 C   0  0  0  0  0  0  0  0  0  0  0  0
   41.7720   23.8090   35.5560 C   0  0  0  0  0  0  0  0  0  0  0  0
   40.3760   23.8640   35.6620 C   0  0  0  0  0  0  0  0  0  0  0  0
   39.7210   24.9550   35.1780 N   0  0  0  0  0  0  0  0  0  0  0  0
   40.3850   25.9790   34.5990 C   0  0  0  0  0  0  0  0  0  0  0  0
   41.7010   25.9380   34.4930 N   0  0  0  0  0  0  0  0  0  0  0  0
   43.4920   24.8500   34.8670 H   0  0  0  0  0  0  0  0  0  0  0  0
   42.2880   22.9590   35.9330 H   0  0  0  0  0  0  0  0  0  0  0  0
   39.5720   22.7760   36.2860 C   0  0  2  0  0  3  0  0  0  0  0  0
   38.2160   23.2270   36.7190 C   0  0  0  0  0  3  0  0  0  0  0  0
   37.4540   22.4580   36.4440 H   0  0  0  0  0  0  0  0  0  0  0  0
   38.3060   23.3840   38.2330 C   0  0  0  0  0  3  0  0  0  0  0  0
   37.7560   22.5730   38.7450 H   0  0  0  0  0  0  0  0  0  0  0  0
   39.6490   23.2540   38.5410 O   0  0  0  0  0  0  0  0  0  0  0  0
   40.2200   22.4030   37.6240 C   0  0  0  0  0  3  0  0  0  0  0  0
   41.3210   22.6410   37.5450 H   0  0  0  0  0  0  0  0  0  0  0  0
  1 25  1  0  0  0  0
  2  1  1  0  0  0  0
  3  1  1  0  0  0  0
  4  8  1  0  0  0  0
  4  1  1  0  0  0  0
  5  4  2  0  0  0  0
  6  5  1  0  0  0  0
  6  7  1  0  0  0  0
  7  9  1  0  0  0  0
  7  8  2  0  0  0  0
  9 14  1  0  0  0  0
 10 11  1  0  0  0  0
 10  9  1  0  0  0  0
 11 12  1  0  0  0  0
 12 13  1  0  0  0  0
 12 20  1  0  0  0  0
 13 14  1  0  0  0  0
 13 22  1  0  0  0  0
 14 23  1  0  0  0  0
 15  5  1  0  0  0  0
 16 10  1  0  0  0  0
 17 10  1  0  0  0  0
 18 11  1  0  0  0  0
 19 11  1  0  0  0  0
 21 13  1  0  0  0  0
 24 14  1  0  0  0  0
 25 26  1  0  0  0  0
 25 27  1  0  0  0  0
 25 32  1  0  0  0  0
 28 29  1  0  0  0  0
 29 30  2  0  0  0  0
 29 35  1  0  0  0  0
 31 30  1  0  0  0  0
 32 31  2  0  0  0  0
 33 32  1  0  0  0  0
 33 28  2  0  0  0  0
 34 28  1  0  0  0  0
 36 30  1  1  0  0  0
 36 37  1  0  0  0  0
 36 42  1  0  0  0  0
 37 39  1  0  0  0  0
 38 37  1  0  0  0  0
 39 41  1  0  0  0  0
 39 40  1  0  0  0  0
 42 41  1  0  0  0  0
 43 42  1  0  0  0  0
M  END
>  <minimizedAffinity>
-5.37033892

$$$$

 OpenBabel03272506103D

 43 46  0  0  1  0  0  0  0  0999 V2000
   35.9290   23.1170   31.9230 C   0  0  0  0  0  0  0  0  0  0  0  0
   35.2880   23.6140   32.6830 H   0  0  0  0  0  0  0  0  0  0  0  0
   35.3210   22.2480   31.5710 H   0  0  0  0  0  0  0  0  0  0  0  0
   37.1770   22.5860   32.5770 C   0  0  0  0  0  0  0  0  0  0  0  0
   38.0520   21.7170   31.8240 C   0  0  0  0  0  0  0  0  0  0  0  0
   39.3160   21.4000   33.0250 S   0  0  0  0  0  0  0  0  0  0  0  0
   38.5330   22.4510   34.3690 C   0  0  0  0  0  0  0  0  0  0  0  0
   37.5530   22.8410   33.7900 N   0  0  0  0  0  0  0  0  0  0  0  0
   38.9560   22.7360   35.7270 N   0  0  0  0  0  0  0  0  0  0  0  0
   40.3510   22.6990   35.9800 C   0  0  0  0  0  0  0  0  0  0  0  0
   40.7220   22.6340   37.4230 C   0  0  0  0  0  0  0  0  0  0  0  0
   39.5890   22.3790   38.2930 N   0  0  0  0  0  0  0  0  0  0  0  0
   38.6300   23.4390   37.9930 C   0  0  0  0  0  0  0  0  0  0  0  0
   37.9410   23.0340   36.7220 C   0  0  0  0  0  0  0  0  0  0  0  0
   37.9220   21.3980   30.8370 H   0  0  0  0  0  0  0  0  0  0  0  0
   40.7320   21.7400   35.5200 H   0  0  0  0  0  0  0  0  0  0  0  0
   40.9410   23.4850   35.4560 H   0  0  0  0  0  0  0  0  0  0  0  0
   41.5540   21.9040   37.6210 H   0  0  0  0  0  0  0  0  0  0  0  0
   41.1150   23.6260   37.7340 H   0  0  0  0  0  0  0  0  0  0  0  0
   39.1720   21.4710   37.9860 H   0  0  0  0  0  0  0  0  0  0  0  0
   39.1250   24.4250   37.9060 H   0  0  0  0  0  0  0  0  0  0  0  0
   37.8900   23.4240   38.8270 H   0  0  0  0  0  0  0  0  0  0  0  0
   37.2920   22.1630   36.9300 H   0  0  0  0  0  0  0  0  0  0  0  0
   37.3280   23.8860   36.3630 H   0  0  0  0  0  0  0  0  0  0  0  0
   36.2220   24.0350   30.8120 C   0  0  0  0  0  0  0  0  0  0  0  0
   37.1450   23.6830   30.2760 H   0  0  0  0  0  0  0  0  0  0  0  0
   35.3860   24.0440   30.0840 H   0  0  0  0  0  0  0  0  0  0  0  0
   35.8990   27.5780   31.9170 C   0  0  0  0  0  0  0  0  0  0  0  0
   37.2180   27.9110   32.2550 C   0  0  0  0  0  0  0  0  0  0  0  0
   38.1900   26.9140   32.0960 C   0  0  0  0  0  0  0  0  0  0  0  0
   37.8110   25.6930   31.6310 N   0  0  0  0  0  0  0  0  0  0  0  0
   36.5240   25.4230   31.3200 C   0  0  0  0  0  0  0  0  0  0  0  0
   35.6000   26.3550   31.4640 N   0  0  0  0  0  0  0  0  0  0  0  0
   35.1510   28.3540   32.0410 H   0  0  0  0  0  0  0  0  0  0  0  0
   37.5090   28.8670   32.6180 H   0  0  0  0  0  0  0  0  0  0  0  0
   39.6280   27.1340   32.4180 C   0  0  2  0  0  3  0  0  0  0  0  0
   40.4970   25.9860   32.0190 C   0  0  0  0  0  3  0  0  0  0  0  0
   41.4340   26.3650   31.5440 H   0  0  0  0  0  0  0  0  0  0  0  0
   40.8080   25.2460   33.3150 C   0  0  0  0  0  3  0  0  0  0  0  0
   41.8580   25.4100   33.6190 H   0  0  0  0  0  0  0  0  0  0  0  0
   39.9890   25.8140   34.2740 O   0  0  0  0  0  0  0  0  0  0  0  0
   39.7890   27.1340   33.9410 C   0  0  0  0  0  3  0  0  0  0  0  0
   38.8080   27.4750   34.3850 H   0  0  0  0  0  0  0  0  0  0  0  0
  1  4  1  0  0  0  0
  1  2  1  0  0  0  0
  3  1  1  0  0  0  0
  4  8  1  0  0  0  0
  5  4  2  0  0  0  0
  5  6  1  0  0  0  0
  6  7  1  0  0  0  0
  7  9  1  0  0  0  0
  8  7  2  0  0  0  0
  9 10  1  0  0  0  0
  9 14  1  0  0  0  0
 10 11  1  0  0  0  0
 11 18  1  0  0  0  0
 11 19  1  0  0  0  0
 11 12  1  0  0  0  0
 13 12  1  0  0  0  0
 13 22  1  0  0  0  0
 14 23  1  0  0  0  0
 14 13  1  0  0  0  0
 15  5  1  0  0  0  0
 16 10  1  0  0  0  0
 17 10  1  0  0  0  0
 20 12  1  0  0  0  0
 21 13  1  0  0  0  0
 24 14  1  0  0  0  0
 25 32  1  0  0  0  0
 25  1  1  0  0  0  0
 26 25  1  0  0  0  0
 27 25  1  0  0  0  0
 28 34  1  0  0  0  0
 28 29  1  0  0  0  0
 29 35  1  0  0  0  0
 30 29  2  0  0  0  0
 31 30  1  0  0  0  0
 32 33  1  0  0  0  0
 32 31  2  0  0  0  0
 33 28  2  0  0  0  0
 36 30  1  1  0  0  0
 36 42  1  0  0  0  0
 37 36  1  0  0  0  0
 37 39  1  0  0  0  0
 38 37  1  0  0  0  0
 39 40  1  0  0  0  0
 39 41  1  0  0  0  0
 42 41  1  0  0  0  0
 42 43  1  0  0  0  0
M  END
>  <minimizedAffinity>
-5.34434605

$$$$
