
 OpenBabel03272501053D

 29 31  0  0  1  0  0  0  0  0999 V2000
   38.7880   32.2950   47.8190 C   0  0  2  0  0  0  0  0  0  0  0  0
   37.9210   32.7110   49.0290 C   0  0  2  0  0  0  0  0  0  0  0  0
   38.9200   33.4510   49.8220 C   0  0  0  0  0  0  0  0  0  0  0  0
   39.6780   34.1750   48.9090 O   0  0  0  0  0  0  0  0  0  0  0  0
   39.5430   33.6220   47.6660 C   0  0  0  0  0  0  0  0  0  0  0  0
   39.4810   31.5030   48.0980 H   0  0  0  0  0  0  0  0  0  0  0  0
   37.1980   33.4430   48.5620 H   0  0  0  0  0  0  0  0  0  0  0  0
   39.5710   32.7700   50.4250 H   0  0  0  0  0  0  0  0  0  0  0  0
   38.4300   34.1590   50.5240 H   0  0  0  0  0  0  0  0  0  0  0  0
   38.9280   34.3390   47.0590 H   0  0  0  0  0  0  0  0  0  0  0  0
   40.5130   33.4720   47.1820 H   0  0  0  0  0  0  0  0  0  0  0  0
   37.2660   29.7120   51.2380 C   0  0  0  0  0  0  0  0  0  0  0  0
   37.9440   30.8170   50.6680 C   0  0  0  0  0  0  0  0  0  0  0  0
   37.2870   31.5830   49.6690 C   0  0  0  0  0  0  0  0  0  0  0  0
   36.0190   31.1910   49.3160 N   0  0  0  0  0  0  0  0  0  0  0  0
   35.4070   30.1450   49.8690 C   0  0  0  0  0  0  0  0  0  0  0  0
   36.0120   29.3960   50.8280 N   0  0  0  0  0  0  0  0  0  0  0  0
   37.7460   29.1140   52.0010 H   0  0  0  0  0  0  0  0  0  0  0  0
   38.9380   31.0550   51.0060 H   0  0  0  0  0  0  0  0  0  0  0  0
   34.4090   29.9700   49.4780 H   0  0  0  0  0  0  0  0  0  0  0  0
   37.9960   32.0540   46.7160 O   0  0  0  0  0  0  0  0  0  0  0  0
   38.0520   30.7880   46.2080 C   0  0  2  0  0  0  0  0  0  0  0  0
   39.4410   30.6650   45.5640 C   0  0  0  0  0  0  0  0  0  0  0  0
   39.8240   31.6670   45.2620 H   0  0  0  0  0  0  0  0  0  0  0  0
   39.1770   29.8750   44.3220 C   0  0  0  0  0  0  0  0  0  0  0  0
   39.6780   28.8830   44.3630 H   0  0  0  0  0  0  0  0  0  0  0  0
   37.8180   29.7270   44.1490 O   0  0  0  0  0  0  0  0  0  0  0  0
   37.1730   30.5730   45.0310 C   0  0  0  0  0  0  0  0  0  0  0  0
   36.2410   30.0190   45.3350 H   0  0  0  0  0  0  0  0  0  0  0  0
  1  6  1  1  0  0  0
  1  2  1  0  0  0  0
  2  7  1  6  0  0  0
  2 14  1  0  0  0  0
  2  3  1  0  0  0  0
  3  8  1  0  0  0  0
  3  9  1  0  0  0  0
  4  3  1  0  0  0  0
  5  1  1  0  0  0  0
  5  4  1  0  0  0  0
 10  5  1  0  0  0  0
 11  5  1  0  0  0  0
 12 18  1  0  0  0  0
 13 19  1  0  0  0  0
 13 12  2  0  0  0  0
 14 13  1  0  0  0  0
 15 14  2  0  0  0  0
 15 16  1  0  0  0  0
 16 17  2  0  0  0  0
 17 12  1  0  0  0  0
 20 16  1  0  0  0  0
 21  1  1  0  0  0  0
 22 21  1  6  0  0  0
 23 22  1  0  0  0  0
 24 23  1  0  0  0  0
 25 26  1  0  0  0  0
 25 23  1  0  0  0  0
 27 25  1  0  0  0  0
 27 28  1  0  0  0  0
 28 29  1  0  0  0  0
 28 22  1  0  0  0  0
M  END
>  <minimizedAffinity>
-5.13948488

>  <minimizedRMSD>
1.9933852

$$$$
