
 OpenBabel03272500193D

 33 35  0  0  1  0  0  0  0  0999 V2000
   35.2990   29.2770   50.6200 C   0  0  0  0  0  0  0  0  0  0  0  0
   36.4480   29.9400   50.1140 C   0  0  0  0  0  0  0  0  0  0  0  0
   36.6790   29.9600   48.7420 C   0  0  0  0  0  0  0  0  0  0  0  0
   35.7480   29.3170   47.9650 N   0  0  0  0  0  0  0  0  0  0  0  0
   34.6880   28.7050   48.4360 C   0  0  0  0  0  0  0  0  0  0  0  0
   34.4490   28.6760   49.7500 N   0  0  0  0  0  0  0  0  0  0  0  0
   35.1230   29.2650   51.6980 H   0  0  0  0  0  0  0  0  0  0  0  0
   33.0890   30.5640   46.6570 Cl  0  0  0  0  0  0  0  0  0  0  0  0
   32.9660   28.8070   46.6390 C   0  0  0  0  0  0  0  0  0  0  0  0
   33.7560   28.0480   47.5080 C   0  0  0  0  0  0  0  0  0  0  0  0
   33.6940   26.6610   47.5300 C   0  0  0  0  0  0  0  0  0  0  0  0
   32.8000   26.0610   46.6380 C   0  0  0  0  0  0  0  0  0  0  0  0
   32.0160   26.7850   45.7790 C   0  0  0  0  0  0  0  0  0  0  0  0
   30.9360   25.9260   44.7080 Cl  0  0  0  0  0  0  0  0  0  0  0  0
   32.1090   28.1740   45.7880 C   0  0  0  0  0  0  0  0  0  0  0  0
   34.3050   26.0800   48.2020 H   0  0  0  0  0  0  0  0  0  0  0  0
   32.7910   24.9810   46.6970 H   0  0  0  0  0  0  0  0  0  0  0  0
   31.2660   28.9690   44.8620 C   0  0  0  0  0  0  0  0  0  0  0  0
   30.2950   28.1630   44.2660 F   0  0  0  0  0  0  0  0  0  0  0  0
   31.9900   29.6260   43.9210 F   0  0  0  0  0  0  0  0  0  0  0  0
   30.5550   29.9190   45.5950 F   0  0  0  0  0  0  0  0  0  0  0  0
   37.8390   30.6240   48.1670 C   0  0  2  0  0  3  0  0  0  0  0  0
   37.7540   32.1260   48.0490 C   0  0  0  0  0  3  0  0  0  0  0  0
   36.7280   32.3710   47.7610 H   0  0  0  0  0  0  0  0  0  0  0  0
   38.7300   32.3610   46.8850 C   0  0  0  0  0  3  0  0  0  0  0  0
   39.7690   32.3910   47.3000 H   0  0  0  0  0  0  0  0  0  0  0  0
   38.6760   31.2440   46.0960 O   0  0  0  0  0  0  0  0  0  0  0  0
   37.7970   30.3500   46.6470 C   0  0  0  0  0  3  0  0  0  0  0  0
   36.7740   30.6380   46.3280 H   0  0  0  0  0  0  0  0  0  0  0  0
   37.3740   30.5950   51.0780 C   0  0  0  0  0  0  0  0  0  0  0  0
   38.7010   30.4130   50.7260 F   0  0  0  0  0  0  0  0  0  0  0  0
   37.0830   31.9360   51.1480 F   0  0  0  0  0  0  0  0  0  0  0  0
   37.2300   30.0940   52.3620 F   0  0  0  0  0  0  0  0  0  0  0  0
  1  7  1  0  0  0  0
  2  1  1  0  0  0  0
  2 30  1  0  0  0  0
  3  2  2  0  0  0  0
  4  5  2  0  0  0  0
  4  3  1  0  0  0  0
  5  6  1  0  0  0  0
  6  1  2  0  0  0  0
  9  8  1  0  0  0  0
  9 10  1  0  0  0  0
 10 11  2  0  0  0  0
 10  5  1  0  0  0  0
 11 16  1  0  0  0  0
 12 17  1  0  0  0  0
 12 11  1  0  0  0  0
 13 15  1  0  0  0  0
 13 12  2  0  0  0  0
 14 13  1  0  0  0  0
 15  9  2  0  0  0  0
 18 21  1  0  0  0  0
 18 15  1  0  0  0  0
 19 18  1  0  0  0  0
 20 18  1  0  0  0  0
 22  3  1  1  0  0  0
 23 22  1  0  0  0  0
 24 23  1  0  0  0  0
 25 26  1  0  0  0  0
 25 23  1  0  0  0  0
 27 28  1  0  0  0  0
 27 25  1  0  0  0  0
 28 22  1  0  0  0  0
 29 28  1  0  0  0  0
 30 32  1  0  0  0  0
 30 33  1  0  0  0  0
 31 30  1  0  0  0  0
M  END
>  <minimizedAffinity>
-5.76902246

>  <minimizedRMSD>
0.70283103

$$$$
