
 OpenBabel03262523003D

 37 41  0  0  1  0  0  0  0  0999 V2000
   36.8440   27.6940   33.5780 C   0  0  0  0  0  0  0  0  0  0  0  0
   37.8560   27.5970   32.6180 C   0  0  0  0  0  0  0  0  0  0  0  0
   38.7080   26.5970   33.0060 C   0  0  0  0  0  0  0  0  0  0  0  0
   38.2080   26.0990   34.1970 N   0  0  0  0  0  0  0  0  0  0  0  0
   37.1140   26.7810   34.4820 N   0  0  0  0  0  0  0  0  0  0  0  0
   39.7610   24.2010   34.3340 N   0  0  0  0  0  0  0  0  0  0  0  0
   38.8590   25.0390   34.8810 C   0  0  0  0  0  0  0  0  0  0  0  0
   38.7180   24.6640   36.1730 N   0  0  0  0  0  0  0  0  0  0  0  0
   39.5100   23.6120   36.4460 C   0  0  0  0  0  0  0  0  0  0  0  0
   39.8050   22.8140   37.5200 C   0  0  0  0  0  0  0  0  0  0  0  0
   40.7010   21.8110   37.3840 N   0  0  0  0  0  0  0  0  0  0  0  0
   41.3240   21.5620   36.2180 C   0  0  0  0  0  0  0  0  0  0  0  0
   41.0680   22.3160   35.1430 N   0  0  0  0  0  0  0  0  0  0  0  0
   40.1720   23.3200   35.2720 C   0  0  0  0  0  0  0  0  0  0  0  0
   37.9330   28.2040   31.7400 H   0  0  0  0  0  0  0  0  0  0  0  0
   39.5930   26.2880   32.4580 H   0  0  0  0  0  0  0  0  0  0  0  0
   40.1030   24.2180   33.3270 H   0  0  0  0  0  0  0  0  0  0  0  0
   42.0170   20.7310   36.2440 H   0  0  0  0  0  0  0  0  0  0  0  0
   33.9480   29.5870   32.3560 C   0  0  0  0  0  0  0  0  0  0  0  0
   33.6650   30.4360   33.4620 C   0  0  0  0  0  0  0  0  0  0  0  0
   34.4690   30.3330   34.5830 C   0  0  0  0  0  0  0  0  0  0  0  0
   35.4830   29.4380   34.5810 N   0  0  0  0  0  0  0  0  0  0  0  0
   35.7450   28.6360   33.5290 C   0  0  0  0  0  0  0  0  0  0  0  0
   34.9770   28.7230   32.4360 N   0  0  0  0  0  0  0  0  0  0  0  0
   33.3430   29.6490   31.4840 H   0  0  0  0  0  0  0  0  0  0  0  0
   32.8430   31.1460   33.4360 H   0  0  0  0  0  0  0  0  0  0  0  0
   34.2130   31.1900   35.7500 C   0  0  1  0  0  3  0  0  0  0  0  0
   35.4850   31.7790   36.3190 C   0  0  0  0  0  3  0  0  0  0  0  0
   35.6420   31.4820   37.3770 H   0  0  0  0  0  0  0  0  0  0  0  0
   35.2800   33.2600   36.1930 C   0  0  0  0  0  3  0  0  0  0  0  0
   35.9180   33.6280   35.3630 H   0  0  0  0  0  0  0  0  0  0  0  0
   33.9390   33.4850   35.9900 O   0  0  0  0  0  0  0  0  0  0  0  0
   33.4000   32.3760   35.3470 C   0  0  0  0  0  3  0  0  0  0  0  0
   33.2540   32.5000   34.2750 H   0  0  0  0  0  0  0  0  0  0  0  0
   39.1330   23.0980   38.7360 N   0  0  0  0  0  0  0  0  0  0  0  0
   38.1110   23.1090   38.8310 H   0  0  0  0  0  0  0  0  0  0  0  0
   39.9110   23.2750   39.4340 H   0  0  0  0  0  0  0  0  0  0  0  0
  1  5  2  0  0  0  0
  2  3  2  0  0  0  0
  2  1  1  0  0  0  0
  3  4  1  0  0  0  0
  4  5  1  0  0  0  0
  4  7  1  0  0  0  0
  6  7  1  0  0  0  0
  6 14  1  0  0  0  0
  7  8  2  0  0  0  0
  8  9  1  0  0  0  0
  9 10  1  0  0  0  0
 10 35  1  0  0  0  0
 11 10  2  0  0  0  0
 12 18  1  0  0  0  0
 12 11  1  0  0  0  0
 13 14  1  0  0  0  0
 13 12  2  0  0  0  0
 14  9  2  0  0  0  0
 15  2  1  0  0  0  0
 16  3  1  0  0  0  0
 17  6  1  0  0  0  0
 19 24  2  0  0  0  0
 19 20  1  0  0  0  0
 20 21  2  0  0  0  0
 22 21  1  0  0  0  0
 23  1  1  0  0  0  0
 23 22  2  0  0  0  0
 24 23  1  0  0  0  0
 25 19  1  0  0  0  0
 26 20  1  0  0  0  0
 27 21  1  6  0  0  0
 27 28  1  0  0  0  0
 28 29  1  0  0  0  0
 30 28  1  0  0  0  0
 31 30  1  0  0  0  0
 32 30  1  0  0  0  0
 33 27  1  0  0  0  0
 33 32  1  0  0  0  0
 34 33  1  0  0  0  0
 35 36  1  0  0  0  0
 35 37  1  0  0  0  0
M  END
>  <minimizedAffinity>
-6.41859627

$$$$

 OpenBabel03262523003D

 37 41  0  0  1  0  0  0  0  0999 V2000
   38.5010   27.1150   32.6880 C   0  0  0  0  0  0  0  0  0  0  0  0
   39.7420   27.0510   32.0450 C   0  0  0  0  0  0  0  0  0  0  0  0
   40.4920   26.0930   32.6750 C   0  0  0  0  0  0  0  0  0  0  0  0
   39.7020   25.5860   33.6930 N   0  0  0  0  0  0  0  0  0  0  0  0
   38.5470   26.2240   33.6510 N   0  0  0  0  0  0  0  0  0  0  0  0
   41.2290   23.7590   34.2940 N   0  0  0  0  0  0  0  0  0  0  0  0
   40.1790   24.5630   34.5530 C   0  0  0  0  0  0  0  0  0  0  0  0
   39.7020   24.1960   35.7640 N   0  0  0  0  0  0  0  0  0  0  0  0
   40.4280   23.1810   36.2680 C   0  0  0  0  0  0  0  0  0  0  0  0
   40.4460   22.4080   37.3980 C   0  0  0  0  0  0  0  0  0  0  0  0
   41.3820   21.4430   37.5370 N   0  0  0  0  0  0  0  0  0  0  0  0
   42.3120   21.2090   36.5930 C   0  0  0  0  0  0  0  0  0  0  0  0
   42.3330   21.9400   35.4720 N   0  0  0  0  0  0  0  0  0  0  0  0
   41.3990   22.9060   35.3280 C   0  0  0  0  0  0  0  0  0  0  0  0
   40.0350   27.6520   31.2090 H   0  0  0  0  0  0  0  0  0  0  0  0
   41.5050   25.8160   32.3980 H   0  0  0  0  0  0  0  0  0  0  0  0
   41.8350   23.7790   33.4200 H   0  0  0  0  0  0  0  0  0  0  0  0
   43.0020   20.4090   36.8270 H   0  0  0  0  0  0  0  0  0  0  0  0
   36.3790   29.3570   30.7050 C   0  0  0  0  0  0  0  0  0  0  0  0
   35.3650   29.7040   31.6400 C   0  0  0  0  0  0  0  0  0  0  0  0
   35.4400   29.1620   32.9110 C   0  0  0  0  0  0  0  0  0  0  0  0
   36.4660   28.3330   33.2100 N   0  0  0  0  0  0  0  0  0  0  0  0
   37.4240   28.0080   32.3170 C   0  0  0  0  0  0  0  0  0  0  0  0
   37.3660   28.5240   31.0830 N   0  0  0  0  0  0  0  0  0  0  0  0
   36.3420   29.7620   29.7230 H   0  0  0  0  0  0  0  0  0  0  0  0
   34.5520   30.3730   31.3730 H   0  0  0  0  0  0  0  0  0  0  0  0
   34.4140   29.4920   33.9110 C   0  0  1  0  0  3  0  0  0  0  0  0
   34.8500   30.6090   34.8330 C   0  0  0  0  0  3  0  0  0  0  0  0
   34.8640   30.2860   35.8960 H   0  0  0  0  0  0  0  0  0  0  0  0
   33.8270   31.6820   34.6030 C   0  0  0  0  0  3  0  0  0  0  0  0
   34.3000   32.4890   34.0060 H   0  0  0  0  0  0  0  0  0  0  0  0
   32.7440   31.1070   33.9810 O   0  0  0  0  0  0  0  0  0  0  0  0
   33.1910   30.0220   33.2350 C   0  0  0  0  0  3  0  0  0  0  0  0
   33.2950   30.2160   32.1680 H   0  0  0  0  0  0  0  0  0  0  0  0
   39.4540   22.6770   38.3760 N   0  0  0  0  0  0  0  0  0  0  0  0
   38.4460   22.6440   38.1870 H   0  0  0  0  0  0  0  0  0  0  0  0
   40.0020   22.8940   39.2570 H   0  0  0  0  0  0  0  0  0  0  0  0
  1  5  2  0  0  0  0
  2  3  2  0  0  0  0
  2  1  1  0  0  0  0
  3  4  1  0  0  0  0
  4  7  1  0  0  0  0
  5  4  1  0  0  0  0
  6  7  1  0  0  0  0
  6 14  1  0  0  0  0
  7  8  2  0  0  0  0
  8  9  1  0  0  0  0
  9 10  1  0  0  0  0
 10 11  2  0  0  0  0
 10 35  1  0  0  0  0
 12 18  1  0  0  0  0
 12 11  1  0  0  0  0
 13 12  2  0  0  0  0
 14 13  1  0  0  0  0
 14  9  2  0  0  0  0
 15  2  1  0  0  0  0
 16  3  1  0  0  0  0
 17  6  1  0  0  0  0
 19 24  2  0  0  0  0
 19 20  1  0  0  0  0
 20 21  2  0  0  0  0
 21 22  1  0  0  0  0
 23  1  1  0  0  0  0
 23 22  2  0  0  0  0
 24 23  1  0  0  0  0
 25 19  1  0  0  0  0
 26 20  1  0  0  0  0
 27 21  1  6  0  0  0
 27 28  1  0  0  0  0
 28 29  1  0  0  0  0
 30 28  1  0  0  0  0
 31 30  1  0  0  0  0
 32 30  1  0  0  0  0
 33 27  1  0  0  0  0
 33 32  1  0  0  0  0
 34 33  1  0  0  0  0
 35 37  1  0  0  0  0
 36 35  1  0  0  0  0
M  END
>  <minimizedAffinity>
-6.04576349

$$$$

 OpenBabel03262523003D

 37 41  0  0  1  0  0  0  0  0999 V2000
   36.4510   27.3870   32.4890 C   0  0  0  0  0  0  0  0  0  0  0  0
   36.1030   28.0530   31.3100 C   0  0  0  0  0  0  0  0  0  0  0  0
   35.7620   29.3380   31.6380 C   0  0  0  0  0  0  0  0  0  0  0  0
   35.9060   29.4410   33.0110 N   0  0  0  0  0  0  0  0  0  0  0  0
   36.3120   28.2660   33.4550 N   0  0  0  0  0  0  0  0  0  0  0  0
   35.5550   31.8700   33.1080 N   0  0  0  0  0  0  0  0  0  0  0  0
   35.6310   30.6570   33.6900 C   0  0  0  0  0  0  0  0  0  0  0  0
   35.3950   30.8460   35.0080 N   0  0  0  0  0  0  0  0  0  0  0  0
   35.1740   32.1480   35.2640 C   0  0  0  0  0  0  0  0  0  0  0  0
   34.8910   32.9370   36.3480 C   0  0  0  0  0  0  0  0  0  0  0  0
   34.7320   34.2690   36.1850 N   0  0  0  0  0  0  0  0  0  0  0  0
   34.8420   34.8600   34.9810 C   0  0  0  0  0  0  0  0  0  0  0  0
   35.1160   34.1290   33.8940 N   0  0  0  0  0  0  0  0  0  0  0  0
   35.2770   32.7960   34.0510 C   0  0  0  0  0  0  0  0  0  0  0  0
   36.1080   27.6180   30.3320 H   0  0  0  0  0  0  0  0  0  0  0  0
   35.4460   30.0970   30.9290 H   0  0  0  0  0  0  0  0  0  0  0  0
   35.6910   32.0800   32.0740 H   0  0  0  0  0  0  0  0  0  0  0  0
   34.6920   35.9320   34.9880 H   0  0  0  0  0  0  0  0  0  0  0  0
   37.0370   23.8840   31.5710 C   0  0  0  0  0  0  0  0  0  0  0  0
   37.6840   23.3800   32.7330 C   0  0  0  0  0  0  0  0  0  0  0  0
   37.8970   24.2500   33.7870 C   0  0  0  0  0  0  0  0  0  0  0  0
   37.4850   25.5330   33.6700 N   0  0  0  0  0  0  0  0  0  0  0  0
   36.8730   26.0030   32.5640 C   0  0  0  0  0  0  0  0  0  0  0  0
   36.6590   25.1740   31.5360 N   0  0  0  0  0  0  0  0  0  0  0  0
   36.8620   23.2320   30.7490 H   0  0  0  0  0  0  0  0  0  0  0  0
   38.0040   22.3440   32.8000 H   0  0  0  0  0  0  0  0  0  0  0  0
   38.5620   23.7740   35.0090 C   0  0  1  0  0  3  0  0  0  0  0  0
   38.4790   24.7790   36.1360 C   0  0  0  0  0  3  0  0  0  0  0  0
   39.4850   25.0970   36.4820 H   0  0  0  0  0  0  0  0  0  0  0  0
   37.7380   24.0440   37.2140 C   0  0  0  0  0  3  0  0  0  0  0  0
   36.7080   24.4530   37.2670 H   0  0  0  0  0  0  0  0  0  0  0  0
   37.7780   22.7030   36.9150 O   0  0  0  0  0  0  0  0  0  0  0  0
   37.8630   22.5630   35.5350 C   0  0  0  0  0  3  0  0  0  0  0  0
   36.9230   22.3170   35.0430 H   0  0  0  0  0  0  0  0  0  0  0  0
   34.7820   32.2880   37.6040 N   0  0  0  0  0  0  0  0  0  0  0  0
   35.5320   31.7240   38.0190 H   0  0  0  0  0  0  0  0  0  0  0  0
   33.8080   32.5320   37.9450 H   0  0  0  0  0  0  0  0  0  0  0  0
  1 23  1  0  0  0  0
  1  5  2  0  0  0  0
  2  3  2  0  0  0  0
  2  1  1  0  0  0  0
  3  4  1  0  0  0  0
  4  5  1  0  0  0  0
  4  7  1  0  0  0  0
  6  7  1  0  0  0  0
  6 14  1  0  0  0  0
  7  8  2  0  0  0  0
  8  9  1  0  0  0  0
  9 10  1  0  0  0  0
 10 35  1  0  0  0  0
 11 10  2  0  0  0  0
 12 18  1  0  0  0  0
 12 11  1  0  0  0  0
 13 14  1  0  0  0  0
 13 12  2  0  0  0  0
 14  9  2  0  0  0  0
 15  2  1  0  0  0  0
 16  3  1  0  0  0  0
 17  6  1  0  0  0  0
 19 20  1  0  0  0  0
 20 26  1  0  0  0  0
 20 21  2  0  0  0  0
 22 21  1  0  0  0  0
 23 22  2  0  0  0  0
 24 19  2  0  0  0  0
 24 23  1  0  0  0  0
 25 19  1  0  0  0  0
 27 21  1  6  0  0  0
 27 33  1  0  0  0  0
 27 28  1  0  0  0  0
 28 29  1  0  0  0  0
 28 30  1  0  0  0  0
 30 31  1  0  0  0  0
 32 30  1  0  0  0  0
 33 32  1  0  0  0  0
 34 33  1  0  0  0  0
 35 37  1  0  0  0  0
 35 36  1  0  0  0  0
M  END
>  <minimizedAffinity>
-5.99875212

$$$$

 OpenBabel03262523003D

 37 41  0  0  1  0  0  0  0  0999 V2000
   36.4900   28.1640   32.7860 C   0  0  0  0  0  0  0  0  0  0  0  0
   37.5870   27.8970   31.9590 C   0  0  0  0  0  0  0  0  0  0  0  0
   38.3330   26.9150   32.5560 C   0  0  0  0  0  0  0  0  0  0  0  0
   37.6850   26.5970   33.7370 N   0  0  0  0  0  0  0  0  0  0  0  0
   36.6120   27.3610   33.8180 N   0  0  0  0  0  0  0  0  0  0  0  0
   39.0990   24.6600   34.2710 N   0  0  0  0  0  0  0  0  0  0  0  0
   38.1980   25.6030   34.6120 C   0  0  0  0  0  0  0  0  0  0  0  0
   37.9050   25.4020   35.9170 N   0  0  0  0  0  0  0  0  0  0  0  0
   38.5990   24.3560   36.3990 C   0  0  0  0  0  0  0  0  0  0  0  0
   38.7350   23.6880   37.5870 C   0  0  0  0  0  0  0  0  0  0  0  0
   39.5770   22.6340   37.6720 N   0  0  0  0  0  0  0  0  0  0  0  0
   40.2990   22.2100   36.6190 C   0  0  0  0  0  0  0  0  0  0  0  0
   40.1990   22.8330   35.4390 N   0  0  0  0  0  0  0  0  0  0  0  0
   39.3580   23.8870   35.3470 C   0  0  0  0  0  0  0  0  0  0  0  0
   37.7900   28.3840   31.0280 H   0  0  0  0  0  0  0  0  0  0  0  0
   39.2490   26.4970   32.1480 H   0  0  0  0  0  0  0  0  0  0  0  0
   39.5410   24.5320   33.3120 H   0  0  0  0  0  0  0  0  0  0  0  0
   40.9340   21.3570   36.8210 H   0  0  0  0  0  0  0  0  0  0  0  0
   34.6490   30.8950   31.1700 C   0  0  0  0  0  0  0  0  0  0  0  0
   33.4920   30.9950   31.9910 C   0  0  0  0  0  0  0  0  0  0  0  0
   33.3800   30.1290   33.0650 C   0  0  0  0  0  0  0  0  0  0  0  0
   34.3680   29.2320   33.2870 N   0  0  0  0  0  0  0  0  0  0  0  0
   35.4620   29.1430   32.5040 C   0  0  0  0  0  0  0  0  0  0  0  0
   35.5850   29.9730   31.4610 N   0  0  0  0  0  0  0  0  0  0  0  0
   34.7560   31.5500   30.3400 H   0  0  0  0  0  0  0  0  0  0  0  0
   32.7140   31.7260   31.7890 H   0  0  0  0  0  0  0  0  0  0  0  0
   32.2010   30.1960   33.9410 C   0  0  1  0  0  3  0  0  0  0  0  0
   31.0620   29.3380   33.4350 C   0  0  0  0  0  3  0  0  0  0  0  0
   30.1500   29.9390   33.2350 H   0  0  0  0  0  0  0  0  0  0  0  0
   30.8360   28.3550   34.5460 C   0  0  0  0  0  3  0  0  0  0  0  0
   31.2320   27.3700   34.2220 H   0  0  0  0  0  0  0  0  0  0  0  0
   31.4490   28.8450   35.6750 O   0  0  0  0  0  0  0  0  0  0  0  0
   32.5280   29.6290   35.2840 C   0  0  0  0  0  3  0  0  0  0  0  0
   33.4970   29.1390   35.3600 H   0  0  0  0  0  0  0  0  0  0  0  0
   37.9610   24.1560   38.6800 N   0  0  0  0  0  0  0  0  0  0  0  0
   36.9380   24.2270   38.6620 H   0  0  0  0  0  0  0  0  0  0  0  0
   38.6740   24.3830   39.4310 H   0  0  0  0  0  0  0  0  0  0  0  0
  1  5  2  0  0  0  0
  2  3  2  0  0  0  0
  2  1  1  0  0  0  0
  3  4  1  0  0  0  0
  4  5  1  0  0  0  0
  4  7  1  0  0  0  0
  6  7  1  0  0  0  0
  6 14  1  0  0  0  0
  7  8  2  0  0  0  0
  8  9  1  0  0  0  0
  9 10  1  0  0  0  0
 10 11  2  0  0  0  0
 10 35  1  0  0  0  0
 12 18  1  0  0  0  0
 12 11  1  0  0  0  0
 13 12  2  0  0  0  0
 14 13  1  0  0  0  0
 14  9  2  0  0  0  0
 15  2  1  0  0  0  0
 16  3  1  0  0  0  0
 17  6  1  0  0  0  0
 19 24  2  0  0  0  0
 19 20  1  0  0  0  0
 20 21  2  0  0  0  0
 21 22  1  0  0  0  0
 23  1  1  0  0  0  0
 23 22  2  0  0  0  0
 24 23  1  0  0  0  0
 25 19  1  0  0  0  0
 26 20  1  0  0  0  0
 27 21  1  6  0  0  0
 27 33  1  0  0  0  0
 28 27  1  0  0  0  0
 28 30  1  0  0  0  0
 29 28  1  0  0  0  0
 30 32  1  0  0  0  0
 31 30  1  0  0  0  0
 33 34  1  0  0  0  0
 33 32  1  0  0  0  0
 35 37  1  0  0  0  0
 36 35  1  0  0  0  0
M  END
>  <minimizedAffinity>
-5.99215508

$$$$

 OpenBabel03262523003D

 37 41  0  0  1  0  0  0  0  0999 V2000
   36.3510   28.6800   32.8860 C   0  0  0  0  0  0  0  0  0  0  0  0
   37.2840   28.2540   31.9340 C   0  0  0  0  0  0  0  0  0  0  0  0
   37.9490   27.1750   32.4530 C   0  0  0  0  0  0  0  0  0  0  0  0
   37.4180   26.9570   33.7120 N   0  0  0  0  0  0  0  0  0  0  0  0
   36.4850   27.8700   33.9110 N   0  0  0  0  0  0  0  0  0  0  0  0
   38.5920   24.8350   34.1040 N   0  0  0  0  0  0  0  0  0  0  0  0
   37.8870   25.9000   34.5360 C   0  0  0  0  0  0  0  0  0  0  0  0
   37.7360   25.7470   35.8710 N   0  0  0  0  0  0  0  0  0  0  0  0
   38.3280   24.6120   36.2840 C   0  0  0  0  0  0  0  0  0  0  0  0
   38.5150   23.9330   37.4590 C   0  0  0  0  0  0  0  0  0  0  0  0
   39.1990   22.7680   37.4590 N   0  0  0  0  0  0  0  0  0  0  0  0
   39.7120   22.2400   36.3330 C   0  0  0  0  0  0  0  0  0  0  0  0
   39.5550   22.8690   35.1620 N   0  0  0  0  0  0  0  0  0  0  0  0
   38.8710   24.0340   35.1550 C   0  0  0  0  0  0  0  0  0  0  0  0
   37.4350   28.7040   30.9750 H   0  0  0  0  0  0  0  0  0  0  0  0
   38.7360   26.6270   31.9420 H   0  0  0  0  0  0  0  0  0  0  0  0
   38.8850   24.6420   33.1000 H   0  0  0  0  0  0  0  0  0  0  0  0
   40.2370   21.3040   36.4710 H   0  0  0  0  0  0  0  0  0  0  0  0
   34.0660   31.0870   31.3240 C   0  0  0  0  0  0  0  0  0  0  0  0
   33.7360   31.9320   32.4190 C   0  0  0  0  0  0  0  0  0  0  0  0
   34.3030   31.6520   33.6500 C   0  0  0  0  0  0  0  0  0  0  0  0
   35.1410   30.5960   33.7590 N   0  0  0  0  0  0  0  0  0  0  0  0
   35.4480   29.7990   32.7150 C   0  0  0  0  0  0  0  0  0  0  0  0
   34.9080   30.0570   31.5180 N   0  0  0  0  0  0  0  0  0  0  0  0
   33.6420   31.2840   30.3690 H   0  0  0  0  0  0  0  0  0  0  0  0
   33.0600   32.7750   32.3030 H   0  0  0  0  0  0  0  0  0  0  0  0
   33.9900   32.4980   34.8110 C   0  0  1  0  0  3  0  0  0  0  0  0
   33.6950   31.6840   36.0510 C   0  0  0  0  0  3  0  0  0  0  0  0
   32.6750   31.8810   36.4430 H   0  0  0  0  0  0  0  0  0  0  0  0
   34.7480   32.1230   37.0250 C   0  0  0  0  0  3  0  0  0  0  0  0
   35.4960   31.3090   37.1170 H   0  0  0  0  0  0  0  0  0  0  0  0
   35.2810   33.3050   36.5660 O   0  0  0  0  0  0  0  0  0  0  0  0
   35.1790   33.3230   35.1800 C   0  0  0  0  0  3  0  0  0  0  0  0
   36.1000   33.0750   34.6530 H   0  0  0  0  0  0  0  0  0  0  0  0
   37.9630   24.5120   38.6300 N   0  0  0  0  0  0  0  0  0  0  0  0
   36.9660   24.7320   38.7400 H   0  0  0  0  0  0  0  0  0  0  0  0
   38.7900   24.6340   39.2820 H   0  0  0  0  0  0  0  0  0  0  0  0
  1  5  2  0  0  0  0
  2  3  2  0  0  0  0
  2  1  1  0  0  0  0
  3  4  1  0  0  0  0
  4  5  1  0  0  0  0
  4  7  1  0  0  0  0
  6  7  1  0  0  0  0
  6 14  1  0  0  0  0
  7  8  2  0  0  0  0
  8  9  1  0  0  0  0
  9 10  1  0  0  0  0
 10 11  2  0  0  0  0
 10 35  1  0  0  0  0
 12 18  1  0  0  0  0
 12 11  1  0  0  0  0
 13 12  2  0  0  0  0
 14 13  1  0  0  0  0
 14  9  2  0  0  0  0
 15  2  1  0  0  0  0
 16  3  1  0  0  0  0
 17  6  1  0  0  0  0
 19 24  2  0  0  0  0
 19 20  1  0  0  0  0
 20 21  2  0  0  0  0
 21 22  1  0  0  0  0
 23  1  1  0  0  0  0
 23 22  2  0  0  0  0
 24 23  1  0  0  0  0
 25 19  1  0  0  0  0
 26 20  1  0  0  0  0
 27 21  1  6  0  0  0
 27 33  1  0  0  0  0
 27 28  1  0  0  0  0
 28 29  1  0  0  0  0
 28 30  1  0  0  0  0
 30 31  1  0  0  0  0
 32 30  1  0  0  0  0
 33 32  1  0  0  0  0
 34 33  1  0  0  0  0
 35 36  1  0  0  0  0
 35 37  1  0  0  0  0
M  END
>  <minimizedAffinity>
-5.97766399

$$$$

 OpenBabel03262523003D

 37 41  0  0  1  0  0  0  0  0999 V2000
   37.1850   26.5310   33.0110 C   0  0  0  0  0  0  0  0  0  0  0  0
   36.4000   26.7070   31.8670 C   0  0  0  0  0  0  0  0  0  0  0  0
   35.7280   27.8940   31.9970 C   0  0  0  0  0  0  0  0  0  0  0  0
   36.1090   28.4250   33.2170 N   0  0  0  0  0  0  0  0  0  0  0  0
   36.9650   27.5830   33.7660 N   0  0  0  0  0  0  0  0  0  0  0  0
   35.0000   30.5930   32.8920 N   0  0  0  0  0  0  0  0  0  0  0  0
   35.5930   29.6670   33.6720 C   0  0  0  0  0  0  0  0  0  0  0  0
   35.5840   30.1610   34.9310 N   0  0  0  0  0  0  0  0  0  0  0  0
   35.0010   31.3740   34.9560 C   0  0  0  0  0  0  0  0  0  0  0  0
   34.7030   32.3380   35.8820 C   0  0  0  0  0  0  0  0  0  0  0  0
   34.0810   33.4730   35.4920 N   0  0  0  0  0  0  0  0  0  0  0  0
   33.7380   33.6950   34.2100 C   0  0  0  0  0  0  0  0  0  0  0  0
   34.0090   32.7810   33.2720 N   0  0  0  0  0  0  0  0  0  0  0  0
   34.6310   31.6440   33.6550 C   0  0  0  0  0  0  0  0  0  0  0  0
   36.3470   26.0250   31.0440 H   0  0  0  0  0  0  0  0  0  0  0  0
   35.0380   28.3010   31.2640 H   0  0  0  0  0  0  0  0  0  0  0  0
   34.8420   30.5210   31.8420 H   0  0  0  0  0  0  0  0  0  0  0  0
   33.2450   34.6430   34.0320 H   0  0  0  0  0  0  0  0  0  0  0  0
   39.8230   24.0190   32.5710 C   0  0  0  0  0  0  0  0  0  0  0  0
   39.6710   23.2260   33.7420 C   0  0  0  0  0  0  0  0  0  0  0  0
   38.6770   23.5760   34.6390 C   0  0  0  0  0  0  0  0  0  0  0  0
   37.8970   24.6470   34.3670 N   0  0  0  0  0  0  0  0  0  0  0  0
   38.0470   25.3930   33.2540 C   0  0  0  0  0  0  0  0  0  0  0  0
   39.0040   25.0690   32.3770 N   0  0  0  0  0  0  0  0  0  0  0  0
   40.5800   23.7690   31.8680 H   0  0  0  0  0  0  0  0  0  0  0  0
   40.3120   22.3710   33.9350 H   0  0  0  0  0  0  0  0  0  0  0  0
   38.4830   22.7850   35.8640 C   0  0  1  0  0  3  0  0  0  0  0  0
   39.7840   22.2280   36.3980 C   0  0  0  0  0  3  0  0  0  0  0  0
   39.7700   21.1190   36.4480 H   0  0  0  0  0  0  0  0  0  0  0  0
   39.8960   22.8350   37.7660 C   0  0  0  0  0  3  0  0  0  0  0  0
   40.6760   23.6230   37.7320 H   0  0  0  0  0  0  0  0  0  0  0  0
   38.6550   23.3090   38.1210 O   0  0  0  0  0  0  0  0  0  0  0  0
   37.9710   23.6580   36.9620 C   0  0  0  0  0  3  0  0  0  0  0  0
   37.9620   24.7260   36.7440 H   0  0  0  0  0  0  0  0  0  0  0  0
   35.0770   32.0770   37.2250 N   0  0  0  0  0  0  0  0  0  0  0  0
   36.0400   31.8790   37.5180 H   0  0  0  0  0  0  0  0  0  0  0  0
   34.1700   32.1420   37.7700 H   0  0  0  0  0  0  0  0  0  0  0  0
  1 23  1  0  0  0  0
  1  5  2  0  0  0  0
  2  3  2  0  0  0  0
  2  1  1  0  0  0  0
  3  4  1  0  0  0  0
  4  7  1  0  0  0  0
  4  5  1  0  0  0  0
  6 14  1  0  0  0  0
  6  7  1  0  0  0  0
  7  8  2  0  0  0  0
  8  9  1  0  0  0  0
  9 10  1  0  0  0  0
 10 35  1  0  0  0  0
 11 10  2  0  0  0  0
 12 11  1  0  0  0  0
 13 14  1  0  0  0  0
 13 12  2  0  0  0  0
 14  9  2  0  0  0  0
 15  2  1  0  0  0  0
 16  3  1  0  0  0  0
 17  6  1  0  0  0  0
 18 12  1  0  0  0  0
 19 20  1  0  0  0  0
 20 26  1  0  0  0  0
 20 21  2  0  0  0  0
 22 21  1  0  0  0  0
 23 22  2  0  0  0  0
 24 19  2  0  0  0  0
 24 23  1  0  0  0  0
 25 19  1  0  0  0  0
 27 21  1  6  0  0  0
 27 28  1  0  0  0  0
 27 33  1  0  0  0  0
 28 29  1  0  0  0  0
 28 30  1  0  0  0  0
 30 32  1  0  0  0  0
 31 30  1  0  0  0  0
 33 32  1  0  0  0  0
 34 33  1  0  0  0  0
 35 36  1  0  0  0  0
 35 37  1  0  0  0  0
M  END
>  <minimizedAffinity>
-5.96788597

$$$$

 OpenBabel03262523003D

 37 41  0  0  1  0  0  0  0  0999 V2000
   36.5430   26.9520   32.5410 C   0  0  0  0  0  0  0  0  0  0  0  0
   36.1720   27.5560   31.3350 C   0  0  0  0  0  0  0  0  0  0  0  0
   35.8300   28.8540   31.6040 C   0  0  0  0  0  0  0  0  0  0  0  0
   35.9940   29.0260   32.9670 N   0  0  0  0  0  0  0  0  0  0  0  0
   36.4140   27.8770   33.4630 N   0  0  0  0  0  0  0  0  0  0  0  0
   35.6300   31.4550   32.9490 N   0  0  0  0  0  0  0  0  0  0  0  0
   35.7230   30.2730   33.5890 C   0  0  0  0  0  0  0  0  0  0  0  0
   35.5060   30.5270   34.9000 N   0  0  0  0  0  0  0  0  0  0  0  0
   35.2820   31.8390   35.0940 C   0  0  0  0  0  0  0  0  0  0  0  0
   35.0120   32.6790   36.1420 C   0  0  0  0  0  0  0  0  0  0  0  0
   34.8420   34.0010   35.9150 N   0  0  0  0  0  0  0  0  0  0  0  0
   34.9290   34.5320   34.6820 C   0  0  0  0  0  0  0  0  0  0  0  0
   35.1910   33.7490   33.6280 N   0  0  0  0  0  0  0  0  0  0  0  0
   35.3620   32.4260   33.8490 C   0  0  0  0  0  0  0  0  0  0  0  0
   36.1650   27.0720   30.3800 H   0  0  0  0  0  0  0  0  0  0  0  0
   35.4980   29.5760   30.8630 H   0  0  0  0  0  0  0  0  0  0  0  0
   35.7490   31.6140   31.9040 H   0  0  0  0  0  0  0  0  0  0  0  0
   34.7730   35.6020   34.6380 H   0  0  0  0  0  0  0  0  0  0  0  0
   38.4450   24.0000   33.6050 C   0  0  0  0  0  0  0  0  0  0  0  0
   37.7700   22.9530   32.9190 C   0  0  0  0  0  0  0  0  0  0  0  0
   36.6920   23.2890   32.1180 C   0  0  0  0  0  0  0  0  0  0  0  0
   36.3290   24.5890   32.0230 N   0  0  0  0  0  0  0  0  0  0  0  0
   36.9740   25.5760   32.6770 C   0  0  0  0  0  0  0  0  0  0  0  0
   38.0180   25.2670   33.4550 N   0  0  0  0  0  0  0  0  0  0  0  0
   39.2760   23.7640   34.2250 H   0  0  0  0  0  0  0  0  0  0  0  0
   38.0840   21.9170   33.0140 H   0  0  0  0  0  0  0  0  0  0  0  0
   35.9640   22.2400   31.3900 C   0  0  1  0  0  3  0  0  0  0  0  0
   36.8850   21.1610   30.8660 C   0  0  0  0  0  3  0  0  0  0  0  0
   36.8300   21.0700   29.7600 H   0  0  0  0  0  0  0  0  0  0  0  0
   36.3940   19.9140   31.5410 C   0  0  0  0  0  3  0  0  0  0  0  0
   37.1230   19.6380   32.3300 H   0  0  0  0  0  0  0  0  0  0  0  0
   35.1330   20.1660   32.0270 O   0  0  0  0  0  0  0  0  0  0  0  0
   35.0360   21.5230   32.3150 C   0  0  0  0  0  3  0  0  0  0  0  0
   35.1440   21.7730   33.3700 H   0  0  0  0  0  0  0  0  0  0  0  0
   34.9260   32.0930   37.4300 N   0  0  0  0  0  0  0  0  0  0  0  0
   35.6860   31.5540   37.8610 H   0  0  0  0  0  0  0  0  0  0  0  0
   33.9560   32.3490   37.7740 H   0  0  0  0  0  0  0  0  0  0  0  0
  1 23  1  0  0  0  0
  1  5  2  0  0  0  0
  2  3  2  0  0  0  0
  2  1  1  0  0  0  0
  3  4  1  0  0  0  0
  4  5  1  0  0  0  0
  4  7  1  0  0  0  0
  6  7  1  0  0  0  0
  6 14  1  0  0  0  0
  7  8  2  0  0  0  0
  8  9  1  0  0  0  0
  9 10  1  0  0  0  0
 10 35  1  0  0  0  0
 11 10  2  0  0  0  0
 12 11  1  0  0  0  0
 13 14  1  0  0  0  0
 13 12  2  0  0  0  0
 14  9  2  0  0  0  0
 15  2  1  0  0  0  0
 16  3  1  0  0  0  0
 17  6  1  0  0  0  0
 18 12  1  0  0  0  0
 19 25  1  0  0  0  0
 20 26  1  0  0  0  0
 20 19  2  0  0  0  0
 21 20  1  0  0  0  0
 22 21  2  0  0  0  0
 22 23  1  0  0  0  0
 23 24  2  0  0  0  0
 24 19  1  0  0  0  0
 27 21  1  1  0  0  0
 27 33  1  0  0  0  0
 28 27  1  0  0  0  0
 28 30  1  0  0  0  0
 29 28  1  0  0  0  0
 30 32  1  0  0  0  0
 30 31  1  0  0  0  0
 32 33  1  0  0  0  0
 33 34  1  0  0  0  0
 35 37  1  0  0  0  0
 35 36  1  0  0  0  0
M  END
>  <minimizedAffinity>
-5.90151072

$$$$

 OpenBabel03262523003D

 37 41  0  0  1  0  0  0  0  0999 V2000
   37.0940   27.7120   33.7140 C   0  0  0  0  0  0  0  0  0  0  0  0
   36.8910   28.1120   32.3900 C   0  0  0  0  0  0  0  0  0  0  0  0
   35.7920   28.9300   32.3620 C   0  0  0  0  0  0  0  0  0  0  0  0
   35.3380   29.0170   33.6670 N   0  0  0  0  0  0  0  0  0  0  0  0
   36.1410   28.2820   34.4150 N   0  0  0  0  0  0  0  0  0  0  0  0
   33.6690   30.7640   33.2240 N   0  0  0  0  0  0  0  0  0  0  0  0
   34.1990   29.7960   33.9990 C   0  0  0  0  0  0  0  0  0  0  0  0
   33.4350   29.7330   35.1130 N   0  0  0  0  0  0  0  0  0  0  0  0
   32.4420   30.6380   35.0550 C   0  0  0  0  0  0  0  0  0  0  0  0
   31.3910   31.0450   35.8330 C   0  0  0  0  0  0  0  0  0  0  0  0
   30.5790   32.0350   35.4000 N   0  0  0  0  0  0  0  0  0  0  0  0
   30.7660   32.6470   34.2160 C   0  0  0  0  0  0  0  0  0  0  0  0
   31.7800   32.2820   33.4220 N   0  0  0  0  0  0  0  0  0  0  0  0
   32.5950   31.2930   33.8500 C   0  0  0  0  0  0  0  0  0  0  0  0
   37.4980   27.8210   31.5580 H   0  0  0  0  0  0  0  0  0  0  0  0
   35.3880   29.3970   31.4690 H   0  0  0  0  0  0  0  0  0  0  0  0
   34.0290   31.0730   32.2720 H   0  0  0  0  0  0  0  0  0  0  0  0
   30.0460   33.4230   33.9900 H   0  0  0  0  0  0  0  0  0  0  0  0
   40.4500   26.3350   34.2630 C   0  0  0  0  0  0  0  0  0  0  0  0
   40.1670   25.1640   35.0180 C   0  0  0  0  0  0  0  0  0  0  0  0
   38.8440   24.8850   35.3130 C   0  0  0  0  0  0  0  0  0  0  0  0
   37.8830   25.7300   34.8750 N   0  0  0  0  0  0  0  0  0  0  0  0
   38.1600   26.8390   34.1600 C   0  0  0  0  0  0  0  0  0  0  0  0
   39.4350   27.1230   33.8660 N   0  0  0  0  0  0  0  0  0  0  0  0
   41.4590   26.5690   34.0250 H   0  0  0  0  0  0  0  0  0  0  0  0
   40.9590   24.5020   35.3580 H   0  0  0  0  0  0  0  0  0  0  0  0
   38.5040   23.6850   36.0920 C   0  0  1  0  0  3  0  0  0  0  0  0
   39.7230   22.8570   36.4320 C   0  0  0  0  0  3  0  0  0  0  0  0
   39.6520   21.8270   36.0220 H   0  0  0  0  0  0  0  0  0  0  0  0
   39.7400   22.8470   37.9320 C   0  0  0  0  0  3  0  0  0  0  0  0
   40.5570   23.5170   38.2730 H   0  0  0  0  0  0  0  0  0  0  0  0
   38.4970   23.2350   38.3720 O   0  0  0  0  0  0  0  0  0  0  0  0
   37.9370   24.0770   37.4170 C   0  0  0  0  0  3  0  0  0  0  0  0
   37.9990   25.1380   37.6550 H   0  0  0  0  0  0  0  0  0  0  0  0
   31.2180   30.3840   37.0760 N   0  0  0  0  0  0  0  0  0  0  0  0
   31.9400   30.3460   37.8040 H   0  0  0  0  0  0  0  0  0  0  0  0
   30.2350   29.9880   37.0310 H   0  0  0  0  0  0  0  0  0  0  0  0
  1 23  1  0  0  0  0
  1  5  2  0  0  0  0
  2  1  1  0  0  0  0
  3  2  2  0  0  0  0
  3  4  1  0  0  0  0
  4  7  1  0  0  0  0
  4  5  1  0  0  0  0
  6 14  1  0  0  0  0
  6  7  1  0  0  0  0
  7  8  2  0  0  0  0
  9  8  1  0  0  0  0
  9 10  1  0  0  0  0
 10 35  1  0  0  0  0
 11 10  2  0  0  0  0
 12 11  1  0  0  0  0
 13 14  1  0  0  0  0
 13 12  2  0  0  0  0
 14  9  2  0  0  0  0
 15  2  1  0  0  0  0
 16  3  1  0  0  0  0
 17  6  1  0  0  0  0
 18 12  1  0  0  0  0
 19 20  1  0  0  0  0
 20 21  2  0  0  0  0
 20 26  1  0  0  0  0
 22 21  1  0  0  0  0
 23 22  2  0  0  0  0
 24 23  1  0  0  0  0
 24 19  2  0  0  0  0
 25 19  1  0  0  0  0
 27 21  1  6  0  0  0
 27 28  1  0  0  0  0
 27 33  1  0  0  0  0
 28 30  1  0  0  0  0
 29 28  1  0  0  0  0
 30 31  1  0  0  0  0
 30 32  1  0  0  0  0
 33 34  1  0  0  0  0
 33 32  1  0  0  0  0
 35 36  1  0  0  0  0
 37 35  1  0  0  0  0
M  END
>  <minimizedAffinity>
-5.86214161

$$$$

 OpenBabel03262523003D

 37 41  0  0  1  0  0  0  0  0999 V2000
   37.9970   25.1530   34.9330 C   0  0  0  0  0  0  0  0  0  0  0  0
   37.8610   24.7240   33.6090 C   0  0  0  0  0  0  0  0  0  0  0  0
   37.2640   25.7330   32.9000 C   0  0  0  0  0  0  0  0  0  0  0  0
   37.0420   26.7620   33.7990 N   0  0  0  0  0  0  0  0  0  0  0  0
   37.4920   26.3640   34.9750 N   0  0  0  0  0  0  0  0  0  0  0  0
   36.3240   28.4000   32.1150 N   0  0  0  0  0  0  0  0  0  0  0  0
   36.4290   27.9750   33.3900 C   0  0  0  0  0  0  0  0  0  0  0  0
   35.8440   28.9210   34.1610 N   0  0  0  0  0  0  0  0  0  0  0  0
   35.3770   29.9260   33.3990 C   0  0  0  0  0  0  0  0  0  0  0  0
   34.7190   31.1140   33.5760 C   0  0  0  0  0  0  0  0  0  0  0  0
   34.4110   31.8770   32.5040 N   0  0  0  0  0  0  0  0  0  0  0  0
   34.7320   31.5100   31.2500 C   0  0  0  0  0  0  0  0  0  0  0  0
   35.3740   30.3570   31.0290 N   0  0  0  0  0  0  0  0  0  0  0  0
   35.6850   29.5900   32.0970 C   0  0  0  0  0  0  0  0  0  0  0  0
   38.1760   23.7720   33.2340 H   0  0  0  0  0  0  0  0  0  0  0  0
   37.0280   25.6920   31.8410 H   0  0  0  0  0  0  0  0  0  0  0  0
   36.6830   27.8910   31.2530 H   0  0  0  0  0  0  0  0  0  0  0  0
   34.4280   32.2110   30.4820 H   0  0  0  0  0  0  0  0  0  0  0  0
   38.4830   23.5400   38.1930 C   0  0  0  0  0  0  0  0  0  0  0  0
   39.7250   22.8720   38.0070 C   0  0  0  0  0  0  0  0  0  0  0  0
   40.3510   22.9940   36.7800 C   0  0  0  0  0  0  0  0  0  0  0  0
   39.7630   23.7380   35.8150 N   0  0  0  0  0  0  0  0  0  0  0  0
   38.5850   24.3680   35.9990 C   0  0  0  0  0  0  0  0  0  0  0  0
   37.9650   24.2600   37.1810 N   0  0  0  0  0  0  0  0  0  0  0  0
   37.9840   23.4600   39.1280 H   0  0  0  0  0  0  0  0  0  0  0  0
   40.1750   22.2810   38.8000 H   0  0  0  0  0  0  0  0  0  0  0  0
   41.6370   22.3210   36.5420 C   0  0  1  0  0  3  0  0  0  0  0  0
   41.6980   21.6670   35.1800 C   0  0  0  0  0  3  0  0  0  0  0  0
   41.8700   20.5720   35.2530 H   0  0  0  0  0  0  0  0  0  0  0  0
   42.8480   22.3560   34.5060 C   0  0  0  0  0  3  0  0  0  0  0  0
   42.4370   23.0510   33.7450 H   0  0  0  0  0  0  0  0  0  0  0  0
   43.5910   22.9860   35.4760 O   0  0  0  0  0  0  0  0  0  0  0  0
   42.7450   23.3220   36.5270 C   0  0  0  0  0  3  0  0  0  0  0  0
   42.4320   24.3650   36.5430 H   0  0  0  0  0  0  0  0  0  0  0  0
   34.3940   31.4760   34.9090 N   0  0  0  0  0  0  0  0  0  0  0  0
   35.0910   31.5760   35.6560 H   0  0  0  0  0  0  0  0  0  0  0  0
   33.3410   31.5980   34.9010 H   0  0  0  0  0  0  0  0  0  0  0  0
  1  5  2  0  0  0  0
  1 23  1  0  0  0  0
  2  1  1  0  0  0  0
  3  2  2  0  0  0  0
  3  4  1  0  0  0  0
  4  5  1  0  0  0  0
  6  7  1  0  0  0  0
  7  4  1  0  0  0  0
  7  8  2  0  0  0  0
  9 10  1  0  0  0  0
  9  8  1  0  0  0  0
 10 35  1  0  0  0  0
 11 10  2  0  0  0  0
 12 11  1  0  0  0  0
 13 12  2  0  0  0  0
 13 14  1  0  0  0  0
 14  6  1  0  0  0  0
 14  9  2  0  0  0  0
 15  2  1  0  0  0  0
 16  3  1  0  0  0  0
 17  6  1  0  0  0  0
 18 12  1  0  0  0  0
 19 25  1  0  0  0  0
 20 19  1  0  0  0  0
 20 26  1  0  0  0  0
 21 20  2  0  0  0  0
 22 23  2  0  0  0  0
 22 21  1  0  0  0  0
 23 24  1  0  0  0  0
 24 19  2  0  0  0  0
 27 21  1  6  0  0  0
 28 29  1  0  0  0  0
 28 27  1  0  0  0  0
 30 28  1  0  0  0  0
 30 32  1  0  0  0  0
 31 30  1  0  0  0  0
 32 33  1  0  0  0  0
 33 27  1  0  0  0  0
 33 34  1  0  0  0  0
 35 36  1  0  0  0  0
 37 35  1  0  0  0  0
M  END
>  <minimizedAffinity>
-5.8560667

$$$$
