
 OpenBabel03272500193D

 33 35  0  0  1  0  0  0  0  0999 V2000
   35.4750   29.2150   50.3640 C   0  0  0  0  0  0  0  0  0  0  0  0
   36.3150   30.1270   49.6730 C   0  0  0  0  0  0  0  0  0  0  0  0
   36.2460   30.2060   48.2860 C   0  0  0  0  0  0  0  0  0  0  0  0
   35.3420   29.3690   47.6790 N   0  0  0  0  0  0  0  0  0  0  0  0
   34.5680   28.5280   48.3220 C   0  0  0  0  0  0  0  0  0  0  0  0
   34.6200   28.4380   49.6530 N   0  0  0  0  0  0  0  0  0  0  0  0
   35.5340   29.1580   51.4540 H   0  0  0  0  0  0  0  0  0  0  0  0
   32.6260   30.0000   46.5210 Cl  0  0  0  0  0  0  0  0  0  0  0  0
   32.6940   28.2490   46.7040 C   0  0  0  0  0  0  0  0  0  0  0  0
   33.6350   27.6780   47.5670 C   0  0  0  0  0  0  0  0  0  0  0  0
   33.7270   26.3040   47.7430 C   0  0  0  0  0  0  0  0  0  0  0  0
   32.8290   25.5190   47.0150 C   0  0  0  0  0  0  0  0  0  0  0  0
   31.8980   26.0560   46.1650 C   0  0  0  0  0  0  0  0  0  0  0  0
   30.8280   24.9750   45.3060 Cl  0  0  0  0  0  0  0  0  0  0  0  0
   31.8390   27.4390   46.0150 C   0  0  0  0  0  0  0  0  0  0  0  0
   34.4540   25.8680   48.4100 H   0  0  0  0  0  0  0  0  0  0  0  0
   32.9420   24.4570   47.1890 H   0  0  0  0  0  0  0  0  0  0  0  0
   30.8370   28.0330   45.0980 C   0  0  0  0  0  0  0  0  0  0  0  0
   29.9410   27.0600   44.6510 F   0  0  0  0  0  0  0  0  0  0  0  0
   31.4010   28.6860   44.0510 F   0  0  0  0  0  0  0  0  0  0  0  0
   30.0600   28.9500   45.8050 F   0  0  0  0  0  0  0  0  0  0  0  0
   37.0820   31.1220   47.5250 C   0  0  2  0  0  3  0  0  0  0  0  0
   36.7540   31.2580   46.0590 C   0  0  0  0  0  3  0  0  0  0  0  0
   36.4810   30.2650   45.6940 H   0  0  0  0  0  0  0  0  0  0  0  0
   38.1250   31.6940   45.5150 C   0  0  0  0  0  3  0  0  0  0  0  0
   38.2240   32.8000   45.6580 H   0  0  0  0  0  0  0  0  0  0  0  0
   39.0670   31.1250   46.3280 O   0  0  0  0  0  0  0  0  0  0  0  0
   38.4370   30.4110   47.3130 C   0  0  0  0  0  3  0  0  0  0  0  0
   38.1800   29.4140   46.8970 H   0  0  0  0  0  0  0  0  0  0  0  0
   37.2500   30.9740   50.4640 C   0  0  0  0  0  0  0  0  0  0  0  0
   38.5690   30.7710   50.0950 F   0  0  0  0  0  0  0  0  0  0  0  0
   36.9120   32.2950   50.3040 F   0  0  0  0  0  0  0  0  0  0  0  0
   37.1710   30.7080   51.8220 F   0  0  0  0  0  0  0  0  0  0  0  0
  1  7  1  0  0  0  0
  2  1  1  0  0  0  0
  2 30  1  0  0  0  0
  3  2  2  0  0  0  0
  4  3  1  0  0  0  0
  4  5  2  0  0  0  0
  5  6  1  0  0  0  0
  6  1  2  0  0  0  0
  8  9  1  0  0  0  0
  9 10  1  0  0  0  0
 10 11  2  0  0  0  0
 10  5  1  0  0  0  0
 11 16  1  0  0  0  0
 12 17  1  0  0  0  0
 12 11  1  0  0  0  0
 13 12  2  0  0  0  0
 14 13  1  0  0  0  0
 15 13  1  0  0  0  0
 15  9  2  0  0  0  0
 18 21  1  0  0  0  0
 18 15  1  0  0  0  0
 19 18  1  0  0  0  0
 20 18  1  0  0  0  0
 22  3  1  1  0  0  0
 23 22  1  0  0  0  0
 24 23  1  0  0  0  0
 25 26  1  0  0  0  0
 25 23  1  0  0  0  0
 25 27  1  0  0  0  0
 27 28  1  0  0  0  0
 28 22  1  0  0  0  0
 29 28  1  0  0  0  0
 30 33  1  0  0  0  0
 31 30  1  0  0  0  0
 32 30  1  0  0  0  0
M  END
>  <minimizedAffinity>
-5.56607151

>  <minimizedRMSD>
0.325816423

$$$$
