
 OpenBabel03272508573D

 42 45  0  0  1  0  0  0  0  0999 V2000
   38.9230   31.0710   43.6130 C   0  0  0  0  0  0  0  0  0  0  0  0
   40.0680   30.3260   43.6490 C   0  0  0  0  0  0  0  0  0  0  0  0
   40.7980   30.2120   42.4780 C   0  0  0  0  0  0  0  0  0  0  0  0
   40.3320   30.8510   41.3560 C   0  0  0  0  0  0  0  0  0  0  0  0
   39.1750   31.6050   41.3150 C   0  0  0  0  0  0  0  0  0  0  0  0
   38.5160   31.6770   42.4770 N   0  0  0  0  0  0  0  0  0  0  0  0
   40.4230   29.8280   44.5440 H   0  0  0  0  0  0  0  0  0  0  0  0
   41.7060   29.6350   42.4610 H   0  0  0  0  0  0  0  0  0  0  0  0
   40.9400   30.7290   40.4670 H   0  0  0  0  0  0  0  0  0  0  0  0
   38.1260   31.2110   44.8470 C   0  0  0  0  0  0  0  0  0  0  0  0
   37.1010   30.5150   45.0390 O   0  0  0  0  0  0  0  0  0  0  0  0
   38.5610   32.1800   45.8350 N   0  0  0  0  0  0  0  0  0  0  0  0
   39.2550   32.9090   45.6400 H   0  0  0  0  0  0  0  0  0  0  0  0
   38.6190   31.3190   48.1610 C   0  0  2  0  0  0  0  0  0  0  0  0
   38.8410   32.7860   48.2390 C   0  0  0  0  0  0  0  0  0  0  0  0
   37.9770   32.0920   47.1490 C   0  0  1  0  0  0  0  0  0  0  0  0
   39.5540   30.7550   47.9570 H   0  0  0  0  0  0  0  0  0  0  0  0
   39.7910   33.2260   47.9410 H   0  0  0  0  0  0  0  0  0  0  0  0
   38.2930   33.2880   49.0650 H   0  0  0  0  0  0  0  0  0  0  0  0
   36.8850   32.3240   47.2450 H   0  0  0  0  0  0  0  0  0  0  0  0
   36.0270   29.1400   49.7070 C   0  0  0  0  0  0  0  0  0  0  0  0
   36.2870   29.3330   51.1000 C   0  0  0  0  0  0  0  0  0  0  0  0
   37.3550   30.2260   51.4810 C   0  0  0  0  0  0  0  0  0  0  0  0
   38.0820   30.8570   50.5050 N   0  0  0  0  0  0  0  0  0  0  0  0
   37.7790   30.6260   49.2100 C   0  0  0  0  0  0  0  0  0  0  0  0
   36.7650   29.7790   48.7780 N   0  0  0  0  0  0  0  0  0  0  0  0
   35.2210   28.4640   49.4620 H   0  0  0  0  0  0  0  0  0  0  0  0
   35.7310   28.8500   51.8770 H   0  0  0  0  0  0  0  0  0  0  0  0
   37.5480   30.3700   52.5320 H   0  0  0  0  0  0  0  0  0  0  0  0
   38.7370   32.2580   40.0870 C   0  0  0  0  0  0  0  0  0  0  0  0
   39.5830   32.3770   39.1450 O   0  0  0  0  0  0  0  0  0  0  0  0
   36.8200   30.1450   39.1830 Cl  0  0  0  0  0  0  0  0  0  0  0  0
   36.4930   31.8450   39.4050 C   0  0  0  0  0  0  0  0  0  0  0  0
   37.4110   32.7920   39.8260 C   0  0  0  0  0  0  0  0  0  0  0  0
   37.0710   34.1200   39.9750 C   0  0  0  0  0  0  0  0  0  0  0  0
   37.8430   34.7820   40.3040 H   0  0  0  0  0  0  0  0  0  0  0  0
   35.7690   34.4700   39.6850 C   0  0  0  0  0  0  0  0  0  0  0  0
   35.5100   35.5160   39.8060 H   0  0  0  0  0  0  0  0  0  0  0  0
   34.8180   33.5680   39.2640 C   0  0  0  0  0  0  0  0  0  0  0  0
   33.8090   33.8820   39.0470 H   0  0  0  0  0  0  0  0  0  0  0  0
   35.1860   32.2380   39.1220 C   0  0  0  0  0  0  0  0  0  0  0  0
   33.9470   31.1290   38.5840 Cl  0  0  0  0  0  0  0  0  0  0  0  0
  1  2  1  0  0  0  0
  1 10  1  0  0  0  0
  2  7  1  0  0  0  0
  3  2  2  0  0  0  0
  4  3  1  0  0  0  0
  5  4  2  0  0  0  0
  5  6  1  0  0  0  0
  6  1  2  0  0  0  0
  8  3  1  0  0  0  0
  9  4  1  0  0  0  0
 10 11  2  0  0  0  0
 10 12  1  0  0  0  0
 12 16  1  0  0  0  0
 13 12  1  0  0  0  0
 14 17  1  6  0  0  0
 14 15  1  0  0  0  0
 14 25  1  0  0  0  0
 15 19  1  0  0  0  0
 16 20  1  1  0  0  0
 16 14  1  0  0  0  0
 16 15  1  0  0  0  0
 18 15  1  0  0  0  0
 21 22  1  0  0  0  0
 22 23  2  0  0  0  0
 22 28  1  0  0  0  0
 23 29  1  0  0  0  0
 24 23  1  0  0  0  0
 25 24  2  0  0  0  0
 26 25  1  0  0  0  0
 26 21  2  0  0  0  0
 27 21  1  0  0  0  0
 30  5  1  0  0  0  0
 31 30  2  0  0  0  0
 32 33  1  0  0  0  0
 33 34  1  0  0  0  0
 34 35  2  0  0  0  0
 34 30  1  0  0  0  0
 35 36  1  0  0  0  0
 37 38  1  0  0  0  0
 37 35  1  0  0  0  0
 39 37  2  0  0  0  0
 40 39  1  0  0  0  0
 41 39  1  0  0  0  0
 41 33  2  0  0  0  0
 42 41  1  0  0  0  0
M  END
>  <minimizedAffinity>
-5.37894249

>  <minimizedRMSD>
2.83040738

$$$$
