
 OpenBabel03272508573D

 42 45  0  0  1  0  0  0  0  0999 V2000
   39.1020   31.5090   43.3810 C   0  0  0  0  0  0  0  0  0  0  0  0
   40.0860   30.5700   43.5170 C   0  0  0  0  0  0  0  0  0  0  0  0
   40.8080   30.2270   42.3870 C   0  0  0  0  0  0  0  0  0  0  0  0
   40.4960   30.8460   41.2030 C   0  0  0  0  0  0  0  0  0  0  0  0
   39.5020   31.7950   41.0600 C   0  0  0  0  0  0  0  0  0  0  0  0
   38.8420   32.0830   42.1870 N   0  0  0  0  0  0  0  0  0  0  0  0
   40.3210   30.0900   44.4610 H   0  0  0  0  0  0  0  0  0  0  0  0
   41.5920   29.4920   42.4500 H   0  0  0  0  0  0  0  0  0  0  0  0
   41.0910   30.5410   40.3490 H   0  0  0  0  0  0  0  0  0  0  0  0
   38.3170   31.8950   44.5690 C   0  0  0  0  0  0  0  0  0  0  0  0
   37.1470   32.3300   44.4600 O   0  0  0  0  0  0  0  0  0  0  0  0
   38.9380   31.7560   45.8730 N   0  0  0  0  0  0  0  0  0  0  0  0
   39.9440   31.6090   46.0030 H   0  0  0  0  0  0  0  0  0  0  0  0
   38.4500   31.1640   48.2320 C   0  0  2  0  0  0  0  0  0  0  0  0
   38.7140   32.6260   48.2000 C   0  0  0  0  0  0  0  0  0  0  0  0
   38.0790   31.8310   47.0260 C   0  0  1  0  0  0  0  0  0  0  0  0
   39.3800   30.5620   48.3010 H   0  0  0  0  0  0  0  0  0  0  0  0
   39.7250   33.0100   48.0740 H   0  0  0  0  0  0  0  0  0  0  0  0
   38.0230   33.2300   48.8270 H   0  0  0  0  0  0  0  0  0  0  0  0
   37.0030   32.0940   46.8530 H   0  0  0  0  0  0  0  0  0  0  0  0
   35.0820   30.2460   49.5250 C   0  0  0  0  0  0  0  0  0  0  0  0
   35.4190   29.5750   50.7430 C   0  0  0  0  0  0  0  0  0  0  0  0
   36.8120   29.4610   51.1010 C   0  0  0  0  0  0  0  0  0  0  0  0
   37.7640   29.9930   50.2700 N   0  0  0  0  0  0  0  0  0  0  0  0
   37.3710   30.6130   49.1360 C   0  0  0  0  0  0  0  0  0  0  0  0
   36.0480   30.7560   48.7360 N   0  0  0  0  0  0  0  0  0  0  0  0
   34.0300   30.3110   49.2920 H   0  0  0  0  0  0  0  0  0  0  0  0
   34.6910   29.1520   51.4050 H   0  0  0  0  0  0  0  0  0  0  0  0
   37.0630   28.9550   52.0200 H   0  0  0  0  0  0  0  0  0  0  0  0
   39.2220   32.4140   39.7690 C   0  0  0  0  0  0  0  0  0  0  0  0
   38.6450   33.5470   39.7690 O   0  0  0  0  0  0  0  0  0  0  0  0
   37.0790   30.5880   38.7580 Cl  0  0  0  0  0  0  0  0  0  0  0  0
   38.5740   31.0080   37.9610 C   0  0  0  0  0  0  0  0  0  0  0  0
   39.5420   31.8600   38.4650 C   0  0  0  0  0  0  0  0  0  0  0  0
   40.7000   32.1390   37.7690 C   0  0  0  0  0  0  0  0  0  0  0  0
   41.3920   32.8070   38.2340 H   0  0  0  0  0  0  0  0  0  0  0  0
   40.8550   31.5310   36.5420 C   0  0  0  0  0  0  0  0  0  0  0  0
   41.7680   31.7560   36.0010 H   0  0  0  0  0  0  0  0  0  0  0  0
   39.9240   30.6780   35.9950 C   0  0  0  0  0  0  0  0  0  0  0  0
   40.0810   30.2220   35.0300 H   0  0  0  0  0  0  0  0  0  0  0  0
   38.7670   30.4130   36.7160 C   0  0  0  0  0  0  0  0  0  0  0  0
   37.6130   29.3230   35.9840 Cl  0  0  0  0  0  0  0  0  0  0  0  0
  1  2  1  0  0  0  0
  1 10  1  0  0  0  0
  2  7  1  0  0  0  0
  3  8  1  0  0  0  0
  3  2  2  0  0  0  0
  4  3  1  0  0  0  0
  5  4  2  0  0  0  0
  5  6  1  0  0  0  0
  6  1  2  0  0  0  0
  9  4  1  0  0  0  0
 10 12  1  0  0  0  0
 11 10  2  0  0  0  0
 12 13  1  0  0  0  0
 12 16  1  0  0  0  0
 14 17  1  6  0  0  0
 14 25  1  0  0  0  0
 15 14  1  0  0  0  0
 15 19  1  0  0  0  0
 16 20  1  6  0  0  0
 16 15  1  0  0  0  0
 16 14  1  0  0  0  0
 18 15  1  0  0  0  0
 21 22  1  0  0  0  0
 22 23  2  0  0  0  0
 22 28  1  0  0  0  0
 23 29  1  0  0  0  0
 24 23  1  0  0  0  0
 25 24  2  0  0  0  0
 26 25  1  0  0  0  0
 26 21  2  0  0  0  0
 27 21  1  0  0  0  0
 30 31  2  0  0  0  0
 30  5  1  0  0  0  0
 33 34  1  0  0  0  0
 33 32  1  0  0  0  0
 34 30  1  0  0  0  0
 35 36  1  0  0  0  0
 35 34  2  0  0  0  0
 37 35  1  0  0  0  0
 38 37  1  0  0  0  0
 39 37  2  0  0  0  0
 39 41  1  0  0  0  0
 40 39  1  0  0  0  0
 41 33  2  0  0  0  0
 42 41  1  0  0  0  0
M  END
>  <minimizedAffinity>
-4.9699173

>  <minimizedRMSD>
0.703602552

$$$$
