
 OpenBabel03272509313D

 40 42  0  0  1  0  0  0  0  0999 V2000
   37.6960   31.8250   44.9860 C   0  0  2  0  0  0  0  0  0  0  0  0
   39.1240   32.2640   45.1310 C   0  0  0  0  0  0  0  0  0  0  0  0
   39.8510   31.5350   46.2430 C   0  0  0  0  0  0  0  0  0  0  0  0
   39.1190   31.7060   47.5740 C   0  0  0  0  0  0  0  0  0  0  0  0
   37.6130   31.7280   47.4400 C   0  0  0  0  0  0  0  0  0  0  0  0
   37.2400   30.9970   46.1410 C   0  0  1  0  0  0  0  0  0  0  0  0
   36.9700   32.6820   44.9360 H   0  0  0  0  0  0  0  0  0  0  0  0
   39.0490   33.3340   45.5260 H   0  0  0  0  0  0  0  0  0  0  0  0
   39.7130   32.3390   44.2410 H   0  0  0  0  0  0  0  0  0  0  0  0
   40.8390   31.9750   46.3460 H   0  0  0  0  0  0  0  0  0  0  0  0
   39.8960   30.4450   46.0630 H   0  0  0  0  0  0  0  0  0  0  0  0
   39.4070   30.8400   48.2210 H   0  0  0  0  0  0  0  0  0  0  0  0
   39.4890   32.6260   48.0390 H   0  0  0  0  0  0  0  0  0  0  0  0
   37.2610   32.7510   47.3260 H   0  0  0  0  0  0  0  0  0  0  0  0
   37.0950   31.2600   48.2940 H   0  0  0  0  0  0  0  0  0  0  0  0
   37.8200   30.1140   46.2360 H   0  0  0  0  0  0  0  0  0  0  0  0
   37.4970   31.0570   43.7300 C   0  0  0  0  0  0  0  0  0  0  0  0
   38.5720   30.2140   43.3560 C   0  0  0  0  0  0  0  0  0  0  0  0
   38.3980   29.4770   42.1780 C   0  0  0  0  0  0  0  0  0  0  0  0
   37.2220   29.6130   41.4720 N   0  0  0  0  0  0  0  0  0  0  0  0
   36.2170   30.4420   41.8820 C   0  0  0  0  0  0  0  0  0  0  0  0
   36.3800   31.1520   43.0120 N   0  0  0  0  0  0  0  0  0  0  0  0
   39.5190   30.0140   43.8140 H   0  0  0  0  0  0  0  0  0  0  0  0
   39.1150   28.8030   41.7670 H   0  0  0  0  0  0  0  0  0  0  0  0
   35.3200   30.4990   41.2820 H   0  0  0  0  0  0  0  0  0  0  0  0
   35.0300   30.2840   47.1340 C   0  0  0  0  0  0  0  0  0  0  0  0
   35.1340   30.5500   48.4010 O   0  0  0  0  0  0  0  0  0  0  0  0
   35.9030   30.5360   46.0580 N   0  0  0  0  0  0  0  0  0  0  0  0
   35.3820   30.3200   45.1520 H   0  0  0  0  0  0  0  0  0  0  0  0
   34.3310   27.6450   48.6710 Cl  0  0  0  0  0  0  0  0  0  0  0  0
   33.2320   28.4750   47.6330 C   0  0  0  0  0  0  0  0  0  0  0  0
   33.7130   29.6050   47.0440 C   0  0  0  0  0  0  0  0  0  0  0  0
   32.7690   30.2330   46.2120 C   0  0  0  0  0  0  0  0  0  0  0  0
   33.0560   31.1590   45.6860 H   0  0  0  0  0  0  0  0  0  0  0  0
   31.4770   29.8150   45.9670 C   0  0  0  0  0  0  0  0  0  0  0  0
   30.8310   30.3770   45.3070 H   0  0  0  0  0  0  0  0  0  0  0  0
   31.0910   28.6700   46.6070 C   0  0  0  0  0  0  0  0  0  0  0  0
   30.0850   28.2980   46.4450 H   0  0  0  0  0  0  0  0  0  0  0  0
   31.9640   28.0090   47.4310 C   0  0  0  0  0  0  0  0  0  0  0  0
   31.5090   26.5350   48.2760 Cl  0  0  0  0  0  0  0  0  0  0  0  0
  1  7  1  6  0  0  0
  1  2  1  0  0  0  0
  1  6  1  0  0  0  0
  2  8  1  0  0  0  0
  2  3  1  0  0  0  0
  3 10  1  0  0  0  0
  3  4  1  0  0  0  0
  4 13  1  0  0  0  0
  4 12  1  0  0  0  0
  5  4  1  0  0  0  0
  5 15  1  0  0  0  0
  6 16  1  6  0  0  0
  6  5  1  0  0  0  0
  9  2  1  0  0  0  0
 11  3  1  0  0  0  0
 14  5  1  0  0  0  0
 17  1  1  0  0  0  0
 18 17  1  0  0  0  0
 18 23  1  0  0  0  0
 19 18  2  0  0  0  0
 20 21  2  0  0  0  0
 20 19  1  0  0  0  0
 21 22  1  0  0  0  0
 22 17  2  0  0  0  0
 24 19  1  0  0  0  0
 25 21  1  0  0  0  0
 26 27  2  0  0  0  0
 28  6  1  0  0  0  0
 28 26  1  0  0  0  0
 29 28  1  0  0  0  0
 31 30  1  0  0  0  0
 32 26  1  0  0  0  0
 32 31  2  0  0  0  0
 33 32  1  0  0  0  0
 34 33  1  0  0  0  0
 35 33  2  0  0  0  0
 35 37  1  0  0  0  0
 36 35  1  0  0  0  0
 37 39  2  0  0  0  0
 38 37  1  0  0  0  0
 39 31  1  0  0  0  0
 39 40  1  0  0  0  0
M  END
>  <minimizedAffinity>
-5.21370363

>  <minimizedRMSD>
4.04375935

$$$$
