
 OpenBabel03272503133D

 48 52  0  0  0  0  0  0  0  0999 V2000
   39.2160   32.2640   42.5850 C   0  0  0  0  0  0  0  0  0  0  0  0
   39.7110   31.5210   43.6460 C   0  0  0  0  0  0  0  0  0  0  0  0
   40.5620   30.4750   43.4830 C   0  0  0  0  0  0  0  0  0  0  0  0
   40.9730   30.1140   42.1960 C   0  0  0  0  0  0  0  0  0  0  0  0
   41.7880   29.1680   41.7390 N   0  0  0  0  0  0  0  0  0  0  0  0
   41.8390   29.2730   40.4250 C   0  0  0  0  0  0  0  0  0  0  0  0
   41.0540   30.2860   40.0520 N   0  0  0  0  0  0  0  0  0  0  0  0
   40.4850   30.8470   41.1500 C   0  0  0  0  0  0  0  0  0  0  0  0
   39.6060   31.9280   41.2700 C   0  0  0  0  0  0  0  0  0  0  0  0
   38.5370   33.0990   42.6960 H   0  0  0  0  0  0  0  0  0  0  0  0
   40.9530   29.8920   44.2930 H   0  0  0  0  0  0  0  0  0  0  0  0
   42.3230   28.4390   42.2970 H   0  0  0  0  0  0  0  0  0  0  0  0
   42.3950   28.6820   39.6910 H   0  0  0  0  0  0  0  0  0  0  0  0
   39.2670   31.9230   44.9610 C   0  0  0  0  0  0  0  0  0  0  0  0
   38.1720   32.5640   45.0850 O   0  0  0  0  0  0  0  0  0  0  0  0
   39.9500   31.6660   46.1740 N   0  0  0  0  0  0  0  0  0  0  0  0
   40.8460   31.1570   46.1300 H   0  0  0  0  0  0  0  0  0  0  0  0
   38.1140   30.1630   47.5010 F   0  0  0  0  0  0  0  0  0  0  0  0
   38.3700   31.4020   48.0000 C   0  0  0  0  0  0  0  0  0  0  0  0
   37.7140   31.8310   49.1130 C   0  0  0  0  0  0  0  0  0  0  0  0
   38.0180   33.0870   49.5640 C   0  0  0  0  0  0  0  0  0  0  0  0
   38.9290   33.8900   48.9440 C   0  0  0  0  0  0  0  0  0  0  0  0
   39.5830   33.4290   47.8120 C   0  0  0  0  0  0  0  0  0  0  0  0
   39.2900   32.1610   47.3400 C   0  0  0  0  0  0  0  0  0  0  0  0
   37.5050   33.4540   50.4540 H   0  0  0  0  0  0  0  0  0  0  0  0
   39.1650   34.8820   49.3040 H   0  0  0  0  0  0  0  0  0  0  0  0
   40.3080   34.0550   47.3110 H   0  0  0  0  0  0  0  0  0  0  0  0
   36.0700   29.3450   51.4490 C   0  0  0  0  0  0  0  0  0  0  0  0
   37.0350   30.2060   50.8700 C   0  0  0  0  0  0  0  0  0  0  0  0
   36.7450   30.9320   49.7380 C   0  0  0  0  0  0  0  0  0  0  0  0
   35.4820   30.7750   49.2080 N   0  0  0  0  0  0  0  0  0  0  0  0
   34.5720   29.9590   49.7590 C   0  0  0  0  0  0  0  0  0  0  0  0
   34.8620   29.2610   50.8530 N   0  0  0  0  0  0  0  0  0  0  0  0
   36.3050   28.7760   52.3390 H   0  0  0  0  0  0  0  0  0  0  0  0
   38.0210   30.3030   51.3170 H   0  0  0  0  0  0  0  0  0  0  0  0
   33.6390   29.9640   49.2060 H   0  0  0  0  0  0  0  0  0  0  0  0
   39.1240   32.6570   40.2390 O   0  0  0  0  0  0  0  0  0  0  0  0
   38.8030   34.3640   37.4760 Cl  0  0  0  0  0  0  0  0  0  0  0  0
   37.7760   33.0960   38.0770 C   0  0  0  0  0  0  0  0  0  0  0  0
   38.2450   32.6340   39.2730 C   0  0  0  0  0  0  0  0  0  0  0  0
   37.3740   31.6140   39.7580 C   0  0  0  0  0  0  0  0  0  0  0  0
   37.3670   30.9760   40.6720 H   0  0  0  0  0  0  0  0  0  0  0  0
   36.2240   31.1600   39.1070 C   0  0  0  0  0  0  0  0  0  0  0  0
   35.4790   30.3980   39.3620 H   0  0  0  0  0  0  0  0  0  0  0  0
   35.8790   31.7320   37.8880 C   0  0  0  0  0  0  0  0  0  0  0  0
   35.0270   31.4860   37.2760 H   0  0  0  0  0  0  0  0  0  0  0  0
   36.6690   32.7100   37.3740 C   0  0  0  0  0  0  0  0  0  0  0  0
   36.3650   33.5140   35.8700 Cl  0  0  0  0  0  0  0  0  0  0  0  0
  1 10  1  0  0  0  0
  1  2  1  0  0  0  0
  2 14  1  0  0  0  0
  3  2  2  0  0  0  0
  3 11  1  0  0  0  0
  4  3  1  0  0  0  0
  5  4  1  0  0  0  0
  5 12  1  0  0  0  0
  6  5  1  0  0  0  0
  7  6  2  0  0  0  0
  7  8  1  0  0  0  0
  8  9  1  0  0  0  0
  8  4  2  0  0  0  0
  9  1  2  0  0  0  0
 13  6  1  0  0  0  0
 14 15  2  0  0  0  0
 14 16  1  0  0  0  0
 16 24  1  0  0  0  0
 17 16  1  0  0  0  0
 18 19  1  0  0  0  0
 19 20  1  0  0  0  0
 20 21  2  0  0  0  0
 20 30  1  0  0  0  0
 21 25  1  0  0  0  0
 22 26  1  0  0  0  0
 22 21  1  0  0  0  0
 23 22  2  0  0  0  0
 24 23  1  0  0  0  0
 24 19  2  0  0  0  0
 27 23  1  0  0  0  0
 28 34  1  0  0  0  0
 29 35  1  0  0  0  0
 29 28  1  0  0  0  0
 30 29  2  0  0  0  0
 31 30  1  0  0  0  0
 31 32  2  0  0  0  0
 32 33  1  0  0  0  0
 33 28  2  0  0  0  0
 36 32  1  0  0  0  0
 37  9  1  0  0  0  0
 38 39  1  0  0  0  0
 39 40  1  0  0  0  0
 40 41  2  0  0  0  0
 40 37  1  0  0  0  0
 41 42  1  0  0  0  0
 43 44  1  0  0  0  0
 43 41  1  0  0  0  0
 45 43  2  0  0  0  0
 46 45  1  0  0  0  0
 47 45  1  0  0  0  0
 47 39  2  0  0  0  0
 48 47  1  0  0  0  0
M  END
>  <minimizedAffinity>
-7.10589123

>  <minimizedRMSD>
0.305132061

$$$$
