
 OpenBabel03272503133D

 48 52  0  0  0  0  0  0  0  0999 V2000
   39.2210   32.2330   42.5720 C   0  0  0  0  0  0  0  0  0  0  0  0
   39.7210   31.5000   43.6380 C   0  0  0  0  0  0  0  0  0  0  0  0
   40.5790   30.4590   43.4820 C   0  0  0  0  0  0  0  0  0  0  0  0
   40.9910   30.0920   42.1970 C   0  0  0  0  0  0  0  0  0  0  0  0
   41.8120   29.1480   41.7450 N   0  0  0  0  0  0  0  0  0  0  0  0
   41.8620   29.2440   40.4310 C   0  0  0  0  0  0  0  0  0  0  0  0
   41.0710   30.2500   40.0520 N   0  0  0  0  0  0  0  0  0  0  0  0
   40.4980   30.8140   41.1460 C   0  0  0  0  0  0  0  0  0  0  0  0
   39.6130   31.8910   41.2600 C   0  0  0  0  0  0  0  0  0  0  0  0
   38.5370   33.0640   42.6780 H   0  0  0  0  0  0  0  0  0  0  0  0
   40.9740   29.8830   44.2950 H   0  0  0  0  0  0  0  0  0  0  0  0
   42.3530   28.4260   42.3080 H   0  0  0  0  0  0  0  0  0  0  0  0
   42.4210   28.6520   39.7010 H   0  0  0  0  0  0  0  0  0  0  0  0
   39.2750   31.9070   44.9510 C   0  0  0  0  0  0  0  0  0  0  0  0
   38.1830   32.5540   45.0700 O   0  0  0  0  0  0  0  0  0  0  0  0
   39.9540   31.6520   46.1660 N   0  0  0  0  0  0  0  0  0  0  0  0
   40.8480   31.1380   46.1260 H   0  0  0  0  0  0  0  0  0  0  0  0
   38.1190   30.1540   47.5020 F   0  0  0  0  0  0  0  0  0  0  0  0
   38.3730   31.3970   47.9930 C   0  0  0  0  0  0  0  0  0  0  0  0
   37.7160   31.8320   49.1030 C   0  0  0  0  0  0  0  0  0  0  0  0
   38.0190   33.0910   49.5460 C   0  0  0  0  0  0  0  0  0  0  0  0
   38.9290   33.8910   48.9220 C   0  0  0  0  0  0  0  0  0  0  0  0
   39.5840   33.4250   47.7930 C   0  0  0  0  0  0  0  0  0  0  0  0
   39.2930   32.1530   47.3290 C   0  0  0  0  0  0  0  0  0  0  0  0
   37.5050   33.4630   50.4350 H   0  0  0  0  0  0  0  0  0  0  0  0
   39.1640   34.8850   49.2760 H   0  0  0  0  0  0  0  0  0  0  0  0
   40.3090   34.0470   47.2880 H   0  0  0  0  0  0  0  0  0  0  0  0
   36.0760   29.3540   51.4500 C   0  0  0  0  0  0  0  0  0  0  0  0
   37.0400   30.2130   50.8660 C   0  0  0  0  0  0  0  0  0  0  0  0
   36.7480   30.9360   49.7340 C   0  0  0  0  0  0  0  0  0  0  0  0
   35.4840   30.7780   49.2080 N   0  0  0  0  0  0  0  0  0  0  0  0
   34.5740   29.9650   49.7630 C   0  0  0  0  0  0  0  0  0  0  0  0
   34.8660   29.2700   50.8580 N   0  0  0  0  0  0  0  0  0  0  0  0
   36.3120   28.7880   52.3420 H   0  0  0  0  0  0  0  0  0  0  0  0
   38.0280   30.3100   51.3110 H   0  0  0  0  0  0  0  0  0  0  0  0
   33.6400   29.9690   49.2130 H   0  0  0  0  0  0  0  0  0  0  0  0
   39.1250   32.6090   40.2240 O   0  0  0  0  0  0  0  0  0  0  0  0
   38.0800   30.4490   38.0110 Cl  0  0  0  0  0  0  0  0  0  0  0  0
   37.4520   32.0370   38.3380 C   0  0  0  0  0  0  0  0  0  0  0  0
   38.1660   32.6330   39.3370 C   0  0  0  0  0  0  0  0  0  0  0  0
   37.6490   33.9420   39.5700 C   0  0  0  0  0  0  0  0  0  0  0  0
   37.9180   34.7630   40.2740 H   0  0  0  0  0  0  0  0  0  0  0  0
   36.5790   34.5190   38.8840 C   0  0  0  0  0  0  0  0  0  0  0  0
   36.0880   35.4960   38.9600 H   0  0  0  0  0  0  0  0  0  0  0  0
   35.9490   33.7800   37.8890 C   0  0  0  0  0  0  0  0  0  0  0  0
   35.1150   34.0920   37.2790 H   0  0  0  0  0  0  0  0  0  0  0  0
   36.3970   32.5260   37.6190 C   0  0  0  0  0  0  0  0  0  0  0  0
   35.7130   31.4900   36.4100 Cl  0  0  0  0  0  0  0  0  0  0  0  0
  1 10  1  0  0  0  0
  1  2  1  0  0  0  0
  2 14  1  0  0  0  0
  3  2  2  0  0  0  0
  3 11  1  0  0  0  0
  4  3  1  0  0  0  0
  5  4  1  0  0  0  0
  5 12  1  0  0  0  0
  6  5  1  0  0  0  0
  7  6  2  0  0  0  0
  7  8  1  0  0  0  0
  8  9  1  0  0  0  0
  8  4  2  0  0  0  0
  9  1  2  0  0  0  0
 13  6  1  0  0  0  0
 14 15  2  0  0  0  0
 14 16  1  0  0  0  0
 16 24  1  0  0  0  0
 17 16  1  0  0  0  0
 18 19  1  0  0  0  0
 19 20  1  0  0  0  0
 20 21  2  0  0  0  0
 20 30  1  0  0  0  0
 21 25  1  0  0  0  0
 22 26  1  0  0  0  0
 22 21  1  0  0  0  0
 23 22  2  0  0  0  0
 24 23  1  0  0  0  0
 24 19  2  0  0  0  0
 27 23  1  0  0  0  0
 28 34  1  0  0  0  0
 29 35  1  0  0  0  0
 29 28  1  0  0  0  0
 30 29  2  0  0  0  0
 31 30  1  0  0  0  0
 31 32  2  0  0  0  0
 32 33  1  0  0  0  0
 33 28  2  0  0  0  0
 36 32  1  0  0  0  0
 37  9  1  0  0  0  0
 38 39  1  0  0  0  0
 39 40  1  0  0  0  0
 40 41  2  0  0  0  0
 40 37  1  0  0  0  0
 41 42  1  0  0  0  0
 43 44  1  0  0  0  0
 43 41  1  0  0  0  0
 45 43  2  0  0  0  0
 46 45  1  0  0  0  0
 47 45  1  0  0  0  0
 47 39  2  0  0  0  0
 48 47  1  0  0  0  0
M  END
>  <minimizedAffinity>
-7.22949839

>  <minimizedRMSD>
0.635744929

$$$$
