
 OpenBabel03272503133D

 48 52  0  0  0  0  0  0  0  0999 V2000
   39.2250   32.2320   42.5690 C   0  0  0  0  0  0  0  0  0  0  0  0
   39.7230   31.4980   43.6360 C   0  0  0  0  0  0  0  0  0  0  0  0
   40.5800   30.4560   43.4800 C   0  0  0  0  0  0  0  0  0  0  0  0
   40.9920   30.0880   42.1960 C   0  0  0  0  0  0  0  0  0  0  0  0
   41.8120   29.1430   41.7440 N   0  0  0  0  0  0  0  0  0  0  0  0
   41.8630   29.2400   40.4300 C   0  0  0  0  0  0  0  0  0  0  0  0
   41.0740   30.2470   40.0500 N   0  0  0  0  0  0  0  0  0  0  0  0
   40.5010   30.8120   41.1440 C   0  0  0  0  0  0  0  0  0  0  0  0
   39.6180   31.8900   41.2570 C   0  0  0  0  0  0  0  0  0  0  0  0
   38.5430   33.0640   42.6750 H   0  0  0  0  0  0  0  0  0  0  0  0
   40.9730   29.8790   44.2940 H   0  0  0  0  0  0  0  0  0  0  0  0
   42.3510   28.4200   42.3070 H   0  0  0  0  0  0  0  0  0  0  0  0
   42.4220   28.6460   39.7000 H   0  0  0  0  0  0  0  0  0  0  0  0
   39.2770   31.9070   44.9480 C   0  0  0  0  0  0  0  0  0  0  0  0
   38.1860   32.5540   45.0670 O   0  0  0  0  0  0  0  0  0  0  0  0
   39.9550   31.6500   46.1640 N   0  0  0  0  0  0  0  0  0  0  0  0
   40.8480   31.1360   46.1250 H   0  0  0  0  0  0  0  0  0  0  0  0
   38.1200   30.1530   47.5000 F   0  0  0  0  0  0  0  0  0  0  0  0
   38.3730   31.3970   47.9910 C   0  0  0  0  0  0  0  0  0  0  0  0
   37.7160   31.8320   49.1000 C   0  0  0  0  0  0  0  0  0  0  0  0
   38.0190   33.0920   49.5430 C   0  0  0  0  0  0  0  0  0  0  0  0
   38.9290   33.8910   48.9180 C   0  0  0  0  0  0  0  0  0  0  0  0
   39.5840   33.4240   47.7900 C   0  0  0  0  0  0  0  0  0  0  0  0
   39.2930   32.1520   47.3260 C   0  0  0  0  0  0  0  0  0  0  0  0
   37.5050   33.4640   50.4310 H   0  0  0  0  0  0  0  0  0  0  0  0
   39.1640   34.8860   49.2710 H   0  0  0  0  0  0  0  0  0  0  0  0
   40.3090   34.0470   47.2850 H   0  0  0  0  0  0  0  0  0  0  0  0
   36.0770   29.3550   51.4490 C   0  0  0  0  0  0  0  0  0  0  0  0
   37.0400   30.2140   50.8640 C   0  0  0  0  0  0  0  0  0  0  0  0
   36.7480   30.9360   49.7320 C   0  0  0  0  0  0  0  0  0  0  0  0
   35.4840   30.7780   49.2050 N   0  0  0  0  0  0  0  0  0  0  0  0
   34.5740   29.9650   49.7610 C   0  0  0  0  0  0  0  0  0  0  0  0
   34.8670   29.2710   50.8570 N   0  0  0  0  0  0  0  0  0  0  0  0
   36.3120   28.7900   52.3410 H   0  0  0  0  0  0  0  0  0  0  0  0
   38.0280   30.3120   51.3090 H   0  0  0  0  0  0  0  0  0  0  0  0
   33.6400   29.9690   49.2100 H   0  0  0  0  0  0  0  0  0  0  0  0
   39.1320   32.6100   40.2210 O   0  0  0  0  0  0  0  0  0  0  0  0
   37.9820   30.3790   38.1340 Cl  0  0  0  0  0  0  0  0  0  0  0  0
   37.4380   32.0150   38.3620 C   0  0  0  0  0  0  0  0  0  0  0  0
   38.1790   32.6310   39.3280 C   0  0  0  0  0  0  0  0  0  0  0  0
   37.7300   33.9760   39.4790 C   0  0  0  0  0  0  0  0  0  0  0  0
   38.0410   34.8230   40.1340 H   0  0  0  0  0  0  0  0  0  0  0  0
   36.6950   34.5670   38.7520 C   0  0  0  0  0  0  0  0  0  0  0  0
   36.2560   35.5710   38.7660 H   0  0  0  0  0  0  0  0  0  0  0  0
   36.0320   33.8050   37.7980 C   0  0  0  0  0  0  0  0  0  0  0  0
   35.2180   34.1230   37.1660 H   0  0  0  0  0  0  0  0  0  0  0  0
   36.4120   32.5150   37.6070 C   0  0  0  0  0  0  0  0  0  0  0  0
   35.6800   31.4450   36.4570 Cl  0  0  0  0  0  0  0  0  0  0  0  0
  1 10  1  0  0  0  0
  1  2  1  0  0  0  0
  2 14  1  0  0  0  0
  3  2  2  0  0  0  0
  3 11  1  0  0  0  0
  4  3  1  0  0  0  0
  5  4  1  0  0  0  0
  5 12  1  0  0  0  0
  6  5  1  0  0  0  0
  7  6  2  0  0  0  0
  7  8  1  0  0  0  0
  8  9  1  0  0  0  0
  8  4  2  0  0  0  0
  9  1  2  0  0  0  0
 13  6  1  0  0  0  0
 14 15  2  0  0  0  0
 14 16  1  0  0  0  0
 16 24  1  0  0  0  0
 17 16  1  0  0  0  0
 18 19  1  0  0  0  0
 19 20  1  0  0  0  0
 20 21  2  0  0  0  0
 20 30  1  0  0  0  0
 21 25  1  0  0  0  0
 22 26  1  0  0  0  0
 22 21  1  0  0  0  0
 23 22  2  0  0  0  0
 24 23  1  0  0  0  0
 24 19  2  0  0  0  0
 27 23  1  0  0  0  0
 28 34  1  0  0  0  0
 29 35  1  0  0  0  0
 29 28  1  0  0  0  0
 30 29  2  0  0  0  0
 31 30  1  0  0  0  0
 31 32  2  0  0  0  0
 32 33  1  0  0  0  0
 33 28  2  0  0  0  0
 36 32  1  0  0  0  0
 37  9  1  0  0  0  0
 38 39  1  0  0  0  0
 39 40  1  0  0  0  0
 40 41  2  0  0  0  0
 40 37  1  0  0  0  0
 41 42  1  0  0  0  0
 43 44  1  0  0  0  0
 43 41  1  0  0  0  0
 45 43  2  0  0  0  0
 46 45  1  0  0  0  0
 47 45  1  0  0  0  0
 47 39  2  0  0  0  0
 48 47  1  0  0  0  0
M  END
>  <minimizedAffinity>
-7.22716665

>  <minimizedRMSD>
0.356342286

$$$$
