
 OpenBabel03272509413D

 37 39  0  0  1  0  0  0  0  0999 V2000
   35.9350   28.0240   32.2960 C   0  0  0  0  0  0  0  0  0  0  0  0
   34.7950   28.8290   32.2370 C   0  0  0  0  0  0  0  0  0  0  0  0
   34.3940   29.6180   33.2950 C   0  0  0  0  0  0  0  0  0  0  0  0
   35.1430   29.6250   34.4740 C   0  0  0  0  0  0  0  0  0  0  0  0
   36.2560   28.8330   34.5180 C   0  0  0  0  0  0  0  0  0  0  0  0
   36.6370   28.0520   33.4450 C   0  0  0  0  0  0  0  0  0  0  0  0
   34.1530   28.8810   31.3470 H   0  0  0  0  0  0  0  0  0  0  0  0
   33.5030   30.2350   33.2230 H   0  0  0  0  0  0  0  0  0  0  0  0
   34.8070   30.2480   35.2770 H   0  0  0  0  0  0  0  0  0  0  0  0
   36.7800   28.8960   35.4630 H   0  0  0  0  0  0  0  0  0  0  0  0
   36.2740   27.2300   31.1270 C   0  0  2  0  0  3  0  0  0  0  0  0
   36.5320   27.9280   30.0700 O   0  0  0  0  0  1  0  0  0  0  0  0
   37.7370   23.9390   30.7190 C   0  0  0  0  0  0  0  0  0  0  0  0
   36.6820   23.0680   30.9840 C   0  0  0  0  0  0  0  0  0  0  0  0
   35.4450   23.6110   31.3060 C   0  0  0  0  0  0  0  0  0  0  0  0
   35.3060   24.9740   31.3510 N   0  0  0  0  0  0  0  0  0  0  0  0
   36.3330   25.7650   31.0930 C   0  0  0  0  0  0  0  0  0  0  0  0
   37.5400   25.2440   30.7790 N   0  0  0  0  0  0  0  0  0  0  0  0
   38.6630   23.4450   30.4780 H   0  0  0  0  0  0  0  0  0  0  0  0
   36.6600   22.0020   30.9810 H   0  0  0  0  0  0  0  0  0  0  0  0
   34.5170   23.1040   31.5400 H   0  0  0  0  0  0  0  0  0  0  0  0
   37.8320   27.2660   33.6490 C   0  0  0  0  0  3  0  0  0  0  0  0
   37.9780   26.2150   34.4330 C   0  0  0  0  0  3  0  0  0  0  0  0
   39.1040   25.3260   34.7190 C   0  0  0  0  0  0  0  0  0  0  0  0
   40.0250   25.9360   34.7940 H   0  0  0  0  0  0  0  0  0  0  0  0
   39.2810   24.6080   33.8920 H   0  0  0  0  0  0  0  0  0  0  0  0
   41.1840   23.2660   35.0190 Cl  0  0  0  0  0  0  0  0  0  0  0  0
   39.9030   23.6600   36.1740 C   0  0  0  0  0  0  0  0  0  0  0  0
   38.9270   24.6320   36.0230 C   0  0  0  0  0  0  0  0  0  0  0  0
   37.9960   24.8190   37.0150 C   0  0  0  0  0  0  0  0  0  0  0  0
   37.2950   25.6080   36.7680 H   0  0  0  0  0  0  0  0  0  0  0  0
   38.0450   24.0370   38.1470 C   0  0  0  0  0  0  0  0  0  0  0  0
   37.2820   24.2470   38.8750 H   0  0  0  0  0  0  0  0  0  0  0  0
   39.0070   23.0650   38.3180 C   0  0  0  0  0  0  0  0  0  0  0  0
   38.9950   22.4810   39.2300 H   0  0  0  0  0  0  0  0  0  0  0  0
   39.9570   22.8660   37.3180 C   0  0  0  0  0  0  0  0  0  0  0  0
   41.1440   21.6160   37.6060 Cl  0  0  0  0  0  0  0  0  0  0  0  0
  1  6  1  0  0  0  0
  2  1  2  0  0  0  0
  2  3  1  0  0  0  0
  3  4  2  0  0  0  0
  4  5  1  0  0  0  0
  4  9  1  0  0  0  0
  5 10  1  0  0  0  0
  6 22  1  0  0  0  0
  6  5  2  0  0  0  0
  7  2  1  0  0  0  0
  8  3  1  0  0  0  0
 11 12  1  6  0  0  0
 11  1  1  0  0  0  0
 13 18  2  0  0  0  0
 13 14  1  0  0  0  0
 14 15  2  0  0  0  0
 15 16  1  0  0  0  0
 15 21  1  0  0  0  0
 17 11  1  0  0  0  0
 17 16  2  0  0  0  0
 18 17  1  0  0  0  0
 19 13  1  0  0  0  0
 20 14  1  0  0  0  0
 22 23  2  0  0  0  0
 23 24  1  0  0  0  0
 24 25  1  0  0  0  0
 24 29  1  0  0  0  0
 26 24  1  0  0  0  0
 27 28  1  0  0  0  0
 28 36  1  0  0  0  0
 29 28  2  0  0  0  0
 29 30  1  0  0  0  0
 30 32  2  0  0  0  0
 31 30  1  0  0  0  0
 32 34  1  0  0  0  0
 32 33  1  0  0  0  0
 34 35  1  0  0  0  0
 36 37  1  0  0  0  0
 36 34  2  0  0  0  0
M  END
>  <minimizedAffinity>
-6.23123932

$$$$

 OpenBabel03272509413D

 37 39  0  0  1  0  0  0  0  0999 V2000
   40.1330   22.7410   36.5090 C   0  0  0  0  0  0  0  0  0  0  0  0
   40.6640   21.7110   37.2900 C   0  0  0  0  0  0  0  0  0  0  0  0
   42.0110   21.4150   37.3030 C   0  0  0  0  0  0  0  0  0  0  0  0
   42.8900   22.1610   36.5150 C   0  0  0  0  0  0  0  0  0  0  0  0
   42.3570   23.1670   35.7570 C   0  0  0  0  0  0  0  0  0  0  0  0
   41.0040   23.4430   35.7610 C   0  0  0  0  0  0  0  0  0  0  0  0
   40.0420   21.0780   37.9370 H   0  0  0  0  0  0  0  0  0  0  0  0
   42.3980   20.6080   37.9180 H   0  0  0  0  0  0  0  0  0  0  0  0
   43.9300   21.9090   36.5460 H   0  0  0  0  0  0  0  0  0  0  0  0
   43.1020   23.6960   35.1770 H   0  0  0  0  0  0  0  0  0  0  0  0
   38.7000   22.9740   36.5660 C   0  0  2  0  0  3  0  0  0  0  0  0
   38.3520   23.9420   37.3490 O   0  0  0  0  0  1  0  0  0  0  0  0
   37.0700   21.4700   33.6990 C   0  0  0  0  0  0  0  0  0  0  0  0
   35.9600   20.8270   34.2440 C   0  0  0  0  0  0  0  0  0  0  0  0
   35.7590   20.9100   35.6150 C   0  0  0  0  0  0  0  0  0  0  0  0
   36.6520   21.6140   36.3810 N   0  0  0  0  0  0  0  0  0  0  0  0
   37.6920   22.2090   35.8240 C   0  0  0  0  0  0  0  0  0  0  0  0
   37.8960   22.1340   34.4890 N   0  0  0  0  0  0  0  0  0  0  0  0
   37.1600   21.3620   32.6310 H   0  0  0  0  0  0  0  0  0  0  0  0
   35.1990   20.2560   33.7640 H   0  0  0  0  0  0  0  0  0  0  0  0
   34.9630   20.4840   36.2150 H   0  0  0  0  0  0  0  0  0  0  0  0
   40.5960   24.5310   34.9010 C   0  0  0  0  0  3  0  0  0  0  0  0
   41.0730   25.7600   34.8800 C   0  0  0  0  0  3  0  0  0  0  0  0
   40.7730   26.9380   34.0650 C   0  0  0  0  0  0  0  0  0  0  0  0
   41.0740   26.7300   33.0200 H   0  0  0  0  0  0  0  0  0  0  0  0
   41.3650   27.8200   34.3840 H   0  0  0  0  0  0  0  0  0  0  0  0
   39.8220   27.0630   31.2830 Cl  0  0  0  0  0  0  0  0  0  0  0  0
   38.8560   27.2890   32.7480 C   0  0  0  0  0  0  0  0  0  0  0  0
   39.3130   27.2290   34.0550 C   0  0  0  0  0  0  0  0  0  0  0  0
   38.4350   27.4270   35.0910 C   0  0  0  0  0  0  0  0  0  0  0  0
   38.9240   27.3530   36.0560 H   0  0  0  0  0  0  0  0  0  0  0  0
   37.1100   27.6840   34.8180 C   0  0  0  0  0  0  0  0  0  0  0  0
   36.4890   27.8270   35.6830 H   0  0  0  0  0  0  0  0  0  0  0  0
   36.6330   27.7480   33.5260 C   0  0  0  0  0  0  0  0  0  0  0  0
   35.5820   27.9530   33.3730 H   0  0  0  0  0  0  0  0  0  0  0  0
   37.5160   27.5480   32.4650 C   0  0  0  0  0  0  0  0  0  0  0  0
   36.8390   27.6440   30.8570 Cl  0  0  0  0  0  0  0  0  0  0  0  0
  1 11  1  0  0  0  0
  1  2  1  0  0  0  0
  2  3  2  0  0  0  0
  2  7  1  0  0  0  0
  3  8  1  0  0  0  0
  4  9  1  0  0  0  0
  4  3  1  0  0  0  0
  5  6  1  0  0  0  0
  5  4  2  0  0  0  0
  6  1  2  0  0  0  0
 10  5  1  0  0  0  0
 11 12  1  1  0  0  0
 13 14  2  0  0  0  0
 13 18  1  0  0  0  0
 14 15  1  0  0  0  0
 15 21  1  0  0  0  0
 15 16  2  0  0  0  0
 17 16  1  0  0  0  0
 17 11  1  0  0  0  0
 18 17  2  0  0  0  0
 19 13  1  0  0  0  0
 20 14  1  0  0  0  0
 22  6  1  0  0  0  0
 23 22  2  0  0  0  0
 24 26  1  0  0  0  0
 24 23  1  0  0  0  0
 25 24  1  0  0  0  0
 27 28  1  0  0  0  0
 28 29  1  0  0  0  0
 29 24  1  0  0  0  0
 29 30  2  0  0  0  0
 30 31  1  0  0  0  0
 32 30  1  0  0  0  0
 32 33  1  0  0  0  0
 34 32  2  0  0  0  0
 35 34  1  0  0  0  0
 36 28  2  0  0  0  0
 36 34  1  0  0  0  0
 37 36  1  0  0  0  0
M  END
>  <minimizedAffinity>
-6.08480835

$$$$

 OpenBabel03272509413D

 37 39  0  0  1  0  0  0  0  0999 V2000
   35.9950   28.2370   32.3670 C   0  0  0  0  0  0  0  0  0  0  0  0
   35.0020   29.2170   32.2910 C   0  0  0  0  0  0  0  0  0  0  0  0
   34.6600   30.0050   33.3700 C   0  0  0  0  0  0  0  0  0  0  0  0
   35.3180   29.8300   34.5900 C   0  0  0  0  0  0  0  0  0  0  0  0
   36.2880   28.8680   34.6490 C   0  0  0  0  0  0  0  0  0  0  0  0
   36.6130   28.0920   33.5550 C   0  0  0  0  0  0  0  0  0  0  0  0
   34.4380   29.4170   31.3700 H   0  0  0  0  0  0  0  0  0  0  0  0
   33.8840   30.7590   33.2850 H   0  0  0  0  0  0  0  0  0  0  0  0
   35.0310   30.4570   35.4090 H   0  0  0  0  0  0  0  0  0  0  0  0
   36.7490   28.7970   35.6260 H   0  0  0  0  0  0  0  0  0  0  0  0
   36.2840   27.4600   31.1730 C   0  0  1  0  0  3  0  0  0  0  0  0
   35.5730   26.3870   31.0560 O   0  0  0  0  0  1  0  0  0  0  0  0
   39.3970   27.2870   29.3250 C   0  0  0  0  0  0  0  0  0  0  0  0
   39.2700   28.2870   28.3610 C   0  0  0  0  0  0  0  0  0  0  0  0
   38.1030   29.0380   28.3410 C   0  0  0  0  0  0  0  0  0  0  0  0
   37.1220   28.7730   29.2620 N   0  0  0  0  0  0  0  0  0  0  0  0
   37.2820   27.8150   30.1590 C   0  0  0  0  0  0  0  0  0  0  0  0
   38.4160   27.0800   30.1860 N   0  0  0  0  0  0  0  0  0  0  0  0
   40.3280   26.7480   29.2780 H   0  0  0  0  0  0  0  0  0  0  0  0
   39.9520   28.5890   27.5990 H   0  0  0  0  0  0  0  0  0  0  0  0
   37.8240   29.8480   27.6780 H   0  0  0  0  0  0  0  0  0  0  0  0
   37.6530   27.1150   33.7800 C   0  0  0  0  0  3  0  0  0  0  0  0
   37.5050   25.8310   34.0480 C   0  0  0  0  0  3  0  0  0  0  0  0
   38.4510   24.7400   34.2770 C   0  0  0  0  0  0  0  0  0  0  0  0
   39.4650   25.0880   34.0010 H   0  0  0  0  0  0  0  0  0  0  0  0
   38.2390   23.8690   33.6230 H   0  0  0  0  0  0  0  0  0  0  0  0
   40.6060   22.7810   34.6990 Cl  0  0  0  0  0  0  0  0  0  0  0  0
   39.5060   23.4310   35.9230 C   0  0  0  0  0  0  0  0  0  0  0  0
   38.4930   24.3540   35.7130 C   0  0  0  0  0  0  0  0  0  0  0  0
   37.7190   24.7630   36.7710 C   0  0  0  0  0  0  0  0  0  0  0  0
   36.9670   25.4830   36.4680 H   0  0  0  0  0  0  0  0  0  0  0  0
   37.9600   24.2520   38.0270 C   0  0  0  0  0  0  0  0  0  0  0  0
   37.3110   24.6230   38.7990 H   0  0  0  0  0  0  0  0  0  0  0  0
   38.9620   23.3340   38.2570 C   0  0  0  0  0  0  0  0  0  0  0  0
   39.1050   22.9680   39.2660 H   0  0  0  0  0  0  0  0  0  0  0  0
   39.7550   22.9110   37.1910 C   0  0  0  0  0  0  0  0  0  0  0  0
   41.0040   21.7470   37.5610 Cl  0  0  0  0  0  0  0  0  0  0  0  0
  1  6  1  0  0  0  0
  2  1  2  0  0  0  0
  2  3  1  0  0  0  0
  3  4  2  0  0  0  0
  4  5  1  0  0  0  0
  4  9  1  0  0  0  0
  5 10  1  0  0  0  0
  6 22  1  0  0  0  0
  6  5  2  0  0  0  0
  7  2  1  0  0  0  0
  8  3  1  0  0  0  0
 11 12  1  6  0  0  0
 11  1  1  0  0  0  0
 13 18  1  0  0  0  0
 14 13  2  0  0  0  0
 15 14  1  0  0  0  0
 15 16  2  0  0  0  0
 16 17  1  0  0  0  0
 17 18  2  0  0  0  0
 17 11  1  0  0  0  0
 19 13  1  0  0  0  0
 20 14  1  0  0  0  0
 21 15  1  0  0  0  0
 22 23  2  0  0  0  0
 23 24  1  0  0  0  0
 24 29  1  0  0  0  0
 25 24  1  0  0  0  0
 26 24  1  0  0  0  0
 27 28  1  0  0  0  0
 28 36  1  0  0  0  0
 29 28  2  0  0  0  0
 29 30  1  0  0  0  0
 30 32  2  0  0  0  0
 31 30  1  0  0  0  0
 32 34  1  0  0  0  0
 32 33  1  0  0  0  0
 34 35  1  0  0  0  0
 36 37  1  0  0  0  0
 36 34  2  0  0  0  0
M  END
>  <minimizedAffinity>
-6.0135169

$$$$

 OpenBabel03272509413D

 37 39  0  0  1  0  0  0  0  0999 V2000
   37.4890   22.0390   33.4660 C   0  0  0  0  0  0  0  0  0  0  0  0
   36.6830   20.8990   33.5120 C   0  0  0  0  0  0  0  0  0  0  0  0
   35.5490   20.7670   32.7380 C   0  0  0  0  0  0  0  0  0  0  0  0
   35.1780   21.8000   31.8730 C   0  0  0  0  0  0  0  0  0  0  0  0
   35.9770   22.9080   31.8380 C   0  0  0  0  0  0  0  0  0  0  0  0
   37.1080   23.0170   32.6230 C   0  0  0  0  0  0  0  0  0  0  0  0
   36.9040   20.0430   34.1640 H   0  0  0  0  0  0  0  0  0  0  0  0
   34.9390   19.8700   32.7920 H   0  0  0  0  0  0  0  0  0  0  0  0
   34.2940   21.6680   31.2850 H   0  0  0  0  0  0  0  0  0  0  0  0
   35.6230   23.6600   31.1440 H   0  0  0  0  0  0  0  0  0  0  0  0
   38.6650   22.0810   34.3200 C   0  0  2  0  0  3  0  0  0  0  0  0
   39.7490   21.6720   33.7470 O   0  0  0  0  0  1  0  0  0  0  0  0
   39.9810   22.6750   37.6450 C   0  0  0  0  0  0  0  0  0  0  0  0
   38.9320   23.3070   38.3120 C   0  0  0  0  0  0  0  0  0  0  0  0
   37.7510   23.5330   37.6170 C   0  0  0  0  0  0  0  0  0  0  0  0
   37.6580   23.1300   36.3100 N   0  0  0  0  0  0  0  0  0  0  0  0
   38.6760   22.5350   35.7150 C   0  0  0  0  0  0  0  0  0  0  0  0
   39.8290   22.3110   36.3840 N   0  0  0  0  0  0  0  0  0  0  0  0
   40.8630   22.5350   38.2470 H   0  0  0  0  0  0  0  0  0  0  0  0
   38.8790   23.6630   39.3150 H   0  0  0  0  0  0  0  0  0  0  0  0
   36.8370   24.0020   37.9610 H   0  0  0  0  0  0  0  0  0  0  0  0
   37.8420   24.2530   32.4780 C   0  0  0  0  0  3  0  0  0  0  0  0
   37.6410   25.3870   33.1230 C   0  0  0  0  0  3  0  0  0  0  0  0
   38.3070   26.6890   33.0910 C   0  0  0  0  0  0  0  0  0  0  0  0
   39.2430   26.5930   32.5070 H   0  0  0  0  0  0  0  0  0  0  0  0
   38.6130   27.0180   34.1050 H   0  0  0  0  0  0  0  0  0  0  0  0
   39.1810   26.9670   30.2950 Cl  0  0  0  0  0  0  0  0  0  0  0  0
   37.8690   27.8470   31.0910 C   0  0  0  0  0  0  0  0  0  0  0  0
   37.4650   27.7090   32.4100 C   0  0  0  0  0  0  0  0  0  0  0  0
   36.4240   28.4680   32.8830 C   0  0  0  0  0  0  0  0  0  0  0  0
   36.2140   28.2610   33.9270 H   0  0  0  0  0  0  0  0  0  0  0  0
   35.7940   29.3570   32.0410 C   0  0  0  0  0  0  0  0  0  0  0  0
   34.9890   29.9120   32.4890 H   0  0  0  0  0  0  0  0  0  0  0  0
   36.1780   29.5100   30.7270 C   0  0  0  0  0  0  0  0  0  0  0  0
   35.6460   30.2240   30.1130 H   0  0  0  0  0  0  0  0  0  0  0  0
   37.2340   28.7450   30.2340 C   0  0  0  0  0  0  0  0  0  0  0  0
   37.6650   28.9930   28.5590 Cl  0  0  0  0  0  0  0  0  0  0  0  0
  1  2  1  0  0  0  0
  1 11  1  0  0  0  0
  2  7  1  0  0  0  0
  3  8  1  0  0  0  0
  3  2  2  0  0  0  0
  4  3  1  0  0  0  0
  5  4  2  0  0  0  0
  5  6  1  0  0  0  0
  6  1  2  0  0  0  0
  9  4  1  0  0  0  0
 10  5  1  0  0  0  0
 11 12  1  1  0  0  0
 11 17  1  0  0  0  0
 13 19  1  0  0  0  0
 13 14  1  0  0  0  0
 14 20  1  0  0  0  0
 15 21  1  0  0  0  0
 15 14  2  0  0  0  0
 16 15  1  0  0  0  0
 17 16  2  0  0  0  0
 17 18  1  0  0  0  0
 18 13  2  0  0  0  0
 22  6  1  0  0  0  0
 22 23  2  0  0  0  0
 24 23  1  0  0  0  0
 24 26  1  0  0  0  0
 25 24  1  0  0  0  0
 27 28  1  0  0  0  0
 28 29  1  0  0  0  0
 29 30  2  0  0  0  0
 29 24  1  0  0  0  0
 30 31  1  0  0  0  0
 32 33  1  0  0  0  0
 32 30  1  0  0  0  0
 34 32  2  0  0  0  0
 35 34  1  0  0  0  0
 36 34  1  0  0  0  0
 36 28  2  0  0  0  0
 37 36  1  0  0  0  0
M  END
>  <minimizedAffinity>
-5.91685581

$$$$

 OpenBabel03272509413D

 37 39  0  0  1  0  0  0  0  0999 V2000
   37.5310   25.3490   33.4540 C   0  0  0  0  0  0  0  0  0  0  0  0
   38.1340   24.2760   34.1150 C   0  0  0  0  0  0  0  0  0  0  0  0
   38.5350   24.3520   35.4330 C   0  0  0  0  0  0  0  0  0  0  0  0
   38.3390   25.5370   36.1470 C   0  0  0  0  0  0  0  0  0  0  0  0
   37.7470   26.5780   35.4880 C   0  0  0  0  0  0  0  0  0  0  0  0
   37.3540   26.4770   34.1680 C   0  0  0  0  0  0  0  0  0  0  0  0
   38.3240   23.3110   33.6260 H   0  0  0  0  0  0  0  0  0  0  0  0
   39.0020   23.5040   35.9230 H   0  0  0  0  0  0  0  0  0  0  0  0
   38.6600   25.5660   37.1670 H   0  0  0  0  0  0  0  0  0  0  0  0
   37.6310   27.4570   36.1090 H   0  0  0  0  0  0  0  0  0  0  0  0
   37.1430   25.1670   32.0650 C   0  0  2  0  0  3  0  0  0  0  0  0
   35.8740   24.9970   31.8890 O   0  0  0  0  0  1  0  0  0  0  0  0
   39.5020   26.5010   29.6580 C   0  0  0  0  0  0  0  0  0  0  0  0
   39.8300   25.4020   28.8660 C   0  0  0  0  0  0  0  0  0  0  0  0
   39.2350   24.1810   29.1550 C   0  0  0  0  0  0  0  0  0  0  0  0
   38.3510   24.1000   30.2000 N   0  0  0  0  0  0  0  0  0  0  0  0
   38.0680   25.1660   30.9270 C   0  0  0  0  0  0  0  0  0  0  0  0
   38.6430   26.3590   30.6520 N   0  0  0  0  0  0  0  0  0  0  0  0
   40.0030   27.4110   29.3750 H   0  0  0  0  0  0  0  0  0  0  0  0
   40.4930   25.3350   28.0340 H   0  0  0  0  0  0  0  0  0  0  0  0
   39.3600   23.2260   28.6590 H   0  0  0  0  0  0  0  0  0  0  0  0
   36.7510   27.6660   33.6110 C   0  0  0  0  0  3  0  0  0  0  0  0
   36.1370   28.6350   34.2630 C   0  0  0  0  0  3  0  0  0  0  0  0
   35.5060   29.8850   33.8390 C   0  0  0  0  0  0  0  0  0  0  0  0
   34.6090   29.6410   33.2370 H   0  0  0  0  0  0  0  0  0  0  0  0
   36.1700   30.4750   33.1730 H   0  0  0  0  0  0  0  0  0  0  0  0
   32.6440   29.3830   34.3050 Cl  0  0  0  0  0  0  0  0  0  0  0  0
   33.7020   30.4530   35.2370 C   0  0  0  0  0  0  0  0  0  0  0  0
   35.0490   30.6830   35.0090 C   0  0  0  0  0  0  0  0  0  0  0  0
   35.7380   31.5470   35.8250 C   0  0  0  0  0  0  0  0  0  0  0  0
   36.7790   31.6350   35.5350 H   0  0  0  0  0  0  0  0  0  0  0  0
   35.0790   32.1730   36.8590 C   0  0  0  0  0  0  0  0  0  0  0  0
   35.6890   32.8330   37.4500 H   0  0  0  0  0  0  0  0  0  0  0  0
   33.7400   31.9590   37.1040 C   0  0  0  0  0  0  0  0  0  0  0  0
   33.2770   32.4800   37.9320 H   0  0  0  0  0  0  0  0  0  0  0  0
   33.0310   31.0840   36.2830 C   0  0  0  0  0  0  0  0  0  0  0  0
   31.3380   30.8630   36.6550 Cl  0  0  0  0  0  0  0  0  0  0  0  0
  1  2  2  0  0  0  0
  1  6  1  0  0  0  0
  2  3  1  0  0  0  0
  3  8  1  0  0  0  0
  3  4  2  0  0  0  0
  4  9  1  0  0  0  0
  5 10  1  0  0  0  0
  5  4  1  0  0  0  0
  6  5  2  0  0  0  0
  7  2  1  0  0  0  0
 11 12  1  1  0  0  0
 11  1  1  0  0  0  0
 13 18  1  0  0  0  0
 14 15  1  0  0  0  0
 14 13  2  0  0  0  0
 15 16  2  0  0  0  0
 16 17  1  0  0  0  0
 17 11  1  0  0  0  0
 18 17  2  0  0  0  0
 19 13  1  0  0  0  0
 20 14  1  0  0  0  0
 21 15  1  0  0  0  0
 22  6  1  0  0  0  0
 22 23  2  0  0  0  0
 24 23  1  0  0  0  0
 24 29  1  0  0  0  0
 25 24  1  0  0  0  0
 26 24  1  0  0  0  0
 27 28  1  0  0  0  0
 28 36  1  0  0  0  0
 29 28  2  0  0  0  0
 29 30  1  0  0  0  0
 30 32  2  0  0  0  0
 31 30  1  0  0  0  0
 32 34  1  0  0  0  0
 32 33  1  0  0  0  0
 34 35  1  0  0  0  0
 36 37  1  0  0  0  0
 36 34  2  0  0  0  0
M  END
>  <minimizedAffinity>
-5.91039133

$$$$

 OpenBabel03272509413D

 37 39  0  0  1  0  0  0  0  0999 V2000
   36.5000   21.8210   31.9280 C   0  0  0  0  0  0  0  0  0  0  0  0
   35.4510   21.1360   31.3090 C   0  0  0  0  0  0  0  0  0  0  0  0
   34.8230   20.0600   31.8990 C   0  0  0  0  0  0  0  0  0  0  0  0
   35.2360   19.6250   33.1610 C   0  0  0  0  0  0  0  0  0  0  0  0
   36.2620   20.3050   33.7560 C   0  0  0  0  0  0  0  0  0  0  0  0
   36.8760   21.3800   33.1440 C   0  0  0  0  0  0  0  0  0  0  0  0
   35.0670   21.4140   30.3180 H   0  0  0  0  0  0  0  0  0  0  0  0
   34.0110   19.5440   31.3960 H   0  0  0  0  0  0  0  0  0  0  0  0
   34.7290   18.7880   33.5940 H   0  0  0  0  0  0  0  0  0  0  0  0
   36.5210   19.9080   34.7290 H   0  0  0  0  0  0  0  0  0  0  0  0
   37.0950   22.9440   31.2240 C   0  0  2  0  0  3  0  0  0  0  0  0
   38.0190   22.6120   30.3840 O   0  0  0  0  0  1  0  0  0  0  0  0
   37.3740   26.3640   32.3910 C   0  0  0  0  0  0  0  0  0  0  0  0
   36.2370   26.9870   31.8800 C   0  0  0  0  0  0  0  0  0  0  0  0
   35.3540   26.2270   31.1240 C   0  0  0  0  0  0  0  0  0  0  0  0
   35.6300   24.9010   30.9080 N   0  0  0  0  0  0  0  0  0  0  0  0
   36.7200   24.3500   31.4120 C   0  0  0  0  0  0  0  0  0  0  0  0
   37.5840   25.0820   32.1490 N   0  0  0  0  0  0  0  0  0  0  0  0
   38.0100   27.0160   32.9660 H   0  0  0  0  0  0  0  0  0  0  0  0
   35.9110   27.9970   31.9750 H   0  0  0  0  0  0  0  0  0  0  0  0
   34.4280   26.5280   30.6490 H   0  0  0  0  0  0  0  0  0  0  0  0
   37.9490   21.9880   33.8970 C   0  0  0  0  0  3  0  0  0  0  0  0
   37.9130   22.4130   35.1460 C   0  0  0  0  0  3  0  0  0  0  0  0
   38.9100   23.0200   36.0260 C   0  0  0  0  0  0  0  0  0  0  0  0
   39.9140   22.6590   35.7260 H   0  0  0  0  0  0  0  0  0  0  0  0
   38.7750   22.7030   37.0810 H   0  0  0  0  0  0  0  0  0  0  0  0
   41.2600   23.8500   34.4600 Cl  0  0  0  0  0  0  0  0  0  0  0  0
   40.0200   24.9030   35.1560 C   0  0  0  0  0  0  0  0  0  0  0  0
   38.9170   24.5030   35.8930 C   0  0  0  0  0  0  0  0  0  0  0  0
   38.0400   25.4460   36.3680 C   0  0  0  0  0  0  0  0  0  0  0  0
   37.2260   24.9970   36.9270 H   0  0  0  0  0  0  0  0  0  0  0  0
   38.2680   26.7780   36.1060 C   0  0  0  0  0  0  0  0  0  0  0  0
   37.5350   27.4520   36.5120 H   0  0  0  0  0  0  0  0  0  0  0  0
   39.3580   27.1990   35.3750 C   0  0  0  0  0  0  0  0  0  0  0  0
   39.4850   28.2590   35.2000 H   0  0  0  0  0  0  0  0  0  0  0  0
   40.2560   26.2500   34.8870 C   0  0  0  0  0  0  0  0  0  0  0  0
   41.6130   26.8580   33.9690 Cl  0  0  0  0  0  0  0  0  0  0  0  0
  1  6  1  0  0  0  0
  2  3  1  0  0  0  0
  2  1  2  0  0  0  0
  3  4  2  0  0  0  0
  4  9  1  0  0  0  0
  4  5  1  0  0  0  0
  5 10  1  0  0  0  0
  6  5  2  0  0  0  0
  6 22  1  0  0  0  0
  7  2  1  0  0  0  0
  8  3  1  0  0  0  0
 11 12  1  1  0  0  0
 11 17  1  0  0  0  0
 11  1  1  0  0  0  0
 13 19  1  0  0  0  0
 14 20  1  0  0  0  0
 14 13  2  0  0  0  0
 15 14  1  0  0  0  0
 16 15  2  0  0  0  0
 16 17  1  0  0  0  0
 17 18  2  0  0  0  0
 18 13  1  0  0  0  0
 21 15  1  0  0  0  0
 22 23  2  0  0  0  0
 23 24  1  0  0  0  0
 24 26  1  0  0  0  0
 25 24  1  0  0  0  0
 27 28  1  0  0  0  0
 28 29  1  0  0  0  0
 29 24  1  0  0  0  0
 29 30  2  0  0  0  0
 30 31  1  0  0  0  0
 32 30  1  0  0  0  0
 32 33  1  0  0  0  0
 34 32  2  0  0  0  0
 35 34  1  0  0  0  0
 36 28  2  0  0  0  0
 36 34  1  0  0  0  0
 37 36  1  0  0  0  0
M  END
>  <minimizedAffinity>
-5.90670061

$$$$

 OpenBabel03272509413D

 37 39  0  0  1  0  0  0  0  0999 V2000
   38.2310   26.4370   33.3050 C   0  0  0  0  0  0  0  0  0  0  0  0
   39.3470   25.8510   33.9080 C   0  0  0  0  0  0  0  0  0  0  0  0
   39.7680   26.1980   35.1740 C   0  0  0  0  0  0  0  0  0  0  0  0
   39.0650   27.1680   35.8950 C   0  0  0  0  0  0  0  0  0  0  0  0
   37.9750   27.7310   35.2930 C   0  0  0  0  0  0  0  0  0  0  0  0
   37.5730   27.3670   34.0230 C   0  0  0  0  0  0  0  0  0  0  0  0
   39.9530   25.0830   33.4100 H   0  0  0  0  0  0  0  0  0  0  0  0
   40.6390   25.7280   35.6200 H   0  0  0  0  0  0  0  0  0  0  0  0
   39.4160   27.4150   36.8750 H   0  0  0  0  0  0  0  0  0  0  0  0
   37.4870   28.4700   35.9150 H   0  0  0  0  0  0  0  0  0  0  0  0
   37.8670   26.0010   31.9670 C   0  0  2  0  0  3  0  0  0  0  0  0
   38.2060   26.8270   31.0310 O   0  0  0  0  0  1  0  0  0  0  0  0
   37.4930   22.5320   30.9880 C   0  0  0  0  0  0  0  0  0  0  0  0
   36.1160   22.3190   31.0290 C   0  0  0  0  0  0  0  0  0  0  0  0
   35.2970   23.3780   31.3950 C   0  0  0  0  0  0  0  0  0  0  0  0
   35.8650   24.5880   31.7000 N   0  0  0  0  0  0  0  0  0  0  0  0
   37.1760   24.7470   31.6490 C   0  0  0  0  0  0  0  0  0  0  0  0
   37.9810   23.7210   31.2930 N   0  0  0  0  0  0  0  0  0  0  0  0
   38.0620   21.6650   30.6960 H   0  0  0  0  0  0  0  0  0  0  0  0
   35.5550   21.4370   30.8160 H   0  0  0  0  0  0  0  0  0  0  0  0
   34.2170   23.4080   31.4830 H   0  0  0  0  0  0  0  0  0  0  0  0
   36.4070   28.0590   33.5230 C   0  0  0  0  0  3  0  0  0  0  0  0
   35.6000   28.8590   34.1930 C   0  0  0  0  0  3  0  0  0  0  0  0
   34.4140   29.6290   33.8180 C   0  0  0  0  0  0  0  0  0  0  0  0
   33.7400   28.9750   33.2310 H   0  0  0  0  0  0  0  0  0  0  0  0
   34.6690   30.4790   33.1530 H   0  0  0  0  0  0  0  0  0  0  0  0
   35.7020   32.0210   34.9480 Cl  0  0  0  0  0  0  0  0  0  0  0  0
   34.2570   31.2030   35.5590 C   0  0  0  0  0  0  0  0  0  0  0  0
   33.6580   30.0760   35.0200 C   0  0  0  0  0  0  0  0  0  0  0  0
   32.5330   29.5560   35.6120 C   0  0  0  0  0  0  0  0  0  0  0  0
   32.1700   28.6770   35.0900 H   0  0  0  0  0  0  0  0  0  0  0  0
   32.0160   30.1620   36.7340 C   0  0  0  0  0  0  0  0  0  0  0  0
   31.1350   29.6940   37.1360 H   0  0  0  0  0  0  0  0  0  0  0  0
   32.5950   31.2840   37.2870 C   0  0  0  0  0  0  0  0  0  0  0  0
   32.1430   31.7170   38.1700 H   0  0  0  0  0  0  0  0  0  0  0  0
   33.7370   31.8210   36.6950 C   0  0  0  0  0  0  0  0  0  0  0  0
   34.4140   33.2430   37.4510 Cl  0  0  0  0  0  0  0  0  0  0  0  0
  1  2  2  0  0  0  0
  1  6  1  0  0  0  0
  2  3  1  0  0  0  0
  3  8  1  0  0  0  0
  3  4  2  0  0  0  0
  4  9  1  0  0  0  0
  5  4  1  0  0  0  0
  5 10  1  0  0  0  0
  6  5  2  0  0  0  0
  7  2  1  0  0  0  0
 11 12  1  1  0  0  0
 11  1  1  0  0  0  0
 13 14  2  0  0  0  0
 13 18  1  0  0  0  0
 14 15  1  0  0  0  0
 15 21  1  0  0  0  0
 15 16  2  0  0  0  0
 17 16  1  0  0  0  0
 17 11  1  0  0  0  0
 18 17  2  0  0  0  0
 19 13  1  0  0  0  0
 20 14  1  0  0  0  0
 22  6  1  0  0  0  0
 22 23  2  0  0  0  0
 24 23  1  0  0  0  0
 24 29  1  0  0  0  0
 25 24  1  0  0  0  0
 26 24  1  0  0  0  0
 27 28  1  0  0  0  0
 28 36  1  0  0  0  0
 29 28  2  0  0  0  0
 29 30  1  0  0  0  0
 30 32  2  0  0  0  0
 31 30  1  0  0  0  0
 32 33  1  0  0  0  0
 32 34  1  0  0  0  0
 34 35  1  0  0  0  0
 36 34  2  0  0  0  0
 36 37  1  0  0  0  0
M  END
>  <minimizedAffinity>
-5.89104986

$$$$

 OpenBabel03272509413D

 37 39  0  0  1  0  0  0  0  0999 V2000
   36.1850   28.7560   32.3720 C   0  0  0  0  0  0  0  0  0  0  0  0
   35.5020   29.7550   31.6730 C   0  0  0  0  0  0  0  0  0  0  0  0
   34.7230   30.6990   32.3090 C   0  0  0  0  0  0  0  0  0  0  0  0
   34.6030   30.6720   33.7010 C   0  0  0  0  0  0  0  0  0  0  0  0
   35.2780   29.6900   34.3720 C   0  0  0  0  0  0  0  0  0  0  0  0
   36.0510   28.7550   33.7120 C   0  0  0  0  0  0  0  0  0  0  0  0
   35.5440   29.8460   30.5800 H   0  0  0  0  0  0  0  0  0  0  0  0
   34.2020   31.4650   31.7420 H   0  0  0  0  0  0  0  0  0  0  0  0
   33.9930   31.4180   34.1660 H   0  0  0  0  0  0  0  0  0  0  0  0
   35.1340   29.7390   35.4430 H   0  0  0  0  0  0  0  0  0  0  0  0
   36.9800   27.8090   31.6100 C   0  0  2  0  0  3  0  0  0  0  0  0
   37.9200   28.3510   30.9070 O   0  0  0  0  0  1  0  0  0  0  0  0
   35.2720   24.6620   31.0420 C   0  0  0  0  0  0  0  0  0  0  0  0
   36.1860   23.7020   31.4740 C   0  0  0  0  0  0  0  0  0  0  0  0
   37.4090   24.1340   31.9710 C   0  0  0  0  0  0  0  0  0  0  0  0
   37.6730   25.4790   32.0200 N   0  0  0  0  0  0  0  0  0  0  0  0
   36.7780   26.3560   31.6010 C   0  0  0  0  0  0  0  0  0  0  0  0
   35.5850   25.9440   31.1150 N   0  0  0  0  0  0  0  0  0  0  0  0
   34.3480   24.2530   30.6700 H   0  0  0  0  0  0  0  0  0  0  0  0
   36.1030   22.6400   31.4890 H   0  0  0  0  0  0  0  0  0  0  0  0
   38.2370   23.5470   32.3500 H   0  0  0  0  0  0  0  0  0  0  0  0
   36.6940   27.7790   34.5610 C   0  0  0  0  0  3  0  0  0  0  0  0
   37.7770   27.9430   35.2960 C   0  0  0  0  0  3  0  0  0  0  0  0
   38.5160   27.0640   36.2010 C   0  0  0  0  0  0  0  0  0  0  0  0
   37.7900   26.5290   36.8450 H   0  0  0  0  0  0  0  0  0  0  0  0
   39.1700   27.6380   36.8900 H   0  0  0  0  0  0  0  0  0  0  0  0
   37.5080   24.3910   36.9090 Cl  0  0  0  0  0  0  0  0  0  0  0  0
   38.8120   24.7690   35.7750 C   0  0  0  0  0  0  0  0  0  0  0  0
   39.2800   26.0320   35.4490 C   0  0  0  0  0  0  0  0  0  0  0  0
   40.3060   26.1630   34.5450 C   0  0  0  0  0  0  0  0  0  0  0  0
   40.5720   27.2010   34.3830 H   0  0  0  0  0  0  0  0  0  0  0  0
   40.8550   25.0370   33.9740 C   0  0  0  0  0  0  0  0  0  0  0  0
   41.6520   25.2250   33.2780 H   0  0  0  0  0  0  0  0  0  0  0  0
   40.4050   23.7720   34.2840 C   0  0  0  0  0  0  0  0  0  0  0  0
   40.8760   22.9240   33.8030 H   0  0  0  0  0  0  0  0  0  0  0  0
   39.3640   23.6260   35.2000 C   0  0  0  0  0  0  0  0  0  0  0  0
   38.8470   21.9920   35.5420 Cl  0  0  0  0  0  0  0  0  0  0  0  0
  1  6  1  0  0  0  0
  2  3  1  0  0  0  0
  2  1  2  0  0  0  0
  3  4  2  0  0  0  0
  4  9  1  0  0  0  0
  4  5  1  0  0  0  0
  5 10  1  0  0  0  0
  6  5  2  0  0  0  0
  6 22  1  0  0  0  0
  7  2  1  0  0  0  0
  8  3  1  0  0  0  0
 11 12  1  6  0  0  0
 11  1  1  0  0  0  0
 13 18  2  0  0  0  0
 13 14  1  0  0  0  0
 14 20  1  0  0  0  0
 14 15  2  0  0  0  0
 15 16  1  0  0  0  0
 15 21  1  0  0  0  0
 17 11  1  0  0  0  0
 17 16  2  0  0  0  0
 18 17  1  0  0  0  0
 19 13  1  0  0  0  0
 22 23  2  0  0  0  0
 23 24  1  0  0  0  0
 24 25  1  0  0  0  0
 24 26  1  0  0  0  0
 28 27  1  0  0  0  0
 29 28  1  0  0  0  0
 29 24  1  0  0  0  0
 30 29  2  0  0  0  0
 31 30  1  0  0  0  0
 32 34  2  0  0  0  0
 32 30  1  0  0  0  0
 33 32  1  0  0  0  0
 34 36  1  0  0  0  0
 35 34  1  0  0  0  0
 36 37  1  0  0  0  0
 36 28  2  0  0  0  0
M  END
>  <minimizedAffinity>
-5.89017487

$$$$

 OpenBabel03272509413D

 37 39  0  0  1  0  0  0  0  0999 V2000
   36.5330   28.3410   32.2340 C   0  0  0  0  0  0  0  0  0  0  0  0
   35.9910   29.2730   31.3450 C   0  0  0  0  0  0  0  0  0  0  0  0
   35.2230   30.3370   31.7700 C   0  0  0  0  0  0  0  0  0  0  0  0
   34.9680   30.5040   33.1330 C   0  0  0  0  0  0  0  0  0  0  0  0
   35.5040   29.5850   33.9910 C   0  0  0  0  0  0  0  0  0  0  0  0
   36.2700   28.5270   33.5410 C   0  0  0  0  0  0  0  0  0  0  0  0
   36.1450   29.2130   30.2590 H   0  0  0  0  0  0  0  0  0  0  0  0
   34.8130   31.0470   31.0580 H   0  0  0  0  0  0  0  0  0  0  0  0
   34.3690   31.3390   33.4320 H   0  0  0  0  0  0  0  0  0  0  0  0
   35.2620   29.7850   35.0270 H   0  0  0  0  0  0  0  0  0  0  0  0
   37.3300   27.2550   31.6860 C   0  0  2  0  0  3  0  0  0  0  0  0
   38.4800   27.6240   31.2260 O   0  0  0  0  0  1  0  0  0  0  0  0
   35.1610   24.4190   31.0650 C   0  0  0  0  0  0  0  0  0  0  0  0
   35.9330   23.3190   31.4360 C   0  0  0  0  0  0  0  0  0  0  0  0
   37.2180   23.5470   31.9100 C   0  0  0  0  0  0  0  0  0  0  0  0
   37.6790   24.8350   31.9970 N   0  0  0  0  0  0  0  0  0  0  0  0
   36.9140   25.8490   31.6340 C   0  0  0  0  0  0  0  0  0  0  0  0
   35.6620   25.6370   31.1720 N   0  0  0  0  0  0  0  0  0  0  0  0
   34.1770   24.1640   30.7070 H   0  0  0  0  0  0  0  0  0  0  0  0
   35.6930   22.2800   31.4180 H   0  0  0  0  0  0  0  0  0  0  0  0
   37.9590   22.8300   32.2440 H   0  0  0  0  0  0  0  0  0  0  0  0
   36.7590   27.6390   34.5710 C   0  0  0  0  0  3  0  0  0  0  0  0
   37.8630   27.7650   35.2820 C   0  0  0  0  0  3  0  0  0  0  0  0
   38.4630   26.9660   36.3510 C   0  0  0  0  0  0  0  0  0  0  0  0
   37.7870   26.9870   37.2280 H   0  0  0  0  0  0  0  0  0  0  0  0
   39.4250   27.3980   36.6960 H   0  0  0  0  0  0  0  0  0  0  0  0
   40.8850   26.6710   34.7050 Cl  0  0  0  0  0  0  0  0  0  0  0  0
   39.7520   25.3940   35.1670 C   0  0  0  0  0  0  0  0  0  0  0  0
   38.6120   25.5430   35.9430 C   0  0  0  0  0  0  0  0  0  0  0  0
   37.8290   24.4490   36.2160 C   0  0  0  0  0  0  0  0  0  0  0  0
   36.9730   24.7070   36.8290 H   0  0  0  0  0  0  0  0  0  0  0  0
   38.1860   23.2170   35.7160 C   0  0  0  0  0  0  0  0  0  0  0  0
   37.5210   22.4130   35.9750 H   0  0  0  0  0  0  0  0  0  0  0  0
   39.3150   23.0450   34.9430 C   0  0  0  0  0  0  0  0  0  0  0  0
   39.5450   22.0530   34.5780 H   0  0  0  0  0  0  0  0  0  0  0  0
   40.1180   24.1490   34.6590 C   0  0  0  0  0  0  0  0  0  0  0  0
   41.5310   23.8540   33.6740 Cl  0  0  0  0  0  0  0  0  0  0  0  0
  1  6  1  0  0  0  0
  2  3  1  0  0  0  0
  2  1  2  0  0  0  0
  3  4  2  0  0  0  0
  4  9  1  0  0  0  0
  4  5  1  0  0  0  0
  5 10  1  0  0  0  0
  6  5  2  0  0  0  0
  6 22  1  0  0  0  0
  7  2  1  0  0  0  0
  8  3  1  0  0  0  0
 11 12  1  6  0  0  0
 11  1  1  0  0  0  0
 13 18  2  0  0  0  0
 13 14  1  0  0  0  0
 14 15  2  0  0  0  0
 15 16  1  0  0  0  0
 15 21  1  0  0  0  0
 17 11  1  0  0  0  0
 17 16  2  0  0  0  0
 18 17  1  0  0  0  0
 19 13  1  0  0  0  0
 20 14  1  0  0  0  0
 22 23  2  0  0  0  0
 23 24  1  0  0  0  0
 24 26  1  0  0  0  0
 24 25  1  0  0  0  0
 27 28  1  0  0  0  0
 28 29  1  0  0  0  0
 29 30  2  0  0  0  0
 29 24  1  0  0  0  0
 30 31  1  0  0  0  0
 32 33  1  0  0  0  0
 32 30  1  0  0  0  0
 34 32  2  0  0  0  0
 35 34  1  0  0  0  0
 36 34  1  0  0  0  0
 36 28  2  0  0  0  0
 37 36  1  0  0  0  0
M  END
>  <minimizedAffinity>
-5.88559103

$$$$
