
 OpenBabel03272503123D

 48 52  0  0  0  0  0  0  0  0999 V2000
   39.2040   32.2170   42.5570 C   0  0  0  0  0  0  0  0  0  0  0  0
   39.7170   31.4950   43.6240 C   0  0  0  0  0  0  0  0  0  0  0  0
   40.5860   30.4620   43.4680 C   0  0  0  0  0  0  0  0  0  0  0  0
   40.9960   30.0940   42.1830 C   0  0  0  0  0  0  0  0  0  0  0  0
   41.8240   29.1570   41.7310 N   0  0  0  0  0  0  0  0  0  0  0  0
   41.8670   29.2480   40.4160 C   0  0  0  0  0  0  0  0  0  0  0  0
   41.0630   30.2430   40.0360 N   0  0  0  0  0  0  0  0  0  0  0  0
   40.4900   30.8060   41.1310 C   0  0  0  0  0  0  0  0  0  0  0  0
   39.5930   31.8740   41.2440 C   0  0  0  0  0  0  0  0  0  0  0  0
   38.5120   33.0420   42.6620 H   0  0  0  0  0  0  0  0  0  0  0  0
   40.9910   29.8940   44.2820 H   0  0  0  0  0  0  0  0  0  0  0  0
   42.3750   28.4430   42.2940 H   0  0  0  0  0  0  0  0  0  0  0  0
   42.4290   28.6580   39.6860 H   0  0  0  0  0  0  0  0  0  0  0  0
   39.2740   31.9040   44.9360 C   0  0  0  0  0  0  0  0  0  0  0  0
   38.1850   32.5550   45.0560 O   0  0  0  0  0  0  0  0  0  0  0  0
   39.9520   31.6450   46.1510 N   0  0  0  0  0  0  0  0  0  0  0  0
   40.8440   31.1280   46.1110 H   0  0  0  0  0  0  0  0  0  0  0  0
   38.1180   30.1510   47.4920 F   0  0  0  0  0  0  0  0  0  0  0  0
   38.3740   31.3940   47.9810 C   0  0  0  0  0  0  0  0  0  0  0  0
   37.7190   31.8310   49.0920 C   0  0  0  0  0  0  0  0  0  0  0  0
   38.0240   33.0910   49.5330 C   0  0  0  0  0  0  0  0  0  0  0  0
   38.9340   33.8890   48.9060 C   0  0  0  0  0  0  0  0  0  0  0  0
   39.5860   33.4200   47.7770 C   0  0  0  0  0  0  0  0  0  0  0  0
   39.2930   32.1480   47.3150 C   0  0  0  0  0  0  0  0  0  0  0  0
   37.5120   33.4640   50.4220 H   0  0  0  0  0  0  0  0  0  0  0  0
   39.1700   34.8830   49.2590 H   0  0  0  0  0  0  0  0  0  0  0  0
   40.3110   34.0410   47.2700 H   0  0  0  0  0  0  0  0  0  0  0  0
   36.0800   29.3590   51.4450 C   0  0  0  0  0  0  0  0  0  0  0  0
   37.0440   30.2150   50.8590 C   0  0  0  0  0  0  0  0  0  0  0  0
   36.7510   30.9370   49.7260 C   0  0  0  0  0  0  0  0  0  0  0  0
   35.4860   30.7790   49.2010 N   0  0  0  0  0  0  0  0  0  0  0  0
   34.5760   29.9680   49.7580 C   0  0  0  0  0  0  0  0  0  0  0  0
   34.8690   29.2740   50.8550 N   0  0  0  0  0  0  0  0  0  0  0  0
   36.3170   28.7940   52.3380 H   0  0  0  0  0  0  0  0  0  0  0  0
   38.0320   30.3130   51.3020 H   0  0  0  0  0  0  0  0  0  0  0  0
   33.6420   29.9710   49.2090 H   0  0  0  0  0  0  0  0  0  0  0  0
   39.0930   32.5820   40.2070 O   0  0  0  0  0  0  0  0  0  0  0  0
   36.4430   34.1790   41.2480 Cl  0  0  0  0  0  0  0  0  0  0  0  0
   36.7500   33.5270   39.6650 C   0  0  0  0  0  0  0  0  0  0  0  0
   37.9740   32.9250   39.6280 C   0  0  0  0  0  0  0  0  0  0  0  0
   38.1910   32.3780   38.3290 C   0  0  0  0  0  0  0  0  0  0  0  0
   39.0300   31.8130   37.8610 H   0  0  0  0  0  0  0  0  0  0  0  0
   37.2920   32.4490   37.2630 C   0  0  0  0  0  0  0  0  0  0  0  0
   37.3290   32.0800   36.2330 H   0  0  0  0  0  0  0  0  0  0  0  0
   36.0790   33.1010   37.4580 C   0  0  0  0  0  0  0  0  0  0  0  0
   35.2930   33.2350   36.7330 H   0  0  0  0  0  0  0  0  0  0  0  0
   35.8120   33.6440   38.6740 C   0  0  0  0  0  0  0  0  0  0  0  0
   34.3480   34.4830   39.0640 Cl  0  0  0  0  0  0  0  0  0  0  0  0
  1 10  1  0  0  0  0
  1  2  1  0  0  0  0
  2 14  1  0  0  0  0
  3  2  2  0  0  0  0
  3 11  1  0  0  0  0
  4  3  1  0  0  0  0
  5  4  1  0  0  0  0
  5 12  1  0  0  0  0
  6  5  1  0  0  0  0
  7  6  2  0  0  0  0
  7  8  1  0  0  0  0
  8  9  1  0  0  0  0
  8  4  2  0  0  0  0
  9  1  2  0  0  0  0
 13  6  1  0  0  0  0
 14 15  2  0  0  0  0
 14 16  1  0  0  0  0
 16 24  1  0  0  0  0
 17 16  1  0  0  0  0
 18 19  1  0  0  0  0
 19 20  1  0  0  0  0
 20 21  2  0  0  0  0
 20 30  1  0  0  0  0
 21 25  1  0  0  0  0
 22 26  1  0  0  0  0
 22 21  1  0  0  0  0
 23 22  2  0  0  0  0
 24 23  1  0  0  0  0
 24 19  2  0  0  0  0
 27 23  1  0  0  0  0
 28 34  1  0  0  0  0
 29 35  1  0  0  0  0
 29 28  1  0  0  0  0
 30 29  2  0  0  0  0
 31 30  1  0  0  0  0
 31 32  2  0  0  0  0
 32 33  1  0  0  0  0
 33 28  2  0  0  0  0
 36 32  1  0  0  0  0
 37  9  1  0  0  0  0
 39 38  1  0  0  0  0
 40 39  1  0  0  0  0
 40 37  1  0  0  0  0
 41 40  2  0  0  0  0
 42 41  1  0  0  0  0
 43 45  2  0  0  0  0
 43 41  1  0  0  0  0
 44 43  1  0  0  0  0
 45 47  1  0  0  0  0
 46 45  1  0  0  0  0
 47 48  1  0  0  0  0
 47 39  2  0  0  0  0
M  END
>  <minimizedAffinity>
-7.33499384

>  <minimizedRMSD>
0.972243667

$$$$
