
 OpenBabel03272503053D

 34 36  0  0  0  0  0  0  0  0999 V2000
   38.3910   30.4810   47.2550 F   0  0  0  0  0  0  0  0  0  0  0  0
   38.7430   31.6980   47.7230 C   0  0  0  0  0  0  0  0  0  0  0  0
   38.3310   32.0920   48.9650 C   0  0  0  0  0  0  0  0  0  0  0  0
   38.7170   33.3350   49.3910 C   0  0  0  0  0  0  0  0  0  0  0  0
   39.4910   34.1820   48.6210 C   0  0  0  0  0  0  0  0  0  0  0  0
   39.8910   33.7600   47.3760 C   0  0  0  0  0  0  0  0  0  0  0  0
   39.5160   32.5030   46.9150 C   0  0  0  0  0  0  0  0  0  0  0  0
   38.4010   33.6630   50.3660 H   0  0  0  0  0  0  0  0  0  0  0  0
   39.7600   35.1530   49.0170 H   0  0  0  0  0  0  0  0  0  0  0  0
   40.5050   34.4110   46.7460 H   0  0  0  0  0  0  0  0  0  0  0  0
   37.1820   29.6430   51.6220 C   0  0  0  0  0  0  0  0  0  0  0  0
   37.9740   30.5300   50.8870 C   0  0  0  0  0  0  0  0  0  0  0  0
   37.5120   31.1610   49.7450 C   0  0  0  0  0  0  0  0  0  0  0  0
   36.2390   30.8700   49.3770 N   0  0  0  0  0  0  0  0  0  0  0  0
   35.4760   30.0160   50.0870 C   0  0  0  0  0  0  0  0  0  0  0  0
   35.9330   29.4170   51.1800 N   0  0  0  0  0  0  0  0  0  0  0  0
   37.6750   29.2130   52.5060 H   0  0  0  0  0  0  0  0  0  0  0  0
   38.9990   30.7730   51.1680 H   0  0  0  0  0  0  0  0  0  0  0  0
   34.4610   29.7860   49.7910 H   0  0  0  0  0  0  0  0  0  0  0  0
   38.8730   32.1200   44.6290 C   0  0  0  0  0  0  0  0  0  0  0  0
   37.7820   32.6140   45.0550 O   0  0  0  0  0  0  0  0  0  0  0  0
   39.9100   32.0220   45.6260 N   0  0  0  0  0  0  0  0  0  0  0  0
   40.8100   31.6280   45.3350 H   0  0  0  0  0  0  0  0  0  0  0  0
   39.0060   29.1480   44.1590 Cl  0  0  0  0  0  0  0  0  0  0  0  0
   39.1830   30.3490   42.8870 C   0  0  0  0  0  0  0  0  0  0  0  0
   39.0990   31.6780   43.2540 C   0  0  0  0  0  0  0  0  0  0  0  0
   39.2310   32.6770   42.2890 C   0  0  0  0  0  0  0  0  0  0  0  0
   39.1820   33.7530   42.4710 H   0  0  0  0  0  0  0  0  0  0  0  0
   39.4440   32.3110   40.9860 C   0  0  0  0  0  0  0  0  0  0  0  0
   39.5560   33.0620   40.1880 H   0  0  0  0  0  0  0  0  0  0  0  0
   39.5240   30.9740   40.6500 C   0  0  0  0  0  0  0  0  0  0  0  0
   39.6920   30.7270   39.6130 H   0  0  0  0  0  0  0  0  0  0  0  0
   39.3970   29.9530   41.5800 C   0  0  0  0  0  0  0  0  0  0  0  0
   39.5000   28.2570   41.1400 Cl  0  0  0  0  0  0  0  0  0  0  0  0
  1  2  1  0  0  0  0
  2  3  1  0  0  0  0
  3  4  2  0  0  0  0
  3 13  1  0  0  0  0
  4  8  1  0  0  0  0
  5  9  1  0  0  0  0
  5  4  1  0  0  0  0
  6  5  2  0  0  0  0
  7  6  1  0  0  0  0
  7  2  2  0  0  0  0
 10  6  1  0  0  0  0
 11 17  1  0  0  0  0
 12 18  1  0  0  0  0
 12 11  2  0  0  0  0
 13 12  1  0  0  0  0
 14 13  2  0  0  0  0
 14 15  1  0  0  0  0
 15 16  2  0  0  0  0
 16 11  1  0  0  0  0
 19 15  1  0  0  0  0
 20 21  2  0  0  0  0
 20 22  1  0  0  0  0
 22  7  1  0  0  0  0
 23 22  1  0  0  0  0
 25 26  1  0  0  0  0
 25 24  1  0  0  0  0
 26 20  1  0  0  0  0
 27 28  1  0  0  0  0
 27 26  2  0  0  0  0
 29 27  1  0  0  0  0
 30 29  1  0  0  0  0
 31 29  2  0  0  0  0
 31 33  1  0  0  0  0
 32 31  1  0  0  0  0
 33 25  2  0  0  0  0
 34 33  1  0  0  0  0
M  END
>  <minimizedAffinity>
-6.68755007

>  <minimizedRMSD>
0.399053395

$$$$
