
 OpenBabel03272503063D

 34 36  0  0  0  0  0  0  0  0999 V2000
   38.4960   30.3690   47.3410 F   0  0  0  0  0  0  0  0  0  0  0  0
   38.7570   31.6170   47.7910 C   0  0  0  0  0  0  0  0  0  0  0  0
   38.1720   32.0570   48.9440 C   0  0  0  0  0  0  0  0  0  0  0  0
   38.4710   33.3290   49.3550 C   0  0  0  0  0  0  0  0  0  0  0  0
   39.3250   34.1590   48.6550 C   0  0  0  0  0  0  0  0  0  0  0  0
   39.9000   33.6900   47.4980 C   0  0  0  0  0  0  0  0  0  0  0  0
   39.6160   32.4030   47.0550 C   0  0  0  0  0  0  0  0  0  0  0  0
   38.0190   33.6940   50.2610 H   0  0  0  0  0  0  0  0  0  0  0  0
   39.5190   35.1540   49.0340 H   0  0  0  0  0  0  0  0  0  0  0  0
   40.5810   34.3270   46.9250 H   0  0  0  0  0  0  0  0  0  0  0  0
   36.7740   29.5990   51.4700 C   0  0  0  0  0  0  0  0  0  0  0  0
   37.6410   30.4700   50.8040 C   0  0  0  0  0  0  0  0  0  0  0  0
   37.2730   31.1430   49.6520 C   0  0  0  0  0  0  0  0  0  0  0  0
   36.0140   30.9100   49.2030 N   0  0  0  0  0  0  0  0  0  0  0  0
   35.1770   30.0710   49.8460 C   0  0  0  0  0  0  0  0  0  0  0  0
   35.5460   29.4320   50.9500 N   0  0  0  0  0  0  0  0  0  0  0  0
   37.1960   29.1320   52.3720 H   0  0  0  0  0  0  0  0  0  0  0  0
   38.6560   30.6680   51.1510 H   0  0  0  0  0  0  0  0  0  0  0  0
   34.1740   29.8880   49.4850 H   0  0  0  0  0  0  0  0  0  0  0  0
   39.3300   31.9770   44.7050 C   0  0  0  0  0  0  0  0  0  0  0  0
   38.2060   32.5190   44.9390 O   0  0  0  0  0  0  0  0  0  0  0  0
   40.1910   31.8720   45.8570 N   0  0  0  0  0  0  0  0  0  0  0  0
   41.1110   31.4390   45.7220 H   0  0  0  0  0  0  0  0  0  0  0  0
   38.2960   33.4610   42.2960 Cl  0  0  0  0  0  0  0  0  0  0  0  0
   39.3630   32.0660   42.2030 C   0  0  0  0  0  0  0  0  0  0  0  0
   39.7550   31.4880   43.3940 C   0  0  0  0  0  0  0  0  0  0  0  0
   40.6020   30.3780   43.3840 C   0  0  0  0  0  0  0  0  0  0  0  0
   40.9710   29.8460   44.2640 H   0  0  0  0  0  0  0  0  0  0  0  0
   41.0260   29.8840   42.1800 C   0  0  0  0  0  0  0  0  0  0  0  0
   41.6940   29.0100   42.1190 H   0  0  0  0  0  0  0  0  0  0  0  0
   40.6160   30.4830   41.0050 C   0  0  0  0  0  0  0  0  0  0  0  0
   40.9730   30.0640   40.0760 H   0  0  0  0  0  0  0  0  0  0  0  0
   39.7760   31.5880   40.9730 C   0  0  0  0  0  0  0  0  0  0  0  0
   39.2610   32.3400   39.4740 Cl  0  0  0  0  0  0  0  0  0  0  0  0
  1  2  1  0  0  0  0
  2  3  1  0  0  0  0
  3  4  2  0  0  0  0
  3 13  1  0  0  0  0
  4  8  1  0  0  0  0
  5  9  1  0  0  0  0
  5  4  1  0  0  0  0
  6  5  2  0  0  0  0
  7  6  1  0  0  0  0
  7  2  2  0  0  0  0
 10  6  1  0  0  0  0
 11 17  1  0  0  0  0
 12 18  1  0  0  0  0
 12 11  2  0  0  0  0
 13 12  1  0  0  0  0
 14 13  2  0  0  0  0
 14 15  1  0  0  0  0
 15 16  2  0  0  0  0
 16 11  1  0  0  0  0
 19 15  1  0  0  0  0
 20 21  2  0  0  0  0
 20 22  1  0  0  0  0
 22  7  1  0  0  0  0
 23 22  1  0  0  0  0
 25 24  1  0  0  0  0
 25 26  1  0  0  0  0
 26 20  1  0  0  0  0
 27 26  2  0  0  0  0
 27 28  1  0  0  0  0
 29 27  1  0  0  0  0
 30 29  1  0  0  0  0
 31 29  2  0  0  0  0
 32 31  1  0  0  0  0
 33 31  1  0  0  0  0
 33 25  2  0  0  0  0
 34 33  1  0  0  0  0
M  END
>  <minimizedAffinity>
-6.83673048

>  <minimizedRMSD>
0.364128143

$$$$
