
 OpenBabel03272508593D

 42 45  0  0  1  0  0  0  0  0999 V2000
   37.4570   27.8900   32.3590 C   0  0  0  0  0  0  0  0  0  0  0  0
   37.6470   27.8080   31.0080 C   0  0  0  0  0  0  0  0  0  0  0  0
   36.9040   28.6530   30.2020 C   0  0  0  0  0  0  0  0  0  0  0  0
   36.0240   29.5180   30.8030 C   0  0  0  0  0  0  0  0  0  0  0  0
   35.8270   29.6040   32.1680 C   0  0  0  0  0  0  0  0  0  0  0  0
   36.5750   28.7630   32.8910 N   0  0  0  0  0  0  0  0  0  0  0  0
   38.3470   27.1200   30.5500 H   0  0  0  0  0  0  0  0  0  0  0  0
   37.0230   28.6220   29.1330 H   0  0  0  0  0  0  0  0  0  0  0  0
   35.4670   30.1560   30.1260 H   0  0  0  0  0  0  0  0  0  0  0  0
   38.2360   27.0030   33.2440 C   0  0  0  0  0  0  0  0  0  0  0  0
   38.7340   27.4270   34.3130 O   0  0  0  0  0  0  0  0  0  0  0  0
   38.4130   25.6200   32.8400 N   0  0  0  0  0  0  0  0  0  0  0  0
   38.2120   25.2810   31.8930 H   0  0  0  0  0  0  0  0  0  0  0  0
   37.9720   24.0820   34.7360 C   0  0  2  0  0  0  0  0  0  0  0  0
   38.4060   23.2410   33.5900 C   0  0  0  0  0  0  0  0  0  0  0  0
   38.8920   24.6970   33.8350 C   0  0  1  0  0  0  0  0  0  0  0  0
   36.8870   24.3170   34.7080 H   0  0  0  0  0  0  0  0  0  0  0  0
   37.7410   23.0550   32.7480 H   0  0  0  0  0  0  0  0  0  0  0  0
   39.1120   22.4270   33.8620 H   0  0  0  0  0  0  0  0  0  0  0  0
   39.9770   24.7530   34.1120 H   0  0  0  0  0  0  0  0  0  0  0  0
   40.0020   22.6930   37.5290 C   0  0  0  0  0  0  0  0  0  0  0  0
   39.2700   23.1540   38.6690 C   0  0  0  0  0  0  0  0  0  0  0  0
   38.0770   23.9340   38.4480 C   0  0  0  0  0  0  0  0  0  0  0  0
   37.6830   24.2080   37.1640 N   0  0  0  0  0  0  0  0  0  0  0  0
   38.4230   23.7390   36.1370 C   0  0  0  0  0  0  0  0  0  0  0  0
   39.5810   22.9830   36.2830 N   0  0  0  0  0  0  0  0  0  0  0  0
   40.8890   22.1130   37.7350 H   0  0  0  0  0  0  0  0  0  0  0  0
   39.5620   22.9520   39.6790 H   0  0  0  0  0  0  0  0  0  0  0  0
   37.5280   24.2810   39.3090 H   0  0  0  0  0  0  0  0  0  0  0  0
   34.8740   30.5480   32.7400 C   0  0  0  0  0  0  0  0  0  0  0  0
   33.8850   30.9000   32.0220 O   0  0  0  0  0  0  0  0  0  0  0  0
   32.6190   29.6480   34.4890 Cl  0  0  0  0  0  0  0  0  0  0  0  0
   33.9130   30.7430   34.9100 C   0  0  0  0  0  0  0  0  0  0  0  0
   34.9400   31.1340   34.0680 C   0  0  0  0  0  0  0  0  0  0  0  0
   35.9260   32.0060   34.4790 C   0  0  0  0  0  0  0  0  0  0  0  0
   36.6800   32.2540   33.7630 H   0  0  0  0  0  0  0  0  0  0  0  0
   35.8460   32.4760   35.7730 C   0  0  0  0  0  0  0  0  0  0  0  0
   36.6260   33.1610   36.0880 H   0  0  0  0  0  0  0  0  0  0  0  0
   34.8470   32.1190   36.6500 C   0  0  0  0  0  0  0  0  0  0  0  0
   34.8210   32.5090   37.6540 H   0  0  0  0  0  0  0  0  0  0  0  0
   33.8670   31.2390   36.2110 C   0  0  0  0  0  0  0  0  0  0  0  0
   32.6180   30.8140   37.3570 Cl  0  0  0  0  0  0  0  0  0  0  0  0
  1  6  1  0  0  0  0
  1 10  1  0  0  0  0
  2  1  2  0  0  0  0
  3  4  2  0  0  0  0
  3  2  1  0  0  0  0
  4  5  1  0  0  0  0
  5 30  1  0  0  0  0
  5  6  2  0  0  0  0
  7  2  1  0  0  0  0
  8  3  1  0  0  0  0
  9  4  1  0  0  0  0
 10 11  2  0  0  0  0
 12 10  1  0  0  0  0
 12 16  1  0  0  0  0
 13 12  1  0  0  0  0
 14 17  1  6  0  0  0
 14 25  1  0  0  0  0
 15 16  1  0  0  0  0
 15 19  1  0  0  0  0
 15 14  1  0  0  0  0
 16 20  1  1  0  0  0
 16 14  1  0  0  0  0
 18 15  1  0  0  0  0
 21 27  1  0  0  0  0
 21 22  1  0  0  0  0
 22 28  1  0  0  0  0
 23 22  2  0  0  0  0
 23 29  1  0  0  0  0
 24 23  1  0  0  0  0
 25 26  1  0  0  0  0
 25 24  2  0  0  0  0
 26 21  2  0  0  0  0
 30 34  1  0  0  0  0
 31 30  2  0  0  0  0
 32 33  1  0  0  0  0
 33 41  1  0  0  0  0
 34 35  1  0  0  0  0
 34 33  2  0  0  0  0
 35 37  2  0  0  0  0
 36 35  1  0  0  0  0
 37 38  1  0  0  0  0
 37 39  1  0  0  0  0
 39 40  1  0  0  0  0
 41 39  2  0  0  0  0
 41 42  1  0  0  0  0
M  END
>  <minimizedAffinity>
-6.17194128

$$$$

 OpenBabel03272508593D

 42 45  0  0  1  0  0  0  0  0999 V2000
   36.6920   25.5530   32.2340 C   0  0  0  0  0  0  0  0  0  0  0  0
   36.1210   26.7370   31.8620 C   0  0  0  0  0  0  0  0  0  0  0  0
   36.2880   27.8240   32.7040 C   0  0  0  0  0  0  0  0  0  0  0  0
   37.0140   27.6480   33.8560 C   0  0  0  0  0  0  0  0  0  0  0  0
   37.5940   26.4530   34.2360 C   0  0  0  0  0  0  0  0  0  0  0  0
   37.3960   25.4430   33.3810 N   0  0  0  0  0  0  0  0  0  0  0  0
   35.5500   26.8590   30.9490 H   0  0  0  0  0  0  0  0  0  0  0  0
   35.8560   28.7760   32.4500 H   0  0  0  0  0  0  0  0  0  0  0  0
   37.1150   28.5300   34.4790 H   0  0  0  0  0  0  0  0  0  0  0  0
   36.5310   24.3780   31.3560 C   0  0  0  0  0  0  0  0  0  0  0  0
   37.2450   24.2270   30.3370 O   0  0  0  0  0  0  0  0  0  0  0  0
   35.5190   23.3980   31.7050 N   0  0  0  0  0  0  0  0  0  0  0  0
   34.7800   23.5750   32.3930 H   0  0  0  0  0  0  0  0  0  0  0  0
   36.5360   21.1510   31.4500 C   0  0  2  0  0  0  0  0  0  0  0  0
   35.1570   20.9440   31.9620 C   0  0  0  0  0  0  0  0  0  0  0  0
   35.5760   22.1220   31.0400 C   0  0  1  0  0  0  0  0  0  0  0  0
   37.2670   21.3610   32.2600 H   0  0  0  0  0  0  0  0  0  0  0  0
   34.9050   21.1640   32.9970 H   0  0  0  0  0  0  0  0  0  0  0  0
   34.6120   20.1030   31.4810 H   0  0  0  0  0  0  0  0  0  0  0  0
   35.1290   22.0540   30.0140 H   0  0  0  0  0  0  0  0  0  0  0  0
   36.8780   18.2160   29.1860 C   0  0  0  0  0  0  0  0  0  0  0  0
   38.1240   18.4970   28.5420 C   0  0  0  0  0  0  0  0  0  0  0  0
   38.8310   19.6990   28.9110 C   0  0  0  0  0  0  0  0  0  0  0  0
   38.2920   20.5290   29.8600 N   0  0  0  0  0  0  0  0  0  0  0  0
   37.1120   20.1980   30.4260 C   0  0  0  0  0  0  0  0  0  0  0  0
   36.3830   19.0570   30.1150 N   0  0  0  0  0  0  0  0  0  0  0  0
   36.3790   17.3070   28.8830 H   0  0  0  0  0  0  0  0  0  0  0  0
   38.5610   17.8620   27.7980 H   0  0  0  0  0  0  0  0  0  0  0  0
   39.7700   19.9090   28.4240 H   0  0  0  0  0  0  0  0  0  0  0  0
   38.3530   26.3370   35.4750 C   0  0  0  0  0  0  0  0  0  0  0  0
   38.7560   27.4100   36.0260 O   0  0  0  0  0  0  0  0  0  0  0  0
   40.8270   25.0820   34.3530 Cl  0  0  0  0  0  0  0  0  0  0  0  0
   39.8410   24.4870   35.6650 C   0  0  0  0  0  0  0  0  0  0  0  0
   38.7010   25.1000   36.1550 C   0  0  0  0  0  0  0  0  0  0  0  0
   37.9760   24.5630   37.1980 C   0  0  0  0  0  0  0  0  0  0  0  0
   37.1090   25.1030   37.5120 H   0  0  0  0  0  0  0  0  0  0  0  0
   38.4370   23.3810   37.7370 C   0  0  0  0  0  0  0  0  0  0  0  0
   37.8610   22.9650   38.5570 H   0  0  0  0  0  0  0  0  0  0  0  0
   39.5640   22.7310   37.2870 C   0  0  0  0  0  0  0  0  0  0  0  0
   39.8920   21.8070   37.7360 H   0  0  0  0  0  0  0  0  0  0  0  0
   40.2750   23.2930   36.2360 C   0  0  0  0  0  0  0  0  0  0  0  0
   41.6990   22.4340   35.6980 Cl  0  0  0  0  0  0  0  0  0  0  0  0
  1  6  1  0  0  0  0
  2  1  2  0  0  0  0
  2  3  1  0  0  0  0
  3  4  2  0  0  0  0
  4  5  1  0  0  0  0
  4  9  1  0  0  0  0
  5 30  1  0  0  0  0
  6  5  2  0  0  0  0
  7  2  1  0  0  0  0
  8  3  1  0  0  0  0
 10 12  1  0  0  0  0
 10  1  1  0  0  0  0
 11 10  2  0  0  0  0
 12 13  1  0  0  0  0
 14 15  1  0  0  0  0
 14 17  1  1  0  0  0
 15 18  1  0  0  0  0
 16 20  1  6  0  0  0
 16 14  1  0  0  0  0
 16 12  1  0  0  0  0
 16 15  1  0  0  0  0
 19 15  1  0  0  0  0
 21 26  1  0  0  0  0
 22 23  1  0  0  0  0
 22 21  2  0  0  0  0
 23 24  2  0  0  0  0
 24 25  1  0  0  0  0
 25 14  1  0  0  0  0
 26 25  2  0  0  0  0
 27 21  1  0  0  0  0
 28 22  1  0  0  0  0
 29 23  1  0  0  0  0
 30 31  2  0  0  0  0
 30 34  1  0  0  0  0
 32 33  1  0  0  0  0
 33 34  2  0  0  0  0
 33 41  1  0  0  0  0
 34 35  1  0  0  0  0
 35 36  1  0  0  0  0
 35 37  2  0  0  0  0
 37 38  1  0  0  0  0
 39 40  1  0  0  0  0
 39 37  1  0  0  0  0
 41 39  2  0  0  0  0
 42 41  1  0  0  0  0
M  END
>  <minimizedAffinity>
-6.14437628

$$$$

 OpenBabel03272508593D

 42 45  0  0  1  0  0  0  0  0999 V2000
   36.1350   28.1740   32.6790 C   0  0  0  0  0  0  0  0  0  0  0  0
   35.4320   27.6010   31.6570 C   0  0  0  0  0  0  0  0  0  0  0  0
   35.7330   26.2920   31.3230 C   0  0  0  0  0  0  0  0  0  0  0  0
   36.7150   25.6490   32.0350 C   0  0  0  0  0  0  0  0  0  0  0  0
   37.4290   26.2230   33.0690 C   0  0  0  0  0  0  0  0  0  0  0  0
   37.0910   27.4890   33.3420 N   0  0  0  0  0  0  0  0  0  0  0  0
   34.6580   28.1230   31.1050 H   0  0  0  0  0  0  0  0  0  0  0  0
   35.2030   25.8020   30.5250 H   0  0  0  0  0  0  0  0  0  0  0  0
   36.9120   24.6270   31.7330 H   0  0  0  0  0  0  0  0  0  0  0  0
   35.8340   29.5680   33.0580 C   0  0  0  0  0  0  0  0  0  0  0  0
   35.5680   30.4320   32.1900 O   0  0  0  0  0  0  0  0  0  0  0  0
   35.8550   29.9130   34.4670 N   0  0  0  0  0  0  0  0  0  0  0  0
   36.2660   29.3090   35.1870 H   0  0  0  0  0  0  0  0  0  0  0  0
   34.9800   31.4310   36.2220 C   0  0  2  0  0  0  0  0  0  0  0  0
   36.2220   32.0530   35.6950 C   0  0  0  0  0  0  0  0  0  0  0  0
   35.2640   31.1690   34.8490 C   0  0  1  0  0  0  0  0  0  0  0  0
   35.1810   30.6760   37.0120 H   0  0  0  0  0  0  0  0  0  0  0  0
   37.2020   31.6520   35.9510 H   0  0  0  0  0  0  0  0  0  0  0  0
   36.1540   33.1510   35.5420 H   0  0  0  0  0  0  0  0  0  0  0  0
   34.7230   31.7480   34.0560 H   0  0  0  0  0  0  0  0  0  0  0  0
   32.9930   34.2740   37.5720 C   0  0  0  0  0  0  0  0  0  0  0  0
   31.6650   33.8970   37.1950 C   0  0  0  0  0  0  0  0  0  0  0  0
   31.4810   32.6550   36.4850 C   0  0  0  0  0  0  0  0  0  0  0  0
   32.5730   31.8790   36.1940 N   0  0  0  0  0  0  0  0  0  0  0  0
   33.7960   32.2990   36.5830 C   0  0  0  0  0  0  0  0  0  0  0  0
   34.0410   33.4830   37.2680 N   0  0  0  0  0  0  0  0  0  0  0  0
   33.0900   35.2100   38.1020 H   0  0  0  0  0  0  0  0  0  0  0  0
   30.7990   34.4880   37.4120 H   0  0  0  0  0  0  0  0  0  0  0  0
   30.4790   32.3730   36.2020 H   0  0  0  0  0  0  0  0  0  0  0  0
   38.4610   25.4820   33.7830 C   0  0  0  0  0  0  0  0  0  0  0  0
   39.6720   25.6800   33.4480 O   0  0  0  0  0  0  0  0  0  0  0  0
   38.3990   26.7910   36.4730 Cl  0  0  0  0  0  0  0  0  0  0  0  0
   38.2080   25.0920   36.1190 C   0  0  0  0  0  0  0  0  0  0  0  0
   38.2430   24.5260   34.8560 C   0  0  0  0  0  0  0  0  0  0  0  0
   38.0840   23.1700   34.6610 C   0  0  0  0  0  0  0  0  0  0  0  0
   38.1260   22.8190   33.6520 H   0  0  0  0  0  0  0  0  0  0  0  0
   37.8870   22.3950   35.7840 C   0  0  0  0  0  0  0  0  0  0  0  0
   37.7620   21.3300   35.6220 H   0  0  0  0  0  0  0  0  0  0  0  0
   37.8430   22.9080   37.0610 C   0  0  0  0  0  0  0  0  0  0  0  0
   37.6860   22.2670   37.9150 H   0  0  0  0  0  0  0  0  0  0  0  0
   38.0060   24.2760   37.2290 C   0  0  0  0  0  0  0  0  0  0  0  0
   37.9440   24.8820   38.8670 Cl  0  0  0  0  0  0  0  0  0  0  0  0
  1 10  1  0  0  0  0
  1  6  1  0  0  0  0
  2  1  2  0  0  0  0
  3  2  1  0  0  0  0
  3  4  2  0  0  0  0
  4  5  1  0  0  0  0
  5  6  2  0  0  0  0
  5 30  1  0  0  0  0
  7  2  1  0  0  0  0
  8  3  1  0  0  0  0
  9  4  1  0  0  0  0
 10 12  1  0  0  0  0
 11 10  2  0  0  0  0
 12 16  1  0  0  0  0
 12 13  1  0  0  0  0
 14 25  1  0  0  0  0
 14 17  1  1  0  0  0
 15 18  1  0  0  0  0
 15 14  1  0  0  0  0
 16 20  1  6  0  0  0
 16 15  1  0  0  0  0
 16 14  1  0  0  0  0
 19 15  1  0  0  0  0
 21 27  1  0  0  0  0
 22 28  1  0  0  0  0
 22 21  2  0  0  0  0
 23 22  1  0  0  0  0
 24 23  2  0  0  0  0
 24 25  1  0  0  0  0
 25 26  2  0  0  0  0
 26 21  1  0  0  0  0
 29 23  1  0  0  0  0
 30 34  1  0  0  0  0
 31 30  2  0  0  0  0
 33 32  1  0  0  0  0
 33 41  1  0  0  0  0
 34 33  2  0  0  0  0
 35 34  1  0  0  0  0
 35 37  2  0  0  0  0
 36 35  1  0  0  0  0
 37 39  1  0  0  0  0
 38 37  1  0  0  0  0
 39 41  2  0  0  0  0
 39 40  1  0  0  0  0
 41 42  1  0  0  0  0
M  END
>  <minimizedAffinity>
-6.11649179

$$$$

 OpenBabel03272508593D

 42 45  0  0  1  0  0  0  0  0999 V2000
   37.4650   26.6160   32.5360 C   0  0  0  0  0  0  0  0  0  0  0  0
   38.5270   26.7260   31.6820 C   0  0  0  0  0  0  0  0  0  0  0  0
   39.4560   25.7000   31.6760 C   0  0  0  0  0  0  0  0  0  0  0  0
   39.2580   24.6380   32.5240 C   0  0  0  0  0  0  0  0  0  0  0  0
   38.1870   24.5230   33.3890 C   0  0  0  0  0  0  0  0  0  0  0  0
   37.3260   25.5450   33.3460 N   0  0  0  0  0  0  0  0  0  0  0  0
   38.6680   27.5710   31.0180 H   0  0  0  0  0  0  0  0  0  0  0  0
   40.3070   25.7450   31.0190 H   0  0  0  0  0  0  0  0  0  0  0  0
   40.0150   23.8630   32.4800 H   0  0  0  0  0  0  0  0  0  0  0  0
   36.4590   27.6940   32.5620 C   0  0  0  0  0  0  0  0  0  0  0  0
   35.6120   27.8140   31.6460 O   0  0  0  0  0  0  0  0  0  0  0  0
   36.4750   28.6160   33.6830 N   0  0  0  0  0  0  0  0  0  0  0  0
   37.2610   28.6910   34.3370 H   0  0  0  0  0  0  0  0  0  0  0  0
   35.3590   30.5210   34.8130 C   0  0  2  0  0  0  0  0  0  0  0  0
   35.5570   30.9170   33.3950 C   0  0  0  0  0  0  0  0  0  0  0  0
   35.3200   29.4560   33.8660 C   0  0  1  0  0  0  0  0  0  0  0  0
   36.2570   30.7090   35.4390 H   0  0  0  0  0  0  0  0  0  0  0  0
   36.5430   31.1840   33.0200 H   0  0  0  0  0  0  0  0  0  0  0  0
   34.6890   31.4430   32.9420 H   0  0  0  0  0  0  0  0  0  0  0  0
   34.3280   29.0480   33.5390 H   0  0  0  0  0  0  0  0  0  0  0  0
   33.0880   32.0720   37.3220 C   0  0  0  0  0  0  0  0  0  0  0  0
   31.8050   31.6770   36.8260 C   0  0  0  0  0  0  0  0  0  0  0  0
   31.7500   30.8700   35.6320 C   0  0  0  0  0  0  0  0  0  0  0  0
   32.9190   30.5080   35.0120 N   0  0  0  0  0  0  0  0  0  0  0  0
   34.0930   30.9170   35.5380 C   0  0  0  0  0  0  0  0  0  0  0  0
   34.2140   31.6950   36.6840 N   0  0  0  0  0  0  0  0  0  0  0  0
   33.0880   32.6750   38.2170 H   0  0  0  0  0  0  0  0  0  0  0  0
   30.8820   31.9490   37.2950 H   0  0  0  0  0  0  0  0  0  0  0  0
   30.7820   30.5740   35.2600 H   0  0  0  0  0  0  0  0  0  0  0  0
   38.0380   23.3660   34.2630 C   0  0  0  0  0  0  0  0  0  0  0  0
   37.4560   22.3380   33.7920 O   0  0  0  0  0  0  0  0  0  0  0  0
   40.6130   21.8600   34.4950 Cl  0  0  0  0  0  0  0  0  0  0  0  0
   39.6860   22.5750   35.7890 C   0  0  0  0  0  0  0  0  0  0  0  0
   38.4960   23.2660   35.6390 C   0  0  0  0  0  0  0  0  0  0  0  0
   37.8240   23.8010   36.7170 C   0  0  0  0  0  0  0  0  0  0  0  0
   36.9120   24.3180   36.5090 H   0  0  0  0  0  0  0  0  0  0  0  0
   38.3890   23.6190   37.9610 C   0  0  0  0  0  0  0  0  0  0  0  0
   37.8540   24.0440   38.8030 H   0  0  0  0  0  0  0  0  0  0  0  0
   39.5700   22.9410   38.1650 C   0  0  0  0  0  0  0  0  0  0  0  0
   39.9800   22.8200   39.1560 H   0  0  0  0  0  0  0  0  0  0  0  0
   40.2270   22.4120   37.0630 C   0  0  0  0  0  0  0  0  0  0  0  0
   41.7210   21.5590   37.3700 Cl  0  0  0  0  0  0  0  0  0  0  0  0
  1 10  1  0  0  0  0
  1  6  1  0  0  0  0
  2  1  2  0  0  0  0
  3  2  1  0  0  0  0
  3  4  2  0  0  0  0
  4  5  1  0  0  0  0
  5 30  1  0  0  0  0
  6  5  2  0  0  0  0
  7  2  1  0  0  0  0
  8  3  1  0  0  0  0
  9  4  1  0  0  0  0
 10 12  1  0  0  0  0
 11 10  2  0  0  0  0
 12 16  1  0  0  0  0
 12 13  1  0  0  0  0
 14 17  1  1  0  0  0
 14 25  1  0  0  0  0
 15 16  1  0  0  0  0
 15 14  1  0  0  0  0
 16 20  1  6  0  0  0
 16 14  1  0  0  0  0
 18 15  1  0  0  0  0
 19 15  1  0  0  0  0
 21 27  1  0  0  0  0
 22 28  1  0  0  0  0
 22 21  1  0  0  0  0
 23 22  2  0  0  0  0
 24 25  2  0  0  0  0
 24 23  1  0  0  0  0
 25 26  1  0  0  0  0
 26 21  2  0  0  0  0
 29 23  1  0  0  0  0
 30 34  1  0  0  0  0
 31 30  2  0  0  0  0
 32 33  1  0  0  0  0
 33 41  1  0  0  0  0
 34 33  2  0  0  0  0
 34 35  1  0  0  0  0
 35 37  2  0  0  0  0
 36 35  1  0  0  0  0
 37 39  1  0  0  0  0
 37 38  1  0  0  0  0
 39 40  1  0  0  0  0
 41 42  1  0  0  0  0
 41 39  2  0  0  0  0
M  END
>  <minimizedAffinity>
-6.03621531

$$$$

 OpenBabel03272508593D

 42 45  0  0  1  0  0  0  0  0999 V2000
   37.0950   27.2260   33.6720 C   0  0  0  0  0  0  0  0  0  0  0  0
   36.7550   26.5600   32.5270 C   0  0  0  0  0  0  0  0  0  0  0  0
   35.8910   27.1900   31.6490 C   0  0  0  0  0  0  0  0  0  0  0  0
   35.4270   28.4400   31.9770 C   0  0  0  0  0  0  0  0  0  0  0  0
   35.7670   29.1170   33.1320 C   0  0  0  0  0  0  0  0  0  0  0  0
   36.6060   28.4560   33.9380 N   0  0  0  0  0  0  0  0  0  0  0  0
   37.1310   25.5730   32.2830 H   0  0  0  0  0  0  0  0  0  0  0  0
   35.5970   26.7020   30.7360 H   0  0  0  0  0  0  0  0  0  0  0  0
   34.7540   28.8880   31.2550 H   0  0  0  0  0  0  0  0  0  0  0  0
   38.0160   26.5790   34.6260 C   0  0  0  0  0  0  0  0  0  0  0  0
   37.5920   25.7920   35.5040 O   0  0  0  0  0  0  0  0  0  0  0  0
   39.4310   26.8800   34.5200 N   0  0  0  0  0  0  0  0  0  0  0  0
   39.8000   27.6630   33.9690 H   0  0  0  0  0  0  0  0  0  0  0  0
   40.7530   24.7850   34.6520 C   0  0  2  0  0  0  0  0  0  0  0  0
   41.7250   25.9010   34.5280 C   0  0  0  0  0  0  0  0  0  0  0  0
   40.3450   26.0230   35.2310 C   0  0  1  0  0  0  0  0  0  0  0  0
   40.3620   24.4470   33.6690 H   0  0  0  0  0  0  0  0  0  0  0  0
   41.8690   26.4170   33.5810 H   0  0  0  0  0  0  0  0  0  0  0  0
   42.6150   25.8070   35.1890 H   0  0  0  0  0  0  0  0  0  0  0  0
   40.4300   26.1660   36.3390 H   0  0  0  0  0  0  0  0  0  0  0  0
   42.5530   21.9020   36.1680 C   0  0  0  0  0  0  0  0  0  0  0  0
   41.6480   21.5170   37.2080 C   0  0  0  0  0  0  0  0  0  0  0  0
   40.4220   22.2610   37.3600 C   0  0  0  0  0  0  0  0  0  0  0  0
   40.1610   23.3060   36.5110 N   0  0  0  0  0  0  0  0  0  0  0  0
   41.0610   23.6110   35.5520 C   0  0  0  0  0  0  0  0  0  0  0  0
   42.2590   22.9350   35.3540 N   0  0  0  0  0  0  0  0  0  0  0  0
   43.4600   21.3210   36.0870 H   0  0  0  0  0  0  0  0  0  0  0  0
   41.8340   20.7050   37.8810 H   0  0  0  0  0  0  0  0  0  0  0  0
   39.7420   21.9690   38.1450 H   0  0  0  0  0  0  0  0  0  0  0  0
   35.2370   30.4450   33.4180 C   0  0  0  0  0  0  0  0  0  0  0  0
   35.1230   31.2590   32.4470 O   0  0  0  0  0  0  0  0  0  0  0  0
   32.4250   29.6650   34.0770 Cl  0  0  0  0  0  0  0  0  0  0  0  0
   33.5220   30.6000   35.0620 C   0  0  0  0  0  0  0  0  0  0  0  0
   34.8190   30.9400   34.7190 C   0  0  0  0  0  0  0  0  0  0  0  0
   35.6220   31.6850   35.5560 C   0  0  0  0  0  0  0  0  0  0  0  0
   36.6100   31.9020   35.2100 H   0  0  0  0  0  0  0  0  0  0  0  0
   35.0770   32.0810   36.7590 C   0  0  0  0  0  0  0  0  0  0  0  0
   35.7150   32.6650   37.4120 H   0  0  0  0  0  0  0  0  0  0  0  0
   33.7930   31.7690   37.1480 C   0  0  0  0  0  0  0  0  0  0  0  0
   33.4030   32.0980   38.0980 H   0  0  0  0  0  0  0  0  0  0  0  0
   33.0060   31.0180   36.2870 C   0  0  0  0  0  0  0  0  0  0  0  0
   31.3840   30.6470   36.8220 Cl  0  0  0  0  0  0  0  0  0  0  0  0
  1  6  1  0  0  0  0
  1 10  1  0  0  0  0
  2  1  2  0  0  0  0
  3  4  2  0  0  0  0
  3  2  1  0  0  0  0
  4  5  1  0  0  0  0
  5 30  1  0  0  0  0
  5  6  2  0  0  0  0
  7  2  1  0  0  0  0
  8  3  1  0  0  0  0
  9  4  1  0  0  0  0
 10 11  2  0  0  0  0
 12 10  1  0  0  0  0
 12 16  1  0  0  0  0
 13 12  1  0  0  0  0
 14 17  1  6  0  0  0
 14 16  1  0  0  0  0
 14 25  1  0  0  0  0
 15 14  1  0  0  0  0
 15 19  1  0  0  0  0
 15 16  1  0  0  0  0
 16 20  1  1  0  0  0
 18 15  1  0  0  0  0
 21 22  1  0  0  0  0
 22 23  2  0  0  0  0
 22 28  1  0  0  0  0
 23 29  1  0  0  0  0
 24 23  1  0  0  0  0
 25 24  2  0  0  0  0
 26 25  1  0  0  0  0
 26 21  2  0  0  0  0
 27 21  1  0  0  0  0
 30 34  1  0  0  0  0
 31 30  2  0  0  0  0
 32 33  1  0  0  0  0
 33 41  1  0  0  0  0
 34 33  2  0  0  0  0
 34 35  1  0  0  0  0
 35 37  2  0  0  0  0
 36 35  1  0  0  0  0
 37 39  1  0  0  0  0
 37 38  1  0  0  0  0
 39 40  1  0  0  0  0
 41 42  1  0  0  0  0
 41 39  2  0  0  0  0
M  END
>  <minimizedAffinity>
-5.9655695

$$$$

 OpenBabel03272508593D

 42 45  0  0  1  0  0  0  0  0999 V2000
   36.9960   26.9260   32.1740 C   0  0  0  0  0  0  0  0  0  0  0  0
   37.5850   27.0460   30.9460 C   0  0  0  0  0  0  0  0  0  0  0  0
   37.3820   28.2250   30.2490 C   0  0  0  0  0  0  0  0  0  0  0  0
   36.6060   29.1980   30.8280 C   0  0  0  0  0  0  0  0  0  0  0  0
   36.0080   29.0810   32.0680 C   0  0  0  0  0  0  0  0  0  0  0  0
   36.2430   27.9200   32.6900 N   0  0  0  0  0  0  0  0  0  0  0  0
   38.1960   26.2680   30.5040 H   0  0  0  0  0  0  0  0  0  0  0  0
   37.8280   28.3620   29.2790 H   0  0  0  0  0  0  0  0  0  0  0  0
   36.4790   30.1000   30.2400 H   0  0  0  0  0  0  0  0  0  0  0  0
   37.1960   25.6810   32.9400 C   0  0  0  0  0  0  0  0  0  0  0  0
   37.0260   24.5580   32.4100 O   0  0  0  0  0  0  0  0  0  0  0  0
   37.5960   25.7920   34.3310 N   0  0  0  0  0  0  0  0  0  0  0  0
   37.5450   26.6680   34.8620 H   0  0  0  0  0  0  0  0  0  0  0  0
   39.1200   24.6990   35.9540 C   0  0  2  0  0  0  0  0  0  0  0  0
   37.7420   24.5490   36.4880 C   0  0  0  0  0  0  0  0  0  0  0  0
   38.0880   24.6010   34.9740 C   0  0  1  0  0  0  0  0  0  0  0  0
   39.5780   25.6750   36.2210 H   0  0  0  0  0  0  0  0  0  0  0  0
   37.2150   25.3950   36.9260 H   0  0  0  0  0  0  0  0  0  0  0  0
   37.5240   23.5460   36.9160 H   0  0  0  0  0  0  0  0  0  0  0  0
   37.9170   23.6240   34.4530 H   0  0  0  0  0  0  0  0  0  0  0  0
   40.9780   21.8250   37.4190 C   0  0  0  0  0  0  0  0  0  0  0  0
   41.8750   21.4950   36.3540 C   0  0  0  0  0  0  0  0  0  0  0  0
   41.8260   22.2820   35.1470 C   0  0  0  0  0  0  0  0  0  0  0  0
   40.9290   23.3150   35.0550 N   0  0  0  0  0  0  0  0  0  0  0  0
   40.1140   23.5690   36.1010 C   0  0  0  0  0  0  0  0  0  0  0  0
   40.1110   22.8490   37.2900 N   0  0  0  0  0  0  0  0  0  0  0  0
   41.0450   21.2130   38.3060 H   0  0  0  0  0  0  0  0  0  0  0  0
   42.5820   20.6920   36.4060 H   0  0  0  0  0  0  0  0  0  0  0  0
   42.5030   22.0300   34.3460 H   0  0  0  0  0  0  0  0  0  0  0  0
   35.1940   30.1550   32.6240 C   0  0  0  0  0  0  0  0  0  0  0  0
   34.0460   30.3520   32.1150 O   0  0  0  0  0  0  0  0  0  0  0  0
   36.3990   32.7170   31.6540 Cl  0  0  0  0  0  0  0  0  0  0  0  0
   36.1300   32.2350   33.3100 C   0  0  0  0  0  0  0  0  0  0  0  0
   35.5680   31.0370   33.7170 C   0  0  0  0  0  0  0  0  0  0  0  0
   35.3910   30.7310   35.0500 C   0  0  0  0  0  0  0  0  0  0  0  0
   34.9500   29.7830   35.2730 H   0  0  0  0  0  0  0  0  0  0  0  0
   35.8000   31.6750   35.9680 C   0  0  0  0  0  0  0  0  0  0  0  0
   35.6570   31.4270   37.0140 H   0  0  0  0  0  0  0  0  0  0  0  0
   36.3640   32.8810   35.6170 C   0  0  0  0  0  0  0  0  0  0  0  0
   36.6710   33.5930   36.3660 H   0  0  0  0  0  0  0  0  0  0  0  0
   36.5310   33.1630   34.2680 C   0  0  0  0  0  0  0  0  0  0  0  0
   37.2510   34.7050   33.8690 Cl  0  0  0  0  0  0  0  0  0  0  0  0
  1  6  1  0  0  0  0
  1 10  1  0  0  0  0
  2  1  2  0  0  0  0
  3  4  2  0  0  0  0
  3  2  1  0  0  0  0
  4  5  1  0  0  0  0
  5 30  1  0  0  0  0
  5  6  2  0  0  0  0
  7  2  1  0  0  0  0
  8  3  1  0  0  0  0
  9  4  1  0  0  0  0
 10 12  1  0  0  0  0
 11 10  2  0  0  0  0
 12 13  1  0  0  0  0
 12 16  1  0  0  0  0
 14 25  1  0  0  0  0
 14 17  1  1  0  0  0
 14 15  1  0  0  0  0
 15 19  1  0  0  0  0
 15 18  1  0  0  0  0
 16 20  1  6  0  0  0
 16 14  1  0  0  0  0
 16 15  1  0  0  0  0
 21 27  1  0  0  0  0
 22 28  1  0  0  0  0
 22 21  2  0  0  0  0
 23 22  1  0  0  0  0
 24 23  2  0  0  0  0
 24 25  1  0  0  0  0
 25 26  2  0  0  0  0
 26 21  1  0  0  0  0
 29 23  1  0  0  0  0
 30 34  1  0  0  0  0
 31 30  2  0  0  0  0
 32 33  1  0  0  0  0
 33 34  2  0  0  0  0
 33 41  1  0  0  0  0
 34 35  1  0  0  0  0
 35 36  1  0  0  0  0
 35 37  2  0  0  0  0
 37 38  1  0  0  0  0
 39 37  1  0  0  0  0
 39 40  1  0  0  0  0
 41 39  2  0  0  0  0
 42 41  1  0  0  0  0
M  END
>  <minimizedAffinity>
-5.9489646

$$$$

 OpenBabel03272508593D

 42 45  0  0  1  0  0  0  0  0999 V2000
   37.7870   27.7450   31.8910 C   0  0  0  0  0  0  0  0  0  0  0  0
   38.0220   27.7600   30.5450 C   0  0  0  0  0  0  0  0  0  0  0  0
   37.3180   28.6750   29.7800 C   0  0  0  0  0  0  0  0  0  0  0  0
   36.4320   29.5090   30.4150 C   0  0  0  0  0  0  0  0  0  0  0  0
   36.1910   29.4970   31.7760 C   0  0  0  0  0  0  0  0  0  0  0  0
   36.9010   28.5920   32.4580 N   0  0  0  0  0  0  0  0  0  0  0  0
   38.7260   27.0950   30.0590 H   0  0  0  0  0  0  0  0  0  0  0  0
   37.4720   28.7220   28.7160 H   0  0  0  0  0  0  0  0  0  0  0  0
   35.9080   30.2050   29.7710 H   0  0  0  0  0  0  0  0  0  0  0  0
   38.5230   26.7810   32.7320 C   0  0  0  0  0  0  0  0  0  0  0  0
   39.2510   27.1670   33.6760 O   0  0  0  0  0  0  0  0  0  0  0  0
   38.3800   25.3680   32.4340 N   0  0  0  0  0  0  0  0  0  0  0  0
   37.9750   25.0150   31.5610 H   0  0  0  0  0  0  0  0  0  0  0  0
   37.9450   23.9980   34.4560 C   0  0  2  0  0  0  0  0  0  0  0  0
   38.1330   23.0510   33.3260 C   0  0  0  0  0  0  0  0  0  0  0  0
   38.8360   24.4330   33.4300 C   0  0  1  0  0  0  0  0  0  0  0  0
   36.9060   24.3820   34.5250 H   0  0  0  0  0  0  0  0  0  0  0  0
   37.3610   22.9220   32.5690 H   0  0  0  0  0  0  0  0  0  0  0  0
   38.7470   22.1590   33.5740 H   0  0  0  0  0  0  0  0  0  0  0  0
   39.9420   24.3480   33.5910 H   0  0  0  0  0  0  0  0  0  0  0  0
   38.2300   23.7230   38.1570 C   0  0  0  0  0  0  0  0  0  0  0  0
   39.4620   23.0090   38.2950 C   0  0  0  0  0  0  0  0  0  0  0  0
   40.1800   22.6420   37.0990 C   0  0  0  0  0  0  0  0  0  0  0  0
   39.6640   22.9840   35.8750 N   0  0  0  0  0  0  0  0  0  0  0  0
   38.4960   23.6590   35.8220 C   0  0  0  0  0  0  0  0  0  0  0  0
   37.7580   24.0420   36.9360 N   0  0  0  0  0  0  0  0  0  0  0  0
   37.7230   23.9800   39.0750 H   0  0  0  0  0  0  0  0  0  0  0  0
   39.8810   22.7320   39.2410 H   0  0  0  0  0  0  0  0  0  0  0  0
   41.1080   22.1030   37.2060 H   0  0  0  0  0  0  0  0  0  0  0  0
   35.2330   30.4120   32.3860 C   0  0  0  0  0  0  0  0  0  0  0  0
   34.1800   30.6910   31.7300 O   0  0  0  0  0  0  0  0  0  0  0  0
   36.8100   32.9520   32.2580 Cl  0  0  0  0  0  0  0  0  0  0  0  0
   36.0860   32.2260   33.6710 C   0  0  0  0  0  0  0  0  0  0  0  0
   35.3620   31.0460   33.6870 C   0  0  0  0  0  0  0  0  0  0  0  0
   34.8230   30.5380   34.8500 C   0  0  0  0  0  0  0  0  0  0  0  0
   34.2790   29.6210   34.7700 H   0  0  0  0  0  0  0  0  0  0  0  0
   35.0350   31.2590   36.0060 C   0  0  0  0  0  0  0  0  0  0  0  0
   34.6070   30.8530   36.9160 H   0  0  0  0  0  0  0  0  0  0  0  0
   35.7470   32.4370   36.0450 C   0  0  0  0  0  0  0  0  0  0  0  0
   35.8900   32.9720   36.9700 H   0  0  0  0  0  0  0  0  0  0  0  0
   36.2790   32.9260   34.8600 C   0  0  0  0  0  0  0  0  0  0  0  0
   37.1750   34.4240   34.9570 Cl  0  0  0  0  0  0  0  0  0  0  0  0
  1  6  1  0  0  0  0
  1 10  1  0  0  0  0
  2  1  2  0  0  0  0
  3  4  2  0  0  0  0
  3  2  1  0  0  0  0
  4  5  1  0  0  0  0
  5 30  1  0  0  0  0
  5  6  2  0  0  0  0
  7  2  1  0  0  0  0
  8  3  1  0  0  0  0
  9  4  1  0  0  0  0
 10 11  2  0  0  0  0
 12 10  1  0  0  0  0
 12 16  1  0  0  0  0
 13 12  1  0  0  0  0
 14 17  1  1  0  0  0
 14 25  1  0  0  0  0
 15 16  1  0  0  0  0
 15 19  1  0  0  0  0
 15 14  1  0  0  0  0
 16 20  1  1  0  0  0
 16 14  1  0  0  0  0
 18 15  1  0  0  0  0
 21 22  1  0  0  0  0
 21 27  1  0  0  0  0
 22 28  1  0  0  0  0
 23 29  1  0  0  0  0
 23 22  2  0  0  0  0
 24 23  1  0  0  0  0
 25 24  2  0  0  0  0
 25 26  1  0  0  0  0
 26 21  2  0  0  0  0
 30 34  1  0  0  0  0
 31 30  2  0  0  0  0
 32 33  1  0  0  0  0
 33 34  2  0  0  0  0
 33 41  1  0  0  0  0
 34 35  1  0  0  0  0
 35 37  2  0  0  0  0
 36 35  1  0  0  0  0
 37 39  1  0  0  0  0
 37 38  1  0  0  0  0
 39 40  1  0  0  0  0
 41 42  1  0  0  0  0
 41 39  2  0  0  0  0
M  END
>  <minimizedAffinity>
-5.90160847

$$$$

 OpenBabel03272508593D

 42 45  0  0  1  0  0  0  0  0999 V2000
   38.0960   26.3570   33.8430 C   0  0  0  0  0  0  0  0  0  0  0  0
   39.1700   27.0630   34.3070 C   0  0  0  0  0  0  0  0  0  0  0  0
   40.2410   26.3470   34.8120 C   0  0  0  0  0  0  0  0  0  0  0  0
   40.1630   24.9760   34.8160 C   0  0  0  0  0  0  0  0  0  0  0  0
   39.0800   24.2570   34.3490 C   0  0  0  0  0  0  0  0  0  0  0  0
   38.0780   25.0070   33.8740 N   0  0  0  0  0  0  0  0  0  0  0  0
   39.2160   28.1460   34.2960 H   0  0  0  0  0  0  0  0  0  0  0  0
   41.1080   26.8630   35.1870 H   0  0  0  0  0  0  0  0  0  0  0  0
   41.0280   24.4640   35.2220 H   0  0  0  0  0  0  0  0  0  0  0  0
   36.9400   27.0940   33.2980 C   0  0  0  0  0  0  0  0  0  0  0  0
   36.2000   26.5860   32.4220 O   0  0  0  0  0  0  0  0  0  0  0  0
   36.6810   28.4290   33.8050 N   0  0  0  0  0  0  0  0  0  0  0  0
   37.3620   28.9630   34.3550 H   0  0  0  0  0  0  0  0  0  0  0  0
   34.6450   29.6340   34.5510 C   0  0  2  0  0  0  0  0  0  0  0  0
   35.3890   30.5570   33.6560 C   0  0  0  0  0  0  0  0  0  0  0  0
   35.3960   29.0100   33.5110 C   0  0  1  0  0  0  0  0  0  0  0  0
   35.0140   29.6620   35.5980 H   0  0  0  0  0  0  0  0  0  0  0  0
   36.3010   31.0480   33.9900 H   0  0  0  0  0  0  0  0  0  0  0  0
   34.7470   31.1220   32.9460 H   0  0  0  0  0  0  0  0  0  0  0  0
   34.8680   28.6560   32.5880 H   0  0  0  0  0  0  0  0  0  0  0  0
   31.1780   29.4900   33.2050 C   0  0  0  0  0  0  0  0  0  0  0  0
   30.4060   29.4630   34.4100 C   0  0  0  0  0  0  0  0  0  0  0  0
   31.1030   29.5050   35.6720 C   0  0  0  0  0  0  0  0  0  0  0  0
   32.4730   29.5680   35.6800 N   0  0  0  0  0  0  0  0  0  0  0  0
   33.1340   29.5900   34.5030 C   0  0  0  0  0  0  0  0  0  0  0  0
   32.5230   29.5520   33.2560 N   0  0  0  0  0  0  0  0  0  0  0  0
   30.6200   29.4570   32.2810 H   0  0  0  0  0  0  0  0  0  0  0  0
   29.3360   29.4140   34.4250 H   0  0  0  0  0  0  0  0  0  0  0  0
   30.5190   29.4850   36.5780 H   0  0  0  0  0  0  0  0  0  0  0  0
   39.0630   22.8000   34.3840 C   0  0  0  0  0  0  0  0  0  0  0  0
   40.1780   22.1970   34.4790 O   0  0  0  0  0  0  0  0  0  0  0  0
   37.6060   22.6900   36.9950 Cl  0  0  0  0  0  0  0  0  0  0  0  0
   37.1790   21.8760   35.5110 C   0  0  0  0  0  0  0  0  0  0  0  0
   37.8820   21.9540   34.3210 C   0  0  0  0  0  0  0  0  0  0  0  0
   37.4770   21.2770   33.1900 C   0  0  0  0  0  0  0  0  0  0  0  0
   38.0810   21.3940   32.3150 H   0  0  0  0  0  0  0  0  0  0  0  0
   36.3340   20.5140   33.2930 C   0  0  0  0  0  0  0  0  0  0  0  0
   36.0220   19.9850   32.3990 H   0  0  0  0  0  0  0  0  0  0  0  0
   35.5980   20.4030   34.4510 C   0  0  0  0  0  0  0  0  0  0  0  0
   34.7090   19.7940   34.4910 H   0  0  0  0  0  0  0  0  0  0  0  0
   36.0280   21.0940   35.5750 C   0  0  0  0  0  0  0  0  0  0  0  0
   35.0640   20.9230   37.0230 Cl  0  0  0  0  0  0  0  0  0  0  0  0
  1  6  2  0  0  0  0
  1  2  1  0  0  0  0
  2  3  2  0  0  0  0
  3  4  1  0  0  0  0
  3  8  1  0  0  0  0
  4  9  1  0  0  0  0
  5 30  1  0  0  0  0
  5  4  2  0  0  0  0
  6  5  1  0  0  0  0
  7  2  1  0  0  0  0
 10 12  1  0  0  0  0
 10  1  1  0  0  0  0
 11 10  2  0  0  0  0
 12 13  1  0  0  0  0
 14 17  1  1  0  0  0
 15 18  1  0  0  0  0
 15 14  1  0  0  0  0
 16 20  1  6  0  0  0
 16 15  1  0  0  0  0
 16 12  1  0  0  0  0
 16 14  1  0  0  0  0
 19 15  1  0  0  0  0
 21 26  2  0  0  0  0
 21 22  1  0  0  0  0
 22 28  1  0  0  0  0
 22 23  2  0  0  0  0
 23 24  1  0  0  0  0
 23 29  1  0  0  0  0
 25 14  1  0  0  0  0
 25 24  2  0  0  0  0
 26 25  1  0  0  0  0
 27 21  1  0  0  0  0
 30 31  2  0  0  0  0
 33 41  1  0  0  0  0
 33 32  1  0  0  0  0
 34 30  1  0  0  0  0
 34 33  2  0  0  0  0
 35 37  2  0  0  0  0
 35 34  1  0  0  0  0
 36 35  1  0  0  0  0
 37 39  1  0  0  0  0
 38 37  1  0  0  0  0
 39 40  1  0  0  0  0
 39 41  2  0  0  0  0
 41 42  1  0  0  0  0
M  END
>  <minimizedAffinity>
-5.85393381

$$$$

 OpenBabel03272508593D

 42 45  0  0  1  0  0  0  0  0999 V2000
   36.0690   28.4200   31.8960 C   0  0  0  0  0  0  0  0  0  0  0  0
   36.7030   29.1610   30.9380 C   0  0  0  0  0  0  0  0  0  0  0  0
   36.1440   30.3800   30.5950 C   0  0  0  0  0  0  0  0  0  0  0  0
   34.9930   30.7710   31.2330 C   0  0  0  0  0  0  0  0  0  0  0  0
   34.3490   30.0250   32.2020 C   0  0  0  0  0  0  0  0  0  0  0  0
   34.9390   28.8590   32.4890 N   0  0  0  0  0  0  0  0  0  0  0  0
   37.6110   28.8380   30.4440 H   0  0  0  0  0  0  0  0  0  0  0  0
   36.6100   30.9970   29.8460 H   0  0  0  0  0  0  0  0  0  0  0  0
   34.5970   31.7330   30.9280 H   0  0  0  0  0  0  0  0  0  0  0  0
   36.6430   27.1170   32.2830 C   0  0  0  0  0  0  0  0  0  0  0  0
   36.8710   26.8380   33.4830 O   0  0  0  0  0  0  0  0  0  0  0  0
   36.9380   26.1610   31.2310 N   0  0  0  0  0  0  0  0  0  0  0  0
   36.9690   26.4120   30.2370 H   0  0  0  0  0  0  0  0  0  0  0  0
   36.4720   23.7350   31.0130 C   0  0  2  0  0  0  0  0  0  0  0  0
   37.8460   23.9580   30.4950 C   0  0  0  0  0  0  0  0  0  0  0  0
   37.1950   24.8010   31.6260 C   0  0  1  0  0  0  0  0  0  0  0  0
   35.6900   23.9270   30.2490 H   0  0  0  0  0  0  0  0  0  0  0  0
   38.0110   24.4320   29.5290 H   0  0  0  0  0  0  0  0  0  0  0  0
   38.5840   23.1870   30.8080 H   0  0  0  0  0  0  0  0  0  0  0  0
   37.6760   24.6350   32.6250 H   0  0  0  0  0  0  0  0  0  0  0  0
   34.9580   20.4810   32.0010 C   0  0  0  0  0  0  0  0  0  0  0  0
   35.6290   20.2190   33.2370 C   0  0  0  0  0  0  0  0  0  0  0  0
   36.5910   21.1820   33.7120 C   0  0  0  0  0  0  0  0  0  0  0  0
   36.8330   22.3110   32.9720 N   0  0  0  0  0  0  0  0  0  0  0  0
   36.1610   22.4920   31.8150 C   0  0  0  0  0  0  0  0  0  0  0  0
   35.2230   21.6030   31.3030 N   0  0  0  0  0  0  0  0  0  0  0  0
   34.2450   19.7370   31.6780 H   0  0  0  0  0  0  0  0  0  0  0  0
   35.4550   19.3440   33.8290 H   0  0  0  0  0  0  0  0  0  0  0  0
   37.0960   20.9820   34.6440 H   0  0  0  0  0  0  0  0  0  0  0  0
   33.1280   30.5010   32.8400 C   0  0  0  0  0  0  0  0  0  0  0  0
   32.2950   31.1400   32.1220 O   0  0  0  0  0  0  0  0  0  0  0  0
   31.3930   28.0970   33.2450 Cl  0  0  0  0  0  0  0  0  0  0  0  0
   31.9560   29.2130   34.4640 C   0  0  0  0  0  0  0  0  0  0  0  0
   32.7600   30.3160   34.2340 C   0  0  0  0  0  0  0  0  0  0  0  0
   33.1610   31.1500   35.2560 C   0  0  0  0  0  0  0  0  0  0  0  0
   33.7810   31.9790   34.9870 H   0  0  0  0  0  0  0  0  0  0  0  0
   32.7260   30.8380   36.5260 C   0  0  0  0  0  0  0  0  0  0  0  0
   33.0470   31.4990   37.3240 H   0  0  0  0  0  0  0  0  0  0  0  0
   31.9260   29.7540   36.8090 C   0  0  0  0  0  0  0  0  0  0  0  0
   31.6070   29.5440   37.8170 H   0  0  0  0  0  0  0  0  0  0  0  0
   31.5370   28.9300   35.7620 C   0  0  0  0  0  0  0  0  0  0  0  0
   30.5210   27.5670   36.1670 Cl  0  0  0  0  0  0  0  0  0  0  0  0
  1 10  1  0  0  0  0
  1  6  1  0  0  0  0
  2  1  2  0  0  0  0
  3  2  1  0  0  0  0
  3  4  2  0  0  0  0
  4  5  1  0  0  0  0
  5  6  2  0  0  0  0
  5 30  1  0  0  0  0
  7  2  1  0  0  0  0
  8  3  1  0  0  0  0
  9  4  1  0  0  0  0
 10 11  2  0  0  0  0
 12 16  1  0  0  0  0
 12 10  1  0  0  0  0
 13 12  1  0  0  0  0
 14 17  1  6  0  0  0
 14 16  1  0  0  0  0
 14 25  1  0  0  0  0
 15 19  1  0  0  0  0
 15 14  1  0  0  0  0
 15 16  1  0  0  0  0
 16 20  1  1  0  0  0
 18 15  1  0  0  0  0
 21 22  1  0  0  0  0
 22 23  2  0  0  0  0
 22 28  1  0  0  0  0
 23 29  1  0  0  0  0
 24 23  1  0  0  0  0
 25 24  2  0  0  0  0
 26 25  1  0  0  0  0
 26 21  2  0  0  0  0
 27 21  1  0  0  0  0
 30 34  1  0  0  0  0
 31 30  2  0  0  0  0
 32 33  1  0  0  0  0
 33 41  1  0  0  0  0
 34 33  2  0  0  0  0
 34 35  1  0  0  0  0
 35 37  2  0  0  0  0
 36 35  1  0  0  0  0
 37 39  1  0  0  0  0
 37 38  1  0  0  0  0
 39 40  1  0  0  0  0
 41 42  1  0  0  0  0
 41 39  2  0  0  0  0
M  END
>  <minimizedAffinity>
-5.85325146

$$$$
