
 OpenBabel03262520543D

 28 30  0  0  1  0  0  0  0  0999 V2000
   39.8390   31.8890   46.4590 C   0  0  2  0  0  0  0  0  0  0  0  0
   39.8600   33.0300   45.5480 C   0  0  0  0  0  0  0  0  0  0  0  0
   39.3240   31.7100   45.0730 C   0  0  2  0  0  0  0  0  0  0  0  0
   40.7870   31.3840   46.7200 H   0  0  0  0  0  0  0  0  0  0  0  0
   39.1240   33.8680   45.6170 H   0  0  0  0  0  0  0  0  0  0  0  0
   40.8110   33.3390   45.0940 H   0  0  0  0  0  0  0  0  0  0  0  0
   39.9700   31.0670   44.4240 H   0  0  0  0  0  0  0  0  0  0  0  0
   37.6350   32.7060   49.3670 C   0  0  0  0  0  0  0  0  0  0  0  0
   37.0140   31.4710   49.5880 C   0  0  0  0  0  0  0  0  0  0  0  0
   37.3430   30.3710   48.7450 C   0  0  0  0  0  0  0  0  0  0  0  0
   38.2570   30.5710   47.7520 N   0  0  0  0  0  0  0  0  0  0  0  0
   38.8350   31.7730   47.5680 C   0  0  0  0  0  0  0  0  0  0  0  0
   38.5410   32.8410   48.3560 N   0  0  0  0  0  0  0  0  0  0  0  0
   37.3770   33.5340   50.0140 H   0  0  0  0  0  0  0  0  0  0  0  0
   36.2930   31.2850   50.3600 H   0  0  0  0  0  0  0  0  0  0  0  0
   36.9180   29.3990   48.8430 H   0  0  0  0  0  0  0  0  0  0  0  0
   37.5230   31.5420   44.8810 S   0  0  0  0  0  0  0  0  0  0  0  0
   34.7460   30.2820   45.3720 Cl  0  0  0  0  0  0  0  0  0  0  0  0
   35.8880   29.5250   44.2600 C   0  0  0  0  0  0  0  0  0  0  0  0
   37.1470   30.0510   44.0050 C   0  0  0  0  0  0  0  0  0  0  0  0
   38.0100   29.4290   43.1290 C   0  0  0  0  0  0  0  0  0  0  0  0
   38.9780   29.8700   42.9580 H   0  0  0  0  0  0  0  0  0  0  0  0
   37.5590   28.2590   42.5210 C   0  0  0  0  0  0  0  0  0  0  0  0
   38.2310   27.7780   41.8400 H   0  0  0  0  0  0  0  0  0  0  0  0
   36.3030   27.7360   42.7770 C   0  0  0  0  0  0  0  0  0  0  0  0
   35.9840   26.8150   42.2790 H   0  0  0  0  0  0  0  0  0  0  0  0
   35.4490   28.3560   43.6460 C   0  0  0  0  0  0  0  0  0  0  0  0
   33.8620   27.6930   43.9700 Cl  0  0  0  0  0  0  0  0  0  0  0  0
  1  4  1  1  0  0  0
  1 12  1  0  0  0  0
  2  5  1  0  0  0  0
  2  1  1  0  0  0  0
  3  7  1  6  0  0  0
  3  2  1  0  0  0  0
  3  1  1  0  0  0  0
  6  2  1  0  0  0  0
  8  9  1  0  0  0  0
  8 14  1  0  0  0  0
  9 15  1  0  0  0  0
 10 16  1  0  0  0  0
 10  9  2  0  0  0  0
 11 10  1  0  0  0  0
 12 11  2  0  0  0  0
 12 13  1  0  0  0  0
 13  8  2  0  0  0  0
 17  3  1  0  0  0  0
 19 18  1  0  0  0  0
 20 19  1  0  0  0  0
 20 17  1  0  0  0  0
 21 20  2  0  0  0  0
 22 21  1  0  0  0  0
 23 25  2  0  0  0  0
 23 21  1  0  0  0  0
 24 23  1  0  0  0  0
 25 27  1  0  0  0  0
 26 25  1  0  0  0  0
 27 28  1  0  0  0  0
 27 19  2  0  0  0  0
M  END
>  <minimizedAffinity>
-4.24588156

>  <minimizedRMSD>
7.08209085

$$$$
