
 OpenBabel03272503073D

 34 36  0  0  0  0  0  0  0  0999 V2000
   40.1180   23.8710   34.8040 F   0  0  0  0  0  0  0  0  0  0  0  0
   39.5550   23.7810   36.0290 C   0  0  0  0  0  0  0  0  0  0  0  0
   40.2050   23.1070   37.0250 C   0  0  0  0  0  0  0  0  0  0  0  0
   39.5910   23.0460   38.2470 C   0  0  0  0  0  0  0  0  0  0  0  0
   38.3640   23.6320   38.4970 C   0  0  0  0  0  0  0  0  0  0  0  0
   37.7340   24.3040   37.4780 C   0  0  0  0  0  0  0  0  0  0  0  0
   38.3320   24.3830   36.2260 C   0  0  0  0  0  0  0  0  0  0  0  0
   40.0860   22.5180   39.0430 H   0  0  0  0  0  0  0  0  0  0  0  0
   37.9330   23.5460   39.4870 H   0  0  0  0  0  0  0  0  0  0  0  0
   36.7620   24.7770   37.6490 H   0  0  0  0  0  0  0  0  0  0  0  0
   43.8740   22.6610   36.1790 C   0  0  0  0  0  0  0  0  0  0  0  0
   42.6410   23.2510   36.4770 C   0  0  0  0  0  0  0  0  0  0  0  0
   41.5020   22.5020   36.7130 C   0  0  0  0  0  0  0  0  0  0  0  0
   41.6480   21.1560   36.6410 N   0  0  0  0  0  0  0  0  0  0  0  0
   42.8360   20.5870   36.3560 C   0  0  0  0  0  0  0  0  0  0  0  0
   43.9210   21.3180   36.1300 N   0  0  0  0  0  0  0  0  0  0  0  0
   44.6950   23.3740   36.0140 H   0  0  0  0  0  0  0  0  0  0  0  0
   42.5070   24.3310   36.5370 H   0  0  0  0  0  0  0  0  0  0  0  0
   42.9500   19.5130   36.2990 H   0  0  0  0  0  0  0  0  0  0  0  0
   38.0420   26.4750   35.0740 C   0  0  0  0  0  0  0  0  0  0  0  0
   38.8230   26.8700   35.9950 O   0  0  0  0  0  0  0  0  0  0  0  0
   37.7130   25.0720   35.1350 N   0  0  0  0  0  0  0  0  0  0  0  0
   37.0830   24.7030   34.4150 H   0  0  0  0  0  0  0  0  0  0  0  0
   39.3540   26.3100   32.3690 Cl  0  0  0  0  0  0  0  0  0  0  0  0
   37.9990   27.3690   32.7370 C   0  0  0  0  0  0  0  0  0  0  0  0
   37.5020   27.3360   34.0230 C   0  0  0  0  0  0  0  0  0  0  0  0
   36.4260   28.1550   34.3760 C   0  0  0  0  0  0  0  0  0  0  0  0
   35.9580   28.2060   35.3610 H   0  0  0  0  0  0  0  0  0  0  0  0
   35.8860   28.9790   33.4250 C   0  0  0  0  0  0  0  0  0  0  0  0
   35.0380   29.6430   33.6530 H   0  0  0  0  0  0  0  0  0  0  0  0
   36.4070   28.9900   32.1460 C   0  0  0  0  0  0  0  0  0  0  0  0
   35.9530   29.6530   31.4250 H   0  0  0  0  0  0  0  0  0  0  0  0
   37.4740   28.1920   31.7580 C   0  0  0  0  0  0  0  0  0  0  0  0
   38.1260   28.2140   30.1290 Cl  0  0  0  0  0  0  0  0  0  0  0  0
  1  2  1  0  0  0  0
  2  7  2  0  0  0  0
  2  3  1  0  0  0  0
  3  4  2  0  0  0  0
  4  5  1  0  0  0  0
  4  8  1  0  0  0  0
  5  9  1  0  0  0  0
  6 10  1  0  0  0  0
  6  5  2  0  0  0  0
  7  6  1  0  0  0  0
 11 12  1  0  0  0  0
 12 18  1  0  0  0  0
 12 13  2  0  0  0  0
 13  3  1  0  0  0  0
 14 13  1  0  0  0  0
 15 14  2  0  0  0  0
 16 11  2  0  0  0  0
 16 15  1  0  0  0  0
 17 11  1  0  0  0  0
 19 15  1  0  0  0  0
 20 22  1  0  0  0  0
 20 21  2  0  0  0  0
 22  7  1  0  0  0  0
 23 22  1  0  0  0  0
 24 25  1  0  0  0  0
 25 26  1  0  0  0  0
 26 27  2  0  0  0  0
 26 20  1  0  0  0  0
 27 28  1  0  0  0  0
 29 30  1  0  0  0  0
 29 27  1  0  0  0  0
 31 29  2  0  0  0  0
 32 31  1  0  0  0  0
 33 31  1  0  0  0  0
 33 25  2  0  0  0  0
 34 33  1  0  0  0  0
M  END
>  <minimizedAffinity>
-6.12319946

$$$$

 OpenBabel03272503073D

 34 36  0  0  0  0  0  0  0  0999 V2000
   36.5350   28.1410   34.7950 F   0  0  0  0  0  0  0  0  0  0  0  0
   37.1600   27.9520   33.6120 C   0  0  0  0  0  0  0  0  0  0  0  0
   36.6770   28.5560   32.4860 C   0  0  0  0  0  0  0  0  0  0  0  0
   37.3490   28.3320   31.3140 C   0  0  0  0  0  0  0  0  0  0  0  0
   38.4730   27.5310   31.2380 C   0  0  0  0  0  0  0  0  0  0  0  0
   38.9370   26.9370   32.3870 C   0  0  0  0  0  0  0  0  0  0  0  0
   38.2770   27.1450   33.5920 C   0  0  0  0  0  0  0  0  0  0  0  0
   36.9830   28.7980   30.4160 H   0  0  0  0  0  0  0  0  0  0  0  0
   38.9570   27.3940   30.2800 H   0  0  0  0  0  0  0  0  0  0  0  0
   39.8260   26.2980   32.3550 H   0  0  0  0  0  0  0  0  0  0  0  0
   34.3940   31.5610   32.8550 C   0  0  0  0  0  0  0  0  0  0  0  0
   35.5420   30.7720   32.7320 C   0  0  0  0  0  0  0  0  0  0  0  0
   35.4830   29.3950   32.6140 C   0  0  0  0  0  0  0  0  0  0  0  0
   34.2410   28.8490   32.6220 N   0  0  0  0  0  0  0  0  0  0  0  0
   33.1350   29.6100   32.7380 C   0  0  0  0  0  0  0  0  0  0  0  0
   33.2070   30.9310   32.8520 N   0  0  0  0  0  0  0  0  0  0  0  0
   34.5870   32.6410   32.9410 H   0  0  0  0  0  0  0  0  0  0  0  0
   36.5470   31.1950   32.7250 H   0  0  0  0  0  0  0  0  0  0  0  0
   32.1460   29.1710   32.7440 H   0  0  0  0  0  0  0  0  0  0  0  0
   38.2910   25.1820   34.9820 C   0  0  0  0  0  0  0  0  0  0  0  0
   37.5840   24.7340   34.0250 O   0  0  0  0  0  0  0  0  0  0  0  0
   38.7240   26.5460   34.8120 N   0  0  0  0  0  0  0  0  0  0  0  0
   39.2960   26.9560   35.5580 H   0  0  0  0  0  0  0  0  0  0  0  0
   40.6120   23.2820   34.7110 Cl  0  0  0  0  0  0  0  0  0  0  0  0
   39.6960   23.5040   36.1960 C   0  0  0  0  0  0  0  0  0  0  0  0
   38.6570   24.4110   36.1690 C   0  0  0  0  0  0  0  0  0  0  0  0
   37.8930   24.6300   37.3180 C   0  0  0  0  0  0  0  0  0  0  0  0
   37.0530   25.3230   37.4050 H   0  0  0  0  0  0  0  0  0  0  0  0
   38.1990   23.9320   38.4550 C   0  0  0  0  0  0  0  0  0  0  0  0
   37.6270   24.0690   39.3860 H   0  0  0  0  0  0  0  0  0  0  0  0
   39.2440   23.0300   38.4500 C   0  0  0  0  0  0  0  0  0  0  0  0
   39.4530   22.4990   39.3670 H   0  0  0  0  0  0  0  0  0  0  0  0
   40.0260   22.7850   37.3300 C   0  0  0  0  0  0  0  0  0  0  0  0
   41.3530   21.6360   37.3370 Cl  0  0  0  0  0  0  0  0  0  0  0  0
  2  1  1  0  0  0  0
  3 13  1  0  0  0  0
  3  2  2  0  0  0  0
  4  3  1  0  0  0  0
  5  4  2  0  0  0  0
  5  6  1  0  0  0  0
  6  7  2  0  0  0  0
  7  2  1  0  0  0  0
  7 22  1  0  0  0  0
  8  4  1  0  0  0  0
  9  5  1  0  0  0  0
 10  6  1  0  0  0  0
 11 17  1  0  0  0  0
 12 11  2  0  0  0  0
 13 14  2  0  0  0  0
 13 12  1  0  0  0  0
 14 15  1  0  0  0  0
 15 19  1  0  0  0  0
 15 16  2  0  0  0  0
 16 11  1  0  0  0  0
 18 12  1  0  0  0  0
 20 26  1  0  0  0  0
 21 20  2  0  0  0  0
 22 20  1  0  0  0  0
 22 23  1  0  0  0  0
 24 25  1  0  0  0  0
 25 33  1  0  0  0  0
 26 25  2  0  0  0  0
 26 27  1  0  0  0  0
 27 28  1  0  0  0  0
 27 29  2  0  0  0  0
 29 30  1  0  0  0  0
 31 29  1  0  0  0  0
 31 32  1  0  0  0  0
 33 34  1  0  0  0  0
 33 31  2  0  0  0  0
M  END
>  <minimizedAffinity>
-5.94321918

$$$$

 OpenBabel03272503073D

 34 36  0  0  0  0  0  0  0  0999 V2000
   36.2480   27.6920   35.1070 F   0  0  0  0  0  0  0  0  0  0  0  0
   36.3670   28.1510   33.8410 C   0  0  0  0  0  0  0  0  0  0  0  0
   35.8600   29.3770   33.5150 C   0  0  0  0  0  0  0  0  0  0  0  0
   36.0080   29.7940   32.2200 C   0  0  0  0  0  0  0  0  0  0  0  0
   36.6390   29.0300   31.2560 C   0  0  0  0  0  0  0  0  0  0  0  0
   37.1390   27.8020   31.6120 C   0  0  0  0  0  0  0  0  0  0  0  0
   37.0050   27.3500   32.9200 C   0  0  0  0  0  0  0  0  0  0  0  0
   35.6140   30.7570   31.9430 H   0  0  0  0  0  0  0  0  0  0  0  0
   36.7210   29.4180   30.2490 H   0  0  0  0  0  0  0  0  0  0  0  0
   37.6440   27.1760   30.8680 H   0  0  0  0  0  0  0  0  0  0  0  0
   35.2370   31.7630   36.3950 C   0  0  0  0  0  0  0  0  0  0  0  0
   35.8800   31.0310   35.3920 C   0  0  0  0  0  0  0  0  0  0  0  0
   35.1990   30.1510   34.5690 C   0  0  0  0  0  0  0  0  0  0  0  0
   33.8660   30.0380   34.7900 N   0  0  0  0  0  0  0  0  0  0  0  0
   33.2470   30.7450   35.7560 C   0  0  0  0  0  0  0  0  0  0  0  0
   33.9130   31.5850   36.5390 N   0  0  0  0  0  0  0  0  0  0  0  0
   35.8980   32.4250   36.9750 H   0  0  0  0  0  0  0  0  0  0  0  0
   36.9510   31.1090   35.2020 H   0  0  0  0  0  0  0  0  0  0  0  0
   32.1830   30.6520   35.9300 H   0  0  0  0  0  0  0  0  0  0  0  0
   38.8440   26.1340   33.8820 C   0  0  0  0  0  0  0  0  0  0  0  0
   39.3520   27.2990   33.9040 O   0  0  0  0  0  0  0  0  0  0  0  0
   37.5110   26.0770   33.3360 N   0  0  0  0  0  0  0  0  0  0  0  0
   37.0560   25.1590   33.2940 H   0  0  0  0  0  0  0  0  0  0  0  0
   38.3040   25.3090   36.7280 Cl  0  0  0  0  0  0  0  0  0  0  0  0
   39.3690   24.4300   35.6390 C   0  0  0  0  0  0  0  0  0  0  0  0
   39.5200   24.9290   34.3610 C   0  0  0  0  0  0  0  0  0  0  0  0
   40.3520   24.2750   33.4510 C   0  0  0  0  0  0  0  0  0  0  0  0
   40.5410   24.5830   32.4200 H   0  0  0  0  0  0  0  0  0  0  0  0
   41.0060   23.1410   33.8540 C   0  0  0  0  0  0  0  0  0  0  0  0
   41.6740   22.5890   33.1740 H   0  0  0  0  0  0  0  0  0  0  0  0
   40.8360   22.6670   35.1400 C   0  0  0  0  0  0  0  0  0  0  0  0
   41.3690   21.7700   35.4190 H   0  0  0  0  0  0  0  0  0  0  0  0
   40.0180   23.2890   36.0720 C   0  0  0  0  0  0  0  0  0  0  0  0
   39.8090   22.6760   37.7030 Cl  0  0  0  0  0  0  0  0  0  0  0  0
  2  1  1  0  0  0  0
  3  2  1  0  0  0  0
  3 13  1  0  0  0  0
  4  3  2  0  0  0  0
  5  6  2  0  0  0  0
  5  4  1  0  0  0  0
  6  7  1  0  0  0  0
  7 22  1  0  0  0  0
  7  2  2  0  0  0  0
  8  4  1  0  0  0  0
  9  5  1  0  0  0  0
 10  6  1  0  0  0  0
 11 16  1  0  0  0  0
 11 17  1  0  0  0  0
 12 11  2  0  0  0  0
 13 14  2  0  0  0  0
 13 12  1  0  0  0  0
 14 15  1  0  0  0  0
 15 19  1  0  0  0  0
 15 16  2  0  0  0  0
 18 12  1  0  0  0  0
 20 21  2  0  0  0  0
 20 26  1  0  0  0  0
 22 20  1  0  0  0  0
 23 22  1  0  0  0  0
 25 33  1  0  0  0  0
 25 24  1  0  0  0  0
 26 25  2  0  0  0  0
 27 29  2  0  0  0  0
 27 26  1  0  0  0  0
 28 27  1  0  0  0  0
 29 31  1  0  0  0  0
 30 29  1  0  0  0  0
 31 32  1  0  0  0  0
 31 33  2  0  0  0  0
 33 34  1  0  0  0  0
M  END
>  <minimizedAffinity>
-5.66238213

$$$$

 OpenBabel03272503073D

 34 36  0  0  0  0  0  0  0  0999 V2000
   36.0790   27.2230   34.9210 F   0  0  0  0  0  0  0  0  0  0  0  0
   36.6460   27.5080   33.7280 C   0  0  0  0  0  0  0  0  0  0  0  0
   36.2850   28.6450   33.0610 C   0  0  0  0  0  0  0  0  0  0  0  0
   36.8890   28.8860   31.8560 C   0  0  0  0  0  0  0  0  0  0  0  0
   37.8300   28.0350   31.3090 C   0  0  0  0  0  0  0  0  0  0  0  0
   38.1750   26.9000   32.0010 C   0  0  0  0  0  0  0  0  0  0  0  0
   37.5780   26.6270   33.2270 C   0  0  0  0  0  0  0  0  0  0  0  0
   36.6170   29.7760   31.3160 H   0  0  0  0  0  0  0  0  0  0  0  0
   38.2700   28.2840   30.3510 H   0  0  0  0  0  0  0  0  0  0  0  0
   38.9180   26.2090   31.5900 H   0  0  0  0  0  0  0  0  0  0  0  0
   34.6310   31.2740   35.2360 C   0  0  0  0  0  0  0  0  0  0  0  0
   35.5970   30.4480   34.6530 C   0  0  0  0  0  0  0  0  0  0  0  0
   35.2830   29.5160   33.6800 C   0  0  0  0  0  0  0  0  0  0  0  0
   33.9770   29.4490   33.3200 N   0  0  0  0  0  0  0  0  0  0  0  0
   33.0460   30.2450   33.8810 C   0  0  0  0  0  0  0  0  0  0  0  0
   33.3630   31.1340   34.8150 N   0  0  0  0  0  0  0  0  0  0  0  0
   35.0200   31.9680   35.9960 H   0  0  0  0  0  0  0  0  0  0  0  0
   36.6510   30.4900   34.9320 H   0  0  0  0  0  0  0  0  0  0  0  0
   32.0050   30.1890   33.5920 H   0  0  0  0  0  0  0  0  0  0  0  0
   38.8680   25.6950   35.0310 C   0  0  0  0  0  0  0  0  0  0  0  0
   39.2680   26.8990   35.1110 O   0  0  0  0  0  0  0  0  0  0  0  0
   37.9060   25.4570   33.9830 N   0  0  0  0  0  0  0  0  0  0  0  0
   37.5530   24.5010   33.8740 H   0  0  0  0  0  0  0  0  0  0  0  0
   41.4650   24.3490   34.3100 Cl  0  0  0  0  0  0  0  0  0  0  0  0
   40.4860   23.9070   35.7030 C   0  0  0  0  0  0  0  0  0  0  0  0
   39.3190   24.6140   35.9060 C   0  0  0  0  0  0  0  0  0  0  0  0
   38.5010   24.3090   36.9960 C   0  0  0  0  0  0  0  0  0  0  0  0
   37.5600   24.8050   37.2480 H   0  0  0  0  0  0  0  0  0  0  0  0
   38.8810   23.3040   37.8440 C   0  0  0  0  0  0  0  0  0  0  0  0
   38.2700   23.0250   38.7180 H   0  0  0  0  0  0  0  0  0  0  0  0
   40.0550   22.6140   37.6130 C   0  0  0  0  0  0  0  0  0  0  0  0
   40.3200   21.8290   38.3060 H   0  0  0  0  0  0  0  0  0  0  0  0
   40.8940   22.8880   36.5430 C   0  0  0  0  0  0  0  0  0  0  0  0
   42.3840   22.0050   36.2610 Cl  0  0  0  0  0  0  0  0  0  0  0  0
  2  1  1  0  0  0  0
  3 13  1  0  0  0  0
  3  2  2  0  0  0  0
  4  3  1  0  0  0  0
  5  4  2  0  0  0  0
  5  6  1  0  0  0  0
  6  7  2  0  0  0  0
  7  2  1  0  0  0  0
  7 22  1  0  0  0  0
  8  4  1  0  0  0  0
  9  5  1  0  0  0  0
 10  6  1  0  0  0  0
 11 17  1  0  0  0  0
 12 18  1  0  0  0  0
 12 11  2  0  0  0  0
 13 12  1  0  0  0  0
 14 13  2  0  0  0  0
 14 15  1  0  0  0  0
 15 16  2  0  0  0  0
 16 11  1  0  0  0  0
 19 15  1  0  0  0  0
 20 21  2  0  0  0  0
 20 26  1  0  0  0  0
 22 20  1  0  0  0  0
 23 22  1  0  0  0  0
 24 25  1  0  0  0  0
 25 26  2  0  0  0  0
 25 33  1  0  0  0  0
 26 27  1  0  0  0  0
 27 28  1  0  0  0  0
 27 29  2  0  0  0  0
 29 30  1  0  0  0  0
 31 29  1  0  0  0  0
 31 32  1  0  0  0  0
 33 31  2  0  0  0  0
 34 33  1  0  0  0  0
M  END
>  <minimizedAffinity>
-5.65238047

$$$$

 OpenBabel03272503073D

 34 36  0  0  0  0  0  0  0  0999 V2000
   37.5410   27.9870   33.7720 F   0  0  0  0  0  0  0  0  0  0  0  0
   38.1100   27.5100   32.6430 C   0  0  0  0  0  0  0  0  0  0  0  0
   37.7420   28.0210   31.4300 C   0  0  0  0  0  0  0  0  0  0  0  0
   38.3500   27.5020   30.3190 C   0  0  0  0  0  0  0  0  0  0  0  0
   39.3010   26.5010   30.3850 C   0  0  0  0  0  0  0  0  0  0  0  0
   39.6530   26.0070   31.6180 C   0  0  0  0  0  0  0  0  0  0  0  0
   39.0530   26.5130   32.7650 C   0  0  0  0  0  0  0  0  0  0  0  0
   38.0730   27.8900   29.3550 H   0  0  0  0  0  0  0  0  0  0  0  0
   39.7430   26.1340   29.4680 H   0  0  0  0  0  0  0  0  0  0  0  0
   40.4040   25.2140   31.6990 H   0  0  0  0  0  0  0  0  0  0  0  0
   35.9990   31.3420   30.8790 C   0  0  0  0  0  0  0  0  0  0  0  0
   36.9740   30.3400   30.8930 C   0  0  0  0  0  0  0  0  0  0  0  0
   36.7300   29.0790   31.4090 C   0  0  0  0  0  0  0  0  0  0  0  0
   35.4840   28.8670   31.9010 N   0  0  0  0  0  0  0  0  0  0  0  0
   34.5440   29.8330   31.8860 C   0  0  0  0  0  0  0  0  0  0  0  0
   34.7930   31.0390   31.3890 N   0  0  0  0  0  0  0  0  0  0  0  0
   36.3280   32.2960   30.4410 H   0  0  0  0  0  0  0  0  0  0  0  0
   37.9800   30.4940   30.5020 H   0  0  0  0  0  0  0  0  0  0  0  0
   33.5510   29.6610   32.2800 H   0  0  0  0  0  0  0  0  0  0  0  0
   38.5320   24.9630   34.5300 C   0  0  0  0  0  0  0  0  0  0  0  0
   37.6240   24.6290   33.7070 O   0  0  0  0  0  0  0  0  0  0  0  0
   39.3880   26.0280   34.0700 N   0  0  0  0  0  0  0  0  0  0  0  0
   40.1370   26.3380   34.6980 H   0  0  0  0  0  0  0  0  0  0  0  0
   40.7760   22.9680   34.7710 Cl  0  0  0  0  0  0  0  0  0  0  0  0
   39.7150   23.4140   36.1010 C   0  0  0  0  0  0  0  0  0  0  0  0
   38.7290   24.3440   35.8400 C   0  0  0  0  0  0  0  0  0  0  0  0
   37.8560   24.7370   36.8560 C   0  0  0  0  0  0  0  0  0  0  0  0
   37.0450   25.4630   36.7560 H   0  0  0  0  0  0  0  0  0  0  0  0
   38.0010   24.1850   38.1000 C   0  0  0  0  0  0  0  0  0  0  0  0
   37.3380   24.4620   38.9340 H   0  0  0  0  0  0  0  0  0  0  0  0
   38.9970   23.2560   38.3300 C   0  0  0  0  0  0  0  0  0  0  0  0
   39.0780   22.8440   39.3250 H   0  0  0  0  0  0  0  0  0  0  0  0
   39.8830   22.8400   37.3470 C   0  0  0  0  0  0  0  0  0  0  0  0
   41.1450   21.6590   37.6520 Cl  0  0  0  0  0  0  0  0  0  0  0  0
  2  7  1  0  0  0  0
  2  1  1  0  0  0  0
  3  2  2  0  0  0  0
  4  5  2  0  0  0  0
  4  3  1  0  0  0  0
  5  6  1  0  0  0  0
  6 10  1  0  0  0  0
  6  7  2  0  0  0  0
  7 22  1  0  0  0  0
  8  4  1  0  0  0  0
  9  5  1  0  0  0  0
 11 12  2  0  0  0  0
 11 16  1  0  0  0  0
 12 13  1  0  0  0  0
 13  3  1  0  0  0  0
 13 14  2  0  0  0  0
 15 14  1  0  0  0  0
 15 19  1  0  0  0  0
 16 15  2  0  0  0  0
 17 11  1  0  0  0  0
 18 12  1  0  0  0  0
 20 26  1  0  0  0  0
 21 20  2  0  0  0  0
 22 20  1  0  0  0  0
 22 23  1  0  0  0  0
 24 25  1  0  0  0  0
 25 33  1  0  0  0  0
 26 25  2  0  0  0  0
 26 27  1  0  0  0  0
 27 29  2  0  0  0  0
 28 27  1  0  0  0  0
 29 31  1  0  0  0  0
 29 30  1  0  0  0  0
 31 32  1  0  0  0  0
 33 34  1  0  0  0  0
 33 31  2  0  0  0  0
M  END
>  <minimizedAffinity>
-5.59614754

$$$$

 OpenBabel03272503073D

 34 36  0  0  0  0  0  0  0  0999 V2000
   40.2720   26.4820   32.6100 F   0  0  0  0  0  0  0  0  0  0  0  0
   39.0780   27.0860   32.4180 C   0  0  0  0  0  0  0  0  0  0  0  0
   38.7690   27.5990   31.1900 C   0  0  0  0  0  0  0  0  0  0  0  0
   37.5460   28.2000   31.0510 C   0  0  0  0  0  0  0  0  0  0  0  0
   36.6390   28.2990   32.0890 C   0  0  0  0  0  0  0  0  0  0  0  0
   36.9770   27.7730   33.3120 C   0  0  0  0  0  0  0  0  0  0  0  0
   38.2110   27.1580   33.4860 C   0  0  0  0  0  0  0  0  0  0  0  0
   37.2840   28.6110   30.0920 H   0  0  0  0  0  0  0  0  0  0  0  0
   35.6890   28.7870   31.9120 H   0  0  0  0  0  0  0  0  0  0  0  0
   36.2770   27.8380   34.1510 H   0  0  0  0  0  0  0  0  0  0  0  0
   41.6730   28.2950   28.8550 C   0  0  0  0  0  0  0  0  0  0  0  0
   40.7310   28.4280   29.8790 C   0  0  0  0  0  0  0  0  0  0  0  0
   39.7610   27.4710   30.1210 C   0  0  0  0  0  0  0  0  0  0  0  0
   39.7760   26.3880   29.3050 N   0  0  0  0  0  0  0  0  0  0  0  0
   40.6850   26.2590   28.3180 C   0  0  0  0  0  0  0  0  0  0  0  0
   41.6090   27.1860   28.0970 N   0  0  0  0  0  0  0  0  0  0  0  0
   42.3850   29.1290   28.7750 H   0  0  0  0  0  0  0  0  0  0  0  0
   40.7050   29.2930   30.5440 H   0  0  0  0  0  0  0  0  0  0  0  0
   40.6940   25.3940   27.6680 H   0  0  0  0  0  0  0  0  0  0  0  0
   38.2640   25.2020   34.8860 C   0  0  0  0  0  0  0  0  0  0  0  0
   37.6700   24.7020   33.8800 O   0  0  0  0  0  0  0  0  0  0  0  0
   38.6050   26.5960   34.7420 N   0  0  0  0  0  0  0  0  0  0  0  0
   39.0840   27.0480   35.5270 H   0  0  0  0  0  0  0  0  0  0  0  0
   40.5740   23.2770   34.7280 Cl  0  0  0  0  0  0  0  0  0  0  0  0
   39.6230   23.5480   36.1830 C   0  0  0  0  0  0  0  0  0  0  0  0
   38.5930   24.4630   36.1040 C   0  0  0  0  0  0  0  0  0  0  0  0
   37.8020   24.7200   37.2250 C   0  0  0  0  0  0  0  0  0  0  0  0
   36.9660   25.4220   37.2710 H   0  0  0  0  0  0  0  0  0  0  0  0
   38.0730   24.0520   38.3890 C   0  0  0  0  0  0  0  0  0  0  0  0
   37.4780   24.2200   39.3020 H   0  0  0  0  0  0  0  0  0  0  0  0
   39.1100   23.1420   38.4370 C   0  0  0  0  0  0  0  0  0  0  0  0
   39.2910   22.6360   39.3740 H   0  0  0  0  0  0  0  0  0  0  0  0
   39.9180   22.8590   37.3450 C   0  0  0  0  0  0  0  0  0  0  0  0
   41.2340   21.7010   37.4180 Cl  0  0  0  0  0  0  0  0  0  0  0  0
  2  1  1  0  0  0  0
  2  7  1  0  0  0  0
  3  2  2  0  0  0  0
  4  3  1  0  0  0  0
  4  5  2  0  0  0  0
  5  6  1  0  0  0  0
  6  7  2  0  0  0  0
  6 10  1  0  0  0  0
  7 22  1  0  0  0  0
  8  4  1  0  0  0  0
  9  5  1  0  0  0  0
 11 12  1  0  0  0  0
 12 13  2  0  0  0  0
 12 18  1  0  0  0  0
 13  3  1  0  0  0  0
 14 13  1  0  0  0  0
 15 14  2  0  0  0  0
 16 15  1  0  0  0  0
 16 11  2  0  0  0  0
 17 11  1  0  0  0  0
 19 15  1  0  0  0  0
 20 26  1  0  0  0  0
 21 20  2  0  0  0  0
 22 20  1  0  0  0  0
 22 23  1  0  0  0  0
 24 25  1  0  0  0  0
 25 33  1  0  0  0  0
 26 25  2  0  0  0  0
 26 27  1  0  0  0  0
 27 28  1  0  0  0  0
 27 29  2  0  0  0  0
 29 31  1  0  0  0  0
 29 30  1  0  0  0  0
 31 32  1  0  0  0  0
 33 34  1  0  0  0  0
 33 31  2  0  0  0  0
M  END
>  <minimizedAffinity>
-5.54667521

$$$$

 OpenBabel03272503073D

 34 36  0  0  0  0  0  0  0  0999 V2000
   38.7240   26.9720   31.9290 F   0  0  0  0  0  0  0  0  0  0  0  0
   37.6500   26.1720   31.7440 C   0  0  0  0  0  0  0  0  0  0  0  0
   36.5130   26.6830   31.1840 C   0  0  0  0  0  0  0  0  0  0  0  0
   35.4550   25.8290   31.0190 C   0  0  0  0  0  0  0  0  0  0  0  0
   35.5030   24.4990   31.3920 C   0  0  0  0  0  0  0  0  0  0  0  0
   36.6590   24.0120   31.9510 C   0  0  0  0  0  0  0  0  0  0  0  0
   37.7510   24.8540   32.1320 C   0  0  0  0  0  0  0  0  0  0  0  0
   34.5510   26.2130   30.5820 H   0  0  0  0  0  0  0  0  0  0  0  0
   34.6300   23.8780   31.2350 H   0  0  0  0  0  0  0  0  0  0  0  0
   36.7240   22.9630   32.2550 H   0  0  0  0  0  0  0  0  0  0  0  0
   35.9160   30.4270   31.2060 C   0  0  0  0  0  0  0  0  0  0  0  0
   35.9130   29.0790   31.5790 C   0  0  0  0  0  0  0  0  0  0  0  0
   36.5090   28.0980   30.8060 C   0  0  0  0  0  0  0  0  0  0  0  0
   37.1010   28.5190   29.6610 N   0  0  0  0  0  0  0  0  0  0  0  0
   37.1040   29.8180   29.3020 C   0  0  0  0  0  0  0  0  0  0  0  0
   36.5270   30.7490   30.0530 N   0  0  0  0  0  0  0  0  0  0  0  0
   35.4060   31.0990   31.9130 H   0  0  0  0  0  0  0  0  0  0  0  0
   35.4420   28.7250   32.4960 H   0  0  0  0  0  0  0  0  0  0  0  0
   37.5770   30.1500   28.3870 H   0  0  0  0  0  0  0  0  0  0  0  0
   39.0810   24.6430   34.1260 C   0  0  0  0  0  0  0  0  0  0  0  0
   38.0740   25.2340   34.6280 O   0  0  0  0  0  0  0  0  0  0  0  0
   38.9750   24.3910   32.7100 N   0  0  0  0  0  0  0  0  0  0  0  0
   39.7630   23.9170   32.2550 H   0  0  0  0  0  0  0  0  0  0  0  0
   38.7880   22.2400   35.9180 Cl  0  0  0  0  0  0  0  0  0  0  0  0
   40.2800   23.1560   35.7430 C   0  0  0  0  0  0  0  0  0  0  0  0
   40.2630   24.2350   34.8830 C   0  0  0  0  0  0  0  0  0  0  0  0
   41.4160   25.0010   34.7030 C   0  0  0  0  0  0  0  0  0  0  0  0
   41.5110   25.8710   34.0500 H   0  0  0  0  0  0  0  0  0  0  0  0
   42.5490   24.6570   35.3920 C   0  0  0  0  0  0  0  0  0  0  0  0
   43.4840   25.2290   35.2840 H   0  0  0  0  0  0  0  0  0  0  0  0
   42.5340   23.5720   36.2450 C   0  0  0  0  0  0  0  0  0  0  0  0
   43.4480   23.3340   36.7700 H   0  0  0  0  0  0  0  0  0  0  0  0
   41.4090   22.7870   36.4510 C   0  0  0  0  0  0  0  0  0  0  0  0
   41.4030   21.4100   37.5370 Cl  0  0  0  0  0  0  0  0  0  0  0  0
  2  1  1  0  0  0  0
  2  7  1  0  0  0  0
  3  2  2  0  0  0  0
  4  3  1  0  0  0  0
  4  5  2  0  0  0  0
  5  6  1  0  0  0  0
  6  7  2  0  0  0  0
  6 10  1  0  0  0  0
  7 22  1  0  0  0  0
  8  4  1  0  0  0  0
  9  5  1  0  0  0  0
 11 12  1  0  0  0  0
 11 17  1  0  0  0  0
 12 18  1  0  0  0  0
 13  3  1  0  0  0  0
 13 12  2  0  0  0  0
 14 13  1  0  0  0  0
 15 14  2  0  0  0  0
 15 16  1  0  0  0  0
 16 11  2  0  0  0  0
 19 15  1  0  0  0  0
 20 21  2  0  0  0  0
 20 26  1  0  0  0  0
 22 20  1  0  0  0  0
 23 22  1  0  0  0  0
 25 24  1  0  0  0  0
 25 33  1  0  0  0  0
 26 25  2  0  0  0  0
 27 26  1  0  0  0  0
 27 29  2  0  0  0  0
 28 27  1  0  0  0  0
 29 31  1  0  0  0  0
 30 29  1  0  0  0  0
 31 33  2  0  0  0  0
 31 32  1  0  0  0  0
 33 34  1  0  0  0  0
M  END
>  <minimizedAffinity>
-5.49265432

$$$$

 OpenBabel03272503073D

 34 36  0  0  0  0  0  0  0  0999 V2000
   38.4760   26.3370   32.5220 F   0  0  0  0  0  0  0  0  0  0  0  0
   37.4910   25.4810   32.1690 C   0  0  0  0  0  0  0  0  0  0  0  0
   36.3510   25.9620   31.5910 C   0  0  0  0  0  0  0  0  0  0  0  0
   35.3850   25.0530   31.2530 C   0  0  0  0  0  0  0  0  0  0  0  0
   35.5260   23.6950   31.4730 C   0  0  0  0  0  0  0  0  0  0  0  0
   36.6840   23.2400   32.0550 C   0  0  0  0  0  0  0  0  0  0  0  0
   37.6830   24.1380   32.4100 C   0  0  0  0  0  0  0  0  0  0  0  0
   34.4790   25.4130   30.7980 H   0  0  0  0  0  0  0  0  0  0  0  0
   34.7240   23.0290   31.1830 H   0  0  0  0  0  0  0  0  0  0  0  0
   36.8220   22.1690   32.2410 H   0  0  0  0  0  0  0  0  0  0  0  0
   35.5310   29.6340   32.0640 C   0  0  0  0  0  0  0  0  0  0  0  0
   35.6260   28.2560   32.2790 C   0  0  0  0  0  0  0  0  0  0  0  0
   36.2450   27.4080   31.3780 C   0  0  0  0  0  0  0  0  0  0  0  0
   36.7600   27.9920   30.2680 N   0  0  0  0  0  0  0  0  0  0  0  0
   36.6700   29.3210   30.0610 C   0  0  0  0  0  0  0  0  0  0  0  0
   36.0720   30.1220   30.9340 N   0  0  0  0  0  0  0  0  0  0  0  0
   35.0130   30.1880   32.8610 H   0  0  0  0  0  0  0  0  0  0  0  0
   35.2160   27.7700   33.1660 H   0  0  0  0  0  0  0  0  0  0  0  0
   37.0820   29.7840   29.1740 H   0  0  0  0  0  0  0  0  0  0  0  0
   38.9070   23.8170   34.4560 C   0  0  0  0  0  0  0  0  0  0  0  0
   37.8280   24.2740   34.9480 O   0  0  0  0  0  0  0  0  0  0  0  0
   38.9060   23.7090   33.0190 N   0  0  0  0  0  0  0  0  0  0  0  0
   39.7540   23.3470   32.5710 H   0  0  0  0  0  0  0  0  0  0  0  0
   41.3050   25.6360   34.3560 Cl  0  0  0  0  0  0  0  0  0  0  0  0
   41.2400   24.1520   35.2980 C   0  0  0  0  0  0  0  0  0  0  0  0
   40.0720   23.4200   35.2460 C   0  0  0  0  0  0  0  0  0  0  0  0
   39.9610   22.2320   35.9720 C   0  0  0  0  0  0  0  0  0  0  0  0
   39.0850   21.5800   36.0010 H   0  0  0  0  0  0  0  0  0  0  0  0
   41.0260   21.8200   36.7270 C   0  0  0  0  0  0  0  0  0  0  0  0
   40.9880   20.8910   37.3180 H   0  0  0  0  0  0  0  0  0  0  0  0
   42.1820   22.5740   36.7580 C   0  0  0  0  0  0  0  0  0  0  0  0
   43.0000   22.2140   37.3660 H   0  0  0  0  0  0  0  0  0  0  0  0
   42.3310   23.7580   36.0510 C   0  0  0  0  0  0  0  0  0  0  0  0
   43.8050   24.7090   36.0990 Cl  0  0  0  0  0  0  0  0  0  0  0  0
  2  7  1  0  0  0  0
  2  1  1  0  0  0  0
  3  2  2  0  0  0  0
  4  5  2  0  0  0  0
  4  3  1  0  0  0  0
  5  6  1  0  0  0  0
  6 10  1  0  0  0  0
  6  7  2  0  0  0  0
  7 22  1  0  0  0  0
  8  4  1  0  0  0  0
  9  5  1  0  0  0  0
 11 12  1  0  0  0  0
 11 17  1  0  0  0  0
 12 18  1  0  0  0  0
 13  3  1  0  0  0  0
 13 12  2  0  0  0  0
 14 13  1  0  0  0  0
 15 14  2  0  0  0  0
 15 16  1  0  0  0  0
 16 11  2  0  0  0  0
 19 15  1  0  0  0  0
 20 21  2  0  0  0  0
 20 26  1  0  0  0  0
 22 20  1  0  0  0  0
 23 22  1  0  0  0  0
 24 25  1  0  0  0  0
 25 33  1  0  0  0  0
 26 25  2  0  0  0  0
 26 27  1  0  0  0  0
 27 28  1  0  0  0  0
 27 29  2  0  0  0  0
 29 31  1  0  0  0  0
 29 30  1  0  0  0  0
 31 32  1  0  0  0  0
 33 34  1  0  0  0  0
 33 31  2  0  0  0  0
M  END
>  <minimizedAffinity>
-5.47703886

$$$$

 OpenBabel03272503073D

 34 36  0  0  0  0  0  0  0  0999 V2000
   36.0400   27.6540   33.9500 F   0  0  0  0  0  0  0  0  0  0  0  0
   36.2380   28.4190   32.8530 C   0  0  0  0  0  0  0  0  0  0  0  0
   35.8240   29.7210   32.8520 C   0  0  0  0  0  0  0  0  0  0  0  0
   36.0490   30.4510   31.7160 C   0  0  0  0  0  0  0  0  0  0  0  0
   36.6670   29.9230   30.5980 C   0  0  0  0  0  0  0  0  0  0  0  0
   37.0740   28.6110   30.6280 C   0  0  0  0  0  0  0  0  0  0  0  0
   36.8590   27.8440   31.7660 C   0  0  0  0  0  0  0  0  0  0  0  0
   35.7300   31.4790   31.6950 H   0  0  0  0  0  0  0  0  0  0  0  0
   36.8140   30.5550   29.7310 H   0  0  0  0  0  0  0  0  0  0  0  0
   37.5660   28.1680   29.7560 H   0  0  0  0  0  0  0  0  0  0  0  0
   35.2050   31.4920   36.1470 C   0  0  0  0  0  0  0  0  0  0  0  0
   35.8370   31.0060   34.9990 C   0  0  0  0  0  0  0  0  0  0  0  0
   35.1740   30.2370   34.0590 C   0  0  0  0  0  0  0  0  0  0  0  0
   33.8670   29.9810   34.3140 N   0  0  0  0  0  0  0  0  0  0  0  0
   33.2570   30.4510   35.4200 C   0  0  0  0  0  0  0  0  0  0  0  0
   33.9070   31.1860   36.3140 N   0  0  0  0  0  0  0  0  0  0  0  0
   35.8510   32.0890   36.8080 H   0  0  0  0  0  0  0  0  0  0  0  0
   36.8870   31.2020   34.7790 H   0  0  0  0  0  0  0  0  0  0  0  0
   32.2140   30.2440   35.6210 H   0  0  0  0  0  0  0  0  0  0  0  0
   36.3530   25.5620   31.1980 C   0  0  0  0  0  0  0  0  0  0  0  0
   35.3400   26.1200   30.6700 O   0  0  0  0  0  0  0  0  0  0  0  0
   37.2650   26.4730   31.8420 N   0  0  0  0  0  0  0  0  0  0  0  0
   38.0980   26.0730   32.2860 H   0  0  0  0  0  0  0  0  0  0  0  0
   38.9380   24.6590   29.9430 Cl  0  0  0  0  0  0  0  0  0  0  0  0
   37.7480   23.5620   30.6330 C   0  0  0  0  0  0  0  0  0  0  0  0
   36.6090   24.1220   31.1740 C   0  0  0  0  0  0  0  0  0  0  0  0
   35.6290   23.3020   31.7360 C   0  0  0  0  0  0  0  0  0  0  0  0
   34.6940   23.6420   32.1890 H   0  0  0  0  0  0  0  0  0  0  0  0
   35.8240   21.9470   31.7370 C   0  0  0  0  0  0  0  0  0  0  0  0
   35.0810   21.2580   32.1680 H   0  0  0  0  0  0  0  0  0  0  0  0
   36.9740   21.4170   31.1870 C   0  0  0  0  0  0  0  0  0  0  0  0
   37.0910   20.3430   31.2080 H   0  0  0  0  0  0  0  0  0  0  0  0
   37.9710   22.1970   30.6200 C   0  0  0  0  0  0  0  0  0  0  0  0
   39.4290   21.5110   29.9260 Cl  0  0  0  0  0  0  0  0  0  0  0  0
  2  1  1  0  0  0  0
  3  2  1  0  0  0  0
  3 13  1  0  0  0  0
  4  3  2  0  0  0  0
  5  6  2  0  0  0  0
  5  4  1  0  0  0  0
  6  7  1  0  0  0  0
  7 22  1  0  0  0  0
  7  2  2  0  0  0  0
  8  4  1  0  0  0  0
  9  5  1  0  0  0  0
 10  6  1  0  0  0  0
 11 16  1  0  0  0  0
 11 17  1  0  0  0  0
 12 11  2  0  0  0  0
 13 14  2  0  0  0  0
 13 12  1  0  0  0  0
 14 15  1  0  0  0  0
 15 19  1  0  0  0  0
 15 16  2  0  0  0  0
 18 12  1  0  0  0  0
 20 22  1  0  0  0  0
 21 20  2  0  0  0  0
 22 23  1  0  0  0  0
 24 25  1  0  0  0  0
 25 26  1  0  0  0  0
 26 20  1  0  0  0  0
 26 27  2  0  0  0  0
 27 29  1  0  0  0  0
 27 28  1  0  0  0  0
 29 30  1  0  0  0  0
 31 32  1  0  0  0  0
 31 29  2  0  0  0  0
 33 25  2  0  0  0  0
 33 31  1  0  0  0  0
 34 33  1  0  0  0  0
M  END
>  <minimizedAffinity>
-5.47147274

$$$$
