
 OpenBabel03272503063D

 34 36  0  0  0  0  0  0  0  0999 V2000
   38.4960   30.3690   47.3410 F   0  0  0  0  0  0  0  0  0  0  0  0
   38.7570   31.6170   47.7900 C   0  0  0  0  0  0  0  0  0  0  0  0
   38.1720   32.0570   48.9440 C   0  0  0  0  0  0  0  0  0  0  0  0
   38.4710   33.3290   49.3540 C   0  0  0  0  0  0  0  0  0  0  0  0
   39.3250   34.1590   48.6540 C   0  0  0  0  0  0  0  0  0  0  0  0
   39.9000   33.6900   47.4980 C   0  0  0  0  0  0  0  0  0  0  0  0
   39.6160   32.4030   47.0550 C   0  0  0  0  0  0  0  0  0  0  0  0
   38.0190   33.6940   50.2600 H   0  0  0  0  0  0  0  0  0  0  0  0
   39.5180   35.1550   49.0330 H   0  0  0  0  0  0  0  0  0  0  0  0
   40.5800   34.3270   46.9240 H   0  0  0  0  0  0  0  0  0  0  0  0
   36.7740   29.5990   51.4700 C   0  0  0  0  0  0  0  0  0  0  0  0
   37.6420   30.4710   50.8040 C   0  0  0  0  0  0  0  0  0  0  0  0
   37.2730   31.1430   49.6520 C   0  0  0  0  0  0  0  0  0  0  0  0
   36.0150   30.9100   49.2030 N   0  0  0  0  0  0  0  0  0  0  0  0
   35.1780   30.0710   49.8460 C   0  0  0  0  0  0  0  0  0  0  0  0
   35.5460   29.4320   50.9500 N   0  0  0  0  0  0  0  0  0  0  0  0
   37.1970   29.1320   52.3720 H   0  0  0  0  0  0  0  0  0  0  0  0
   38.6570   30.6680   51.1510 H   0  0  0  0  0  0  0  0  0  0  0  0
   34.1750   29.8870   49.4850 H   0  0  0  0  0  0  0  0  0  0  0  0
   39.3310   31.9760   44.7040 C   0  0  0  0  0  0  0  0  0  0  0  0
   38.2060   32.5200   44.9380 O   0  0  0  0  0  0  0  0  0  0  0  0
   40.1920   31.8720   45.8570 N   0  0  0  0  0  0  0  0  0  0  0  0
   41.1110   31.4390   45.7220 H   0  0  0  0  0  0  0  0  0  0  0  0
   38.2970   33.4610   42.2960 Cl  0  0  0  0  0  0  0  0  0  0  0  0
   39.3640   32.0650   42.2020 C   0  0  0  0  0  0  0  0  0  0  0  0
   39.7560   31.4880   43.3930 C   0  0  0  0  0  0  0  0  0  0  0  0
   40.6030   30.3770   43.3830 C   0  0  0  0  0  0  0  0  0  0  0  0
   40.9720   29.8460   44.2640 H   0  0  0  0  0  0  0  0  0  0  0  0
   41.0260   29.8830   42.1800 C   0  0  0  0  0  0  0  0  0  0  0  0
   41.6940   29.0090   42.1180 H   0  0  0  0  0  0  0  0  0  0  0  0
   40.6160   30.4830   41.0050 C   0  0  0  0  0  0  0  0  0  0  0  0
   40.9730   30.0630   40.0760 H   0  0  0  0  0  0  0  0  0  0  0  0
   39.7770   31.5870   40.9720 C   0  0  0  0  0  0  0  0  0  0  0  0
   39.2620   32.3400   39.4740 Cl  0  0  0  0  0  0  0  0  0  0  0  0
  1  2  1  0  0  0  0
  2  3  1  0  0  0  0
  3  4  2  0  0  0  0
  3 13  1  0  0  0  0
  4  8  1  0  0  0  0
  5  9  1  0  0  0  0
  5  4  1  0  0  0  0
  6  5  2  0  0  0  0
  7  6  1  0  0  0  0
  7  2  2  0  0  0  0
 10  6  1  0  0  0  0
 11 17  1  0  0  0  0
 12 18  1  0  0  0  0
 12 11  2  0  0  0  0
 13 12  1  0  0  0  0
 14 13  2  0  0  0  0
 14 15  1  0  0  0  0
 15 16  2  0  0  0  0
 16 11  1  0  0  0  0
 19 15  1  0  0  0  0
 20 21  2  0  0  0  0
 20 22  1  0  0  0  0
 22  7  1  0  0  0  0
 23 22  1  0  0  0  0
 25 24  1  0  0  0  0
 25 26  1  0  0  0  0
 26 20  1  0  0  0  0
 27 26  2  0  0  0  0
 27 28  1  0  0  0  0
 29 27  1  0  0  0  0
 30 29  1  0  0  0  0
 31 29  2  0  0  0  0
 32 31  1  0  0  0  0
 33 31  1  0  0  0  0
 33 25  2  0  0  0  0
 34 33  1  0  0  0  0
M  END
>  <minimizedAffinity>
-6.83637524

>  <minimizedRMSD>
0.705151379

$$$$
