
 OpenBabel03272508573D

 42 45  0  0  1  0  0  0  0  0999 V2000
   39.1440   31.4980   43.3520 C   0  0  0  0  0  0  0  0  0  0  0  0
   40.1210   30.5520   43.4860 C   0  0  0  0  0  0  0  0  0  0  0  0
   40.8330   30.1980   42.3530 C   0  0  0  0  0  0  0  0  0  0  0  0
   40.5170   30.8140   41.1670 C   0  0  0  0  0  0  0  0  0  0  0  0
   39.5300   31.7710   41.0270 C   0  0  0  0  0  0  0  0  0  0  0  0
   38.8800   32.0690   42.1580 N   0  0  0  0  0  0  0  0  0  0  0  0
   40.3580   30.0750   44.4300 H   0  0  0  0  0  0  0  0  0  0  0  0
   41.6120   29.4580   42.4130 H   0  0  0  0  0  0  0  0  0  0  0  0
   41.1040   30.5010   40.3120 H   0  0  0  0  0  0  0  0  0  0  0  0
   38.3700   31.8960   44.5430 C   0  0  0  0  0  0  0  0  0  0  0  0
   37.2450   32.4390   44.4350 O   0  0  0  0  0  0  0  0  0  0  0  0
   38.9470   31.6400   45.8500 N   0  0  0  0  0  0  0  0  0  0  0  0
   39.9330   31.3970   45.9910 H   0  0  0  0  0  0  0  0  0  0  0  0
   38.4370   31.1110   48.2190 C   0  0  2  0  0  0  0  0  0  0  0  0
   38.6830   32.5740   48.1480 C   0  0  0  0  0  0  0  0  0  0  0  0
   38.0730   31.7360   46.9900 C   0  0  1  0  0  0  0  0  0  0  0  0
   39.3750   30.5240   48.3170 H   0  0  0  0  0  0  0  0  0  0  0  0
   39.6900   32.9680   48.0230 H   0  0  0  0  0  0  0  0  0  0  0  0
   37.9750   33.1860   48.7480 H   0  0  0  0  0  0  0  0  0  0  0  0
   36.9960   31.9790   46.7960 H   0  0  0  0  0  0  0  0  0  0  0  0
   35.0630   30.2360   49.5250 C   0  0  0  0  0  0  0  0  0  0  0  0
   35.3960   29.5540   50.7380 C   0  0  0  0  0  0  0  0  0  0  0  0
   36.7890   29.4170   51.0870 C   0  0  0  0  0  0  0  0  0  0  0  0
   37.7440   29.9390   50.2540 N   0  0  0  0  0  0  0  0  0  0  0  0
   37.3550   30.5700   49.1260 C   0  0  0  0  0  0  0  0  0  0  0  0
   36.0330   30.7360   48.7330 N   0  0  0  0  0  0  0  0  0  0  0  0
   34.0110   30.3190   49.2980 H   0  0  0  0  0  0  0  0  0  0  0  0
   34.6650   29.1390   51.4010 H   0  0  0  0  0  0  0  0  0  0  0  0
   37.0370   28.9020   52.0020 H   0  0  0  0  0  0  0  0  0  0  0  0
   39.2460   32.3850   39.7350 C   0  0  0  0  0  0  0  0  0  0  0  0
   38.6700   33.5190   39.7340 O   0  0  0  0  0  0  0  0  0  0  0  0
   37.0890   30.5710   38.7320 Cl  0  0  0  0  0  0  0  0  0  0  0  0
   38.5860   30.9800   37.9310 C   0  0  0  0  0  0  0  0  0  0  0  0
   39.5610   31.8260   38.4310 C   0  0  0  0  0  0  0  0  0  0  0  0
   40.7180   32.0970   37.7330 C   0  0  0  0  0  0  0  0  0  0  0  0
   41.4150   32.7620   38.1950 H   0  0  0  0  0  0  0  0  0  0  0  0
   40.8670   31.4870   36.5060 C   0  0  0  0  0  0  0  0  0  0  0  0
   41.7800   31.7050   35.9640 H   0  0  0  0  0  0  0  0  0  0  0  0
   39.9290   30.6370   35.9630 C   0  0  0  0  0  0  0  0  0  0  0  0
   40.0830   30.1790   34.9990 H   0  0  0  0  0  0  0  0  0  0  0  0
   38.7730   30.3810   36.6870 C   0  0  0  0  0  0  0  0  0  0  0  0
   37.6110   29.2970   35.9590 Cl  0  0  0  0  0  0  0  0  0  0  0  0
  1  2  1  0  0  0  0
  1 10  1  0  0  0  0
  2  7  1  0  0  0  0
  3  8  1  0  0  0  0
  3  2  2  0  0  0  0
  4  3  1  0  0  0  0
  5  4  2  0  0  0  0
  5  6  1  0  0  0  0
  6  1  2  0  0  0  0
  9  4  1  0  0  0  0
 10 12  1  0  0  0  0
 11 10  2  0  0  0  0
 12 13  1  0  0  0  0
 12 16  1  0  0  0  0
 14 17  1  6  0  0  0
 14 25  1  0  0  0  0
 15 14  1  0  0  0  0
 15 19  1  0  0  0  0
 16 20  1  6  0  0  0
 16 15  1  0  0  0  0
 16 14  1  0  0  0  0
 18 15  1  0  0  0  0
 21 22  1  0  0  0  0
 22 23  2  0  0  0  0
 22 28  1  0  0  0  0
 23 29  1  0  0  0  0
 24 23  1  0  0  0  0
 25 24  2  0  0  0  0
 26 25  1  0  0  0  0
 26 21  2  0  0  0  0
 27 21  1  0  0  0  0
 30  5  1  0  0  0  0
 31 30  2  0  0  0  0
 33 34  1  0  0  0  0
 33 32  1  0  0  0  0
 34 30  1  0  0  0  0
 35 36  1  0  0  0  0
 35 34  2  0  0  0  0
 37 35  1  0  0  0  0
 38 37  1  0  0  0  0
 39 37  2  0  0  0  0
 39 41  1  0  0  0  0
 40 39  1  0  0  0  0
 41 33  2  0  0  0  0
 42 41  1  0  0  0  0
M  END
>  <minimizedAffinity>
-4.96553993

>  <minimizedRMSD>
0.451163232

$$$$
