
 OpenBabel03272503313D

 36 38  0  0  1  0  0  0  0  0999 V2000
   37.3770   23.4860   32.1150 C   0  0  0  0  0  0  0  0  0  0  0  0
   36.6980   24.2550   31.1530 C   0  0  0  0  0  0  0  0  0  0  0  0
   36.7700   25.6480   31.3110 C   0  0  0  0  0  0  0  0  0  0  0  0
   37.4860   26.1400   32.3740 N   0  0  0  0  0  0  0  0  0  0  0  0
   38.1140   25.3790   33.2620 C   0  0  0  0  0  0  0  0  0  0  0  0
   38.0530   24.0320   33.1220 N   0  0  0  0  0  0  0  0  0  0  0  0
   36.1420   23.8340   30.3260 H   0  0  0  0  0  0  0  0  0  0  0  0
   36.2830   26.3100   30.6240 H   0  0  0  0  0  0  0  0  0  0  0  0
   37.2990   22.0610   31.9450 N   0  0  0  0  0  0  0  0  0  0  0  0
   37.1500   21.0630   32.9550 C   0  0  0  0  0  0  0  0  0  0  0  0
   36.4160   19.9430   32.2210 C   0  0  2  0  0  0  0  0  0  0  0  0
   36.1160   20.4840   30.8350 C   0  0  0  0  0  0  0  0  0  0  0  0
   37.3580   21.3550   30.6890 C   0  0  0  0  0  0  0  0  0  0  0  0
   38.1070   20.7030   33.3770 H   0  0  0  0  0  0  0  0  0  0  0  0
   36.4740   21.4470   33.7520 H   0  0  0  0  0  0  0  0  0  0  0  0
   37.0860   19.0630   32.1480 H   0  0  0  0  0  0  0  0  0  0  0  0
   35.2130   21.1190   30.8360 H   0  0  0  0  0  0  0  0  0  0  0  0
   36.0800   19.6800   30.0830 H   0  0  0  0  0  0  0  0  0  0  0  0
   37.1500   22.0350   29.8430 H   0  0  0  0  0  0  0  0  0  0  0  0
   38.2510   20.7210   30.5660 H   0  0  0  0  0  0  0  0  0  0  0  0
   35.1790   19.4840   32.9400 C   0  0  0  0  0  0  0  0  0  0  0  0
   34.0980   19.9880   32.2170 F   0  0  0  0  0  0  0  0  0  0  0  0
   35.1410   20.1340   34.1610 F   0  0  0  0  0  0  0  0  0  0  0  0
   35.1000   18.1420   33.1030 F   0  0  0  0  0  0  0  0  0  0  0  0
   39.0240   26.0580   34.6120 S   0  0  0  0  0  0  0  0  0  0  0  0
   41.0830   23.7070   34.8650 Cl  0  0  0  0  0  0  0  0  0  0  0  0
   39.8440   23.8880   36.1060 C   0  0  0  0  0  0  0  0  0  0  0  0
   38.9250   24.9350   35.9970 C   0  0  0  0  0  0  0  0  0  0  0  0
   37.9610   25.0480   36.9950 C   0  0  0  0  0  0  0  0  0  0  0  0
   37.2540   25.8790   36.8820 H   0  0  0  0  0  0  0  0  0  0  0  0
   37.9430   24.1400   38.0430 C   0  0  0  0  0  0  0  0  0  0  0  0
   37.1560   24.3050   38.7740 H   0  0  0  0  0  0  0  0  0  0  0  0
   38.8400   23.1210   38.1450 C   0  0  0  0  0  0  0  0  0  0  0  0
   38.7730   22.4440   38.9880 H   0  0  0  0  0  0  0  0  0  0  0  0
   39.8020   23.0050   37.1510 C   0  0  0  0  0  0  0  0  0  0  0  0
   40.9750   21.7330   37.2200 Cl  0  0  0  0  0  0  0  0  0  0  0  0
  1  6  1  0  0  0  0
  2  3  1  0  0  0  0
  2  1  2  0  0  0  0
  3  4  2  0  0  0  0
  4  5  1  0  0  0  0
  5 25  1  0  0  0  0
  6  5  2  0  0  0  0
  7  2  1  0  0  0  0
  8  3  1  0  0  0  0
  9  1  1  0  0  0  0
  9 10  1  0  0  0  0
 10 14  1  0  0  0  0
 10 15  1  0  0  0  0
 11 16  1  6  0  0  0
 11 21  1  0  0  0  0
 11 10  1  0  0  0  0
 12 17  1  0  0  0  0
 12 11  1  0  0  0  0
 13 12  1  0  0  0  0
 13  9  1  0  0  0  0
 18 12  1  0  0  0  0
 19 13  1  0  0  0  0
 20 13  1  0  0  0  0
 21 24  1  0  0  0  0
 21 23  1  0  0  0  0
 22 21  1  0  0  0  0
 25 28  1  0  0  0  0
 26 27  1  0  0  0  0
 27 35  1  0  0  0  0
 28 27  2  0  0  0  0
 28 29  1  0  0  0  0
 29 31  2  0  0  0  0
 30 29  1  0  0  0  0
 31 33  1  0  0  0  0
 31 32  1  0  0  0  0
 33 34  1  0  0  0  0
 35 36  1  0  0  0  0
 35 33  2  0  0  0  0
M  END
>  <minimizedAffinity>
-6.04032993

$$$$

 OpenBabel03272503313D

 36 38  0  0  1  0  0  0  0  0999 V2000
   37.2960   26.0350   33.2950 C   0  0  0  0  0  0  0  0  0  0  0  0
   36.7150   25.2550   32.2800 C   0  0  0  0  0  0  0  0  0  0  0  0
   35.8200   25.9190   31.4250 C   0  0  0  0  0  0  0  0  0  0  0  0
   35.5890   27.2540   31.6460 N   0  0  0  0  0  0  0  0  0  0  0  0
   36.1590   27.9560   32.6180 C   0  0  0  0  0  0  0  0  0  0  0  0
   37.0250   27.3280   33.4510 N   0  0  0  0  0  0  0  0  0  0  0  0
   36.9200   24.2030   32.1340 H   0  0  0  0  0  0  0  0  0  0  0  0
   35.3310   25.4020   30.6240 H   0  0  0  0  0  0  0  0  0  0  0  0
   38.2120   25.3480   34.1650 N   0  0  0  0  0  0  0  0  0  0  0  0
   38.5740   25.6890   35.5030 C   0  0  0  0  0  0  0  0  0  0  0  0
   38.9160   24.3330   36.1180 C   0  0  2  0  0  0  0  0  0  0  0  0
   38.5960   23.3020   35.0500 C   0  0  0  0  0  0  0  0  0  0  0  0
   38.9530   24.1550   33.8380 C   0  0  0  0  0  0  0  0  0  0  0  0
   39.4300   26.3850   35.5740 H   0  0  0  0  0  0  0  0  0  0  0  0
   37.6810   26.0880   36.0340 H   0  0  0  0  0  0  0  0  0  0  0  0
   39.9980   24.3100   36.3560 H   0  0  0  0  0  0  0  0  0  0  0  0
   37.5200   23.0590   35.0320 H   0  0  0  0  0  0  0  0  0  0  0  0
   39.2400   22.4130   35.1370 H   0  0  0  0  0  0  0  0  0  0  0  0
   38.5090   23.6390   32.9670 H   0  0  0  0  0  0  0  0  0  0  0  0
   40.0440   24.2990   33.7860 H   0  0  0  0  0  0  0  0  0  0  0  0
   38.1840   24.0740   37.4050 C   0  0  0  0  0  0  0  0  0  0  0  0
   38.8750   23.0450   38.0450 F   0  0  0  0  0  0  0  0  0  0  0  0
   36.9480   23.5440   37.0820 F   0  0  0  0  0  0  0  0  0  0  0  0
   38.0530   25.1660   38.1950 F   0  0  0  0  0  0  0  0  0  0  0  0
   35.8310   29.6720   32.8600 S   0  0  0  0  0  0  0  0  0  0  0  0
   35.8680   31.1480   35.6270 Cl  0  0  0  0  0  0  0  0  0  0  0  0
   34.3410   30.5020   35.0290 C   0  0  0  0  0  0  0  0  0  0  0  0
   34.3210   29.8440   33.7960 C   0  0  0  0  0  0  0  0  0  0  0  0
   33.0970   29.3470   33.3550 C   0  0  0  0  0  0  0  0  0  0  0  0
   33.1130   28.8360   32.3850 H   0  0  0  0  0  0  0  0  0  0  0  0
   31.9620   29.5170   34.1340 C   0  0  0  0  0  0  0  0  0  0  0  0
   31.0530   29.0960   33.7100 H   0  0  0  0  0  0  0  0  0  0  0  0
   31.9870   30.1580   35.3350 C   0  0  0  0  0  0  0  0  0  0  0  0
   31.0650   30.2570   35.8960 H   0  0  0  0  0  0  0  0  0  0  0  0
   33.2050   30.6530   35.7770 C   0  0  0  0  0  0  0  0  0  0  0  0
   33.3070   31.4810   37.2950 Cl  0  0  0  0  0  0  0  0  0  0  0  0
  1  6  1  0  0  0  0
  1  9  1  0  0  0  0
  2  1  2  0  0  0  0
  3  4  2  0  0  0  0
  3  2  1  0  0  0  0
  4  5  1  0  0  0  0
  5 25  1  0  0  0  0
  5  6  2  0  0  0  0
  7  2  1  0  0  0  0
  8  3  1  0  0  0  0
  9 10  1  0  0  0  0
 10 14  1  0  0  0  0
 10 15  1  0  0  0  0
 10 11  1  0  0  0  0
 11 16  1  1  0  0  0
 11 21  1  0  0  0  0
 12 18  1  0  0  0  0
 12 11  1  0  0  0  0
 13  9  1  0  0  0  0
 13 12  1  0  0  0  0
 17 12  1  0  0  0  0
 19 13  1  0  0  0  0
 20 13  1  0  0  0  0
 21 22  1  0  0  0  0
 21 24  1  0  0  0  0
 23 21  1  0  0  0  0
 25 28  1  0  0  0  0
 27 26  1  0  0  0  0
 27 35  1  0  0  0  0
 28 27  2  0  0  0  0
 29 28  1  0  0  0  0
 29 31  2  0  0  0  0
 30 29  1  0  0  0  0
 31 33  1  0  0  0  0
 32 31  1  0  0  0  0
 33 35  2  0  0  0  0
 33 34  1  0  0  0  0
 35 36  1  0  0  0  0
M  END
>  <minimizedAffinity>
-5.85890436

$$$$

 OpenBabel03272503313D

 36 38  0  0  1  0  0  0  0  0999 V2000
   36.9340   26.1920   33.1930 C   0  0  0  0  0  0  0  0  0  0  0  0
   37.5960   25.9880   34.4170 C   0  0  0  0  0  0  0  0  0  0  0  0
   37.6090   27.0770   35.3030 C   0  0  0  0  0  0  0  0  0  0  0  0
   36.9840   28.2340   34.9100 N   0  0  0  0  0  0  0  0  0  0  0  0
   36.3690   28.3880   33.7440 C   0  0  0  0  0  0  0  0  0  0  0  0
   36.3490   27.3450   32.8780 N   0  0  0  0  0  0  0  0  0  0  0  0
   38.0790   25.0610   34.6940 H   0  0  0  0  0  0  0  0  0  0  0  0
   38.0910   27.0100   36.2570 H   0  0  0  0  0  0  0  0  0  0  0  0
   36.9240   25.0720   32.2920 N   0  0  0  0  0  0  0  0  0  0  0  0
   37.5380   23.7960   32.4710 C   0  0  0  0  0  0  0  0  0  0  0  0
   36.6350   22.8680   31.6600 C   0  0  2  0  0  0  0  0  0  0  0  0
   35.4880   23.7330   31.1680 C   0  0  0  0  0  0  0  0  0  0  0  0
   36.2730   25.0290   31.0050 C   0  0  0  0  0  0  0  0  0  0  0  0
   38.5830   23.7460   32.1140 H   0  0  0  0  0  0  0  0  0  0  0  0
   37.4590   23.4980   33.5400 H   0  0  0  0  0  0  0  0  0  0  0  0
   37.2090   22.4720   30.7990 H   0  0  0  0  0  0  0  0  0  0  0  0
   34.7150   23.8590   31.9450 H   0  0  0  0  0  0  0  0  0  0  0  0
   35.0850   23.3680   30.2110 H   0  0  0  0  0  0  0  0  0  0  0  0
   35.5160   25.8290   30.9180 H   0  0  0  0  0  0  0  0  0  0  0  0
   36.9630   24.9480   30.1500 H   0  0  0  0  0  0  0  0  0  0  0  0
   36.1620   21.6790   32.4470 C   0  0  0  0  0  0  0  0  0  0  0  0
   34.7770   21.8050   32.5510 F   0  0  0  0  0  0  0  0  0  0  0  0
   36.6430   21.8140   33.7370 F   0  0  0  0  0  0  0  0  0  0  0  0
   36.5240   20.4860   31.9170 F   0  0  0  0  0  0  0  0  0  0  0  0
   35.5780   29.8960   33.2840 S   0  0  0  0  0  0  0  0  0  0  0  0
   32.6690   29.3130   34.3020 Cl  0  0  0  0  0  0  0  0  0  0  0  0
   33.6770   30.4410   35.2080 C   0  0  0  0  0  0  0  0  0  0  0  0
   34.9740   30.7020   34.7580 C   0  0  0  0  0  0  0  0  0  0  0  0
   35.7410   31.5980   35.4990 C   0  0  0  0  0  0  0  0  0  0  0  0
   36.7530   31.7830   35.1210 H   0  0  0  0  0  0  0  0  0  0  0  0
   35.2070   32.1880   36.6350 C   0  0  0  0  0  0  0  0  0  0  0  0
   35.8770   32.8730   37.1480 H   0  0  0  0  0  0  0  0  0  0  0  0
   33.9430   31.9310   37.0690 C   0  0  0  0  0  0  0  0  0  0  0  0
   33.5840   32.4250   37.9640 H   0  0  0  0  0  0  0  0  0  0  0  0
   33.1760   31.0400   36.3330 C   0  0  0  0  0  0  0  0  0  0  0  0
   31.5600   30.6660   36.8300 Cl  0  0  0  0  0  0  0  0  0  0  0  0
  1  2  1  0  0  0  0
  2  7  1  0  0  0  0
  2  3  2  0  0  0  0
  3  8  1  0  0  0  0
  4  3  1  0  0  0  0
  5  4  2  0  0  0  0
  6  1  2  0  0  0  0
  6  5  1  0  0  0  0
  9 10  1  0  0  0  0
  9  1  1  0  0  0  0
 10 15  1  0  0  0  0
 11 16  1  6  0  0  0
 11 21  1  0  0  0  0
 11 10  1  0  0  0  0
 12 11  1  0  0  0  0
 12 17  1  0  0  0  0
 13 12  1  0  0  0  0
 13  9  1  0  0  0  0
 14 10  1  0  0  0  0
 18 12  1  0  0  0  0
 19 13  1  0  0  0  0
 20 13  1  0  0  0  0
 21 22  1  0  0  0  0
 21 23  1  0  0  0  0
 24 21  1  0  0  0  0
 25  5  1  0  0  0  0
 25 28  1  0  0  0  0
 26 27  1  0  0  0  0
 27 35  1  0  0  0  0
 28 27  2  0  0  0  0
 28 29  1  0  0  0  0
 29 31  2  0  0  0  0
 30 29  1  0  0  0  0
 31 33  1  0  0  0  0
 31 32  1  0  0  0  0
 33 34  1  0  0  0  0
 35 36  1  0  0  0  0
 35 33  2  0  0  0  0
M  END
>  <minimizedAffinity>
-5.84655142

$$$$

 OpenBabel03272503313D

 36 38  0  0  1  0  0  0  0  0999 V2000
   37.9490   22.8130   34.0170 C   0  0  0  0  0  0  0  0  0  0  0  0
   38.0660   22.0150   35.1690 C   0  0  0  0  0  0  0  0  0  0  0  0
   38.6080   22.6410   36.3030 C   0  0  0  0  0  0  0  0  0  0  0  0
   38.9730   23.9600   36.1980 N   0  0  0  0  0  0  0  0  0  0  0  0
   38.8460   24.6800   35.0900 C   0  0  0  0  0  0  0  0  0  0  0  0
   38.3250   24.0890   33.9870 N   0  0  0  0  0  0  0  0  0  0  0  0
   37.7680   20.9770   35.2170 H   0  0  0  0  0  0  0  0  0  0  0  0
   38.7340   22.1090   37.2240 H   0  0  0  0  0  0  0  0  0  0  0  0
   37.3920   22.1650   32.8610 N   0  0  0  0  0  0  0  0  0  0  0  0
   37.3170   20.7660   32.5890 C   0  0  0  0  0  0  0  0  0  0  0  0
   36.0710   20.6560   31.7130 C   0  0  2  0  0  0  0  0  0  0  0  0
   35.4780   22.0530   31.6600 C   0  0  0  0  0  0  0  0  0  0  0  0
   36.7890   22.8270   31.7300 C   0  0  0  0  0  0  0  0  0  0  0  0
   38.2060   20.3600   32.0710 H   0  0  0  0  0  0  0  0  0  0  0  0
   37.1140   20.2200   33.5380 H   0  0  0  0  0  0  0  0  0  0  0  0
   36.3750   20.3340   30.6970 H   0  0  0  0  0  0  0  0  0  0  0  0
   34.8690   22.2670   32.5540 H   0  0  0  0  0  0  0  0  0  0  0  0
   34.9400   22.2310   30.7160 H   0  0  0  0  0  0  0  0  0  0  0  0
   36.5100   23.8670   31.9830 H   0  0  0  0  0  0  0  0  0  0  0  0
   37.3460   22.7130   30.7870 H   0  0  0  0  0  0  0  0  0  0  0  0
   35.0910   19.6330   32.2150 C   0  0  0  0  0  0  0  0  0  0  0  0
   35.3210   19.5120   33.5850 F   0  0  0  0  0  0  0  0  0  0  0  0
   35.4470   18.4130   31.6700 F   0  0  0  0  0  0  0  0  0  0  0  0
   33.7980   19.9280   31.9420 F   0  0  0  0  0  0  0  0  0  0  0  0
   39.3290   26.3750   35.0040 S   0  0  0  0  0  0  0  0  0  0  0  0
   39.6430   26.7150   31.9020 Cl  0  0  0  0  0  0  0  0  0  0  0  0
   38.2410   27.4290   32.6980 C   0  0  0  0  0  0  0  0  0  0  0  0
   38.0980   27.2790   34.0800 C   0  0  0  0  0  0  0  0  0  0  0  0
   36.9790   27.8560   34.6750 C   0  0  0  0  0  0  0  0  0  0  0  0
   36.8940   27.7210   35.7600 H   0  0  0  0  0  0  0  0  0  0  0  0
   36.0610   28.5450   33.8960 C   0  0  0  0  0  0  0  0  0  0  0  0
   35.2210   28.9620   34.4450 H   0  0  0  0  0  0  0  0  0  0  0  0
   36.2050   28.6900   32.5490 C   0  0  0  0  0  0  0  0  0  0  0  0
   35.4530   29.2400   31.9970 H   0  0  0  0  0  0  0  0  0  0  0  0
   37.3200   28.1160   31.9540 C   0  0  0  0  0  0  0  0  0  0  0  0
   37.5640   28.2610   30.2460 Cl  0  0  0  0  0  0  0  0  0  0  0  0
  1  2  1  0  0  0  0
  2  7  1  0  0  0  0
  2  3  2  0  0  0  0
  3  8  1  0  0  0  0
  4  3  1  0  0  0  0
  5  4  2  0  0  0  0
  6  1  2  0  0  0  0
  6  5  1  0  0  0  0
  9  1  1  0  0  0  0
 10  9  1  0  0  0  0
 10 15  1  0  0  0  0
 11 16  1  6  0  0  0
 11 21  1  0  0  0  0
 11 10  1  0  0  0  0
 12 11  1  0  0  0  0
 12 13  1  0  0  0  0
 12 17  1  0  0  0  0
 13 19  1  0  0  0  0
 13  9  1  0  0  0  0
 14 10  1  0  0  0  0
 18 12  1  0  0  0  0
 20 13  1  0  0  0  0
 21 22  1  0  0  0  0
 23 21  1  0  0  0  0
 24 21  1  0  0  0  0
 25  5  1  0  0  0  0
 26 27  1  0  0  0  0
 27 28  1  0  0  0  0
 28 29  2  0  0  0  0
 28 25  1  0  0  0  0
 29 30  1  0  0  0  0
 31 32  1  0  0  0  0
 31 29  1  0  0  0  0
 33 31  2  0  0  0  0
 34 33  1  0  0  0  0
 35 33  1  0  0  0  0
 35 27  2  0  0  0  0
 36 35  1  0  0  0  0
M  END
>  <minimizedAffinity>
-5.84326363

$$$$

 OpenBabel03272503313D

 36 38  0  0  1  0  0  0  0  0999 V2000
   36.4170   27.7070   32.7250 C   0  0  0  0  0  0  0  0  0  0  0  0
   35.9150   26.9190   31.6740 C   0  0  0  0  0  0  0  0  0  0  0  0
   36.6480   25.7630   31.3610 C   0  0  0  0  0  0  0  0  0  0  0  0
   37.7770   25.4990   32.0960 N   0  0  0  0  0  0  0  0  0  0  0  0
   38.2190   26.2690   33.0830 C   0  0  0  0  0  0  0  0  0  0  0  0
   37.5210   27.3880   33.3950 N   0  0  0  0  0  0  0  0  0  0  0  0
   35.0200   27.1580   31.1150 H   0  0  0  0  0  0  0  0  0  0  0  0
   36.3380   25.1050   30.5750 H   0  0  0  0  0  0  0  0  0  0  0  0
   35.6600   28.8880   33.0390 N   0  0  0  0  0  0  0  0  0  0  0  0
   35.1200   29.2740   34.3020 C   0  0  0  0  0  0  0  0  0  0  0  0
   35.1150   30.7990   34.2180 C   0  0  2  0  0  0  0  0  0  0  0  0
   35.7810   31.1420   32.8970 C   0  0  0  0  0  0  0  0  0  0  0  0
   35.2970   29.9300   32.1100 C   0  0  0  0  0  0  0  0  0  0  0  0
   34.1040   28.8830   34.4960 H   0  0  0  0  0  0  0  0  0  0  0  0
   35.8290   28.9810   35.1090 H   0  0  0  0  0  0  0  0  0  0  0  0
   34.0650   31.1550   34.2170 H   0  0  0  0  0  0  0  0  0  0  0  0
   36.8810   31.1190   32.9810 H   0  0  0  0  0  0  0  0  0  0  0  0
   35.3980   32.0880   32.4820 H   0  0  0  0  0  0  0  0  0  0  0  0
   35.9280   29.8900   31.2040 H   0  0  0  0  0  0  0  0  0  0  0  0
   34.2150   30.0110   31.9200 H   0  0  0  0  0  0  0  0  0  0  0  0
   35.7910   31.4520   35.3900 C   0  0  0  0  0  0  0  0  0  0  0  0
   36.6490   30.4940   35.9300 F   0  0  0  0  0  0  0  0  0  0  0  0
   34.8270   31.6720   36.3580 F   0  0  0  0  0  0  0  0  0  0  0  0
   36.4410   32.6000   35.0840 F   0  0  0  0  0  0  0  0  0  0  0  0
   39.6760   25.8850   34.0000 S   0  0  0  0  0  0  0  0  0  0  0  0
   41.5500   23.5610   34.9600 Cl  0  0  0  0  0  0  0  0  0  0  0  0
   40.0580   23.8720   35.8480 C   0  0  0  0  0  0  0  0  0  0  0  0
   39.2210   24.9080   35.4220 C   0  0  0  0  0  0  0  0  0  0  0  0
   38.0520   25.1250   36.1470 C   0  0  0  0  0  0  0  0  0  0  0  0
   37.4160   25.9430   35.7900 H   0  0  0  0  0  0  0  0  0  0  0  0
   37.7610   24.3260   37.2430 C   0  0  0  0  0  0  0  0  0  0  0  0
   36.8290   24.5680   37.7470 H   0  0  0  0  0  0  0  0  0  0  0  0
   38.5800   23.3180   37.6530 C   0  0  0  0  0  0  0  0  0  0  0  0
   38.2960   22.7300   38.5170 H   0  0  0  0  0  0  0  0  0  0  0  0
   39.7450   23.0990   36.9330 C   0  0  0  0  0  0  0  0  0  0  0  0
   40.8320   21.8340   37.4000 Cl  0  0  0  0  0  0  0  0  0  0  0  0
  1  9  1  0  0  0  0
  1  6  1  0  0  0  0
  2  1  2  0  0  0  0
  3  2  1  0  0  0  0
  3  4  2  0  0  0  0
  4  5  1  0  0  0  0
  5  6  2  0  0  0  0
  5 25  1  0  0  0  0
  7  2  1  0  0  0  0
  8  3  1  0  0  0  0
  9 10  1  0  0  0  0
 10 14  1  0  0  0  0
 10 15  1  0  0  0  0
 11 16  1  6  0  0  0
 11 10  1  0  0  0  0
 11 21  1  0  0  0  0
 12 17  1  0  0  0  0
 12 11  1  0  0  0  0
 13 12  1  0  0  0  0
 13  9  1  0  0  0  0
 18 12  1  0  0  0  0
 19 13  1  0  0  0  0
 20 13  1  0  0  0  0
 21 22  1  0  0  0  0
 21 23  1  0  0  0  0
 24 21  1  0  0  0  0
 25 28  1  0  0  0  0
 26 27  1  0  0  0  0
 27 35  1  0  0  0  0
 28 27  2  0  0  0  0
 28 29  1  0  0  0  0
 29 31  2  0  0  0  0
 30 29  1  0  0  0  0
 31 33  1  0  0  0  0
 31 32  1  0  0  0  0
 33 34  1  0  0  0  0
 35 36  1  0  0  0  0
 35 33  2  0  0  0  0
M  END
>  <minimizedAffinity>
-5.82533073

$$$$

 OpenBabel03272503313D

 36 38  0  0  1  0  0  0  0  0999 V2000
   36.1750   28.1110   32.6320 C   0  0  0  0  0  0  0  0  0  0  0  0
   35.5590   27.4040   31.5840 C   0  0  0  0  0  0  0  0  0  0  0  0
   36.2280   26.2530   31.1370 C   0  0  0  0  0  0  0  0  0  0  0  0
   37.4090   25.9160   31.7500 N   0  0  0  0  0  0  0  0  0  0  0  0
   37.9590   26.6110   32.7390 C   0  0  0  0  0  0  0  0  0  0  0  0
   37.3240   27.7250   33.1800 N   0  0  0  0  0  0  0  0  0  0  0  0
   34.6260   27.6990   31.1230 H   0  0  0  0  0  0  0  0  0  0  0  0
   35.8310   25.6540   30.3430 H   0  0  0  0  0  0  0  0  0  0  0  0
   35.4840   29.2880   33.0840 N   0  0  0  0  0  0  0  0  0  0  0  0
   34.9870   29.5660   34.3930 C   0  0  0  0  0  0  0  0  0  0  0  0
   35.0560   31.0900   34.4660 C   0  0  2  0  0  0  0  0  0  0  0  0
   35.7140   31.5370   33.1730 C   0  0  0  0  0  0  0  0  0  0  0  0
   35.1560   30.4370   32.2770 C   0  0  0  0  0  0  0  0  0  0  0  0
   33.9560   29.2040   34.5690 H   0  0  0  0  0  0  0  0  0  0  0  0
   35.6950   29.1570   35.1480 H   0  0  0  0  0  0  0  0  0  0  0  0
   34.0250   31.4930   34.5270 H   0  0  0  0  0  0  0  0  0  0  0  0
   36.8120   31.4520   33.2280 H   0  0  0  0  0  0  0  0  0  0  0  0
   35.3700   32.5370   32.8670 H   0  0  0  0  0  0  0  0  0  0  0  0
   35.7670   30.4620   31.3560 H   0  0  0  0  0  0  0  0  0  0  0  0
   34.0760   30.5890   32.1210 H   0  0  0  0  0  0  0  0  0  0  0  0
   35.7850   31.5840   35.6840 C   0  0  0  0  0  0  0  0  0  0  0  0
   36.6920   30.5820   36.0290 F   0  0  0  0  0  0  0  0  0  0  0  0
   34.8750   31.6330   36.7240 F   0  0  0  0  0  0  0  0  0  0  0  0
   36.3930   32.7820   35.5140 F   0  0  0  0  0  0  0  0  0  0  0  0
   39.4790   26.1360   33.4960 S   0  0  0  0  0  0  0  0  0  0  0  0
   38.4480   26.8040   36.3820 Cl  0  0  0  0  0  0  0  0  0  0  0  0
   38.7000   25.1160   35.9380 C   0  0  0  0  0  0  0  0  0  0  0  0
   39.1590   24.8150   34.6530 C   0  0  0  0  0  0  0  0  0  0  0  0
   39.3460   23.4710   34.3380 C   0  0  0  0  0  0  0  0  0  0  0  0
   39.7070   23.2670   33.3230 H   0  0  0  0  0  0  0  0  0  0  0  0
   39.0770   22.4960   35.2870 C   0  0  0  0  0  0  0  0  0  0  0  0
   39.2530   21.4770   34.9520 H   0  0  0  0  0  0  0  0  0  0  0  0
   38.6310   22.7940   36.5380 C   0  0  0  0  0  0  0  0  0  0  0  0
   38.4390   21.9860   37.2340 H   0  0  0  0  0  0  0  0  0  0  0  0
   38.4440   24.1320   36.8550 C   0  0  0  0  0  0  0  0  0  0  0  0
   37.8760   24.5820   38.4280 Cl  0  0  0  0  0  0  0  0  0  0  0  0
  1  9  1  0  0  0  0
  1  6  1  0  0  0  0
  2  1  2  0  0  0  0
  3  2  1  0  0  0  0
  3  4  2  0  0  0  0
  4  5  1  0  0  0  0
  5  6  2  0  0  0  0
  5 25  1  0  0  0  0
  7  2  1  0  0  0  0
  8  3  1  0  0  0  0
  9 10  1  0  0  0  0
 10 11  1  0  0  0  0
 10 14  1  0  0  0  0
 10 15  1  0  0  0  0
 11 16  1  1  0  0  0
 11 21  1  0  0  0  0
 12 17  1  0  0  0  0
 12 11  1  0  0  0  0
 13  9  1  0  0  0  0
 13 12  1  0  0  0  0
 18 12  1  0  0  0  0
 19 13  1  0  0  0  0
 20 13  1  0  0  0  0
 21 22  1  0  0  0  0
 21 23  1  0  0  0  0
 24 21  1  0  0  0  0
 25 28  1  0  0  0  0
 27 26  1  0  0  0  0
 27 35  1  0  0  0  0
 28 27  2  0  0  0  0
 29 28  1  0  0  0  0
 29 31  2  0  0  0  0
 30 29  1  0  0  0  0
 31 33  1  0  0  0  0
 32 31  1  0  0  0  0
 33 35  2  0  0  0  0
 33 34  1  0  0  0  0
 35 36  1  0  0  0  0
M  END
>  <minimizedAffinity>
-5.77678633

$$$$

 OpenBabel03272503313D

 36 38  0  0  1  0  0  0  0  0999 V2000
   38.1060   25.0460   35.5240 C   0  0  0  0  0  0  0  0  0  0  0  0
   38.3140   26.2900   36.1450 C   0  0  0  0  0  0  0  0  0  0  0  0
   38.0350   27.4250   35.3660 C   0  0  0  0  0  0  0  0  0  0  0  0
   37.5870   27.2310   34.0830 N   0  0  0  0  0  0  0  0  0  0  0  0
   37.4030   26.0370   33.5320 C   0  0  0  0  0  0  0  0  0  0  0  0
   37.6700   24.9330   34.2720 N   0  0  0  0  0  0  0  0  0  0  0  0
   38.6680   26.4060   37.1600 H   0  0  0  0  0  0  0  0  0  0  0  0
   38.1650   28.4130   35.7590 H   0  0  0  0  0  0  0  0  0  0  0  0
   38.3940   23.8890   36.3280 N   0  0  0  0  0  0  0  0  0  0  0  0
   39.0820   22.7000   35.9410 C   0  0  0  0  0  0  0  0  0  0  0  0
   39.7090   22.2290   37.2510 C   0  0  2  0  0  0  0  0  0  0  0  0
   39.3870   23.3040   38.2740 C   0  0  0  0  0  0  0  0  0  0  0  0
   38.0300   23.7120   37.7130 C   0  0  0  0  0  0  0  0  0  0  0  0
   38.4260   21.9200   35.5110 H   0  0  0  0  0  0  0  0  0  0  0  0
   39.9080   22.9660   35.2440 H   0  0  0  0  0  0  0  0  0  0  0  0
   39.2410   21.2700   37.5490 H   0  0  0  0  0  0  0  0  0  0  0  0
   40.0900   24.1520   38.2050 H   0  0  0  0  0  0  0  0  0  0  0  0
   39.3090   22.8880   39.2910 H   0  0  0  0  0  0  0  0  0  0  0  0
   37.7890   24.6810   38.1860 H   0  0  0  0  0  0  0  0  0  0  0  0
   37.2930   22.9120   37.8890 H   0  0  0  0  0  0  0  0  0  0  0  0
   41.1850   21.9710   37.1330 C   0  0  0  0  0  0  0  0  0  0  0  0
   41.8040   23.2200   37.1730 F   0  0  0  0  0  0  0  0  0  0  0  0
   41.4220   21.4810   35.8610 F   0  0  0  0  0  0  0  0  0  0  0  0
   41.6760   21.1310   38.0760 F   0  0  0  0  0  0  0  0  0  0  0  0
   36.8250   25.8390   31.8780 S   0  0  0  0  0  0  0  0  0  0  0  0
   39.4110   24.3810   30.8680 Cl  0  0  0  0  0  0  0  0  0  0  0  0
   37.9230   23.4510   31.0410 C   0  0  0  0  0  0  0  0  0  0  0  0
   36.7690   24.0980   31.4910 C   0  0  0  0  0  0  0  0  0  0  0  0
   35.6120   23.3320   31.6150 C   0  0  0  0  0  0  0  0  0  0  0  0
   34.7240   23.8660   31.9710 H   0  0  0  0  0  0  0  0  0  0  0  0
   35.6410   21.9820   31.2970 C   0  0  0  0  0  0  0  0  0  0  0  0
   34.6930   21.4650   31.4240 H   0  0  0  0  0  0  0  0  0  0  0  0
   36.7680   21.3560   30.8580 C   0  0  0  0  0  0  0  0  0  0  0  0
   36.7250   20.2990   30.6260 H   0  0  0  0  0  0  0  0  0  0  0  0
   37.9220   22.1170   30.7330 C   0  0  0  0  0  0  0  0  0  0  0  0
   39.3910   21.3840   30.1810 Cl  0  0  0  0  0  0  0  0  0  0  0  0
  1  2  1  0  0  0  0
  1  9  1  0  0  0  0
  2  7  1  0  0  0  0
  3  8  1  0  0  0  0
  3  2  2  0  0  0  0
  4  3  1  0  0  0  0
  5  4  2  0  0  0  0
  5  6  1  0  0  0  0
  6  1  2  0  0  0  0
  9 13  1  0  0  0  0
 10  9  1  0  0  0  0
 10 11  1  0  0  0  0
 11 16  1  1  0  0  0
 11 12  1  0  0  0  0
 12 18  1  0  0  0  0
 13 20  1  0  0  0  0
 13 19  1  0  0  0  0
 13 12  1  0  0  0  0
 14 10  1  0  0  0  0
 15 10  1  0  0  0  0
 17 12  1  0  0  0  0
 21 22  1  0  0  0  0
 21 11  1  0  0  0  0
 21 24  1  0  0  0  0
 23 21  1  0  0  0  0
 25  5  1  0  0  0  0
 26 27  1  0  0  0  0
 27 28  1  0  0  0  0
 28 29  2  0  0  0  0
 28 25  1  0  0  0  0
 29 30  1  0  0  0  0
 31 32  1  0  0  0  0
 31 29  1  0  0  0  0
 33 31  2  0  0  0  0
 34 33  1  0  0  0  0
 35 33  1  0  0  0  0
 35 27  2  0  0  0  0
 36 35  1  0  0  0  0
M  END
>  <minimizedAffinity>
-5.77593613

$$$$

 OpenBabel03272503313D

 36 38  0  0  1  0  0  0  0  0999 V2000
   37.8850   27.1920   33.5990 C   0  0  0  0  0  0  0  0  0  0  0  0
   38.6380   27.1620   32.4120 C   0  0  0  0  0  0  0  0  0  0  0  0
   38.1150   27.8850   31.3280 C   0  0  0  0  0  0  0  0  0  0  0  0
   36.9300   28.5530   31.5110 N   0  0  0  0  0  0  0  0  0  0  0  0
   36.2480   28.5570   32.6500 C   0  0  0  0  0  0  0  0  0  0  0  0
   36.7410   27.8630   33.7050 N   0  0  0  0  0  0  0  0  0  0  0  0
   39.5700   26.6240   32.3020 H   0  0  0  0  0  0  0  0  0  0  0  0
   38.6230   27.9170   30.3850 H   0  0  0  0  0  0  0  0  0  0  0  0
   38.4280   26.4500   34.7040 N   0  0  0  0  0  0  0  0  0  0  0  0
   37.7200   25.6990   35.6890 C   0  0  0  0  0  0  0  0  0  0  0  0
   38.7240   24.6160   36.0780 C   0  0  2  0  0  0  0  0  0  0  0  0
   39.9160   24.8080   35.1560 C   0  0  0  0  0  0  0  0  0  0  0  0
   39.8270   26.3240   35.0300 C   0  0  0  0  0  0  0  0  0  0  0  0
   37.4110   26.2910   36.5710 H   0  0  0  0  0  0  0  0  0  0  0  0
   36.8480   25.1980   35.2110 H   0  0  0  0  0  0  0  0  0  0  0  0
   39.0300   24.7730   37.1320 H   0  0  0  0  0  0  0  0  0  0  0  0
   39.7450   24.3400   34.1720 H   0  0  0  0  0  0  0  0  0  0  0  0
   40.8550   24.4840   35.6330 H   0  0  0  0  0  0  0  0  0  0  0  0
   40.4610   26.5900   34.1650 H   0  0  0  0  0  0  0  0  0  0  0  0
   40.1160   26.8000   35.9810 H   0  0  0  0  0  0  0  0  0  0  0  0
   38.1510   23.2300   35.9970 C   0  0  0  0  0  0  0  0  0  0  0  0
   37.1330   23.1730   36.9480 F   0  0  0  0  0  0  0  0  0  0  0  0
   39.1220   22.3510   36.4410 F   0  0  0  0  0  0  0  0  0  0  0  0
   37.7120   22.8850   34.7630 F   0  0  0  0  0  0  0  0  0  0  0  0
   34.7280   29.4340   32.8370 S   0  0  0  0  0  0  0  0  0  0  0  0
   32.2990   29.5020   34.8190 Cl  0  0  0  0  0  0  0  0  0  0  0  0
   33.7310   30.4570   35.1980 C   0  0  0  0  0  0  0  0  0  0  0  0
   34.8160   30.4290   34.3170 C   0  0  0  0  0  0  0  0  0  0  0  0
   35.9300   31.1950   34.6480 C   0  0  0  0  0  0  0  0  0  0  0  0
   36.7650   31.1530   33.9380 H   0  0  0  0  0  0  0  0  0  0  0  0
   35.9300   31.9460   35.8150 C   0  0  0  0  0  0  0  0  0  0  0  0
   36.8410   32.5120   35.9910 H   0  0  0  0  0  0  0  0  0  0  0  0
   34.8700   31.9710   36.6690 C   0  0  0  0  0  0  0  0  0  0  0  0
   34.9320   32.5780   37.5650 H   0  0  0  0  0  0  0  0  0  0  0  0
   33.7580   31.2080   36.3420 C   0  0  0  0  0  0  0  0  0  0  0  0
   32.3760   31.1930   37.3850 Cl  0  0  0  0  0  0  0  0  0  0  0  0
  1  6  1  0  0  0  0
  1  9  1  0  0  0  0
  2  1  2  0  0  0  0
  3  4  2  0  0  0  0
  3  2  1  0  0  0  0
  4  5  1  0  0  0  0
  5 25  1  0  0  0  0
  5  6  2  0  0  0  0
  7  2  1  0  0  0  0
  8  3  1  0  0  0  0
  9 13  1  0  0  0  0
  9 10  1  0  0  0  0
 10 11  1  0  0  0  0
 10 14  1  0  0  0  0
 11 16  1  1  0  0  0
 12 18  1  0  0  0  0
 12 11  1  0  0  0  0
 13 12  1  0  0  0  0
 13 20  1  0  0  0  0
 15 10  1  0  0  0  0
 17 12  1  0  0  0  0
 19 13  1  0  0  0  0
 21 11  1  0  0  0  0
 21 23  1  0  0  0  0
 21 22  1  0  0  0  0
 24 21  1  0  0  0  0
 25 28  1  0  0  0  0
 26 27  1  0  0  0  0
 27 35  1  0  0  0  0
 28 29  1  0  0  0  0
 28 27  2  0  0  0  0
 29 31  2  0  0  0  0
 30 29  1  0  0  0  0
 31 32  1  0  0  0  0
 31 33  1  0  0  0  0
 33 34  1  0  0  0  0
 35 33  2  0  0  0  0
 35 36  1  0  0  0  0
M  END
>  <minimizedAffinity>
-5.75147009

$$$$

 OpenBabel03272503313D

 36 38  0  0  1  0  0  0  0  0999 V2000
   36.3870   23.7360   31.4730 C   0  0  0  0  0  0  0  0  0  0  0  0
   35.0340   23.8750   31.1160 C   0  0  0  0  0  0  0  0  0  0  0  0
   34.6180   25.1670   30.7570 C   0  0  0  0  0  0  0  0  0  0  0  0
   35.5510   26.1740   30.7840 N   0  0  0  0  0  0  0  0  0  0  0  0
   36.8210   26.0020   31.1280 C   0  0  0  0  0  0  0  0  0  0  0  0
   37.2370   24.7590   31.4770 N   0  0  0  0  0  0  0  0  0  0  0  0
   34.3260   23.0580   31.1060 H   0  0  0  0  0  0  0  0  0  0  0  0
   33.6050   25.3650   30.4710 H   0  0  0  0  0  0  0  0  0  0  0  0
   36.8050   22.4090   31.8370 N   0  0  0  0  0  0  0  0  0  0  0  0
   36.2330   21.5470   32.8200 C   0  0  0  0  0  0  0  0  0  0  0  0
   36.5460   20.1550   32.2750 C   0  0  2  0  0  0  0  0  0  0  0  0
   37.2010   20.3780   30.9230 C   0  0  0  0  0  0  0  0  0  0  0  0
   37.9110   21.6840   31.2600 C   0  0  0  0  0  0  0  0  0  0  0  0
   36.6520   21.6810   33.8350 H   0  0  0  0  0  0  0  0  0  0  0  0
   35.1270   21.6730   32.8180 H   0  0  0  0  0  0  0  0  0  0  0  0
   37.2550   19.6520   32.9620 H   0  0  0  0  0  0  0  0  0  0  0  0
   36.4500   20.5530   30.1350 H   0  0  0  0  0  0  0  0  0  0  0  0
   37.9090   19.5710   30.6770 H   0  0  0  0  0  0  0  0  0  0  0  0
   38.2080   22.1220   30.2900 H   0  0  0  0  0  0  0  0  0  0  0  0
   38.7420   21.4930   31.9580 H   0  0  0  0  0  0  0  0  0  0  0  0
   35.3310   19.2750   32.1880 C   0  0  0  0  0  0  0  0  0  0  0  0
   35.2830   18.5580   33.3840 F   0  0  0  0  0  0  0  0  0  0  0  0
   35.5680   18.3340   31.2020 F   0  0  0  0  0  0  0  0  0  0  0  0
   34.1790   19.9460   31.9520 F   0  0  0  0  0  0  0  0  0  0  0  0
   37.9830   27.3290   31.1450 S   0  0  0  0  0  0  0  0  0  0  0  0
   36.7810   27.3880   34.0410 Cl  0  0  0  0  0  0  0  0  0  0  0  0
   38.5190   27.1630   33.8470 C   0  0  0  0  0  0  0  0  0  0  0  0
   39.0580   27.1360   32.5580 C   0  0  0  0  0  0  0  0  0  0  0  0
   40.4340   26.9560   32.4430 C   0  0  0  0  0  0  0  0  0  0  0  0
   40.8270   26.9390   31.4200 H   0  0  0  0  0  0  0  0  0  0  0  0
   41.2090   26.8130   33.5840 C   0  0  0  0  0  0  0  0  0  0  0  0
   42.2720   26.6780   33.3970 H   0  0  0  0  0  0  0  0  0  0  0  0
   40.6800   26.8410   34.8380 C   0  0  0  0  0  0  0  0  0  0  0  0
   41.3390   26.7230   35.6890 H   0  0  0  0  0  0  0  0  0  0  0  0
   39.3090   27.0200   34.9560 C   0  0  0  0  0  0  0  0  0  0  0  0
   38.5690   27.0640   36.5210 Cl  0  0  0  0  0  0  0  0  0  0  0  0
  1  6  1  0  0  0  0
  1  9  1  0  0  0  0
  2  1  2  0  0  0  0
  3  4  2  0  0  0  0
  3  2  1  0  0  0  0
  4  5  1  0  0  0  0
  5 25  1  0  0  0  0
  5  6  2  0  0  0  0
  7  2  1  0  0  0  0
  8  3  1  0  0  0  0
  9 10  1  0  0  0  0
 10 14  1  0  0  0  0
 11 10  1  0  0  0  0
 11 16  1  1  0  0  0
 12 13  1  0  0  0  0
 12 11  1  0  0  0  0
 13  9  1  0  0  0  0
 13 20  1  0  0  0  0
 15 10  1  0  0  0  0
 17 12  1  0  0  0  0
 18 12  1  0  0  0  0
 19 13  1  0  0  0  0
 21 11  1  0  0  0  0
 21 22  1  0  0  0  0
 23 21  1  0  0  0  0
 24 21  1  0  0  0  0
 25 28  1  0  0  0  0
 27 26  1  0  0  0  0
 27 35  1  0  0  0  0
 28 27  2  0  0  0  0
 29 28  1  0  0  0  0
 29 31  2  0  0  0  0
 30 29  1  0  0  0  0
 31 33  1  0  0  0  0
 32 31  1  0  0  0  0
 33 35  2  0  0  0  0
 33 34  1  0  0  0  0
 35 36  1  0  0  0  0
M  END
>  <minimizedAffinity>
-5.70758438

$$$$
