
 OpenBabel03272503123D

 48 52  0  0  0  0  0  0  0  0999 V2000
   39.1960   32.2260   42.5700 C   0  0  0  0  0  0  0  0  0  0  0  0
   39.7110   31.5020   43.6350 C   0  0  0  0  0  0  0  0  0  0  0  0
   40.5800   30.4710   43.4760 C   0  0  0  0  0  0  0  0  0  0  0  0
   40.9880   30.1040   42.1900 C   0  0  0  0  0  0  0  0  0  0  0  0
   41.8170   29.1690   41.7360 N   0  0  0  0  0  0  0  0  0  0  0  0
   41.8570   29.2620   40.4210 C   0  0  0  0  0  0  0  0  0  0  0  0
   41.0510   30.2570   40.0440 N   0  0  0  0  0  0  0  0  0  0  0  0
   40.4790   30.8180   41.1400 C   0  0  0  0  0  0  0  0  0  0  0  0
   39.5830   31.8850   41.2560 C   0  0  0  0  0  0  0  0  0  0  0  0
   38.5030   33.0500   42.6780 H   0  0  0  0  0  0  0  0  0  0  0  0
   40.9870   29.9020   44.2890 H   0  0  0  0  0  0  0  0  0  0  0  0
   42.3690   28.4550   42.2970 H   0  0  0  0  0  0  0  0  0  0  0  0
   42.4180   28.6730   39.6890 H   0  0  0  0  0  0  0  0  0  0  0  0
   39.2690   31.9090   44.9490 C   0  0  0  0  0  0  0  0  0  0  0  0
   38.1720   32.5470   45.0740 O   0  0  0  0  0  0  0  0  0  0  0  0
   39.9580   31.6620   46.1610 N   0  0  0  0  0  0  0  0  0  0  0  0
   40.8550   31.1570   46.1180 H   0  0  0  0  0  0  0  0  0  0  0  0
   38.1230   30.1620   47.4960 F   0  0  0  0  0  0  0  0  0  0  0  0
   38.3790   31.4030   47.9900 C   0  0  0  0  0  0  0  0  0  0  0  0
   37.7240   31.8350   49.1030 C   0  0  0  0  0  0  0  0  0  0  0  0
   38.0290   33.0930   49.5490 C   0  0  0  0  0  0  0  0  0  0  0  0
   38.9380   33.8940   48.9270 C   0  0  0  0  0  0  0  0  0  0  0  0
   39.5910   33.4300   47.7950 C   0  0  0  0  0  0  0  0  0  0  0  0
   39.2990   32.1610   47.3270 C   0  0  0  0  0  0  0  0  0  0  0  0
   37.5160   33.4620   50.4400 H   0  0  0  0  0  0  0  0  0  0  0  0
   39.1750   34.8870   49.2830 H   0  0  0  0  0  0  0  0  0  0  0  0
   40.3160   34.0540   47.2910 H   0  0  0  0  0  0  0  0  0  0  0  0
   36.0850   29.3550   51.4480 C   0  0  0  0  0  0  0  0  0  0  0  0
   37.0480   30.2150   50.8650 C   0  0  0  0  0  0  0  0  0  0  0  0
   36.7560   30.9380   49.7320 C   0  0  0  0  0  0  0  0  0  0  0  0
   35.4930   30.7780   49.2040 N   0  0  0  0  0  0  0  0  0  0  0  0
   34.5840   29.9640   49.7580 C   0  0  0  0  0  0  0  0  0  0  0  0
   34.8750   29.2690   50.8540 N   0  0  0  0  0  0  0  0  0  0  0  0
   36.3200   28.7900   52.3400 H   0  0  0  0  0  0  0  0  0  0  0  0
   38.0350   30.3140   51.3110 H   0  0  0  0  0  0  0  0  0  0  0  0
   33.6510   29.9660   49.2060 H   0  0  0  0  0  0  0  0  0  0  0  0
   39.0800   32.5940   40.2210 O   0  0  0  0  0  0  0  0  0  0  0  0
   38.1350   30.6750   37.7570 Cl  0  0  0  0  0  0  0  0  0  0  0  0
   37.3720   32.1240   38.3390 C   0  0  0  0  0  0  0  0  0  0  0  0
   38.0770   32.6430   39.3860 C   0  0  0  0  0  0  0  0  0  0  0  0
   37.4460   33.8430   39.8290 C   0  0  0  0  0  0  0  0  0  0  0  0
   37.6710   34.5800   40.6360 H   0  0  0  0  0  0  0  0  0  0  0  0
   36.2890   34.3980   39.2780 C   0  0  0  0  0  0  0  0  0  0  0  0
   35.7090   35.2960   39.5150 H   0  0  0  0  0  0  0  0  0  0  0  0
   35.6840   33.7460   38.2100 C   0  0  0  0  0  0  0  0  0  0  0  0
   34.7920   34.0510   37.6860 H   0  0  0  0  0  0  0  0  0  0  0  0
   36.2370   32.5980   37.7410 C   0  0  0  0  0  0  0  0  0  0  0  0
   35.5960   31.6780   36.4200 Cl  0  0  0  0  0  0  0  0  0  0  0  0
  1 10  1  0  0  0  0
  1  2  1  0  0  0  0
  2 14  1  0  0  0  0
  3  2  2  0  0  0  0
  3 11  1  0  0  0  0
  4  3  1  0  0  0  0
  5  4  1  0  0  0  0
  5 12  1  0  0  0  0
  6  5  1  0  0  0  0
  7  6  2  0  0  0  0
  7  8  1  0  0  0  0
  8  9  1  0  0  0  0
  8  4  2  0  0  0  0
  9  1  2  0  0  0  0
 13  6  1  0  0  0  0
 14 15  2  0  0  0  0
 14 16  1  0  0  0  0
 16 24  1  0  0  0  0
 17 16  1  0  0  0  0
 18 19  1  0  0  0  0
 19 20  1  0  0  0  0
 20 21  2  0  0  0  0
 20 30  1  0  0  0  0
 21 25  1  0  0  0  0
 22 26  1  0  0  0  0
 22 21  1  0  0  0  0
 23 22  2  0  0  0  0
 24 23  1  0  0  0  0
 24 19  2  0  0  0  0
 27 23  1  0  0  0  0
 28 34  1  0  0  0  0
 29 35  1  0  0  0  0
 29 28  1  0  0  0  0
 30 29  2  0  0  0  0
 31 30  1  0  0  0  0
 31 32  2  0  0  0  0
 32 33  1  0  0  0  0
 33 28  2  0  0  0  0
 36 32  1  0  0  0  0
 37  9  1  0  0  0  0
 38 39  1  0  0  0  0
 39 40  1  0  0  0  0
 40 41  2  0  0  0  0
 40 37  1  0  0  0  0
 41 42  1  0  0  0  0
 43 44  1  0  0  0  0
 43 41  1  0  0  0  0
 45 43  2  0  0  0  0
 46 45  1  0  0  0  0
 47 45  1  0  0  0  0
 47 39  2  0  0  0  0
 48 47  1  0  0  0  0
M  END
>  <minimizedAffinity>
-7.2373867

>  <minimizedRMSD>
0.514380515

$$$$
