
 OpenBabel03272503133D

 48 52  0  0  0  0  0  0  0  0999 V2000
   39.2160   32.2300   42.5770 C   0  0  0  0  0  0  0  0  0  0  0  0
   39.7190   31.5000   43.6440 C   0  0  0  0  0  0  0  0  0  0  0  0
   40.5820   30.4620   43.4880 C   0  0  0  0  0  0  0  0  0  0  0  0
   40.9940   30.0950   42.2040 C   0  0  0  0  0  0  0  0  0  0  0  0
   41.8190   29.1540   41.7530 N   0  0  0  0  0  0  0  0  0  0  0  0
   41.8680   29.2500   40.4380 C   0  0  0  0  0  0  0  0  0  0  0  0
   41.0720   30.2520   40.0580 N   0  0  0  0  0  0  0  0  0  0  0  0
   40.4980   30.8150   41.1530 C   0  0  0  0  0  0  0  0  0  0  0  0
   39.6090   31.8880   41.2650 C   0  0  0  0  0  0  0  0  0  0  0  0
   38.5290   33.0580   42.6830 H   0  0  0  0  0  0  0  0  0  0  0  0
   40.9790   29.8890   44.3020 H   0  0  0  0  0  0  0  0  0  0  0  0
   42.3620   28.4350   42.3160 H   0  0  0  0  0  0  0  0  0  0  0  0
   42.4290   28.6580   39.7090 H   0  0  0  0  0  0  0  0  0  0  0  0
   39.2730   31.9080   44.9560 C   0  0  0  0  0  0  0  0  0  0  0  0
   38.1790   32.5520   45.0750 O   0  0  0  0  0  0  0  0  0  0  0  0
   39.9520   31.6540   46.1720 N   0  0  0  0  0  0  0  0  0  0  0  0
   40.8470   31.1430   46.1330 H   0  0  0  0  0  0  0  0  0  0  0  0
   38.1170   30.1540   47.5060 F   0  0  0  0  0  0  0  0  0  0  0  0
   38.3700   31.3980   47.9980 C   0  0  0  0  0  0  0  0  0  0  0  0
   37.7110   31.8320   49.1070 C   0  0  0  0  0  0  0  0  0  0  0  0
   38.0130   33.0910   49.5510 C   0  0  0  0  0  0  0  0  0  0  0  0
   38.9230   33.8920   48.9280 C   0  0  0  0  0  0  0  0  0  0  0  0
   39.5790   33.4260   47.7990 C   0  0  0  0  0  0  0  0  0  0  0  0
   39.2890   32.1550   47.3350 C   0  0  0  0  0  0  0  0  0  0  0  0
   37.4980   33.4620   50.4390 H   0  0  0  0  0  0  0  0  0  0  0  0
   39.1560   34.8860   49.2820 H   0  0  0  0  0  0  0  0  0  0  0  0
   40.3040   34.0500   47.2950 H   0  0  0  0  0  0  0  0  0  0  0  0
   36.0730   29.3510   51.4520 C   0  0  0  0  0  0  0  0  0  0  0  0
   37.0360   30.2100   50.8690 C   0  0  0  0  0  0  0  0  0  0  0  0
   36.7430   30.9350   49.7370 C   0  0  0  0  0  0  0  0  0  0  0  0
   35.4790   30.7770   49.2110 N   0  0  0  0  0  0  0  0  0  0  0  0
   34.5700   29.9630   49.7650 C   0  0  0  0  0  0  0  0  0  0  0  0
   34.8630   29.2670   50.8600 N   0  0  0  0  0  0  0  0  0  0  0  0
   36.3090   28.7840   52.3430 H   0  0  0  0  0  0  0  0  0  0  0  0
   38.0240   30.3080   51.3140 H   0  0  0  0  0  0  0  0  0  0  0  0
   33.6360   29.9670   49.2150 H   0  0  0  0  0  0  0  0  0  0  0  0
   39.1180   32.6040   40.2290 O   0  0  0  0  0  0  0  0  0  0  0  0
   40.7590   32.7450   37.4120 Cl  0  0  0  0  0  0  0  0  0  0  0  0
   39.0550   32.4920   37.6470 C   0  0  0  0  0  0  0  0  0  0  0  0
   38.7540   32.5040   38.9780 C   0  0  0  0  0  0  0  0  0  0  0  0
   37.3490   32.3200   39.1450 C   0  0  0  0  0  0  0  0  0  0  0  0
   36.6790   32.2650   40.0340 H   0  0  0  0  0  0  0  0  0  0  0  0
   36.4290   32.1530   38.1070 C   0  0  0  0  0  0  0  0  0  0  0  0
   35.3440   32.0050   38.0930 H   0  0  0  0  0  0  0  0  0  0  0  0
   36.8940   32.1630   36.7970 C   0  0  0  0  0  0  0  0  0  0  0  0
   36.3070   32.0460   35.9010 H   0  0  0  0  0  0  0  0  0  0  0  0
   38.2230   32.3350   36.5730 C   0  0  0  0  0  0  0  0  0  0  0  0
   38.9470   32.3690   34.9990 Cl  0  0  0  0  0  0  0  0  0  0  0  0
  1 10  1  0  0  0  0
  1  2  1  0  0  0  0
  2 14  1  0  0  0  0
  3  2  2  0  0  0  0
  3 11  1  0  0  0  0
  4  3  1  0  0  0  0
  5  4  1  0  0  0  0
  5 12  1  0  0  0  0
  6  5  1  0  0  0  0
  7  6  2  0  0  0  0
  7  8  1  0  0  0  0
  8  9  1  0  0  0  0
  8  4  2  0  0  0  0
  9  1  2  0  0  0  0
 13  6  1  0  0  0  0
 14 15  2  0  0  0  0
 14 16  1  0  0  0  0
 16 24  1  0  0  0  0
 17 16  1  0  0  0  0
 18 19  1  0  0  0  0
 19 20  1  0  0  0  0
 20 21  2  0  0  0  0
 20 30  1  0  0  0  0
 21 25  1  0  0  0  0
 22 26  1  0  0  0  0
 22 21  1  0  0  0  0
 23 22  2  0  0  0  0
 24 23  1  0  0  0  0
 24 19  2  0  0  0  0
 27 23  1  0  0  0  0
 28 34  1  0  0  0  0
 29 35  1  0  0  0  0
 29 28  1  0  0  0  0
 30 29  2  0  0  0  0
 31 30  1  0  0  0  0
 31 32  2  0  0  0  0
 32 33  1  0  0  0  0
 33 28  2  0  0  0  0
 36 32  1  0  0  0  0
 37  9  1  0  0  0  0
 38 39  1  0  0  0  0
 39 40  1  0  0  0  0
 40 41  2  0  0  0  0
 40 37  1  0  0  0  0
 41 42  1  0  0  0  0
 43 41  1  0  0  0  0
 44 43  1  0  0  0  0
 45 43  2  0  0  0  0
 46 45  1  0  0  0  0
 47 45  1  0  0  0  0
 47 39  2  0  0  0  0
 48 47  1  0  0  0  0
M  END
>  <minimizedAffinity>
-7.0831871

>  <minimizedRMSD>
0.604830861

$$$$
