
 OpenBabel03272503123D

 48 52  0  0  0  0  0  0  0  0999 V2000
   39.3010   32.0410   42.6860 C   0  0  0  0  0  0  0  0  0  0  0  0
   39.7550   31.3210   43.7820 C   0  0  0  0  0  0  0  0  0  0  0  0
   40.6010   30.2640   43.6730 C   0  0  0  0  0  0  0  0  0  0  0  0
   41.0470   29.8650   42.4100 C   0  0  0  0  0  0  0  0  0  0  0  0
   41.8660   28.8990   42.0030 N   0  0  0  0  0  0  0  0  0  0  0  0
   41.9590   28.9690   40.6890 C   0  0  0  0  0  0  0  0  0  0  0  0
   41.1970   29.9790   40.2650 N   0  0  0  0  0  0  0  0  0  0  0  0
   40.5990   30.5740   41.3300 C   0  0  0  0  0  0  0  0  0  0  0  0
   39.7290   31.6670   41.3940 C   0  0  0  0  0  0  0  0  0  0  0  0
   38.6280   32.8840   42.7540 H   0  0  0  0  0  0  0  0  0  0  0  0
   40.9600   29.6980   44.5100 H   0  0  0  0  0  0  0  0  0  0  0  0
   42.3760   28.1800   42.5960 H   0  0  0  0  0  0  0  0  0  0  0  0
   42.5310   28.3530   39.9890 H   0  0  0  0  0  0  0  0  0  0  0  0
   39.2750   31.7620   45.0710 C   0  0  0  0  0  0  0  0  0  0  0  0
   38.1700   32.3920   45.1480 O   0  0  0  0  0  0  0  0  0  0  0  0
   39.9330   31.5570   46.3080 N   0  0  0  0  0  0  0  0  0  0  0  0
   40.8360   31.0590   46.3030 H   0  0  0  0  0  0  0  0  0  0  0  0
   38.0870   30.0740   47.6460 F   0  0  0  0  0  0  0  0  0  0  0  0
   38.3140   31.3340   48.1060 C   0  0  0  0  0  0  0  0  0  0  0  0
   37.6260   31.7920   49.1870 C   0  0  0  0  0  0  0  0  0  0  0  0
   37.9020   33.0680   49.6000 C   0  0  0  0  0  0  0  0  0  0  0  0
   38.8160   33.8610   48.9740 C   0  0  0  0  0  0  0  0  0  0  0  0
   39.5020   33.3710   47.8740 C   0  0  0  0  0  0  0  0  0  0  0  0
   39.2390   32.0830   47.4400 C   0  0  0  0  0  0  0  0  0  0  0  0
   37.3630   33.4570   50.4650 H   0  0  0  0  0  0  0  0  0  0  0  0
   39.0290   34.8690   49.3030 H   0  0  0  0  0  0  0  0  0  0  0  0
   40.2300   33.9890   47.3670 H   0  0  0  0  0  0  0  0  0  0  0  0
   35.9840   29.3190   51.5390 C   0  0  0  0  0  0  0  0  0  0  0  0
   36.9500   30.1720   50.9500 C   0  0  0  0  0  0  0  0  0  0  0  0
   36.6550   30.9010   49.8220 C   0  0  0  0  0  0  0  0  0  0  0  0
   35.3860   30.7550   49.3040 N   0  0  0  0  0  0  0  0  0  0  0  0
   34.4750   29.9470   49.8630 C   0  0  0  0  0  0  0  0  0  0  0  0
   34.7690   29.2460   50.9550 N   0  0  0  0  0  0  0  0  0  0  0  0
   36.2220   28.7490   52.4270 H   0  0  0  0  0  0  0  0  0  0  0  0
   37.9410   30.2610   51.3890 H   0  0  0  0  0  0  0  0  0  0  0  0
   33.5370   29.9590   49.3190 H   0  0  0  0  0  0  0  0  0  0  0  0
   39.2860   32.3720   40.3290 O   0  0  0  0  0  0  0  0  0  0  0  0
   36.2850   32.9260   41.4860 Cl  0  0  0  0  0  0  0  0  0  0  0  0
   37.0260   33.5970   40.0620 C   0  0  0  0  0  0  0  0  0  0  0  0
   38.2930   33.1130   39.9150 C   0  0  0  0  0  0  0  0  0  0  0  0
   38.8700   33.6570   38.7290 C   0  0  0  0  0  0  0  0  0  0  0  0
   39.8600   33.5400   38.2300 H   0  0  0  0  0  0  0  0  0  0  0  0
   38.2360   34.5450   37.8580 C   0  0  0  0  0  0  0  0  0  0  0  0
   38.5560   35.0320   36.9310 H   0  0  0  0  0  0  0  0  0  0  0  0
   36.9370   34.9480   38.1480 C   0  0  0  0  0  0  0  0  0  0  0  0
   36.3260   35.6250   37.5730 H   0  0  0  0  0  0  0  0  0  0  0  0
   36.3320   34.4640   39.2640 C   0  0  0  0  0  0  0  0  0  0  0  0
   34.7210   34.8750   39.7520 Cl  0  0  0  0  0  0  0  0  0  0  0  0
  1 10  1  0  0  0  0
  1  2  1  0  0  0  0
  2 14  1  0  0  0  0
  3  2  2  0  0  0  0
  3 11  1  0  0  0  0
  4  3  1  0  0  0  0
  5  4  1  0  0  0  0
  5 12  1  0  0  0  0
  6  5  1  0  0  0  0
  7  6  2  0  0  0  0
  7  8  1  0  0  0  0
  8  9  1  0  0  0  0
  8  4  2  0  0  0  0
  9  1  2  0  0  0  0
 13  6  1  0  0  0  0
 14 15  2  0  0  0  0
 14 16  1  0  0  0  0
 16 24  1  0  0  0  0
 17 16  1  0  0  0  0
 18 19  1  0  0  0  0
 19 20  1  0  0  0  0
 20 21  2  0  0  0  0
 20 30  1  0  0  0  0
 21 25  1  0  0  0  0
 22 26  1  0  0  0  0
 22 21  1  0  0  0  0
 23 22  2  0  0  0  0
 24 23  1  0  0  0  0
 24 19  2  0  0  0  0
 27 23  1  0  0  0  0
 28 34  1  0  0  0  0
 29 35  1  0  0  0  0
 29 28  2  0  0  0  0
 30 29  1  0  0  0  0
 31 30  2  0  0  0  0
 31 32  1  0  0  0  0
 32 33  2  0  0  0  0
 33 28  1  0  0  0  0
 36 32  1  0  0  0  0
 37  9  1  0  0  0  0
 39 38  1  0  0  0  0
 40 39  1  0  0  0  0
 40 37  1  0  0  0  0
 41 40  2  0  0  0  0
 42 41  1  0  0  0  0
 43 45  2  0  0  0  0
 43 41  1  0  0  0  0
 44 43  1  0  0  0  0
 45 47  1  0  0  0  0
 46 45  1  0  0  0  0
 47 48  1  0  0  0  0
 47 39  2  0  0  0  0
M  END
>  <minimizedAffinity>
-7.65729952

>  <minimizedRMSD>
1.35158694

$$$$
