
 OpenBabel03272508583D

 42 45  0  0  1  0  0  0  0  0999 V2000
   39.1440   31.4960   43.3510 C   0  0  0  0  0  0  0  0  0  0  0  0
   40.1210   30.5500   43.4850 C   0  0  0  0  0  0  0  0  0  0  0  0
   40.8330   30.1960   42.3520 C   0  0  0  0  0  0  0  0  0  0  0  0
   40.5180   30.8120   41.1670 C   0  0  0  0  0  0  0  0  0  0  0  0
   39.5310   31.7690   41.0260 C   0  0  0  0  0  0  0  0  0  0  0  0
   38.8800   32.0670   42.1570 N   0  0  0  0  0  0  0  0  0  0  0  0
   40.3580   30.0730   44.4290 H   0  0  0  0  0  0  0  0  0  0  0  0
   41.6120   29.4560   42.4130 H   0  0  0  0  0  0  0  0  0  0  0  0
   41.1040   30.4990   40.3110 H   0  0  0  0  0  0  0  0  0  0  0  0
   38.3700   31.8940   44.5430 C   0  0  0  0  0  0  0  0  0  0  0  0
   37.2470   32.4390   44.4340 O   0  0  0  0  0  0  0  0  0  0  0  0
   38.9460   31.6360   45.8490 N   0  0  0  0  0  0  0  0  0  0  0  0
   39.9320   31.3910   45.9900 H   0  0  0  0  0  0  0  0  0  0  0  0
   38.4360   31.1090   48.2190 C   0  0  2  0  0  0  0  0  0  0  0  0
   38.6800   32.5730   48.1460 C   0  0  0  0  0  0  0  0  0  0  0  0
   38.0710   31.7330   46.9890 C   0  0  1  0  0  0  0  0  0  0  0  0
   39.3750   30.5240   48.3180 H   0  0  0  0  0  0  0  0  0  0  0  0
   39.6860   32.9680   48.0210 H   0  0  0  0  0  0  0  0  0  0  0  0
   37.9710   33.1850   48.7450 H   0  0  0  0  0  0  0  0  0  0  0  0
   36.9940   31.9740   46.7940 H   0  0  0  0  0  0  0  0  0  0  0  0
   35.0630   30.2360   49.5270 C   0  0  0  0  0  0  0  0  0  0  0  0
   35.3960   29.5520   50.7390 C   0  0  0  0  0  0  0  0  0  0  0  0
   36.7890   29.4120   51.0860 C   0  0  0  0  0  0  0  0  0  0  0  0
   37.7440   29.9350   50.2530 N   0  0  0  0  0  0  0  0  0  0  0  0
   37.3550   30.5690   49.1260 C   0  0  0  0  0  0  0  0  0  0  0  0
   36.0320   30.7360   48.7350 N   0  0  0  0  0  0  0  0  0  0  0  0
   34.0100   30.3210   49.3010 H   0  0  0  0  0  0  0  0  0  0  0  0
   34.6650   29.1360   51.4020 H   0  0  0  0  0  0  0  0  0  0  0  0
   37.0370   28.8950   52.0000 H   0  0  0  0  0  0  0  0  0  0  0  0
   39.2470   32.3840   39.7350 C   0  0  0  0  0  0  0  0  0  0  0  0
   38.6720   33.5180   39.7330 O   0  0  0  0  0  0  0  0  0  0  0  0
   37.0890   30.5700   38.7320 Cl  0  0  0  0  0  0  0  0  0  0  0  0
   38.5860   30.9780   37.9300 C   0  0  0  0  0  0  0  0  0  0  0  0
   39.5610   31.8250   38.4310 C   0  0  0  0  0  0  0  0  0  0  0  0
   40.7190   32.0950   37.7320 C   0  0  0  0  0  0  0  0  0  0  0  0
   41.4160   32.7590   38.1950 H   0  0  0  0  0  0  0  0  0  0  0  0
   40.8660   31.4850   36.5050 C   0  0  0  0  0  0  0  0  0  0  0  0
   41.7790   31.7020   35.9620 H   0  0  0  0  0  0  0  0  0  0  0  0
   39.9280   30.6360   35.9620 C   0  0  0  0  0  0  0  0  0  0  0  0
   40.0820   30.1780   34.9980 H   0  0  0  0  0  0  0  0  0  0  0  0
   38.7720   30.3810   36.6860 C   0  0  0  0  0  0  0  0  0  0  0  0
   37.6090   29.2980   35.9580 Cl  0  0  0  0  0  0  0  0  0  0  0  0
  1  2  1  0  0  0  0
  1 10  1  0  0  0  0
  2  7  1  0  0  0  0
  3  8  1  0  0  0  0
  3  2  2  0  0  0  0
  4  3  1  0  0  0  0
  5  4  2  0  0  0  0
  5  6  1  0  0  0  0
  6  1  2  0  0  0  0
  9  4  1  0  0  0  0
 10 12  1  0  0  0  0
 11 10  2  0  0  0  0
 12 13  1  0  0  0  0
 12 16  1  0  0  0  0
 14 17  1  6  0  0  0
 14 25  1  0  0  0  0
 15 14  1  0  0  0  0
 15 19  1  0  0  0  0
 16 20  1  6  0  0  0
 16 15  1  0  0  0  0
 16 14  1  0  0  0  0
 18 15  1  0  0  0  0
 21 22  1  0  0  0  0
 22 23  2  0  0  0  0
 22 28  1  0  0  0  0
 23 29  1  0  0  0  0
 24 23  1  0  0  0  0
 25 24  2  0  0  0  0
 26 25  1  0  0  0  0
 26 21  2  0  0  0  0
 27 21  1  0  0  0  0
 30  5  1  0  0  0  0
 31 30  2  0  0  0  0
 33 34  1  0  0  0  0
 33 32  1  0  0  0  0
 34 30  1  0  0  0  0
 35 36  1  0  0  0  0
 35 34  2  0  0  0  0
 37 35  1  0  0  0  0
 38 37  1  0  0  0  0
 39 37  2  0  0  0  0
 39 41  1  0  0  0  0
 40 39  1  0  0  0  0
 41 33  2  0  0  0  0
 42 41  1  0  0  0  0
M  END
>  <minimizedAffinity>
-4.96582937

>  <minimizedRMSD>
0.425042301

$$$$
