
 OpenBabel03272503063D

 34 36  0  0  0  0  0  0  0  0999 V2000
   38.5290   30.7100   47.1340 F   0  0  0  0  0  0  0  0  0  0  0  0
   38.8450   31.9040   47.6820 C   0  0  0  0  0  0  0  0  0  0  0  0
   38.3820   32.2210   48.9270 C   0  0  0  0  0  0  0  0  0  0  0  0
   38.7330   33.4430   49.4360 C   0  0  0  0  0  0  0  0  0  0  0  0
   39.5220   34.3420   48.7440 C   0  0  0  0  0  0  0  0  0  0  0  0
   39.9740   33.9960   47.4940 C   0  0  0  0  0  0  0  0  0  0  0  0
   39.6350   32.7630   46.9500 C   0  0  0  0  0  0  0  0  0  0  0  0
   38.3760   33.7120   50.4150 H   0  0  0  0  0  0  0  0  0  0  0  0
   39.7620   35.2930   49.2030 H   0  0  0  0  0  0  0  0  0  0  0  0
   40.6020   34.6900   46.9240 H   0  0  0  0  0  0  0  0  0  0  0  0
   37.1960   29.5600   51.3530 C   0  0  0  0  0  0  0  0  0  0  0  0
   38.0020   30.4960   50.6980 C   0  0  0  0  0  0  0  0  0  0  0  0
   37.5480   31.2380   49.6220 C   0  0  0  0  0  0  0  0  0  0  0  0
   36.2690   31.0060   49.2360 N   0  0  0  0  0  0  0  0  0  0  0  0
   35.4920   30.1040   49.8680 C   0  0  0  0  0  0  0  0  0  0  0  0
   35.9420   29.3990   50.8990 N   0  0  0  0  0  0  0  0  0  0  0  0
   37.6850   29.0410   52.1920 H   0  0  0  0  0  0  0  0  0  0  0  0
   39.0330   30.6940   50.9960 H   0  0  0  0  0  0  0  0  0  0  0  0
   34.4710   29.9210   49.5580 H   0  0  0  0  0  0  0  0  0  0  0  0
   39.0630   32.4360   44.6360 C   0  0  0  0  0  0  0  0  0  0  0  0
   37.9360   32.8450   45.0560 O   0  0  0  0  0  0  0  0  0  0  0  0
   40.0840   32.3600   45.6520 N   0  0  0  0  0  0  0  0  0  0  0  0
   41.0120   32.0330   45.3650 H   0  0  0  0  0  0  0  0  0  0  0  0
   41.0320   30.1980   44.1950 Cl  0  0  0  0  0  0  0  0  0  0  0  0
   40.2210   31.0610   42.8930 C   0  0  0  0  0  0  0  0  0  0  0  0
   39.3430   32.0650   43.2500 C   0  0  0  0  0  0  0  0  0  0  0  0
   38.6710   32.7850   42.2610 C   0  0  0  0  0  0  0  0  0  0  0  0
   37.9580   33.5960   42.4320 H   0  0  0  0  0  0  0  0  0  0  0  0
   38.9000   32.4740   40.9480 C   0  0  0  0  0  0  0  0  0  0  0  0
   38.3940   33.0120   40.1310 H   0  0  0  0  0  0  0  0  0  0  0  0
   39.7840   31.4640   40.6230 C   0  0  0  0  0  0  0  0  0  0  0  0
   39.9380   31.2490   39.5770 H   0  0  0  0  0  0  0  0  0  0  0  0
   40.4720   30.7260   41.5750 C   0  0  0  0  0  0  0  0  0  0  0  0
   41.5920   29.4450   41.1510 Cl  0  0  0  0  0  0  0  0  0  0  0  0
  1  2  1  0  0  0  0
  2  3  1  0  0  0  0
  3  4  2  0  0  0  0
  3 13  1  0  0  0  0
  4  8  1  0  0  0  0
  5  9  1  0  0  0  0
  5  4  1  0  0  0  0
  6  5  2  0  0  0  0
  7  6  1  0  0  0  0
  7  2  2  0  0  0  0
 10  6  1  0  0  0  0
 11 17  1  0  0  0  0
 12 18  1  0  0  0  0
 12 11  2  0  0  0  0
 13 12  1  0  0  0  0
 14 13  2  0  0  0  0
 14 15  1  0  0  0  0
 15 16  2  0  0  0  0
 16 11  1  0  0  0  0
 19 15  1  0  0  0  0
 20 21  2  0  0  0  0
 20 22  1  0  0  0  0
 22  7  1  0  0  0  0
 23 22  1  0  0  0  0
 25 26  1  0  0  0  0
 25 24  1  0  0  0  0
 26 20  1  0  0  0  0
 27 28  1  0  0  0  0
 27 26  2  0  0  0  0
 29 27  1  0  0  0  0
 30 29  1  0  0  0  0
 31 29  2  0  0  0  0
 31 33  1  0  0  0  0
 32 31  1  0  0  0  0
 33 25  2  0  0  0  0
 34 33  1  0  0  0  0
M  END
>  <minimizedAffinity>
-6.53260422

>  <minimizedRMSD>
0.384460419

$$$$
