
 OpenBabel03262522113D

 32 34  0  0  0  0  0  0  0  0999 V2000
   37.6660   31.3560   47.3080 C   0  0  0  0  0  0  0  0  0  0  0  0
   37.8550   32.3920   48.2010 C   0  0  0  0  0  0  0  0  0  0  0  0
   38.9780   33.1860   48.1070 C   0  0  0  0  0  0  0  0  0  0  0  0
   39.8640   32.8790   47.0930 C   0  0  0  0  0  0  0  0  0  0  0  0
   39.6680   31.8420   46.2040 C   0  0  0  0  0  0  0  0  0  0  0  0
   38.5540   31.0860   46.3300 N   0  0  0  0  0  0  0  0  0  0  0  0
   37.1640   32.6400   49.0010 H   0  0  0  0  0  0  0  0  0  0  0  0
   39.1490   34.0050   48.7970 H   0  0  0  0  0  0  0  0  0  0  0  0
   40.7680   33.4600   46.9590 H   0  0  0  0  0  0  0  0  0  0  0  0
   36.4590   30.5530   47.4610 C   0  0  0  0  0  0  0  0  0  0  0  0
   35.7790   30.2380   46.4780 O   0  0  0  0  0  0  0  0  0  0  0  0
   36.9330   29.5970   49.6840 C   0  0  0  0  0  0  0  0  0  0  0  0
   35.9980   30.0870   48.7650 C   0  0  0  0  0  0  0  0  0  0  0  0
   34.6530   30.1070   49.1420 C   0  0  0  0  0  0  0  0  0  0  0  0
   34.2960   29.6560   50.3730 N   0  0  0  0  0  0  0  0  0  0  0  0
   35.2320   29.1880   51.2400 C   0  0  0  0  0  0  0  0  0  0  0  0
   36.5200   29.1590   50.9020 N   0  0  0  0  0  0  0  0  0  0  0  0
   37.9840   29.5640   49.4340 H   0  0  0  0  0  0  0  0  0  0  0  0
   33.9650   30.4910   48.4070 H   0  0  0  0  0  0  0  0  0  0  0  0
   34.7930   28.8660   52.1750 H   0  0  0  0  0  0  0  0  0  0  0  0
   40.8290   31.4570   44.8930 S   0  0  0  0  0  0  0  0  0  0  0  0
   41.2770   29.5290   42.3830 Cl  0  0  0  0  0  0  0  0  0  0  0  0
   40.2880   30.9780   42.2050 C   0  0  0  0  0  0  0  0  0  0  0  0
   40.0880   31.8220   43.2920 C   0  0  0  0  0  0  0  0  0  0  0  0
   39.3080   32.9560   43.1310 C   0  0  0  0  0  0  0  0  0  0  0  0
   39.1420   33.6270   43.9770 H   0  0  0  0  0  0  0  0  0  0  0  0
   38.7370   33.2480   41.9200 C   0  0  0  0  0  0  0  0  0  0  0  0
   38.1190   34.1420   41.7850 H   0  0  0  0  0  0  0  0  0  0  0  0
   38.9490   32.3890   40.8410 C   0  0  0  0  0  0  0  0  0  0  0  0
   38.5140   32.5990   39.8910 H   0  0  0  0  0  0  0  0  0  0  0  0
   39.7240   31.2450   40.9610 C   0  0  0  0  0  0  0  0  0  0  0  0
   39.9940   30.1610   39.6090 Cl  0  0  0  0  0  0  0  0  0  0  0  0
  1 10  1  0  0  0  0
  1  2  1  0  0  0  0
  2  7  1  0  0  0  0
  3  2  2  0  0  0  0
  3  8  1  0  0  0  0
  4  3  1  0  0  0  0
  5  6  1  0  0  0  0
  5  4  2  0  0  0  0
  6  1  2  0  0  0  0
  9  4  1  0  0  0  0
 10 13  1  0  0  0  0
 11 10  2  0  0  0  0
 12 17  1  0  0  0  0
 13 14  1  0  0  0  0
 13 12  2  0  0  0  0
 14 15  2  0  0  0  0
 15 16  1  0  0  0  0
 16 20  1  0  0  0  0
 17 16  2  0  0  0  0
 18 12  1  0  0  0  0
 19 14  1  0  0  0  0
 21  5  1  0  0  0  0
 23 22  1  0  0  0  0
 23 24  1  0  0  0  0
 24 21  1  0  0  0  0
 25 24  2  0  0  0  0
 25 26  1  0  0  0  0
 27 25  1  0  0  0  0
 28 27  1  0  0  0  0
 29 31  1  0  0  0  0
 29 27  2  0  0  0  0
 30 29  1  0  0  0  0
 31 23  2  0  0  0  0
 32 31  1  0  0  0  0
M  END
>  <minimizedAffinity>
-5.59080362

>  <minimizedRMSD>
1.35789645

$$$$
