
 OpenBabel03272503133D

 48 52  0  0  0  0  0  0  0  0999 V2000
   39.2100   32.2410   42.5760 C   0  0  0  0  0  0  0  0  0  0  0  0
   39.7130   31.5070   43.6400 C   0  0  0  0  0  0  0  0  0  0  0  0
   40.5740   30.4680   43.4810 C   0  0  0  0  0  0  0  0  0  0  0  0
   40.9840   30.1030   42.1950 C   0  0  0  0  0  0  0  0  0  0  0  0
   41.8050   29.1610   41.7410 N   0  0  0  0  0  0  0  0  0  0  0  0
   41.8530   29.2590   40.4260 C   0  0  0  0  0  0  0  0  0  0  0  0
   41.0590   30.2640   40.0490 N   0  0  0  0  0  0  0  0  0  0  0  0
   40.4870   30.8260   41.1460 C   0  0  0  0  0  0  0  0  0  0  0  0
   39.6000   31.9010   41.2620 C   0  0  0  0  0  0  0  0  0  0  0  0
   38.5250   33.0700   42.6840 H   0  0  0  0  0  0  0  0  0  0  0  0
   40.9710   29.8920   44.2930 H   0  0  0  0  0  0  0  0  0  0  0  0
   42.3480   28.4400   42.3020 H   0  0  0  0  0  0  0  0  0  0  0  0
   42.4120   28.6680   39.6950 H   0  0  0  0  0  0  0  0  0  0  0  0
   39.2700   31.9130   44.9540 C   0  0  0  0  0  0  0  0  0  0  0  0
   38.1780   32.5590   45.0750 O   0  0  0  0  0  0  0  0  0  0  0  0
   39.9500   31.6560   46.1680 N   0  0  0  0  0  0  0  0  0  0  0  0
   40.8440   31.1430   46.1260 H   0  0  0  0  0  0  0  0  0  0  0  0
   38.1160   30.1570   47.5020 F   0  0  0  0  0  0  0  0  0  0  0  0
   38.3710   31.3990   47.9960 C   0  0  0  0  0  0  0  0  0  0  0  0
   37.7150   31.8310   49.1070 C   0  0  0  0  0  0  0  0  0  0  0  0
   38.0190   33.0900   49.5530 C   0  0  0  0  0  0  0  0  0  0  0  0
   38.9290   33.8900   48.9300 C   0  0  0  0  0  0  0  0  0  0  0  0
   39.5830   33.4260   47.7990 C   0  0  0  0  0  0  0  0  0  0  0  0
   39.2910   32.1550   47.3320 C   0  0  0  0  0  0  0  0  0  0  0  0
   37.5060   33.4600   50.4420 H   0  0  0  0  0  0  0  0  0  0  0  0
   39.1650   34.8840   49.2850 H   0  0  0  0  0  0  0  0  0  0  0  0
   40.3080   34.0490   47.2950 H   0  0  0  0  0  0  0  0  0  0  0  0
   36.0760   29.3500   51.4510 C   0  0  0  0  0  0  0  0  0  0  0  0
   37.0400   30.2100   50.8680 C   0  0  0  0  0  0  0  0  0  0  0  0
   36.7470   30.9350   49.7370 C   0  0  0  0  0  0  0  0  0  0  0  0
   35.4830   30.7790   49.2110 N   0  0  0  0  0  0  0  0  0  0  0  0
   34.5730   29.9640   49.7660 C   0  0  0  0  0  0  0  0  0  0  0  0
   34.8660   29.2680   50.8600 N   0  0  0  0  0  0  0  0  0  0  0  0
   36.3120   28.7830   52.3420 H   0  0  0  0  0  0  0  0  0  0  0  0
   38.0280   30.3060   51.3130 H   0  0  0  0  0  0  0  0  0  0  0  0
   33.6390   29.9690   49.2160 H   0  0  0  0  0  0  0  0  0  0  0  0
   39.1100   32.6200   40.2280 O   0  0  0  0  0  0  0  0  0  0  0  0
   39.8500   31.8280   37.1490 Cl  0  0  0  0  0  0  0  0  0  0  0  0
   38.2940   32.2430   37.8040 C   0  0  0  0  0  0  0  0  0  0  0  0
   38.3980   32.5170   39.1370 C   0  0  0  0  0  0  0  0  0  0  0  0
   37.1150   32.8780   39.6450 C   0  0  0  0  0  0  0  0  0  0  0  0
   36.7400   33.1730   40.6530 H   0  0  0  0  0  0  0  0  0  0  0  0
   35.9390   32.9400   38.8960 C   0  0  0  0  0  0  0  0  0  0  0  0
   34.9060   33.1980   39.1540 H   0  0  0  0  0  0  0  0  0  0  0  0
   35.9950   32.6310   37.5420 C   0  0  0  0  0  0  0  0  0  0  0  0
   35.1750   32.6340   36.8410 H   0  0  0  0  0  0  0  0  0  0  0  0
   37.1890   32.2790   36.9980 C   0  0  0  0  0  0  0  0  0  0  0  0
   37.4140   31.8670   35.3290 Cl  0  0  0  0  0  0  0  0  0  0  0  0
  1 10  1  0  0  0  0
  1  2  1  0  0  0  0
  2 14  1  0  0  0  0
  3  2  2  0  0  0  0
  3 11  1  0  0  0  0
  4  3  1  0  0  0  0
  5  4  1  0  0  0  0
  5 12  1  0  0  0  0
  6  5  1  0  0  0  0
  7  6  2  0  0  0  0
  7  8  1  0  0  0  0
  8  9  1  0  0  0  0
  8  4  2  0  0  0  0
  9  1  2  0  0  0  0
 13  6  1  0  0  0  0
 14 15  2  0  0  0  0
 14 16  1  0  0  0  0
 16 24  1  0  0  0  0
 17 16  1  0  0  0  0
 18 19  1  0  0  0  0
 19 20  1  0  0  0  0
 20 21  2  0  0  0  0
 20 30  1  0  0  0  0
 21 25  1  0  0  0  0
 22 26  1  0  0  0  0
 22 21  1  0  0  0  0
 23 22  2  0  0  0  0
 24 23  1  0  0  0  0
 24 19  2  0  0  0  0
 27 23  1  0  0  0  0
 28 34  1  0  0  0  0
 29 35  1  0  0  0  0
 29 28  1  0  0  0  0
 30 29  2  0  0  0  0
 31 30  1  0  0  0  0
 31 32  2  0  0  0  0
 32 33  1  0  0  0  0
 33 28  2  0  0  0  0
 36 32  1  0  0  0  0
 37  9  1  0  0  0  0
 38 39  1  0  0  0  0
 39 40  1  0  0  0  0
 40 41  2  0  0  0  0
 40 37  1  0  0  0  0
 41 42  1  0  0  0  0
 43 44  1  0  0  0  0
 43 41  1  0  0  0  0
 45 43  2  0  0  0  0
 46 45  1  0  0  0  0
 47 45  1  0  0  0  0
 47 39  2  0  0  0  0
 48 47  1  0  0  0  0
M  END
>  <minimizedAffinity>
-7.08202648

>  <minimizedRMSD>
0.124516979

$$$$
