
 OpenBabel03272503053D

 34 36  0  0  0  0  0  0  0  0999 V2000
   38.3310   30.2100   47.1830 F   0  0  0  0  0  0  0  0  0  0  0  0
   38.7230   31.4550   47.5320 C   0  0  0  0  0  0  0  0  0  0  0  0
   38.3580   31.9650   48.7460 C   0  0  0  0  0  0  0  0  0  0  0  0
   38.7820   33.2310   49.0490 C   0  0  0  0  0  0  0  0  0  0  0  0
   39.5490   33.9900   48.1850 C   0  0  0  0  0  0  0  0  0  0  0  0
   39.9010   33.4510   46.9710 C   0  0  0  0  0  0  0  0  0  0  0  0
   39.4860   32.1680   46.6340 C   0  0  0  0  0  0  0  0  0  0  0  0
   38.5030   33.6500   50.0000 H   0  0  0  0  0  0  0  0  0  0  0  0
   39.8500   34.9850   48.4860 H   0  0  0  0  0  0  0  0  0  0  0  0
   40.5090   34.0310   46.2680 H   0  0  0  0  0  0  0  0  0  0  0  0
   37.2420   29.7820   51.6380 C   0  0  0  0  0  0  0  0  0  0  0  0
   38.0290   30.5830   50.8050 C   0  0  0  0  0  0  0  0  0  0  0  0
   37.5440   31.1250   49.6280 C   0  0  0  0  0  0  0  0  0  0  0  0
   36.2530   30.8360   49.3260 N   0  0  0  0  0  0  0  0  0  0  0  0
   35.4950   30.0650   50.1300 C   0  0  0  0  0  0  0  0  0  0  0  0
   35.9740   29.5510   51.2560 N   0  0  0  0  0  0  0  0  0  0  0  0
   37.7540   29.4180   52.5410 H   0  0  0  0  0  0  0  0  0  0  0  0
   39.0680   30.8240   51.0320 H   0  0  0  0  0  0  0  0  0  0  0  0
   34.4660   29.8370   49.8860 H   0  0  0  0  0  0  0  0  0  0  0  0
   38.8080   31.7030   44.3730 C   0  0  0  0  0  0  0  0  0  0  0  0
   37.7720   32.3310   44.7590 O   0  0  0  0  0  0  0  0  0  0  0  0
   39.8300   31.5670   45.3810 N   0  0  0  0  0  0  0  0  0  0  0  0
   40.6860   31.0670   45.1220 H   0  0  0  0  0  0  0  0  0  0  0  0
   39.1130   33.6790   42.1190 Cl  0  0  0  0  0  0  0  0  0  0  0  0
   39.1410   31.9330   41.9030 C   0  0  0  0  0  0  0  0  0  0  0  0
   38.9880   31.1530   43.0310 C   0  0  0  0  0  0  0  0  0  0  0  0
   39.0030   29.7610   42.9230 C   0  0  0  0  0  0  0  0  0  0  0  0
   38.8910   29.0530   43.7470 H   0  0  0  0  0  0  0  0  0  0  0  0
   39.1680   29.1980   41.6860 C   0  0  0  0  0  0  0  0  0  0  0  0
   39.1870   28.1060   41.5470 H   0  0  0  0  0  0  0  0  0  0  0  0
   39.3190   30.0050   40.5750 C   0  0  0  0  0  0  0  0  0  0  0  0
   39.4480   29.5230   39.6170 H   0  0  0  0  0  0  0  0  0  0  0  0
   39.3110   31.3910   40.6420 C   0  0  0  0  0  0  0  0  0  0  0  0
   39.5020   32.4070   39.2240 Cl  0  0  0  0  0  0  0  0  0  0  0  0
  1  2  1  0  0  0  0
  2  3  1  0  0  0  0
  3  4  2  0  0  0  0
  3 13  1  0  0  0  0
  4  8  1  0  0  0  0
  5  9  1  0  0  0  0
  5  4  1  0  0  0  0
  6  5  2  0  0  0  0
  7  6  1  0  0  0  0
  7  2  2  0  0  0  0
 10  6  1  0  0  0  0
 11 17  1  0  0  0  0
 12 18  1  0  0  0  0
 12 11  2  0  0  0  0
 13 12  1  0  0  0  0
 14 13  2  0  0  0  0
 14 15  1  0  0  0  0
 15 16  2  0  0  0  0
 16 11  1  0  0  0  0
 19 15  1  0  0  0  0
 20 21  2  0  0  0  0
 20 22  1  0  0  0  0
 22  7  1  0  0  0  0
 23 22  1  0  0  0  0
 25 24  1  0  0  0  0
 25 26  1  0  0  0  0
 26 20  1  0  0  0  0
 27 26  2  0  0  0  0
 27 28  1  0  0  0  0
 29 27  1  0  0  0  0
 30 29  1  0  0  0  0
 31 33  1  0  0  0  0
 31 29  2  0  0  0  0
 32 31  1  0  0  0  0
 33 25  2  0  0  0  0
 34 33  1  0  0  0  0
M  END
>  <minimizedAffinity>
-6.31712008

>  <minimizedRMSD>
1.32516146

$$$$
