
 OpenBabel03272503133D

 48 52  0  0  0  0  0  0  0  0999 V2000
   39.1870   32.2360   42.5740 C   0  0  0  0  0  0  0  0  0  0  0  0
   39.7060   31.5120   43.6380 C   0  0  0  0  0  0  0  0  0  0  0  0
   40.5790   30.4840   43.4760 C   0  0  0  0  0  0  0  0  0  0  0  0
   40.9850   30.1190   42.1890 C   0  0  0  0  0  0  0  0  0  0  0  0
   41.8160   29.1870   41.7330 N   0  0  0  0  0  0  0  0  0  0  0  0
   41.8540   29.2810   40.4180 C   0  0  0  0  0  0  0  0  0  0  0  0
   41.0450   30.2740   40.0430 N   0  0  0  0  0  0  0  0  0  0  0  0
   40.4730   30.8330   41.1410 C   0  0  0  0  0  0  0  0  0  0  0  0
   39.5740   31.8970   41.2590 C   0  0  0  0  0  0  0  0  0  0  0  0
   38.4930   33.0570   42.6840 H   0  0  0  0  0  0  0  0  0  0  0  0
   40.9890   29.9150   44.2880 H   0  0  0  0  0  0  0  0  0  0  0  0
   42.3710   28.4740   42.2920 H   0  0  0  0  0  0  0  0  0  0  0  0
   42.4150   28.6950   39.6840 H   0  0  0  0  0  0  0  0  0  0  0  0
   39.2660   31.9170   44.9530 C   0  0  0  0  0  0  0  0  0  0  0  0
   38.1750   32.5630   45.0780 O   0  0  0  0  0  0  0  0  0  0  0  0
   39.9490   31.6570   46.1650 N   0  0  0  0  0  0  0  0  0  0  0  0
   40.8420   31.1430   46.1210 H   0  0  0  0  0  0  0  0  0  0  0  0
   38.1150   30.1580   47.5010 F   0  0  0  0  0  0  0  0  0  0  0  0
   38.3730   31.3990   47.9960 C   0  0  0  0  0  0  0  0  0  0  0  0
   37.7200   31.8310   49.1090 C   0  0  0  0  0  0  0  0  0  0  0  0
   38.0270   33.0880   49.5560 C   0  0  0  0  0  0  0  0  0  0  0  0
   38.9360   33.8880   48.9330 C   0  0  0  0  0  0  0  0  0  0  0  0
   39.5870   33.4240   47.8000 C   0  0  0  0  0  0  0  0  0  0  0  0
   39.2920   32.1550   47.3320 C   0  0  0  0  0  0  0  0  0  0  0  0
   37.5160   33.4570   50.4480 H   0  0  0  0  0  0  0  0  0  0  0  0
   39.1740   34.8800   49.2900 H   0  0  0  0  0  0  0  0  0  0  0  0
   40.3120   34.0480   47.2960 H   0  0  0  0  0  0  0  0  0  0  0  0
   36.0800   29.3510   51.4550 C   0  0  0  0  0  0  0  0  0  0  0  0
   37.0440   30.2100   50.8710 C   0  0  0  0  0  0  0  0  0  0  0  0
   36.7510   30.9340   49.7390 C   0  0  0  0  0  0  0  0  0  0  0  0
   35.4870   30.7770   49.2130 N   0  0  0  0  0  0  0  0  0  0  0  0
   34.5780   29.9640   49.7670 C   0  0  0  0  0  0  0  0  0  0  0  0
   34.8700   29.2680   50.8620 N   0  0  0  0  0  0  0  0  0  0  0  0
   36.3160   28.7840   52.3460 H   0  0  0  0  0  0  0  0  0  0  0  0
   38.0310   30.3080   51.3160 H   0  0  0  0  0  0  0  0  0  0  0  0
   33.6430   29.9680   49.2170 H   0  0  0  0  0  0  0  0  0  0  0  0
   39.0670   32.6060   40.2260 O   0  0  0  0  0  0  0  0  0  0  0  0
   38.0980   30.6460   37.8020 Cl  0  0  0  0  0  0  0  0  0  0  0  0
   37.3530   32.1190   38.3540 C   0  0  0  0  0  0  0  0  0  0  0  0
   38.0650   32.6500   39.3890 C   0  0  0  0  0  0  0  0  0  0  0  0
   37.4500   33.8680   39.8070 C   0  0  0  0  0  0  0  0  0  0  0  0
   37.6850   34.6180   40.5970 H   0  0  0  0  0  0  0  0  0  0  0  0
   36.3000   34.4250   39.2430 C   0  0  0  0  0  0  0  0  0  0  0  0
   35.7320   35.3350   39.4620 H   0  0  0  0  0  0  0  0  0  0  0  0
   35.6860   33.7590   38.1890 C   0  0  0  0  0  0  0  0  0  0  0  0
   34.7980   34.0660   37.6590 H   0  0  0  0  0  0  0  0  0  0  0  0
   36.2240   32.5940   37.7450 C   0  0  0  0  0  0  0  0  0  0  0  0
   35.5710   31.6560   36.4430 Cl  0  0  0  0  0  0  0  0  0  0  0  0
  1 10  1  0  0  0  0
  1  2  1  0  0  0  0
  2 14  1  0  0  0  0
  3  2  2  0  0  0  0
  3 11  1  0  0  0  0
  4  3  1  0  0  0  0
  5  4  1  0  0  0  0
  5 12  1  0  0  0  0
  6  5  1  0  0  0  0
  7  6  2  0  0  0  0
  7  8  1  0  0  0  0
  8  9  1  0  0  0  0
  8  4  2  0  0  0  0
  9  1  2  0  0  0  0
 13  6  1  0  0  0  0
 14 15  2  0  0  0  0
 14 16  1  0  0  0  0
 16 24  1  0  0  0  0
 17 16  1  0  0  0  0
 18 19  1  0  0  0  0
 19 20  1  0  0  0  0
 20 21  2  0  0  0  0
 20 30  1  0  0  0  0
 21 25  1  0  0  0  0
 22 26  1  0  0  0  0
 22 21  1  0  0  0  0
 23 22  2  0  0  0  0
 24 23  1  0  0  0  0
 24 19  2  0  0  0  0
 27 23  1  0  0  0  0
 28 34  1  0  0  0  0
 29 35  1  0  0  0  0
 29 28  1  0  0  0  0
 30 29  2  0  0  0  0
 31 30  1  0  0  0  0
 31 32  2  0  0  0  0
 32 33  1  0  0  0  0
 33 28  2  0  0  0  0
 36 32  1  0  0  0  0
 37  9  1  0  0  0  0
 38 39  1  0  0  0  0
 39 40  1  0  0  0  0
 40 41  2  0  0  0  0
 40 37  1  0  0  0  0
 41 42  1  0  0  0  0
 43 44  1  0  0  0  0
 43 41  1  0  0  0  0
 45 43  2  0  0  0  0
 46 45  1  0  0  0  0
 47 45  1  0  0  0  0
 47 39  2  0  0  0  0
 48 47  1  0  0  0  0
M  END
>  <minimizedAffinity>
-7.24663782

>  <minimizedRMSD>
0.613853335

$$$$
