
 OpenBabel03272502593D

 36 38  0  0  1  0  0  0  0  0999 V2000
   35.7670   29.6770   48.7150 N   0  0  0  0  0  0  0  0  0  0  0  0
   36.6710   28.9150   49.5450 C   0  0  0  0  0  0  0  0  0  0  0  0
   37.2350   29.5730   50.7280 C   0  0  0  0  0  0  0  0  0  0  0  0
   37.3570   31.0430   50.7250 C   0  0  0  0  0  0  0  0  0  0  0  0
   36.4400   31.7350   49.7640 C   0  0  0  0  0  0  0  0  0  0  0  0
   36.3860   30.9650   48.4390 C   0  0  1  0  0  0  0  0  0  0  0  0
   37.4960   28.5860   48.8690 H   0  0  0  0  0  0  0  0  0  0  0  0
   36.1230   27.9740   49.7980 H   0  0  0  0  0  0  0  0  0  0  0  0
   38.2550   29.1420   50.9180 H   0  0  0  0  0  0  0  0  0  0  0  0
   36.6400   29.2470   51.6250 H   0  0  0  0  0  0  0  0  0  0  0  0
   37.0960   31.4590   51.7420 H   0  0  0  0  0  0  0  0  0  0  0  0
   38.4000   31.4160   50.5320 H   0  0  0  0  0  0  0  0  0  0  0  0
   36.7590   32.7770   49.5800 H   0  0  0  0  0  0  0  0  0  0  0  0
   35.3940   31.7950   50.1130 H   0  0  0  0  0  0  0  0  0  0  0  0
   35.8240   31.5530   47.7100 H   0  0  0  0  0  0  0  0  0  0  0  0
   34.4940   29.2310   48.2540 C   0  0  0  0  0  0  0  0  0  0  0  0
   33.8910   29.6590   47.0730 C   0  0  0  0  0  0  0  0  0  0  0  0
   32.6490   29.1490   46.7390 C   0  0  0  0  0  0  0  0  0  0  0  0
   32.0790   28.2520   47.5830 N   0  0  0  0  0  0  0  0  0  0  0  0
   32.6860   27.8640   48.7080 C   0  0  0  0  0  0  0  0  0  0  0  0
   33.8980   28.3550   49.0460 N   0  0  0  0  0  0  0  0  0  0  0  0
   34.4210   30.3760   46.4640 H   0  0  0  0  0  0  0  0  0  0  0  0
   32.1710   29.4740   45.8240 H   0  0  0  0  0  0  0  0  0  0  0  0
   32.1890   27.1360   49.3630 H   0  0  0  0  0  0  0  0  0  0  0  0
   37.7170   30.8080   48.0630 O   0  0  0  0  0  0  0  0  0  0  0  0
   36.9700   30.3630   45.2920 Cl  0  0  0  0  0  0  0  0  0  0  0  0
   38.1200   31.5330   45.9390 C   0  0  0  0  0  0  0  0  0  0  0  0
   38.4280   31.6900   47.2810 C   0  0  0  0  0  0  0  0  0  0  0  0
   39.3490   32.6500   47.6220 C   0  0  0  0  0  0  0  0  0  0  0  0
   39.5400   32.7170   48.6800 H   0  0  0  0  0  0  0  0  0  0  0  0
   39.9450   33.4310   46.6610 C   0  0  0  0  0  0  0  0  0  0  0  0
   40.6580   34.1670   46.9750 H   0  0  0  0  0  0  0  0  0  0  0  0
   39.6520   33.2900   45.3220 C   0  0  0  0  0  0  0  0  0  0  0  0
   40.1230   33.9040   44.5730 H   0  0  0  0  0  0  0  0  0  0  0  0
   38.7160   32.3160   44.9570 C   0  0  0  0  0  0  0  0  0  0  0  0
   38.3740   32.1710   43.2460 Cl  0  0  0  0  0  0  0  0  0  0  0  0
  1  2  1  0  0  0  0
  2  8  1  0  0  0  0
  2  3  1  0  0  0  0
  3  9  1  0  0  0  0
  3 10  1  0  0  0  0
  4  3  1  0  0  0  0
  4 11  1  0  0  0  0
  5 14  1  0  0  0  0
  5  4  1  0  0  0  0
  6 15  1  6  0  0  0
  6  1  1  0  0  0  0
  6  5  1  0  0  0  0
  7  2  1  0  0  0  0
 12  4  1  0  0  0  0
 13  5  1  0  0  0  0
 16  1  1  0  0  0  0
 16 21  1  0  0  0  0
 17 16  2  0  0  0  0
 18 17  1  0  0  0  0
 18 19  2  0  0  0  0
 19 20  1  0  0  0  0
 20 21  2  0  0  0  0
 20 24  1  0  0  0  0
 22 17  1  0  0  0  0
 23 18  1  0  0  0  0
 25  6  1  0  0  0  0
 26 27  1  0  0  0  0
 27 28  1  0  0  0  0
 28 29  2  0  0  0  0
 28 25  1  0  0  0  0
 29 30  1  0  0  0  0
 31 32  1  0  0  0  0
 31 29  1  0  0  0  0
 33 31  2  0  0  0  0
 34 33  1  0  0  0  0
 35 33  1  0  0  0  0
 35 27  2  0  0  0  0
 36 35  1  0  0  0  0
M  END
>  <minimizedAffinity>
-5.8130188

>  <minimizedRMSD>
1.18212199

$$$$
