
 OpenBabel03272500513D

 47 52  0  0  1  0  0  0  0  0999 V2000
   30.5070   28.8430   46.4720 C   0  0  0  0  0  0  0  0  0  0  0  0
   31.1020   27.8240   45.7370 C   0  0  0  0  0  0  0  0  0  0  0  0
   32.3970   27.7300   46.1460 N   0  0  0  0  0  0  0  0  0  0  0  0
   32.6190   28.6700   47.1180 C   0  0  0  0  0  0  0  0  0  0  0  0
   31.4690   29.3310   47.3000 N   0  0  0  0  0  0  0  0  0  0  0  0
   30.6680   27.1910   44.9750 H   0  0  0  0  0  0  0  0  0  0  0  0
   33.1690   27.0990   45.8460 H   0  0  0  0  0  0  0  0  0  0  0  0
   28.2290   29.3800   47.5080 C   0  0  1  0  0  0  0  0  0  0  0  0
   27.9890   28.2730   46.4150 C   0  0  0  0  0  0  0  0  0  0  0  0
   29.0830   29.2930   46.3250 C   0  0  2  0  0  0  0  0  0  0  0  0
   28.5990   28.9540   48.4630 H   0  0  0  0  0  0  0  0  0  0  0  0
   27.1170   28.4470   45.7690 H   0  0  0  0  0  0  0  0  0  0  0  0
   28.3240   27.2590   46.6630 H   0  0  0  0  0  0  0  0  0  0  0  0
   28.9690   30.0650   45.5380 H   0  0  0  0  0  0  0  0  0  0  0  0
   26.0920   32.2540   47.1810 C   0  0  0  0  0  0  0  0  0  0  0  0
   25.5150   31.6400   48.2680 C   0  0  0  0  0  0  0  0  0  0  0  0
   26.2460   30.4610   48.5460 C   0  0  0  0  0  0  0  0  0  0  0  0
   27.2250   30.4130   47.6240 N   0  0  0  0  0  0  0  0  0  0  0  0
   27.1020   31.4670   46.8550 N   0  0  0  0  0  0  0  0  0  0  0  0
   24.6520   31.8960   48.9010 H   0  0  0  0  0  0  0  0  0  0  0  0
   26.0460   29.7550   49.3390 H   0  0  0  0  0  0  0  0  0  0  0  0
   25.4460   34.6710   47.4060 C   0  0  0  0  0  0  0  0  0  0  0  0
   25.6130   33.4870   46.6120 C   0  0  0  0  0  0  0  0  0  0  0  0
   25.2980   33.5740   45.2820 C   0  0  0  0  0  0  0  0  0  0  0  0
   24.8470   34.7560   44.7740 N   0  0  0  0  0  0  0  0  0  0  0  0
   24.7030   35.8530   45.5630 C   0  0  0  0  0  0  0  0  0  0  0  0
   25.0000   35.8210   46.8810 N   0  0  0  0  0  0  0  0  0  0  0  0
   25.7170   34.5110   48.4400 H   0  0  0  0  0  0  0  0  0  0  0  0
   25.3840   32.7570   44.5960 H   0  0  0  0  0  0  0  0  0  0  0  0
   24.3520   36.8040   45.2100 H   0  0  0  0  0  0  0  0  0  0  0  0
   33.9060   28.9040   47.8210 C   0  0  0  0  0  0  0  0  0  0  0  0
   34.1890   28.2380   49.0320 C   0  0  0  0  0  0  0  0  0  0  0  0
   35.8570   28.8670   49.4610 S   0  0  0  0  0  0  0  0  0  0  0  0
   35.8780   29.9330   47.9060 C   0  0  0  0  0  0  0  0  0  0  0  0
   34.8730   29.6980   47.4340 N   0  0  0  0  0  0  0  0  0  0  0  0
   33.5330   27.5300   49.5420 H   0  0  0  0  0  0  0  0  0  0  0  0
   36.5110   31.7920   50.0550 Cl  0  0  0  0  0  0  0  0  0  0  0  0
   37.4000   31.7160   48.5650 C   0  0  0  0  0  0  0  0  0  0  0  0
   37.0620   30.8140   47.5700 C   0  0  0  0  0  0  0  0  0  0  0  0
   37.6890   30.6690   46.3660 C   0  0  0  0  0  0  0  0  0  0  0  0
   37.3760   29.9440   45.6280 H   0  0  0  0  0  0  0  0  0  0  0  0
   38.7570   31.5160   46.1480 C   0  0  0  0  0  0  0  0  0  0  0  0
   39.3290   31.4860   45.2220 H   0  0  0  0  0  0  0  0  0  0  0  0
   39.1920   32.4670   47.0770 C   0  0  0  0  0  0  0  0  0  0  0  0
   40.0330   33.1120   46.8690 H   0  0  0  0  0  0  0  0  0  0  0  0
   38.4780   32.5170   48.2560 C   0  0  0  0  0  0  0  0  0  0  0  0
   38.9270   33.6720   49.5070 Cl  0  0  0  0  0  0  0  0  0  0  0  0
  1  5  1  0  0  0  0
  2  3  1  0  0  0  0
  2  1  2  0  0  0  0
  3  4  1  0  0  0  0
  4  5  2  0  0  0  0
  4 31  1  0  0  0  0
  6  2  1  0  0  0  0
  7  3  1  0  0  0  0
  8 18  1  0  0  0  0
  8 11  1  1  0  0  0
  9 13  1  0  0  0  0
  9  8  1  0  0  0  0
 10 14  1  6  0  0  0
 10  9  1  0  0  0  0
 10  1  1  0  0  0  0
 10  8  1  0  0  0  0
 12  9  1  0  0  0  0
 15 16  1  0  0  0  0
 16 17  2  0  0  0  0
 16 20  1  0  0  0  0
 17 21  1  0  0  0  0
 18 17  1  0  0  0  0
 19 15  2  0  0  0  0
 19 18  1  0  0  0  0
 22 28  1  0  0  0  0
 23 15  1  0  0  0  0
 23 22  2  0  0  0  0
 24 23  1  0  0  0  0
 25 24  2  0  0  0  0
 25 26  1  0  0  0  0
 26 27  2  0  0  0  0
 27 22  1  0  0  0  0
 29 24  1  0  0  0  0
 30 26  1  0  0  0  0
 31 32  2  0  0  0  0
 32 33  1  0  0  0  0
 32 36  1  0  0  0  0
 34 33  1  0  0  0  0
 35 31  1  0  0  0  0
 35 34  2  0  0  0  0
 38 37  1  0  0  0  0
 39 34  1  0  0  0  0
 39 38  2  0  0  0  0
 40 39  1  0  0  0  0
 41 40  1  0  0  0  0
 42 40  2  0  0  0  0
 42 44  1  0  0  0  0
 43 42  1  0  0  0  0
 44 46  2  0  0  0  0
 45 44  1  0  0  0  0
 46 38  1  0  0  0  0
 46 47  1  0  0  0  0
M  END
>  <minimizedAffinity>
-7.9451499

>  <minimizedRMSD>
4.59667397

$$$$
