
 OpenBabel03272502563D

 44 47  0  0  0  0  0  0  0  0999 V2000
   35.8450   30.0970   48.7030 C   0  0  0  0  0  0  0  0  0  0  0  0
   35.8880   29.1650   49.7460 C   0  0  0  0  0  0  0  0  0  0  0  0
   34.9100   28.1970   49.8670 C   0  0  0  0  0  0  0  0  0  0  0  0
   33.9090   28.2180   48.9020 C   0  0  0  0  0  0  0  0  0  0  0  0
   33.8580   29.1310   47.8740 C   0  0  0  0  0  0  0  0  0  0  0  0
   34.8450   30.0540   47.8090 N   0  0  0  0  0  0  0  0  0  0  0  0
   32.7980   29.0560   46.9560 N   0  0  0  0  0  0  0  0  0  0  0  0
   31.6430   28.2570   47.3010 C   0  0  0  0  0  0  0  0  0  0  0  0
   30.7440   28.2440   46.0700 C   0  0  0  0  0  0  0  0  0  0  0  0
   30.3270   29.6800   45.7590 C   0  0  0  0  0  0  0  0  0  0  0  0
   31.5200   30.5630   45.5880 C   0  0  0  0  0  0  0  0  0  0  0  0
   32.7920   29.7350   45.6760 C   0  0  0  0  0  0  0  0  0  0  0  0
   36.6880   29.1820   50.4810 H   0  0  0  0  0  0  0  0  0  0  0  0
   34.9410   27.4820   50.6650 H   0  0  0  0  0  0  0  0  0  0  0  0
   33.1630   27.4490   49.0270 H   0  0  0  0  0  0  0  0  0  0  0  0
   31.9030   27.1720   47.4540 H   0  0  0  0  0  0  0  0  0  0  0  0
   31.1420   28.7180   48.1610 H   0  0  0  0  0  0  0  0  0  0  0  0
   29.8450   27.6340   46.2430 H   0  0  0  0  0  0  0  0  0  0  0  0
   31.3540   27.8660   45.2300 H   0  0  0  0  0  0  0  0  0  0  0  0
   29.7920   30.0310   46.6740 H   0  0  0  0  0  0  0  0  0  0  0  0
   29.5980   29.6970   44.9410 H   0  0  0  0  0  0  0  0  0  0  0  0
   31.4910   31.1040   44.6200 H   0  0  0  0  0  0  0  0  0  0  0  0
   31.6090   31.3570   46.3670 H   0  0  0  0  0  0  0  0  0  0  0  0
   33.6370   30.4720   45.6950 H   0  0  0  0  0  0  0  0  0  0  0  0
   32.9550   29.0860   44.8130 H   0  0  0  0  0  0  0  0  0  0  0  0
   38.3870   32.5800   49.5590 C   0  0  0  0  0  0  0  0  0  0  0  0
   38.9080   32.9290   48.3160 C   0  0  0  0  0  0  0  0  0  0  0  0
   38.3900   32.3270   47.2010 C   0  0  0  0  0  0  0  0  0  0  0  0
   37.3980   31.4280   47.4280 N   0  0  0  0  0  0  0  0  0  0  0  0
   36.8960   31.0870   48.6160 C   0  0  0  0  0  0  0  0  0  0  0  0
   37.4040   31.6770   49.6740 N   0  0  0  0  0  0  0  0  0  0  0  0
   38.8170   33.0770   50.4340 H   0  0  0  0  0  0  0  0  0  0  0  0
   39.6890   33.6300   48.2080 H   0  0  0  0  0  0  0  0  0  0  0  0
   36.7880   30.8810   44.9380 Cl  0  0  0  0  0  0  0  0  0  0  0  0
   38.1510   31.9330   44.7060 C   0  0  0  0  0  0  0  0  0  0  0  0
   38.7420   32.4840   45.8080 C   0  0  0  0  0  0  0  0  0  0  0  0
   39.8160   33.2730   45.4710 C   0  0  0  0  0  0  0  0  0  0  0  0
   40.4250   33.8050   46.2140 H   0  0  0  0  0  0  0  0  0  0  0  0
   40.2480   33.4850   44.1820 C   0  0  0  0  0  0  0  0  0  0  0  0
   41.0980   34.1130   43.9600 H   0  0  0  0  0  0  0  0  0  0  0  0
   39.6060   32.8990   43.1170 C   0  0  0  0  0  0  0  0  0  0  0  0
   39.9620   33.0800   42.1150 H   0  0  0  0  0  0  0  0  0  0  0  0
   38.5220   32.0970   43.3950 C   0  0  0  0  0  0  0  0  0  0  0  0
   37.7020   31.3510   42.0680 Cl  0  0  0  0  0  0  0  0  0  0  0  0
  1  2  1  0  0  0  0
  2  3  2  0  0  0  0
  2 13  1  0  0  0  0
  3 14  1  0  0  0  0
  4 15  1  0  0  0  0
  4  3  1  0  0  0  0
  5  4  2  0  0  0  0
  6  5  1  0  0  0  0
  6  1  2  0  0  0  0
  7  8  1  0  0  0  0
  7  5  1  0  0  0  0
  8 16  1  0  0  0  0
  8 17  1  0  0  0  0
  9 18  1  0  0  0  0
  9  8  1  0  0  0  0
 10  9  1  0  0  0  0
 10 20  1  0  0  0  0
 11 12  1  0  0  0  0
 11 10  1  0  0  0  0
 11 23  1  0  0  0  0
 12 24  1  0  0  0  0
 12  7  1  0  0  0  0
 19  9  1  0  0  0  0
 21 10  1  0  0  0  0
 22 11  1  0  0  0  0
 25 12  1  0  0  0  0
 26 31  1  0  0  0  0
 26 32  1  0  0  0  0
 27 26  2  0  0  0  0
 28 29  2  0  0  0  0
 28 27  1  0  0  0  0
 29 30  1  0  0  0  0
 30  1  1  0  0  0  0
 30 31  2  0  0  0  0
 33 27  1  0  0  0  0
 35 34  1  0  0  0  0
 35 36  1  0  0  0  0
 36 28  1  0  0  0  0
 37 36  2  0  0  0  0
 37 38  1  0  0  0  0
 39 37  1  0  0  0  0
 40 39  1  0  0  0  0
 41 43  1  0  0  0  0
 41 39  2  0  0  0  0
 42 41  1  0  0  0  0
 43 35  2  0  0  0  0
 44 43  1  0  0  0  0
M  END
>  <minimizedAffinity>
-7.24385643

>  <minimizedRMSD>
1.22683144

$$$$
