
 OpenBabel03272502073D

 41 44  0  0  0  0  0  0  0  0999 V2000
   34.4560   30.4050   47.5060 F   0  0  0  0  0  0  0  0  0  0  0  0
   34.8500   29.9460   46.2750 C   0  0  0  0  0  0  0  0  0  0  0  0
   33.9720   29.2910   45.4180 C   0  0  0  0  0  0  0  0  0  0  0  0
   34.4270   28.8760   44.1900 C   0  0  0  0  0  0  0  0  0  0  0  0
   35.7530   29.1090   43.8030 C   0  0  0  0  0  0  0  0  0  0  0  0
   36.5710   29.7640   44.7010 C   0  0  0  0  0  0  0  0  0  0  0  0
   36.1700   30.1870   45.9120 C   0  0  0  0  0  0  0  0  0  0  0  0
   33.7050   28.3760   43.5730 H   0  0  0  0  0  0  0  0  0  0  0  0
   36.0700   28.7710   42.8360 H   0  0  0  0  0  0  0  0  0  0  0  0
   37.5780   29.9030   44.3250 H   0  0  0  0  0  0  0  0  0  0  0  0
   37.9990   32.4370   44.7270 Br  0  0  0  0  0  0  0  0  0  0  0  0
   37.9590   31.8810   46.5430 C   0  0  0  0  0  0  0  0  0  0  0  0
   37.0910   30.8550   46.8080 C   0  0  0  0  0  0  0  0  0  0  0  0
   37.0390   30.3660   48.1230 C   0  0  0  0  0  0  0  0  0  0  0  0
   37.8260   30.8970   49.1010 C   0  0  0  0  0  0  0  0  0  0  0  0
   38.6690   31.9230   48.7650 C   0  0  0  0  0  0  0  0  0  0  0  0
   38.7530   32.4380   47.4720 C   0  0  0  0  0  0  0  0  0  0  0  0
   36.3850   29.5570   48.4300 H   0  0  0  0  0  0  0  0  0  0  0  0
   37.8180   30.5500   50.1280 H   0  0  0  0  0  0  0  0  0  0  0  0
   39.3210   32.3860   49.5120 H   0  0  0  0  0  0  0  0  0  0  0  0
   39.5650   33.4600   47.0590 O   0  0  0  0  0  0  0  0  0  0  0  0
   39.5660   34.3290   47.6050 H   0  0  0  0  0  0  0  0  0  0  0  0
   32.3820   27.9530   46.6350 C   0  0  0  0  0  0  0  0  0  0  0  0
   32.6380   29.1160   45.9290 C   0  0  0  0  0  0  0  0  0  0  0  0
   31.6040   30.0500   45.7810 C   0  0  0  0  0  0  0  0  0  0  0  0
   30.3860   29.8050   46.3260 N   0  0  0  0  0  0  0  0  0  0  0  0
   30.1850   28.6590   47.0090 C   0  0  0  0  0  0  0  0  0  0  0  0
   31.1380   27.7590   47.1640 N   0  0  0  0  0  0  0  0  0  0  0  0
   33.0660   27.1410   46.8360 H   0  0  0  0  0  0  0  0  0  0  0  0
   31.8350   30.9510   45.2190 H   0  0  0  0  0  0  0  0  0  0  0  0
   30.0740   28.0940   50.0020 Cl  0  0  0  0  0  0  0  0  0  0  0  0
   28.6770   28.1490   48.9320 C   0  0  0  0  0  0  0  0  0  0  0  0
   28.8660   28.4160   47.5910 C   0  0  0  0  0  0  0  0  0  0  0  0
   27.7210   28.4430   46.8100 C   0  0  0  0  0  0  0  0  0  0  0  0
   27.8770   28.6540   45.7600 H   0  0  0  0  0  0  0  0  0  0  0  0
   26.4370   28.2230   47.2920 C   0  0  0  0  0  0  0  0  0  0  0  0
   25.5840   28.2530   46.6550 H   0  0  0  0  0  0  0  0  0  0  0  0
   26.3750   27.9660   48.6450 C   0  0  0  0  0  0  0  0  0  0  0  0
   25.3640   27.7890   49.0450 H   0  0  0  0  0  0  0  0  0  0  0  0
   27.4470   27.9160   49.5130 C   0  0  0  0  0  0  0  0  0  0  0  0
   27.2450   27.5800   51.2200 Cl  0  0  0  0  0  0  0  0  0  0  0  0
  2  1  1  0  0  0  0
  3 24  1  0  0  0  0
  3  2  2  0  0  0  0
  4  3  1  0  0  0  0
  5  4  2  0  0  0  0
  5  6  1  0  0  0  0
  6  7  2  0  0  0  0
  7  2  1  0  0  0  0
  7 13  1  0  0  0  0
  8  4  1  0  0  0  0
  9  5  1  0  0  0  0
 10  6  1  0  0  0  0
 11 12  1  0  0  0  0
 12 13  2  0  0  0  0
 12 17  1  0  0  0  0
 13 14  1  0  0  0  0
 14 18  1  0  0  0  0
 14 15  2  0  0  0  0
 15 19  1  0  0  0  0
 16 15  1  0  0  0  0
 16 20  1  0  0  0  0
 17 16  2  0  0  0  0
 21 17  1  0  0  0  0
 21 22  1  0  0  0  0
 23 29  1  0  0  0  0
 23 28  1  0  0  0  0
 24 23  2  0  0  0  0
 25 24  1  0  0  0  0
 25 26  2  0  0  0  0
 26 27  1  0  0  0  0
 27 28  2  0  0  0  0
 27 33  1  0  0  0  0
 30 25  1  0  0  0  0
 32 40  1  0  0  0  0
 32 31  1  0  0  0  0
 33 32  2  0  0  0  0
 34 36  2  0  0  0  0
 34 33  1  0  0  0  0
 35 34  1  0  0  0  0
 36 38  1  0  0  0  0
 37 36  1  0  0  0  0
 38 39  1  0  0  0  0
 38 40  2  0  0  0  0
 40 41  1  0  0  0  0
M  END
>  <minimizedAffinity>
-7.5104022

>  <minimizedRMSD>
0.957722843

$$$$
