
 OpenBabel03272504573D

 35 37  0  0  1  0  0  0  0  0999 V2000
   36.7310   29.3100   49.7680 C   0  0  1  0  0  0  0  0  0  0  0  0
   36.0700   29.3870   51.0480 C   0  0  0  0  0  0  0  0  0  0  0  0
   35.2650   29.2770   49.7930 C   0  0  2  0  0  0  0  0  0  0  0  0
   37.2080   28.3450   49.3780 H   0  0  0  0  0  0  0  0  0  0  0  0
   36.4970   28.6360   51.6810 H   0  0  0  0  0  0  0  0  0  0  0  0
   36.0600   30.3830   51.5380 H   0  0  0  0  0  0  0  0  0  0  0  0
   34.5350   30.0700   49.7490 H   0  0  0  0  0  0  0  0  0  0  0  0
   37.3690   30.5280   49.1600 C   0  0  0  0  0  0  0  0  0  0  0  0
   38.0470   31.3770   50.0590 C   0  0  0  0  0  0  0  0  0  0  0  0
   38.6250   32.4830   49.4840 C   0  0  0  0  0  0  0  0  0  0  0  0
   38.5220   32.6970   48.1540 N   0  0  0  0  0  0  0  0  0  0  0  0
   37.8590   31.8520   47.3170 C   0  0  0  0  0  0  0  0  0  0  0  0
   37.2660   30.7350   47.8470 N   0  0  0  0  0  0  0  0  0  0  0  0
   37.7600   32.0380   45.9330 N   0  0  0  0  0  0  0  0  0  0  0  0
   38.1340   31.2190   51.1090 H   0  0  0  0  0  0  0  0  0  0  0  0
   39.1710   33.2140   50.0470 H   0  0  0  0  0  0  0  0  0  0  0  0
   38.4600   31.5840   45.3000 H   0  0  0  0  0  0  0  0  0  0  0  0
   37.0150   32.6140   45.4730 H   0  0  0  0  0  0  0  0  0  0  0  0
   34.6990   28.0180   49.5560 O   0  0  0  0  0  0  0  0  0  0  0  0
   33.3650   26.8320   47.6960 O   0  0  0  0  0  0  0  0  0  0  0  0
   33.4790   28.1340   48.4250 P   0  0  1  0  0  0  0  0  0  0  0  0
   31.9550   28.2230   49.2680 O   0  0  0  0  0  0  0  0  0  0  0  0
   31.3230   28.6410   48.6350 H   0  0  0  0  0  0  0  0  0  0  0  0
   33.6780   29.4750   47.4990 O   0  0  0  0  0  0  0  0  0  0  0  0
   31.0690   29.9800   46.0520 Cl  0  0  0  0  0  0  0  0  0  0  0  0
   32.6440   30.0080   45.3450 C   0  0  0  0  0  0  0  0  0  0  0  0
   33.7020   29.7490   46.1920 C   0  0  0  0  0  0  0  0  0  0  0  0
   34.9850   29.7720   45.6190 C   0  0  0  0  0  0  0  0  0  0  0  0
   35.8980   29.5850   46.1750 H   0  0  0  0  0  0  0  0  0  0  0  0
   35.1170   30.0500   44.2550 C   0  0  0  0  0  0  0  0  0  0  0  0
   36.1040   30.0700   43.8010 H   0  0  0  0  0  0  0  0  0  0  0  0
   34.0380   30.3010   43.4580 C   0  0  0  0  0  0  0  0  0  0  0  0
   34.1600   30.5090   42.4200 H   0  0  0  0  0  0  0  0  0  0  0  0
   32.7830   30.2820   43.9990 C   0  0  0  0  0  0  0  0  0  0  0  0
   31.3650   30.5900   43.0570 Cl  0  0  0  0  0  0  0  0  0  0  0  0
  1  4  1  6  0  0  0
  1  3  1  0  0  0  0
  1  2  1  0  0  0  0
  2  6  1  0  0  0  0
  2  5  1  0  0  0  0
  3  7  1  6  0  0  0
  3  2  1  0  0  0  0
  8  1  1  0  0  0  0
  8  9  1  0  0  0  0
  9 15  1  0  0  0  0
 10 16  1  0  0  0  0
 10  9  2  0  0  0  0
 11 10  1  0  0  0  0
 12 13  1  0  0  0  0
 12 11  2  0  0  0  0
 13  8  2  0  0  0  0
 14 12  1  0  0  0  0
 17 14  1  0  0  0  0
 18 14  1  0  0  0  0
 19  3  1  0  0  0  0
 21 20  2  6  0  0  0
 21 22  1  0  0  0  0
 21 19  1  0  0  0  0
 23 22  1  0  0  0  0
 24 21  1  0  0  0  0
 26 25  1  0  0  0  0
 26 27  1  0  0  0  0
 27 24  1  0  0  0  0
 28 29  1  0  0  0  0
 28 27  2  0  0  0  0
 30 28  1  0  0  0  0
 31 30  1  0  0  0  0
 32 34  1  0  0  0  0
 32 30  2  0  0  0  0
 33 32  1  0  0  0  0
 34 26  2  0  0  0  0
 35 34  1  0  0  0  0
M  END
>  <minimizedAffinity>
-5.65296984

>  <minimizedRMSD>
3.31129289

$$$$
