
 OpenBabel03272508543D

 40 43  0  0  1  0  0  0  0  0999 V2000
   38.3670   31.8730   44.4610 C   0  0  0  0  0  0  0  0  0  0  0  0
   37.2590   32.4730   44.3700 O   0  0  0  0  0  0  0  0  0  0  0  0
   38.9280   31.5720   45.7480 N   0  0  0  0  0  0  0  0  0  0  0  0
   39.8980   31.2590   45.8840 H   0  0  0  0  0  0  0  0  0  0  0  0
   39.1190   31.4630   43.2570 C   0  0  0  0  0  0  0  0  0  0  0  0
   40.2380   30.6920   43.4140 C   0  0  0  0  0  0  0  0  0  0  0  0
   40.9170   30.3250   42.2640 C   0  0  0  0  0  0  0  0  0  0  0  0
   40.4450   30.7430   41.0590 C   0  0  0  0  0  0  0  0  0  0  0  0
   39.3140   31.5220   40.8900 C   0  0  0  0  0  0  0  0  0  0  0  0
   38.7000   31.8460   42.0350 N   0  0  0  0  0  0  0  0  0  0  0  0
   40.6280   30.3510   44.3630 H   0  0  0  0  0  0  0  0  0  0  0  0
   41.8250   29.7040   42.3240 H   0  0  0  0  0  0  0  0  0  0  0  0
   41.0060   30.4320   40.1880 H   0  0  0  0  0  0  0  0  0  0  0  0
   37.4030   29.6520   39.6800 Cl  0  0  0  0  0  0  0  0  0  0  0  0
   37.9190   31.1700   38.9370 C   0  0  0  0  0  0  0  0  0  0  0  0
   38.8180   31.9630   39.6000 C   0  0  0  0  0  0  0  0  0  0  0  0
   39.1930   33.1220   39.0010 C   0  0  0  0  0  0  0  0  0  0  0  0
   39.8950   33.7850   39.4710 H   0  0  0  0  0  0  0  0  0  0  0  0
   38.6890   33.5000   37.7630 C   0  0  0  0  0  0  0  0  0  0  0  0
   38.9740   34.4300   37.2570 H   0  0  0  0  0  0  0  0  0  0  0  0
   37.7860   32.6610   37.1440 C   0  0  0  0  0  0  0  0  0  0  0  0
   37.3560   32.9030   36.1750 H   0  0  0  0  0  0  0  0  0  0  0  0
   37.3720   31.4720   37.7090 C   0  0  0  0  0  0  0  0  0  0  0  0
   36.2200   30.3810   36.9430 Cl  0  0  0  0  0  0  0  0  0  0  0  0
   38.4360   31.0750   48.1390 C   0  0  2  0  0  0  0  0  0  0  0  0
   38.7410   32.5130   48.0610 C   0  0  0  0  0  0  0  0  0  0  0  0
   38.0690   31.7240   46.9060 C   0  0  1  0  0  0  0  0  0  0  0  0
   39.3440   30.4370   48.2030 H   0  0  0  0  0  0  0  0  0  0  0  0
   38.0990   33.2460   48.5910 H   0  0  0  0  0  0  0  0  0  0  0  0
   39.7660   32.8490   47.9150 H   0  0  0  0  0  0  0  0  0  0  0  0
   37.0170   32.0270   46.7200 H   0  0  0  0  0  0  0  0  0  0  0  0
   35.0950   30.2300   49.4860 C   0  0  0  0  0  0  0  0  0  0  0  0
   35.4140   29.5540   50.6950 C   0  0  0  0  0  0  0  0  0  0  0  0
   36.8030   29.4100   51.0260 C   0  0  0  0  0  0  0  0  0  0  0  0
   37.7510   29.9160   50.1840 N   0  0  0  0  0  0  0  0  0  0  0  0
   37.3570   30.5540   49.0380 C   0  0  0  0  0  0  0  0  0  0  0  0
   36.0410   30.7290   48.6580 N   0  0  0  0  0  0  0  0  0  0  0  0
   34.0700   30.3650   49.1930 H   0  0  0  0  0  0  0  0  0  0  0  0
   34.6390   29.1740   51.3240 H   0  0  0  0  0  0  0  0  0  0  0  0
   37.0610   28.8990   51.9420 H   0  0  0  0  0  0  0  0  0  0  0  0
  1  3  1  0  0  0  0
  2  1  2  0  0  0  0
  3  4  1  0  0  0  0
  3 27  1  0  0  0  0
  5  6  1  0  0  0  0
  5  1  1  0  0  0  0
  6 11  1  0  0  0  0
  7 12  1  0  0  0  0
  7  6  2  0  0  0  0
  8  7  1  0  0  0  0
  9  8  2  0  0  0  0
  9 10  1  0  0  0  0
 10  5  2  0  0  0  0
 13  8  1  0  0  0  0
 15 16  1  0  0  0  0
 15 14  1  0  0  0  0
 16  9  1  0  0  0  0
 17 18  1  0  0  0  0
 17 16  2  0  0  0  0
 19 17  1  0  0  0  0
 20 19  1  0  0  0  0
 21 23  1  0  0  0  0
 21 19  2  0  0  0  0
 22 21  1  0  0  0  0
 23 15  2  0  0  0  0
 24 23  1  0  0  0  0
 25 28  1  6  0  0  0
 25 36  1  0  0  0  0
 26 25  1  0  0  0  0
 26 29  1  0  0  0  0
 27 31  1  6  0  0  0
 27 26  1  0  0  0  0
 27 25  1  0  0  0  0
 30 26  1  0  0  0  0
 32 33  1  0  0  0  0
 33 34  2  0  0  0  0
 33 39  1  0  0  0  0
 34 40  1  0  0  0  0
 35 34  1  0  0  0  0
 36 35  2  0  0  0  0
 37 36  1  0  0  0  0
 37 32  2  0  0  0  0
 38 32  1  0  0  0  0
M  END
>  <minimizedAffinity>
-5.03835821

>  <minimizedRMSD>
0.604299188

$$$$
