
 OpenBabel03272502533D

 29 31  0  0  0  0  0  0  0  0999 V2000
   38.0000   31.1120   48.1980 C   0  0  0  0  0  0  0  0  0  0  0  0
   38.2900   31.3490   49.5370 C   0  0  0  0  0  0  0  0  0  0  0  0
   37.4420   30.9120   50.5340 C   0  0  0  0  0  0  0  0  0  0  0  0
   36.3110   30.2420   50.1370 C   0  0  0  0  0  0  0  0  0  0  0  0
   36.0060   29.9980   48.8090 C   0  0  0  0  0  0  0  0  0  0  0  0
   36.8730   30.4460   47.8420 N   0  0  0  0  0  0  0  0  0  0  0  0
   39.2170   31.8920   49.7580 H   0  0  0  0  0  0  0  0  0  0  0  0
   37.7040   31.1160   51.5560 H   0  0  0  0  0  0  0  0  0  0  0  0
   35.6560   29.9060   50.9230 H   0  0  0  0  0  0  0  0  0  0  0  0
   35.4310   30.0890   45.8510 Cl  0  0  0  0  0  0  0  0  0  0  0  0
   34.4410   29.2590   47.0630 C   0  0  0  0  0  0  0  0  0  0  0  0
   34.8050   29.2870   48.3910 C   0  0  0  0  0  0  0  0  0  0  0  0
   33.9690   28.6110   49.2530 C   0  0  0  0  0  0  0  0  0  0  0  0
   34.1920   28.5920   50.2990 H   0  0  0  0  0  0  0  0  0  0  0  0
   32.8330   27.9370   48.8680 C   0  0  0  0  0  0  0  0  0  0  0  0
   32.1980   27.4140   49.5780 H   0  0  0  0  0  0  0  0  0  0  0  0
   32.4950   27.9290   47.5190 C   0  0  0  0  0  0  0  0  0  0  0  0
   31.6350   27.4350   47.1210 H   0  0  0  0  0  0  0  0  0  0  0  0
   33.3050   28.5930   46.6220 C   0  0  0  0  0  0  0  0  0  0  0  0
   32.9080   28.6070   44.9010 Cl  0  0  0  0  0  0  0  0  0  0  0  0
   40.1490   33.3230   46.2280 C   0  0  0  0  0  0  0  0  0  0  0  0
   40.6290   32.4630   45.2130 C   0  0  0  0  0  0  0  0  0  0  0  0
   40.2000   31.1210   45.2230 C   0  0  0  0  0  0  0  0  0  0  0  0
   39.3530   30.7660   46.2210 N   0  0  0  0  0  0  0  0  0  0  0  0
   38.9080   31.5860   47.1710 C   0  0  0  0  0  0  0  0  0  0  0  0
   39.3180   32.8510   47.1540 N   0  0  0  0  0  0  0  0  0  0  0  0
   40.4810   34.3730   46.2240 H   0  0  0  0  0  0  0  0  0  0  0  0
   41.3050   32.7940   44.4400 H   0  0  0  0  0  0  0  0  0  0  0  0
   40.5510   30.4630   44.4690 H   0  0  0  0  0  0  0  0  0  0  0  0
  1  2  1  0  0  0  0
  2  7  1  0  0  0  0
  2  3  2  0  0  0  0
  3  8  1  0  0  0  0
  4  3  1  0  0  0  0
  4  9  1  0  0  0  0
  5  4  2  0  0  0  0
  6  1  2  0  0  0  0
  6  5  1  0  0  0  0
 10 11  1  0  0  0  0
 11 12  1  0  0  0  0
 12  5  1  0  0  0  0
 12 13  2  0  0  0  0
 13 14  1  0  0  0  0
 15 13  1  0  0  0  0
 15 16  1  0  0  0  0
 17 15  2  0  0  0  0
 18 17  1  0  0  0  0
 19 11  2  0  0  0  0
 19 17  1  0  0  0  0
 20 19  1  0  0  0  0
 21 26  1  0  0  0  0
 22 23  1  0  0  0  0
 22 21  2  0  0  0  0
 23 24  2  0  0  0  0
 24 25  1  0  0  0  0
 25  1  1  0  0  0  0
 26 25  2  0  0  0  0
 27 21  1  0  0  0  0
 28 22  1  0  0  0  0
 29 23  1  0  0  0  0
M  END
>  <minimizedAffinity>
-6.42054081

>  <minimizedRMSD>
3.07057667

$$$$
