
 OpenBabel03272503423D

 43 46  0  0  1  0  0  0  0  0999 V2000
   39.7710   31.1920   41.7000 C   0  0  2  0  0  0  0  0  0  0  0  0
   39.5840   32.3450   42.7050 C   0  0  1  0  0  0  0  0  0  0  0  0
   38.3890   33.0080   42.0710 C   0  0  0  0  0  0  0  0  0  0  0  0
   38.5320   32.8940   40.7090 O   0  0  0  0  0  0  0  0  0  0  0  0
   39.5210   32.0050   40.4220 C   0  0  0  0  0  0  0  0  0  0  0  0
   40.7770   30.7840   41.7320 H   0  0  0  0  0  0  0  0  0  0  0  0
   40.4270   33.0330   42.7110 H   0  0  0  0  0  0  0  0  0  0  0  0
   37.4820   32.4830   42.4280 H   0  0  0  0  0  0  0  0  0  0  0  0
   38.3090   34.0840   42.3130 H   0  0  0  0  0  0  0  0  0  0  0  0
   39.3900   31.3790   39.5420 H   0  0  0  0  0  0  0  0  0  0  0  0
   40.4590   32.6050   40.2620 H   0  0  0  0  0  0  0  0  0  0  0  0
   38.3530   31.1570   45.8620 C   0  0  0  0  0  0  0  0  0  0  0  0
   39.6970   30.9910   46.0590 C   0  0  0  0  0  0  0  0  0  0  0  0
   40.2710   31.4330   44.8660 C   0  0  0  0  0  0  0  0  0  0  0  0
   39.3160   31.8340   44.0200 N   0  0  0  0  0  0  0  0  0  0  0  0
   38.1390   31.6650   44.6280 N   0  0  0  0  0  0  0  0  0  0  0  0
   40.2180   30.6030   46.9430 H   0  0  0  0  0  0  0  0  0  0  0  0
   41.3630   31.4090   44.7530 H   0  0  0  0  0  0  0  0  0  0  0  0
   36.4750   30.6150   49.0640 C   0  0  0  0  0  0  0  0  0  0  0  0
   37.5060   30.9340   48.1910 C   0  0  0  0  0  0  0  0  0  0  0  0
   37.3060   30.8360   46.8270 C   0  0  0  0  0  0  0  0  0  0  0  0
   36.0970   30.4290   46.3920 N   0  0  0  0  0  0  0  0  0  0  0  0
   35.1010   30.1230   47.2670 C   0  0  0  0  0  0  0  0  0  0  0  0
   35.2840   30.2140   48.5780 N   0  0  0  0  0  0  0  0  0  0  0  0
   38.5010   31.2670   48.4650 H   0  0  0  0  0  0  0  0  0  0  0  0
   34.1420   29.7990   46.8910 H   0  0  0  0  0  0  0  0  0  0  0  0
   36.8290   30.7640   50.4050 O   0  0  0  0  0  0  0  0  0  0  0  0
   36.8790   29.6950   51.3140 C   0  0  0  0  0  0  0  0  0  0  0  0
   35.6240   29.2300   51.6560 F   0  0  0  0  0  0  0  0  0  0  0  0
   37.5890   30.0820   52.4230 F   0  0  0  0  0  0  0  0  0  0  0  0
   37.5940   28.6580   50.7200 F   0  0  0  0  0  0  0  0  0  0  0  0
   38.7140   30.3300   41.9070 O   0  0  0  0  0  0  0  0  0  0  0  0
   37.9040   28.9660   39.3770 Cl  0  0  0  0  0  0  0  0  0  0  0  0
   38.4420   28.2430   40.8870 C   0  0  0  0  0  0  0  0  0  0  0  0
   38.8000   28.9720   42.0200 C   0  0  0  0  0  0  0  0  0  0  0  0
   39.2040   28.2640   43.1330 C   0  0  0  0  0  0  0  0  0  0  0  0
   39.4800   28.8330   44.0040 H   0  0  0  0  0  0  0  0  0  0  0  0
   39.2650   26.8770   43.1700 C   0  0  0  0  0  0  0  0  0  0  0  0
   39.5880   26.3800   44.0670 H   0  0  0  0  0  0  0  0  0  0  0  0
   38.9000   26.1750   42.0240 C   0  0  0  0  0  0  0  0  0  0  0  0
   38.9570   25.0870   42.0750 H   0  0  0  0  0  0  0  0  0  0  0  0
   38.4910   26.8640   40.8900 C   0  0  0  0  0  0  0  0  0  0  0  0
   38.0670   25.8460   39.5350 Cl  0  0  0  0  0  0  0  0  0  0  0  0
  1  6  1  1  0  0  0
  1 32  1  0  0  0  0
  1  2  1  0  0  0  0
  2  7  1  1  0  0  0
  2 15  1  0  0  0  0
  3  9  1  0  0  0  0
  3  8  1  0  0  0  0
  3  2  1  0  0  0  0
  4  3  1  0  0  0  0
  5  4  1  0  0  0  0
  5  1  1  0  0  0  0
 10  5  1  0  0  0  0
 11  5  1  0  0  0  0
 12 13  1  0  0  0  0
 12 21  1  0  0  0  0
 13 17  1  0  0  0  0
 14 13  2  0  0  0  0
 15 16  1  0  0  0  0
 15 14  1  0  0  0  0
 16 12  2  0  0  0  0
 18 14  1  0  0  0  0
 19 27  1  0  0  0  0
 20 25  1  0  0  0  0
 20 19  2  0  0  0  0
 21 20  1  0  0  0  0
 22 21  2  0  0  0  0
 22 23  1  0  0  0  0
 23 24  2  0  0  0  0
 24 19  1  0  0  0  0
 26 23  1  0  0  0  0
 27 28  1  0  0  0  0
 28 29  1  0  0  0  0
 28 30  1  0  0  0  0
 31 28  1  0  0  0  0
 32 35  1  0  0  0  0
 33 34  1  0  0  0  0
 34 42  2  0  0  0  0
 34 35  1  0  0  0  0
 35 36  2  0  0  0  0
 36 38  1  0  0  0  0
 36 37  1  0  0  0  0
 38 39  1  0  0  0  0
 40 41  1  0  0  0  0
 40 38  2  0  0  0  0
 42 40  1  0  0  0  0
 43 42  1  0  0  0  0
M  END
>  <minimizedAffinity>
-6.26564312

>  <minimizedRMSD>
0.824830949

$$$$
