
 OpenBabel03272507113D

 29 31  0  0  0  0  0  0  0  0999 V2000
   36.6280   28.6350   32.7130 C   0  0  0  0  0  0  0  0  0  0  0  0
   36.3100   29.6500   31.8590 C   0  0  0  0  0  0  0  0  0  0  0  0
   35.5760   30.5910   32.5950 C   0  0  0  0  0  0  0  0  0  0  0  0
   35.4960   30.0720   33.8730 C   0  0  0  0  0  0  0  0  0  0  0  0
   36.1250   28.9280   33.8910 O   0  0  0  0  0  0  0  0  0  0  0  0
   36.5580   29.7510   30.8040 H   0  0  0  0  0  0  0  0  0  0  0  0
   35.1500   31.5350   32.2540 H   0  0  0  0  0  0  0  0  0  0  0  0
   32.6370   29.2970   34.1640 Cl  0  0  0  0  0  0  0  0  0  0  0  0
   33.4970   30.3720   35.2270 C   0  0  0  0  0  0  0  0  0  0  0  0
   34.8280   30.6810   35.0210 C   0  0  0  0  0  0  0  0  0  0  0  0
   35.5190   31.5310   35.8570 C   0  0  0  0  0  0  0  0  0  0  0  0
   36.5610   31.7680   35.6880 H   0  0  0  0  0  0  0  0  0  0  0  0
   34.9090   32.1240   36.9550 C   0  0  0  0  0  0  0  0  0  0  0  0
   35.3820   32.7940   37.6490 H   0  0  0  0  0  0  0  0  0  0  0  0
   33.5750   31.7810   37.1160 C   0  0  0  0  0  0  0  0  0  0  0  0
   33.0700   32.2390   37.9810 H   0  0  0  0  0  0  0  0  0  0  0  0
   32.8370   30.9370   36.3100 C   0  0  0  0  0  0  0  0  0  0  0  0
   31.1520   30.6080   36.6580 Cl  0  0  0  0  0  0  0  0  0  0  0  0
   37.3920   27.4740   32.2960 C   0  0  0  0  0  0  0  0  0  0  0  0
   38.6370   27.5390   32.2820 O   0  0  0  0  0  0  0  0  0  0  0  0
   36.6500   26.2960   31.9150 C   0  0  0  0  0  0  0  0  0  0  0  0
   37.1530   25.0630   32.3050 C   0  0  0  0  0  0  0  0  0  0  0  0
   36.4670   23.9020   31.9570 C   0  0  0  0  0  0  0  0  0  0  0  0
   35.3180   24.0470   31.2390 N   0  0  0  0  0  0  0  0  0  0  0  0
   34.8430   25.2460   30.8680 C   0  0  0  0  0  0  0  0  0  0  0  0
   35.5050   26.3640   31.2040 N   0  0  0  0  0  0  0  0  0  0  0  0
   38.0670   25.0180   32.8720 H   0  0  0  0  0  0  0  0  0  0  0  0
   36.8860   22.9800   32.2750 H   0  0  0  0  0  0  0  0  0  0  0  0
   33.9240   25.2580   30.2990 H   0  0  0  0  0  0  0  0  0  0  0  0
  1  5  1  0  0  0  0
  2  3  1  0  0  0  0
  2  1  2  0  0  0  0
  3  4  2  0  0  0  0
  4  5  1  0  0  0  0
  4 10  1  0  0  0  0
  6  2  1  0  0  0  0
  7  3  1  0  0  0  0
  8  9  1  0  0  0  0
  9 17  1  0  0  0  0
 10  9  2  0  0  0  0
 10 11  1  0  0  0  0
 11 13  2  0  0  0  0
 12 11  1  0  0  0  0
 13 15  1  0  0  0  0
 13 14  1  0  0  0  0
 15 16  1  0  0  0  0
 17 18  1  0  0  0  0
 17 15  2  0  0  0  0
 19  1  1  0  0  0  0
 20 19  2  0  0  0  0
 21 19  1  0  0  0  0
 21 22  1  0  0  0  0
 22 27  1  0  0  0  0
 23 28  1  0  0  0  0
 23 22  2  0  0  0  0
 24 23  1  0  0  0  0
 25 26  1  0  0  0  0
 25 24  2  0  0  0  0
 26 21  2  0  0  0  0
 29 25  1  0  0  0  0
M  END
>  <minimizedAffinity>
-5.56086969

$$$$

 OpenBabel03272507113D

 29 31  0  0  0  0  0  0  0  0999 V2000
   37.6570   26.1860   33.1580 C   0  0  0  0  0  0  0  0  0  0  0  0
   38.6040   27.0980   33.5240 C   0  0  0  0  0  0  0  0  0  0  0  0
   39.1420   26.6640   34.7440 C   0  0  0  0  0  0  0  0  0  0  0  0
   38.4710   25.4930   35.0430 C   0  0  0  0  0  0  0  0  0  0  0  0
   37.6140   25.2570   34.0870 O   0  0  0  0  0  0  0  0  0  0  0  0
   38.9140   28.0000   33.0010 H   0  0  0  0  0  0  0  0  0  0  0  0
   39.9210   27.1330   35.3450 H   0  0  0  0  0  0  0  0  0  0  0  0
   40.6300   23.4680   34.7320 Cl  0  0  0  0  0  0  0  0  0  0  0  0
   39.6560   23.6840   36.1560 C   0  0  0  0  0  0  0  0  0  0  0  0
   38.6700   24.6510   36.2190 C   0  0  0  0  0  0  0  0  0  0  0  0
   37.8930   24.8300   37.3430 C   0  0  0  0  0  0  0  0  0  0  0  0
   37.1230   25.5890   37.3840 H   0  0  0  0  0  0  0  0  0  0  0  0
   38.0600   24.0430   38.4750 C   0  0  0  0  0  0  0  0  0  0  0  0
   37.4940   24.1240   39.3840 H   0  0  0  0  0  0  0  0  0  0  0  0
   39.0600   23.0890   38.3590 C   0  0  0  0  0  0  0  0  0  0  0  0
   39.2120   22.4530   39.2460 H   0  0  0  0  0  0  0  0  0  0  0  0
   39.8670   22.8680   37.2600 C   0  0  0  0  0  0  0  0  0  0  0  0
   41.0890   21.6150   37.2810 Cl  0  0  0  0  0  0  0  0  0  0  0  0
   36.8840   26.3100   31.9370 C   0  0  0  0  0  0  0  0  0  0  0  0
   36.6030   25.2820   31.2890 O   0  0  0  0  0  0  0  0  0  0  0  0
   36.4830   27.6380   31.5400 C   0  0  0  0  0  0  0  0  0  0  0  0
   37.0840   28.1840   30.4140 C   0  0  0  0  0  0  0  0  0  0  0  0
   36.7240   29.4630   29.9980 C   0  0  0  0  0  0  0  0  0  0  0  0
   35.7830   30.1180   30.7340 N   0  0  0  0  0  0  0  0  0  0  0  0
   35.2090   29.5780   31.8210 C   0  0  0  0  0  0  0  0  0  0  0  0
   35.5570   28.3440   32.2210 N   0  0  0  0  0  0  0  0  0  0  0  0
   37.8210   27.6130   29.8770 H   0  0  0  0  0  0  0  0  0  0  0  0
   37.2080   29.8440   29.1330 H   0  0  0  0  0  0  0  0  0  0  0  0
   34.4730   30.1760   32.3390 H   0  0  0  0  0  0  0  0  0  0  0  0
  1  2  2  0  0  0  0
  1  5  1  0  0  0  0
  2  3  1  0  0  0  0
  3  4  2  0  0  0  0
  3  7  1  0  0  0  0
  4 10  1  0  0  0  0
  5  4  1  0  0  0  0
  6  2  1  0  0  0  0
  8  9  1  0  0  0  0
  9 10  2  0  0  0  0
  9 17  1  0  0  0  0
 10 11  1  0  0  0  0
 11 12  1  0  0  0  0
 11 13  2  0  0  0  0
 13 14  1  0  0  0  0
 15 13  1  0  0  0  0
 15 16  1  0  0  0  0
 17 18  1  0  0  0  0
 17 15  2  0  0  0  0
 19  1  1  0  0  0  0
 20 19  2  0  0  0  0
 21 19  1  0  0  0  0
 21 26  1  0  0  0  0
 22 21  2  0  0  0  0
 23 22  1  0  0  0  0
 23 24  2  0  0  0  0
 24 25  1  0  0  0  0
 25 26  2  0  0  0  0
 25 29  1  0  0  0  0
 27 22  1  0  0  0  0
 28 23  1  0  0  0  0
M  END
>  <minimizedAffinity>
-5.5404129

$$$$

 OpenBabel03272507113D

 29 31  0  0  0  0  0  0  0  0999 V2000
   38.0930   25.4210   35.7730 C   0  0  0  0  0  0  0  0  0  0  0  0
   38.5250   26.5970   36.3150 C   0  0  0  0  0  0  0  0  0  0  0  0
   38.3830   27.5810   35.3260 C   0  0  0  0  0  0  0  0  0  0  0  0
   37.8640   26.9230   34.2280 C   0  0  0  0  0  0  0  0  0  0  0  0
   37.7130   25.6640   34.5390 O   0  0  0  0  0  0  0  0  0  0  0  0
   38.9110   26.7800   37.3150 H   0  0  0  0  0  0  0  0  0  0  0  0
   38.6240   28.6430   35.3880 H   0  0  0  0  0  0  0  0  0  0  0  0
   35.6030   28.8560   34.3190 Cl  0  0  0  0  0  0  0  0  0  0  0  0
   36.4940   28.4230   32.8900 C   0  0  0  0  0  0  0  0  0  0  0  0
   37.5330   27.5130   32.9330 C   0  0  0  0  0  0  0  0  0  0  0  0
   38.2460   27.1630   31.8070 C   0  0  0  0  0  0  0  0  0  0  0  0
   39.0590   26.4500   31.8500 H   0  0  0  0  0  0  0  0  0  0  0  0
   37.9530   27.7090   30.5640 C   0  0  0  0  0  0  0  0  0  0  0  0
   38.4630   27.4850   29.6450 H   0  0  0  0  0  0  0  0  0  0  0  0
   36.9030   28.6140   30.5750 C   0  0  0  0  0  0  0  0  0  0  0  0
   36.6530   29.0610   29.6000 H   0  0  0  0  0  0  0  0  0  0  0  0
   36.1580   29.0000   31.6720 C   0  0  0  0  0  0  0  0  0  0  0  0
   34.8580   30.1620   31.5110 Cl  0  0  0  0  0  0  0  0  0  0  0  0
   38.0940   24.1740   36.5130 C   0  0  0  0  0  0  0  0  0  0  0  0
   37.1070   23.8830   37.2170 O   0  0  0  0  0  0  0  0  0  0  0  0
   39.2590   23.3310   36.3880 C   0  0  0  0  0  0  0  0  0  0  0  0
   39.8050   22.8070   37.5510 C   0  0  0  0  0  0  0  0  0  0  0  0
   40.9290   21.9900   37.4730 C   0  0  0  0  0  0  0  0  0  0  0  0
   41.4400   21.7460   36.2330 N   0  0  0  0  0  0  0  0  0  0  0  0
   40.9020   22.2590   35.1160 C   0  0  0  0  0  0  0  0  0  0  0  0
   39.8180   23.0480   35.1920 N   0  0  0  0  0  0  0  0  0  0  0  0
   39.3530   23.0390   38.5000 H   0  0  0  0  0  0  0  0  0  0  0  0
   41.3150   21.6100   38.3860 H   0  0  0  0  0  0  0  0  0  0  0  0
   41.3790   22.0080   34.1780 H   0  0  0  0  0  0  0  0  0  0  0  0
  1  2  2  0  0  0  0
  1 19  1  0  0  0  0
  2  6  1  0  0  0  0
  3  7  1  0  0  0  0
  3  2  1  0  0  0  0
  4  5  1  0  0  0  0
  4  3  2  0  0  0  0
  5  1  1  0  0  0  0
  9 10  1  0  0  0  0
  9  8  1  0  0  0  0
 10  4  1  0  0  0  0
 11 12  1  0  0  0  0
 11 10  2  0  0  0  0
 13 15  2  0  0  0  0
 13 11  1  0  0  0  0
 14 13  1  0  0  0  0
 15 17  1  0  0  0  0
 16 15  1  0  0  0  0
 17  9  2  0  0  0  0
 18 17  1  0  0  0  0
 19 20  2  0  0  0  0
 21 19  1  0  0  0  0
 21 22  1  0  0  0  0
 22 27  1  0  0  0  0
 23 22  2  0  0  0  0
 23 28  1  0  0  0  0
 24 23  1  0  0  0  0
 25 26  1  0  0  0  0
 25 24  2  0  0  0  0
 26 21  2  0  0  0  0
 29 25  1  0  0  0  0
M  END
>  <minimizedAffinity>
-5.53860569

$$$$

 OpenBabel03272507113D

 29 31  0  0  0  0  0  0  0  0999 V2000
   38.0200   25.4040   35.8390 C   0  0  0  0  0  0  0  0  0  0  0  0
   38.4310   26.5630   36.4310 C   0  0  0  0  0  0  0  0  0  0  0  0
   38.2170   27.5950   35.5070 C   0  0  0  0  0  0  0  0  0  0  0  0
   37.6790   26.9810   34.3920 C   0  0  0  0  0  0  0  0  0  0  0  0
   37.5840   25.7010   34.6350 O   0  0  0  0  0  0  0  0  0  0  0  0
   38.8500   26.7040   37.4250 H   0  0  0  0  0  0  0  0  0  0  0  0
   38.4230   28.6600   35.6200 H   0  0  0  0  0  0  0  0  0  0  0  0
   39.7040   26.7900   32.2190 Cl  0  0  0  0  0  0  0  0  0  0  0  0
   38.1640   27.5870   32.0860 C   0  0  0  0  0  0  0  0  0  0  0  0
   37.2780   27.6310   33.1460 C   0  0  0  0  0  0  0  0  0  0  0  0
   36.0550   28.2590   33.0520 C   0  0  0  0  0  0  0  0  0  0  0  0
   35.3670   28.2880   33.8870 H   0  0  0  0  0  0  0  0  0  0  0  0
   35.6490   28.8850   31.8810 C   0  0  0  0  0  0  0  0  0  0  0  0
   34.7140   29.3930   31.7330 H   0  0  0  0  0  0  0  0  0  0  0  0
   36.5730   28.8120   30.8500 C   0  0  0  0  0  0  0  0  0  0  0  0
   36.2720   29.3020   29.9090 H   0  0  0  0  0  0  0  0  0  0  0  0
   37.8080   28.1970   30.8900 C   0  0  0  0  0  0  0  0  0  0  0  0
   38.8590   28.1980   29.4900 Cl  0  0  0  0  0  0  0  0  0  0  0  0
   38.0940   24.1180   36.5040 C   0  0  0  0  0  0  0  0  0  0  0  0
   37.1220   23.7270   37.1820 O   0  0  0  0  0  0  0  0  0  0  0  0
   39.3090   23.3560   36.3400 C   0  0  0  0  0  0  0  0  0  0  0  0
   39.8570   22.7650   37.4700 C   0  0  0  0  0  0  0  0  0  0  0  0
   41.0290   22.0220   37.3540 C   0  0  0  0  0  0  0  0  0  0  0  0
   41.5810   21.9160   36.1130 N   0  0  0  0  0  0  0  0  0  0  0  0
   41.0400   22.4930   35.0280 C   0  0  0  0  0  0  0  0  0  0  0  0
   39.9100   23.2090   35.1420 N   0  0  0  0  0  0  0  0  0  0  0  0
   39.3700   22.8880   38.4220 H   0  0  0  0  0  0  0  0  0  0  0  0
   41.4150   21.5870   38.2420 H   0  0  0  0  0  0  0  0  0  0  0  0
   41.5520   22.3510   34.0870 H   0  0  0  0  0  0  0  0  0  0  0  0
  1  2  2  0  0  0  0
  1 19  1  0  0  0  0
  2  6  1  0  0  0  0
  3  7  1  0  0  0  0
  3  2  1  0  0  0  0
  4  5  1  0  0  0  0
  4  3  2  0  0  0  0
  5  1  1  0  0  0  0
  9  8  1  0  0  0  0
  9 10  1  0  0  0  0
 10  4  1  0  0  0  0
 11 10  2  0  0  0  0
 11 12  1  0  0  0  0
 13 11  1  0  0  0  0
 14 13  1  0  0  0  0
 15 17  1  0  0  0  0
 15 13  2  0  0  0  0
 16 15  1  0  0  0  0
 17  9  2  0  0  0  0
 18 17  1  0  0  0  0
 19 20  2  0  0  0  0
 21 19  1  0  0  0  0
 21 22  1  0  0  0  0
 22 27  1  0  0  0  0
 23 22  2  0  0  0  0
 23 28  1  0  0  0  0
 24 23  1  0  0  0  0
 25 26  1  0  0  0  0
 25 24  2  0  0  0  0
 26 21  2  0  0  0  0
 29 25  1  0  0  0  0
M  END
>  <minimizedAffinity>
-5.43815565

$$$$

 OpenBabel03272507113D

 29 31  0  0  0  0  0  0  0  0999 V2000
   36.4370   28.4370   32.9940 C   0  0  0  0  0  0  0  0  0  0  0  0
   36.2420   29.4830   32.1390 C   0  0  0  0  0  0  0  0  0  0  0  0
   35.3600   30.3710   32.7710 C   0  0  0  0  0  0  0  0  0  0  0  0
   35.0730   29.7920   33.9930 C   0  0  0  0  0  0  0  0  0  0  0  0
   35.7260   28.6650   34.0750 O   0  0  0  0  0  0  0  0  0  0  0  0
   36.6680   29.6380   31.1500 H   0  0  0  0  0  0  0  0  0  0  0  0
   34.9700   31.3180   32.3980 H   0  0  0  0  0  0  0  0  0  0  0  0
   36.2120   32.1190   35.4580 Cl  0  0  0  0  0  0  0  0  0  0  0  0
   34.6500   31.4150   35.7550 C   0  0  0  0  0  0  0  0  0  0  0  0
   34.1940   30.3310   35.0280 C   0  0  0  0  0  0  0  0  0  0  0  0
   32.9580   29.7660   35.2550 C   0  0  0  0  0  0  0  0  0  0  0  0
   32.6100   28.9170   34.6810 H   0  0  0  0  0  0  0  0  0  0  0  0
   32.1030   30.2580   36.2320 C   0  0  0  0  0  0  0  0  0  0  0  0
   31.1290   29.8700   36.4660 H   0  0  0  0  0  0  0  0  0  0  0  0
   32.6080   31.3430   36.9320 C   0  0  0  0  0  0  0  0  0  0  0  0
   31.9460   31.7510   37.7130 H   0  0  0  0  0  0  0  0  0  0  0  0
   33.8350   31.9470   36.7460 C   0  0  0  0  0  0  0  0  0  0  0  0
   34.3200   33.3180   37.7220 Cl  0  0  0  0  0  0  0  0  0  0  0  0
   37.2990   27.3160   32.6720 C   0  0  0  0  0  0  0  0  0  0  0  0
   38.5300   27.4280   32.8400 O   0  0  0  0  0  0  0  0  0  0  0  0
   36.6690   26.1200   32.1670 C   0  0  0  0  0  0  0  0  0  0  0  0
   35.5780   26.2730   31.3220 C   0  0  0  0  0  0  0  0  0  0  0  0
   34.9420   25.1440   30.8140 C   0  0  0  0  0  0  0  0  0  0  0  0
   35.4370   23.9290   31.1820 N   0  0  0  0  0  0  0  0  0  0  0  0
   36.4930   23.7950   31.9990 C   0  0  0  0  0  0  0  0  0  0  0  0
   37.1050   24.8850   32.4890 N   0  0  0  0  0  0  0  0  0  0  0  0
   35.2370   27.2630   31.0700 H   0  0  0  0  0  0  0  0  0  0  0  0
   34.1120   25.3050   30.1720 H   0  0  0  0  0  0  0  0  0  0  0  0
   36.8110   22.7890   32.2340 H   0  0  0  0  0  0  0  0  0  0  0  0
  1  5  1  0  0  0  0
  2  3  1  0  0  0  0
  2  1  2  0  0  0  0
  3  4  2  0  0  0  0
  4  5  1  0  0  0  0
  4 10  1  0  0  0  0
  6  2  1  0  0  0  0
  7  3  1  0  0  0  0
  8  9  1  0  0  0  0
  9 17  1  0  0  0  0
 10 11  1  0  0  0  0
 10  9  2  0  0  0  0
 11 13  2  0  0  0  0
 12 11  1  0  0  0  0
 13 14  1  0  0  0  0
 13 15  1  0  0  0  0
 15 16  1  0  0  0  0
 17 15  2  0  0  0  0
 17 18  1  0  0  0  0
 19 20  2  0  0  0  0
 19  1  1  0  0  0  0
 21 26  1  0  0  0  0
 21 19  1  0  0  0  0
 22 21  2  0  0  0  0
 23 24  2  0  0  0  0
 23 22  1  0  0  0  0
 24 25  1  0  0  0  0
 25 29  1  0  0  0  0
 25 26  2  0  0  0  0
 27 22  1  0  0  0  0
 28 23  1  0  0  0  0
M  END
>  <minimizedAffinity>
-5.393538

$$$$

 OpenBabel03272507113D

 29 31  0  0  0  0  0  0  0  0999 V2000
   36.5350   28.2010   33.1540 C   0  0  0  0  0  0  0  0  0  0  0  0
   36.2010   29.0660   32.1530 C   0  0  0  0  0  0  0  0  0  0  0  0
   35.5000   30.1270   32.7440 C   0  0  0  0  0  0  0  0  0  0  0  0
   35.4530   29.8280   34.0920 C   0  0  0  0  0  0  0  0  0  0  0  0
   36.0710   28.6930   34.2810 O   0  0  0  0  0  0  0  0  0  0  0  0
   36.4180   28.9880   31.0900 H   0  0  0  0  0  0  0  0  0  0  0  0
   35.0730   31.0070   32.2630 H   0  0  0  0  0  0  0  0  0  0  0  0
   32.5300   29.3550   34.3940 Cl  0  0  0  0  0  0  0  0  0  0  0  0
   33.4690   30.4670   35.3460 C   0  0  0  0  0  0  0  0  0  0  0  0
   34.8260   30.6280   35.1410 C   0  0  0  0  0  0  0  0  0  0  0  0
   35.5800   31.5060   35.8900 C   0  0  0  0  0  0  0  0  0  0  0  0
   36.6420   31.6250   35.7230 H   0  0  0  0  0  0  0  0  0  0  0  0
   35.0100   32.2780   36.8930 C   0  0  0  0  0  0  0  0  0  0  0  0
   35.5310   32.9820   37.5150 H   0  0  0  0  0  0  0  0  0  0  0  0
   33.6470   32.0800   37.0570 C   0  0  0  0  0  0  0  0  0  0  0  0
   33.1730   32.6820   37.8480 H   0  0  0  0  0  0  0  0  0  0  0  0
   32.8470   31.2150   36.3370 C   0  0  0  0  0  0  0  0  0  0  0  0
   31.1330   31.0850   36.6740 Cl  0  0  0  0  0  0  0  0  0  0  0  0
   37.2740   26.9760   32.9140 C   0  0  0  0  0  0  0  0  0  0  0  0
   36.6720   25.9820   32.4600 O   0  0  0  0  0  0  0  0  0  0  0  0
   38.6830   26.9820   33.2240 C   0  0  0  0  0  0  0  0  0  0  0  0
   39.0570   26.7380   34.5380 C   0  0  0  0  0  0  0  0  0  0  0  0
   40.4070   26.7350   34.8770 C   0  0  0  0  0  0  0  0  0  0  0  0
   41.3030   26.9770   33.8790 N   0  0  0  0  0  0  0  0  0  0  0  0
   40.9280   27.2110   32.6110 C   0  0  0  0  0  0  0  0  0  0  0  0
   39.6250   27.2140   32.2860 N   0  0  0  0  0  0  0  0  0  0  0  0
   38.2980   26.5540   35.2790 H   0  0  0  0  0  0  0  0  0  0  0  0
   40.6500   26.5440   35.8930 H   0  0  0  0  0  0  0  0  0  0  0  0
   41.7130   27.3920   31.8900 H   0  0  0  0  0  0  0  0  0  0  0  0
  1  5  1  0  0  0  0
  2  3  1  0  0  0  0
  2  1  2  0  0  0  0
  3  4  2  0  0  0  0
  4  5  1  0  0  0  0
  4 10  1  0  0  0  0
  6  2  1  0  0  0  0
  7  3  1  0  0  0  0
  8  9  1  0  0  0  0
  9 17  1  0  0  0  0
 10  9  2  0  0  0  0
 10 11  1  0  0  0  0
 11 13  2  0  0  0  0
 12 11  1  0  0  0  0
 13 15  1  0  0  0  0
 13 14  1  0  0  0  0
 15 16  1  0  0  0  0
 17 18  1  0  0  0  0
 17 15  2  0  0  0  0
 19  1  1  0  0  0  0
 19 21  1  0  0  0  0
 20 19  2  0  0  0  0
 21 22  1  0  0  0  0
 22 23  2  0  0  0  0
 22 27  1  0  0  0  0
 23 28  1  0  0  0  0
 24 23  1  0  0  0  0
 25 24  2  0  0  0  0
 26 25  1  0  0  0  0
 26 21  2  0  0  0  0
 29 25  1  0  0  0  0
M  END
>  <minimizedAffinity>
-5.38084698

$$$$

 OpenBabel03272507113D

 29 31  0  0  0  0  0  0  0  0999 V2000
   38.3490   25.0860   34.0580 C   0  0  0  0  0  0  0  0  0  0  0  0
   39.4780   25.8350   34.2160 C   0  0  0  0  0  0  0  0  0  0  0  0
   39.2810   27.0290   33.5070 C   0  0  0  0  0  0  0  0  0  0  0  0
   38.0190   26.9210   32.9540 C   0  0  0  0  0  0  0  0  0  0  0  0
   37.5160   25.7690   33.3050 O   0  0  0  0  0  0  0  0  0  0  0  0
   40.3800   25.5930   34.7750 H   0  0  0  0  0  0  0  0  0  0  0  0
   39.9630   27.8730   33.3990 H   0  0  0  0  0  0  0  0  0  0  0  0
   36.1130   28.6600   34.4390 Cl  0  0  0  0  0  0  0  0  0  0  0  0
   36.4430   28.7610   32.7340 C   0  0  0  0  0  0  0  0  0  0  0  0
   37.3450   27.9130   32.1200 C   0  0  0  0  0  0  0  0  0  0  0  0
   37.6140   27.9850   30.7700 C   0  0  0  0  0  0  0  0  0  0  0  0
   38.3220   27.3160   30.2980 H   0  0  0  0  0  0  0  0  0  0  0  0
   36.9880   28.9170   29.9540 C   0  0  0  0  0  0  0  0  0  0  0  0
   37.1460   29.0320   28.8980 H   0  0  0  0  0  0  0  0  0  0  0  0
   36.0930   29.7420   30.6180 C   0  0  0  0  0  0  0  0  0  0  0  0
   35.5840   30.4910   29.9910 H   0  0  0  0  0  0  0  0  0  0  0  0
   35.7870   29.7130   31.9640 C   0  0  0  0  0  0  0  0  0  0  0  0
   34.6270   30.8330   32.6470 Cl  0  0  0  0  0  0  0  0  0  0  0  0
   38.1920   23.7740   34.6570 C   0  0  0  0  0  0  0  0  0  0  0  0
   37.8570   22.8130   33.9370 O   0  0  0  0  0  0  0  0  0  0  0  0
   38.4360   23.6610   36.0750 C   0  0  0  0  0  0  0  0  0  0  0  0
   39.5370   22.9230   36.4840 C   0  0  0  0  0  0  0  0  0  0  0  0
   39.8070   22.7890   37.8430 C   0  0  0  0  0  0  0  0  0  0  0  0
   38.9560   23.4030   38.7120 N   0  0  0  0  0  0  0  0  0  0  0  0
   37.8940   24.1150   38.3040 C   0  0  0  0  0  0  0  0  0  0  0  0
   37.6350   24.2430   36.9920 N   0  0  0  0  0  0  0  0  0  0  0  0
   40.1710   22.4620   35.7450 H   0  0  0  0  0  0  0  0  0  0  0  0
   40.6590   22.2160   38.1130 H   0  0  0  0  0  0  0  0  0  0  0  0
   37.2770   24.5650   39.0690 H   0  0  0  0  0  0  0  0  0  0  0  0
  1  2  2  0  0  0  0
  1 19  1  0  0  0  0
  2  6  1  0  0  0  0
  3  2  1  0  0  0  0
  4  5  1  0  0  0  0
  4  3  2  0  0  0  0
  5  1  1  0  0  0  0
  7  3  1  0  0  0  0
  9  8  1  0  0  0  0
 10  9  1  0  0  0  0
 10  4  1  0  0  0  0
 11 10  2  0  0  0  0
 12 11  1  0  0  0  0
 13 15  2  0  0  0  0
 13 11  1  0  0  0  0
 14 13  1  0  0  0  0
 15 17  1  0  0  0  0
 16 15  1  0  0  0  0
 17 18  1  0  0  0  0
 17  9  2  0  0  0  0
 19 21  1  0  0  0  0
 20 19  2  0  0  0  0
 21 22  2  0  0  0  0
 21 26  1  0  0  0  0
 22 23  1  0  0  0  0
 23 28  1  0  0  0  0
 23 24  2  0  0  0  0
 25 24  1  0  0  0  0
 25 29  1  0  0  0  0
 26 25  2  0  0  0  0
 27 22  1  0  0  0  0
M  END
>  <minimizedAffinity>
-5.37580299

$$$$

 OpenBabel03272507113D

 29 31  0  0  0  0  0  0  0  0999 V2000
   36.3290   26.0040   31.9390 C   0  0  0  0  0  0  0  0  0  0  0  0
   35.3220   25.9590   31.0200 C   0  0  0  0  0  0  0  0  0  0  0  0
   35.0590   24.6060   30.7640 C   0  0  0  0  0  0  0  0  0  0  0  0
   35.9430   23.9050   31.5610 C   0  0  0  0  0  0  0  0  0  0  0  0
   36.6640   24.7660   32.2280 O   0  0  0  0  0  0  0  0  0  0  0  0
   34.7950   26.7880   30.5520 H   0  0  0  0  0  0  0  0  0  0  0  0
   34.3210   24.1770   30.0860 H   0  0  0  0  0  0  0  0  0  0  0  0
   38.3840   22.8100   30.2570 Cl  0  0  0  0  0  0  0  0  0  0  0  0
   37.1760   21.8650   31.0760 C   0  0  0  0  0  0  0  0  0  0  0  0
   36.0680   22.4530   31.6570 C   0  0  0  0  0  0  0  0  0  0  0  0
   35.1050   21.7140   32.3080 C   0  0  0  0  0  0  0  0  0  0  0  0
   34.2400   22.1830   32.7600 H   0  0  0  0  0  0  0  0  0  0  0  0
   35.1980   20.3330   32.4140 C   0  0  0  0  0  0  0  0  0  0  0  0
   34.4880   19.6920   32.9050 H   0  0  0  0  0  0  0  0  0  0  0  0
   36.3260   19.7930   31.8150 C   0  0  0  0  0  0  0  0  0  0  0  0
   36.4220   18.6980   31.8870 H   0  0  0  0  0  0  0  0  0  0  0  0
   37.3190   20.4860   31.1520 C   0  0  0  0  0  0  0  0  0  0  0  0
   38.6850   19.6450   30.4490 Cl  0  0  0  0  0  0  0  0  0  0  0  0
   36.8700   27.2510   32.4460 C   0  0  0  0  0  0  0  0  0  0  0  0
   36.4830   28.3280   31.9490 O   0  0  0  0  0  0  0  0  0  0  0  0
   37.8390   27.1670   33.5120 C   0  0  0  0  0  0  0  0  0  0  0  0
   37.3720   27.2410   34.8170 C   0  0  0  0  0  0  0  0  0  0  0  0
   38.2750   27.1650   35.8730 C   0  0  0  0  0  0  0  0  0  0  0  0
   39.5930   27.0180   35.5590 N   0  0  0  0  0  0  0  0  0  0  0  0
   40.0320   26.9480   34.2930 C   0  0  0  0  0  0  0  0  0  0  0  0
   39.1590   27.0220   33.2750 N   0  0  0  0  0  0  0  0  0  0  0  0
   36.3170   27.3570   34.9970 H   0  0  0  0  0  0  0  0  0  0  0  0
   37.8770   27.2260   36.8550 H   0  0  0  0  0  0  0  0  0  0  0  0
   41.0960   26.8320   34.1450 H   0  0  0  0  0  0  0  0  0  0  0  0
  1  5  1  0  0  0  0
  1 19  1  0  0  0  0
  2  1  2  0  0  0  0
  3  2  1  0  0  0  0
  3  4  2  0  0  0  0
  4 10  1  0  0  0  0
  4  5  1  0  0  0  0
  6  2  1  0  0  0  0
  7  3  1  0  0  0  0
  8  9  1  0  0  0  0
  9 17  2  0  0  0  0
  9 10  1  0  0  0  0
 10 11  2  0  0  0  0
 11 13  1  0  0  0  0
 11 12  1  0  0  0  0
 13 14  1  0  0  0  0
 15 16  1  0  0  0  0
 15 13  2  0  0  0  0
 17 15  1  0  0  0  0
 18 17  1  0  0  0  0
 19 21  1  0  0  0  0
 20 19  2  0  0  0  0
 21 22  1  0  0  0  0
 22 27  1  0  0  0  0
 22 23  2  0  0  0  0
 23 28  1  0  0  0  0
 24 23  1  0  0  0  0
 25 24  2  0  0  0  0
 26 21  2  0  0  0  0
 26 25  1  0  0  0  0
 29 25  1  0  0  0  0
M  END
>  <minimizedAffinity>
-5.36446619

$$$$

 OpenBabel03272507113D

 29 31  0  0  0  0  0  0  0  0999 V2000
   37.0630   26.4040   33.2030 C   0  0  0  0  0  0  0  0  0  0  0  0
   37.1470   27.4720   34.0490 C   0  0  0  0  0  0  0  0  0  0  0  0
   37.6820   26.9990   35.2560 C   0  0  0  0  0  0  0  0  0  0  0  0
   37.8910   25.6480   35.0580 C   0  0  0  0  0  0  0  0  0  0  0  0
   37.5140   25.3490   33.8440 O   0  0  0  0  0  0  0  0  0  0  0  0
   36.8650   28.5060   33.8640 H   0  0  0  0  0  0  0  0  0  0  0  0
   37.8940   27.5580   36.1670 H   0  0  0  0  0  0  0  0  0  0  0  0
   40.5190   24.4940   34.2690 Cl  0  0  0  0  0  0  0  0  0  0  0  0
   39.6580   24.1180   35.7320 C   0  0  0  0  0  0  0  0  0  0  0  0
   38.4380   24.6990   36.0240 C   0  0  0  0  0  0  0  0  0  0  0  0
   37.7480   24.4090   37.1810 C   0  0  0  0  0  0  0  0  0  0  0  0
   36.7940   24.8690   37.4020 H   0  0  0  0  0  0  0  0  0  0  0  0
   38.2450   23.5110   38.1170 C   0  0  0  0  0  0  0  0  0  0  0  0
   37.7650   23.2360   39.0380 H   0  0  0  0  0  0  0  0  0  0  0  0
   39.4690   22.9570   37.7760 C   0  0  0  0  0  0  0  0  0  0  0  0
   39.8840   22.2410   38.5040 H   0  0  0  0  0  0  0  0  0  0  0  0
   40.2010   23.2120   36.6340 C   0  0  0  0  0  0  0  0  0  0  0  0
   41.7390   22.4210   36.3570 Cl  0  0  0  0  0  0  0  0  0  0  0  0
   36.5500   26.5170   31.8510 C   0  0  0  0  0  0  0  0  0  0  0  0
   35.5150   25.8950   31.5400 O   0  0  0  0  0  0  0  0  0  0  0  0
   37.2830   27.3550   30.9330 C   0  0  0  0  0  0  0  0  0  0  0  0
   38.6550   27.1680   30.8430 C   0  0  0  0  0  0  0  0  0  0  0  0
   39.3980   27.9570   29.9690 C   0  0  0  0  0  0  0  0  0  0  0  0
   38.7210   28.8860   29.2370 N   0  0  0  0  0  0  0  0  0  0  0  0
   37.3930   29.0560   29.3330 C   0  0  0  0  0  0  0  0  0  0  0  0
   36.6780   28.2950   30.1770 N   0  0  0  0  0  0  0  0  0  0  0  0
   39.1290   26.4160   31.4500 H   0  0  0  0  0  0  0  0  0  0  0  0
   40.4440   27.7820   29.9300 H   0  0  0  0  0  0  0  0  0  0  0  0
   36.9470   29.8190   28.7110 H   0  0  0  0  0  0  0  0  0  0  0  0
  1  5  1  0  0  0  0
  1  2  2  0  0  0  0
  2  3  1  0  0  0  0
  3  7  1  0  0  0  0
  4  3  2  0  0  0  0
  4 10  1  0  0  0  0
  5  4  1  0  0  0  0
  6  2  1  0  0  0  0
  8  9  1  0  0  0  0
  9 10  2  0  0  0  0
  9 17  1  0  0  0  0
 10 11  1  0  0  0  0
 11 12  1  0  0  0  0
 11 13  2  0  0  0  0
 13 14  1  0  0  0  0
 15 13  1  0  0  0  0
 15 16  1  0  0  0  0
 17 15  2  0  0  0  0
 18 17  1  0  0  0  0
 19  1  1  0  0  0  0
 20 19  2  0  0  0  0
 21 19  1  0  0  0  0
 22 21  1  0  0  0  0
 22 27  1  0  0  0  0
 23 22  2  0  0  0  0
 24 25  2  0  0  0  0
 24 23  1  0  0  0  0
 25 26  1  0  0  0  0
 26 21  2  0  0  0  0
 28 23  1  0  0  0  0
 29 25  1  0  0  0  0
M  END
>  <minimizedAffinity>
-5.3466692

$$$$
