
 OpenBabel03262523333D

 42 46  0  0  1  0  0  0  0  0999 V2000
   35.8440   29.4500   50.7080 C   0  0  0  0  0  0  0  0  0  0  0  0
   36.5970   30.1710   49.8000 C   0  0  0  0  0  0  0  0  0  0  0  0
   36.2830   30.0670   48.4330 C   0  0  0  0  0  0  0  0  0  0  0  0
   35.2440   29.2550   48.0620 N   0  0  0  0  0  0  0  0  0  0  0  0
   34.5420   28.5730   48.9960 C   0  0  0  0  0  0  0  0  0  0  0  0
   34.8190   28.6550   50.2900 N   0  0  0  0  0  0  0  0  0  0  0  0
   36.0550   29.5030   51.7830 H   0  0  0  0  0  0  0  0  0  0  0  0
   37.4120   30.8040   50.1180 H   0  0  0  0  0  0  0  0  0  0  0  0
   36.6120   30.5380   46.0890 C   0  0  0  0  0  0  0  0  0  0  0  0
   37.0080   30.7850   47.4110 C   0  0  0  0  0  0  0  0  0  0  0  0
   38.0270   31.6680   47.6440 C   0  0  0  0  0  0  0  0  0  0  0  0
   38.6420   32.2950   46.5930 C   0  0  0  0  0  0  0  0  0  0  0  0
   39.6550   33.1930   46.6020 N   0  0  0  0  0  0  0  0  0  0  0  0
   39.9110   33.5190   45.3350 C   0  0  0  0  0  0  0  0  0  0  0  0
   39.0870   32.8540   44.5110 N   0  0  0  0  0  0  0  0  0  0  0  0
   38.2850   32.0830   45.2740 C   0  0  0  0  0  0  0  0  0  0  0  0
   37.2530   31.1890   45.0330 C   0  0  0  0  0  0  0  0  0  0  0  0
   35.8270   29.8640   45.8150 H   0  0  0  0  0  0  0  0  0  0  0  0
   38.3370   31.8630   48.6510 H   0  0  0  0  0  0  0  0  0  0  0  0
   40.1360   33.5510   47.4520 H   0  0  0  0  0  0  0  0  0  0  0  0
   40.6920   34.2310   45.0750 H   0  0  0  0  0  0  0  0  0  0  0  0
   36.9660   31.0160   43.9910 H   0  0  0  0  0  0  0  0  0  0  0  0
   33.4540   27.7400   48.5360 C   0  0  0  0  0  0  0  0  0  0  0  0
   33.6220   26.5890   48.0520 O   0  0  0  0  0  0  0  0  0  0  0  0
   32.0320   28.2610   48.6270 C   0  0  1  0  0  0  0  0  0  0  0  0
   31.2420   28.2350   47.3030 C   0  0  0  0  0  0  0  0  0  0  0  0
   30.9020   27.3560   48.4390 C   0  0  2  0  0  0  0  0  0  0  0  0
   31.9350   29.2160   49.1830 H   0  0  0  0  0  0  0  0  0  0  0  0
   30.7260   29.1670   47.0900 H   0  0  0  0  0  0  0  0  0  0  0  0
   31.8190   27.8280   46.4580 H   0  0  0  0  0  0  0  0  0  0  0  0
   31.1340   26.2760   48.2920 H   0  0  0  0  0  0  0  0  0  0  0  0
   28.8660   29.2930   47.3470 Cl  0  0  0  0  0  0  0  0  0  0  0  0
   28.6730   28.4400   48.8790 C   0  0  0  0  0  0  0  0  0  0  0  0
   29.6800   27.5910   49.2460 C   0  0  0  0  0  0  0  0  0  0  0  0
   29.4660   26.9520   50.4610 C   0  0  0  0  0  0  0  0  0  0  0  0
   30.1970   26.2560   50.8530 H   0  0  0  0  0  0  0  0  0  0  0  0
   28.3320   27.1660   51.2190 C   0  0  0  0  0  0  0  0  0  0  0  0
   28.1960   26.6530   52.1590 H   0  0  0  0  0  0  0  0  0  0  0  0
   27.3650   28.0410   50.7710 C   0  0  0  0  0  0  0  0  0  0  0  0
   26.4850   28.1920   51.3840 H   0  0  0  0  0  0  0  0  0  0  0  0
   27.5230   28.7060   49.5700 C   0  0  0  0  0  0  0  0  0  0  0  0
   26.2930   29.8180   49.0040 Cl  0  0  0  0  0  0  0  0  0  0  0  0
  1  7  1  0  0  0  0
  2  8  1  0  0  0  0
  2  1  2  0  0  0  0
  3  2  1  0  0  0  0
  4  3  2  0  0  0  0
  4  5  1  0  0  0  0
  5  6  2  0  0  0  0
  6  1  1  0  0  0  0
  9 10  1  0  0  0  0
 10 11  2  0  0  0  0
 10  3  1  0  0  0  0
 11 19  1  0  0  0  0
 12 13  1  0  0  0  0
 12 11  1  0  0  0  0
 13 20  1  0  0  0  0
 14 13  1  0  0  0  0
 15 16  1  0  0  0  0
 15 14  2  0  0  0  0
 16 12  2  0  0  0  0
 17 16  1  0  0  0  0
 17  9  2  0  0  0  0
 18  9  1  0  0  0  0
 21 14  1  0  0  0  0
 22 17  1  0  0  0  0
 23 25  1  0  0  0  0
 23  5  1  0  0  0  0
 24 23  2  0  0  0  0
 25 28  1  1  0  0  0
 26 27  1  0  0  0  0
 26 25  1  0  0  0  0
 27 31  1  6  0  0  0
 27 25  1  0  0  0  0
 27 34  1  0  0  0  0
 29 26  1  0  0  0  0
 30 26  1  0  0  0  0
 32 33  1  0  0  0  0
 33 34  2  0  0  0  0
 33 41  1  0  0  0  0
 34 35  1  0  0  0  0
 35 36  1  0  0  0  0
 35 37  2  0  0  0  0
 37 38  1  0  0  0  0
 39 37  1  0  0  0  0
 39 40  1  0  0  0  0
 41 39  2  0  0  0  0
 42 41  1  0  0  0  0
M  END
>  <minimizedAffinity>
-7.85950422

>  <minimizedRMSD>
1.02376771

$$$$
