
 OpenBabel03272504503D

 44 47  0  0  1  0  0  0  0  0999 V2000
   37.0950   31.0570   48.0620 N   0  0  0  0  0  0  0  0  0  0  0  0
   37.7040   31.0050   49.3780 C   0  0  0  0  0  0  0  0  0  0  0  0
   38.8830   31.9060   49.5340 C   0  0  0  0  0  0  0  0  0  0  0  0
   38.6250   33.2160   48.7930 C   0  0  0  0  0  0  0  0  0  0  0  0
   38.6160   32.8480   47.3410 C   0  0  0  0  0  0  0  0  0  0  0  0
   37.5370   31.8660   46.9770 C   0  0  1  0  0  0  0  0  0  0  0  0
   36.9090   31.4270   50.0630 H   0  0  0  0  0  0  0  0  0  0  0  0
   37.9000   30.0070   49.7650 H   0  0  0  0  0  0  0  0  0  0  0  0
   39.0120   32.1070   50.6150 H   0  0  0  0  0  0  0  0  0  0  0  0
   39.7760   31.4470   49.0770 H   0  0  0  0  0  0  0  0  0  0  0  0
   39.4240   33.9310   48.9920 H   0  0  0  0  0  0  0  0  0  0  0  0
   37.6370   33.6110   49.1050 H   0  0  0  0  0  0  0  0  0  0  0  0
   38.4790   33.7760   46.7510 H   0  0  0  0  0  0  0  0  0  0  0  0
   39.6160   32.4200   47.0770 H   0  0  0  0  0  0  0  0  0  0  0  0
   36.6400   32.4820   46.6670 H   0  0  0  0  0  0  0  0  0  0  0  0
   36.2130   32.3840   44.2150 Cl  0  0  0  0  0  0  0  0  0  0  0  0
   37.5080   31.2730   44.4910 C   0  0  0  0  0  0  0  0  0  0  0  0
   37.9860   31.1610   45.7700 C   0  0  0  0  0  0  0  0  0  0  0  0
   39.0300   30.2250   45.8580 C   0  0  0  0  0  0  0  0  0  0  0  0
   39.4900   30.0570   46.8460 H   0  0  0  0  0  0  0  0  0  0  0  0
   39.5360   29.4940   44.8050 C   0  0  0  0  0  0  0  0  0  0  0  0
   40.3460   28.7980   44.9890 H   0  0  0  0  0  0  0  0  0  0  0  0
   38.9940   29.6710   43.5600 C   0  0  0  0  0  0  0  0  0  0  0  0
   39.4220   29.0800   42.7800 H   0  0  0  0  0  0  0  0  0  0  0  0
   37.9660   30.5760   43.4090 C   0  0  0  0  0  0  0  0  0  0  0  0
   37.2830   30.7960   41.8170 Cl  0  0  0  0  0  0  0  0  0  0  0  0
   35.7220   29.1290   48.6760 C   0  0  0  0  0  0  0  0  0  0  0  0
   35.9600   30.2340   47.8690 C   0  0  0  0  0  0  0  0  0  0  0  0
   35.0240   30.4750   46.8820 C   0  0  0  0  0  0  0  0  0  0  0  0
   33.9500   29.6530   46.7490 N   0  0  0  0  0  0  0  0  0  0  0  0
   33.7600   28.5920   47.5530 C   0  0  0  0  0  0  0  0  0  0  0  0
   34.6540   28.3440   48.5120 N   0  0  0  0  0  0  0  0  0  0  0  0
   36.3750   28.8340   49.4820 H   0  0  0  0  0  0  0  0  0  0  0  0
   35.0960   31.2890   46.2120 H   0  0  0  0  0  0  0  0  0  0  0  0
   32.6060   27.7320   47.3900 C   0  0  0  0  0  0  0  0  0  0  0  0
   32.6840   26.3990   47.6550 C   0  0  0  0  0  0  0  0  0  0  0  0
   31.6080   25.5510   47.5120 C   0  0  0  0  0  0  0  0  0  0  0  0
   30.4490   26.1260   47.0880 C   0  0  0  0  0  0  0  0  0  0  0  0
   30.3060   27.5020   46.7990 C   0  0  0  0  0  0  0  0  0  0  0  0
   31.4300   28.2640   46.9710 N   0  0  0  0  0  0  0  0  0  0  0  0
   33.6430   26.0220   47.9860 H   0  0  0  0  0  0  0  0  0  0  0  0
   31.6990   24.5110   47.7250 H   0  0  0  0  0  0  0  0  0  0  0  0
   29.5710   25.5090   46.9590 H   0  0  0  0  0  0  0  0  0  0  0  0
   29.3720   27.9310   46.4650 H   0  0  0  0  0  0  0  0  0  0  0  0
  1  2  1  0  0  0  0
  2  3  1  0  0  0  0
  2  8  1  0  0  0  0
  2  7  1  0  0  0  0
  3  9  1  0  0  0  0
  4 11  1  0  0  0  0
  4 12  1  0  0  0  0
  4  3  1  0  0  0  0
  5  4  1  0  0  0  0
  6 15  1  6  0  0  0
  6  5  1  0  0  0  0
  6  1  1  0  0  0  0
 10  3  1  0  0  0  0
 13  5  1  0  0  0  0
 14  5  1  0  0  0  0
 16 17  1  0  0  0  0
 17 18  1  0  0  0  0
 18 19  2  0  0  0  0
 18  6  1  0  0  0  0
 19 20  1  0  0  0  0
 21 22  1  0  0  0  0
 21 19  1  0  0  0  0
 23 21  2  0  0  0  0
 24 23  1  0  0  0  0
 25 23  1  0  0  0  0
 25 17  2  0  0  0  0
 26 25  1  0  0  0  0
 27 33  1  0  0  0  0
 28  1  1  0  0  0  0
 28 27  2  0  0  0  0
 29 28  1  0  0  0  0
 30 29  2  0  0  0  0
 30 31  1  0  0  0  0
 31 32  2  0  0  0  0
 32 27  1  0  0  0  0
 34 29  1  0  0  0  0
 35 31  1  0  0  0  0
 35 36  1  0  0  0  0
 36 41  1  0  0  0  0
 37 36  2  0  0  0  0
 37 42  1  0  0  0  0
 38 37  1  0  0  0  0
 39 40  1  0  0  0  0
 39 38  2  0  0  0  0
 40 35  2  0  0  0  0
 43 38  1  0  0  0  0
 44 39  1  0  0  0  0
M  END
>  <minimizedAffinity>
-4.34761477

>  <minimizedRMSD>
1.19015205

$$$$
