
 OpenBabel03272502533D

 29 31  0  0  0  0  0  0  0  0999 V2000
   35.8210   30.1740   48.2350 C   0  0  0  0  0  0  0  0  0  0  0  0
   35.7540   29.1460   49.1680 C   0  0  0  0  0  0  0  0  0  0  0  0
   34.7610   28.1890   49.0980 C   0  0  0  0  0  0  0  0  0  0  0  0
   33.8560   28.3090   48.0720 C   0  0  0  0  0  0  0  0  0  0  0  0
   33.9080   29.3270   47.1350 C   0  0  0  0  0  0  0  0  0  0  0  0
   34.9100   30.2620   47.2350 N   0  0  0  0  0  0  0  0  0  0  0  0
   36.5210   29.1320   49.9510 H   0  0  0  0  0  0  0  0  0  0  0  0
   34.7450   27.4120   49.8380 H   0  0  0  0  0  0  0  0  0  0  0  0
   33.0850   27.5580   48.0270 H   0  0  0  0  0  0  0  0  0  0  0  0
   34.9340   28.5060   44.4230 Cl  0  0  0  0  0  0  0  0  0  0  0  0
   33.3020   29.1050   44.7630 C   0  0  0  0  0  0  0  0  0  0  0  0
   32.9460   29.4510   46.0480 C   0  0  0  0  0  0  0  0  0  0  0  0
   31.6560   29.9040   46.2070 C   0  0  0  0  0  0  0  0  0  0  0  0
   31.3110   30.1910   47.1790 H   0  0  0  0  0  0  0  0  0  0  0  0
   30.7390   30.0240   45.1880 C   0  0  0  0  0  0  0  0  0  0  0  0
   29.7270   30.3870   45.3520 H   0  0  0  0  0  0  0  0  0  0  0  0
   31.1320   29.6670   43.9030 C   0  0  0  0  0  0  0  0  0  0  0  0
   30.4970   29.7230   43.0450 H   0  0  0  0  0  0  0  0  0  0  0  0
   32.4160   29.2060   43.6980 C   0  0  0  0  0  0  0  0  0  0  0  0
   32.9530   28.7420   42.0810 Cl  0  0  0  0  0  0  0  0  0  0  0  0
   37.9800   32.8100   49.5710 C   0  0  0  0  0  0  0  0  0  0  0  0
   38.8750   33.0480   48.5030 C   0  0  0  0  0  0  0  0  0  0  0  0
   38.7190   32.2880   47.3260 C   0  0  0  0  0  0  0  0  0  0  0  0
   37.7100   31.3830   47.3220 N   0  0  0  0  0  0  0  0  0  0  0  0
   36.8730   31.1680   48.3360 C   0  0  0  0  0  0  0  0  0  0  0  0
   37.0270   31.8890   49.4420 N   0  0  0  0  0  0  0  0  0  0  0  0
   38.0970   33.4000   50.4930 H   0  0  0  0  0  0  0  0  0  0  0  0
   39.6640   33.7810   48.5560 H   0  0  0  0  0  0  0  0  0  0  0  0
   39.3820   32.4540   46.5150 H   0  0  0  0  0  0  0  0  0  0  0  0
  1 25  1  0  0  0  0
  1  2  1  0  0  0  0
  2  7  1  0  0  0  0
  3  2  2  0  0  0  0
  3  8  1  0  0  0  0
  4  3  1  0  0  0  0
  5  6  1  0  0  0  0
  5  4  2  0  0  0  0
  6  1  2  0  0  0  0
  9  4  1  0  0  0  0
 10 11  1  0  0  0  0
 11 12  1  0  0  0  0
 12 13  2  0  0  0  0
 12  5  1  0  0  0  0
 13 14  1  0  0  0  0
 15 16  1  0  0  0  0
 15 13  1  0  0  0  0
 17 15  2  0  0  0  0
 18 17  1  0  0  0  0
 19 17  1  0  0  0  0
 19 11  2  0  0  0  0
 20 19  1  0  0  0  0
 21 27  1  0  0  0  0
 22 28  1  0  0  0  0
 22 21  2  0  0  0  0
 23 22  1  0  0  0  0
 24 23  2  0  0  0  0
 24 25  1  0  0  0  0
 25 26  2  0  0  0  0
 26 21  1  0  0  0  0
 29 23  1  0  0  0  0
M  END
>  <minimizedAffinity>
-5.04355431

>  <minimizedRMSD>
1.31368268

$$$$
