
 OpenBabel03272508553D

 40 43  0  0  1  0  0  0  0  0999 V2000
   38.2430   31.9290   44.5500 C   0  0  0  0  0  0  0  0  0  0  0  0
   37.0580   32.3570   44.4720 O   0  0  0  0  0  0  0  0  0  0  0  0
   38.8820   31.7880   45.8280 N   0  0  0  0  0  0  0  0  0  0  0  0
   39.8920   31.6260   45.9420 H   0  0  0  0  0  0  0  0  0  0  0  0
   39.0080   31.5620   43.3410 C   0  0  0  0  0  0  0  0  0  0  0  0
   40.1230   30.7800   43.4820 C   0  0  0  0  0  0  0  0  0  0  0  0
   40.8140   30.4540   42.3270 C   0  0  0  0  0  0  0  0  0  0  0  0
   40.3580   30.9190   41.1330 C   0  0  0  0  0  0  0  0  0  0  0  0
   39.2330   31.7080   40.9800 C   0  0  0  0  0  0  0  0  0  0  0  0
   38.6050   31.9920   42.1290 N   0  0  0  0  0  0  0  0  0  0  0  0
   40.4990   30.4020   44.4220 H   0  0  0  0  0  0  0  0  0  0  0  0
   41.7190   29.8280   42.3750 H   0  0  0  0  0  0  0  0  0  0  0  0
   40.9290   30.6390   40.2570 H   0  0  0  0  0  0  0  0  0  0  0  0
   37.4520   29.8250   39.6060 Cl  0  0  0  0  0  0  0  0  0  0  0  0
   37.9140   31.4060   38.9670 C   0  0  0  0  0  0  0  0  0  0  0  0
   38.7540   32.2000   39.7010 C   0  0  0  0  0  0  0  0  0  0  0  0
   39.0900   33.4080   39.1810 C   0  0  0  0  0  0  0  0  0  0  0  0
   39.7440   34.0750   39.7110 H   0  0  0  0  0  0  0  0  0  0  0  0
   38.6040   33.8330   37.9510 C   0  0  0  0  0  0  0  0  0  0  0  0
   38.8600   34.8040   37.5080 H   0  0  0  0  0  0  0  0  0  0  0  0
   37.7620   32.9900   37.2570 C   0  0  0  0  0  0  0  0  0  0  0  0
   37.3510   33.2670   36.2890 H   0  0  0  0  0  0  0  0  0  0  0  0
   37.3910   31.7520   37.7410 C   0  0  0  0  0  0  0  0  0  0  0  0
   36.3170   30.6550   36.8770 Cl  0  0  0  0  0  0  0  0  0  0  0  0
   38.4430   31.1790   48.2030 C   0  0  2  0  0  0  0  0  0  0  0  0
   38.7420   32.6190   48.1850 C   0  0  0  0  0  0  0  0  0  0  0  0
   38.0470   31.8820   47.0090 C   0  0  1  0  0  0  0  0  0  0  0  0
   39.3540   30.5420   48.2180 H   0  0  0  0  0  0  0  0  0  0  0  0
   38.1080   33.3240   48.7620 H   0  0  0  0  0  0  0  0  0  0  0  0
   39.7620   32.9660   48.0340 H   0  0  0  0  0  0  0  0  0  0  0  0
   36.9910   32.1890   46.8600 H   0  0  0  0  0  0  0  0  0  0  0  0
   35.1370   30.2000   49.5450 C   0  0  0  0  0  0  0  0  0  0  0  0
   35.4820   29.5290   50.7510 C   0  0  0  0  0  0  0  0  0  0  0  0
   36.8760   29.4360   51.0810 C   0  0  0  0  0  0  0  0  0  0  0  0
   37.8030   29.9820   50.2410 N   0  0  0  0  0  0  0  0  0  0  0  0
   37.3850   30.6120   49.0990 C   0  0  0  0  0  0  0  0  0  0  0  0
   36.0630   30.7390   48.7210 N   0  0  0  0  0  0  0  0  0  0  0  0
   34.1080   30.2970   49.2550 H   0  0  0  0  0  0  0  0  0  0  0  0
   34.7220   29.1160   51.3780 H   0  0  0  0  0  0  0  0  0  0  0  0
   37.1530   28.9290   51.9930 H   0  0  0  0  0  0  0  0  0  0  0  0
  1  3  1  0  0  0  0
  2  1  2  0  0  0  0
  3  4  1  0  0  0  0
  3 27  1  0  0  0  0
  5  6  1  0  0  0  0
  5  1  1  0  0  0  0
  6 11  1  0  0  0  0
  7 12  1  0  0  0  0
  7  6  2  0  0  0  0
  8  7  1  0  0  0  0
  9  8  2  0  0  0  0
  9 10  1  0  0  0  0
 10  5  2  0  0  0  0
 13  8  1  0  0  0  0
 15 14  1  0  0  0  0
 15 16  1  0  0  0  0
 16  9  1  0  0  0  0
 17 16  2  0  0  0  0
 17 18  1  0  0  0  0
 19 17  1  0  0  0  0
 20 19  1  0  0  0  0
 21 23  1  0  0  0  0
 21 19  2  0  0  0  0
 22 21  1  0  0  0  0
 23 15  2  0  0  0  0
 24 23  1  0  0  0  0
 25 28  1  6  0  0  0
 25 36  1  0  0  0  0
 26 25  1  0  0  0  0
 26 29  1  0  0  0  0
 27 31  1  6  0  0  0
 27 26  1  0  0  0  0
 27 25  1  0  0  0  0
 30 26  1  0  0  0  0
 32 33  1  0  0  0  0
 33 34  2  0  0  0  0
 33 39  1  0  0  0  0
 34 40  1  0  0  0  0
 35 34  1  0  0  0  0
 36 35  2  0  0  0  0
 37 36  1  0  0  0  0
 37 32  2  0  0  0  0
 38 32  1  0  0  0  0
M  END
>  <minimizedAffinity>
-5.05695057

>  <minimizedRMSD>
0.917039156

$$$$
