
 OpenBabel03272507103D

 29 31  0  0  0  0  0  0  0  0999 V2000
   36.0150   29.6670   49.8640 C   0  0  0  0  0  0  0  0  0  0  0  0
   34.9240   29.5520   50.6750 C   0  0  0  0  0  0  0  0  0  0  0  0
   33.9480   28.8500   49.9540 C   0  0  0  0  0  0  0  0  0  0  0  0
   34.5240   28.5810   48.7270 C   0  0  0  0  0  0  0  0  0  0  0  0
   35.7320   29.0780   48.7240 O   0  0  0  0  0  0  0  0  0  0  0  0
   34.7940   29.9190   51.6910 H   0  0  0  0  0  0  0  0  0  0  0  0
   32.9440   28.5680   50.2720 H   0  0  0  0  0  0  0  0  0  0  0  0
   33.3800   30.3560   46.6300 Cl  0  0  0  0  0  0  0  0  0  0  0  0
   33.3530   28.6170   46.5960 C   0  0  0  0  0  0  0  0  0  0  0  0
   33.9080   27.8650   47.6130 C   0  0  0  0  0  0  0  0  0  0  0  0
   33.8930   26.4870   47.5960 C   0  0  0  0  0  0  0  0  0  0  0  0
   34.3300   25.9050   48.3970 H   0  0  0  0  0  0  0  0  0  0  0  0
   33.3140   25.7810   46.5500 C   0  0  0  0  0  0  0  0  0  0  0  0
   33.2640   24.7110   46.4680 H   0  0  0  0  0  0  0  0  0  0  0  0
   32.7710   26.5820   45.5570 C   0  0  0  0  0  0  0  0  0  0  0  0
   32.3060   26.0430   44.7150 H   0  0  0  0  0  0  0  0  0  0  0  0
   32.7600   27.9620   45.5240 C   0  0  0  0  0  0  0  0  0  0  0  0
   32.0280   28.8240   44.1870 Cl  0  0  0  0  0  0  0  0  0  0  0  0
   37.2300   30.3420   50.2800 C   0  0  0  0  0  0  0  0  0  0  0  0
   37.6370   30.1950   51.4500 O   0  0  0  0  0  0  0  0  0  0  0  0
   37.9040   31.1570   49.2980 C   0  0  0  0  0  0  0  0  0  0  0  0
   38.2320   32.4580   49.6540 C   0  0  0  0  0  0  0  0  0  0  0  0
   38.8820   33.2760   48.7350 C   0  0  0  0  0  0  0  0  0  0  0  0
   39.1650   32.7430   47.5140 N   0  0  0  0  0  0  0  0  0  0  0  0
   38.8430   31.4830   47.1820 C   0  0  0  0  0  0  0  0  0  0  0  0
   38.2150   30.6940   48.0690 N   0  0  0  0  0  0  0  0  0  0  0  0
   37.9790   32.8180   50.6370 H   0  0  0  0  0  0  0  0  0  0  0  0
   39.1140   34.2640   49.0470 H   0  0  0  0  0  0  0  0  0  0  0  0
   39.1100   31.1500   46.1890 H   0  0  0  0  0  0  0  0  0  0  0  0
  1 19  1  0  0  0  0
  1  2  2  0  0  0  0
  2  6  1  0  0  0  0
  3  7  1  0  0  0  0
  3  2  1  0  0  0  0
  4  3  2  0  0  0  0
  5  4  1  0  0  0  0
  5  1  1  0  0  0  0
  9  8  1  0  0  0  0
  9 10  1  0  0  0  0
 10  4  1  0  0  0  0
 11 10  2  0  0  0  0
 11 12  1  0  0  0  0
 13 11  1  0  0  0  0
 14 13  1  0  0  0  0
 15 13  2  0  0  0  0
 16 15  1  0  0  0  0
 17 15  1  0  0  0  0
 17  9  2  0  0  0  0
 18 17  1  0  0  0  0
 19 20  2  0  0  0  0
 21 22  1  0  0  0  0
 21 19  1  0  0  0  0
 22 27  1  0  0  0  0
 23 28  1  0  0  0  0
 23 22  2  0  0  0  0
 24 23  1  0  0  0  0
 25 24  2  0  0  0  0
 25 26  1  0  0  0  0
 26 21  2  0  0  0  0
 29 25  1  0  0  0  0
M  END
>  <minimizedAffinity>
-5.69127512

>  <minimizedRMSD>
1.86746156

$$$$
