
 OpenBabel03272503413D

 43 46  0  0  1  0  0  0  0  0999 V2000
   39.9020   30.7360   41.8470 C   0  0  2  0  0  0  0  0  0  0  0  0
   39.9010   31.9750   42.7640 C   0  0  1  0  0  0  0  0  0  0  0  0
   38.8220   32.7670   42.0730 C   0  0  0  0  0  0  0  0  0  0  0  0
   38.9410   32.5330   40.7240 O   0  0  0  0  0  0  0  0  0  0  0  0
   39.7780   31.4820   40.5120 C   0  0  0  0  0  0  0  0  0  0  0  0
   40.8330   30.1790   41.9180 H   0  0  0  0  0  0  0  0  0  0  0  0
   40.8410   32.5220   42.7270 H   0  0  0  0  0  0  0  0  0  0  0  0
   37.8450   32.4190   42.4600 H   0  0  0  0  0  0  0  0  0  0  0  0
   38.9120   33.8580   42.2350 H   0  0  0  0  0  0  0  0  0  0  0  0
   39.5480   30.8210   39.6790 H   0  0  0  0  0  0  0  0  0  0  0  0
   40.7980   31.9150   40.3160 H   0  0  0  0  0  0  0  0  0  0  0  0
   38.4960   31.0950   45.9500 C   0  0  0  0  0  0  0  0  0  0  0  0
   39.8280   31.0510   46.2620 C   0  0  0  0  0  0  0  0  0  0  0  0
   40.4670   31.3850   45.0670 C   0  0  0  0  0  0  0  0  0  0  0  0
   39.5610   31.6100   44.1110 N   0  0  0  0  0  0  0  0  0  0  0  0
   38.3510   31.4320   44.6490 N   0  0  0  0  0  0  0  0  0  0  0  0
   40.3000   30.8120   47.2240 H   0  0  0  0  0  0  0  0  0  0  0  0
   41.5640   31.4260   45.0370 H   0  0  0  0  0  0  0  0  0  0  0  0
   36.4630   30.6420   49.0700 C   0  0  0  0  0  0  0  0  0  0  0  0
   37.5420   30.9160   48.2410 C   0  0  0  0  0  0  0  0  0  0  0  0
   37.3980   30.8190   46.8700 C   0  0  0  0  0  0  0  0  0  0  0  0
   36.1940   30.4570   46.3850 N   0  0  0  0  0  0  0  0  0  0  0  0
   35.1500   30.1940   47.2170 C   0  0  0  0  0  0  0  0  0  0  0  0
   35.2800   30.2840   48.5340 N   0  0  0  0  0  0  0  0  0  0  0  0
   38.5370   31.2120   48.5560 H   0  0  0  0  0  0  0  0  0  0  0  0
   34.1950   29.9050   46.8010 H   0  0  0  0  0  0  0  0  0  0  0  0
   36.7650   30.7840   50.4240 O   0  0  0  0  0  0  0  0  0  0  0  0
   36.8100   29.7060   51.3220 C   0  0  0  0  0  0  0  0  0  0  0  0
   35.5550   29.2120   51.6220 F   0  0  0  0  0  0  0  0  0  0  0  0
   37.4790   30.0950   52.4570 F   0  0  0  0  0  0  0  0  0  0  0  0
   37.5630   28.6900   50.7390 F   0  0  0  0  0  0  0  0  0  0  0  0
   38.7240   30.0670   42.1080 O   0  0  0  0  0  0  0  0  0  0  0  0
   35.8630   29.2610   42.3910 Cl  0  0  0  0  0  0  0  0  0  0  0  0
   37.3020   28.2550   42.5090 C   0  0  0  0  0  0  0  0  0  0  0  0
   38.6030   28.7300   42.3610 C   0  0  0  0  0  0  0  0  0  0  0  0
   39.6330   27.8200   42.4810 C   0  0  0  0  0  0  0  0  0  0  0  0
   40.6360   28.1940   42.3660 H   0  0  0  0  0  0  0  0  0  0  0  0
   39.4270   26.4720   42.7400 C   0  0  0  0  0  0  0  0  0  0  0  0
   40.2700   25.8090   42.8240 H   0  0  0  0  0  0  0  0  0  0  0  0
   38.1160   26.0240   42.8840 C   0  0  0  0  0  0  0  0  0  0  0  0
   37.9780   24.9620   43.0870 H   0  0  0  0  0  0  0  0  0  0  0  0
   37.0610   26.9210   42.7680 C   0  0  0  0  0  0  0  0  0  0  0  0
   35.4780   26.2110   42.9720 Cl  0  0  0  0  0  0  0  0  0  0  0  0
  1  6  1  1  0  0  0
  1 32  1  0  0  0  0
  1  2  1  0  0  0  0
  2  7  1  6  0  0  0
  2 15  1  0  0  0  0
  3  9  1  0  0  0  0
  3  8  1  0  0  0  0
  3  2  1  0  0  0  0
  4  3  1  0  0  0  0
  5  4  1  0  0  0  0
  5  1  1  0  0  0  0
 10  5  1  0  0  0  0
 11  5  1  0  0  0  0
 12 13  1  0  0  0  0
 12 21  1  0  0  0  0
 13 17  1  0  0  0  0
 14 13  2  0  0  0  0
 15 16  1  0  0  0  0
 15 14  1  0  0  0  0
 16 12  2  0  0  0  0
 18 14  1  0  0  0  0
 19 27  1  0  0  0  0
 20 25  1  0  0  0  0
 20 19  2  0  0  0  0
 21 20  1  0  0  0  0
 22 21  2  0  0  0  0
 22 23  1  0  0  0  0
 23 24  2  0  0  0  0
 24 19  1  0  0  0  0
 26 23  1  0  0  0  0
 27 28  1  0  0  0  0
 28 29  1  0  0  0  0
 28 30  1  0  0  0  0
 31 28  1  0  0  0  0
 32 35  1  0  0  0  0
 33 34  1  0  0  0  0
 34 42  1  0  0  0  0
 35 36  1  0  0  0  0
 35 34  2  0  0  0  0
 36 38  2  0  0  0  0
 37 36  1  0  0  0  0
 38 39  1  0  0  0  0
 38 40  1  0  0  0  0
 40 41  1  0  0  0  0
 42 40  2  0  0  0  0
 42 43  1  0  0  0  0
M  END
>  <minimizedAffinity>
-6.42713976

>  <minimizedRMSD>
0.175730228

$$$$
