
 OpenBabel03272503203D

 37 40  0  0  0  0  0  0  0  0999 V2000
   35.7820   29.0360   50.3410 C   0  0  0  0  0  0  0  0  0  0  0  0
   36.5470   29.7960   49.4400 C   0  0  0  0  0  0  0  0  0  0  0  0
   36.0630   29.9390   48.1250 C   0  0  0  0  0  0  0  0  0  0  0  0
   34.9130   29.3580   47.7870 N   0  0  0  0  0  0  0  0  0  0  0  0
   34.2040   28.6320   48.6850 C   0  0  0  0  0  0  0  0  0  0  0  0
   34.6330   28.4770   49.9350 N   0  0  0  0  0  0  0  0  0  0  0  0
   36.2260   28.9780   51.3270 H   0  0  0  0  0  0  0  0  0  0  0  0
   37.4730   30.2930   49.6260 H   0  0  0  0  0  0  0  0  0  0  0  0
   34.1150   27.5560   45.8280 Cl  0  0  0  0  0  0  0  0  0  0  0  0
   32.8070   27.5030   46.9840 C   0  0  0  0  0  0  0  0  0  0  0  0
   32.9520   28.0200   48.2530 C   0  0  0  0  0  0  0  0  0  0  0  0
   31.8840   27.9500   49.1230 C   0  0  0  0  0  0  0  0  0  0  0  0
   32.0240   28.3640   50.1170 H   0  0  0  0  0  0  0  0  0  0  0  0
   30.6590   27.3880   48.8000 C   0  0  0  0  0  0  0  0  0  0  0  0
   29.8410   27.3430   49.4900 H   0  0  0  0  0  0  0  0  0  0  0  0
   30.5810   26.8870   47.5080 C   0  0  0  0  0  0  0  0  0  0  0  0
   29.6090   26.4400   47.2500 H   0  0  0  0  0  0  0  0  0  0  0  0
   31.6180   26.9270   46.5870 C   0  0  0  0  0  0  0  0  0  0  0  0
   31.3410   26.2450   44.9970 Cl  0  0  0  0  0  0  0  0  0  0  0  0
   36.8120   30.7200   47.1340 C   0  0  0  0  0  0  0  0  0  0  0  0
   37.7410   31.6680   47.2540 C   0  0  0  0  0  0  0  0  0  0  0  0
   38.2700   32.2250   46.1570 C   0  0  0  0  0  0  0  0  0  0  0  0
   37.8160   31.7810   44.9310 C   0  0  0  0  0  0  0  0  0  0  0  0
   36.5890   30.5190   45.4040 S   0  0  0  0  0  0  0  0  0  0  0  0
   38.0400   31.9580   48.2570 H   0  0  0  0  0  0  0  0  0  0  0  0
   39.0260   32.9980   46.1010 H   0  0  0  0  0  0  0  0  0  0  0  0
   40.6220   31.0060   44.0090 Cl  0  0  0  0  0  0  0  0  0  0  0  0
   39.3740   31.8090   43.0840 C   0  0  0  0  0  0  0  0  0  0  0  0
   38.1340   32.1260   43.5630 C   0  0  0  0  0  0  0  0  0  0  0  0
   37.1550   32.7420   42.8780 C   0  0  0  0  0  0  0  0  0  0  0  0
   37.3910   33.1060   41.5510 C   0  0  0  0  0  0  0  0  0  0  0  0
   38.6150   32.8190   41.0010 C   0  0  0  0  0  0  0  0  0  0  0  0
   38.9720   33.2520   39.3370 Cl  0  0  0  0  0  0  0  0  0  0  0  0
   39.6140   32.1730   41.7530 C   0  0  0  0  0  0  0  0  0  0  0  0
   36.1700   32.9930   43.2620 H   0  0  0  0  0  0  0  0  0  0  0  0
   36.6410   33.6030   40.9530 H   0  0  0  0  0  0  0  0  0  0  0  0
   40.5830   31.9420   41.3290 H   0  0  0  0  0  0  0  0  0  0  0  0
  1  7  1  0  0  0  0
  2  8  1  0  0  0  0
  2  1  2  0  0  0  0
  3  2  1  0  0  0  0
  4  3  2  0  0  0  0
  4  5  1  0  0  0  0
  5  6  2  0  0  0  0
  6  1  1  0  0  0  0
  9 10  1  0  0  0  0
 10 11  1  0  0  0  0
 11  5  1  0  0  0  0
 11 12  2  0  0  0  0
 12 13  1  0  0  0  0
 14 12  1  0  0  0  0
 14 15  1  0  0  0  0
 16 14  2  0  0  0  0
 17 16  1  0  0  0  0
 18 10  2  0  0  0  0
 18 16  1  0  0  0  0
 19 18  1  0  0  0  0
 20 21  2  0  0  0  0
 20  3  1  0  0  0  0
 21 25  1  0  0  0  0
 22 21  1  0  0  0  0
 23 24  1  0  0  0  0
 23 22  2  0  0  0  0
 24 20  1  0  0  0  0
 26 22  1  0  0  0  0
 28 29  1  0  0  0  0
 28 27  1  0  0  0  0
 29 23  1  0  0  0  0
 30 35  1  0  0  0  0
 30 29  2  0  0  0  0
 31 30  1  0  0  0  0
 32 31  2  0  0  0  0
 32 34  1  0  0  0  0
 33 32  1  0  0  0  0
 34 28  2  0  0  0  0
 36 31  1  0  0  0  0
 37 34  1  0  0  0  0
M  END
>  <minimizedAffinity>
-5.80940533

>  <minimizedRMSD>
1.89645612

$$$$
