
 OpenBabel03272507143D

 42 46  0  0  0  0  0  0  0  0999 V2000
   35.8440   29.2080   49.8090 C   0  0  0  0  0  0  0  0  0  0  0  0
   34.8310   29.5830   50.6320 C   0  0  0  0  0  0  0  0  0  0  0  0
   33.6760   28.9590   50.1600 C   0  0  0  0  0  0  0  0  0  0  0  0
   34.0800   28.2200   49.0410 C   0  0  0  0  0  0  0  0  0  0  0  0
   35.3550   28.4150   48.8980 O   0  0  0  0  0  0  0  0  0  0  0  0
   34.8730   30.2390   51.5000 H   0  0  0  0  0  0  0  0  0  0  0  0
   32.7210   29.0850   50.6310 H   0  0  0  0  0  0  0  0  0  0  0  0
   33.5600   26.4360   47.3850 C   0  0  0  0  0  0  0  0  0  0  0  0
   33.1430   27.4110   48.2520 C   0  0  0  0  0  0  0  0  0  0  0  0
   31.7960   27.6960   48.4460 C   0  0  0  0  0  0  0  0  0  0  0  0
   30.8810   26.9450   47.7210 C   0  0  0  0  0  0  0  0  0  0  0  0
   29.5440   27.0030   47.7140 N   0  0  0  0  0  0  0  0  0  0  0  0
   29.1200   26.0750   46.8550 N   0  0  0  0  0  0  0  0  0  0  0  0
   30.1720   25.4440   46.3300 C   0  0  0  0  0  0  0  0  0  0  0  0
   31.3440   25.9730   46.8590 C   0  0  0  0  0  0  0  0  0  0  0  0
   32.6880   25.6930   46.6680 C   0  0  0  0  0  0  0  0  0  0  0  0
   34.6460   26.2940   47.3070 H   0  0  0  0  0  0  0  0  0  0  0  0
   31.3990   28.4570   49.1190 H   0  0  0  0  0  0  0  0  0  0  0  0
   28.8950   27.6250   48.2500 H   0  0  0  0  0  0  0  0  0  0  0  0
   30.1910   24.6280   45.5910 H   0  0  0  0  0  0  0  0  0  0  0  0
   33.0060   24.9200   45.9790 H   0  0  0  0  0  0  0  0  0  0  0  0
   37.2090   29.6770   50.0070 C   0  0  0  0  0  0  0  0  0  0  0  0
   37.8740   29.2240   50.9770 O   0  0  0  0  0  0  0  0  0  0  0  0
   37.7230   30.6450   49.0660 C   0  0  0  0  0  0  0  0  0  0  0  0
   38.2340   31.8210   49.5850 C   0  0  0  0  0  0  0  0  0  0  0  0
   38.7390   32.7800   48.7130 C   0  0  0  0  0  0  0  0  0  0  0  0
   38.6980   32.4910   47.3820 N   0  0  0  0  0  0  0  0  0  0  0  0
   38.1990   31.3460   46.9010 C   0  0  0  0  0  0  0  0  0  0  0  0
   37.7180   30.4370   47.7510 N   0  0  0  0  0  0  0  0  0  0  0  0
   38.2910   32.0980   50.6150 H   0  0  0  0  0  0  0  0  0  0  0  0
   39.1550   33.7260   49.0700 H   0  0  0  0  0  0  0  0  0  0  0  0
   40.8600   30.9180   45.7340 Cl  0  0  0  0  0  0  0  0  0  0  0  0
   39.3690   30.8750   44.7900 C   0  0  0  0  0  0  0  0  0  0  0  0
   38.1820   31.0930   45.4620 C   0  0  0  0  0  0  0  0  0  0  0  0
   36.9900   31.0700   44.7690 C   0  0  0  0  0  0  0  0  0  0  0  0
   36.0380   31.2350   45.2550 H   0  0  0  0  0  0  0  0  0  0  0  0
   36.9880   30.8260   43.3920 C   0  0  0  0  0  0  0  0  0  0  0  0
   36.0810   30.7940   42.7780 H   0  0  0  0  0  0  0  0  0  0  0  0
   38.2000   30.6150   42.7700 C   0  0  0  0  0  0  0  0  0  0  0  0
   38.2100   30.4250   41.7070 H   0  0  0  0  0  0  0  0  0  0  0  0
   39.3940   30.6340   43.4430 C   0  0  0  0  0  0  0  0  0  0  0  0
   40.9540   30.3670   42.6680 Cl  0  0  0  0  0  0  0  0  0  0  0  0
  1 22  1  0  0  0  0
  1  2  2  0  0  0  0
  2  6  1  0  0  0  0
  3  7  1  0  0  0  0
  3  2  1  0  0  0  0
  4  3  2  0  0  0  0
  5  4  1  0  0  0  0
  5  1  1  0  0  0  0
  8  9  1  0  0  0  0
  9 10  2  0  0  0  0
  9  4  1  0  0  0  0
 10 18  1  0  0  0  0
 11 10  1  0  0  0  0
 12 11  1  0  0  0  0
 12 19  1  0  0  0  0
 13 12  1  0  0  0  0
 14 13  2  0  0  0  0
 14 15  1  0  0  0  0
 15 11  2  0  0  0  0
 16 15  1  0  0  0  0
 16  8  2  0  0  0  0
 17  8  1  0  0  0  0
 20 14  1  0  0  0  0
 21 16  1  0  0  0  0
 22 23  2  0  0  0  0
 24 25  1  0  0  0  0
 24 22  1  0  0  0  0
 25 30  1  0  0  0  0
 26 31  1  0  0  0  0
 26 25  2  0  0  0  0
 27 26  1  0  0  0  0
 28 27  2  0  0  0  0
 28 29  1  0  0  0  0
 29 24  2  0  0  0  0
 33 34  1  0  0  0  0
 33 32  1  0  0  0  0
 34 28  1  0  0  0  0
 35 36  1  0  0  0  0
 35 34  2  0  0  0  0
 37 35  1  0  0  0  0
 38 37  1  0  0  0  0
 39 37  2  0  0  0  0
 39 41  1  0  0  0  0
 40 39  1  0  0  0  0
 41 33  2  0  0  0  0
 42 41  1  0  0  0  0
M  END
>  <minimizedAffinity>
-7.14357615

>  <minimizedRMSD>
1.0068121

$$$$
