
 OpenBabel03262520233D

 34 36  0  0  0  0  0  0  0  0999 V2000
   35.7740   29.5050   48.9680 C   0  0  0  0  0  0  0  0  0  0  0  0
   36.1100   28.9020   50.1750 C   0  0  0  0  0  0  0  0  0  0  0  0
   37.1720   29.1990   50.9650 C   0  0  0  0  0  0  0  0  0  0  0  0
   38.0200   30.1750   50.5810 C   0  0  0  0  0  0  0  0  0  0  0  0
   37.7270   30.7780   49.4190 C   0  0  0  0  0  0  0  0  0  0  0  0
   36.6760   30.4200   48.7260 N   0  0  0  0  0  0  0  0  0  0  0  0
   35.4480   28.0680   50.5730 H   0  0  0  0  0  0  0  0  0  0  0  0
   37.3350   28.6340   51.9260 H   0  0  0  0  0  0  0  0  0  0  0  0
   38.8300   30.4330   51.1780 H   0  0  0  0  0  0  0  0  0  0  0  0
   38.7800   30.5620   46.4860 Cl  0  0  0  0  0  0  0  0  0  0  0  0
   38.9920   31.9180   47.5200 C   0  0  0  0  0  0  0  0  0  0  0  0
   38.4790   31.8930   48.7840 C   0  0  0  0  0  0  0  0  0  0  0  0
   38.7020   33.0700   49.4660 C   0  0  0  0  0  0  0  0  0  0  0  0
   38.3420   33.1850   50.4920 H   0  0  0  0  0  0  0  0  0  0  0  0
   39.3640   34.1610   48.9570 C   0  0  0  0  0  0  0  0  0  0  0  0
   39.4990   35.0470   49.5590 H   0  0  0  0  0  0  0  0  0  0  0  0
   39.8600   34.1250   47.6780 C   0  0  0  0  0  0  0  0  0  0  0  0
   40.3680   34.9830   47.3120 H   0  0  0  0  0  0  0  0  0  0  0  0
   39.6510   32.9630   46.9720 C   0  0  0  0  0  0  0  0  0  0  0  0
   40.2930   32.9440   45.3410 Cl  0  0  0  0  0  0  0  0  0  0  0  0
   33.6810   28.4230   49.1370 C   0  0  0  0  0  0  0  0  0  0  0  0
   34.5750   29.1080   48.2530 C   0  0  0  0  0  0  0  0  0  0  0  0
   34.1590   29.2710   46.9580 C   0  0  0  0  0  0  0  0  0  0  0  0
   32.9270   28.7670   46.6250 N   0  0  0  0  0  0  0  0  0  0  0  0
   32.1080   28.1350   47.4530 C   0  0  0  0  0  0  0  0  0  0  0  0
   32.5040   27.9700   48.7160 N   0  0  0  0  0  0  0  0  0  0  0  0
   30.8840   27.6930   46.9220 N   0  0  0  0  0  0  0  0  0  0  0  0
   33.8730   28.2200   50.1810 H   0  0  0  0  0  0  0  0  0  0  0  0
   30.0000   28.2310   47.0660 H   0  0  0  0  0  0  0  0  0  0  0  0
   31.0640   26.7960   46.4080 H   0  0  0  0  0  0  0  0  0  0  0  0
   35.0270   29.9660   46.0080 C   0  0  0  0  0  0  0  0  0  0  0  0
   35.9890   29.1440   45.6310 F   0  0  0  0  0  0  0  0  0  0  0  0
   34.3640   30.4620   44.9010 F   0  0  0  0  0  0  0  0  0  0  0  0
   35.6460   31.0990   46.6100 F   0  0  0  0  0  0  0  0  0  0  0  0
  1  2  1  0  0  0  0
  2  7  1  0  0  0  0
  2  3  2  0  0  0  0
  3  8  1  0  0  0  0
  4  3  1  0  0  0  0
  4  9  1  0  0  0  0
  5  4  2  0  0  0  0
  6  1  2  0  0  0  0
  6  5  1  0  0  0  0
 10 11  1  0  0  0  0
 11 12  1  0  0  0  0
 12  5  1  0  0  0  0
 12 13  2  0  0  0  0
 13 14  1  0  0  0  0
 15 13  1  0  0  0  0
 15 16  1  0  0  0  0
 17 15  2  0  0  0  0
 18 17  1  0  0  0  0
 19 11  2  0  0  0  0
 19 17  1  0  0  0  0
 20 19  1  0  0  0  0
 21 28  1  0  0  0  0
 22  1  1  0  0  0  0
 22 21  2  0  0  0  0
 23 22  1  0  0  0  0
 24 23  2  0  0  0  0
 24 25  1  0  0  0  0
 25 26  2  0  0  0  0
 26 21  1  0  0  0  0
 27 29  1  0  0  0  0
 27 25  1  0  0  0  0
 30 27  1  0  0  0  0
 31 34  1  0  0  0  0
 31 23  1  0  0  0  0
 32 31  1  0  0  0  0
 33 31  1  0  0  0  0
M  END
>  <minimizedAffinity>
-6.69230175

>  <minimizedRMSD>
3.29944634

$$$$
