
 OpenBabel03272508063D

 37 40  0  0  0  0  0  0  0  0999 V2000
   38.8690   30.9260   45.8480 C   0  0  0  0  0  0  0  0  0  0  0  0
   40.0340   31.6010   46.0930 C   0  0  0  0  0  0  0  0  0  0  0  0
   40.8860   31.5430   44.9950 C   0  0  0  0  0  0  0  0  0  0  0  0
   40.1640   30.8060   44.1040 N   0  0  0  0  0  0  0  0  0  0  0  0
   38.9980   30.4460   44.5860 N   0  0  0  0  0  0  0  0  0  0  0  0
   40.2850   32.1190   47.0110 H   0  0  0  0  0  0  0  0  0  0  0  0
   41.8560   31.9460   44.8350 H   0  0  0  0  0  0  0  0  0  0  0  0
   37.7180   30.7460   46.7260 C   0  0  0  0  0  0  0  0  0  0  0  0
   37.9260   30.9480   48.1150 C   0  0  0  0  0  0  0  0  0  0  0  0
   36.8330   30.7760   48.9610 C   0  0  0  0  0  0  0  0  0  0  0  0
   35.6390   30.4280   48.4090 N   0  0  0  0  0  0  0  0  0  0  0  0
   35.4790   30.2440   47.0870 C   0  0  0  0  0  0  0  0  0  0  0  0
   36.5220   30.4050   46.2550 N   0  0  0  0  0  0  0  0  0  0  0  0
   38.8990   31.2280   48.5190 H   0  0  0  0  0  0  0  0  0  0  0  0
   34.4940   29.9620   46.6890 H   0  0  0  0  0  0  0  0  0  0  0  0
   37.0350   30.9850   50.4290 C   0  0  0  0  0  0  0  0  0  0  0  0
   36.5390   32.2240   50.7030 F   0  0  0  0  0  0  0  0  0  0  0  0
   36.3410   30.0310   51.1860 F   0  0  0  0  0  0  0  0  0  0  0  0
   38.3750   30.9260   50.7760 F   0  0  0  0  0  0  0  0  0  0  0  0
   40.5530   30.4250   42.7510 C   0  0  0  0  0  0  0  0  0  0  0  0
   40.1730   31.1850   41.6330 C   0  0  0  0  0  0  0  0  0  0  0  0
   40.5790   30.7920   40.3940 C   0  0  0  0  0  0  0  0  0  0  0  0
   41.3700   29.6310   40.2430 C   0  0  0  0  0  0  0  0  0  0  0  0
   41.5210   29.0980   42.0000 S   0  0  0  0  0  0  0  0  0  0  0  0
   39.5540   32.0890   41.7650 H   0  0  0  0  0  0  0  0  0  0  0  0
   40.3060   31.3540   39.5180 H   0  0  0  0  0  0  0  0  0  0  0  0
   43.7790   30.8390   38.7990 Cl  0  0  0  0  0  0  0  0  0  0  0  0
   43.0560   29.2830   38.4590 C   0  0  0  0  0  0  0  0  0  0  0  0
   41.9720   28.9060   39.2170 C   0  0  0  0  0  0  0  0  0  0  0  0
   41.4840   27.6670   38.8650 C   0  0  0  0  0  0  0  0  0  0  0  0
   40.6310   27.2120   39.3590 H   0  0  0  0  0  0  0  0  0  0  0  0
   42.0120   26.8820   37.8680 C   0  0  0  0  0  0  0  0  0  0  0  0
   41.6090   25.9140   37.6130 H   0  0  0  0  0  0  0  0  0  0  0  0
   43.0980   27.3460   37.1640 C   0  0  0  0  0  0  0  0  0  0  0  0
   43.5150   26.7450   36.3900 H   0  0  0  0  0  0  0  0  0  0  0  0
   43.6550   28.5730   37.4440 C   0  0  0  0  0  0  0  0  0  0  0  0
   45.0270   29.1770   36.5670 Cl  0  0  0  0  0  0  0  0  0  0  0  0
  1  2  1  0  0  0  0
  1  8  1  0  0  0  0
  2  6  1  0  0  0  0
  3  2  2  0  0  0  0
  4  5  1  0  0  0  0
  4  3  1  0  0  0  0
  5  1  2  0  0  0  0
  7  3  1  0  0  0  0
  8  9  1  0  0  0  0
  9 14  1  0  0  0  0
  9 10  2  0  0  0  0
 10 16  1  0  0  0  0
 11 10  1  0  0  0  0
 12 11  2  0  0  0  0
 13  8  2  0  0  0  0
 13 12  1  0  0  0  0
 15 12  1  0  0  0  0
 16 17  1  0  0  0  0
 16 19  1  0  0  0  0
 16 18  1  0  0  0  0
 20  4  1  0  0  0  0
 21 25  1  0  0  0  0
 21 20  2  0  0  0  0
 22 21  1  0  0  0  0
 23 22  2  0  0  0  0
 23 24  1  0  0  0  0
 24 20  1  0  0  0  0
 26 22  1  0  0  0  0
 28 27  1  0  0  0  0
 28 29  1  0  0  0  0
 29 23  1  0  0  0  0
 30 29  2  0  0  0  0
 30 31  1  0  0  0  0
 32 30  1  0  0  0  0
 33 32  1  0  0  0  0
 34 36  1  0  0  0  0
 34 32  2  0  0  0  0
 35 34  1  0  0  0  0
 36 28  2  0  0  0  0
 37 36  1  0  0  0  0
M  END
>  <minimizedAffinity>
-6.62020922

>  <minimizedRMSD>
0.89370054

$$$$
