
 OpenBabel03272507353D

 38 41  0  0  1  0  0  0  0  0999 V2000
   39.0270   27.0230   33.0890 C   0  0  0  0  0  0  0  0  0  0  0  0
   40.2340   27.2420   32.7580 O   0  0  0  0  0  0  0  0  0  0  0  0
   38.5940   24.5080   35.5970 C   0  0  0  0  0  0  0  0  0  0  0  0
   38.2030   25.6060   36.3300 C   0  0  0  0  0  0  0  0  0  0  0  0
   38.3080   26.7280   35.4950 C   0  0  0  0  0  0  0  0  0  0  0  0
   38.7620   26.2330   34.2900 C   0  0  0  0  0  0  0  0  0  0  0  0
   38.9150   24.9310   34.3970 O   0  0  0  0  0  0  0  0  0  0  0  0
   37.8590   25.7020   37.3660 H   0  0  0  0  0  0  0  0  0  0  0  0
   38.0790   27.7500   35.7570 H   0  0  0  0  0  0  0  0  0  0  0  0
   38.6090   23.1630   36.1520 C   0  0  0  0  0  0  0  0  0  0  0  0
   39.5110   22.8430   36.9360 O   0  0  0  0  0  0  0  0  0  0  0  0
   37.5550   22.2780   35.7420 C   0  0  0  0  0  0  0  0  0  0  0  0
   37.5270   21.8990   34.4130 C   0  0  0  0  0  0  0  0  0  0  0  0
   36.5140   21.0400   33.9790 C   0  0  0  0  0  0  0  0  0  0  0  0
   35.5950   20.6150   34.9050 N   0  0  0  0  0  0  0  0  0  0  0  0
   35.6490   20.9990   36.1830 C   0  0  0  0  0  0  0  0  0  0  0  0
   36.6190   21.8230   36.6050 N   0  0  0  0  0  0  0  0  0  0  0  0
   38.2470   22.2250   33.6610 H   0  0  0  0  0  0  0  0  0  0  0  0
   36.4220   20.6980   32.9580 H   0  0  0  0  0  0  0  0  0  0  0  0
   34.9470   20.6880   36.9410 H   0  0  0  0  0  0  0  0  0  0  0  0
   37.8860   27.5650   32.2770 C   0  0  1  0  0  0  0  0  0  0  0  0
   38.4090   27.9730   30.8480 C   0  0  0  0  0  0  0  0  0  0  0  0
   37.4270   26.8850   31.0650 C   0  0  1  0  0  0  0  0  0  0  0  0
   37.4190   28.4820   32.7220 H   0  0  0  0  0  0  0  0  0  0  0  0
   38.0590   28.9150   30.4300 H   0  0  0  0  0  0  0  0  0  0  0  0
   39.4110   27.6230   30.5620 H   0  0  0  0  0  0  0  0  0  0  0  0
   36.4080   27.0820   30.7050 H   0  0  0  0  0  0  0  0  0  0  0  0
   35.0570   25.1420   31.2150 Cl  0  0  0  0  0  0  0  0  0  0  0  0
   36.7240   24.5840   31.0170 C   0  0  0  0  0  0  0  0  0  0  0  0
   37.8130   25.4610   30.9530 C   0  0  0  0  0  0  0  0  0  0  0  0
   39.0600   24.8820   30.7970 C   0  0  0  0  0  0  0  0  0  0  0  0
   39.8510   25.6320   30.7570 H   0  0  0  0  0  0  0  0  0  0  0  0
   39.2020   23.5310   30.7120 C   0  0  0  0  0  0  0  0  0  0  0  0
   40.2180   23.1660   30.5910 H   0  0  0  0  0  0  0  0  0  0  0  0
   38.1280   22.6680   30.7750 C   0  0  0  0  0  0  0  0  0  0  0  0
   38.2540   21.5950   30.7060 H   0  0  0  0  0  0  0  0  0  0  0  0
   36.8710   23.2180   30.9310 C   0  0  0  0  0  0  0  0  0  0  0  0
   35.5130   22.1130   31.0100 Cl  0  0  0  0  0  0  0  0  0  0  0  0
  1  6  1  0  0  0  0
  2  1  2  0  0  0  0
  3 10  1  0  0  0  0
  3  4  2  0  0  0  0
  4  8  1  0  0  0  0
  5  9  1  0  0  0  0
  5  4  1  0  0  0  0
  6  7  1  0  0  0  0
  6  5  2  0  0  0  0
  7  3  1  0  0  0  0
 10 11  2  0  0  0  0
 12 10  1  0  0  0  0
 12 17  1  0  0  0  0
 13 12  2  0  0  0  0
 14 13  1  0  0  0  0
 14 15  2  0  0  0  0
 15 16  1  0  0  0  0
 16 17  2  0  0  0  0
 16 20  1  0  0  0  0
 18 13  1  0  0  0  0
 19 14  1  0  0  0  0
 21 24  1  1  0  0  0
 21  1  1  0  0  0  0
 22 23  1  0  0  0  0
 22 21  1  0  0  0  0
 23 27  1  6  0  0  0
 23 21  1  0  0  0  0
 25 22  1  0  0  0  0
 26 22  1  0  0  0  0
 29 28  1  0  0  0  0
 30 29  1  0  0  0  0
 30 23  1  0  0  0  0
 31 30  2  0  0  0  0
 32 31  1  0  0  0  0
 33 35  2  0  0  0  0
 33 31  1  0  0  0  0
 34 33  1  0  0  0  0
 35 37  1  0  0  0  0
 36 35  1  0  0  0  0
 37 38  1  0  0  0  0
 37 29  2  0  0  0  0
M  END
>  <minimizedAffinity>
-5.64695597

$$$$

 OpenBabel03272507353D

 38 41  0  0  1  0  0  0  0  0999 V2000
   35.9200   22.2070   31.5980 C   0  0  0  0  0  0  0  0  0  0  0  0
   36.4690   21.5720   30.6430 O   0  0  0  0  0  0  0  0  0  0  0  0
   36.7400   25.6680   31.9840 C   0  0  0  0  0  0  0  0  0  0  0  0
   35.5510   25.8080   31.3040 C   0  0  0  0  0  0  0  0  0  0  0  0
   35.0570   24.5190   31.0520 C   0  0  0  0  0  0  0  0  0  0  0  0
   35.9910   23.6670   31.6020 C   0  0  0  0  0  0  0  0  0  0  0  0
   36.9570   24.3830   32.1350 O   0  0  0  0  0  0  0  0  0  0  0  0
   35.0030   26.6980   30.9750 H   0  0  0  0  0  0  0  0  0  0  0  0
   34.1410   24.2700   30.5360 H   0  0  0  0  0  0  0  0  0  0  0  0
   37.5340   26.8100   32.4110 C   0  0  0  0  0  0  0  0  0  0  0  0
   38.7670   26.7070   32.4530 O   0  0  0  0  0  0  0  0  0  0  0  0
   36.8200   28.0040   32.7650 C   0  0  0  0  0  0  0  0  0  0  0  0
   36.7080   28.9850   31.7970 C   0  0  0  0  0  0  0  0  0  0  0  0
   36.0210   30.1620   32.1080 C   0  0  0  0  0  0  0  0  0  0  0  0
   35.4910   30.2800   33.3680 N   0  0  0  0  0  0  0  0  0  0  0  0
   35.6170   29.3140   34.2820 C   0  0  0  0  0  0  0  0  0  0  0  0
   36.2750   28.1830   33.9890 N   0  0  0  0  0  0  0  0  0  0  0  0
   37.1210   28.9120   30.7910 H   0  0  0  0  0  0  0  0  0  0  0  0
   35.8900   30.9750   31.4090 H   0  0  0  0  0  0  0  0  0  0  0  0
   35.2160   29.3680   35.2820 H   0  0  0  0  0  0  0  0  0  0  0  0
   35.2020   21.4850   32.7020 C   0  0  1  0  0  0  0  0  0  0  0  0
   35.5960   19.9590   32.6710 C   0  0  0  0  0  0  0  0  0  0  0  0
   35.9380   20.8560   33.8000 C   0  0  1  0  0  0  0  0  0  0  0  0
   34.0860   21.5300   32.6110 H   0  0  0  0  0  0  0  0  0  0  0  0
   34.8020   19.2280   32.8080 H   0  0  0  0  0  0  0  0  0  0  0  0
   36.4560   19.6760   32.0470 H   0  0  0  0  0  0  0  0  0  0  0  0
   35.4080   20.6590   34.7420 H   0  0  0  0  0  0  0  0  0  0  0  0
   36.2650   21.9480   36.5160 Cl  0  0  0  0  0  0  0  0  0  0  0  0
   37.5310   21.8830   35.2820 C   0  0  0  0  0  0  0  0  0  0  0  0
   37.3160   21.3510   34.0050 C   0  0  0  0  0  0  0  0  0  0  0  0
   38.3980   21.3660   33.1430 C   0  0  0  0  0  0  0  0  0  0  0  0
   38.1480   20.9350   32.1730 H   0  0  0  0  0  0  0  0  0  0  0  0
   39.6010   21.8720   33.5320 C   0  0  0  0  0  0  0  0  0  0  0  0
   40.3930   21.8430   32.7900 H   0  0  0  0  0  0  0  0  0  0  0  0
   39.8110   22.3960   34.7920 C   0  0  0  0  0  0  0  0  0  0  0  0
   40.7710   22.7960   35.0890 H   0  0  0  0  0  0  0  0  0  0  0  0
   38.7480   22.3950   35.6720 C   0  0  0  0  0  0  0  0  0  0  0  0
   39.0240   23.0620   37.2690 Cl  0  0  0  0  0  0  0  0  0  0  0  0
  1  6  1  0  0  0  0
  1 21  1  0  0  0  0
  2  1  2  0  0  0  0
  3  7  1  0  0  0  0
  3 10  1  0  0  0  0
  4  3  2  0  0  0  0
  5  4  1  0  0  0  0
  5  6  2  0  0  0  0
  6  7  1  0  0  0  0
  8  4  1  0  0  0  0
  9  5  1  0  0  0  0
 10 11  2  0  0  0  0
 10 12  1  0  0  0  0
 12 17  1  0  0  0  0
 13 14  1  0  0  0  0
 13 12  2  0  0  0  0
 14 15  2  0  0  0  0
 15 16  1  0  0  0  0
 16 20  1  0  0  0  0
 17 16  2  0  0  0  0
 18 13  1  0  0  0  0
 19 14  1  0  0  0  0
 21 24  1  1  0  0  0
 21 23  1  0  0  0  0
 22 21  1  0  0  0  0
 22 25  1  0  0  0  0
 22 23  1  0  0  0  0
 23 30  1  0  0  0  0
 23 27  1  1  0  0  0
 26 22  1  0  0  0  0
 29 37  1  0  0  0  0
 29 28  1  0  0  0  0
 30 29  2  0  0  0  0
 31 33  2  0  0  0  0
 31 30  1  0  0  0  0
 32 31  1  0  0  0  0
 33 35  1  0  0  0  0
 34 33  1  0  0  0  0
 35 36  1  0  0  0  0
 35 37  2  0  0  0  0
 37 38  1  0  0  0  0
M  END
>  <minimizedAffinity>
-5.62506628

$$$$

 OpenBabel03272507353D

 38 41  0  0  1  0  0  0  0  0999 V2000
   36.0650   20.5780   33.0570 C   0  0  0  0  0  0  0  0  0  0  0  0
   34.8670   20.3210   32.7170 O   0  0  0  0  0  0  0  0  0  0  0  0
   37.2490   22.1740   36.0320 C   0  0  0  0  0  0  0  0  0  0  0  0
   36.2210   21.4410   36.5800 C   0  0  0  0  0  0  0  0  0  0  0  0
   35.6120   20.7240   35.5390 C   0  0  0  0  0  0  0  0  0  0  0  0
   36.3200   21.0730   34.4080 C   0  0  0  0  0  0  0  0  0  0  0  0
   37.2660   21.9220   34.7440 O   0  0  0  0  0  0  0  0  0  0  0  0
   35.8600   21.3560   37.6120 H   0  0  0  0  0  0  0  0  0  0  0  0
   34.7720   20.0510   35.6250 H   0  0  0  0  0  0  0  0  0  0  0  0
   38.1020   23.0410   36.8300 C   0  0  0  0  0  0  0  0  0  0  0  0
   37.6110   23.6660   37.7780 O   0  0  0  0  0  0  0  0  0  0  0  0
   39.4860   23.1160   36.4550 C   0  0  0  0  0  0  0  0  0  0  0  0
   40.3450   22.1870   37.0130 C   0  0  0  0  0  0  0  0  0  0  0  0
   41.7000   22.2330   36.6730 C   0  0  0  0  0  0  0  0  0  0  0  0
   42.1060   23.2060   35.7950 N   0  0  0  0  0  0  0  0  0  0  0  0
   41.2520   24.0900   35.2730 C   0  0  0  0  0  0  0  0  0  0  0  0
   39.9510   24.0510   35.5960 N   0  0  0  0  0  0  0  0  0  0  0  0
   40.0430   21.4070   37.7120 H   0  0  0  0  0  0  0  0  0  0  0  0
   42.4340   21.5450   37.0640 H   0  0  0  0  0  0  0  0  0  0  0  0
   41.5310   24.8690   34.5810 H   0  0  0  0  0  0  0  0  0  0  0  0
   37.2050   20.3730   32.1010 C   0  0  1  0  0  0  0  0  0  0  0  0
   36.6420   20.2430   30.6350 C   0  0  0  0  0  0  0  0  0  0  0  0
   37.5140   21.3610   31.0660 C   0  0  1  0  0  0  0  0  0  0  0  0
   37.7930   19.4400   32.3030 H   0  0  0  0  0  0  0  0  0  0  0  0
   37.0640   19.4690   29.9970 H   0  0  0  0  0  0  0  0  0  0  0  0
   35.5930   20.5290   30.4740 H   0  0  0  0  0  0  0  0  0  0  0  0
   38.5240   21.3710   30.6340 H   0  0  0  0  0  0  0  0  0  0  0  0
   39.5760   23.1260   32.2100 Cl  0  0  0  0  0  0  0  0  0  0  0  0
   37.9110   23.6020   31.8470 C   0  0  0  0  0  0  0  0  0  0  0  0
   36.9730   22.7170   31.3030 C   0  0  0  0  0  0  0  0  0  0  0  0
   35.7080   23.2280   31.0720 C   0  0  0  0  0  0  0  0  0  0  0  0
   35.0400   22.4770   30.6490 H   0  0  0  0  0  0  0  0  0  0  0  0
   35.4100   24.5240   31.3620 C   0  0  0  0  0  0  0  0  0  0  0  0
   34.3920   24.8380   31.1480 H   0  0  0  0  0  0  0  0  0  0  0  0
   36.3360   25.3960   31.8980 C   0  0  0  0  0  0  0  0  0  0  0  0
   36.0860   26.4240   32.1250 H   0  0  0  0  0  0  0  0  0  0  0  0
   37.6060   24.9120   32.1400 C   0  0  0  0  0  0  0  0  0  0  0  0
   38.7760   26.0260   32.8200 Cl  0  0  0  0  0  0  0  0  0  0  0  0
  1  6  1  0  0  0  0
  2  1  2  0  0  0  0
  3  4  2  0  0  0  0
  3 10  1  0  0  0  0
  4  8  1  0  0  0  0
  5  9  1  0  0  0  0
  5  4  1  0  0  0  0
  6  7  1  0  0  0  0
  6  5  2  0  0  0  0
  7  3  1  0  0  0  0
 10 11  2  0  0  0  0
 12 10  1  0  0  0  0
 12 13  1  0  0  0  0
 13 18  1  0  0  0  0
 14 13  2  0  0  0  0
 14 19  1  0  0  0  0
 15 14  1  0  0  0  0
 16 17  1  0  0  0  0
 16 15  2  0  0  0  0
 17 12  2  0  0  0  0
 20 16  1  0  0  0  0
 21 24  1  1  0  0  0
 21  1  1  0  0  0  0
 22 23  1  0  0  0  0
 22 21  1  0  0  0  0
 23 27  1  6  0  0  0
 23 30  1  0  0  0  0
 23 21  1  0  0  0  0
 25 22  1  0  0  0  0
 26 22  1  0  0  0  0
 29 37  1  0  0  0  0
 29 28  1  0  0  0  0
 30 29  2  0  0  0  0
 31 30  1  0  0  0  0
 31 33  2  0  0  0  0
 32 31  1  0  0  0  0
 33 35  1  0  0  0  0
 34 33  1  0  0  0  0
 35 36  1  0  0  0  0
 35 37  2  0  0  0  0
 37 38  1  0  0  0  0
M  END
>  <minimizedAffinity>
-5.5415473

$$$$

 OpenBabel03272507353D

 38 41  0  0  1  0  0  0  0  0999 V2000
   36.0410   22.3220   31.6500 C   0  0  0  0  0  0  0  0  0  0  0  0
   36.6530   21.7400   30.6990 O   0  0  0  0  0  0  0  0  0  0  0  0
   36.6100   25.7930   32.3020 C   0  0  0  0  0  0  0  0  0  0  0  0
   35.6260   25.9170   31.3480 C   0  0  0  0  0  0  0  0  0  0  0  0
   35.2590   24.6220   30.9510 C   0  0  0  0  0  0  0  0  0  0  0  0
   36.0560   23.7830   31.7020 C   0  0  0  0  0  0  0  0  0  0  0  0
   36.8290   24.5120   32.4770 O   0  0  0  0  0  0  0  0  0  0  0  0
   35.1470   26.7990   30.9090 H   0  0  0  0  0  0  0  0  0  0  0  0
   34.5130   24.3600   30.2160 H   0  0  0  0  0  0  0  0  0  0  0  0
   37.2280   26.9460   32.9400 C   0  0  0  0  0  0  0  0  0  0  0  0
   36.5140   27.7620   33.5370 O   0  0  0  0  0  0  0  0  0  0  0  0
   38.6550   27.0640   32.8310 C   0  0  0  0  0  0  0  0  0  0  0  0
   39.1820   27.2120   31.5610 C   0  0  0  0  0  0  0  0  0  0  0  0
   40.5670   27.3270   31.4170 C   0  0  0  0  0  0  0  0  0  0  0  0
   41.3350   27.2870   32.5540 N   0  0  0  0  0  0  0  0  0  0  0  0
   40.7960   27.1420   33.7660 C   0  0  0  0  0  0  0  0  0  0  0  0
   39.4670   27.0300   33.9110 N   0  0  0  0  0  0  0  0  0  0  0  0
   38.5910   27.2470   30.6460 H   0  0  0  0  0  0  0  0  0  0  0  0
   41.0570   27.4460   30.4610 H   0  0  0  0  0  0  0  0  0  0  0  0
   41.3620   27.1040   34.6830 H   0  0  0  0  0  0  0  0  0  0  0  0
   35.3090   21.5370   32.7000 C   0  0  1  0  0  0  0  0  0  0  0  0
   35.7380   20.0230   32.6160 C   0  0  0  0  0  0  0  0  0  0  0  0
   36.0260   20.8770   33.7920 C   0  0  1  0  0  0  0  0  0  0  0  0
   34.1950   21.5630   32.5780 H   0  0  0  0  0  0  0  0  0  0  0  0
   34.9580   19.2700   32.6980 H   0  0  0  0  0  0  0  0  0  0  0  0
   36.6220   19.7860   32.0070 H   0  0  0  0  0  0  0  0  0  0  0  0
   35.4740   20.6290   34.7090 H   0  0  0  0  0  0  0  0  0  0  0  0
   36.2280   21.9300   36.5360 Cl  0  0  0  0  0  0  0  0  0  0  0  0
   37.5420   21.9070   35.3520 C   0  0  0  0  0  0  0  0  0  0  0  0
   37.3870   21.3930   34.0590 C   0  0  0  0  0  0  0  0  0  0  0  0
   38.5010   21.4410   33.2400 C   0  0  0  0  0  0  0  0  0  0  0  0
   38.2970   21.0230   32.2540 H   0  0  0  0  0  0  0  0  0  0  0  0
   39.6780   21.9620   33.6850 C   0  0  0  0  0  0  0  0  0  0  0  0
   40.4990   21.9590   32.9740 H   0  0  0  0  0  0  0  0  0  0  0  0
   39.8300   22.4680   34.9600 C   0  0  0  0  0  0  0  0  0  0  0  0
   40.7700   22.8800   35.3010 H   0  0  0  0  0  0  0  0  0  0  0  0
   38.7330   22.4330   35.7980 C   0  0  0  0  0  0  0  0  0  0  0  0
   38.9360   23.0780   37.4150 Cl  0  0  0  0  0  0  0  0  0  0  0  0
  1  6  1  0  0  0  0
  1 21  1  0  0  0  0
  2  1  2  0  0  0  0
  3  7  1  0  0  0  0
  3 10  1  0  0  0  0
  4  3  2  0  0  0  0
  5  4  1  0  0  0  0
  5  6  2  0  0  0  0
  6  7  1  0  0  0  0
  8  4  1  0  0  0  0
  9  5  1  0  0  0  0
 10 11  2  0  0  0  0
 12 10  1  0  0  0  0
 12 17  1  0  0  0  0
 13 12  2  0  0  0  0
 14 13  1  0  0  0  0
 14 15  2  0  0  0  0
 15 16  1  0  0  0  0
 16 17  2  0  0  0  0
 16 20  1  0  0  0  0
 18 13  1  0  0  0  0
 19 14  1  0  0  0  0
 21 24  1  1  0  0  0
 21 23  1  0  0  0  0
 22 25  1  0  0  0  0
 22 21  1  0  0  0  0
 22 23  1  0  0  0  0
 23 30  1  0  0  0  0
 23 27  1  1  0  0  0
 26 22  1  0  0  0  0
 29 37  1  0  0  0  0
 29 28  1  0  0  0  0
 30 29  2  0  0  0  0
 31 33  2  0  0  0  0
 31 30  1  0  0  0  0
 32 31  1  0  0  0  0
 33 35  1  0  0  0  0
 34 33  1  0  0  0  0
 35 36  1  0  0  0  0
 35 37  2  0  0  0  0
 37 38  1  0  0  0  0
M  END
>  <minimizedAffinity>
-5.51697922

$$$$

 OpenBabel03272507353D

 38 41  0  0  1  0  0  0  0  0999 V2000
   36.2370   28.5120   32.3730 C   0  0  0  0  0  0  0  0  0  0  0  0
   35.3970   27.7470   31.8020 O   0  0  0  0  0  0  0  0  0  0  0  0
   38.5510   26.8810   34.5600 C   0  0  0  0  0  0  0  0  0  0  0  0
   37.7790   27.5160   35.5060 C   0  0  0  0  0  0  0  0  0  0  0  0
   36.7840   28.2340   34.8250 C   0  0  0  0  0  0  0  0  0  0  0  0
   37.0190   27.9840   33.4890 C   0  0  0  0  0  0  0  0  0  0  0  0
   38.0620   27.1900   33.3830 O   0  0  0  0  0  0  0  0  0  0  0  0
   37.8360   27.5290   36.6010 H   0  0  0  0  0  0  0  0  0  0  0  0
   36.0110   28.8430   35.2690 H   0  0  0  0  0  0  0  0  0  0  0  0
   39.6850   26.0410   34.9140 C   0  0  0  0  0  0  0  0  0  0  0  0
   40.8160   26.5410   34.9630 O   0  0  0  0  0  0  0  0  0  0  0  0
   39.4110   24.6580   35.1860 C   0  0  0  0  0  0  0  0  0  0  0  0
   39.5690   23.7650   34.1430 C   0  0  0  0  0  0  0  0  0  0  0  0
   39.3080   22.4100   34.3710 C   0  0  0  0  0  0  0  0  0  0  0  0
   38.9060   22.0390   35.6300 N   0  0  0  0  0  0  0  0  0  0  0  0
   38.7620   22.9270   36.6170 C   0  0  0  0  0  0  0  0  0  0  0  0
   39.0110   24.2270   36.4040 N   0  0  0  0  0  0  0  0  0  0  0  0
   39.8870   24.0370   33.1360 H   0  0  0  0  0  0  0  0  0  0  0  0
   39.4080   21.6500   33.6110 H   0  0  0  0  0  0  0  0  0  0  0  0
   38.4480   22.6770   37.6180 H   0  0  0  0  0  0  0  0  0  0  0  0
   36.4360   29.9290   31.9160 C   0  0  1  0  0  0  0  0  0  0  0  0
   35.2940   30.3160   30.9020 C   0  0  0  0  0  0  0  0  0  0  0  0
   35.4530   30.9690   32.2220 C   0  0  1  0  0  0  0  0  0  0  0  0
   37.4080   30.0920   31.3830 H   0  0  0  0  0  0  0  0  0  0  0  0
   35.5760   30.8710   30.0090 H   0  0  0  0  0  0  0  0  0  0  0  0
   34.4300   29.6400   30.8370 H   0  0  0  0  0  0  0  0  0  0  0  0
   35.7760   32.0200   32.1990 H   0  0  0  0  0  0  0  0  0  0  0  0
   36.2580   32.4440   34.6410 Cl  0  0  0  0  0  0  0  0  0  0  0  0
   34.8770   31.3450   34.5280 C   0  0  0  0  0  0  0  0  0  0  0  0
   34.5420   30.6690   33.3480 C   0  0  0  0  0  0  0  0  0  0  0  0
   33.4350   29.8410   33.4070 C   0  0  0  0  0  0  0  0  0  0  0  0
   33.2440   29.3540   32.4500 H   0  0  0  0  0  0  0  0  0  0  0  0
   32.7210   29.7030   34.5580 C   0  0  0  0  0  0  0  0  0  0  0  0
   31.8680   29.0320   34.5110 H   0  0  0  0  0  0  0  0  0  0  0  0
   33.0520   30.3700   35.7200 C   0  0  0  0  0  0  0  0  0  0  0  0
   32.4760   30.2510   36.6280 H   0  0  0  0  0  0  0  0  0  0  0  0
   34.1520   31.2030   35.6900 C   0  0  0  0  0  0  0  0  0  0  0  0
   34.5650   32.0450   37.1700 Cl  0  0  0  0  0  0  0  0  0  0  0  0
  1  6  1  0  0  0  0
  2  1  2  0  0  0  0
  3 10  1  0  0  0  0
  3  4  2  0  0  0  0
  4  8  1  0  0  0  0
  5  9  1  0  0  0  0
  5  4  1  0  0  0  0
  6  5  2  0  0  0  0
  7  6  1  0  0  0  0
  7  3  1  0  0  0  0
 10 11  2  0  0  0  0
 10 12  1  0  0  0  0
 12 17  1  0  0  0  0
 13 14  1  0  0  0  0
 13 12  2  0  0  0  0
 14 15  2  0  0  0  0
 15 16  1  0  0  0  0
 16 20  1  0  0  0  0
 17 16  2  0  0  0  0
 18 13  1  0  0  0  0
 19 14  1  0  0  0  0
 21 24  1  6  0  0  0
 21 23  1  0  0  0  0
 21  1  1  0  0  0  0
 22 21  1  0  0  0  0
 22 23  1  0  0  0  0
 23 27  1  6  0  0  0
 23 30  1  0  0  0  0
 25 22  1  0  0  0  0
 26 22  1  0  0  0  0
 29 28  1  0  0  0  0
 29 37  1  0  0  0  0
 30 31  1  0  0  0  0
 30 29  2  0  0  0  0
 31 33  2  0  0  0  0
 32 31  1  0  0  0  0
 33 35  1  0  0  0  0
 34 33  1  0  0  0  0
 35 36  1  0  0  0  0
 37 35  2  0  0  0  0
 37 38  1  0  0  0  0
M  END
>  <minimizedAffinity>
-5.41574574

$$$$

 OpenBabel03272507353D

 38 41  0  0  1  0  0  0  0  0999 V2000
   38.2530   24.6670   36.1980 C   0  0  0  0  0  0  0  0  0  0  0  0
   37.5920   24.6200   37.2840 O   0  0  0  0  0  0  0  0  0  0  0  0
   37.1570   26.1650   33.1400 C   0  0  0  0  0  0  0  0  0  0  0  0
   37.0430   27.2620   33.9640 C   0  0  0  0  0  0  0  0  0  0  0  0
   37.4390   26.8640   35.2500 C   0  0  0  0  0  0  0  0  0  0  0  0
   37.7720   25.5320   35.1220 C   0  0  0  0  0  0  0  0  0  0  0  0
   37.5910   25.1670   33.8720 O   0  0  0  0  0  0  0  0  0  0  0  0
   36.7200   28.2900   33.7650 H   0  0  0  0  0  0  0  0  0  0  0  0
   37.4690   27.4820   36.1350 H   0  0  0  0  0  0  0  0  0  0  0  0
   36.8270   26.2160   31.7240 C   0  0  0  0  0  0  0  0  0  0  0  0
   35.7230   26.6530   31.3750 O   0  0  0  0  0  0  0  0  0  0  0  0
   37.8240   25.7420   30.8050 C   0  0  0  0  0  0  0  0  0  0  0  0
   37.8340   24.3890   30.5260 C   0  0  0  0  0  0  0  0  0  0  0  0
   38.7930   23.8920   29.6380 C   0  0  0  0  0  0  0  0  0  0  0  0
   39.6790   24.7850   29.0880 N   0  0  0  0  0  0  0  0  0  0  0  0
   39.6430   26.0870   29.3780 C   0  0  0  0  0  0  0  0  0  0  0  0
   38.7250   26.5690   30.2300 N   0  0  0  0  0  0  0  0  0  0  0  0
   37.1410   23.6630   30.9510 H   0  0  0  0  0  0  0  0  0  0  0  0
   38.8680   22.8490   29.3670 H   0  0  0  0  0  0  0  0  0  0  0  0
   40.3200   26.8200   28.9690 H   0  0  0  0  0  0  0  0  0  0  0  0
   39.5060   23.8610   36.0150 C   0  0  1  0  0  0  0  0  0  0  0  0
   39.6400   22.8250   37.1950 C   0  0  0  0  0  0  0  0  0  0  0  0
   39.4520   22.4170   35.7830 C   0  0  1  0  0  0  0  0  0  0  0  0
   40.4400   24.4820   36.0250 H   0  0  0  0  0  0  0  0  0  0  0  0
   40.6200   22.6970   37.6480 H   0  0  0  0  0  0  0  0  0  0  0  0
   38.7540   22.6700   37.8280 H   0  0  0  0  0  0  0  0  0  0  0  0
   40.3150   21.9280   35.3090 H   0  0  0  0  0  0  0  0  0  0  0  0
   39.4820   22.1280   32.8520 Cl  0  0  0  0  0  0  0  0  0  0  0  0
   38.1120   21.7440   33.9020 C   0  0  0  0  0  0  0  0  0  0  0  0
   38.1550   21.9020   35.2920 C   0  0  0  0  0  0  0  0  0  0  0  0
   37.0080   21.5610   35.9860 C   0  0  0  0  0  0  0  0  0  0  0  0
   37.1250   21.7140   37.0600 H   0  0  0  0  0  0  0  0  0  0  0  0
   35.9050   21.0980   35.3370 C   0  0  0  0  0  0  0  0  0  0  0  0
   35.0510   20.8560   35.9620 H   0  0  0  0  0  0  0  0  0  0  0  0
   35.8630   20.9410   33.9660 C   0  0  0  0  0  0  0  0  0  0  0  0
   34.9800   20.5720   33.4620 H   0  0  0  0  0  0  0  0  0  0  0  0
   36.9940   21.2750   33.2480 C   0  0  0  0  0  0  0  0  0  0  0  0
   36.9320   21.0730   31.5080 Cl  0  0  0  0  0  0  0  0  0  0  0  0
  1  2  2  0  0  0  0
  3  7  1  0  0  0  0
  3  4  2  0  0  0  0
  4  5  1  0  0  0  0
  5  9  1  0  0  0  0
  6  5  2  0  0  0  0
  6  1  1  0  0  0  0
  7  6  1  0  0  0  0
  8  4  1  0  0  0  0
 10  3  1  0  0  0  0
 11 10  2  0  0  0  0
 12 10  1  0  0  0  0
 13 12  1  0  0  0  0
 13 18  1  0  0  0  0
 14 13  2  0  0  0  0
 15 16  2  0  0  0  0
 15 14  1  0  0  0  0
 16 17  1  0  0  0  0
 17 12  2  0  0  0  0
 19 14  1  0  0  0  0
 20 16  1  0  0  0  0
 21 24  1  6  0  0  0
 21  1  1  0  0  0  0
 21 22  1  0  0  0  0
 22 25  1  0  0  0  0
 22 26  1  0  0  0  0
 23 27  1  6  0  0  0
 23 21  1  0  0  0  0
 23 22  1  0  0  0  0
 28 29  1  0  0  0  0
 29 30  1  0  0  0  0
 30 23  1  0  0  0  0
 30 31  2  0  0  0  0
 31 32  1  0  0  0  0
 33 34  1  0  0  0  0
 33 31  1  0  0  0  0
 35 33  2  0  0  0  0
 36 35  1  0  0  0  0
 37 29  2  0  0  0  0
 37 35  1  0  0  0  0
 38 37  1  0  0  0  0
M  END
>  <minimizedAffinity>
-5.37187338

$$$$

 OpenBabel03272507353D

 38 41  0  0  1  0  0  0  0  0999 V2000
   39.7920   25.7520   34.2820 C   0  0  0  0  0  0  0  0  0  0  0  0
   40.0740   26.7010   35.0800 O   0  0  0  0  0  0  0  0  0  0  0  0
   36.8520   25.1650   32.3300 C   0  0  0  0  0  0  0  0  0  0  0  0
   36.6590   26.5000   32.6050 C   0  0  0  0  0  0  0  0  0  0  0  0
   37.7410   26.9290   33.3890 C   0  0  0  0  0  0  0  0  0  0  0  0
   38.5340   25.8100   33.5400 C   0  0  0  0  0  0  0  0  0  0  0  0
   37.9750   24.8040   32.9050 O   0  0  0  0  0  0  0  0  0  0  0  0
   35.8580   27.1910   32.3210 H   0  0  0  0  0  0  0  0  0  0  0  0
   37.9000   27.9230   33.7790 H   0  0  0  0  0  0  0  0  0  0  0  0
   35.9160   24.3890   31.5320 C   0  0  0  0  0  0  0  0  0  0  0  0
   34.9410   24.9560   31.0220 O   0  0  0  0  0  0  0  0  0  0  0  0
   36.1880   22.9870   31.3870 C   0  0  0  0  0  0  0  0  0  0  0  0
   35.2980   22.1060   31.9720 C   0  0  0  0  0  0  0  0  0  0  0  0
   35.5340   20.7330   31.8550 C   0  0  0  0  0  0  0  0  0  0  0  0
   36.6460   20.3320   31.1570 N   0  0  0  0  0  0  0  0  0  0  0  0
   37.4870   21.2080   30.6030 C   0  0  0  0  0  0  0  0  0  0  0  0
   37.2670   22.5270   30.7130 N   0  0  0  0  0  0  0  0  0  0  0  0
   34.4100   22.4020   32.5310 H   0  0  0  0  0  0  0  0  0  0  0  0
   34.8880   19.9800   32.2820 H   0  0  0  0  0  0  0  0  0  0  0  0
   38.3710   20.9350   30.0490 H   0  0  0  0  0  0  0  0  0  0  0  0
   40.7270   24.5930   34.0900 C   0  0  1  0  0  0  0  0  0  0  0  0
   41.7610   24.5530   35.2790 C   0  0  0  0  0  0  0  0  0  0  0  0
   40.7640   23.4830   35.0430 C   0  0  1  0  0  0  0  0  0  0  0  0
   41.3270   24.6570   33.1460 H   0  0  0  0  0  0  0  0  0  0  0  0
   42.8030   24.3560   35.0380 H   0  0  0  0  0  0  0  0  0  0  0  0
   41.5440   25.1830   36.1530 H   0  0  0  0  0  0  0  0  0  0  0  0
   41.1700   22.5170   34.7100 H   0  0  0  0  0  0  0  0  0  0  0  0
   38.8390   21.6040   33.8410 Cl  0  0  0  0  0  0  0  0  0  0  0  0
   38.6120   22.4570   35.3740 C   0  0  0  0  0  0  0  0  0  0  0  0
   39.5640   23.3410   35.8970 C   0  0  0  0  0  0  0  0  0  0  0  0
   39.2510   23.9370   37.1060 C   0  0  0  0  0  0  0  0  0  0  0  0
   40.0420   24.6080   37.4420 H   0  0  0  0  0  0  0  0  0  0  0  0
   38.0770   23.6660   37.7400 C   0  0  0  0  0  0  0  0  0  0  0  0
   37.9160   24.1790   38.6830 H   0  0  0  0  0  0  0  0  0  0  0  0
   37.1400   22.7940   37.2240 C   0  0  0  0  0  0  0  0  0  0  0  0
   36.2110   22.5880   37.7380 H   0  0  0  0  0  0  0  0  0  0  0  0
   37.4260   22.1860   36.0180 C   0  0  0  0  0  0  0  0  0  0  0  0
   36.2300   21.0810   35.3700 Cl  0  0  0  0  0  0  0  0  0  0  0  0
  1  2  2  0  0  0  0
  3  4  2  0  0  0  0
  3  7  1  0  0  0  0
  4  5  1  0  0  0  0
  5  6  2  0  0  0  0
  5  9  1  0  0  0  0
  6  1  1  0  0  0  0
  7  6  1  0  0  0  0
  8  4  1  0  0  0  0
 10  3  1  0  0  0  0
 11 10  2  0  0  0  0
 12 10  1  0  0  0  0
 12 13  1  0  0  0  0
 13 18  1  0  0  0  0
 14 13  2  0  0  0  0
 14 19  1  0  0  0  0
 15 14  1  0  0  0  0
 16 17  1  0  0  0  0
 16 15  2  0  0  0  0
 17 12  2  0  0  0  0
 20 16  1  0  0  0  0
 21 24  1  6  0  0  0
 21  1  1  0  0  0  0
 21 23  1  0  0  0  0
 21 22  1  0  0  0  0
 22 26  1  0  0  0  0
 23 27  1  6  0  0  0
 23 22  1  0  0  0  0
 23 30  1  0  0  0  0
 25 22  1  0  0  0  0
 28 29  1  0  0  0  0
 29 30  2  0  0  0  0
 29 37  1  0  0  0  0
 30 31  1  0  0  0  0
 31 32  1  0  0  0  0
 31 33  2  0  0  0  0
 33 34  1  0  0  0  0
 35 36  1  0  0  0  0
 35 33  1  0  0  0  0
 37 35  2  0  0  0  0
 38 37  1  0  0  0  0
M  END
>  <minimizedAffinity>
-5.34231043

$$$$

 OpenBabel03272507353D

 38 41  0  0  1  0  0  0  0  0999 V2000
   38.1680   25.7330   32.4050 C   0  0  0  0  0  0  0  0  0  0  0  0
   37.6260   24.6050   32.6260 O   0  0  0  0  0  0  0  0  0  0  0  0
   35.8570   28.4650   32.4190 C   0  0  0  0  0  0  0  0  0  0  0  0
   36.2670   28.5420   31.1070 C   0  0  0  0  0  0  0  0  0  0  0  0
   37.2060   27.5210   30.8990 C   0  0  0  0  0  0  0  0  0  0  0  0
   37.3080   26.8800   32.1150 C   0  0  0  0  0  0  0  0  0  0  0  0
   36.5030   27.4660   32.9730 O   0  0  0  0  0  0  0  0  0  0  0  0
   35.9820   29.2220   30.2960 H   0  0  0  0  0  0  0  0  0  0  0  0
   37.7250   27.3010   29.9770 H   0  0  0  0  0  0  0  0  0  0  0  0
   34.8780   29.3790   32.9870 C   0  0  0  0  0  0  0  0  0  0  0  0
   33.6720   29.1400   32.8400 O   0  0  0  0  0  0  0  0  0  0  0  0
   35.3850   30.5220   33.6910 C   0  0  0  0  0  0  0  0  0  0  0  0
   35.5950   30.3850   35.0510 C   0  0  0  0  0  0  0  0  0  0  0  0
   36.0860   31.4790   35.7690 C   0  0  0  0  0  0  0  0  0  0  0  0
   36.3350   32.6390   35.0790 N   0  0  0  0  0  0  0  0  0  0  0  0
   36.1210   32.7400   33.7650 C   0  0  0  0  0  0  0  0  0  0  0  0
   35.6500   31.6930   33.0700 N   0  0  0  0  0  0  0  0  0  0  0  0
   35.4040   29.4750   35.6180 H   0  0  0  0  0  0  0  0  0  0  0  0
   36.2770   31.4550   36.8320 H   0  0  0  0  0  0  0  0  0  0  0  0
   36.3030   33.6310   33.1860 H   0  0  0  0  0  0  0  0  0  0  0  0
   39.6600   25.9010   32.4440 C   0  0  1  0  0  0  0  0  0  0  0  0
   40.0150   27.2680   33.1410 C   0  0  0  0  0  0  0  0  0  0  0  0
   40.3840   25.9530   33.7150 C   0  0  1  0  0  0  0  0  0  0  0  0
   40.1310   25.9270   31.4270 H   0  0  0  0  0  0  0  0  0  0  0  0
   40.7960   27.8780   32.6930 H   0  0  0  0  0  0  0  0  0  0  0  0
   39.2050   27.7800   33.6800 H   0  0  0  0  0  0  0  0  0  0  0  0
   41.4580   25.7180   33.7180 H   0  0  0  0  0  0  0  0  0  0  0  0
   41.4710   23.3100   34.4300 Cl  0  0  0  0  0  0  0  0  0  0  0  0
   40.1410   24.1270   35.2630 C   0  0  0  0  0  0  0  0  0  0  0  0
   39.6660   25.3860   34.8770 C   0  0  0  0  0  0  0  0  0  0  0  0
   38.6200   25.9030   35.6210 C   0  0  0  0  0  0  0  0  0  0  0  0
   38.3100   26.8830   35.2560 H   0  0  0  0  0  0  0  0  0  0  0  0
   38.0940   25.2120   36.6700 C   0  0  0  0  0  0  0  0  0  0  0  0
   37.2760   25.6950   37.1960 H   0  0  0  0  0  0  0  0  0  0  0  0
   38.5650   23.9720   37.0500 C   0  0  0  0  0  0  0  0  0  0  0  0
   38.1370   23.4330   37.8850 H   0  0  0  0  0  0  0  0  0  0  0  0
   39.6070   23.4310   36.3240 C   0  0  0  0  0  0  0  0  0  0  0  0
   40.1970   21.8550   36.8150 Cl  0  0  0  0  0  0  0  0  0  0  0  0
  1 21  1  0  0  0  0
  1  2  2  0  0  0  0
  3  7  1  0  0  0  0
  3 10  1  0  0  0  0
  4  3  2  0  0  0  0
  5  4  1  0  0  0  0
  5  6  2  0  0  0  0
  6  1  1  0  0  0  0
  6  7  1  0  0  0  0
  8  4  1  0  0  0  0
  9  5  1  0  0  0  0
 10 12  1  0  0  0  0
 11 10  2  0  0  0  0
 12 13  1  0  0  0  0
 13 18  1  0  0  0  0
 13 14  2  0  0  0  0
 14 19  1  0  0  0  0
 15 14  1  0  0  0  0
 16 15  2  0  0  0  0
 17 12  2  0  0  0  0
 17 16  1  0  0  0  0
 20 16  1  0  0  0  0
 21 24  1  6  0  0  0
 21 22  1  0  0  0  0
 21 23  1  0  0  0  0
 22 26  1  0  0  0  0
 22 23  1  0  0  0  0
 23 27  1  6  0  0  0
 23 30  1  0  0  0  0
 25 22  1  0  0  0  0
 28 29  1  0  0  0  0
 29 37  1  0  0  0  0
 30 29  2  0  0  0  0
 30 31  1  0  0  0  0
 31 33  2  0  0  0  0
 32 31  1  0  0  0  0
 33 35  1  0  0  0  0
 33 34  1  0  0  0  0
 35 36  1  0  0  0  0
 37 38  1  0  0  0  0
 37 35  2  0  0  0  0
M  END
>  <minimizedAffinity>
-5.34006166

$$$$

 OpenBabel03272507353D

 38 41  0  0  1  0  0  0  0  0999 V2000
   35.0730   29.0940   33.5140 C   0  0  0  0  0  0  0  0  0  0  0  0
   34.3050   28.9690   34.5200 O   0  0  0  0  0  0  0  0  0  0  0  0
   38.0200   27.1770   34.1780 C   0  0  0  0  0  0  0  0  0  0  0  0
   38.1380   27.2780   32.8110 C   0  0  0  0  0  0  0  0  0  0  0  0
   37.0400   28.0180   32.3470 C   0  0  0  0  0  0  0  0  0  0  0  0
   36.3150   28.3230   33.4790 C   0  0  0  0  0  0  0  0  0  0  0  0
   36.9250   27.8110   34.5250 O   0  0  0  0  0  0  0  0  0  0  0  0
   38.8970   26.8970   32.1170 H   0  0  0  0  0  0  0  0  0  0  0  0
   36.8270   28.2800   31.3210 H   0  0  0  0  0  0  0  0  0  0  0  0
   38.9930   26.4700   34.9960 C   0  0  0  0  0  0  0  0  0  0  0  0
   40.0940   26.9930   35.2140 O   0  0  0  0  0  0  0  0  0  0  0  0
   38.6060   25.1840   35.5050 C   0  0  0  0  0  0  0  0  0  0  0  0
   38.9430   24.0770   34.7500 C   0  0  0  0  0  0  0  0  0  0  0  0
   38.5790   22.8090   35.2140 C   0  0  0  0  0  0  0  0  0  0  0  0
   37.9010   22.7340   36.4050 N   0  0  0  0  0  0  0  0  0  0  0  0
   37.5890   23.8230   37.1110 C   0  0  0  0  0  0  0  0  0  0  0  0
   37.9360   25.0420   36.6710 N   0  0  0  0  0  0  0  0  0  0  0  0
   39.4810   24.1140   33.8020 H   0  0  0  0  0  0  0  0  0  0  0  0
   38.8050   21.8960   34.6840 H   0  0  0  0  0  0  0  0  0  0  0  0
   37.0580   23.8080   38.0500 H   0  0  0  0  0  0  0  0  0  0  0  0
   34.7200   30.0060   32.3740 C   0  0  1  0  0  0  0  0  0  0  0  0
   33.1890   30.3710   32.4520 C   0  0  0  0  0  0  0  0  0  0  0  0
   34.2650   31.3770   32.6130 C   0  0  1  0  0  0  0  0  0  0  0  0
   34.8890   29.5450   31.3670 H   0  0  0  0  0  0  0  0  0  0  0  0
   32.6180   30.3630   31.5260 H   0  0  0  0  0  0  0  0  0  0  0  0
   32.6620   30.1260   33.3850 H   0  0  0  0  0  0  0  0  0  0  0  0
   34.3590   32.1100   31.8000 H   0  0  0  0  0  0  0  0  0  0  0  0
   36.8620   32.7640   32.5200 Cl  0  0  0  0  0  0  0  0  0  0  0  0
   35.8370   32.6100   33.9540 C   0  0  0  0  0  0  0  0  0  0  0  0
   34.6100   31.9370   33.9380 C   0  0  0  0  0  0  0  0  0  0  0  0
   33.9150   31.8950   35.1340 C   0  0  0  0  0  0  0  0  0  0  0  0
   32.9740   31.3540   35.0360 H   0  0  0  0  0  0  0  0  0  0  0  0
   34.4130   32.4840   36.2560 C   0  0  0  0  0  0  0  0  0  0  0  0
   33.8000   32.4010   37.1490 H   0  0  0  0  0  0  0  0  0  0  0  0
   35.6220   33.1480   36.2700 C   0  0  0  0  0  0  0  0  0  0  0  0
   36.0070   33.6110   37.1700 H   0  0  0  0  0  0  0  0  0  0  0  0
   36.3370   33.2040   35.0910 C   0  0  0  0  0  0  0  0  0  0  0  0
   37.8720   34.0490   35.1190 Cl  0  0  0  0  0  0  0  0  0  0  0  0
  1  2  2  0  0  0  0
  3  7  1  0  0  0  0
  3 10  1  0  0  0  0
  4  3  2  0  0  0  0
  5  4  1  0  0  0  0
  5  6  2  0  0  0  0
  6  1  1  0  0  0  0
  6  7  1  0  0  0  0
  8  4  1  0  0  0  0
  9  5  1  0  0  0  0
 10 11  2  0  0  0  0
 10 12  1  0  0  0  0
 12 17  1  0  0  0  0
 13 14  1  0  0  0  0
 13 12  2  0  0  0  0
 14 15  2  0  0  0  0
 15 16  1  0  0  0  0
 16 20  1  0  0  0  0
 17 16  2  0  0  0  0
 18 13  1  0  0  0  0
 19 14  1  0  0  0  0
 21 24  1  6  0  0  0
 21 22  1  0  0  0  0
 21 23  1  0  0  0  0
 21  1  1  0  0  0  0
 22 23  1  0  0  0  0
 22 26  1  0  0  0  0
 23 27  1  6  0  0  0
 23 30  1  0  0  0  0
 25 22  1  0  0  0  0
 28 29  1  0  0  0  0
 29 37  1  0  0  0  0
 30 29  2  0  0  0  0
 30 31  1  0  0  0  0
 31 33  2  0  0  0  0
 32 31  1  0  0  0  0
 33 35  1  0  0  0  0
 33 34  1  0  0  0  0
 35 36  1  0  0  0  0
 37 38  1  0  0  0  0
 37 35  2  0  0  0  0
M  END
>  <minimizedAffinity>
-5.29907084

$$$$
