
 OpenBabel03272508543D

 40 43  0  0  1  0  0  0  0  0999 V2000
   38.4450   31.7330   44.5940 C   0  0  0  0  0  0  0  0  0  0  0  0
   37.4220   32.4600   44.4580 O   0  0  0  0  0  0  0  0  0  0  0  0
   38.8740   31.3150   45.8990 N   0  0  0  0  0  0  0  0  0  0  0  0
   39.7900   30.8860   46.0840 H   0  0  0  0  0  0  0  0  0  0  0  0
   39.2320   31.2890   43.4240 C   0  0  0  0  0  0  0  0  0  0  0  0
   40.2530   30.3990   43.6190 C   0  0  0  0  0  0  0  0  0  0  0  0
   40.9680   30.0030   42.5010 C   0  0  0  0  0  0  0  0  0  0  0  0
   40.6240   30.5110   41.2870 C   0  0  0  0  0  0  0  0  0  0  0  0
   39.5930   31.4100   41.0790 C   0  0  0  0  0  0  0  0  0  0  0  0
   38.9380   31.7560   42.1950 N   0  0  0  0  0  0  0  0  0  0  0  0
   40.5400   29.9850   44.5770 H   0  0  0  0  0  0  0  0  0  0  0  0
   41.8010   29.2890   42.5930 H   0  0  0  0  0  0  0  0  0  0  0  0
   41.2090   30.1740   40.4410 H   0  0  0  0  0  0  0  0  0  0  0  0
   41.6470   30.9640   39.0310 Cl  0  0  0  0  0  0  0  0  0  0  0  0
   40.1160   31.7980   38.7430 C   0  0  0  0  0  0  0  0  0  0  0  0
   39.2340   31.9460   39.7800 C   0  0  0  0  0  0  0  0  0  0  0  0
   38.0670   32.5910   39.5240 C   0  0  0  0  0  0  0  0  0  0  0  0
   37.3360   32.7370   40.2970 H   0  0  0  0  0  0  0  0  0  0  0  0
   37.7690   33.0860   38.2610 C   0  0  0  0  0  0  0  0  0  0  0  0
   36.8350   33.6110   38.0270 H   0  0  0  0  0  0  0  0  0  0  0  0
   38.6970   32.9080   37.2550 C   0  0  0  0  0  0  0  0  0  0  0  0
   38.5190   33.2730   36.2470 H   0  0  0  0  0  0  0  0  0  0  0  0
   39.8970   32.2590   37.4620 C   0  0  0  0  0  0  0  0  0  0  0  0
   41.1000   32.0150   36.2000 Cl  0  0  0  0  0  0  0  0  0  0  0  0
   38.1070   30.7190   48.1920 C   0  0  2  0  0  0  0  0  0  0  0  0
   38.6470   32.0860   48.2700 C   0  0  0  0  0  0  0  0  0  0  0  0
   37.9560   31.5170   47.0030 C   0  0  1  0  0  0  0  0  0  0  0  0
   38.8900   29.9330   48.2610 H   0  0  0  0  0  0  0  0  0  0  0  0
   38.0890   32.8720   48.8190 H   0  0  0  0  0  0  0  0  0  0  0  0
   39.7210   32.2540   48.2290 H   0  0  0  0  0  0  0  0  0  0  0  0
   36.9870   32.0070   46.7720 H   0  0  0  0  0  0  0  0  0  0  0  0
   34.5710   30.0900   49.0820 C   0  0  0  0  0  0  0  0  0  0  0  0
   34.6770   29.5380   50.3880 C   0  0  0  0  0  0  0  0  0  0  0  0
   35.9930   29.4000   50.9440 C   0  0  0  0  0  0  0  0  0  0  0  0
   37.0760   29.7950   50.2130 N   0  0  0  0  0  0  0  0  0  0  0  0
   36.8850   30.3180   48.9610 C   0  0  0  0  0  0  0  0  0  0  0  0
   35.6500   30.4800   48.3660 N   0  0  0  0  0  0  0  0  0  0  0  0
   33.6080   30.2150   48.6230 H   0  0  0  0  0  0  0  0  0  0  0  0
   33.8010   29.2420   50.9250 H   0  0  0  0  0  0  0  0  0  0  0  0
   36.0890   28.9830   51.9350 H   0  0  0  0  0  0  0  0  0  0  0  0
  1  3  1  0  0  0  0
  2  1  2  0  0  0  0
  3  4  1  0  0  0  0
  3 27  1  0  0  0  0
  5  6  1  0  0  0  0
  5  1  1  0  0  0  0
  6 11  1  0  0  0  0
  7 12  1  0  0  0  0
  7  6  2  0  0  0  0
  8  7  1  0  0  0  0
  9  8  2  0  0  0  0
  9 10  1  0  0  0  0
 10  5  2  0  0  0  0
 13  8  1  0  0  0  0
 15 14  1  0  0  0  0
 15 16  1  0  0  0  0
 16  9  1  0  0  0  0
 17 16  2  0  0  0  0
 17 18  1  0  0  0  0
 19 17  1  0  0  0  0
 20 19  1  0  0  0  0
 21 23  1  0  0  0  0
 21 19  2  0  0  0  0
 22 21  1  0  0  0  0
 23 15  2  0  0  0  0
 24 23  1  0  0  0  0
 25 28  1  6  0  0  0
 25 26  1  0  0  0  0
 25 36  1  0  0  0  0
 26 29  1  0  0  0  0
 27 31  1  6  0  0  0
 27 25  1  0  0  0  0
 27 26  1  0  0  0  0
 30 26  1  0  0  0  0
 32 33  1  0  0  0  0
 33 39  1  0  0  0  0
 33 34  2  0  0  0  0
 34 40  1  0  0  0  0
 35 34  1  0  0  0  0
 36 35  2  0  0  0  0
 37 36  1  0  0  0  0
 37 32  2  0  0  0  0
 38 32  1  0  0  0  0
M  END
>  <minimizedAffinity>
-5.24467278

>  <minimizedRMSD>
0.73197031

$$$$
