
 OpenBabel03272502533D

 29 31  0  0  0  0  0  0  0  0999 V2000
   35.8000   30.1490   48.2370 C   0  0  0  0  0  0  0  0  0  0  0  0
   35.7370   29.1210   49.1710 C   0  0  0  0  0  0  0  0  0  0  0  0
   34.7420   28.1670   49.1080 C   0  0  0  0  0  0  0  0  0  0  0  0
   33.8290   28.2880   48.0900 C   0  0  0  0  0  0  0  0  0  0  0  0
   33.8770   29.3060   47.1520 C   0  0  0  0  0  0  0  0  0  0  0  0
   34.8820   30.2380   47.2430 N   0  0  0  0  0  0  0  0  0  0  0  0
   36.5100   29.1060   49.9480 H   0  0  0  0  0  0  0  0  0  0  0  0
   34.7300   27.3900   49.8500 H   0  0  0  0  0  0  0  0  0  0  0  0
   33.0560   27.5390   48.0510 H   0  0  0  0  0  0  0  0  0  0  0  0
   34.8270   28.3290   44.4640 Cl  0  0  0  0  0  0  0  0  0  0  0  0
   33.2280   29.0170   44.7980 C   0  0  0  0  0  0  0  0  0  0  0  0
   32.9070   29.4310   46.0720 C   0  0  0  0  0  0  0  0  0  0  0  0
   31.6410   29.9510   46.2270 C   0  0  0  0  0  0  0  0  0  0  0  0
   31.3240   30.2920   47.1900 H   0  0  0  0  0  0  0  0  0  0  0  0
   30.7180   30.0740   45.2150 C   0  0  0  0  0  0  0  0  0  0  0  0
   29.7270   30.4900   45.3750 H   0  0  0  0  0  0  0  0  0  0  0  0
   31.0760   29.6460   43.9410 C   0  0  0  0  0  0  0  0  0  0  0  0
   30.4320   29.6980   43.0890 H   0  0  0  0  0  0  0  0  0  0  0  0
   32.3350   29.1180   43.7400 C   0  0  0  0  0  0  0  0  0  0  0  0
   32.8280   28.5650   42.1370 Cl  0  0  0  0  0  0  0  0  0  0  0  0
   37.9570   32.8000   49.5450 C   0  0  0  0  0  0  0  0  0  0  0  0
   38.8630   33.0150   48.4800 C   0  0  0  0  0  0  0  0  0  0  0  0
   38.7150   32.2350   47.3160 C   0  0  0  0  0  0  0  0  0  0  0  0
   37.7020   31.3330   47.3190 N   0  0  0  0  0  0  0  0  0  0  0  0
   36.8550   31.1410   48.3290 C   0  0  0  0  0  0  0  0  0  0  0  0
   37.0020   31.8810   49.4240 N   0  0  0  0  0  0  0  0  0  0  0  0
   38.0680   33.4070   50.4570 H   0  0  0  0  0  0  0  0  0  0  0  0
   39.6540   33.7460   48.5280 H   0  0  0  0  0  0  0  0  0  0  0  0
   39.3860   32.3830   46.5090 H   0  0  0  0  0  0  0  0  0  0  0  0
  1 25  1  0  0  0  0
  1  2  1  0  0  0  0
  2  7  1  0  0  0  0
  3  2  2  0  0  0  0
  3  8  1  0  0  0  0
  4  3  1  0  0  0  0
  5  6  1  0  0  0  0
  5  4  2  0  0  0  0
  6  1  2  0  0  0  0
  9  4  1  0  0  0  0
 10 11  1  0  0  0  0
 11 12  1  0  0  0  0
 12 13  2  0  0  0  0
 12  5  1  0  0  0  0
 13 14  1  0  0  0  0
 15 16  1  0  0  0  0
 15 13  1  0  0  0  0
 17 15  2  0  0  0  0
 18 17  1  0  0  0  0
 19 17  1  0  0  0  0
 19 11  2  0  0  0  0
 20 19  1  0  0  0  0
 21 27  1  0  0  0  0
 22 28  1  0  0  0  0
 22 21  2  0  0  0  0
 23 24  2  0  0  0  0
 23 22  1  0  0  0  0
 24 25  1  0  0  0  0
 25 26  2  0  0  0  0
 26 21  1  0  0  0  0
 29 23  1  0  0  0  0
M  END
>  <minimizedAffinity>
-5.0205121

>  <minimizedRMSD>
1.13273668

$$$$
