
 OpenBabel03272504093D

 35 37  0  0  0  0  0  0  0  0999 V2000
   37.3060   30.6290   50.1580 C   0  0  0  0  0  0  0  0  0  0  0  0
   36.9770   30.5920   48.8140 C   0  0  0  0  0  0  0  0  0  0  0  0
   35.7480   30.0110   48.4070 C   0  0  0  0  0  0  0  0  0  0  0  0
   34.9430   29.5090   49.3700 N   0  0  0  0  0  0  0  0  0  0  0  0
   35.3140   29.5680   50.7010 C   0  0  0  0  0  0  0  0  0  0  0  0
   36.4960   30.1300   51.0850 N   0  0  0  0  0  0  0  0  0  0  0  0
   34.4070   29.0160   51.6640 N   0  0  0  0  0  0  0  0  0  0  0  0
   38.2480   31.0760   50.4590 H   0  0  0  0  0  0  0  0  0  0  0  0
   33.6340   29.6570   51.9520 H   0  0  0  0  0  0  0  0  0  0  0  0
   34.4470   28.0680   52.0890 H   0  0  0  0  0  0  0  0  0  0  0  0
   38.0460   33.4180   49.1630 Cl  0  0  0  0  0  0  0  0  0  0  0  0
   38.5110   32.4050   47.8300 C   0  0  0  0  0  0  0  0  0  0  0  0
   37.9360   31.1730   47.8520 C   0  0  0  0  0  0  0  0  0  0  0  0
   38.2660   30.2820   46.8140 C   0  0  0  0  0  0  0  0  0  0  0  0
   39.1190   30.6150   45.8200 C   0  0  0  0  0  0  0  0  0  0  0  0
   39.6940   31.8820   45.8220 C   0  0  0  0  0  0  0  0  0  0  0  0
   40.8010   32.3610   44.5670 Cl  0  0  0  0  0  0  0  0  0  0  0  0
   39.3830   32.7560   46.8220 C   0  0  0  0  0  0  0  0  0  0  0  0
   37.8940   29.2710   46.7200 H   0  0  0  0  0  0  0  0  0  0  0  0
   39.4110   29.9740   44.9960 H   0  0  0  0  0  0  0  0  0  0  0  0
   39.8070   33.7590   46.8660 H   0  0  0  0  0  0  0  0  0  0  0  0
   35.4210   29.9880   46.9940 C   0  0  0  0  0  0  0  0  0  0  0  0
   35.6260   31.0220   46.5890 H   0  0  0  0  0  0  0  0  0  0  0  0
   36.0630   29.3120   46.4310 H   0  0  0  0  0  0  0  0  0  0  0  0
   34.2550   27.1720   47.3200 Cl  0  0  0  0  0  0  0  0  0  0  0  0
   33.3030   28.5710   46.7900 C   0  0  0  0  0  0  0  0  0  0  0  0
   33.9780   29.7670   46.6920 C   0  0  0  0  0  0  0  0  0  0  0  0
   33.1940   30.8460   46.2720 C   0  0  0  0  0  0  0  0  0  0  0  0
   33.6990   31.8080   46.1850 H   0  0  0  0  0  0  0  0  0  0  0  0
   31.8400   30.8160   45.9580 C   0  0  0  0  0  0  0  0  0  0  0  0
   31.3340   31.7040   45.6480 H   0  0  0  0  0  0  0  0  0  0  0  0
   31.2670   29.5510   46.0960 C   0  0  0  0  0  0  0  0  0  0  0  0
   30.2110   29.5090   45.8540 H   0  0  0  0  0  0  0  0  0  0  0  0
   31.9630   28.4330   46.5030 C   0  0  0  0  0  0  0  0  0  0  0  0
   31.1790   26.8760   46.6490 Cl  0  0  0  0  0  0  0  0  0  0  0  0
  1  8  1  0  0  0  0
  1  6  1  0  0  0  0
  2  1  2  0  0  0  0
  3  2  1  0  0  0  0
  3  4  2  0  0  0  0
  4  5  1  0  0  0  0
  5  6  2  0  0  0  0
  5  7  1  0  0  0  0
  7  9  1  0  0  0  0
  7 10  1  0  0  0  0
 12 13  1  0  0  0  0
 12 11  1  0  0  0  0
 13  2  1  0  0  0  0
 14 13  2  0  0  0  0
 15 16  2  0  0  0  0
 15 14  1  0  0  0  0
 16 18  1  0  0  0  0
 17 16  1  0  0  0  0
 18 21  1  0  0  0  0
 18 12  2  0  0  0  0
 19 14  1  0  0  0  0
 20 15  1  0  0  0  0
 22  3  1  0  0  0  0
 23 22  1  0  0  0  0
 24 22  1  0  0  0  0
 26 25  1  0  0  0  0
 27 26  1  0  0  0  0
 27 22  1  0  0  0  0
 28 27  2  0  0  0  0
 29 28  1  0  0  0  0
 30 32  2  0  0  0  0
 30 28  1  0  0  0  0
 31 30  1  0  0  0  0
 32 34  1  0  0  0  0
 33 32  1  0  0  0  0
 34 35  1  0  0  0  0
 34 26  2  0  0  0  0
M  END
>  <minimizedAffinity>
-5.89488888

>  <minimizedRMSD>
0.822869837

$$$$
