
 OpenBabel03272505063D

 35 37  0  0  1  0  0  0  0  0999 V2000
   36.8880   30.0990   49.4940 C   0  0  0  0  0  0  0  0  0  0  0  0
   36.9550   30.0930   48.1010 C   0  0  0  0  0  0  0  0  0  0  0  0
   35.7660   30.2020   47.3630 C   0  0  0  0  0  0  0  0  0  0  0  0
   34.5960   30.3110   48.0370 N   0  0  0  0  0  0  0  0  0  0  0  0
   34.5740   30.3140   49.3950 C   0  0  0  0  0  0  0  0  0  0  0  0
   35.7110   30.2090   50.1340 N   0  0  0  0  0  0  0  0  0  0  0  0
   35.6460   30.2110   45.9570 N   0  0  0  0  0  0  0  0  0  0  0  0
   36.4890   30.9860   45.0790 C   0  0  0  0  0  0  0  0  0  0  0  0
   37.0040   30.3090   43.8730 C   0  0  0  0  0  0  0  0  0  0  0  0
   36.1070   29.3160   43.2220 C   0  0  0  0  0  0  0  0  0  0  0  0
   35.4260   28.4900   44.2770 C   0  0  0  0  0  0  0  0  0  0  0  0
   34.6970   29.4740   45.1900 C   0  0  1  0  0  0  0  0  0  0  0  0
   37.8890   30.0070   49.8920 H   0  0  0  0  0  0  0  0  0  0  0  0
   37.8130   30.0120   47.4730 H   0  0  0  0  0  0  0  0  0  0  0  0
   33.6570   30.3990   49.9670 H   0  0  0  0  0  0  0  0  0  0  0  0
   35.8640   31.8580   44.7450 H   0  0  0  0  0  0  0  0  0  0  0  0
   37.3270   31.4390   45.6340 H   0  0  0  0  0  0  0  0  0  0  0  0
   37.9830   29.8230   44.0660 H   0  0  0  0  0  0  0  0  0  0  0  0
   37.2200   31.0940   43.0930 H   0  0  0  0  0  0  0  0  0  0  0  0
   36.7350   28.6680   42.5580 H   0  0  0  0  0  0  0  0  0  0  0  0
   35.3300   29.7610   42.5790 H   0  0  0  0  0  0  0  0  0  0  0  0
   36.2260   27.9820   44.8590 H   0  0  0  0  0  0  0  0  0  0  0  0
   34.7320   27.7500   43.8410 H   0  0  0  0  0  0  0  0  0  0  0  0
   34.1670   30.1450   44.4390 H   0  0  0  0  0  0  0  0  0  0  0  0
   32.0170   30.8870   45.2220 Cl  0  0  0  0  0  0  0  0  0  0  0  0
   32.3110   29.3320   46.0220 C   0  0  0  0  0  0  0  0  0  0  0  0
   33.6110   28.8160   45.9260 C   0  0  0  0  0  0  0  0  0  0  0  0
   33.7050   27.5990   46.5930 C   0  0  0  0  0  0  0  0  0  0  0  0
   34.6690   27.0860   46.5840 H   0  0  0  0  0  0  0  0  0  0  0  0
   32.7140   26.9500   47.2620 C   0  0  0  0  0  0  0  0  0  0  0  0
   32.8680   26.0110   47.7520 H   0  0  0  0  0  0  0  0  0  0  0  0
   31.4720   27.5490   47.2930 C   0  0  0  0  0  0  0  0  0  0  0  0
   30.6740   27.0480   47.8190 H   0  0  0  0  0  0  0  0  0  0  0  0
   31.2440   28.7540   46.6730 C   0  0  0  0  0  0  0  0  0  0  0  0
   29.6910   29.5270   46.6980 Cl  0  0  0  0  0  0  0  0  0  0  0  0
  1 13  1  0  0  0  0
  1  6  1  0  0  0  0
  2  1  2  0  0  0  0
  3  4  2  0  0  0  0
  3  2  1  0  0  0  0
  4  5  1  0  0  0  0
  5 15  1  0  0  0  0
  5  6  2  0  0  0  0
  7  3  1  0  0  0  0
  8 17  1  0  0  0  0
  8  7  1  0  0  0  0
  9 18  1  0  0  0  0
  9  8  1  0  0  0  0
 10  9  1  0  0  0  0
 10 11  1  0  0  0  0
 11 22  1  0  0  0  0
 11 12  1  0  0  0  0
 12 24  1  6  0  0  0
 12 27  1  0  0  0  0
 12  7  1  0  0  0  0
 14  2  1  0  0  0  0
 16  8  1  0  0  0  0
 19  9  1  0  0  0  0
 20 10  1  0  0  0  0
 21 10  1  0  0  0  0
 23 11  1  0  0  0  0
 25 26  1  0  0  0  0
 26 34  1  0  0  0  0
 27 26  2  0  0  0  0
 27 28  1  0  0  0  0
 28 30  2  0  0  0  0
 29 28  1  0  0  0  0
 30 32  1  0  0  0  0
 30 31  1  0  0  0  0
 32 33  1  0  0  0  0
 34 35  1  0  0  0  0
 34 32  2  0  0  0  0
M  END
>  <minimizedAffinity>
-4.1025095

>  <minimizedRMSD>
4.20178604

$$$$
