
 OpenBabel03272502273D

 42 45  0  0  0  0  0  0  0  0999 V2000
   36.3930   23.0950   30.7780 O   0  0  0  0  0  0  0  0  0  0  0  0
   39.2700   25.3650   30.5030 N   0  0  0  0  0  0  0  0  0  0  0  0
   38.6040   24.2040   30.4500 C   0  0  0  0  0  0  0  0  0  0  0  0
   37.2620   24.1720   30.7660 C   0  0  0  0  0  0  0  0  0  0  0  0
   36.6340   25.3560   31.1360 C   0  0  0  0  0  0  0  0  0  0  0  0
   35.4230   25.5500   31.4610 O   0  0  0  0  0  0  0  0  0  0  0  0
   37.3340   26.5080   31.1800 N   0  0  0  0  0  0  0  0  0  0  0  0
   38.6590   26.5190   30.8640 C   0  0  0  0  0  0  0  0  0  0  0  0
   39.3740   27.5640   30.8840 O   0  0  0  0  0  0  0  0  0  0  0  0
   40.2750   25.2700   30.2430 H   0  0  0  0  0  0  0  0  0  0  0  0
   39.0070   23.2590   30.1770 H   0  0  0  0  0  0  0  0  0  0  0  0
   36.9810   27.0870   34.1300 Cl  0  0  0  0  0  0  0  0  0  0  0  0
   36.5730   28.1970   32.8380 C   0  0  0  0  0  0  0  0  0  0  0  0
   36.7950   27.7770   31.5460 C   0  0  0  0  0  0  0  0  0  0  0  0
   36.4980   28.5990   30.4560 C   0  0  0  0  0  0  0  0  0  0  0  0
   36.6600   28.3050   29.4220 H   0  0  0  0  0  0  0  0  0  0  0  0
   35.9650   29.8660   30.7070 C   0  0  0  0  0  0  0  0  0  0  0  0
   35.7050   30.5740   29.9130 H   0  0  0  0  0  0  0  0  0  0  0  0
   35.7360   30.3000   32.0150 C   0  0  0  0  0  0  0  0  0  0  0  0
   35.3200   31.2900   32.2230 H   0  0  0  0  0  0  0  0  0  0  0  0
   36.0440   29.4550   33.0730 C   0  0  0  0  0  0  0  0  0  0  0  0
   35.7750   29.9520   34.7330 Cl  0  0  0  0  0  0  0  0  0  0  0  0
   35.3330   20.6260   33.1910 C   0  0  0  0  0  0  0  0  0  0  0  0
   36.2280   20.8610   34.2500 C   0  0  0  0  0  0  0  0  0  0  0  0
   37.1640   21.8780   34.0670 C   0  0  0  0  0  0  0  0  0  0  0  0
   37.1390   22.5430   32.9120 N   0  0  0  0  0  0  0  0  0  0  0  0
   36.2770   22.3040   31.9120 C   0  0  0  0  0  0  0  0  0  0  0  0
   35.3650   21.3340   32.0570 N   0  0  0  0  0  0  0  0  0  0  0  0
   34.5840   19.8270   33.3120 H   0  0  0  0  0  0  0  0  0  0  0  0
   36.2180   20.3030   35.1650 H   0  0  0  0  0  0  0  0  0  0  0  0
   38.1350   22.2280   35.0830 C   0  0  0  0  0  0  0  0  0  0  0  0
   39.4910   22.0530   34.8510 C   0  0  0  0  0  0  0  0  0  0  0  0
   40.4530   22.3780   35.7680 C   0  0  0  0  0  0  0  0  0  0  0  0
   40.0770   22.8920   36.9580 N   0  0  0  0  0  0  0  0  0  0  0  0
   38.7540   23.0570   37.1690 C   0  0  0  0  0  0  0  0  0  0  0  0
   37.7910   22.7470   36.2860 N   0  0  0  0  0  0  0  0  0  0  0  0
   39.7930   21.6370   33.8900 H   0  0  0  0  0  0  0  0  0  0  0  0
   41.5020   22.2200   35.5360 H   0  0  0  0  0  0  0  0  0  0  0  0
   38.3160   23.6240   38.4770 C   0  0  0  0  0  0  0  0  0  0  0  0
   37.9130   24.9380   38.2420 F   0  0  0  0  0  0  0  0  0  0  0  0
   37.2930   22.8700   39.0130 F   0  0  0  0  0  0  0  0  0  0  0  0
   39.3410   23.6870   39.3810 F   0  0  0  0  0  0  0  0  0  0  0  0
  1 27  1  0  0  0  0
  2  8  1  0  0  0  0
  3  2  1  0  0  0  0
  3  4  2  0  0  0  0
  4  1  1  0  0  0  0
  4  5  1  0  0  0  0
  5  7  1  0  0  0  0
  5  6  2  0  0  0  0
  7 14  1  0  0  0  0
  8  9  2  0  0  0  0
  8  7  1  0  0  0  0
 10  2  1  0  0  0  0
 11  3  1  0  0  0  0
 13 21  1  0  0  0  0
 13 12  1  0  0  0  0
 14 13  2  0  0  0  0
 15 17  2  0  0  0  0
 15 14  1  0  0  0  0
 16 15  1  0  0  0  0
 17 19  1  0  0  0  0
 18 17  1  0  0  0  0
 19 20  1  0  0  0  0
 19 21  2  0  0  0  0
 21 22  1  0  0  0  0
 23 29  1  0  0  0  0
 23 24  1  0  0  0  0
 24 30  1  0  0  0  0
 25 24  2  0  0  0  0
 25 31  1  0  0  0  0
 26 25  1  0  0  0  0
 27 28  1  0  0  0  0
 27 26  2  0  0  0  0
 28 23  2  0  0  0  0
 31 36  1  0  0  0  0
 32 31  2  0  0  0  0
 32 33  1  0  0  0  0
 33 34  2  0  0  0  0
 34 35  1  0  0  0  0
 35 39  1  0  0  0  0
 36 35  2  0  0  0  0
 37 32  1  0  0  0  0
 38 33  1  0  0  0  0
 39 41  1  0  0  0  0
 39 42  1  0  0  0  0
 40 39  1  0  0  0  0
M  END
>  <minimizedAffinity>
-7.42458248

$$$$

 OpenBabel03272502273D

 42 45  0  0  0  0  0  0  0  0999 V2000
   37.7470   27.7280   32.3780 O   0  0  0  0  0  0  0  0  0  0  0  0
   35.1260   29.8760   30.9580 N   0  0  0  0  0  0  0  0  0  0  0  0
   36.1890   29.0620   30.9570 C   0  0  0  0  0  0  0  0  0  0  0  0
   36.6740   28.5710   32.1510 C   0  0  0  0  0  0  0  0  0  0  0  0
   36.0380   28.9390   33.3320 C   0  0  0  0  0  0  0  0  0  0  0  0
   36.3140   28.6060   34.5250 O   0  0  0  0  0  0  0  0  0  0  0  0
   34.9700   29.7610   33.2980 N   0  0  0  0  0  0  0  0  0  0  0  0
   34.5060   30.2350   32.1080 C   0  0  0  0  0  0  0  0  0  0  0  0
   33.5090   31.0090   32.0040 O   0  0  0  0  0  0  0  0  0  0  0  0
   34.8480   30.1840   30.0020 H   0  0  0  0  0  0  0  0  0  0  0  0
   36.7300   28.7330   30.1030 H   0  0  0  0  0  0  0  0  0  0  0  0
   36.0160   32.1890   34.7710 Cl  0  0  0  0  0  0  0  0  0  0  0  0
   34.5830   31.2880   35.2210 C   0  0  0  0  0  0  0  0  0  0  0  0
   34.2430   30.2040   34.4430 C   0  0  0  0  0  0  0  0  0  0  0  0
   33.1160   29.4300   34.7310 C   0  0  0  0  0  0  0  0  0  0  0  0
   32.8150   28.5680   34.1410 H   0  0  0  0  0  0  0  0  0  0  0  0
   32.3350   29.7810   35.8340 C   0  0  0  0  0  0  0  0  0  0  0  0
   31.4350   29.2310   36.1310 H   0  0  0  0  0  0  0  0  0  0  0  0
   32.6720   30.8800   36.6290 C   0  0  0  0  0  0  0  0  0  0  0  0
   32.0670   31.1640   37.4950 H   0  0  0  0  0  0  0  0  0  0  0  0
   33.8000   31.6250   36.3120 C   0  0  0  0  0  0  0  0  0  0  0  0
   34.2660   33.0130   37.2790 Cl  0  0  0  0  0  0  0  0  0  0  0  0
   36.7780   24.3520   31.5360 C   0  0  0  0  0  0  0  0  0  0  0  0
   37.3270   23.6240   32.6060 C   0  0  0  0  0  0  0  0  0  0  0  0
   38.0120   24.3530   33.5760 C   0  0  0  0  0  0  0  0  0  0  0  0
   38.0960   25.6730   33.4150 N   0  0  0  0  0  0  0  0  0  0  0  0
   37.5650   26.3530   32.3850 C   0  0  0  0  0  0  0  0  0  0  0  0
   36.8990   25.6800   31.4370 N   0  0  0  0  0  0  0  0  0  0  0  0
   36.2310   23.7980   30.7560 H   0  0  0  0  0  0  0  0  0  0  0  0
   37.2390   22.5590   32.7000 H   0  0  0  0  0  0  0  0  0  0  0  0
   38.6160   23.7260   34.7340 C   0  0  0  0  0  0  0  0  0  0  0  0
   39.6570   22.8230   34.5830 C   0  0  0  0  0  0  0  0  0  0  0  0
   40.2720   22.2110   35.6400 C   0  0  0  0  0  0  0  0  0  0  0  0
   39.8540   22.4890   36.8940 N   0  0  0  0  0  0  0  0  0  0  0  0
   38.8390   23.3690   37.0240 C   0  0  0  0  0  0  0  0  0  0  0  0
   38.2200   23.9840   36.0040 N   0  0  0  0  0  0  0  0  0  0  0  0
   39.9930   22.6000   33.5710 H   0  0  0  0  0  0  0  0  0  0  0  0
   41.0850   21.5100   35.4670 H   0  0  0  0  0  0  0  0  0  0  0  0
   38.3610   23.6910   38.3990 C   0  0  0  0  0  0  0  0  0  0  0  0
   37.9050   25.0080   38.3790 F   0  0  0  0  0  0  0  0  0  0  0  0
   37.3650   22.8170   38.7820 F   0  0  0  0  0  0  0  0  0  0  0  0
   39.3710   23.6430   39.3210 F   0  0  0  0  0  0  0  0  0  0  0  0
  1 27  1  0  0  0  0
  2  8  1  0  0  0  0
  3  2  1  0  0  0  0
  3  4  2  0  0  0  0
  4  1  1  0  0  0  0
  4  5  1  0  0  0  0
  5  6  2  0  0  0  0
  7  5  1  0  0  0  0
  7 14  1  0  0  0  0
  8  7  1  0  0  0  0
  9  8  2  0  0  0  0
 10  2  1  0  0  0  0
 11  3  1  0  0  0  0
 12 13  1  0  0  0  0
 13 21  1  0  0  0  0
 14 15  1  0  0  0  0
 14 13  2  0  0  0  0
 15 17  2  0  0  0  0
 16 15  1  0  0  0  0
 17 18  1  0  0  0  0
 17 19  1  0  0  0  0
 19 20  1  0  0  0  0
 21 19  2  0  0  0  0
 21 22  1  0  0  0  0
 23 24  1  0  0  0  0
 24 30  1  0  0  0  0
 24 25  2  0  0  0  0
 25 31  1  0  0  0  0
 26 25  1  0  0  0  0
 27 26  2  0  0  0  0
 28 23  2  0  0  0  0
 28 27  1  0  0  0  0
 29 23  1  0  0  0  0
 31 36  1  0  0  0  0
 32 31  2  0  0  0  0
 32 33  1  0  0  0  0
 33 34  2  0  0  0  0
 34 35  1  0  0  0  0
 35 39  1  0  0  0  0
 36 35  2  0  0  0  0
 37 32  1  0  0  0  0
 38 33  1  0  0  0  0
 39 41  1  0  0  0  0
 39 42  1  0  0  0  0
 40 39  1  0  0  0  0
M  END
>  <minimizedAffinity>
-7.34072065

$$$$

 OpenBabel03272502273D

 42 45  0  0  0  0  0  0  0  0999 V2000
   36.7020   26.9730   32.1550 O   0  0  0  0  0  0  0  0  0  0  0  0
   35.6480   30.3150   31.0490 N   0  0  0  0  0  0  0  0  0  0  0  0
   36.1300   29.0710   30.9310 C   0  0  0  0  0  0  0  0  0  0  0  0
   36.2370   28.2720   32.0500 C   0  0  0  0  0  0  0  0  0  0  0  0
   35.8370   28.7860   33.2790 C   0  0  0  0  0  0  0  0  0  0  0  0
   35.8480   28.2290   34.4190 O   0  0  0  0  0  0  0  0  0  0  0  0
   35.3570   30.0430   33.3630 N   0  0  0  0  0  0  0  0  0  0  0  0
   35.2590   30.8170   32.2460 C   0  0  0  0  0  0  0  0  0  0  0  0
   34.8170   32.0040   32.2530 O   0  0  0  0  0  0  0  0  0  0  0  0
   35.6120   30.8250   30.1410 H   0  0  0  0  0  0  0  0  0  0  0  0
   36.4550   28.6040   30.0330 H   0  0  0  0  0  0  0  0  0  0  0  0
   32.5110   29.5370   34.2590 Cl  0  0  0  0  0  0  0  0  0  0  0  0
   33.6620   30.5450   35.1110 C   0  0  0  0  0  0  0  0  0  0  0  0
   34.9200   30.6720   34.5660 C   0  0  0  0  0  0  0  0  0  0  0  0
   35.9000   31.4570   35.1800 C   0  0  0  0  0  0  0  0  0  0  0  0
   36.9040   31.5810   34.7820 H   0  0  0  0  0  0  0  0  0  0  0  0
   35.5730   32.1160   36.3680 C   0  0  0  0  0  0  0  0  0  0  0  0
   36.2790   32.7500   36.9150 H   0  0  0  0  0  0  0  0  0  0  0  0
   34.2980   31.9930   36.9270 C   0  0  0  0  0  0  0  0  0  0  0  0
   34.0320   32.5050   37.8570 H   0  0  0  0  0  0  0  0  0  0  0  0
   33.3510   31.2050   36.2880 C   0  0  0  0  0  0  0  0  0  0  0  0
   31.7370   31.0190   36.9500 Cl  0  0  0  0  0  0  0  0  0  0  0  0
   40.2980   27.0480   32.4840 C   0  0  0  0  0  0  0  0  0  0  0  0
   40.5120   26.0850   33.4860 C   0  0  0  0  0  0  0  0  0  0  0  0
   39.3810   25.4530   34.0000 C   0  0  0  0  0  0  0  0  0  0  0  0
   38.1950   25.8070   33.5080 N   0  0  0  0  0  0  0  0  0  0  0  0
   38.0090   26.7300   32.5500 C   0  0  0  0  0  0  0  0  0  0  0  0
   39.0760   27.3550   32.0350 N   0  0  0  0  0  0  0  0  0  0  0  0
   41.1760   27.5620   32.0610 H   0  0  0  0  0  0  0  0  0  0  0  0
   41.4840   25.8270   33.8580 H   0  0  0  0  0  0  0  0  0  0  0  0
   39.4630   24.4350   35.0280 C   0  0  0  0  0  0  0  0  0  0  0  0
   40.1560   23.2560   34.7970 C   0  0  0  0  0  0  0  0  0  0  0  0
   40.2770   22.2670   35.7340 C   0  0  0  0  0  0  0  0  0  0  0  0
   39.6990   22.4330   36.9420 N   0  0  0  0  0  0  0  0  0  0  0  0
   39.0270   23.5850   37.1510 C   0  0  0  0  0  0  0  0  0  0  0  0
   38.8950   24.5710   36.2500 N   0  0  0  0  0  0  0  0  0  0  0  0
   40.6220   23.1230   33.8210 H   0  0  0  0  0  0  0  0  0  0  0  0
   40.8310   21.3610   35.5020 H   0  0  0  0  0  0  0  0  0  0  0  0
   38.3800   23.7900   38.4790 C   0  0  0  0  0  0  0  0  0  0  0  0
   37.8880   25.0950   38.5000 F   0  0  0  0  0  0  0  0  0  0  0  0
   37.3750   22.8670   38.6750 F   0  0  0  0  0  0  0  0  0  0  0  0
   39.2760   23.6950   39.5090 F   0  0  0  0  0  0  0  0  0  0  0  0
  1 27  1  0  0  0  0
  2  8  1  0  0  0  0
  3  2  1  0  0  0  0
  3  4  2  0  0  0  0
  4  1  1  0  0  0  0
  4  5  1  0  0  0  0
  5  7  1  0  0  0  0
  5  6  2  0  0  0  0
  7 14  1  0  0  0  0
  8  9  2  0  0  0  0
  8  7  1  0  0  0  0
 10  2  1  0  0  0  0
 11  3  1  0  0  0  0
 12 13  1  0  0  0  0
 13 21  1  0  0  0  0
 14 13  2  0  0  0  0
 14 15  1  0  0  0  0
 15 17  2  0  0  0  0
 16 15  1  0  0  0  0
 17 18  1  0  0  0  0
 17 19  1  0  0  0  0
 19 20  1  0  0  0  0
 21 19  2  0  0  0  0
 21 22  1  0  0  0  0
 23 24  1  0  0  0  0
 24 30  1  0  0  0  0
 24 25  2  0  0  0  0
 25 31  1  0  0  0  0
 26 25  1  0  0  0  0
 27 26  2  0  0  0  0
 28 23  2  0  0  0  0
 28 27  1  0  0  0  0
 29 23  1  0  0  0  0
 31 36  1  0  0  0  0
 32 31  2  0  0  0  0
 32 33  1  0  0  0  0
 33 34  2  0  0  0  0
 34 35  1  0  0  0  0
 35 39  1  0  0  0  0
 36 35  2  0  0  0  0
 37 32  1  0  0  0  0
 38 33  1  0  0  0  0
 39 40  1  0  0  0  0
 39 41  1  0  0  0  0
 39 42  1  0  0  0  0
M  END
>  <minimizedAffinity>
-7.2475028

$$$$

 OpenBabel03272502273D

 42 45  0  0  0  0  0  0  0  0999 V2000
   36.9700   22.8970   31.1790 O   0  0  0  0  0  0  0  0  0  0  0  0
   39.7300   25.3220   31.2580 N   0  0  0  0  0  0  0  0  0  0  0  0
   39.1430   24.1220   31.1570 C   0  0  0  0  0  0  0  0  0  0  0  0
   37.7710   24.0220   31.2520 C   0  0  0  0  0  0  0  0  0  0  0  0
   37.0290   25.1820   31.4510 C   0  0  0  0  0  0  0  0  0  0  0  0
   35.7730   25.3170   31.5640 O   0  0  0  0  0  0  0  0  0  0  0  0
   37.6510   26.3750   31.5480 N   0  0  0  0  0  0  0  0  0  0  0  0
   39.0080   26.4510   31.4520 C   0  0  0  0  0  0  0  0  0  0  0  0
   39.6540   27.5380   31.5330 O   0  0  0  0  0  0  0  0  0  0  0  0
   40.7670   25.2770   31.1700 H   0  0  0  0  0  0  0  0  0  0  0  0
   39.6350   23.1920   31.0050 H   0  0  0  0  0  0  0  0  0  0  0  0
   37.0030   27.1700   34.3950 Cl  0  0  0  0  0  0  0  0  0  0  0  0
   36.6300   28.1320   32.9800 C   0  0  0  0  0  0  0  0  0  0  0  0
   36.9940   27.6240   31.7530 C   0  0  0  0  0  0  0  0  0  0  0  0
   36.7340   28.3250   30.5730 C   0  0  0  0  0  0  0  0  0  0  0  0
   37.0060   27.9580   29.5860 H   0  0  0  0  0  0  0  0  0  0  0  0
   36.0930   29.5630   30.6640 C   0  0  0  0  0  0  0  0  0  0  0  0
   35.8520   30.1790   29.7910 H   0  0  0  0  0  0  0  0  0  0  0  0
   35.7200   30.0860   31.9050 C   0  0  0  0  0  0  0  0  0  0  0  0
   35.2180   31.0540   31.9890 H   0  0  0  0  0  0  0  0  0  0  0  0
   35.9950   29.3600   33.0560 C   0  0  0  0  0  0  0  0  0  0  0  0
   35.5480   29.9720   34.6380 Cl  0  0  0  0  0  0  0  0  0  0  0  0
   35.4860   20.6140   33.5520 C   0  0  0  0  0  0  0  0  0  0  0  0
   36.2250   20.8930   34.7150 C   0  0  0  0  0  0  0  0  0  0  0  0
   37.2120   21.8720   34.6110 C   0  0  0  0  0  0  0  0  0  0  0  0
   37.3790   22.4620   33.4290 N   0  0  0  0  0  0  0  0  0  0  0  0
   36.6630   22.1830   32.3280 C   0  0  0  0  0  0  0  0  0  0  0  0
   35.7060   21.2470   32.3950 N   0  0  0  0  0  0  0  0  0  0  0  0
   34.6990   19.8440   33.6080 H   0  0  0  0  0  0  0  0  0  0  0  0
   36.0620   20.3940   35.6500 H   0  0  0  0  0  0  0  0  0  0  0  0
   38.0380   22.2610   35.7370 C   0  0  0  0  0  0  0  0  0  0  0  0
   37.4990   22.9890   36.7870 C   0  0  0  0  0  0  0  0  0  0  0  0
   38.2260   23.3730   37.8790 C   0  0  0  0  0  0  0  0  0  0  0  0
   39.5310   23.0330   37.9510 N   0  0  0  0  0  0  0  0  0  0  0  0
   40.0410   22.3250   36.9220 C   0  0  0  0  0  0  0  0  0  0  0  0
   39.3490   21.9350   35.8390 N   0  0  0  0  0  0  0  0  0  0  0  0
   36.4450   23.2630   36.7270 H   0  0  0  0  0  0  0  0  0  0  0  0
   37.7550   23.9440   38.6750 H   0  0  0  0  0  0  0  0  0  0  0  0
   41.4810   21.9380   36.9790 C   0  0  0  0  0  0  0  0  0  0  0  0
   42.2210   23.1170   37.0480 F   0  0  0  0  0  0  0  0  0  0  0  0
   41.7200   21.1260   38.0680 F   0  0  0  0  0  0  0  0  0  0  0  0
   41.8860   21.2900   35.8450 F   0  0  0  0  0  0  0  0  0  0  0  0
  1  4  1  0  0  0  0
  1 27  1  0  0  0  0
  2  8  1  0  0  0  0
  3  4  2  0  0  0  0
  3  2  1  0  0  0  0
  4  5  1  0  0  0  0
  5  7  1  0  0  0  0
  5  6  2  0  0  0  0
  7 14  1  0  0  0  0
  8  9  2  0  0  0  0
  8  7  1  0  0  0  0
 10  2  1  0  0  0  0
 11  3  1  0  0  0  0
 13 21  1  0  0  0  0
 13 12  1  0  0  0  0
 14 13  2  0  0  0  0
 15 17  2  0  0  0  0
 15 14  1  0  0  0  0
 16 15  1  0  0  0  0
 17 19  1  0  0  0  0
 18 17  1  0  0  0  0
 19 20  1  0  0  0  0
 19 21  2  0  0  0  0
 21 22  1  0  0  0  0
 23 29  1  0  0  0  0
 23 24  1  0  0  0  0
 24 30  1  0  0  0  0
 25 24  2  0  0  0  0
 25 31  1  0  0  0  0
 26 25  1  0  0  0  0
 27 28  1  0  0  0  0
 27 26  2  0  0  0  0
 28 23  2  0  0  0  0
 31 36  2  0  0  0  0
 31 32  1  0  0  0  0
 32 33  2  0  0  0  0
 33 34  1  0  0  0  0
 33 38  1  0  0  0  0
 35 39  1  0  0  0  0
 35 34  2  0  0  0  0
 36 35  1  0  0  0  0
 37 32  1  0  0  0  0
 39 40  1  0  0  0  0
 39 41  1  0  0  0  0
 42 39  1  0  0  0  0
M  END
>  <minimizedAffinity>
-7.09213257

$$$$

 OpenBabel03272502273D

 42 45  0  0  0  0  0  0  0  0999 V2000
   36.2130   22.9200   30.8710 O   0  0  0  0  0  0  0  0  0  0  0  0
   35.4900   26.5070   31.2100 N   0  0  0  0  0  0  0  0  0  0  0  0
   35.2310   25.1930   31.1760 C   0  0  0  0  0  0  0  0  0  0  0  0
   36.2570   24.3000   30.9470 C   0  0  0  0  0  0  0  0  0  0  0  0
   37.5430   24.7950   30.7550 C   0  0  0  0  0  0  0  0  0  0  0  0
   38.6180   24.1590   30.5340 O   0  0  0  0  0  0  0  0  0  0  0  0
   37.7690   26.1240   30.7950 N   0  0  0  0  0  0  0  0  0  0  0  0
   36.7420   26.9890   31.0230 C   0  0  0  0  0  0  0  0  0  0  0  0
   36.8850   28.2460   31.0740 O   0  0  0  0  0  0  0  0  0  0  0  0
   34.6420   27.0840   31.3920 H   0  0  0  0  0  0  0  0  0  0  0  0
   34.2820   24.7350   31.3130 H   0  0  0  0  0  0  0  0  0  0  0  0
   39.5220   26.4790   33.2360 Cl  0  0  0  0  0  0  0  0  0  0  0  0
   39.9570   26.9750   31.6130 C   0  0  0  0  0  0  0  0  0  0  0  0
   39.0420   26.7410   30.6110 C   0  0  0  0  0  0  0  0  0  0  0  0
   39.3080   27.1040   29.2890 C   0  0  0  0  0  0  0  0  0  0  0  0
   38.6120   26.9360   28.4700 H   0  0  0  0  0  0  0  0  0  0  0  0
   40.5310   27.7160   29.0020 C   0  0  0  0  0  0  0  0  0  0  0  0
   40.8200   28.0320   27.9940 H   0  0  0  0  0  0  0  0  0  0  0  0
   41.4640   27.9580   30.0130 C   0  0  0  0  0  0  0  0  0  0  0  0
   42.4250   28.4360   29.8000 H   0  0  0  0  0  0  0  0  0  0  0  0
   41.1650   27.5830   31.3150 C   0  0  0  0  0  0  0  0  0  0  0  0
   42.3030   27.8650   32.6200 Cl  0  0  0  0  0  0  0  0  0  0  0  0
   35.3020   20.4890   33.3820 C   0  0  0  0  0  0  0  0  0  0  0  0
   36.2180   20.7820   34.4070 C   0  0  0  0  0  0  0  0  0  0  0  0
   37.1150   21.8220   34.1680 C   0  0  0  0  0  0  0  0  0  0  0  0
   37.0370   22.4520   32.9970 N   0  0  0  0  0  0  0  0  0  0  0  0
   36.1540   22.1580   32.0290 C   0  0  0  0  0  0  0  0  0  0  0  0
   35.2780   21.1650   32.2280 N   0  0  0  0  0  0  0  0  0  0  0  0
   34.5810   19.6720   33.5460 H   0  0  0  0  0  0  0  0  0  0  0  0
   36.2510   20.2510   35.3380 H   0  0  0  0  0  0  0  0  0  0  0  0
   38.1040   22.2320   35.1450 C   0  0  0  0  0  0  0  0  0  0  0  0
   39.4570   22.1320   34.8620 C   0  0  0  0  0  0  0  0  0  0  0  0
   40.4330   22.5150   35.7400 C   0  0  0  0  0  0  0  0  0  0  0  0
   40.0750   23.0130   36.9430 N   0  0  0  0  0  0  0  0  0  0  0  0
   38.7540   23.1040   37.2040 C   0  0  0  0  0  0  0  0  0  0  0  0
   37.7770   22.7360   36.3590 N   0  0  0  0  0  0  0  0  0  0  0  0
   39.7450   21.7290   33.8910 H   0  0  0  0  0  0  0  0  0  0  0  0
   41.4800   22.4150   35.4690 H   0  0  0  0  0  0  0  0  0  0  0  0
   38.3350   23.6520   38.5260 C   0  0  0  0  0  0  0  0  0  0  0  0
   37.3200   22.8280   39.0110 F   0  0  0  0  0  0  0  0  0  0  0  0
   39.4070   23.6970   39.3930 F   0  0  0  0  0  0  0  0  0  0  0  0
   37.8000   24.9070   38.4180 F   0  0  0  0  0  0  0  0  0  0  0  0
  1  4  1  0  0  0  0
  1 27  1  0  0  0  0
  2 10  1  0  0  0  0
  3  2  1  0  0  0  0
  3 11  1  0  0  0  0
  4  3  2  0  0  0  0
  5  7  1  0  0  0  0
  5  4  1  0  0  0  0
  6  5  2  0  0  0  0
  7  8  1  0  0  0  0
  8  9  2  0  0  0  0
  8  2  1  0  0  0  0
 13 12  1  0  0  0  0
 14  7  1  0  0  0  0
 14 13  2  0  0  0  0
 15 14  1  0  0  0  0
 16 15  1  0  0  0  0
 17 15  2  0  0  0  0
 17 19  1  0  0  0  0
 18 17  1  0  0  0  0
 19 21  2  0  0  0  0
 20 19  1  0  0  0  0
 21 13  1  0  0  0  0
 21 22  1  0  0  0  0
 23 29  1  0  0  0  0
 23 24  1  0  0  0  0
 24 30  1  0  0  0  0
 25 24  2  0  0  0  0
 25 31  1  0  0  0  0
 26 25  1  0  0  0  0
 27 28  1  0  0  0  0
 27 26  2  0  0  0  0
 28 23  2  0  0  0  0
 31 36  1  0  0  0  0
 32 31  2  0  0  0  0
 32 33  1  0  0  0  0
 33 34  2  0  0  0  0
 34 35  1  0  0  0  0
 35 39  1  0  0  0  0
 36 35  2  0  0  0  0
 37 32  1  0  0  0  0
 38 33  1  0  0  0  0
 39 40  1  0  0  0  0
 39 41  1  0  0  0  0
 42 39  1  0  0  0  0
M  END
>  <minimizedAffinity>
-6.9676733

$$$$

 OpenBabel03272502273D

 42 45  0  0  0  0  0  0  0  0999 V2000
   37.1130   22.9290   31.1580 O   0  0  0  0  0  0  0  0  0  0  0  0
   39.7620   25.4750   31.1830 N   0  0  0  0  0  0  0  0  0  0  0  0
   39.2160   24.2640   31.0170 C   0  0  0  0  0  0  0  0  0  0  0  0
   37.8710   24.0810   31.2630 C   0  0  0  0  0  0  0  0  0  0  0  0
   37.1150   25.1710   31.6810 C   0  0  0  0  0  0  0  0  0  0  0  0
   35.8780   25.2250   31.9580 O   0  0  0  0  0  0  0  0  0  0  0  0
   37.6960   26.3780   31.8380 N   0  0  0  0  0  0  0  0  0  0  0  0
   39.0260   26.5370   31.5900 C   0  0  0  0  0  0  0  0  0  0  0  0
   39.6330   27.6410   31.7170 O   0  0  0  0  0  0  0  0  0  0  0  0
   40.7810   25.4960   30.9670 H   0  0  0  0  0  0  0  0  0  0  0  0
   39.7210   23.3830   30.7010 H   0  0  0  0  0  0  0  0  0  0  0  0
   36.8790   28.3670   29.7090 Cl  0  0  0  0  0  0  0  0  0  0  0  0
   36.5820   28.5610   31.4240 C   0  0  0  0  0  0  0  0  0  0  0  0
   37.0200   27.5600   32.2620 C   0  0  0  0  0  0  0  0  0  0  0  0
   36.8240   27.6340   33.6430 C   0  0  0  0  0  0  0  0  0  0  0  0
   37.1550   26.8650   34.3380 H   0  0  0  0  0  0  0  0  0  0  0  0
   36.1700   28.7550   34.1610 C   0  0  0  0  0  0  0  0  0  0  0  0
   35.9740   28.8940   35.2300 H   0  0  0  0  0  0  0  0  0  0  0  0
   35.7220   29.7750   33.3180 C   0  0  0  0  0  0  0  0  0  0  0  0
   35.2080   30.6570   33.7120 H   0  0  0  0  0  0  0  0  0  0  0  0
   35.9350   29.6660   31.9500 C   0  0  0  0  0  0  0  0  0  0  0  0
   35.3920   30.9200   30.8500 Cl  0  0  0  0  0  0  0  0  0  0  0  0
   35.5180   20.6750   33.4860 C   0  0  0  0  0  0  0  0  0  0  0  0
   36.2360   20.9320   34.6680 C   0  0  0  0  0  0  0  0  0  0  0  0
   37.2480   21.8870   34.5920 C   0  0  0  0  0  0  0  0  0  0  0  0
   37.4570   22.4770   33.4160 N   0  0  0  0  0  0  0  0  0  0  0  0
   36.7610   22.2190   32.2970 C   0  0  0  0  0  0  0  0  0  0  0  0
   35.7810   21.3060   32.3380 N   0  0  0  0  0  0  0  0  0  0  0  0
   34.7120   19.9240   33.5210 H   0  0  0  0  0  0  0  0  0  0  0  0
   36.0390   20.4340   35.5970 H   0  0  0  0  0  0  0  0  0  0  0  0
   38.0560   22.2520   35.7380 C   0  0  0  0  0  0  0  0  0  0  0  0
   37.4990   22.9550   36.7960 C   0  0  0  0  0  0  0  0  0  0  0  0
   38.2090   23.3150   37.9080 C   0  0  0  0  0  0  0  0  0  0  0  0
   39.5140   22.9780   37.9910 N   0  0  0  0  0  0  0  0  0  0  0  0
   40.0410   22.2950   36.9540 C   0  0  0  0  0  0  0  0  0  0  0  0
   39.3660   21.9290   35.8520 N   0  0  0  0  0  0  0  0  0  0  0  0
   36.4460   23.2270   36.7270 H   0  0  0  0  0  0  0  0  0  0  0  0
   37.7240   23.8660   38.7090 H   0  0  0  0  0  0  0  0  0  0  0  0
   41.4810   21.9120   37.0230 C   0  0  0  0  0  0  0  0  0  0  0  0
   42.2190   23.0930   37.0920 F   0  0  0  0  0  0  0  0  0  0  0  0
   41.7140   21.1060   38.1180 F   0  0  0  0  0  0  0  0  0  0  0  0
   41.8960   21.2580   35.8960 F   0  0  0  0  0  0  0  0  0  0  0  0
  1  4  1  0  0  0  0
  1 27  1  0  0  0  0
  2  8  1  0  0  0  0
  3  2  1  0  0  0  0
  3  4  2  0  0  0  0
  4  5  1  0  0  0  0
  5  7  1  0  0  0  0
  5  6  2  0  0  0  0
  7 14  1  0  0  0  0
  8  9  2  0  0  0  0
  8  7  1  0  0  0  0
 10  2  1  0  0  0  0
 11  3  1  0  0  0  0
 12 13  1  0  0  0  0
 13 21  2  0  0  0  0
 13 14  1  0  0  0  0
 14 15  2  0  0  0  0
 15 17  1  0  0  0  0
 15 16  1  0  0  0  0
 17 18  1  0  0  0  0
 19 20  1  0  0  0  0
 19 17  2  0  0  0  0
 21 19  1  0  0  0  0
 22 21  1  0  0  0  0
 23 29  1  0  0  0  0
 23 24  1  0  0  0  0
 24 30  1  0  0  0  0
 25 24  2  0  0  0  0
 25 31  1  0  0  0  0
 26 25  1  0  0  0  0
 27 28  1  0  0  0  0
 27 26  2  0  0  0  0
 28 23  2  0  0  0  0
 31 36  2  0  0  0  0
 31 32  1  0  0  0  0
 32 33  2  0  0  0  0
 33 34  1  0  0  0  0
 33 38  1  0  0  0  0
 35 39  1  0  0  0  0
 35 34  2  0  0  0  0
 36 35  1  0  0  0  0
 37 32  1  0  0  0  0
 39 40  1  0  0  0  0
 39 41  1  0  0  0  0
 42 39  1  0  0  0  0
M  END
>  <minimizedAffinity>
-6.92541218

$$$$

 OpenBabel03272502273D

 42 45  0  0  0  0  0  0  0  0999 V2000
   38.8750   26.9840   31.9120 O   0  0  0  0  0  0  0  0  0  0  0  0
   37.3940   23.6290   32.1500 N   0  0  0  0  0  0  0  0  0  0  0  0
   37.7320   24.7910   31.5770 C   0  0  0  0  0  0  0  0  0  0  0  0
   38.4310   25.7330   32.3020 C   0  0  0  0  0  0  0  0  0  0  0  0
   38.7690   25.4450   33.6200 C   0  0  0  0  0  0  0  0  0  0  0  0
   39.4030   26.1580   34.4560 O   0  0  0  0  0  0  0  0  0  0  0  0
   38.4130   24.2650   34.1680 N   0  0  0  0  0  0  0  0  0  0  0  0
   37.7220   23.3480   33.4340 C   0  0  0  0  0  0  0  0  0  0  0  0
   37.3580   22.2220   33.8850 O   0  0  0  0  0  0  0  0  0  0  0  0
   36.8700   22.9960   31.5090 H   0  0  0  0  0  0  0  0  0  0  0  0
   37.5140   25.0880   30.5790 H   0  0  0  0  0  0  0  0  0  0  0  0
   40.8210   22.4860   34.6100 Cl  0  0  0  0  0  0  0  0  0  0  0  0
   39.7580   23.0610   35.8770 C   0  0  0  0  0  0  0  0  0  0  0  0
   38.7030   23.8650   35.5060 C   0  0  0  0  0  0  0  0  0  0  0  0
   37.8060   24.3670   36.4520 C   0  0  0  0  0  0  0  0  0  0  0  0
   36.9620   25.0040   36.1990 H   0  0  0  0  0  0  0  0  0  0  0  0
   38.0040   24.0330   37.7950 C   0  0  0  0  0  0  0  0  0  0  0  0
   37.3500   24.3840   38.6010 H   0  0  0  0  0  0  0  0  0  0  0  0
   39.0710   23.2190   38.1800 C   0  0  0  0  0  0  0  0  0  0  0  0
   39.2350   22.9520   39.2290 H   0  0  0  0  0  0  0  0  0  0  0  0
   39.9410   22.7380   37.2110 C   0  0  0  0  0  0  0  0  0  0  0  0
   41.2970   21.7120   37.6440 Cl  0  0  0  0  0  0  0  0  0  0  0  0
   37.0910   29.3880   29.8920 C   0  0  0  0  0  0  0  0  0  0  0  0
   36.0790   29.8050   30.7740 C   0  0  0  0  0  0  0  0  0  0  0  0
   36.0700   29.2220   32.0400 C   0  0  0  0  0  0  0  0  0  0  0  0
   37.0120   28.3210   32.3140 N   0  0  0  0  0  0  0  0  0  0  0  0
   37.9720   27.9340   31.4580 C   0  0  0  0  0  0  0  0  0  0  0  0
   38.0080   28.4770   30.2340 N   0  0  0  0  0  0  0  0  0  0  0  0
   37.1200   29.8350   28.8850 H   0  0  0  0  0  0  0  0  0  0  0  0
   35.3360   30.5340   30.5160 H   0  0  0  0  0  0  0  0  0  0  0  0
   35.0880   29.5720   33.0470 C   0  0  0  0  0  0  0  0  0  0  0  0
   35.4240   30.4140   34.0960 C   0  0  0  0  0  0  0  0  0  0  0  0
   34.5360   30.7880   35.0660 C   0  0  0  0  0  0  0  0  0  0  0  0
   33.2710   30.3200   35.0130 N   0  0  0  0  0  0  0  0  0  0  0  0
   32.9590   29.5010   33.9860 C   0  0  0  0  0  0  0  0  0  0  0  0
   33.8120   29.1200   33.0210 N   0  0  0  0  0  0  0  0  0  0  0  0
   36.4460   30.7900   34.1380 H   0  0  0  0  0  0  0  0  0  0  0  0
   34.8510   31.4500   35.8670 H   0  0  0  0  0  0  0  0  0  0  0  0
   31.5670   28.9720   33.9070 C   0  0  0  0  0  0  0  0  0  0  0  0
   31.3370   28.2390   35.0700 F   0  0  0  0  0  0  0  0  0  0  0  0
   30.6630   30.0070   33.7750 F   0  0  0  0  0  0  0  0  0  0  0  0
   31.4030   28.1050   32.8610 F   0  0  0  0  0  0  0  0  0  0  0  0
  1  4  1  0  0  0  0
  2  8  1  0  0  0  0
  3  2  1  0  0  0  0
  3  4  2  0  0  0  0
  4  5  1  0  0  0  0
  5  7  1  0  0  0  0
  5  6  2  0  0  0  0
  7 14  1  0  0  0  0
  8  9  2  0  0  0  0
  8  7  1  0  0  0  0
 10  2  1  0  0  0  0
 11  3  1  0  0  0  0
 12 13  1  0  0  0  0
 13 21  1  0  0  0  0
 14 13  2  0  0  0  0
 14 15  1  0  0  0  0
 15 17  2  0  0  0  0
 16 15  1  0  0  0  0
 17 19  1  0  0  0  0
 17 18  1  0  0  0  0
 19 20  1  0  0  0  0
 21 22  1  0  0  0  0
 21 19  2  0  0  0  0
 23 28  2  0  0  0  0
 23 24  1  0  0  0  0
 24 25  2  0  0  0  0
 25 26  1  0  0  0  0
 25 31  1  0  0  0  0
 27  1  1  0  0  0  0
 27 26  2  0  0  0  0
 28 27  1  0  0  0  0
 29 23  1  0  0  0  0
 30 24  1  0  0  0  0
 31 32  1  0  0  0  0
 32 37  1  0  0  0  0
 32 33  2  0  0  0  0
 33 38  1  0  0  0  0
 34 33  1  0  0  0  0
 35 34  2  0  0  0  0
 36 31  2  0  0  0  0
 36 35  1  0  0  0  0
 39 35  1  0  0  0  0
 39 40  1  0  0  0  0
 41 39  1  0  0  0  0
 42 39  1  0  0  0  0
M  END
>  <minimizedAffinity>
-6.85625553

$$$$

 OpenBabel03272502273D

 42 45  0  0  0  0  0  0  0  0999 V2000
   35.4780   27.0340   31.5180 O   0  0  0  0  0  0  0  0  0  0  0  0
   37.9100   25.2080   33.5790 N   0  0  0  0  0  0  0  0  0  0  0  0
   37.2430   26.2680   33.1060 C   0  0  0  0  0  0  0  0  0  0  0  0
   36.2760   26.0900   32.1390 C   0  0  0  0  0  0  0  0  0  0  0  0
   36.0200   24.8030   31.6790 C   0  0  0  0  0  0  0  0  0  0  0  0
   35.1830   24.4190   30.8060 O   0  0  0  0  0  0  0  0  0  0  0  0
   36.7110   23.7570   32.1760 N   0  0  0  0  0  0  0  0  0  0  0  0
   37.6620   23.9540   33.1310 C   0  0  0  0  0  0  0  0  0  0  0  0
   38.3450   23.0170   33.6410 O   0  0  0  0  0  0  0  0  0  0  0  0
   38.6140   25.4610   34.3050 H   0  0  0  0  0  0  0  0  0  0  0  0
   37.3770   27.2800   33.4030 H   0  0  0  0  0  0  0  0  0  0  0  0
   38.5980   22.6480   30.0870 Cl  0  0  0  0  0  0  0  0  0  0  0  0
   37.3040   21.7430   30.8450 C   0  0  0  0  0  0  0  0  0  0  0  0
   36.5330   22.3990   31.7790 C   0  0  0  0  0  0  0  0  0  0  0  0
   35.4800   21.7520   32.4310 C   0  0  0  0  0  0  0  0  0  0  0  0
   34.8500   22.2350   33.1740 H   0  0  0  0  0  0  0  0  0  0  0  0
   35.2230   20.4160   32.1130 C   0  0  0  0  0  0  0  0  0  0  0  0
   34.4200   19.8340   32.5770 H   0  0  0  0  0  0  0  0  0  0  0  0
   36.0010   19.7440   31.1660 C   0  0  0  0  0  0  0  0  0  0  0  0
   35.8080   18.6980   30.9100 H   0  0  0  0  0  0  0  0  0  0  0  0
   37.0380   20.4200   30.5380 C   0  0  0  0  0  0  0  0  0  0  0  0
   38.0430   19.6200   29.3430 Cl  0  0  0  0  0  0  0  0  0  0  0  0
   36.5480   30.4550   31.0750 C   0  0  0  0  0  0  0  0  0  0  0  0
   36.1090   31.0470   32.2730 C   0  0  0  0  0  0  0  0  0  0  0  0
   35.4580   30.2150   33.1830 C   0  0  0  0  0  0  0  0  0  0  0  0
   35.3000   28.9350   32.8490 N   0  0  0  0  0  0  0  0  0  0  0  0
   35.7250   28.3870   31.7000 C   0  0  0  0  0  0  0  0  0  0  0  0
   36.3560   29.1600   30.8060 N   0  0  0  0  0  0  0  0  0  0  0  0
   37.0660   31.0920   30.3410 H   0  0  0  0  0  0  0  0  0  0  0  0
   36.2540   32.0840   32.5060 H   0  0  0  0  0  0  0  0  0  0  0  0
   34.9660   30.6970   34.4580 C   0  0  0  0  0  0  0  0  0  0  0  0
   35.7540   31.5150   35.2530 C   0  0  0  0  0  0  0  0  0  0  0  0
   35.3380   32.0090   36.4580 C   0  0  0  0  0  0  0  0  0  0  0  0
   34.1050   31.6920   36.9070 N   0  0  0  0  0  0  0  0  0  0  0  0
   33.3500   30.8940   36.1220 C   0  0  0  0  0  0  0  0  0  0  0  0
   33.7340   30.3980   34.9350 N   0  0  0  0  0  0  0  0  0  0  0  0
   36.7500   31.7700   34.8890 H   0  0  0  0  0  0  0  0  0  0  0  0
   35.9960   32.6470   37.0420 H   0  0  0  0  0  0  0  0  0  0  0  0
   31.9840   30.5310   36.5970 C   0  0  0  0  0  0  0  0  0  0  0  0
   32.1390   29.7880   37.7670 F   0  0  0  0  0  0  0  0  0  0  0  0
   31.2290   31.6650   36.8140 F   0  0  0  0  0  0  0  0  0  0  0  0
   31.3260   29.7250   35.7090 F   0  0  0  0  0  0  0  0  0  0  0  0
  1 27  1  0  0  0  0
  1  4  1  0  0  0  0
  2 10  1  0  0  0  0
  3 11  1  0  0  0  0
  3  2  1  0  0  0  0
  4  3  2  0  0  0  0
  5  4  1  0  0  0  0
  5  7  1  0  0  0  0
  6  5  2  0  0  0  0
  7  8  1  0  0  0  0
  8  2  1  0  0  0  0
  8  9  2  0  0  0  0
 12 13  1  0  0  0  0
 13 14  1  0  0  0  0
 14  7  1  0  0  0  0
 14 15  2  0  0  0  0
 15 16  1  0  0  0  0
 17 15  1  0  0  0  0
 17 18  1  0  0  0  0
 19 17  2  0  0  0  0
 20 19  1  0  0  0  0
 21 13  2  0  0  0  0
 21 19  1  0  0  0  0
 22 21  1  0  0  0  0
 23 24  1  0  0  0  0
 24 30  1  0  0  0  0
 24 25  2  0  0  0  0
 25 31  1  0  0  0  0
 26 25  1  0  0  0  0
 27 26  2  0  0  0  0
 28 23  2  0  0  0  0
 28 27  1  0  0  0  0
 29 23  1  0  0  0  0
 31 36  2  0  0  0  0
 31 32  1  0  0  0  0
 32 33  2  0  0  0  0
 33 34  1  0  0  0  0
 33 38  1  0  0  0  0
 35 39  1  0  0  0  0
 35 34  2  0  0  0  0
 36 35  1  0  0  0  0
 37 32  1  0  0  0  0
 39 41  1  0  0  0  0
 39 40  1  0  0  0  0
 42 39  1  0  0  0  0
M  END
>  <minimizedAffinity>
-6.82379055

$$$$

 OpenBabel03272502273D

 42 45  0  0  0  0  0  0  0  0999 V2000
   37.3820   26.2570   31.7780 O   0  0  0  0  0  0  0  0  0  0  0  0
   36.5160   28.2990   34.7080 N   0  0  0  0  0  0  0  0  0  0  0  0
   37.0480   27.2720   34.0330 C   0  0  0  0  0  0  0  0  0  0  0  0
   36.9170   27.2150   32.6610 C   0  0  0  0  0  0  0  0  0  0  0  0
   36.2310   28.2360   32.0130 C   0  0  0  0  0  0  0  0  0  0  0  0
   35.9990   28.3810   30.7740 O   0  0  0  0  0  0  0  0  0  0  0  0
   35.7080   29.2560   32.7230 N   0  0  0  0  0  0  0  0  0  0  0  0
   35.8470   29.2940   34.0770 C   0  0  0  0  0  0  0  0  0  0  0  0
   35.3810   30.2210   34.8030 O   0  0  0  0  0  0  0  0  0  0  0  0
   36.6770   28.2380   35.7360 H   0  0  0  0  0  0  0  0  0  0  0  0
   37.5850   26.4550   34.4500 H   0  0  0  0  0  0  0  0  0  0  0  0
   32.6860   29.0880   32.7130 Cl  0  0  0  0  0  0  0  0  0  0  0  0
   33.6130   30.4340   32.0840 C   0  0  0  0  0  0  0  0  0  0  0  0
   34.9860   30.3530   32.1650 C   0  0  0  0  0  0  0  0  0  0  0  0
   35.8010   31.3820   31.6870 C   0  0  0  0  0  0  0  0  0  0  0  0
   36.8880   31.3550   31.7330 H   0  0  0  0  0  0  0  0  0  0  0  0
   35.1910   32.5040   31.1210 C   0  0  0  0  0  0  0  0  0  0  0  0
   35.7540   33.3550   30.7230 H   0  0  0  0  0  0  0  0  0  0  0  0
   33.7990   32.5940   31.0350 C   0  0  0  0  0  0  0  0  0  0  0  0
   33.3110   33.4680   30.5940 H   0  0  0  0  0  0  0  0  0  0  0  0
   33.0210   31.5520   31.5200 C   0  0  0  0  0  0  0  0  0  0  0  0
   31.2700   31.6170   31.4360 Cl  0  0  0  0  0  0  0  0  0  0  0  0
   36.7260   22.7050   31.8000 C   0  0  0  0  0  0  0  0  0  0  0  0
   37.3650   22.3060   32.9870 C   0  0  0  0  0  0  0  0  0  0  0  0
   37.9970   23.3040   33.7270 C   0  0  0  0  0  0  0  0  0  0  0  0
   37.9490   24.5490   33.2550 N   0  0  0  0  0  0  0  0  0  0  0  0
   37.3340   24.9130   32.1180 C   0  0  0  0  0  0  0  0  0  0  0  0
   36.7160   23.9760   31.3860 N   0  0  0  0  0  0  0  0  0  0  0  0
   36.2190   21.9340   31.1980 H   0  0  0  0  0  0  0  0  0  0  0  0
   37.3820   21.2910   33.3340 H   0  0  0  0  0  0  0  0  0  0  0  0
   38.6820   23.0280   34.9730 C   0  0  0  0  0  0  0  0  0  0  0  0
   39.8700   22.3140   34.9810 C   0  0  0  0  0  0  0  0  0  0  0  0
   40.5660   22.0350   36.1240 C   0  0  0  0  0  0  0  0  0  0  0  0
   40.0830   22.4690   37.3080 N   0  0  0  0  0  0  0  0  0  0  0  0
   38.9250   23.1620   37.2850 C   0  0  0  0  0  0  0  0  0  0  0  0
   38.2240   23.4500   36.1770 N   0  0  0  0  0  0  0  0  0  0  0  0
   40.2580   21.9640   34.0240 H   0  0  0  0  0  0  0  0  0  0  0  0
   41.4930   21.4710   36.0750 H   0  0  0  0  0  0  0  0  0  0  0  0
   38.3730   23.6520   38.5810 C   0  0  0  0  0  0  0  0  0  0  0  0
   37.9010   24.9450   38.3650 F   0  0  0  0  0  0  0  0  0  0  0  0
   37.3710   22.8150   39.0270 F   0  0  0  0  0  0  0  0  0  0  0  0
   39.3350   23.7450   39.5490 F   0  0  0  0  0  0  0  0  0  0  0  0
  1 27  1  0  0  0  0
  1  4  1  0  0  0  0
  2 10  1  0  0  0  0
  3 11  1  0  0  0  0
  3  2  1  0  0  0  0
  4  3  2  0  0  0  0
  5  4  1  0  0  0  0
  5  7  1  0  0  0  0
  6  5  2  0  0  0  0
  7  8  1  0  0  0  0
  8  2  1  0  0  0  0
  8  9  2  0  0  0  0
 13 14  1  0  0  0  0
 13 12  1  0  0  0  0
 14  7  1  0  0  0  0
 15 16  1  0  0  0  0
 15 14  2  0  0  0  0
 17 15  1  0  0  0  0
 18 17  1  0  0  0  0
 19 17  2  0  0  0  0
 19 21  1  0  0  0  0
 20 19  1  0  0  0  0
 21 13  2  0  0  0  0
 22 21  1  0  0  0  0
 23 24  1  0  0  0  0
 24 30  1  0  0  0  0
 24 25  2  0  0  0  0
 25 31  1  0  0  0  0
 26 25  1  0  0  0  0
 27 26  2  0  0  0  0
 28 23  2  0  0  0  0
 28 27  1  0  0  0  0
 29 23  1  0  0  0  0
 31 32  2  0  0  0  0
 31 36  1  0  0  0  0
 32 33  1  0  0  0  0
 33 34  2  0  0  0  0
 35 34  1  0  0  0  0
 35 39  1  0  0  0  0
 36 35  2  0  0  0  0
 37 32  1  0  0  0  0
 38 33  1  0  0  0  0
 39 41  1  0  0  0  0
 39 42  1  0  0  0  0
 40 39  1  0  0  0  0
M  END
>  <minimizedAffinity>
-6.80387115

$$$$
