
 OpenBabel03272501283D

 41 44  0  0  1  0  0  0  0  0999 V2000
   36.3200   28.3240   32.9420 C   0  0  0  0  0  0  0  0  0  0  0  0
   36.7810   28.6440   31.6520 C   0  0  0  0  0  0  0  0  0  0  0  0
   35.9140   29.6160   31.1410 C   0  0  0  0  0  0  0  0  0  0  0  0
   35.0000   29.8400   32.0950 N   0  0  0  0  0  0  0  0  0  0  0  0
   35.2640   29.0670   33.1410 N   0  0  0  0  0  0  0  0  0  0  0  0
   37.6380   28.2550   31.0900 H   0  0  0  0  0  0  0  0  0  0  0  0
   35.9390   30.1050   30.1930 H   0  0  0  0  0  0  0  0  0  0  0  0
   33.5690   31.2380   30.7560 N   0  0  0  0  0  0  0  0  0  0  0  0
   32.2220   31.7700   30.8830 C   0  0  0  0  0  0  0  0  0  0  0  0
   31.6280   31.1950   32.1470 C   0  0  0  0  0  0  0  0  0  0  0  0
   32.6190   30.0770   32.4710 C   0  0  0  0  0  0  0  0  0  0  0  0
   33.9000   30.7380   32.0710 C   0  0  1  0  0  0  0  0  0  0  0  0
   34.2360   31.9300   30.3830 H   0  0  0  0  0  0  0  0  0  0  0  0
   31.5920   31.5980   30.0040 H   0  0  0  0  0  0  0  0  0  0  0  0
   32.3300   32.8790   31.0670 H   0  0  0  0  0  0  0  0  0  0  0  0
   31.6930   31.9180   33.0060 H   0  0  0  0  0  0  0  0  0  0  0  0
   30.6200   30.7920   32.0050 H   0  0  0  0  0  0  0  0  0  0  0  0
   32.3910   29.2550   31.7490 H   0  0  0  0  0  0  0  0  0  0  0  0
   32.5660   29.7540   33.5130 H   0  0  0  0  0  0  0  0  0  0  0  0
   34.1660   31.8230   33.0020 N   0  0  0  0  0  0  0  0  0  0  0  0
   33.9820   31.5190   33.9860 H   0  0  0  0  0  0  0  0  0  0  0  0
   35.1470   32.1660   32.9310 H   0  0  0  0  0  0  0  0  0  0  0  0
   37.5470   27.6370   35.0090 C   0  0  0  0  0  0  0  0  0  0  0  0
   36.9980   27.3390   33.7590 C   0  0  0  0  0  0  0  0  0  0  0  0
   37.1290   26.0280   33.3150 C   0  0  0  0  0  0  0  0  0  0  0  0
   37.7710   25.1340   34.1080 N   0  0  0  0  0  0  0  0  0  0  0  0
   38.2860   25.4630   35.3080 C   0  0  0  0  0  0  0  0  0  0  0  0
   38.1680   26.7590   35.7690 N   0  0  0  0  0  0  0  0  0  0  0  0
   37.4500   28.6570   35.3630 H   0  0  0  0  0  0  0  0  0  0  0  0
   36.7290   25.7160   32.3540 H   0  0  0  0  0  0  0  0  0  0  0  0
   40.8960   24.5940   34.2460 Cl  0  0  0  0  0  0  0  0  0  0  0  0
   40.1920   23.9860   35.7380 C   0  0  0  0  0  0  0  0  0  0  0  0
   38.9670   24.4700   36.1260 C   0  0  0  0  0  0  0  0  0  0  0  0
   38.3320   24.0590   37.2740 C   0  0  0  0  0  0  0  0  0  0  0  0
   37.3850   24.3930   37.6330 H   0  0  0  0  0  0  0  0  0  0  0  0
   38.9560   23.1080   38.0860 C   0  0  0  0  0  0  0  0  0  0  0  0
   38.6090   22.6750   39.0120 H   0  0  0  0  0  0  0  0  0  0  0  0
   40.2030   22.6210   37.6820 C   0  0  0  0  0  0  0  0  0  0  0  0
   40.7730   21.8770   38.2440 H   0  0  0  0  0  0  0  0  0  0  0  0
   40.8190   23.0480   36.5270 C   0  0  0  0  0  0  0  0  0  0  0  0
   42.3710   22.4710   35.9820 Cl  0  0  0  0  0  0  0  0  0  0  0  0
  1  5  2  0  0  0  0
  1 24  1  0  0  0  0
  2  1  1  0  0  0  0
  3  2  2  0  0  0  0
  3  4  1  0  0  0  0
  4  5  1  0  0  0  0
  6  2  1  0  0  0  0
  7  3  1  0  0  0  0
  8  9  1  0  0  0  0
  8 12  1  0  0  0  0
  9 15  1  0  0  0  0
  9 10  1  0  0  0  0
 10 11  1  0  0  0  0
 10 16  1  0  0  0  0
 11 19  1  0  0  0  0
 12  4  1  0  0  0  0
 12 11  1  0  0  0  0
 12 20  1  1  0  0  0
 13  8  1  0  0  0  0
 14  9  1  0  0  0  0
 17 10  1  0  0  0  0
 18 11  1  0  0  0  0
 20 21  1  0  0  0  0
 22 20  1  0  0  0  0
 23 29  1  0  0  0  0
 23 28  1  0  0  0  0
 24 23  2  0  0  0  0
 25 24  1  0  0  0  0
 25 26  2  0  0  0  0
 26 27  1  0  0  0  0
 27 28  2  0  0  0  0
 27 33  1  0  0  0  0
 30 25  1  0  0  0  0
 31 32  1  0  0  0  0
 32 33  2  0  0  0  0
 32 40  1  0  0  0  0
 33 34  1  0  0  0  0
 34 35  1  0  0  0  0
 34 36  2  0  0  0  0
 36 37  1  0  0  0  0
 38 36  1  0  0  0  0
 38 39  1  0  0  0  0
 40 38  2  0  0  0  0
 41 40  1  0  0  0  0
M  END
>  <minimizedAffinity>
-6.06041288

$$$$

 OpenBabel03272501283D

 41 44  0  0  1  0  0  0  0  0999 V2000
   38.5360   24.7680   35.7390 C   0  0  0  0  0  0  0  0  0  0  0  0
   37.9680   24.3220   36.9460 C   0  0  0  0  0  0  0  0  0  0  0  0
   38.8180   23.3320   37.4530 C   0  0  0  0  0  0  0  0  0  0  0  0
   39.8230   23.2180   36.5750 N   0  0  0  0  0  0  0  0  0  0  0  0
   39.6320   24.0740   35.5790 N   0  0  0  0  0  0  0  0  0  0  0  0
   37.0490   24.6360   37.4550 H   0  0  0  0  0  0  0  0  0  0  0  0
   38.7210   22.7600   38.3490 H   0  0  0  0  0  0  0  0  0  0  0  0
   41.1350   21.5510   35.4370 N   0  0  0  0  0  0  0  0  0  0  0  0
   42.5090   21.0780   35.5150 C   0  0  0  0  0  0  0  0  0  0  0  0
   43.2280   21.9460   36.5200 C   0  0  0  0  0  0  0  0  0  0  0  0
   42.2400   23.1000   36.6910 C   0  0  0  0  0  0  0  0  0  0  0  0
   40.9470   22.3510   36.6260 C   0  0  1  0  0  0  0  0  0  0  0  0
   40.4560   20.7840   35.3270 H   0  0  0  0  0  0  0  0  0  0  0  0
   43.0190   21.0380   34.5470 H   0  0  0  0  0  0  0  0  0  0  0  0
   42.4670   20.0440   35.9690 H   0  0  0  0  0  0  0  0  0  0  0  0
   43.2960   21.4510   37.5270 H   0  0  0  0  0  0  0  0  0  0  0  0
   44.1940   22.3120   36.1580 H   0  0  0  0  0  0  0  0  0  0  0  0
   42.3470   23.7250   35.7710 H   0  0  0  0  0  0  0  0  0  0  0  0
   42.4060   23.6650   37.6100 H   0  0  0  0  0  0  0  0  0  0  0  0
   40.8390   21.5190   37.8150 N   0  0  0  0  0  0  0  0  0  0  0  0
   41.1290   22.0530   38.6660 H   0  0  0  0  0  0  0  0  0  0  0  0
   39.8710   21.1610   37.9530 H   0  0  0  0  0  0  0  0  0  0  0  0
   37.3970   25.5760   33.6660 C   0  0  0  0  0  0  0  0  0  0  0  0
   37.9030   25.8030   34.9480 C   0  0  0  0  0  0  0  0  0  0  0  0
   37.7750   27.0930   35.4530 C   0  0  0  0  0  0  0  0  0  0  0  0
   37.1770   28.0350   34.6820 N   0  0  0  0  0  0  0  0  0  0  0  0
   36.7020   27.7750   33.4500 C   0  0  0  0  0  0  0  0  0  0  0  0
   36.8180   26.5010   32.9290 N   0  0  0  0  0  0  0  0  0  0  0  0
   37.4920   24.5740   33.2650 H   0  0  0  0  0  0  0  0  0  0  0  0
   38.1440   27.3500   36.4420 H   0  0  0  0  0  0  0  0  0  0  0  0
   38.1890   28.5330   31.0190 Cl  0  0  0  0  0  0  0  0  0  0  0  0
   36.6610   29.2580   31.5010 C   0  0  0  0  0  0  0  0  0  0  0  0
   36.0660   28.8180   32.6570 C   0  0  0  0  0  0  0  0  0  0  0  0
   34.8730   29.3200   33.1200 C   0  0  0  0  0  0  0  0  0  0  0  0
   34.3580   29.0240   34.0060 H   0  0  0  0  0  0  0  0  0  0  0  0
   34.2330   30.3220   32.3860 C   0  0  0  0  0  0  0  0  0  0  0  0
   33.3030   30.8260   32.5950 H   0  0  0  0  0  0  0  0  0  0  0  0
   34.8470   30.7630   31.2100 C   0  0  0  0  0  0  0  0  0  0  0  0
   34.4310   31.5400   30.5640 H   0  0  0  0  0  0  0  0  0  0  0  0
   36.0430   30.2450   30.7660 C   0  0  0  0  0  0  0  0  0  0  0  0
   36.8470   30.7620   29.3090 Cl  0  0  0  0  0  0  0  0  0  0  0  0
  1  2  1  0  0  0  0
  2  3  2  0  0  0  0
  2  6  1  0  0  0  0
  3  7  1  0  0  0  0
  4 12  1  0  0  0  0
  4  3  1  0  0  0  0
  5  1  2  0  0  0  0
  5  4  1  0  0  0  0
  8  9  1  0  0  0  0
  8 12  1  0  0  0  0
  9 15  1  0  0  0  0
  9 10  1  0  0  0  0
 10 11  1  0  0  0  0
 10 16  1  0  0  0  0
 11 19  1  0  0  0  0
 12 11  1  0  0  0  0
 12 20  1  1  0  0  0
 13  8  1  0  0  0  0
 14  9  1  0  0  0  0
 17 10  1  0  0  0  0
 18 11  1  0  0  0  0
 20 22  1  0  0  0  0
 20 21  1  0  0  0  0
 23 24  1  0  0  0  0
 24 25  2  0  0  0  0
 24  1  1  0  0  0  0
 25 30  1  0  0  0  0
 26 25  1  0  0  0  0
 27 26  2  0  0  0  0
 28 27  1  0  0  0  0
 28 23  2  0  0  0  0
 29 23  1  0  0  0  0
 31 32  1  0  0  0  0
 32 33  1  0  0  0  0
 33 34  2  0  0  0  0
 33 27  1  0  0  0  0
 34 35  1  0  0  0  0
 36 37  1  0  0  0  0
 36 34  1  0  0  0  0
 38 36  2  0  0  0  0
 39 38  1  0  0  0  0
 40 38  1  0  0  0  0
 40 32  2  0  0  0  0
 41 40  1  0  0  0  0
M  END
>  <minimizedAffinity>
-6.06018686

$$$$

 OpenBabel03272501283D

 41 44  0  0  1  0  0  0  0  0999 V2000
   38.4600   24.9510   35.7290 C   0  0  0  0  0  0  0  0  0  0  0  0
   37.8860   24.5130   36.9360 C   0  0  0  0  0  0  0  0  0  0  0  0
   38.7150   23.5040   37.4380 C   0  0  0  0  0  0  0  0  0  0  0  0
   39.7160   23.3710   36.5570 N   0  0  0  0  0  0  0  0  0  0  0  0
   39.5400   24.2340   35.5640 N   0  0  0  0  0  0  0  0  0  0  0  0
   36.9750   24.8450   37.4480 H   0  0  0  0  0  0  0  0  0  0  0  0
   38.6090   22.9320   38.3320 H   0  0  0  0  0  0  0  0  0  0  0  0
   40.9980   21.6900   35.4060 N   0  0  0  0  0  0  0  0  0  0  0  0
   42.3600   21.1870   35.4830 C   0  0  0  0  0  0  0  0  0  0  0  0
   43.0930   22.0290   36.5010 C   0  0  0  0  0  0  0  0  0  0  0  0
   42.1290   23.2010   36.6820 C   0  0  0  0  0  0  0  0  0  0  0  0
   40.8210   22.4800   36.6030 C   0  0  1  0  0  0  0  0  0  0  0  0
   40.3030   20.9380   35.2840 H   0  0  0  0  0  0  0  0  0  0  0  0
   42.8740   21.1480   34.5170 H   0  0  0  0  0  0  0  0  0  0  0  0
   42.2950   20.1500   35.9250 H   0  0  0  0  0  0  0  0  0  0  0  0
   43.1470   21.5210   37.5030 H   0  0  0  0  0  0  0  0  0  0  0  0
   44.0690   22.3790   36.1470 H   0  0  0  0  0  0  0  0  0  0  0  0
   42.2530   23.8340   35.7690 H   0  0  0  0  0  0  0  0  0  0  0  0
   42.3030   23.7520   37.6080 H   0  0  0  0  0  0  0  0  0  0  0  0
   40.6900   21.6370   37.7820 N   0  0  0  0  0  0  0  0  0  0  0  0
   40.9870   22.1550   38.6400 H   0  0  0  0  0  0  0  0  0  0  0  0
   39.7150   21.2970   37.9110 H   0  0  0  0  0  0  0  0  0  0  0  0
   37.7010   27.3100   35.4070 C   0  0  0  0  0  0  0  0  0  0  0  0
   37.8470   26.0010   34.9430 C   0  0  0  0  0  0  0  0  0  0  0  0
   37.3710   25.7330   33.6640 C   0  0  0  0  0  0  0  0  0  0  0  0
   36.8020   26.7420   32.9580 N   0  0  0  0  0  0  0  0  0  0  0  0
   36.6810   27.9920   33.4420 C   0  0  0  0  0  0  0  0  0  0  0  0
   37.1470   28.2810   34.7100 N   0  0  0  0  0  0  0  0  0  0  0  0
   38.0700   27.5280   36.4030 H   0  0  0  0  0  0  0  0  0  0  0  0
   37.4470   24.7390   33.2310 H   0  0  0  0  0  0  0  0  0  0  0  0
   34.2240   29.1220   34.6190 Cl  0  0  0  0  0  0  0  0  0  0  0  0
   34.9140   29.6510   33.0910 C   0  0  0  0  0  0  0  0  0  0  0  0
   36.0640   29.0450   32.6490 C   0  0  0  0  0  0  0  0  0  0  0  0
   36.6800   29.3860   31.4680 C   0  0  0  0  0  0  0  0  0  0  0  0
   37.5720   28.9580   31.0690 H   0  0  0  0  0  0  0  0  0  0  0  0
   36.1180   30.3940   30.6800 C   0  0  0  0  0  0  0  0  0  0  0  0
   36.4620   30.7870   29.7360 H   0  0  0  0  0  0  0  0  0  0  0  0
   34.9470   31.0040   31.1390 C   0  0  0  0  0  0  0  0  0  0  0  0
   34.4280   31.8000   30.5990 H   0  0  0  0  0  0  0  0  0  0  0  0
   34.3470   30.6450   32.3250 C   0  0  0  0  0  0  0  0  0  0  0  0
   32.8880   31.3760   32.9380 Cl  0  0  0  0  0  0  0  0  0  0  0  0
  1  2  1  0  0  0  0
  2  3  2  0  0  0  0
  2  6  1  0  0  0  0
  3  7  1  0  0  0  0
  4 12  1  0  0  0  0
  4  3  1  0  0  0  0
  5  1  2  0  0  0  0
  5  4  1  0  0  0  0
  8  9  1  0  0  0  0
  8 12  1  0  0  0  0
  9 15  1  0  0  0  0
  9 10  1  0  0  0  0
 10 11  1  0  0  0  0
 10 16  1  0  0  0  0
 11 19  1  0  0  0  0
 12 11  1  0  0  0  0
 12 20  1  1  0  0  0
 13  8  1  0  0  0  0
 14  9  1  0  0  0  0
 17 10  1  0  0  0  0
 18 11  1  0  0  0  0
 20 22  1  0  0  0  0
 20 21  1  0  0  0  0
 23 29  1  0  0  0  0
 24 23  1  0  0  0  0
 24  1  1  0  0  0  0
 25 24  2  0  0  0  0
 26 27  2  0  0  0  0
 26 25  1  0  0  0  0
 27 28  1  0  0  0  0
 28 23  2  0  0  0  0
 30 25  1  0  0  0  0
 32 31  1  0  0  0  0
 33 32  1  0  0  0  0
 33 27  1  0  0  0  0
 34 33  2  0  0  0  0
 35 34  1  0  0  0  0
 36 38  2  0  0  0  0
 36 34  1  0  0  0  0
 37 36  1  0  0  0  0
 38 40  1  0  0  0  0
 39 38  1  0  0  0  0
 40 41  1  0  0  0  0
 40 32  2  0  0  0  0
M  END
>  <minimizedAffinity>
-6.0132575

$$$$

 OpenBabel03272501283D

 41 44  0  0  1  0  0  0  0  0999 V2000
   37.9620   27.5720   31.4690 C   0  0  0  0  0  0  0  0  0  0  0  0
   36.7570   28.2560   31.2330 C   0  0  0  0  0  0  0  0  0  0  0  0
   36.8910   28.9000   29.9980 C   0  0  0  0  0  0  0  0  0  0  0  0
   38.1180   28.5990   29.5510 N   0  0  0  0  0  0  0  0  0  0  0  0
   38.7240   27.8160   30.4360 N   0  0  0  0  0  0  0  0  0  0  0  0
   35.8480   28.3210   31.8420 H   0  0  0  0  0  0  0  0  0  0  0  0
   36.1890   29.5160   29.4820 H   0  0  0  0  0  0  0  0  0  0  0  0
   38.0190   30.0200   27.6110 N   0  0  0  0  0  0  0  0  0  0  0  0
   38.9880   30.5770   26.6800 C   0  0  0  0  0  0  0  0  0  0  0  0
   40.3610   30.1810   27.1690 C   0  0  0  0  0  0  0  0  0  0  0  0
   40.0540   29.6860   28.5810 C   0  0  0  0  0  0  0  0  0  0  0  0
   38.7440   29.0050   28.3420 C   0  0  1  0  0  0  0  0  0  0  0  0
   37.1670   29.6810   27.1410 H   0  0  0  0  0  0  0  0  0  0  0  0
   38.8880   31.6570   26.5290 H   0  0  0  0  0  0  0  0  0  0  0  0
   38.8390   30.0370   25.6990 H   0  0  0  0  0  0  0  0  0  0  0  0
   40.7610   29.2880   26.6140 H   0  0  0  0  0  0  0  0  0  0  0  0
   41.0670   31.0180   27.1950 H   0  0  0  0  0  0  0  0  0  0  0  0
   39.8810   30.6070   29.1910 H   0  0  0  0  0  0  0  0  0  0  0  0
   40.8420   29.0500   28.9880 H   0  0  0  0  0  0  0  0  0  0  0  0
   38.9820   27.8270   27.5230 N   0  0  0  0  0  0  0  0  0  0  0  0
   39.8240   27.3070   27.8620 H   0  0  0  0  0  0  0  0  0  0  0  0
   38.1640   27.1830   27.5200 H   0  0  0  0  0  0  0  0  0  0  0  0
   39.0150   27.1920   33.7040 C   0  0  0  0  0  0  0  0  0  0  0  0
   38.1600   26.7930   32.6740 C   0  0  0  0  0  0  0  0  0  0  0  0
   37.4870   25.5890   32.8500 C   0  0  0  0  0  0  0  0  0  0  0  0
   37.6980   24.8870   33.9910 N   0  0  0  0  0  0  0  0  0  0  0  0
   38.5320   25.3070   34.9610 C   0  0  0  0  0  0  0  0  0  0  0  0
   39.2110   26.5000   34.8080 N   0  0  0  0  0  0  0  0  0  0  0  0
   39.5440   28.1290   33.5760 H   0  0  0  0  0  0  0  0  0  0  0  0
   36.8040   25.2090   32.0950 H   0  0  0  0  0  0  0  0  0  0  0  0
   40.7380   23.3570   34.8010 Cl  0  0  0  0  0  0  0  0  0  0  0  0
   39.7250   23.5790   36.2210 C   0  0  0  0  0  0  0  0  0  0  0  0
   38.7280   24.5210   36.1710 C   0  0  0  0  0  0  0  0  0  0  0  0
   37.8830   24.7700   37.2270 C   0  0  0  0  0  0  0  0  0  0  0  0
   37.0920   25.4850   37.2550 H   0  0  0  0  0  0  0  0  0  0  0  0
   38.0420   24.0360   38.4050 C   0  0  0  0  0  0  0  0  0  0  0  0
   37.4780   24.0970   39.3220 H   0  0  0  0  0  0  0  0  0  0  0  0
   39.0600   23.0780   38.4460 C   0  0  0  0  0  0  0  0  0  0  0  0
   39.2680   22.4520   39.3170 H   0  0  0  0  0  0  0  0  0  0  0  0
   39.8940   22.8470   37.3750 C   0  0  0  0  0  0  0  0  0  0  0  0
   41.1760   21.6650   37.3780 Cl  0  0  0  0  0  0  0  0  0  0  0  0
  1 24  1  0  0  0  0
  2  1  1  0  0  0  0
  2  6  1  0  0  0  0
  3  2  2  0  0  0  0
  4  3  1  0  0  0  0
  4  5  1  0  0  0  0
  5  1  2  0  0  0  0
  7  3  1  0  0  0  0
  8 12  1  0  0  0  0
  9 10  1  0  0  0  0
  9  8  1  0  0  0  0
 10 17  1  0  0  0  0
 10 11  1  0  0  0  0
 11 19  1  0  0  0  0
 11 18  1  0  0  0  0
 12 20  1  6  0  0  0
 12 11  1  0  0  0  0
 12  4  1  0  0  0  0
 13  8  1  0  0  0  0
 14  9  1  0  0  0  0
 15  9  1  0  0  0  0
 16 10  1  0  0  0  0
 20 21  1  0  0  0  0
 22 20  1  0  0  0  0
 23 28  1  0  0  0  0
 24 25  1  0  0  0  0
 24 23  2  0  0  0  0
 25 26  2  0  0  0  0
 26 27  1  0  0  0  0
 27 33  1  0  0  0  0
 28 27  2  0  0  0  0
 29 23  1  0  0  0  0
 30 25  1  0  0  0  0
 31 32  1  0  0  0  0
 32 40  1  0  0  0  0
 33 32  2  0  0  0  0
 33 34  1  0  0  0  0
 34 35  1  0  0  0  0
 34 36  2  0  0  0  0
 36 38  1  0  0  0  0
 36 37  1  0  0  0  0
 38 39  1  0  0  0  0
 40 41  1  0  0  0  0
 40 38  2  0  0  0  0
M  END
>  <minimizedAffinity>
-5.99943018

$$$$

 OpenBabel03272501283D

 41 44  0  0  1  0  0  0  0  0999 V2000
   36.0350   28.2820   32.3560 C   0  0  0  0  0  0  0  0  0  0  0  0
   36.3150   29.2050   31.3320 C   0  0  0  0  0  0  0  0  0  0  0  0
   36.1300   30.4820   31.8750 C   0  0  0  0  0  0  0  0  0  0  0  0
   35.7600   30.2960   33.1490 N   0  0  0  0  0  0  0  0  0  0  0  0
   35.7130   28.9940   33.4040 N   0  0  0  0  0  0  0  0  0  0  0  0
   36.6230   29.0380   30.2940 H   0  0  0  0  0  0  0  0  0  0  0  0
   36.2480   31.4330   31.4060 H   0  0  0  0  0  0  0  0  0  0  0  0
   34.0400   31.4150   34.4070 N   0  0  0  0  0  0  0  0  0  0  0  0
   33.9720   32.1180   35.6790 C   0  0  0  0  0  0  0  0  0  0  0  0
   35.3300   32.0010   36.3300 C   0  0  0  0  0  0  0  0  0  0  0  0
   35.9850   30.9130   35.4810 C   0  0  0  0  0  0  0  0  0  0  0  0
   35.4520   31.2740   34.1310 C   0  0  1  0  0  0  0  0  0  0  0  0
   33.5050   31.8870   33.6630 H   0  0  0  0  0  0  0  0  0  0  0  0
   33.1600   31.7790   36.3300 H   0  0  0  0  0  0  0  0  0  0  0  0
   33.8370   33.2120   35.4350 H   0  0  0  0  0  0  0  0  0  0  0  0
   35.9500   32.9260   36.1710 H   0  0  0  0  0  0  0  0  0  0  0  0
   35.2790   31.6970   37.3810 H   0  0  0  0  0  0  0  0  0  0  0  0
   35.5200   29.9520   35.8130 H   0  0  0  0  0  0  0  0  0  0  0  0
   37.0740   30.9080   35.5660 H   0  0  0  0  0  0  0  0  0  0  0  0
   36.0440   32.5410   33.7280 N   0  0  0  0  0  0  0  0  0  0  0  0
   37.0680   32.5530   33.9420 H   0  0  0  0  0  0  0  0  0  0  0  0
   35.9060   32.7290   32.7140 H   0  0  0  0  0  0  0  0  0  0  0  0
   35.4210   26.1970   31.1220 C   0  0  0  0  0  0  0  0  0  0  0  0
   36.1310   26.8550   32.1290 C   0  0  0  0  0  0  0  0  0  0  0  0
   36.9560   26.0710   32.9280 C   0  0  0  0  0  0  0  0  0  0  0  0
   37.0190   24.7380   32.6850 N   0  0  0  0  0  0  0  0  0  0  0  0
   36.3180   24.1420   31.7030 C   0  0  0  0  0  0  0  0  0  0  0  0
   35.4920   24.9010   30.8970 N   0  0  0  0  0  0  0  0  0  0  0  0
   34.7750   26.8000   30.4940 H   0  0  0  0  0  0  0  0  0  0  0  0
   37.5410   26.5080   33.7330 H   0  0  0  0  0  0  0  0  0  0  0  0
   38.6810   23.3160   30.1440 Cl  0  0  0  0  0  0  0  0  0  0  0  0
   37.4740   22.1980   30.7650 C   0  0  0  0  0  0  0  0  0  0  0  0
   36.4170   22.7070   31.4780 C   0  0  0  0  0  0  0  0  0  0  0  0
   35.4230   21.9180   32.0040 C   0  0  0  0  0  0  0  0  0  0  0  0
   34.5780   22.2470   32.5660 H   0  0  0  0  0  0  0  0  0  0  0  0
   35.4840   20.5360   31.8100 C   0  0  0  0  0  0  0  0  0  0  0  0
   34.8010   19.7730   32.1460 H   0  0  0  0  0  0  0  0  0  0  0  0
   36.5650   20.0270   31.0810 C   0  0  0  0  0  0  0  0  0  0  0  0
   36.7060   18.9630   30.8730 H   0  0  0  0  0  0  0  0  0  0  0  0
   37.5490   20.8370   30.5630 C   0  0  0  0  0  0  0  0  0  0  0  0
   38.9130   20.2510   29.6510 Cl  0  0  0  0  0  0  0  0  0  0  0  0
  1  5  2  0  0  0  0
  2  3  2  0  0  0  0
  2  1  1  0  0  0  0
  3  4  1  0  0  0  0
  4  5  1  0  0  0  0
  4 12  1  0  0  0  0
  6  2  1  0  0  0  0
  7  3  1  0  0  0  0
  8  9  1  0  0  0  0
  9 14  1  0  0  0  0
  9 10  1  0  0  0  0
 10 17  1  0  0  0  0
 11 19  1  0  0  0  0
 11 18  1  0  0  0  0
 11 10  1  0  0  0  0
 12 20  1  6  0  0  0
 12  8  1  0  0  0  0
 12 11  1  0  0  0  0
 13  8  1  0  0  0  0
 15  9  1  0  0  0  0
 16 10  1  0  0  0  0
 20 21  1  0  0  0  0
 22 20  1  0  0  0  0
 23 24  1  0  0  0  0
 24  1  1  0  0  0  0
 24 25  2  0  0  0  0
 25 30  1  0  0  0  0
 26 25  1  0  0  0  0
 27 26  2  0  0  0  0
 28 23  2  0  0  0  0
 28 27  1  0  0  0  0
 29 23  1  0  0  0  0
 31 32  1  0  0  0  0
 32 33  1  0  0  0  0
 33 27  1  0  0  0  0
 33 34  2  0  0  0  0
 34 35  1  0  0  0  0
 36 34  1  0  0  0  0
 36 37  1  0  0  0  0
 38 36  2  0  0  0  0
 39 38  1  0  0  0  0
 40 32  2  0  0  0  0
 40 38  1  0  0  0  0
 41 40  1  0  0  0  0
M  END
>  <minimizedAffinity>
-5.89999962

$$$$

 OpenBabel03272501283D

 41 44  0  0  1  0  0  0  0  0999 V2000
   36.9270   28.1230   32.3260 C   0  0  0  0  0  0  0  0  0  0  0  0
   37.2010   27.9020   30.9640 C   0  0  0  0  0  0  0  0  0  0  0  0
   36.6570   28.9820   30.2600 C   0  0  0  0  0  0  0  0  0  0  0  0
   36.0960   29.7820   31.1780 N   0  0  0  0  0  0  0  0  0  0  0  0
   36.2720   29.2520   32.3830 N   0  0  0  0  0  0  0  0  0  0  0  0
   37.7290   27.0770   30.4730 H   0  0  0  0  0  0  0  0  0  0  0  0
   36.6630   29.1700   29.2100 H   0  0  0  0  0  0  0  0  0  0  0  0
   33.9710   30.8920   30.9760 N   0  0  0  0  0  0  0  0  0  0  0  0
   33.4810   32.2460   31.1830 C   0  0  0  0  0  0  0  0  0  0  0  0
   34.6300   33.0620   31.7260 C   0  0  0  0  0  0  0  0  0  0  0  0
   35.6290   31.9700   32.1070 C   0  0  0  0  0  0  0  0  0  0  0  0
   35.4110   31.0100   30.9810 C   0  0  1  0  0  0  0  0  0  0  0  0
   33.5810   30.4540   30.1280 H   0  0  0  0  0  0  0  0  0  0  0  0
   32.5870   32.3030   31.8120 H   0  0  0  0  0  0  0  0  0  0  0  0
   33.2570   32.6670   30.1590 H   0  0  0  0  0  0  0  0  0  0  0  0
   35.1320   33.6660   30.9210 H   0  0  0  0  0  0  0  0  0  0  0  0
   34.3570   33.6610   32.6010 H   0  0  0  0  0  0  0  0  0  0  0  0
   35.2370   31.5200   33.0520 H   0  0  0  0  0  0  0  0  0  0  0  0
   36.6490   32.3460   32.2080 H   0  0  0  0  0  0  0  0  0  0  0  0
   35.8990   31.6230   29.7550 N   0  0  0  0  0  0  0  0  0  0  0  0
   36.8220   32.0870   29.9170 H   0  0  0  0  0  0  0  0  0  0  0  0
   36.0000   30.9280   28.9860 H   0  0  0  0  0  0  0  0  0  0  0  0
   37.3650   25.8010   33.1410 C   0  0  0  0  0  0  0  0  0  0  0  0
   37.3570   27.1830   33.3410 C   0  0  0  0  0  0  0  0  0  0  0  0
   37.7880   27.6390   34.5820 C   0  0  0  0  0  0  0  0  0  0  0  0
   38.1830   26.7300   35.5070 N   0  0  0  0  0  0  0  0  0  0  0  0
   38.1760   25.4040   35.2750 C   0  0  0  0  0  0  0  0  0  0  0  0
   37.7520   24.9280   34.0490 N   0  0  0  0  0  0  0  0  0  0  0  0
   37.0310   25.4360   32.1770 H   0  0  0  0  0  0  0  0  0  0  0  0
   37.8110   28.7010   34.8160 H   0  0  0  0  0  0  0  0  0  0  0  0
   40.7820   24.1330   34.7340 Cl  0  0  0  0  0  0  0  0  0  0  0  0
   39.8070   23.8060   36.1600 C   0  0  0  0  0  0  0  0  0  0  0  0
   38.6090   24.4620   36.2970 C   0  0  0  0  0  0  0  0  0  0  0  0
   37.7750   24.2760   37.3740 C   0  0  0  0  0  0  0  0  0  0  0  0
   36.8360   24.7520   37.5420 H   0  0  0  0  0  0  0  0  0  0  0  0
   38.1570   23.3810   38.3770 C   0  0  0  0  0  0  0  0  0  0  0  0
   37.6350   23.1130   39.2810 H   0  0  0  0  0  0  0  0  0  0  0  0
   39.3790   22.7170   38.2270 C   0  0  0  0  0  0  0  0  0  0  0  0
   39.7690   21.9980   38.9520 H   0  0  0  0  0  0  0  0  0  0  0  0
   40.1980   22.9200   37.1400 C   0  0  0  0  0  0  0  0  0  0  0  0
   41.7280   22.1170   36.9090 Cl  0  0  0  0  0  0  0  0  0  0  0  0
  1  5  2  0  0  0  0
  1 24  1  0  0  0  0
  2  1  1  0  0  0  0
  3  2  2  0  0  0  0
  3  4  1  0  0  0  0
  4  5  1  0  0  0  0
  6  2  1  0  0  0  0
  7  3  1  0  0  0  0
  8 12  1  0  0  0  0
  8  9  1  0  0  0  0
  9 10  1  0  0  0  0
  9 14  1  0  0  0  0
 10 11  1  0  0  0  0
 10 17  1  0  0  0  0
 11 19  1  0  0  0  0
 11 18  1  0  0  0  0
 12 20  1  6  0  0  0
 12  4  1  0  0  0  0
 12 11  1  0  0  0  0
 13  8  1  0  0  0  0
 15  9  1  0  0  0  0
 16 10  1  0  0  0  0
 20 21  1  0  0  0  0
 22 20  1  0  0  0  0
 23 24  2  0  0  0  0
 23 28  1  0  0  0  0
 24 25  1  0  0  0  0
 25 30  1  0  0  0  0
 25 26  2  0  0  0  0
 27 26  1  0  0  0  0
 27 33  1  0  0  0  0
 28 27  2  0  0  0  0
 29 23  1  0  0  0  0
 31 32  1  0  0  0  0
 32 33  2  0  0  0  0
 32 40  1  0  0  0  0
 33 34  1  0  0  0  0
 34 35  1  0  0  0  0
 34 36  2  0  0  0  0
 36 37  1  0  0  0  0
 38 36  1  0  0  0  0
 38 39  1  0  0  0  0
 40 38  2  0  0  0  0
 41 40  1  0  0  0  0
M  END
>  <minimizedAffinity>
-5.82916021

$$$$

 OpenBabel03272501283D

 41 44  0  0  1  0  0  0  0  0999 V2000
   37.8140   24.9310   33.1070 C   0  0  0  0  0  0  0  0  0  0  0  0
   37.6810   23.6310   32.5860 C   0  0  0  0  0  0  0  0  0  0  0  0
   37.8350   22.7460   33.6600 C   0  0  0  0  0  0  0  0  0  0  0  0
   38.0470   23.5060   34.7430 N   0  0  0  0  0  0  0  0  0  0  0  0
   38.0280   24.7850   34.3870 N   0  0  0  0  0  0  0  0  0  0  0  0
   37.4940   23.2950   31.5600 H   0  0  0  0  0  0  0  0  0  0  0  0
   37.7990   21.6800   33.6600 H   0  0  0  0  0  0  0  0  0  0  0  0
   39.6420   22.8000   36.4000 N   0  0  0  0  0  0  0  0  0  0  0  0
   39.7070   22.8140   37.8530 C   0  0  0  0  0  0  0  0  0  0  0  0
   38.4730   23.5280   38.3520 C   0  0  0  0  0  0  0  0  0  0  0  0
   37.9540   24.1750   37.0690 C   0  0  0  0  0  0  0  0  0  0  0  0
   38.2630   23.0930   36.0840 C   0  0  1  0  0  0  0  0  0  0  0  0
   39.9950   21.9200   35.9950 H   0  0  0  0  0  0  0  0  0  0  0  0
   40.6340   23.2400   38.2520 H   0  0  0  0  0  0  0  0  0  0  0  0
   39.6030   21.7400   38.1900 H   0  0  0  0  0  0  0  0  0  0  0  0
   37.6740   22.8060   38.6740 H   0  0  0  0  0  0  0  0  0  0  0  0
   38.6920   24.2870   39.1100 H   0  0  0  0  0  0  0  0  0  0  0  0
   38.6280   25.0460   36.8780 H   0  0  0  0  0  0  0  0  0  0  0  0
   36.9020   24.4590   37.1350 H   0  0  0  0  0  0  0  0  0  0  0  0
   37.3990   21.9570   36.3660 N   0  0  0  0  0  0  0  0  0  0  0  0
   36.4200   22.2750   36.5510 H   0  0  0  0  0  0  0  0  0  0  0  0
   37.3900   21.2710   35.5820 H   0  0  0  0  0  0  0  0  0  0  0  0
   38.7970   26.9140   31.9460 C   0  0  0  0  0  0  0  0  0  0  0  0
   37.7070   26.0960   32.2540 C   0  0  0  0  0  0  0  0  0  0  0  0
   36.4820   26.4490   31.6980 C   0  0  0  0  0  0  0  0  0  0  0  0
   36.4210   27.5480   30.9050 N   0  0  0  0  0  0  0  0  0  0  0  0
   37.4970   28.3100   30.6320 C   0  0  0  0  0  0  0  0  0  0  0  0
   38.7240   27.9780   31.1730 N   0  0  0  0  0  0  0  0  0  0  0  0
   39.7560   26.6460   32.3740 H   0  0  0  0  0  0  0  0  0  0  0  0
   35.5860   25.8640   31.8900 H   0  0  0  0  0  0  0  0  0  0  0  0
   36.1780   30.6250   31.8970 Cl  0  0  0  0  0  0  0  0  0  0  0  0
   36.7900   30.6240   30.2490 C   0  0  0  0  0  0  0  0  0  0  0  0
   37.3850   29.4810   29.7740 C   0  0  0  0  0  0  0  0  0  0  0  0
   37.8940   29.3790   28.5010 C   0  0  0  0  0  0  0  0  0  0  0  0
   38.3680   28.5260   28.0710 H   0  0  0  0  0  0  0  0  0  0  0  0
   37.8070   30.4830   27.6490 C   0  0  0  0  0  0  0  0  0  0  0  0
   38.1480   30.5820   26.6310 H   0  0  0  0  0  0  0  0  0  0  0  0
   37.1990   31.6420   28.1420 C   0  0  0  0  0  0  0  0  0  0  0  0
   37.0790   32.5580   27.5590 H   0  0  0  0  0  0  0  0  0  0  0  0
   36.6950   31.7200   29.4210 C   0  0  0  0  0  0  0  0  0  0  0  0
   35.9290   33.1410   30.0810 Cl  0  0  0  0  0  0  0  0  0  0  0  0
  1  5  2  0  0  0  0
  2  1  1  0  0  0  0
  2  3  2  0  0  0  0
  3  7  1  0  0  0  0
  3  4  1  0  0  0  0
  4 12  1  0  0  0  0
  5  4  1  0  0  0  0
  6  2  1  0  0  0  0
  8  9  1  0  0  0  0
  9 15  1  0  0  0  0
  9 14  1  0  0  0  0
  9 10  1  0  0  0  0
 10 16  1  0  0  0  0
 10 17  1  0  0  0  0
 11 19  1  0  0  0  0
 11 10  1  0  0  0  0
 12 20  1  1  0  0  0
 12  8  1  0  0  0  0
 12 11  1  0  0  0  0
 13  8  1  0  0  0  0
 18 11  1  0  0  0  0
 20 21  1  0  0  0  0
 22 20  1  0  0  0  0
 23 24  1  0  0  0  0
 23 29  1  0  0  0  0
 24  1  1  0  0  0  0
 25 30  1  0  0  0  0
 25 24  2  0  0  0  0
 26 25  1  0  0  0  0
 27 26  2  0  0  0  0
 27 28  1  0  0  0  0
 28 23  2  0  0  0  0
 32 31  1  0  0  0  0
 33 32  1  0  0  0  0
 33 27  1  0  0  0  0
 34 33  2  0  0  0  0
 35 34  1  0  0  0  0
 36 38  2  0  0  0  0
 36 34  1  0  0  0  0
 37 36  1  0  0  0  0
 38 40  1  0  0  0  0
 39 38  1  0  0  0  0
 40 41  1  0  0  0  0
 40 32  2  0  0  0  0
M  END
>  <minimizedAffinity>
-5.7325778

$$$$

 OpenBabel03272501283D

 41 44  0  0  1  0  0  0  0  0999 V2000
   36.0270   27.8960   31.8080 C   0  0  0  0  0  0  0  0  0  0  0  0
   35.9150   28.5910   33.0260 C   0  0  0  0  0  0  0  0  0  0  0  0
   35.9120   29.9560   32.7150 C   0  0  0  0  0  0  0  0  0  0  0  0
   36.0200   30.0360   31.3820 N   0  0  0  0  0  0  0  0  0  0  0  0
   36.0840   28.8100   30.8760 N   0  0  0  0  0  0  0  0  0  0  0  0
   35.8390   28.2140   34.0520 H   0  0  0  0  0  0  0  0  0  0  0  0
   35.8430   30.7930   33.3730 H   0  0  0  0  0  0  0  0  0  0  0  0
   34.7740   31.8120   30.3390 N   0  0  0  0  0  0  0  0  0  0  0  0
   35.0750   33.1550   29.8690 C   0  0  0  0  0  0  0  0  0  0  0  0
   36.5110   33.4470   30.2300 C   0  0  0  0  0  0  0  0  0  0  0  0
   36.8180   32.3160   31.2110 C   0  0  0  0  0  0  0  0  0  0  0  0
   36.0630   31.1980   30.5670 C   0  0  1  0  0  0  0  0  0  0  0  0
   34.1620   31.2920   29.6930 H   0  0  0  0  0  0  0  0  0  0  0  0
   34.3810   33.9190   30.2360 H   0  0  0  0  0  0  0  0  0  0  0  0
   35.0390   33.1160   28.7400 H   0  0  0  0  0  0  0  0  0  0  0  0
   37.2030   33.2890   29.3580 H   0  0  0  0  0  0  0  0  0  0  0  0
   36.6440   34.4240   30.7080 H   0  0  0  0  0  0  0  0  0  0  0  0
   36.3080   32.6000   32.1650 H   0  0  0  0  0  0  0  0  0  0  0  0
   37.8880   32.1440   31.3370 H   0  0  0  0  0  0  0  0  0  0  0  0
   36.7210   30.8620   29.3130 N   0  0  0  0  0  0  0  0  0  0  0  0
   37.7590   30.8310   29.4390 H   0  0  0  0  0  0  0  0  0  0  0  0
   36.3970   29.9470   28.9360 H   0  0  0  0  0  0  0  0  0  0  0  0
   35.2440   25.6930   30.9230 C   0  0  0  0  0  0  0  0  0  0  0  0
   36.0590   26.4490   31.7700 C   0  0  0  0  0  0  0  0  0  0  0  0
   36.9260   25.7440   32.5980 C   0  0  0  0  0  0  0  0  0  0  0  0
   36.9270   24.3890   32.5340 N   0  0  0  0  0  0  0  0  0  0  0  0
   36.1250   23.6980   31.7020 C   0  0  0  0  0  0  0  0  0  0  0  0
   35.2560   24.3770   30.8700 N   0  0  0  0  0  0  0  0  0  0  0  0
   34.5660   26.2350   30.2730 H   0  0  0  0  0  0  0  0  0  0  0  0
   37.5910   26.2580   33.2860 H   0  0  0  0  0  0  0  0  0  0  0  0
   38.4280   22.5720   30.2440 Cl  0  0  0  0  0  0  0  0  0  0  0  0
   37.1840   21.5990   31.0170 C   0  0  0  0  0  0  0  0  0  0  0  0
   36.1600   22.2430   31.6660 C   0  0  0  0  0  0  0  0  0  0  0  0
   35.1410   21.5730   32.3000 C   0  0  0  0  0  0  0  0  0  0  0  0
   34.3190   22.0100   32.8210 H   0  0  0  0  0  0  0  0  0  0  0  0
   35.1410   20.1760   32.2880 C   0  0  0  0  0  0  0  0  0  0  0  0
   34.4310   19.4940   32.7280 H   0  0  0  0  0  0  0  0  0  0  0  0
   36.1880   19.5290   31.6240 C   0  0  0  0  0  0  0  0  0  0  0  0
   36.2810   18.4430   31.5560 H   0  0  0  0  0  0  0  0  0  0  0  0
   37.1980   20.2210   30.9950 C   0  0  0  0  0  0  0  0  0  0  0  0
   38.5230   19.4610   30.1550 Cl  0  0  0  0  0  0  0  0  0  0  0  0
  1  2  1  0  0  0  0
  2  6  1  0  0  0  0
  3  2  2  0  0  0  0
  3  7  1  0  0  0  0
  4  3  1  0  0  0  0
  5  4  1  0  0  0  0
  5  1  2  0  0  0  0
  8 12  1  0  0  0  0
  9 10  1  0  0  0  0
  9 14  1  0  0  0  0
  9  8  1  0  0  0  0
 10 17  1  0  0  0  0
 10 11  1  0  0  0  0
 11 19  1  0  0  0  0
 11 18  1  0  0  0  0
 12 20  1  6  0  0  0
 12 11  1  0  0  0  0
 12  4  1  0  0  0  0
 13  8  1  0  0  0  0
 15  9  1  0  0  0  0
 16 10  1  0  0  0  0
 20 21  1  0  0  0  0
 22 20  1  0  0  0  0
 23 24  1  0  0  0  0
 24  1  1  0  0  0  0
 24 25  2  0  0  0  0
 25 30  1  0  0  0  0
 26 25  1  0  0  0  0
 27 26  2  0  0  0  0
 28 23  2  0  0  0  0
 28 27  1  0  0  0  0
 29 23  1  0  0  0  0
 31 32  1  0  0  0  0
 32 33  1  0  0  0  0
 33 27  1  0  0  0  0
 33 34  2  0  0  0  0
 34 35  1  0  0  0  0
 36 34  1  0  0  0  0
 36 37  1  0  0  0  0
 38 36  2  0  0  0  0
 39 38  1  0  0  0  0
 40 32  2  0  0  0  0
 40 38  1  0  0  0  0
 41 40  1  0  0  0  0
M  END
>  <minimizedAffinity>
-5.71082687

$$$$

 OpenBabel03272501283D

 41 44  0  0  1  0  0  0  0  0999 V2000
   37.5330   25.5010   33.7470 C   0  0  0  0  0  0  0  0  0  0  0  0
   38.0070   24.4980   32.8820 C   0  0  0  0  0  0  0  0  0  0  0  0
   38.5200   23.4760   33.6890 C   0  0  0  0  0  0  0  0  0  0  0  0
   38.3480   23.8780   34.9550 N   0  0  0  0  0  0  0  0  0  0  0  0
   37.7650   25.0700   34.9580 N   0  0  0  0  0  0  0  0  0  0  0  0
   38.0090   24.4500   31.7870 H   0  0  0  0  0  0  0  0  0  0  0  0
   38.9650   22.5510   33.3970 H   0  0  0  0  0  0  0  0  0  0  0  0
   40.1180   22.9620   36.3060 N   0  0  0  0  0  0  0  0  0  0  0  0
   40.3000   22.6640   37.7170 C   0  0  0  0  0  0  0  0  0  0  0  0
   39.0650   23.1450   38.4420 C   0  0  0  0  0  0  0  0  0  0  0  0
   38.4000   24.0120   37.3740 C   0  0  0  0  0  0  0  0  0  0  0  0
   38.7000   23.2010   36.1530 C   0  0  1  0  0  0  0  0  0  0  0  0
   40.4950   22.2260   35.6920 H   0  0  0  0  0  0  0  0  0  0  0  0
   41.2250   23.0690   38.1410 H   0  0  0  0  0  0  0  0  0  0  0  0
   40.2970   21.5380   37.8110 H   0  0  0  0  0  0  0  0  0  0  0  0
   38.3460   22.3050   38.6450 H   0  0  0  0  0  0  0  0  0  0  0  0
   39.2940   23.7360   39.3350 H   0  0  0  0  0  0  0  0  0  0  0  0
   38.9960   24.9570   37.3400 H   0  0  0  0  0  0  0  0  0  0  0  0
   37.3400   24.1850   37.5690 H   0  0  0  0  0  0  0  0  0  0  0  0
   37.9410   21.9620   36.2280 N   0  0  0  0  0  0  0  0  0  0  0  0
   36.9620   22.1480   36.5430 H   0  0  0  0  0  0  0  0  0  0  0  0
   37.9150   21.4660   35.3130 H   0  0  0  0  0  0  0  0  0  0  0  0
   36.7290   27.8520   34.0160 C   0  0  0  0  0  0  0  0  0  0  0  0
   36.9320   26.7140   33.2330 C   0  0  0  0  0  0  0  0  0  0  0  0
   36.5260   26.7880   31.9050 C   0  0  0  0  0  0  0  0  0  0  0  0
   35.9660   27.9400   31.4590 N   0  0  0  0  0  0  0  0  0  0  0  0
   35.7880   29.0160   32.2480 C   0  0  0  0  0  0  0  0  0  0  0  0
   36.1840   28.9660   33.5710 N   0  0  0  0  0  0  0  0  0  0  0  0
   37.0420   27.8040   35.0530 H   0  0  0  0  0  0  0  0  0  0  0  0
   36.6490   25.9440   31.2300 H   0  0  0  0  0  0  0  0  0  0  0  0
   32.8960   29.2590   32.7730 Cl  0  0  0  0  0  0  0  0  0  0  0  0
   33.8420   30.4630   31.9080 C   0  0  0  0  0  0  0  0  0  0  0  0
   35.1830   30.2340   31.7270 C   0  0  0  0  0  0  0  0  0  0  0  0
   36.0070   31.1120   31.0650 C   0  0  0  0  0  0  0  0  0  0  0  0
   37.0530   30.9960   30.8920 H   0  0  0  0  0  0  0  0  0  0  0  0
   35.4630   32.2920   30.5530 C   0  0  0  0  0  0  0  0  0  0  0  0
   35.9540   33.0860   30.0120 H   0  0  0  0  0  0  0  0  0  0  0  0
   34.0960   32.5160   30.7410 C   0  0  0  0  0  0  0  0  0  0  0  0
   33.5730   33.4050   30.3800 H   0  0  0  0  0  0  0  0  0  0  0  0
   33.2890   31.6210   31.4080 C   0  0  0  0  0  0  0  0  0  0  0  0
   31.5820   31.8560   31.6680 Cl  0  0  0  0  0  0  0  0  0  0  0  0
  1  5  2  0  0  0  0
  2  3  2  0  0  0  0
  2  1  1  0  0  0  0
  3  4  1  0  0  0  0
  4  5  1  0  0  0  0
  4 12  1  0  0  0  0
  6  2  1  0  0  0  0
  7  3  1  0  0  0  0
  8  9  1  0  0  0  0
  9 15  1  0  0  0  0
  9 14  1  0  0  0  0
  9 10  1  0  0  0  0
 10 16  1  0  0  0  0
 10 17  1  0  0  0  0
 11 19  1  0  0  0  0
 11 10  1  0  0  0  0
 12 20  1  1  0  0  0
 12  8  1  0  0  0  0
 12 11  1  0  0  0  0
 13  8  1  0  0  0  0
 18 11  1  0  0  0  0
 20 21  1  0  0  0  0
 22 20  1  0  0  0  0
 23 29  1  0  0  0  0
 24  1  1  0  0  0  0
 24 23  2  0  0  0  0
 25 24  1  0  0  0  0
 26 25  2  0  0  0  0
 26 27  1  0  0  0  0
 27 28  2  0  0  0  0
 28 23  1  0  0  0  0
 30 25  1  0  0  0  0
 32 31  1  0  0  0  0
 33 32  1  0  0  0  0
 33 27  1  0  0  0  0
 34 33  2  0  0  0  0
 35 34  1  0  0  0  0
 36 38  2  0  0  0  0
 36 34  1  0  0  0  0
 37 36  1  0  0  0  0
 38 40  1  0  0  0  0
 39 38  1  0  0  0  0
 40 41  1  0  0  0  0
 40 32  2  0  0  0  0
M  END
>  <minimizedAffinity>
-5.69640112

$$$$
