
 OpenBabel03272504093D

 35 37  0  0  0  0  0  0  0  0999 V2000
   37.3060   30.6260   50.1560 C   0  0  0  0  0  0  0  0  0  0  0  0
   36.9750   30.5910   48.8120 C   0  0  0  0  0  0  0  0  0  0  0  0
   35.7450   30.0130   48.4060 C   0  0  0  0  0  0  0  0  0  0  0  0
   34.9390   29.5130   49.3680 N   0  0  0  0  0  0  0  0  0  0  0  0
   35.3120   29.5680   50.6990 C   0  0  0  0  0  0  0  0  0  0  0  0
   36.4950   30.1270   51.0830 N   0  0  0  0  0  0  0  0  0  0  0  0
   34.4040   29.0170   51.6620 N   0  0  0  0  0  0  0  0  0  0  0  0
   38.2480   31.0710   50.4570 H   0  0  0  0  0  0  0  0  0  0  0  0
   33.6320   29.6590   51.9520 H   0  0  0  0  0  0  0  0  0  0  0  0
   34.4430   28.0680   52.0850 H   0  0  0  0  0  0  0  0  0  0  0  0
   38.0450   33.4170   49.1610 Cl  0  0  0  0  0  0  0  0  0  0  0  0
   38.5100   32.4040   47.8290 C   0  0  0  0  0  0  0  0  0  0  0  0
   37.9340   31.1730   47.8510 C   0  0  0  0  0  0  0  0  0  0  0  0
   38.2650   30.2810   46.8130 C   0  0  0  0  0  0  0  0  0  0  0  0
   39.1190   30.6140   45.8190 C   0  0  0  0  0  0  0  0  0  0  0  0
   39.6940   31.8800   45.8210 C   0  0  0  0  0  0  0  0  0  0  0  0
   40.8010   32.3580   44.5660 Cl  0  0  0  0  0  0  0  0  0  0  0  0
   39.3830   32.7550   46.8200 C   0  0  0  0  0  0  0  0  0  0  0  0
   37.8920   29.2700   46.7190 H   0  0  0  0  0  0  0  0  0  0  0  0
   39.4100   29.9720   44.9960 H   0  0  0  0  0  0  0  0  0  0  0  0
   39.8070   33.7580   46.8650 H   0  0  0  0  0  0  0  0  0  0  0  0
   35.4170   29.9940   46.9930 C   0  0  0  0  0  0  0  0  0  0  0  0
   35.6190   31.0290   46.5900 H   0  0  0  0  0  0  0  0  0  0  0  0
   36.0610   29.3200   46.4270 H   0  0  0  0  0  0  0  0  0  0  0  0
   34.2580   27.1750   47.3190 Cl  0  0  0  0  0  0  0  0  0  0  0  0
   33.3030   28.5720   46.7900 C   0  0  0  0  0  0  0  0  0  0  0  0
   33.9740   29.7690   46.6910 C   0  0  0  0  0  0  0  0  0  0  0  0
   33.1870   30.8460   46.2720 C   0  0  0  0  0  0  0  0  0  0  0  0
   33.6900   31.8100   46.1840 H   0  0  0  0  0  0  0  0  0  0  0  0
   31.8330   30.8130   45.9570 C   0  0  0  0  0  0  0  0  0  0  0  0
   31.3260   31.7000   45.6470 H   0  0  0  0  0  0  0  0  0  0  0  0
   31.2650   29.5460   46.0950 C   0  0  0  0  0  0  0  0  0  0  0  0
   30.2080   29.5020   45.8540 H   0  0  0  0  0  0  0  0  0  0  0  0
   31.9620   28.4310   46.5030 C   0  0  0  0  0  0  0  0  0  0  0  0
   31.1830   26.8720   46.6500 Cl  0  0  0  0  0  0  0  0  0  0  0  0
  1  8  1  0  0  0  0
  1  6  1  0  0  0  0
  2  1  2  0  0  0  0
  3  2  1  0  0  0  0
  3  4  2  0  0  0  0
  4  5  1  0  0  0  0
  5  6  2  0  0  0  0
  5  7  1  0  0  0  0
  7  9  1  0  0  0  0
  7 10  1  0  0  0  0
 12 13  1  0  0  0  0
 12 11  1  0  0  0  0
 13  2  1  0  0  0  0
 14 13  2  0  0  0  0
 15 16  2  0  0  0  0
 15 14  1  0  0  0  0
 16 18  1  0  0  0  0
 17 16  1  0  0  0  0
 18 21  1  0  0  0  0
 18 12  2  0  0  0  0
 19 14  1  0  0  0  0
 20 15  1  0  0  0  0
 22  3  1  0  0  0  0
 23 22  1  0  0  0  0
 24 22  1  0  0  0  0
 26 25  1  0  0  0  0
 27 26  1  0  0  0  0
 27 22  1  0  0  0  0
 28 27  2  0  0  0  0
 29 28  1  0  0  0  0
 30 32  2  0  0  0  0
 30 28  1  0  0  0  0
 31 30  1  0  0  0  0
 32 34  1  0  0  0  0
 33 32  1  0  0  0  0
 34 35  1  0  0  0  0
 34 26  2  0  0  0  0
M  END
>  <minimizedAffinity>
-5.89608288

>  <minimizedRMSD>
0.709362447

$$$$
