
 OpenBabel03272509343D

 43 47  0  0  1  0  0  0  0  0999 V2000
   33.5160   30.5350   46.6550 C   0  0  1  0  0  0  0  0  0  0  0  0
   33.8730   30.0520   47.9990 C   0  0  0  0  0  0  0  0  0  0  0  0
   34.7300   29.5880   46.8770 C   0  0  2  0  0  0  0  0  0  0  0  0
   33.8570   31.4950   46.3020 H   0  0  0  0  0  0  0  0  0  0  0  0
   34.0270   30.8660   48.6910 H   0  0  0  0  0  0  0  0  0  0  0  0
   33.1950   29.2680   48.4840 H   0  0  0  0  0  0  0  0  0  0  0  0
   34.6520   28.7530   46.1950 H   0  0  0  0  0  0  0  0  0  0  0  0
   36.0860   30.1860   46.9780 C   0  0  0  0  0  0  0  0  0  0  0  0
   36.5420   30.1430   48.3010 C   0  0  0  0  0  0  0  0  0  0  0  0
   37.8130   30.5690   48.6250 C   0  0  0  0  0  0  0  0  0  0  0  0
   38.6830   31.0560   47.6450 C   0  0  0  0  0  0  0  0  0  0  0  0
   38.2110   31.0880   46.3550 C   0  0  0  0  0  0  0  0  0  0  0  0
   38.9340   31.5520   45.2810 C   0  0  0  0  0  0  0  0  0  0  0  0
   38.4750   31.6060   43.9840 C   0  0  0  0  0  0  0  0  0  0  0  0
   37.1910   31.1620   43.7270 C   0  0  0  0  0  0  0  0  0  0  0  0
   36.4480   30.6930   44.7790 C   0  0  0  0  0  0  0  0  0  0  0  0
   36.9530   30.6610   46.0560 C   0  0  0  0  0  0  0  0  0  0  0  0
   36.1700   29.8260   49.2520 H   0  0  0  0  0  0  0  0  0  0  0  0
   38.3180   30.6050   49.5750 H   0  0  0  0  0  0  0  0  0  0  0  0
   39.6950   31.4250   47.7280 H   0  0  0  0  0  0  0  0  0  0  0  0
   39.9600   31.9130   45.4550 H   0  0  0  0  0  0  0  0  0  0  0  0
   39.1090   31.9890   43.1890 H   0  0  0  0  0  0  0  0  0  0  0  0
   36.7680   31.1730   42.7420 H   0  0  0  0  0  0  0  0  0  0  0  0
   35.4260   30.3420   44.5510 H   0  0  0  0  0  0  0  0  0  0  0  0
   30.2270   30.0120   44.8910 C   0  0  0  0  0  0  0  0  0  0  0  0
   31.3040   30.6370   45.5580 C   0  0  0  0  0  0  0  0  0  0  0  0
   32.3960   29.8890   45.9420 C   0  0  0  0  0  0  0  0  0  0  0  0
   32.3560   28.5680   45.6400 N   0  0  0  0  0  0  0  0  0  0  0  0
   31.3370   27.9640   45.0040 C   0  0  0  0  0  0  0  0  0  0  0  0
   30.2520   28.7050   44.6240 N   0  0  0  0  0  0  0  0  0  0  0  0
   29.3950   30.6750   44.6180 H   0  0  0  0  0  0  0  0  0  0  0  0
   31.2630   31.7080   45.7660 H   0  0  0  0  0  0  0  0  0  0  0  0
   30.2810   25.9510   47.0800 Cl  0  0  0  0  0  0  0  0  0  0  0  0
   30.8100   25.5410   45.4730 C   0  0  0  0  0  0  0  0  0  0  0  0
   31.2580   26.5560   44.6580 C   0  0  0  0  0  0  0  0  0  0  0  0
   31.6540   26.0950   43.4090 C   0  0  0  0  0  0  0  0  0  0  0  0
   32.0320   26.8020   42.6610 H   0  0  0  0  0  0  0  0  0  0  0  0
   31.6020   24.7760   43.0330 C   0  0  0  0  0  0  0  0  0  0  0  0
   31.9300   24.4880   42.0340 H   0  0  0  0  0  0  0  0  0  0  0  0
   31.1410   23.8130   43.9030 C   0  0  0  0  0  0  0  0  0  0  0  0
   31.1290   22.7990   43.5370 H   0  0  0  0  0  0  0  0  0  0  0  0
   30.7350   24.2180   45.1560 C   0  0  0  0  0  0  0  0  0  0  0  0
   30.1530   22.9990   46.2550 Cl  0  0  0  0  0  0  0  0  0  0  0  0
  1  4  1  6  0  0  0
  1  3  1  0  0  0  0
  1  2  1  0  0  0  0
  2  6  1  0  0  0  0
  2  5  1  0  0  0  0
  3  7  1  6  0  0  0
  3  8  1  0  0  0  0
  3  2  1  0  0  0  0
  8  9  1  0  0  0  0
  9 10  2  0  0  0  0
  9 18  1  0  0  0  0
 10 19  1  0  0  0  0
 11 20  1  0  0  0  0
 11 10  1  0  0  0  0
 12 11  2  0  0  0  0
 13 21  1  0  0  0  0
 13 12  1  0  0  0  0
 14 13  2  0  0  0  0
 15 14  1  0  0  0  0
 15 16  2  0  0  0  0
 16 17  1  0  0  0  0
 17 12  1  0  0  0  0
 17  8  2  0  0  0  0
 22 14  1  0  0  0  0
 23 15  1  0  0  0  0
 24 16  1  0  0  0  0
 25 26  1  0  0  0  0
 26 32  1  0  0  0  0
 26 27  2  0  0  0  0
 27  1  1  0  0  0  0
 28 27  1  0  0  0  0
 29 28  2  0  0  0  0
 30 25  2  0  0  0  0
 30 29  1  0  0  0  0
 31 25  1  0  0  0  0
 34 33  1  0  0  0  0
 35 29  1  0  0  0  0
 35 34  2  0  0  0  0
 36 35  1  0  0  0  0
 37 36  1  0  0  0  0
 38 36  2  0  0  0  0
 38 40  1  0  0  0  0
 39 38  1  0  0  0  0
 40 42  2  0  0  0  0
 41 40  1  0  0  0  0
 42 34  1  0  0  0  0
 42 43  1  0  0  0  0
M  END
>  <minimizedAffinity>
-4.32317066

>  <minimizedRMSD>
8.23998356

$$$$
