
 OpenBabel03272504573D

 35 37  0  0  1  0  0  0  0  0999 V2000
   37.3520   29.6080   49.6330 C   0  0  1  0  0  0  0  0  0  0  0  0
   36.8370   29.5490   50.9800 C   0  0  0  0  0  0  0  0  0  0  0  0
   35.9000   29.5100   49.8150 C   0  0  2  0  0  0  0  0  0  0  0  0
   37.8130   28.7000   49.1100 H   0  0  0  0  0  0  0  0  0  0  0  0
   37.3580   28.7670   51.4940 H   0  0  0  0  0  0  0  0  0  0  0  0
   36.8500   30.5000   51.5540 H   0  0  0  0  0  0  0  0  0  0  0  0
   35.1440   30.2730   49.9220 H   0  0  0  0  0  0  0  0  0  0  0  0
   37.8770   30.8990   49.0680 C   0  0  0  0  0  0  0  0  0  0  0  0
   38.3900   31.8140   50.0100 C   0  0  0  0  0  0  0  0  0  0  0  0
   38.8670   32.9860   49.4750 C   0  0  0  0  0  0  0  0  0  0  0  0
   38.8240   33.1980   48.1410 N   0  0  0  0  0  0  0  0  0  0  0  0
   38.3200   32.2880   47.2620 C   0  0  0  0  0  0  0  0  0  0  0  0
   37.8330   31.1030   47.7520 N   0  0  0  0  0  0  0  0  0  0  0  0
   38.2870   32.4730   45.8750 N   0  0  0  0  0  0  0  0  0  0  0  0
   38.4290   31.6580   51.0630 H   0  0  0  0  0  0  0  0  0  0  0  0
   39.2850   33.7720   50.0720 H   0  0  0  0  0  0  0  0  0  0  0  0
   39.0750   32.1110   45.2870 H   0  0  0  0  0  0  0  0  0  0  0  0
   37.5090   32.9600   45.3690 H   0  0  0  0  0  0  0  0  0  0  0  0
   35.3530   28.2530   49.5330 O   0  0  0  0  0  0  0  0  0  0  0  0
   33.9290   27.0470   47.7530 O   0  0  0  0  0  0  0  0  0  0  0  0
   34.1570   28.3880   48.3770 P   0  0  1  0  0  0  0  0  0  0  0  0
   32.6410   28.6840   49.1870 O   0  0  0  0  0  0  0  0  0  0  0  0
   32.0560   29.1050   48.5130 H   0  0  0  0  0  0  0  0  0  0  0  0
   34.4870   29.6250   47.3490 O   0  0  0  0  0  0  0  0  0  0  0  0
   36.2420   29.7570   44.8880 Cl  0  0  0  0  0  0  0  0  0  0  0  0
   34.5880   30.2410   44.9820 C   0  0  0  0  0  0  0  0  0  0  0  0
   33.9730   30.0950   46.2100 C   0  0  0  0  0  0  0  0  0  0  0  0
   32.6270   30.4880   46.2900 C   0  0  0  0  0  0  0  0  0  0  0  0
   32.0320   30.4240   47.1930 H   0  0  0  0  0  0  0  0  0  0  0  0
   31.9970   30.9940   45.1470 C   0  0  0  0  0  0  0  0  0  0  0  0
   30.9560   31.3010   45.1970 H   0  0  0  0  0  0  0  0  0  0  0  0
   32.6480   31.1190   43.9540 C   0  0  0  0  0  0  0  0  0  0  0  0
   32.1480   31.5080   43.0970 H   0  0  0  0  0  0  0  0  0  0  0  0
   33.9580   30.7410   43.8600 C   0  0  0  0  0  0  0  0  0  0  0  0
   34.8540   30.8690   42.3850 Cl  0  0  0  0  0  0  0  0  0  0  0  0
  1  4  1  6  0  0  0
  1  3  1  0  0  0  0
  1  2  1  0  0  0  0
  2  5  1  0  0  0  0
  2  6  1  0  0  0  0
  3  7  1  6  0  0  0
  3  2  1  0  0  0  0
  8  1  1  0  0  0  0
  8  9  1  0  0  0  0
  9 15  1  0  0  0  0
 10  9  2  0  0  0  0
 10 16  1  0  0  0  0
 11 10  1  0  0  0  0
 12 13  1  0  0  0  0
 12 11  2  0  0  0  0
 13  8  2  0  0  0  0
 14 12  1  0  0  0  0
 17 14  1  0  0  0  0
 18 14  1  0  0  0  0
 19  3  1  0  0  0  0
 21 20  2  6  0  0  0
 21 22  1  0  0  0  0
 21 19  1  0  0  0  0
 23 22  1  0  0  0  0
 24 21  1  0  0  0  0
 25 26  1  0  0  0  0
 26 27  1  0  0  0  0
 27 28  2  0  0  0  0
 27 24  1  0  0  0  0
 28 29  1  0  0  0  0
 30 31  1  0  0  0  0
 30 28  1  0  0  0  0
 32 30  2  0  0  0  0
 33 32  1  0  0  0  0
 34 32  1  0  0  0  0
 34 26  2  0  0  0  0
 35 34  1  0  0  0  0
M  END
>  <minimizedAffinity>
-5.46691704

>  <minimizedRMSD>
2.84735727

$$$$
