
 OpenBabel03272510273D

 47 51  0  0  1  0  0  0  0  0999 V2000
   39.6740   31.8670   40.7990 N   0  0  0  0  0  0  0  0  0  0  0  0
   38.5000   32.1860   40.0450 C   0  0  1  0  0  0  0  0  0  0  0  0
   38.3600   33.6400   39.9190 C   0  0  0  0  0  0  0  0  0  0  0  0
   38.1470   34.1790   41.1840 O   0  0  0  0  0  0  0  0  0  0  0  0
   39.1100   33.8670   42.0980 C   0  0  0  0  0  0  0  0  0  0  0  0
   39.4730   32.4060   42.1450 C   0  0  1  0  0  0  0  0  0  0  0  0
   40.5680   32.2250   40.5160 H   0  0  0  0  0  0  0  0  0  0  0  0
   37.6030   31.8090   40.5780 H   0  0  0  0  0  0  0  0  0  0  0  0
   39.0830   34.2780   39.4850 H   0  0  0  0  0  0  0  0  0  0  0  0
   37.3890   33.8350   39.3710 H   0  0  0  0  0  0  0  0  0  0  0  0
   38.8070   34.2410   43.0700 H   0  0  0  0  0  0  0  0  0  0  0  0
   40.0500   34.3870   41.7500 H   0  0  0  0  0  0  0  0  0  0  0  0
   40.4520   32.3550   42.6820 H   0  0  0  0  0  0  0  0  0  0  0  0
   39.0490   32.7590   45.2210 Cl  0  0  0  0  0  0  0  0  0  0  0  0
   38.2450   31.5980   44.1850 C   0  0  0  0  0  0  0  0  0  0  0  0
   38.4830   31.5480   42.8250 C   0  0  0  0  0  0  0  0  0  0  0  0
   37.7350   30.6030   42.1700 C   0  0  0  0  0  0  0  0  0  0  0  0
   37.8070   30.4470   41.1230 H   0  0  0  0  0  0  0  0  0  0  0  0
   36.8140   29.7560   42.7720 C   0  0  0  0  0  0  0  0  0  0  0  0
   36.2370   29.0220   42.2490 H   0  0  0  0  0  0  0  0  0  0  0  0
   36.6200   29.8540   44.1410 C   0  0  0  0  0  0  0  0  0  0  0  0
   35.9110   29.2070   44.6370 H   0  0  0  0  0  0  0  0  0  0  0  0
   37.3460   30.7880   44.8490 C   0  0  0  0  0  0  0  0  0  0  0  0
   37.0560   30.8640   46.5740 Cl  0  0  0  0  0  0  0  0  0  0  0  0
   38.6570   31.5790   38.7720 O   0  0  0  0  0  0  0  0  0  0  0  0
   44.1730   31.6460   36.6650 C   0  0  0  0  0  0  0  0  0  0  0  0
   44.1380   30.3380   37.0860 C   0  0  0  0  0  0  0  0  0  0  0  0
   42.9900   29.7980   37.6920 C   0  0  0  0  0  0  0  0  0  0  0  0
   41.9140   30.6500   37.8360 C   0  0  0  0  0  0  0  0  0  0  0  0
   40.6910   30.3700   38.3840 N   0  0  0  0  0  0  0  0  0  0  0  0
   39.9730   31.5050   38.3010 C   0  0  0  0  0  0  0  0  0  0  0  0
   40.6900   32.4510   37.7360 N   0  0  0  0  0  0  0  0  0  0  0  0
   41.9100   31.9720   37.4260 C   0  0  0  0  0  0  0  0  0  0  0  0
   43.0710   32.4780   36.8260 C   0  0  0  0  0  0  0  0  0  0  0  0
   45.0500   32.0740   36.1980 H   0  0  0  0  0  0  0  0  0  0  0  0
   42.9410   28.7700   38.0310 H   0  0  0  0  0  0  0  0  0  0  0  0
   40.3660   29.4460   38.7940 H   0  0  0  0  0  0  0  0  0  0  0  0
   43.0710   33.5090   36.5060 H   0  0  0  0  0  0  0  0  0  0  0  0
   46.5660   27.4840   36.7120 C   0  0  0  0  0  0  0  0  0  0  0  0
   45.3570   28.1290   36.9330 C   0  0  0  0  0  0  0  0  0  0  0  0
   45.3070   29.4990   36.8890 C   0  0  0  0  0  0  0  0  0  0  0  0
   46.4870   30.1630   36.6210 N   0  0  0  0  0  0  0  0  0  0  0  0
   47.6620   29.5350   36.4060 C   0  0  0  0  0  0  0  0  0  0  0  0
   47.6940   28.2110   36.4520 N   0  0  0  0  0  0  0  0  0  0  0  0
   46.5630   26.3950   36.7560 H   0  0  0  0  0  0  0  0  0  0  0  0
   44.4390   27.6270   37.1410 H   0  0  0  0  0  0  0  0  0  0  0  0
   48.5400   30.1360   36.2030 H   0  0  0  0  0  0  0  0  0  0  0  0
  1  6  1  0  0  0  0
  2  8  1  1  0  0  0
  2  1  1  0  0  0  0
  3  2  1  0  0  0  0
  3  4  1  0  0  0  0
  4  5  1  0  0  0  0
  5  6  1  0  0  0  0
  5 11  1  0  0  0  0
  6 13  1  1  0  0  0
  6 16  1  0  0  0  0
  7  1  1  0  0  0  0
  9  3  1  0  0  0  0
 10  3  1  0  0  0  0
 12  5  1  0  0  0  0
 15 23  1  0  0  0  0
 15 14  1  0  0  0  0
 16 15  2  0  0  0  0
 17 19  2  0  0  0  0
 17 16  1  0  0  0  0
 18 17  1  0  0  0  0
 19 21  1  0  0  0  0
 20 19  1  0  0  0  0
 21 22  1  0  0  0  0
 21 23  2  0  0  0  0
 23 24  1  0  0  0  0
 25  2  1  0  0  0  0
 26 34  2  0  0  0  0
 26 27  1  0  0  0  0
 27 28  2  0  0  0  0
 28 29  1  0  0  0  0
 28 36  1  0  0  0  0
 29 30  1  0  0  0  0
 30 37  1  0  0  0  0
 31 30  1  0  0  0  0
 31 25  1  0  0  0  0
 32 31  2  0  0  0  0
 33 32  1  0  0  0  0
 33 29  2  0  0  0  0
 34 33  1  0  0  0  0
 35 26  1  0  0  0  0
 38 34  1  0  0  0  0
 39 45  1  0  0  0  0
 39 40  1  0  0  0  0
 40 46  1  0  0  0  0
 41 40  2  0  0  0  0
 41 27  1  0  0  0  0
 42 41  1  0  0  0  0
 43 44  1  0  0  0  0
 43 42  2  0  0  0  0
 44 39  2  0  0  0  0
 47 43  1  0  0  0  0
M  END
>  <minimizedAffinity>
-3.38593268

>  <minimizedRMSD>
10.2459126

$$$$
