
 OpenBabel03272502593D

 36 38  0  0  1  0  0  0  0  0999 V2000
   35.8840   29.7280   48.7400 N   0  0  0  0  0  0  0  0  0  0  0  0
   36.7700   28.9560   49.5800 C   0  0  0  0  0  0  0  0  0  0  0  0
   37.3060   29.5970   50.7860 C   0  0  0  0  0  0  0  0  0  0  0  0
   37.4240   31.0660   50.8070 C   0  0  0  0  0  0  0  0  0  0  0  0
   36.5280   31.7720   49.8360 C   0  0  0  0  0  0  0  0  0  0  0  0
   36.5070   31.0220   48.4990 C   0  0  1  0  0  0  0  0  0  0  0  0
   37.6120   28.6390   48.9180 H   0  0  0  0  0  0  0  0  0  0  0  0
   36.2190   28.0090   49.8050 H   0  0  0  0  0  0  0  0  0  0  0  0
   38.3220   29.1650   50.9930 H   0  0  0  0  0  0  0  0  0  0  0  0
   36.6900   29.2550   51.6630 H   0  0  0  0  0  0  0  0  0  0  0  0
   37.1390   31.4660   51.8240 H   0  0  0  0  0  0  0  0  0  0  0  0
   38.4700   31.4440   50.6440 H   0  0  0  0  0  0  0  0  0  0  0  0
   36.8490   32.8160   49.6750 H   0  0  0  0  0  0  0  0  0  0  0  0
   35.4740   31.8230   50.1620 H   0  0  0  0  0  0  0  0  0  0  0  0
   35.9600   31.6190   47.7660 H   0  0  0  0  0  0  0  0  0  0  0  0
   34.6240   29.2870   48.2430 C   0  0  0  0  0  0  0  0  0  0  0  0
   34.0490   29.7290   47.0540 C   0  0  0  0  0  0  0  0  0  0  0  0
   32.8160   29.2220   46.6830 C   0  0  0  0  0  0  0  0  0  0  0  0
   32.2270   28.3140   47.5020 N   0  0  0  0  0  0  0  0  0  0  0  0
   32.8070   27.9120   48.6360 C   0  0  0  0  0  0  0  0  0  0  0  0
   34.0100   28.4000   49.0090 N   0  0  0  0  0  0  0  0  0  0  0  0
   34.5930   30.4540   46.4670 H   0  0  0  0  0  0  0  0  0  0  0  0
   32.3610   29.5580   45.7600 H   0  0  0  0  0  0  0  0  0  0  0  0
   32.2950   27.1750   49.2700 H   0  0  0  0  0  0  0  0  0  0  0  0
   37.8470   30.8730   48.1520 O   0  0  0  0  0  0  0  0  0  0  0  0
   37.5660   30.1950   45.3410 Cl  0  0  0  0  0  0  0  0  0  0  0  0
   38.4910   31.5130   46.0600 C   0  0  0  0  0  0  0  0  0  0  0  0
   38.5790   31.7780   47.4170 C   0  0  0  0  0  0  0  0  0  0  0  0
   39.3440   32.8460   47.8160 C   0  0  0  0  0  0  0  0  0  0  0  0
   39.3690   32.9940   48.8820 H   0  0  0  0  0  0  0  0  0  0  0  0
   40.0000   33.6280   46.8960 C   0  0  0  0  0  0  0  0  0  0  0  0
   40.5850   34.4520   47.2540 H   0  0  0  0  0  0  0  0  0  0  0  0
   39.9240   33.3820   45.5430 C   0  0  0  0  0  0  0  0  0  0  0  0
   40.4400   33.9980   44.8260 H   0  0  0  0  0  0  0  0  0  0  0  0
   39.1500   32.2970   45.1190 C   0  0  0  0  0  0  0  0  0  0  0  0
   39.0800   32.0200   43.3930 Cl  0  0  0  0  0  0  0  0  0  0  0  0
  1  2  1  0  0  0  0
  2  8  1  0  0  0  0
  2  3  1  0  0  0  0
  3  4  1  0  0  0  0
  3  9  1  0  0  0  0
  3 10  1  0  0  0  0
  4 11  1  0  0  0  0
  5 14  1  0  0  0  0
  5  4  1  0  0  0  0
  6 15  1  6  0  0  0
  6  1  1  0  0  0  0
  6  5  1  0  0  0  0
  7  2  1  0  0  0  0
 12  4  1  0  0  0  0
 13  5  1  0  0  0  0
 16  1  1  0  0  0  0
 16 21  1  0  0  0  0
 17 16  2  0  0  0  0
 18 17  1  0  0  0  0
 18 19  2  0  0  0  0
 19 20  1  0  0  0  0
 20 21  2  0  0  0  0
 20 24  1  0  0  0  0
 22 17  1  0  0  0  0
 23 18  1  0  0  0  0
 25  6  1  0  0  0  0
 26 27  1  0  0  0  0
 27 28  1  0  0  0  0
 28 29  2  0  0  0  0
 28 25  1  0  0  0  0
 29 30  1  0  0  0  0
 31 32  1  0  0  0  0
 31 29  1  0  0  0  0
 33 31  2  0  0  0  0
 34 33  1  0  0  0  0
 35 33  1  0  0  0  0
 35 27  2  0  0  0  0
 36 35  1  0  0  0  0
M  END
>  <minimizedAffinity>
-5.70344496

>  <minimizedRMSD>
1.20240033

$$$$
