
 OpenBabel03272502503D

 44 47  0  0  0  0  0  0  0  0999 V2000
   37.2870   28.2710   29.9340 Cl  0  0  0  0  0  0  0  0  0  0  0  0
   36.5960   29.0180   31.3350 C   0  0  0  0  0  0  0  0  0  0  0  0
   36.2780   28.2430   32.4250 C   0  0  0  0  0  0  0  0  0  0  0  0
   35.7280   28.8040   33.5550 C   0  0  0  0  0  0  0  0  0  0  0  0
   35.4750   30.1600   33.6360 C   0  0  0  0  0  0  0  0  0  0  0  0
   35.7890   30.9480   32.5530 C   0  0  0  0  0  0  0  0  0  0  0  0
   35.5100   32.6880   32.5460 Cl  0  0  0  0  0  0  0  0  0  0  0  0
   36.3380   30.3510   31.4400 C   0  0  0  0  0  0  0  0  0  0  0  0
   35.4590   28.2410   34.4410 H   0  0  0  0  0  0  0  0  0  0  0  0
   32.5650   29.8900   33.8910 Cl  0  0  0  0  0  0  0  0  0  0  0  0
   33.5510   30.7220   35.0960 C   0  0  0  0  0  0  0  0  0  0  0  0
   34.8920   30.7610   34.8300 C   0  0  0  0  0  0  0  0  0  0  0  0
   35.6870   31.4070   35.7590 C   0  0  0  0  0  0  0  0  0  0  0  0
   36.7430   31.4740   35.6120 H   0  0  0  0  0  0  0  0  0  0  0  0
   35.1050   31.9690   36.8840 C   0  0  0  0  0  0  0  0  0  0  0  0
   35.7780   32.4680   37.5880 H   0  0  0  0  0  0  0  0  0  0  0  0
   33.7520   31.8860   37.0760 C   0  0  0  0  0  0  0  0  0  0  0  0
   33.3670   32.3470   37.9770 H   0  0  0  0  0  0  0  0  0  0  0  0
   32.8970   31.2500   36.1810 C   0  0  0  0  0  0  0  0  0  0  0  0
   31.1900   31.1620   36.4520 Cl  0  0  0  0  0  0  0  0  0  0  0  0
   36.1630   24.7090   31.4490 C   0  0  0  0  0  0  0  0  0  0  0  0
   37.0260   24.1040   32.3540 C   0  0  0  0  0  0  0  0  0  0  0  0
   37.6360   24.9230   33.2900 C   0  0  0  0  0  0  0  0  0  0  0  0
   37.3750   26.2590   33.2870 N   0  0  0  0  0  0  0  0  0  0  0  0
   36.5270   26.8060   32.3860 C   0  0  0  0  0  0  0  0  0  0  0  0
   35.9320   26.0240   31.4790 N   0  0  0  0  0  0  0  0  0  0  0  0
   35.7180   24.0170   30.7450 H   0  0  0  0  0  0  0  0  0  0  0  0
   37.2780   23.0500   32.4120 H   0  0  0  0  0  0  0  0  0  0  0  0
   38.5700   24.4060   34.3010 C   0  0  0  0  0  0  0  0  0  0  0  0
   39.9320   24.3290   34.1200 C   0  0  0  0  0  0  0  0  0  0  0  0
   40.5360   23.8100   35.2260 N   0  0  0  0  0  0  0  0  0  0  0  0
   39.5590   23.5630   36.0950 C   0  0  0  0  0  0  0  0  0  0  0  0
   38.3900   23.9260   35.5230 N   0  0  0  0  0  0  0  0  0  0  0  0
   38.5530   23.4490   38.3080 C   0  0  0  0  0  0  0  0  0  0  0  0
   37.6920   24.2540   37.9390 O   0  0  0  0  0  0  0  0  0  0  0  0
   39.5810   23.0270   37.3980 N   0  0  0  0  0  0  0  0  0  0  0  0
   40.4830   24.6350   33.2260 H   0  0  0  0  0  0  0  0  0  0  0  0
   41.5480   23.6260   35.4000 H   0  0  0  0  0  0  0  0  0  0  0  0
   38.5440   23.0430   39.3470 H   0  0  0  0  0  0  0  0  0  0  0  0
   40.3010   22.3380   37.7460 H   0  0  0  0  0  0  0  0  0  0  0  0
   36.6760   31.2110   30.2670 C   0  0  0  0  0  0  0  0  0  0  0  0
   35.5730   31.9890   29.9080 F   0  0  0  0  0  0  0  0  0  0  0  0
   36.9160   30.4190   29.1320 F   0  0  0  0  0  0  0  0  0  0  0  0
   37.7970   31.9680   30.4670 F   0  0  0  0  0  0  0  0  0  0  0  0
  1  2  1  0  0  0  0
  2  8  2  0  0  0  0
  2  3  1  0  0  0  0
  3  4  2  0  0  0  0
  4  5  1  0  0  0  0
  4  9  1  0  0  0  0
  5 12  1  0  0  0  0
  6  5  2  0  0  0  0
  7  6  1  0  0  0  0
  8  6  1  0  0  0  0
 10 11  1  0  0  0  0
 11 19  1  0  0  0  0
 12 11  2  0  0  0  0
 12 13  1  0  0  0  0
 13 15  2  0  0  0  0
 14 13  1  0  0  0  0
 15 17  1  0  0  0  0
 15 16  1  0  0  0  0
 17 18  1  0  0  0  0
 19 20  1  0  0  0  0
 19 17  2  0  0  0  0
 21 26  2  0  0  0  0
 21 22  1  0  0  0  0
 22 28  1  0  0  0  0
 22 23  2  0  0  0  0
 23 29  1  0  0  0  0
 24 23  1  0  0  0  0
 25  3  1  0  0  0  0
 25 24  2  0  0  0  0
 26 25  1  0  0  0  0
 27 21  1  0  0  0  0
 29 33  1  0  0  0  0
 30 29  2  0  0  0  0
 30 31  1  0  0  0  0
 31 38  1  0  0  0  0
 31 32  1  0  0  0  0
 32 36  1  0  0  0  0
 33 32  2  0  0  0  0
 34 39  1  0  0  0  0
 35 34  2  0  0  0  0
 36 40  1  0  0  0  0
 36 34  1  0  0  0  0
 37 30  1  0  0  0  0
 41 44  1  0  0  0  0
 41  8  1  0  0  0  0
 42 41  1  0  0  0  0
 43 41  1  0  0  0  0
M  END
>  <minimizedAffinity>
-7.71895504

$$$$

 OpenBabel03272502503D

 44 47  0  0  0  0  0  0  0  0999 V2000
   37.8190   27.4910   30.9960 Cl  0  0  0  0  0  0  0  0  0  0  0  0
   36.9660   28.4150   32.1870 C   0  0  0  0  0  0  0  0  0  0  0  0
   36.8650   27.9320   33.4700 C   0  0  0  0  0  0  0  0  0  0  0  0
   36.1940   28.6410   34.4400 C   0  0  0  0  0  0  0  0  0  0  0  0
   35.6000   29.8570   34.1640 C   0  0  0  0  0  0  0  0  0  0  0  0
   35.6940   30.3530   32.8830 C   0  0  0  0  0  0  0  0  0  0  0  0
   34.9760   31.8930   32.4180 Cl  0  0  0  0  0  0  0  0  0  0  0  0
   36.3730   29.6150   31.9400 C   0  0  0  0  0  0  0  0  0  0  0  0
   36.0830   28.3080   35.4660 H   0  0  0  0  0  0  0  0  0  0  0  0
   32.7230   29.3130   34.3590 Cl  0  0  0  0  0  0  0  0  0  0  0  0
   33.5430   30.4750   35.4050 C   0  0  0  0  0  0  0  0  0  0  0  0
   34.8870   30.6140   35.1870 C   0  0  0  0  0  0  0  0  0  0  0  0
   35.5540   31.5170   35.9930 C   0  0  0  0  0  0  0  0  0  0  0  0
   36.6040   31.6740   35.8760 H   0  0  0  0  0  0  0  0  0  0  0  0
   34.8500   32.2220   36.9580 C   0  0  0  0  0  0  0  0  0  0  0  0
   35.4240   32.9240   37.5690 H   0  0  0  0  0  0  0  0  0  0  0  0
   33.5040   32.0250   37.1120 C   0  0  0  0  0  0  0  0  0  0  0  0
   33.0200   32.6080   37.8840 H   0  0  0  0  0  0  0  0  0  0  0  0
   32.7750   31.1310   36.3340 C   0  0  0  0  0  0  0  0  0  0  0  0
   31.0730   30.9040   36.5530 Cl  0  0  0  0  0  0  0  0  0  0  0  0
   38.8500   25.3580   35.1690 C   0  0  0  0  0  0  0  0  0  0  0  0
   38.6020   24.2190   34.4140 C   0  0  0  0  0  0  0  0  0  0  0  0
   37.7530   24.3530   33.3270 C   0  0  0  0  0  0  0  0  0  0  0  0
   37.2060   25.5690   33.0470 N   0  0  0  0  0  0  0  0  0  0  0  0
   37.4750   26.6510   33.8110 C   0  0  0  0  0  0  0  0  0  0  0  0
   38.2930   26.5320   34.8610 N   0  0  0  0  0  0  0  0  0  0  0  0
   39.5190   25.1880   36.0020 H   0  0  0  0  0  0  0  0  0  0  0  0
   39.0030   23.2240   34.5790 H   0  0  0  0  0  0  0  0  0  0  0  0
   37.4110   23.2250   32.4480 C   0  0  0  0  0  0  0  0  0  0  0  0
   38.0980   22.9140   31.2960 C   0  0  0  0  0  0  0  0  0  0  0  0
   37.5530   21.8210   30.6920 N   0  0  0  0  0  0  0  0  0  0  0  0
   36.5310   21.4490   31.4600 C   0  0  0  0  0  0  0  0  0  0  0  0
   36.4620   22.3020   32.5060 N   0  0  0  0  0  0  0  0  0  0  0  0
   35.0600   19.8450   32.5480 C   0  0  0  0  0  0  0  0  0  0  0  0
   35.4020   20.3000   33.6440 O   0  0  0  0  0  0  0  0  0  0  0  0
   35.6060   20.3930   31.3380 N   0  0  0  0  0  0  0  0  0  0  0  0
   38.9640   23.4480   30.8960 H   0  0  0  0  0  0  0  0  0  0  0  0
   37.8410   21.3400   29.8130 H   0  0  0  0  0  0  0  0  0  0  0  0
   34.3250   19.0070   32.4840 H   0  0  0  0  0  0  0  0  0  0  0  0
   35.2910   19.9810   30.4180 H   0  0  0  0  0  0  0  0  0  0  0  0
   36.4720   30.1580   30.5520 C   0  0  0  0  0  0  0  0  0  0  0  0
   36.4700   29.1130   29.6260 F   0  0  0  0  0  0  0  0  0  0  0  0
   37.7160   30.7810   30.3560 F   0  0  0  0  0  0  0  0  0  0  0  0
   35.5130   31.0920   30.2750 F   0  0  0  0  0  0  0  0  0  0  0  0
  1  2  1  0  0  0  0
  2  3  1  0  0  0  0
  3 25  1  0  0  0  0
  3  4  2  0  0  0  0
  4  9  1  0  0  0  0
  5  4  1  0  0  0  0
  5 12  1  0  0  0  0
  6  5  2  0  0  0  0
  7  6  1  0  0  0  0
  8  2  2  0  0  0  0
  8  6  1  0  0  0  0
 10 11  1  0  0  0  0
 11 19  1  0  0  0  0
 12 11  2  0  0  0  0
 12 13  1  0  0  0  0
 13 15  2  0  0  0  0
 14 13  1  0  0  0  0
 15 17  1  0  0  0  0
 15 16  1  0  0  0  0
 17 18  1  0  0  0  0
 19 20  1  0  0  0  0
 19 17  2  0  0  0  0
 21 27  1  0  0  0  0
 22 28  1  0  0  0  0
 22 21  2  0  0  0  0
 23 22  1  0  0  0  0
 24 23  2  0  0  0  0
 24 25  1  0  0  0  0
 25 26  2  0  0  0  0
 26 21  1  0  0  0  0
 29 33  1  0  0  0  0
 29 23  1  0  0  0  0
 30 29  2  0  0  0  0
 31 30  1  0  0  0  0
 31 32  1  0  0  0  0
 32 33  2  0  0  0  0
 34 35  2  0  0  0  0
 36 32  1  0  0  0  0
 36 34  1  0  0  0  0
 37 30  1  0  0  0  0
 38 31  1  0  0  0  0
 39 34  1  0  0  0  0
 40 36  1  0  0  0  0
 41  8  1  0  0  0  0
 42 41  1  0  0  0  0
 43 41  1  0  0  0  0
 44 41  1  0  0  0  0
M  END
>  <minimizedAffinity>
-7.58220339

$$$$

 OpenBabel03272502503D

 44 47  0  0  0  0  0  0  0  0999 V2000
   38.6690   28.4770   30.2230 Cl  0  0  0  0  0  0  0  0  0  0  0  0
   37.3330   28.8580   31.2580 C   0  0  0  0  0  0  0  0  0  0  0  0
   36.9930   27.9890   32.2670 C   0  0  0  0  0  0  0  0  0  0  0  0
   35.9380   28.2610   33.1080 C   0  0  0  0  0  0  0  0  0  0  0  0
   35.1830   29.4100   32.9690 C   0  0  0  0  0  0  0  0  0  0  0  0
   35.5120   30.2890   31.9620 C   0  0  0  0  0  0  0  0  0  0  0  0
   34.6200   31.7850   31.6930 Cl  0  0  0  0  0  0  0  0  0  0  0  0
   36.5750   29.9830   31.1420 C   0  0  0  0  0  0  0  0  0  0  0  0
   35.6260   27.6130   33.9190 H   0  0  0  0  0  0  0  0  0  0  0  0
   35.8450   30.9840   35.3560 Cl  0  0  0  0  0  0  0  0  0  0  0  0
   34.2060   30.4270   35.0090 C   0  0  0  0  0  0  0  0  0  0  0  0
   34.0630   29.7050   33.8560 C   0  0  0  0  0  0  0  0  0  0  0  0
   32.7890   29.2570   33.5600 C   0  0  0  0  0  0  0  0  0  0  0  0
   32.6080   28.6880   32.6750 H   0  0  0  0  0  0  0  0  0  0  0  0
   31.7440   29.5530   34.4220 C   0  0  0  0  0  0  0  0  0  0  0  0
   30.7560   29.1760   34.1430 H   0  0  0  0  0  0  0  0  0  0  0  0
   31.9710   30.2830   35.5580 C   0  0  0  0  0  0  0  0  0  0  0  0
   31.1090   30.4760   36.1840 H   0  0  0  0  0  0  0  0  0  0  0  0
   33.2280   30.7620   35.9120 C   0  0  0  0  0  0  0  0  0  0  0  0
   33.4830   31.6820   37.3560 Cl  0  0  0  0  0  0  0  0  0  0  0  0
   39.0920   25.0550   31.6070 C   0  0  0  0  0  0  0  0  0  0  0  0
   39.1930   24.4510   32.8540 C   0  0  0  0  0  0  0  0  0  0  0  0
   38.5330   25.0650   33.9070 C   0  0  0  0  0  0  0  0  0  0  0  0
   37.8300   26.2090   33.6860 N   0  0  0  0  0  0  0  0  0  0  0  0
   37.7600   26.7620   32.4540 C   0  0  0  0  0  0  0  0  0  0  0  0
   38.3920   26.1780   31.4300 N   0  0  0  0  0  0  0  0  0  0  0  0
   39.6270   24.5290   30.8260 H   0  0  0  0  0  0  0  0  0  0  0  0
   39.7330   23.5430   33.0990 H   0  0  0  0  0  0  0  0  0  0  0  0
   38.5610   24.5270   35.2750 C   0  0  0  0  0  0  0  0  0  0  0  0
   37.5310   24.6730   36.1780 C   0  0  0  0  0  0  0  0  0  0  0  0
   37.8400   24.0720   37.3610 N   0  0  0  0  0  0  0  0  0  0  0  0
   39.0550   23.5520   37.2020 C   0  0  0  0  0  0  0  0  0  0  0  0
   39.4690   23.8350   35.9470 N   0  0  0  0  0  0  0  0  0  0  0  0
   40.7910   21.8730   37.5000 C   0  0  0  0  0  0  0  0  0  0  0  0
   40.8310   21.7210   36.2750 O   0  0  0  0  0  0  0  0  0  0  0  0
   39.8810   22.8220   38.0790 N   0  0  0  0  0  0  0  0  0  0  0  0
   36.5860   25.1920   36.0010 H   0  0  0  0  0  0  0  0  0  0  0  0
   37.2750   24.0070   38.2360 H   0  0  0  0  0  0  0  0  0  0  0  0
   41.4580   21.2790   38.1690 H   0  0  0  0  0  0  0  0  0  0  0  0
   39.8740   22.9260   39.1290 H   0  0  0  0  0  0  0  0  0  0  0  0
   36.9270   30.9400   30.0510 C   0  0  0  0  0  0  0  0  0  0  0  0
   35.8450   31.7770   29.7780 F   0  0  0  0  0  0  0  0  0  0  0  0
   37.1370   30.2520   28.8450 F   0  0  0  0  0  0  0  0  0  0  0  0
   38.0710   31.6450   30.3090 F   0  0  0  0  0  0  0  0  0  0  0  0
  1  2  1  0  0  0  0
  2  3  1  0  0  0  0
  3 25  1  0  0  0  0
  3  4  2  0  0  0  0
  4  9  1  0  0  0  0
  5  4  1  0  0  0  0
  5 12  1  0  0  0  0
  6  5  2  0  0  0  0
  7  6  1  0  0  0  0
  8  2  2  0  0  0  0
  8  6  1  0  0  0  0
 11 10  1  0  0  0  0
 11 19  1  0  0  0  0
 12 11  2  0  0  0  0
 13 12  1  0  0  0  0
 13 15  2  0  0  0  0
 14 13  1  0  0  0  0
 15 17  1  0  0  0  0
 16 15  1  0  0  0  0
 17 19  2  0  0  0  0
 17 18  1  0  0  0  0
 19 20  1  0  0  0  0
 21 22  1  0  0  0  0
 22 28  1  0  0  0  0
 22 23  2  0  0  0  0
 23 29  1  0  0  0  0
 24 23  1  0  0  0  0
 25 24  2  0  0  0  0
 26 21  2  0  0  0  0
 26 25  1  0  0  0  0
 27 21  1  0  0  0  0
 29 33  1  0  0  0  0
 29 30  2  0  0  0  0
 30 31  1  0  0  0  0
 31 38  1  0  0  0  0
 32 31  1  0  0  0  0
 32 36  1  0  0  0  0
 33 32  2  0  0  0  0
 34 36  1  0  0  0  0
 34 39  1  0  0  0  0
 35 34  2  0  0  0  0
 36 40  1  0  0  0  0
 37 30  1  0  0  0  0
 41 44  1  0  0  0  0
 41  8  1  0  0  0  0
 42 41  1  0  0  0  0
 43 41  1  0  0  0  0
M  END
>  <minimizedAffinity>
-7.20448589

$$$$

 OpenBabel03272502503D

 44 47  0  0  0  0  0  0  0  0999 V2000
   34.8570   24.8950   30.6280 Cl  0  0  0  0  0  0  0  0  0  0  0  0
   36.2200   24.5100   31.6250 C   0  0  0  0  0  0  0  0  0  0  0  0
   37.0290   25.5230   32.0810 C   0  0  0  0  0  0  0  0  0  0  0  0
   38.1200   25.2520   32.8750 C   0  0  0  0  0  0  0  0  0  0  0  0
   38.4420   23.9590   33.2420 C   0  0  0  0  0  0  0  0  0  0  0  0
   37.6400   22.9360   32.7920 C   0  0  0  0  0  0  0  0  0  0  0  0
   37.9550   21.2500   33.1970 Cl  0  0  0  0  0  0  0  0  0  0  0  0
   36.5570   23.2460   32.0000 C   0  0  0  0  0  0  0  0  0  0  0  0
   38.7910   26.0110   33.2620 H   0  0  0  0  0  0  0  0  0  0  0  0
   37.8520   23.5170   36.0820 Cl  0  0  0  0  0  0  0  0  0  0  0  0
   39.4900   23.4340   35.4280 C   0  0  0  0  0  0  0  0  0  0  0  0
   39.5970   23.6650   34.0830 C   0  0  0  0  0  0  0  0  0  0  0  0
   40.8680   23.6060   33.5450 C   0  0  0  0  0  0  0  0  0  0  0  0
   41.0220   23.7760   32.5020 H   0  0  0  0  0  0  0  0  0  0  0  0
   41.9470   23.3240   34.3690 C   0  0  0  0  0  0  0  0  0  0  0  0
   42.9320   23.2890   33.8950 H   0  0  0  0  0  0  0  0  0  0  0  0
   41.7550   23.1050   35.7070 C   0  0  0  0  0  0  0  0  0  0  0  0
   42.6410   22.8900   36.2890 H   0  0  0  0  0  0  0  0  0  0  0  0
   40.5010   23.1500   36.3100 C   0  0  0  0  0  0  0  0  0  0  0  0
   40.2910   22.8690   38.0050 Cl  0  0  0  0  0  0  0  0  0  0  0  0
   36.9460   28.7170   30.2790 C   0  0  0  0  0  0  0  0  0  0  0  0
   36.1400   29.5120   31.0840 C   0  0  0  0  0  0  0  0  0  0  0  0
   35.6360   28.9360   32.2390 C   0  0  0  0  0  0  0  0  0  0  0  0
   35.9410   27.6420   32.5350 N   0  0  0  0  0  0  0  0  0  0  0  0
   36.7300   26.9050   31.7210 C   0  0  0  0  0  0  0  0  0  0  0  0
   37.2220   27.4510   30.6040 N   0  0  0  0  0  0  0  0  0  0  0  0
   37.3080   29.2230   29.3940 H   0  0  0  0  0  0  0  0  0  0  0  0
   35.8580   30.5450   30.9090 H   0  0  0  0  0  0  0  0  0  0  0  0
   34.7720   29.6700   33.1740 C   0  0  0  0  0  0  0  0  0  0  0  0
   33.4200   29.4440   33.3090 C   0  0  0  0  0  0  0  0  0  0  0  0
   32.8850   30.2730   34.2490 N   0  0  0  0  0  0  0  0  0  0  0  0
   33.8940   31.0140   34.7010 C   0  0  0  0  0  0  0  0  0  0  0  0
   35.0150   30.6380   34.0460 N   0  0  0  0  0  0  0  0  0  0  0  0
   35.1700   32.2010   36.4000 C   0  0  0  0  0  0  0  0  0  0  0  0
   36.1340   31.4650   36.1650 O   0  0  0  0  0  0  0  0  0  0  0  0
   33.9430   32.0340   35.6730 N   0  0  0  0  0  0  0  0  0  0  0  0
   32.8300   28.7100   32.7550 H   0  0  0  0  0  0  0  0  0  0  0  0
   31.8980   30.3480   34.5790 H   0  0  0  0  0  0  0  0  0  0  0  0
   35.2390   32.9990   37.1760 H   0  0  0  0  0  0  0  0  0  0  0  0
   33.1390   32.6790   35.8990 H   0  0  0  0  0  0  0  0  0  0  0  0
   35.6910   22.1310   31.5150 C   0  0  0  0  0  0  0  0  0  0  0  0
   36.4740   21.1290   30.9380 F   0  0  0  0  0  0  0  0  0  0  0  0
   34.8720   22.5690   30.4620 F   0  0  0  0  0  0  0  0  0  0  0  0
   34.8610   21.6400   32.4850 F   0  0  0  0  0  0  0  0  0  0  0  0
  1  2  1  0  0  0  0
  2  8  2  0  0  0  0
  2  3  1  0  0  0  0
  3  4  2  0  0  0  0
  4  5  1  0  0  0  0
  4  9  1  0  0  0  0
  5 12  1  0  0  0  0
  6  7  1  0  0  0  0
  6  5  2  0  0  0  0
  8  6  1  0  0  0  0
 11 10  1  0  0  0  0
 11 19  1  0  0  0  0
 12 11  2  0  0  0  0
 13 12  1  0  0  0  0
 13 15  2  0  0  0  0
 14 13  1  0  0  0  0
 15 17  1  0  0  0  0
 16 15  1  0  0  0  0
 17 18  1  0  0  0  0
 17 19  2  0  0  0  0
 19 20  1  0  0  0  0
 21 26  2  0  0  0  0
 21 22  1  0  0  0  0
 22 23  2  0  0  0  0
 23 24  1  0  0  0  0
 23 29  1  0  0  0  0
 25  3  1  0  0  0  0
 25 24  2  0  0  0  0
 26 25  1  0  0  0  0
 27 21  1  0  0  0  0
 28 22  1  0  0  0  0
 29 30  2  0  0  0  0
 29 33  1  0  0  0  0
 30 31  1  0  0  0  0
 31 38  1  0  0  0  0
 31 32  1  0  0  0  0
 32 36  1  0  0  0  0
 33 32  2  0  0  0  0
 34 39  1  0  0  0  0
 35 34  2  0  0  0  0
 36 40  1  0  0  0  0
 36 34  1  0  0  0  0
 37 30  1  0  0  0  0
 41  8  1  0  0  0  0
 41 44  1  0  0  0  0
 42 41  1  0  0  0  0
 43 41  1  0  0  0  0
M  END
>  <minimizedAffinity>
-7.15004683

$$$$

 OpenBabel03272502503D

 44 47  0  0  0  0  0  0  0  0999 V2000
   36.0110   32.8350   32.2080 Cl  0  0  0  0  0  0  0  0  0  0  0  0
   36.1480   31.1200   32.0040 C   0  0  0  0  0  0  0  0  0  0  0  0
   35.8150   30.2890   33.0460 C   0  0  0  0  0  0  0  0  0  0  0  0
   35.9130   28.9220   32.9180 C   0  0  0  0  0  0  0  0  0  0  0  0
   36.3460   28.3370   31.7440 C   0  0  0  0  0  0  0  0  0  0  0  0
   36.6820   29.1580   30.6920 C   0  0  0  0  0  0  0  0  0  0  0  0
   37.2460   28.5220   29.1480 Cl  0  0  0  0  0  0  0  0  0  0  0  0
   36.5710   30.5200   30.8570 C   0  0  0  0  0  0  0  0  0  0  0  0
   35.6640   28.2200   33.7060 H   0  0  0  0  0  0  0  0  0  0  0  0
   38.9180   27.1750   32.5460 Cl  0  0  0  0  0  0  0  0  0  0  0  0
   37.5840   26.1960   31.9310 C   0  0  0  0  0  0  0  0  0  0  0  0
   36.4520   26.8890   31.6010 C   0  0  0  0  0  0  0  0  0  0  0  0
   35.3910   26.1460   31.1170 C   0  0  0  0  0  0  0  0  0  0  0  0
   34.4770   26.6250   30.8400 H   0  0  0  0  0  0  0  0  0  0  0  0
   35.5210   24.7710   30.9930 C   0  0  0  0  0  0  0  0  0  0  0  0
   34.6530   24.2290   30.6050 H   0  0  0  0  0  0  0  0  0  0  0  0
   36.6900   24.1530   31.3460 C   0  0  0  0  0  0  0  0  0  0  0  0
   36.7200   23.0780   31.2220 H   0  0  0  0  0  0  0  0  0  0  0  0
   37.7930   24.8430   31.8390 C   0  0  0  0  0  0  0  0  0  0  0  0
   39.2590   24.0320   32.2770 Cl  0  0  0  0  0  0  0  0  0  0  0  0
   35.6810   32.2360   36.1510 C   0  0  0  0  0  0  0  0  0  0  0  0
   34.4380   31.9070   36.6770 C   0  0  0  0  0  0  0  0  0  0  0  0
   33.6620   31.0160   35.9530 C   0  0  0  0  0  0  0  0  0  0  0  0
   34.1350   30.5100   34.7810 N   0  0  0  0  0  0  0  0  0  0  0  0
   35.3530   30.8590   34.3070 C   0  0  0  0  0  0  0  0  0  0  0  0
   36.1090   31.7180   34.9980 N   0  0  0  0  0  0  0  0  0  0  0  0
   36.2390   32.9350   36.7620 H   0  0  0  0  0  0  0  0  0  0  0  0
   34.0010   32.2720   37.6010 H   0  0  0  0  0  0  0  0  0  0  0  0
   32.3290   30.5870   36.4000 C   0  0  0  0  0  0  0  0  0  0  0  0
   31.2000   31.3700   36.3070 C   0  0  0  0  0  0  0  0  0  0  0  0
   30.1150   30.7080   36.8000 N   0  0  0  0  0  0  0  0  0  0  0  0
   30.5600   29.5190   37.1990 C   0  0  0  0  0  0  0  0  0  0  0  0
   31.8870   29.4660   36.9520 N   0  0  0  0  0  0  0  0  0  0  0  0
   30.4270   27.1120   37.5290 C   0  0  0  0  0  0  0  0  0  0  0  0
   31.4270   26.9760   36.8160 O   0  0  0  0  0  0  0  0  0  0  0  0
   29.8990   28.4220   37.7870 N   0  0  0  0  0  0  0  0  0  0  0  0
   31.1470   32.3820   35.8990 H   0  0  0  0  0  0  0  0  0  0  0  0
   29.1240   31.0260   36.8700 H   0  0  0  0  0  0  0  0  0  0  0  0
   29.9250   26.2240   37.9800 H   0  0  0  0  0  0  0  0  0  0  0  0
   29.0430   28.5020   38.4000 H   0  0  0  0  0  0  0  0  0  0  0  0
   36.9380   31.4060   29.7130 C   0  0  0  0  0  0  0  0  0  0  0  0
   38.1260   32.0840   29.9900 F   0  0  0  0  0  0  0  0  0  0  0  0
   35.9900   32.4320   29.5640 F   0  0  0  0  0  0  0  0  0  0  0  0
   36.9920   30.7400   28.5200 F   0  0  0  0  0  0  0  0  0  0  0  0
  2  1  1  0  0  0  0
  2  3  1  0  0  0  0
  3 25  1  0  0  0  0
  4  3  2  0  0  0  0
  4  9  1  0  0  0  0
  5  4  1  0  0  0  0
  6  8  1  0  0  0  0
  6  5  2  0  0  0  0
  7  6  1  0  0  0  0
  8  2  2  0  0  0  0
 11 10  1  0  0  0  0
 12  5  1  0  0  0  0
 12 11  2  0  0  0  0
 13 12  1  0  0  0  0
 14 13  1  0  0  0  0
 15 13  2  0  0  0  0
 15 17  1  0  0  0  0
 16 15  1  0  0  0  0
 17 19  2  0  0  0  0
 18 17  1  0  0  0  0
 19 11  1  0  0  0  0
 19 20  1  0  0  0  0
 21 22  1  0  0  0  0
 21 27  1  0  0  0  0
 22 28  1  0  0  0  0
 23 29  1  0  0  0  0
 23 22  2  0  0  0  0
 24 23  1  0  0  0  0
 25 24  2  0  0  0  0
 25 26  1  0  0  0  0
 26 21  2  0  0  0  0
 29 33  1  0  0  0  0
 30 29  2  0  0  0  0
 30 31  1  0  0  0  0
 31 38  1  0  0  0  0
 31 32  1  0  0  0  0
 32 36  1  0  0  0  0
 33 32  2  0  0  0  0
 34 36  1  0  0  0  0
 34 39  1  0  0  0  0
 35 34  2  0  0  0  0
 36 40  1  0  0  0  0
 37 30  1  0  0  0  0
 41 42  1  0  0  0  0
 41  8  1  0  0  0  0
 43 41  1  0  0  0  0
 44 41  1  0  0  0  0
M  END
>  <minimizedAffinity>
-7.05852509

$$$$

 OpenBabel03272502503D

 44 47  0  0  0  0  0  0  0  0999 V2000
   39.0670   27.1920   33.9490 Cl  0  0  0  0  0  0  0  0  0  0  0  0
   38.3760   25.6860   33.4440 C   0  0  0  0  0  0  0  0  0  0  0  0
   37.3900   25.6840   32.4870 C   0  0  0  0  0  0  0  0  0  0  0  0
   36.8200   24.5050   32.0640 C   0  0  0  0  0  0  0  0  0  0  0  0
   37.2140   23.2860   32.5820 C   0  0  0  0  0  0  0  0  0  0  0  0
   38.2010   23.2740   33.5410 C   0  0  0  0  0  0  0  0  0  0  0  0
   38.7830   21.7790   34.2700 Cl  0  0  0  0  0  0  0  0  0  0  0  0
   38.7480   24.4730   33.9390 C   0  0  0  0  0  0  0  0  0  0  0  0
   36.0390   24.4440   31.3140 H   0  0  0  0  0  0  0  0  0  0  0  0
   38.5160   22.0100   30.2830 Cl  0  0  0  0  0  0  0  0  0  0  0  0
   37.1020   21.3150   31.0800 C   0  0  0  0  0  0  0  0  0  0  0  0
   36.6140   22.0330   32.1380 C   0  0  0  0  0  0  0  0  0  0  0  0
   35.5070   21.5110   32.7810 C   0  0  0  0  0  0  0  0  0  0  0  0
   35.0760   22.0210   33.6140 H   0  0  0  0  0  0  0  0  0  0  0  0
   34.9590   20.3170   32.3360 C   0  0  0  0  0  0  0  0  0  0  0  0
   34.0840   19.9470   32.8790 H   0  0  0  0  0  0  0  0  0  0  0  0
   35.5080   19.6600   31.2690 C   0  0  0  0  0  0  0  0  0  0  0  0
   35.0280   18.7350   30.9770 H   0  0  0  0  0  0  0  0  0  0  0  0
   36.6210   20.1320   30.5790 C   0  0  0  0  0  0  0  0  0  0  0  0
   37.2930   19.2780   29.2320 Cl  0  0  0  0  0  0  0  0  0  0  0  0
   36.8900   28.4690   30.1550 C   0  0  0  0  0  0  0  0  0  0  0  0
   36.0650   29.3320   30.8650 C   0  0  0  0  0  0  0  0  0  0  0  0
   35.6930   28.9420   32.1420 C   0  0  0  0  0  0  0  0  0  0  0  0
   36.1380   27.7550   32.6390 N   0  0  0  0  0  0  0  0  0  0  0  0
   36.9390   26.9460   31.9100 C   0  0  0  0  0  0  0  0  0  0  0  0
   37.3050   27.3130   30.6780 N   0  0  0  0  0  0  0  0  0  0  0  0
   37.1450   28.8300   29.1670 H   0  0  0  0  0  0  0  0  0  0  0  0
   35.6770   30.2880   30.5320 H   0  0  0  0  0  0  0  0  0  0  0  0
   34.8250   29.7650   32.9970 C   0  0  0  0  0  0  0  0  0  0  0  0
   33.4500   29.7010   32.9800 C   0  0  0  0  0  0  0  0  0  0  0  0
   32.9170   30.5780   33.8780 N   0  0  0  0  0  0  0  0  0  0  0  0
   33.9510   31.1870   34.4530 C   0  0  0  0  0  0  0  0  0  0  0  0
   35.0840   30.6870   33.9120 N   0  0  0  0  0  0  0  0  0  0  0  0
   35.1650   32.1930   36.3060 C   0  0  0  0  0  0  0  0  0  0  0  0
   36.0560   31.3500   36.1580 O   0  0  0  0  0  0  0  0  0  0  0  0
   34.0140   32.1830   35.4480 N   0  0  0  0  0  0  0  0  0  0  0  0
   32.8400   29.0490   32.3490 H   0  0  0  0  0  0  0  0  0  0  0  0
   31.9160   30.7670   34.1020 H   0  0  0  0  0  0  0  0  0  0  0  0
   35.2440   32.9700   37.1040 H   0  0  0  0  0  0  0  0  0  0  0  0
   33.2720   32.9180   35.6020 H   0  0  0  0  0  0  0  0  0  0  0  0
   39.8180   24.4540   34.9800 C   0  0  0  0  0  0  0  0  0  0  0  0
   39.2790   24.1000   36.2180 F   0  0  0  0  0  0  0  0  0  0  0  0
   40.3230   25.7480   35.1880 F   0  0  0  0  0  0  0  0  0  0  0  0
   40.8810   23.6640   34.6370 F   0  0  0  0  0  0  0  0  0  0  0  0
  2  8  1  0  0  0  0
  2  1  1  0  0  0  0
  3  2  2  0  0  0  0
  4  3  1  0  0  0  0
  4  5  2  0  0  0  0
  5  6  1  0  0  0  0
  6  8  2  0  0  0  0
  6  7  1  0  0  0  0
  8 41  1  0  0  0  0
  9  4  1  0  0  0  0
 10 11  1  0  0  0  0
 11 12  1  0  0  0  0
 12  5  1  0  0  0  0
 12 13  2  0  0  0  0
 13 14  1  0  0  0  0
 15 13  1  0  0  0  0
 15 16  1  0  0  0  0
 17 15  2  0  0  0  0
 18 17  1  0  0  0  0
 19 11  2  0  0  0  0
 19 17  1  0  0  0  0
 20 19  1  0  0  0  0
 21 26  2  0  0  0  0
 21 22  1  0  0  0  0
 22 23  2  0  0  0  0
 23 24  1  0  0  0  0
 23 29  1  0  0  0  0
 25  3  1  0  0  0  0
 25 24  2  0  0  0  0
 26 25  1  0  0  0  0
 27 21  1  0  0  0  0
 28 22  1  0  0  0  0
 29 33  1  0  0  0  0
 30 29  2  0  0  0  0
 30 31  1  0  0  0  0
 31 38  1  0  0  0  0
 31 32  1  0  0  0  0
 32 36  1  0  0  0  0
 33 32  2  0  0  0  0
 34 39  1  0  0  0  0
 35 34  2  0  0  0  0
 36 40  1  0  0  0  0
 36 34  1  0  0  0  0
 37 30  1  0  0  0  0
 41 43  1  0  0  0  0
 41 42  1  0  0  0  0
 44 41  1  0  0  0  0
M  END
>  <minimizedAffinity>
-7.04707289

$$$$

 OpenBabel03272502503D

 44 47  0  0  0  0  0  0  0  0999 V2000
   37.5520   28.5110   30.2110 Cl  0  0  0  0  0  0  0  0  0  0  0  0
   36.7490   29.1970   31.5840 C   0  0  0  0  0  0  0  0  0  0  0  0
   36.5740   28.4330   32.7130 C   0  0  0  0  0  0  0  0  0  0  0  0
   35.9400   28.9470   33.8220 C   0  0  0  0  0  0  0  0  0  0  0  0
   35.4590   30.2420   33.8420 C   0  0  0  0  0  0  0  0  0  0  0  0
   35.6280   31.0180   32.7180 C   0  0  0  0  0  0  0  0  0  0  0  0
   35.0550   32.6820   32.6320 Cl  0  0  0  0  0  0  0  0  0  0  0  0
   36.2670   30.4690   31.6290 C   0  0  0  0  0  0  0  0  0  0  0  0
   35.7750   28.3910   34.7380 H   0  0  0  0  0  0  0  0  0  0  0  0
   32.6010   29.6160   34.0650 Cl  0  0  0  0  0  0  0  0  0  0  0  0
   33.4560   30.5920   35.2630 C   0  0  0  0  0  0  0  0  0  0  0  0
   34.7870   30.7930   35.0130 C   0  0  0  0  0  0  0  0  0  0  0  0
   35.4800   31.5540   35.9360 C   0  0  0  0  0  0  0  0  0  0  0  0
   36.5220   31.7490   35.8010 H   0  0  0  0  0  0  0  0  0  0  0  0
   34.8140   32.0640   37.0390 C   0  0  0  0  0  0  0  0  0  0  0  0
   35.4080   32.6600   37.7390 H   0  0  0  0  0  0  0  0  0  0  0  0
   33.4790   31.8170   37.2160 C   0  0  0  0  0  0  0  0  0  0  0  0
   33.0250   32.2460   38.1000 H   0  0  0  0  0  0  0  0  0  0  0  0
   32.7250   31.0590   36.3250 C   0  0  0  0  0  0  0  0  0  0  0  0
   31.0380   30.7640   36.5760 Cl  0  0  0  0  0  0  0  0  0  0  0  0
   36.8160   24.8070   32.2220 C   0  0  0  0  0  0  0  0  0  0  0  0
   38.0300   24.4880   32.8170 C   0  0  0  0  0  0  0  0  0  0  0  0
   38.7490   25.5290   33.3820 C   0  0  0  0  0  0  0  0  0  0  0  0
   38.2520   26.7960   33.3320 N   0  0  0  0  0  0  0  0  0  0  0  0
   37.0650   27.0590   32.7410 C   0  0  0  0  0  0  0  0  0  0  0  0
   36.3620   26.0620   32.1930 N   0  0  0  0  0  0  0  0  0  0  0  0
   36.3030   23.9520   31.8000 H   0  0  0  0  0  0  0  0  0  0  0  0
   38.4830   23.5050   32.8920 H   0  0  0  0  0  0  0  0  0  0  0  0
   40.0470   25.3240   34.0420 C   0  0  0  0  0  0  0  0  0  0  0  0
   40.3620   24.2090   34.7840 C   0  0  0  0  0  0  0  0  0  0  0  0
   41.6320   24.2990   35.2720 N   0  0  0  0  0  0  0  0  0  0  0  0
   42.1090   25.4640   34.8390 C   0  0  0  0  0  0  0  0  0  0  0  0
   41.1460   26.0620   34.1050 N   0  0  0  0  0  0  0  0  0  0  0  0
   43.8260   26.9630   33.9870 C   0  0  0  0  0  0  0  0  0  0  0  0
   43.1410   27.1440   32.9740 O   0  0  0  0  0  0  0  0  0  0  0  0
   43.3570   26.0900   35.0270 N   0  0  0  0  0  0  0  0  0  0  0  0
   39.7100   23.3520   34.9730 H   0  0  0  0  0  0  0  0  0  0  0  0
   42.1610   23.6230   35.8650 H   0  0  0  0  0  0  0  0  0  0  0  0
   44.8100   27.4730   34.1070 H   0  0  0  0  0  0  0  0  0  0  0  0
   43.9670   25.9590   35.8780 H   0  0  0  0  0  0  0  0  0  0  0  0
   36.4480   31.3150   30.4120 C   0  0  0  0  0  0  0  0  0  0  0  0
   35.2520   31.9620   30.0940 F   0  0  0  0  0  0  0  0  0  0  0  0
   36.7060   30.5120   29.2900 F   0  0  0  0  0  0  0  0  0  0  0  0
   37.4930   32.1910   30.5220 F   0  0  0  0  0  0  0  0  0  0  0  0
  1  2  1  0  0  0  0
  2  8  2  0  0  0  0
  2  3  1  0  0  0  0
  3 25  1  0  0  0  0
  3  4  2  0  0  0  0
  4  5  1  0  0  0  0
  4  9  1  0  0  0  0
  5 12  1  0  0  0  0
  6  5  2  0  0  0  0
  7  6  1  0  0  0  0
  8  6  1  0  0  0  0
 10 11  1  0  0  0  0
 11 19  1  0  0  0  0
 12 11  2  0  0  0  0
 12 13  1  0  0  0  0
 13 15  2  0  0  0  0
 14 13  1  0  0  0  0
 15 17  1  0  0  0  0
 15 16  1  0  0  0  0
 17 18  1  0  0  0  0
 19 20  1  0  0  0  0
 19 17  2  0  0  0  0
 21 22  1  0  0  0  0
 22 28  1  0  0  0  0
 22 23  2  0  0  0  0
 23 29  1  0  0  0  0
 24 23  1  0  0  0  0
 25 24  2  0  0  0  0
 26 21  2  0  0  0  0
 26 25  1  0  0  0  0
 27 21  1  0  0  0  0
 29 33  1  0  0  0  0
 29 30  2  0  0  0  0
 30 37  1  0  0  0  0
 30 31  1  0  0  0  0
 31 38  1  0  0  0  0
 32 36  1  0  0  0  0
 32 31  1  0  0  0  0
 33 32  2  0  0  0  0
 34 39  1  0  0  0  0
 34 36  1  0  0  0  0
 35 34  2  0  0  0  0
 36 40  1  0  0  0  0
 41 44  1  0  0  0  0
 41  8  1  0  0  0  0
 42 41  1  0  0  0  0
 43 41  1  0  0  0  0
M  END
>  <minimizedAffinity>
-7.04261112

$$$$

 OpenBabel03272502503D

 44 47  0  0  0  0  0  0  0  0999 V2000
   34.8790   25.2530   30.8670 Cl  0  0  0  0  0  0  0  0  0  0  0  0
   36.2620   24.7800   31.7960 C   0  0  0  0  0  0  0  0  0  0  0  0
   37.0790   25.7490   32.3290 C   0  0  0  0  0  0  0  0  0  0  0  0
   38.1860   25.4080   33.0730 C   0  0  0  0  0  0  0  0  0  0  0  0
   38.5160   24.0880   33.3110 C   0  0  0  0  0  0  0  0  0  0  0  0
   37.7060   23.1080   32.7840 C   0  0  0  0  0  0  0  0  0  0  0  0
   38.0310   21.3920   33.0240 Cl  0  0  0  0  0  0  0  0  0  0  0  0
   36.6080   23.4870   32.0450 C   0  0  0  0  0  0  0  0  0  0  0  0
   38.8640   26.1290   33.5150 H   0  0  0  0  0  0  0  0  0  0  0  0
   37.9960   23.4710   36.1320 Cl  0  0  0  0  0  0  0  0  0  0  0  0
   39.6130   23.4030   35.4270 C   0  0  0  0  0  0  0  0  0  0  0  0
   39.6870   23.7200   34.0980 C   0  0  0  0  0  0  0  0  0  0  0  0
   40.9430   23.6740   33.5210 C   0  0  0  0  0  0  0  0  0  0  0  0
   41.0710   23.9090   32.4870 H   0  0  0  0  0  0  0  0  0  0  0  0
   42.0380   23.3210   34.2950 C   0  0  0  0  0  0  0  0  0  0  0  0
   43.0090   23.3000   33.7910 H   0  0  0  0  0  0  0  0  0  0  0  0
   41.8780   23.0180   35.6200 C   0  0  0  0  0  0  0  0  0  0  0  0
   42.7760   22.7510   36.1620 H   0  0  0  0  0  0  0  0  0  0  0  0
   40.6430   23.0450   36.2600 C   0  0  0  0  0  0  0  0  0  0  0  0
   40.4730   22.6580   37.9390 Cl  0  0  0  0  0  0  0  0  0  0  0  0
   36.8780   29.0710   30.7890 C   0  0  0  0  0  0  0  0  0  0  0  0
   36.1690   29.8110   31.7270 C   0  0  0  0  0  0  0  0  0  0  0  0
   35.7700   29.1540   32.8800 C   0  0  0  0  0  0  0  0  0  0  0  0
   36.0790   27.8380   33.0460 N   0  0  0  0  0  0  0  0  0  0  0  0
   36.7710   27.1570   32.1050 C   0  0  0  0  0  0  0  0  0  0  0  0
   37.1620   27.7820   30.9890 N   0  0  0  0  0  0  0  0  0  0  0  0
   37.1610   29.6400   29.9130 H   0  0  0  0  0  0  0  0  0  0  0  0
   35.8910   30.8580   31.6590 H   0  0  0  0  0  0  0  0  0  0  0  0
   35.0150   29.8240   33.9490 C   0  0  0  0  0  0  0  0  0  0  0  0
   35.5020   30.8800   34.6860 C   0  0  0  0  0  0  0  0  0  0  0  0
   34.5810   31.2920   35.6020 N   0  0  0  0  0  0  0  0  0  0  0  0
   33.5240   30.4990   35.4400 C   0  0  0  0  0  0  0  0  0  0  0  0
   33.8030   29.6280   34.4470 N   0  0  0  0  0  0  0  0  0  0  0  0
   31.1470   29.9850   35.3550 C   0  0  0  0  0  0  0  0  0  0  0  0
   31.2820   29.6380   34.1770 O   0  0  0  0  0  0  0  0  0  0  0  0
   32.2800   30.4540   36.1020 N   0  0  0  0  0  0  0  0  0  0  0  0
   36.4840   31.3470   34.5760 H   0  0  0  0  0  0  0  0  0  0  0  0
   34.6460   32.0620   36.3030 H   0  0  0  0  0  0  0  0  0  0  0  0
   30.1490   29.9370   35.8510 H   0  0  0  0  0  0  0  0  0  0  0  0
   32.1290   30.7420   37.1060 H   0  0  0  0  0  0  0  0  0  0  0  0
   35.7330   22.4200   31.4760 C   0  0  0  0  0  0  0  0  0  0  0  0
   36.5050   21.4790   30.7910 F   0  0  0  0  0  0  0  0  0  0  0  0
   34.8910   22.9520   30.4860 F   0  0  0  0  0  0  0  0  0  0  0  0
   34.9240   21.8370   32.4120 F   0  0  0  0  0  0  0  0  0  0  0  0
  1  2  1  0  0  0  0
  2  8  2  0  0  0  0
  2  3  1  0  0  0  0
  3  4  2  0  0  0  0
  4  5  1  0  0  0  0
  4  9  1  0  0  0  0
  5 12  1  0  0  0  0
  6  7  1  0  0  0  0
  6  5  2  0  0  0  0
  8  6  1  0  0  0  0
 11 10  1  0  0  0  0
 11 19  1  0  0  0  0
 12 11  2  0  0  0  0
 13 12  1  0  0  0  0
 13 15  2  0  0  0  0
 14 13  1  0  0  0  0
 15 17  1  0  0  0  0
 16 15  1  0  0  0  0
 17 18  1  0  0  0  0
 17 19  2  0  0  0  0
 19 20  1  0  0  0  0
 21 26  2  0  0  0  0
 21 22  1  0  0  0  0
 22 23  2  0  0  0  0
 23 24  1  0  0  0  0
 23 29  1  0  0  0  0
 25  3  1  0  0  0  0
 25 24  2  0  0  0  0
 26 25  1  0  0  0  0
 27 21  1  0  0  0  0
 28 22  1  0  0  0  0
 29 33  1  0  0  0  0
 29 30  2  0  0  0  0
 30 31  1  0  0  0  0
 31 38  1  0  0  0  0
 32 31  1  0  0  0  0
 32 36  1  0  0  0  0
 33 32  2  0  0  0  0
 34 39  1  0  0  0  0
 34 36  1  0  0  0  0
 35 34  2  0  0  0  0
 36 40  1  0  0  0  0
 37 30  1  0  0  0  0
 41  8  1  0  0  0  0
 41 44  1  0  0  0  0
 42 41  1  0  0  0  0
 43 41  1  0  0  0  0
M  END
>  <minimizedAffinity>
-6.97116184

$$$$

 OpenBabel03272502503D

 44 47  0  0  0  0  0  0  0  0999 V2000
   34.8620   25.2570   30.8060 Cl  0  0  0  0  0  0  0  0  0  0  0  0
   36.2370   24.8110   31.7590 C   0  0  0  0  0  0  0  0  0  0  0  0
   37.0470   25.7940   32.2760 C   0  0  0  0  0  0  0  0  0  0  0  0
   38.1480   25.4750   33.0380 C   0  0  0  0  0  0  0  0  0  0  0  0
   38.4800   24.1610   33.3090 C   0  0  0  0  0  0  0  0  0  0  0  0
   37.6780   23.1670   32.7980 C   0  0  0  0  0  0  0  0  0  0  0  0
   38.0060   21.4590   33.0810 Cl  0  0  0  0  0  0  0  0  0  0  0  0
   36.5850   23.5250   32.0410 C   0  0  0  0  0  0  0  0  0  0  0  0
   38.8200   26.2080   33.4690 H   0  0  0  0  0  0  0  0  0  0  0  0
   37.9230   23.5060   36.1150 Cl  0  0  0  0  0  0  0  0  0  0  0  0
   39.5540   23.4860   35.4400 C   0  0  0  0  0  0  0  0  0  0  0  0
   39.6450   23.8160   34.1150 C   0  0  0  0  0  0  0  0  0  0  0  0
   40.9120   23.8070   33.5620 C   0  0  0  0  0  0  0  0  0  0  0  0
   41.0540   24.0550   32.5330 H   0  0  0  0  0  0  0  0  0  0  0  0
   42.0010   23.4740   34.3530 C   0  0  0  0  0  0  0  0  0  0  0  0
   42.9810   23.4820   33.8680 H   0  0  0  0  0  0  0  0  0  0  0  0
   41.8240   23.1560   35.6730 C   0  0  0  0  0  0  0  0  0  0  0  0
   42.7180   22.9060   36.2290 H   0  0  0  0  0  0  0  0  0  0  0  0
   40.5770   23.1460   36.2900 C   0  0  0  0  0  0  0  0  0  0  0  0
   40.3860   22.7390   37.9610 Cl  0  0  0  0  0  0  0  0  0  0  0  0
   35.7520   29.2060   32.6470 C   0  0  0  0  0  0  0  0  0  0  0  0
   36.1790   29.8340   31.4840 C   0  0  0  0  0  0  0  0  0  0  0  0
   36.9080   29.0710   30.5850 C   0  0  0  0  0  0  0  0  0  0  0  0
   37.1730   27.7660   30.8700 N   0  0  0  0  0  0  0  0  0  0  0  0
   36.7370   27.1960   32.0160 C   0  0  0  0  0  0  0  0  0  0  0  0
   36.0330   27.9230   32.8900 N   0  0  0  0  0  0  0  0  0  0  0  0
   35.1880   29.8530   33.3070 H   0  0  0  0  0  0  0  0  0  0  0  0
   36.0030   30.8640   31.1950 H   0  0  0  0  0  0  0  0  0  0  0  0
   37.4170   29.6160   29.3180 C   0  0  0  0  0  0  0  0  0  0  0  0
   38.1040   28.8740   28.3850 C   0  0  0  0  0  0  0  0  0  0  0  0
   38.4490   29.6460   27.3150 N   0  0  0  0  0  0  0  0  0  0  0  0
   37.9810   30.8640   27.5770 C   0  0  0  0  0  0  0  0  0  0  0  0
   37.3660   30.8260   28.7800 N   0  0  0  0  0  0  0  0  0  0  0  0
   36.9630   33.0020   27.0170 C   0  0  0  0  0  0  0  0  0  0  0  0
   36.0350   32.7440   27.7910 O   0  0  0  0  0  0  0  0  0  0  0  0
   38.0370   32.0650   26.8410 N   0  0  0  0  0  0  0  0  0  0  0  0
   38.3530   27.8120   28.4590 H   0  0  0  0  0  0  0  0  0  0  0  0
   38.9700   29.3810   26.4510 H   0  0  0  0  0  0  0  0  0  0  0  0
   36.9790   33.9620   26.4470 H   0  0  0  0  0  0  0  0  0  0  0  0
   38.8130   32.3170   26.1720 H   0  0  0  0  0  0  0  0  0  0  0  0
   35.7190   22.4420   31.4890 C   0  0  0  0  0  0  0  0  0  0  0  0
   36.5020   21.4800   30.8490 F   0  0  0  0  0  0  0  0  0  0  0  0
   34.8970   22.9440   30.4660 F   0  0  0  0  0  0  0  0  0  0  0  0
   34.8910   21.8900   32.4270 F   0  0  0  0  0  0  0  0  0  0  0  0
  1  2  1  0  0  0  0
  2  8  2  0  0  0  0
  2  3  1  0  0  0  0
  3  4  2  0  0  0  0
  4  5  1  0  0  0  0
  4  9  1  0  0  0  0
  5 12  1  0  0  0  0
  6  7  1  0  0  0  0
  6  5  2  0  0  0  0
  8  6  1  0  0  0  0
 11 10  1  0  0  0  0
 11 19  1  0  0  0  0
 12 11  2  0  0  0  0
 13 12  1  0  0  0  0
 13 15  2  0  0  0  0
 14 13  1  0  0  0  0
 15 17  1  0  0  0  0
 16 15  1  0  0  0  0
 17 18  1  0  0  0  0
 17 19  2  0  0  0  0
 19 20  1  0  0  0  0
 21 26  1  0  0  0  0
 21 27  1  0  0  0  0
 22 21  2  0  0  0  0
 23 24  2  0  0  0  0
 23 22  1  0  0  0  0
 24 25  1  0  0  0  0
 25  3  1  0  0  0  0
 25 26  2  0  0  0  0
 28 22  1  0  0  0  0
 29 23  1  0  0  0  0
 30 37  1  0  0  0  0
 30 29  2  0  0  0  0
 31 32  1  0  0  0  0
 31 30  1  0  0  0  0
 32 33  2  0  0  0  0
 33 29  1  0  0  0  0
 34 35  2  0  0  0  0
 36 34  1  0  0  0  0
 36 32  1  0  0  0  0
 38 31  1  0  0  0  0
 39 34  1  0  0  0  0
 40 36  1  0  0  0  0
 41  8  1  0  0  0  0
 41 44  1  0  0  0  0
 42 41  1  0  0  0  0
 43 41  1  0  0  0  0
M  END
>  <minimizedAffinity>
-6.93845987

$$$$
