
 OpenBabel03272503003D

 36 38  0  0  1  0  0  0  0  0999 V2000
   40.2380   24.4060   35.2640 N   0  0  0  0  0  0  0  0  0  0  0  0
   40.8070   25.5720   34.6280 C   0  0  0  0  0  0  0  0  0  0  0  0
   40.2300   26.8810   34.9500 C   0  0  0  0  0  0  0  0  0  0  0  0
   38.8250   26.9400   35.3930 C   0  0  0  0  0  0  0  0  0  0  0  0
   38.3000   25.6540   35.9550 C   0  0  0  0  0  0  0  0  0  0  0  0
   38.7920   24.4710   35.1120 C   0  0  1  0  0  0  0  0  0  0  0  0
   40.7250   25.3850   33.5300 H   0  0  0  0  0  0  0  0  0  0  0  0
   41.9040   25.5220   34.8390 H   0  0  0  0  0  0  0  0  0  0  0  0
   40.3380   27.5450   34.0510 H   0  0  0  0  0  0  0  0  0  0  0  0
   40.8880   27.3710   35.7200 H   0  0  0  0  0  0  0  0  0  0  0  0
   38.7070   27.7000   36.2200 H   0  0  0  0  0  0  0  0  0  0  0  0
   38.1080   27.2830   34.5980 H   0  0  0  0  0  0  0  0  0  0  0  0
   37.1970   25.6520   35.9980 H   0  0  0  0  0  0  0  0  0  0  0  0
   38.6450   25.4470   36.9840 H   0  0  0  0  0  0  0  0  0  0  0  0
   38.2940   23.5620   35.4550 H   0  0  0  0  0  0  0  0  0  0  0  0
   40.9780   23.3810   35.9220 C   0  0  0  0  0  0  0  0  0  0  0  0
   40.4520   22.5300   36.8920 C   0  0  0  0  0  0  0  0  0  0  0  0
   41.2780   21.5750   37.4550 C   0  0  0  0  0  0  0  0  0  0  0  0
   42.5660   21.5140   37.0320 N   0  0  0  0  0  0  0  0  0  0  0  0
   43.0380   22.3460   36.0990 C   0  0  0  0  0  0  0  0  0  0  0  0
   42.2410   23.2830   35.5420 N   0  0  0  0  0  0  0  0  0  0  0  0
   39.4140   22.6530   37.1650 H   0  0  0  0  0  0  0  0  0  0  0  0
   40.8790   20.9080   38.2100 H   0  0  0  0  0  0  0  0  0  0  0  0
   44.0860   22.2620   35.7860 H   0  0  0  0  0  0  0  0  0  0  0  0
   38.4420   24.7950   33.8050 O   0  0  0  0  0  0  0  0  0  0  0  0
   36.6820   26.6480   32.4240 Cl  0  0  0  0  0  0  0  0  0  0  0  0
   36.7160   24.8880   32.3180 C   0  0  0  0  0  0  0  0  0  0  0  0
   37.5880   24.0640   33.0100 C   0  0  0  0  0  0  0  0  0  0  0  0
   37.4850   22.7080   32.8160 C   0  0  0  0  0  0  0  0  0  0  0  0
   38.1920   22.1300   33.3840 H   0  0  0  0  0  0  0  0  0  0  0  0
   36.5430   22.1870   31.9600 C   0  0  0  0  0  0  0  0  0  0  0  0
   36.4990   21.1230   31.8410 H   0  0  0  0  0  0  0  0  0  0  0  0
   35.6670   22.9910   31.2640 C   0  0  0  0  0  0  0  0  0  0  0  0
   34.9310   22.5760   30.5950 H   0  0  0  0  0  0  0  0  0  0  0  0
   35.7580   24.3740   31.4500 C   0  0  0  0  0  0  0  0  0  0  0  0
   34.6270   25.3550   30.5460 Cl  0  0  0  0  0  0  0  0  0  0  0  0
  1 16  1  0  0  0  0
  2  8  1  0  0  0  0
  2  3  1  0  0  0  0
  2  1  1  0  0  0  0
  3  4  1  0  0  0  0
  3 10  1  0  0  0  0
  4  5  1  0  0  0  0
  4 11  1  0  0  0  0
  5 13  1  0  0  0  0
  5 14  1  0  0  0  0
  6  1  1  0  0  0  0
  6 15  1  1  0  0  0
  6  5  1  0  0  0  0
  7  2  1  0  0  0  0
  9  3  1  0  0  0  0
 12  4  1  0  0  0  0
 16 17  1  0  0  0  0
 17 22  1  0  0  0  0
 17 18  2  0  0  0  0
 18 23  1  0  0  0  0
 19 18  1  0  0  0  0
 20 19  2  0  0  0  0
 21 16  2  0  0  0  0
 21 20  1  0  0  0  0
 24 20  1  0  0  0  0
 25  6  1  0  0  0  0
 27 26  1  0  0  0  0
 27 28  1  0  0  0  0
 28 25  1  0  0  0  0
 29 28  2  0  0  0  0
 29 30  1  0  0  0  0
 31 29  1  0  0  0  0
 32 31  1  0  0  0  0
 33 35  1  0  0  0  0
 33 31  2  0  0  0  0
 34 33  1  0  0  0  0
 35 27  2  0  0  0  0
 36 35  1  0  0  0  0
M  END
>  <minimizedAffinity>
-5.5041461

$$$$

 OpenBabel03272503003D

 36 38  0  0  1  0  0  0  0  0999 V2000
   39.5190   24.8660   34.9480 N   0  0  0  0  0  0  0  0  0  0  0  0
   40.6830   24.5250   34.1630 C   0  0  0  0  0  0  0  0  0  0  0  0
   41.4980   25.6220   33.6320 C   0  0  0  0  0  0  0  0  0  0  0  0
   40.8540   26.9280   33.4000 C   0  0  0  0  0  0  0  0  0  0  0  0
   39.6040   27.1490   34.1950 C   0  0  0  0  0  0  0  0  0  0  0  0
   38.7600   25.8690   34.2160 C   0  0  1  0  0  0  0  0  0  0  0  0
   40.3040   23.8970   33.3200 H   0  0  0  0  0  0  0  0  0  0  0  0
   41.2740   23.8170   34.7960 H   0  0  0  0  0  0  0  0  0  0  0  0
   41.9560   25.2850   32.6630 H   0  0  0  0  0  0  0  0  0  0  0  0
   42.3860   25.7550   34.3110 H   0  0  0  0  0  0  0  0  0  0  0  0
   41.5510   27.7660   33.6980 H   0  0  0  0  0  0  0  0  0  0  0  0
   40.6160   27.1360   32.3220 H   0  0  0  0  0  0  0  0  0  0  0  0
   39.0080   27.9850   33.7860 H   0  0  0  0  0  0  0  0  0  0  0  0
   39.7900   27.3970   35.2550 H   0  0  0  0  0  0  0  0  0  0  0  0
   37.7970   26.0870   34.6820 H   0  0  0  0  0  0  0  0  0  0  0  0
   39.1850   24.3070   36.2160 C   0  0  0  0  0  0  0  0  0  0  0  0
   38.0920   24.6990   36.9850 C   0  0  0  0  0  0  0  0  0  0  0  0
   37.8800   24.0770   38.2020 C   0  0  0  0  0  0  0  0  0  0  0  0
   38.7520   23.1110   38.5870 N   0  0  0  0  0  0  0  0  0  0  0  0
   39.7910   22.7600   37.8240 C   0  0  0  0  0  0  0  0  0  0  0  0
   40.0100   23.3600   36.6340 N   0  0  0  0  0  0  0  0  0  0  0  0
   37.4520   25.4770   36.5970 H   0  0  0  0  0  0  0  0  0  0  0  0
   37.0320   24.3730   38.8080 H   0  0  0  0  0  0  0  0  0  0  0  0
   40.4730   21.9740   38.1740 H   0  0  0  0  0  0  0  0  0  0  0  0
   38.6210   25.5110   32.8780 O   0  0  0  0  0  0  0  0  0  0  0  0
   38.0750   22.6770   32.5590 Cl  0  0  0  0  0  0  0  0  0  0  0  0
   37.0980   24.0450   32.0260 C   0  0  0  0  0  0  0  0  0  0  0  0
   37.4220   25.3780   32.2140 C   0  0  0  0  0  0  0  0  0  0  0  0
   36.5510   26.3260   31.7380 C   0  0  0  0  0  0  0  0  0  0  0  0
   36.8660   27.3390   31.9180 H   0  0  0  0  0  0  0  0  0  0  0  0
   35.3910   25.9610   31.0950 C   0  0  0  0  0  0  0  0  0  0  0  0
   34.7420   26.7360   30.7400 H   0  0  0  0  0  0  0  0  0  0  0  0
   35.0520   24.6410   30.8990 C   0  0  0  0  0  0  0  0  0  0  0  0
   34.1420   24.3620   30.3940 H   0  0  0  0  0  0  0  0  0  0  0  0
   35.9280   23.6610   31.3780 C   0  0  0  0  0  0  0  0  0  0  0  0
   35.4570   21.9990   31.1070 Cl  0  0  0  0  0  0  0  0  0  0  0  0
  1 16  1  0  0  0  0
  2  8  1  0  0  0  0
  2  1  1  0  0  0  0
  3  2  1  0  0  0  0
  3 10  1  0  0  0  0
  4  3  1  0  0  0  0
  4 11  1  0  0  0  0
  4  5  1  0  0  0  0
  5  6  1  0  0  0  0
  5 14  1  0  0  0  0
  6 15  1  1  0  0  0
  6  1  1  0  0  0  0
  7  2  1  0  0  0  0
  9  3  1  0  0  0  0
 12  4  1  0  0  0  0
 13  5  1  0  0  0  0
 16 21  2  0  0  0  0
 16 17  1  0  0  0  0
 17 18  2  0  0  0  0
 18 19  1  0  0  0  0
 18 23  1  0  0  0  0
 20 24  1  0  0  0  0
 20 19  2  0  0  0  0
 21 20  1  0  0  0  0
 22 17  1  0  0  0  0
 25  6  1  0  0  0  0
 27 28  1  0  0  0  0
 27 26  1  0  0  0  0
 28 25  1  0  0  0  0
 29 30  1  0  0  0  0
 29 28  2  0  0  0  0
 31 29  1  0  0  0  0
 32 31  1  0  0  0  0
 33 31  2  0  0  0  0
 33 35  1  0  0  0  0
 34 33  1  0  0  0  0
 35 27  2  0  0  0  0
 36 35  1  0  0  0  0
M  END
>  <minimizedAffinity>
-5.30359983

$$$$

 OpenBabel03272503003D

 36 38  0  0  1  0  0  0  0  0999 V2000
   39.3800   26.7370   33.3240 N   0  0  0  0  0  0  0  0  0  0  0  0
   38.0800   26.4870   32.7450 C   0  0  0  0  0  0  0  0  0  0  0  0
   36.9150   27.1100   33.3820 C   0  0  0  0  0  0  0  0  0  0  0  0
   36.9910   27.4440   34.8160 C   0  0  0  0  0  0  0  0  0  0  0  0
   38.3870   27.5940   35.3410 C   0  0  0  0  0  0  0  0  0  0  0  0
   39.2890   26.5000   34.7570 C   0  0  1  0  0  0  0  0  0  0  0  0
   37.9590   25.3770   32.7450 H   0  0  0  0  0  0  0  0  0  0  0  0
   38.1760   26.7580   31.6650 H   0  0  0  0  0  0  0  0  0  0  0  0
   36.0290   26.4370   33.2310 H   0  0  0  0  0  0  0  0  0  0  0  0
   36.6490   28.0320   32.7940 H   0  0  0  0  0  0  0  0  0  0  0  0
   36.4890   28.4360   35.0140 H   0  0  0  0  0  0  0  0  0  0  0  0
   36.4500   26.7210   35.4850 H   0  0  0  0  0  0  0  0  0  0  0  0
   38.4100   27.5500   36.4440 H   0  0  0  0  0  0  0  0  0  0  0  0
   38.8650   28.5500   35.0630 H   0  0  0  0  0  0  0  0  0  0  0  0
   40.2620   26.5420   35.2510 H   0  0  0  0  0  0  0  0  0  0  0  0
   40.5400   27.1430   32.6020 C   0  0  0  0  0  0  0  0  0  0  0  0
   41.7750   27.4140   33.1870 C   0  0  0  0  0  0  0  0  0  0  0  0
   42.8240   27.8030   32.3740 C   0  0  0  0  0  0  0  0  0  0  0  0
   42.5950   27.9010   31.0390 N   0  0  0  0  0  0  0  0  0  0  0  0
   41.3980   27.6330   30.5120 C   0  0  0  0  0  0  0  0  0  0  0  0
   40.3650   27.2540   31.2950 N   0  0  0  0  0  0  0  0  0  0  0  0
   41.8630   27.3090   34.2580 H   0  0  0  0  0  0  0  0  0  0  0  0
   43.7890   28.0150   32.8170 H   0  0  0  0  0  0  0  0  0  0  0  0
   41.2560   27.7250   29.4270 H   0  0  0  0  0  0  0  0  0  0  0  0
   38.6220   25.3080   35.0240 O   0  0  0  0  0  0  0  0  0  0  0  0
   40.7880   23.3770   34.8970 Cl  0  0  0  0  0  0  0  0  0  0  0  0
   39.6770   23.6870   36.2310 C   0  0  0  0  0  0  0  0  0  0  0  0
   38.6620   24.6290   36.2210 C   0  0  0  0  0  0  0  0  0  0  0  0
   37.8810   24.7470   37.3450 C   0  0  0  0  0  0  0  0  0  0  0  0
   37.1140   25.4970   37.2670 H   0  0  0  0  0  0  0  0  0  0  0  0
   38.1020   23.9530   38.4450 C   0  0  0  0  0  0  0  0  0  0  0  0
   37.4680   24.0810   39.2990 H   0  0  0  0  0  0  0  0  0  0  0  0
   39.1060   23.0110   38.4740 C   0  0  0  0  0  0  0  0  0  0  0  0
   39.2750   22.3920   39.3400 H   0  0  0  0  0  0  0  0  0  0  0  0
   39.9120   22.8770   37.3380 C   0  0  0  0  0  0  0  0  0  0  0  0
   41.1740   21.6690   37.4180 Cl  0  0  0  0  0  0  0  0  0  0  0  0
  1  6  1  0  0  0  0
  2  7  1  0  0  0  0
  2  1  1  0  0  0  0
  2  3  1  0  0  0  0
  3  4  1  0  0  0  0
  4 11  1  0  0  0  0
  4  5  1  0  0  0  0
  4 12  1  0  0  0  0
  5 13  1  0  0  0  0
  6 25  1  0  0  0  0
  6 15  1  1  0  0  0
  6  5  1  0  0  0  0
  8  2  1  0  0  0  0
  9  3  1  0  0  0  0
 10  3  1  0  0  0  0
 14  5  1  0  0  0  0
 16 17  1  0  0  0  0
 16  1  1  0  0  0  0
 17 22  1  0  0  0  0
 18 23  1  0  0  0  0
 18 17  2  0  0  0  0
 19 18  1  0  0  0  0
 20 19  2  0  0  0  0
 20 21  1  0  0  0  0
 21 16  2  0  0  0  0
 24 20  1  0  0  0  0
 25 28  1  0  0  0  0
 26 27  1  0  0  0  0
 27 35  1  0  0  0  0
 28 27  2  0  0  0  0
 28 29  1  0  0  0  0
 29 31  2  0  0  0  0
 30 29  1  0  0  0  0
 31 33  1  0  0  0  0
 31 32  1  0  0  0  0
 33 34  1  0  0  0  0
 35 36  1  0  0  0  0
 35 33  2  0  0  0  0
M  END
>  <minimizedAffinity>
-5.29528761

$$$$

 OpenBabel03272503003D

 36 38  0  0  1  0  0  0  0  0999 V2000
   39.0490   25.0010   34.8940 N   0  0  0  0  0  0  0  0  0  0  0  0
   39.2730   24.3600   33.6190 C   0  0  0  0  0  0  0  0  0  0  0  0
   40.2650   24.9560   32.7170 C   0  0  0  0  0  0  0  0  0  0  0  0
   40.5480   26.3980   32.8360 C   0  0  0  0  0  0  0  0  0  0  0  0
   40.1970   26.9870   34.1680 C   0  0  0  0  0  0  0  0  0  0  0  0
   38.8560   26.4240   34.6560 C   0  0  1  0  0  0  0  0  0  0  0  0
   38.2760   24.3340   33.1160 H   0  0  0  0  0  0  0  0  0  0  0  0
   39.4960   23.2910   33.8560 H   0  0  0  0  0  0  0  0  0  0  0  0
   39.9460   24.7520   31.6590 H   0  0  0  0  0  0  0  0  0  0  0  0
   41.2220   24.3740   32.8200 H   0  0  0  0  0  0  0  0  0  0  0  0
   41.6530   26.5910   32.7040 H   0  0  0  0  0  0  0  0  0  0  0  0
   40.0600   27.0280   32.0440 H   0  0  0  0  0  0  0  0  0  0  0  0
   40.1450   28.0890   34.1210 H   0  0  0  0  0  0  0  0  0  0  0  0
   40.9240   26.7490   34.9640 H   0  0  0  0  0  0  0  0  0  0  0  0
   38.5530   26.9610   35.5570 H   0  0  0  0  0  0  0  0  0  0  0  0
   39.0240   24.3400   36.1570 C   0  0  0  0  0  0  0  0  0  0  0  0
   39.8900   23.3130   36.5250 C   0  0  0  0  0  0  0  0  0  0  0  0
   39.7590   22.7520   37.7820 C   0  0  0  0  0  0  0  0  0  0  0  0
   38.7880   23.2340   38.5990 N   0  0  0  0  0  0  0  0  0  0  0  0
   37.9740   24.2200   38.2130 C   0  0  0  0  0  0  0  0  0  0  0  0
   38.0910   24.7760   36.9880 N   0  0  0  0  0  0  0  0  0  0  0  0
   40.6320   22.9950   35.8080 H   0  0  0  0  0  0  0  0  0  0  0  0
   40.4280   21.9530   38.0790 H   0  0  0  0  0  0  0  0  0  0  0  0
   37.2010   24.5800   38.9050 H   0  0  0  0  0  0  0  0  0  0  0  0
   37.9740   26.6380   33.6010 O   0  0  0  0  0  0  0  0  0  0  0  0
   38.1100   27.5970   30.8630 Cl  0  0  0  0  0  0  0  0  0  0  0  0
   37.1440   28.2300   32.1960 C   0  0  0  0  0  0  0  0  0  0  0  0
   37.1290   27.7180   33.4830 C   0  0  0  0  0  0  0  0  0  0  0  0
   36.3190   28.3280   34.4090 C   0  0  0  0  0  0  0  0  0  0  0  0
   36.3570   27.8800   35.3860 H   0  0  0  0  0  0  0  0  0  0  0  0
   35.5460   29.4130   34.0660 C   0  0  0  0  0  0  0  0  0  0  0  0
   34.9290   29.8560   34.8230 H   0  0  0  0  0  0  0  0  0  0  0  0
   35.5480   29.9350   32.7920 C   0  0  0  0  0  0  0  0  0  0  0  0
   34.9400   30.7850   32.5300 H   0  0  0  0  0  0  0  0  0  0  0  0
   36.3670   29.3260   31.8360 C   0  0  0  0  0  0  0  0  0  0  0  0
   36.3380   30.0220   30.2320 Cl  0  0  0  0  0  0  0  0  0  0  0  0
  1 16  1  0  0  0  0
  2  8  1  0  0  0  0
  2  1  1  0  0  0  0
  3 10  1  0  0  0  0
  3  4  1  0  0  0  0
  3  2  1  0  0  0  0
  4  5  1  0  0  0  0
  5  6  1  0  0  0  0
  5 14  1  0  0  0  0
  6  1  1  0  0  0  0
  6 15  1  1  0  0  0
  7  2  1  0  0  0  0
  9  3  1  0  0  0  0
 11  4  1  0  0  0  0
 12  4  1  0  0  0  0
 13  5  1  0  0  0  0
 16 17  2  0  0  0  0
 16 21  1  0  0  0  0
 17 18  1  0  0  0  0
 18 23  1  0  0  0  0
 18 19  2  0  0  0  0
 20 19  1  0  0  0  0
 20 24  1  0  0  0  0
 21 20  2  0  0  0  0
 22 17  1  0  0  0  0
 25  6  1  0  0  0  0
 26 27  1  0  0  0  0
 27 28  1  0  0  0  0
 28 25  1  0  0  0  0
 28 29  2  0  0  0  0
 29 30  1  0  0  0  0
 31 29  1  0  0  0  0
 31 32  1  0  0  0  0
 33 31  2  0  0  0  0
 34 33  1  0  0  0  0
 35 27  2  0  0  0  0
 35 33  1  0  0  0  0
 36 35  1  0  0  0  0
M  END
>  <minimizedAffinity>
-5.23540783

$$$$

 OpenBabel03272503003D

 36 38  0  0  1  0  0  0  0  0999 V2000
   37.8040   24.5060   32.8730 N   0  0  0  0  0  0  0  0  0  0  0  0
   37.1590   25.7780   33.1050 C   0  0  0  0  0  0  0  0  0  0  0  0
   37.8240   26.9860   32.6060 C   0  0  0  0  0  0  0  0  0  0  0  0
   39.2880   26.9640   32.4360 C   0  0  0  0  0  0  0  0  0  0  0  0
   39.8720   25.5920   32.2930 C   0  0  0  0  0  0  0  0  0  0  0  0
   39.1970   24.6280   33.2770 C   0  0  1  0  0  0  0  0  0  0  0  0
   37.0280   25.8510   34.2120 H   0  0  0  0  0  0  0  0  0  0  0  0
   36.1200   25.6640   32.7080 H   0  0  0  0  0  0  0  0  0  0  0  0
   37.5680   27.8380   33.2920 H   0  0  0  0  0  0  0  0  0  0  0  0
   37.3360   27.2750   31.6340 H   0  0  0  0  0  0  0  0  0  0  0  0
   39.5810   27.5140   31.4940 H   0  0  0  0  0  0  0  0  0  0  0  0
   39.8520   27.4920   33.2520 H   0  0  0  0  0  0  0  0  0  0  0  0
   40.9630   25.5970   32.4630 H   0  0  0  0  0  0  0  0  0  0  0  0
   39.7200   25.1470   31.2940 H   0  0  0  0  0  0  0  0  0  0  0  0
   39.7240   23.6710   33.2530 H   0  0  0  0  0  0  0  0  0  0  0  0
   37.1720   23.3450   32.3410 C   0  0  0  0  0  0  0  0  0  0  0  0
   35.9980   23.3620   31.5910 C   0  0  0  0  0  0  0  0  0  0  0  0
   35.4840   22.1620   31.1340 C   0  0  0  0  0  0  0  0  0  0  0  0
   36.1550   21.0220   31.4400 N   0  0  0  0  0  0  0  0  0  0  0  0
   37.2780   21.0420   32.1620 C   0  0  0  0  0  0  0  0  0  0  0  0
   37.7890   22.2080   32.6150 N   0  0  0  0  0  0  0  0  0  0  0  0
   35.5340   24.3180   31.3980 H   0  0  0  0  0  0  0  0  0  0  0  0
   34.5730   22.1640   30.5490 H   0  0  0  0  0  0  0  0  0  0  0  0
   37.7890   20.0970   32.3870 H   0  0  0  0  0  0  0  0  0  0  0  0
   39.3040   25.2500   34.5170 O   0  0  0  0  0  0  0  0  0  0  0  0
   41.3710   23.2640   34.9850 Cl  0  0  0  0  0  0  0  0  0  0  0  0
   40.0050   23.6840   36.0180 C   0  0  0  0  0  0  0  0  0  0  0  0
   39.0530   24.6480   35.7290 C   0  0  0  0  0  0  0  0  0  0  0  0
   38.0490   24.8560   36.6420 C   0  0  0  0  0  0  0  0  0  0  0  0
   37.3460   25.6170   36.3530 H   0  0  0  0  0  0  0  0  0  0  0  0
   37.9920   24.1280   37.8080 C   0  0  0  0  0  0  0  0  0  0  0  0
   37.1890   24.3240   38.4900 H   0  0  0  0  0  0  0  0  0  0  0  0
   38.9290   23.1650   38.1120 C   0  0  0  0  0  0  0  0  0  0  0  0
   38.8780   22.5980   39.0270 H   0  0  0  0  0  0  0  0  0  0  0  0
   39.9590   22.9410   37.1940 C   0  0  0  0  0  0  0  0  0  0  0  0
   41.1260   21.7100   37.6210 Cl  0  0  0  0  0  0  0  0  0  0  0  0
  1  2  1  0  0  0  0
  1  6  1  0  0  0  0
  2  7  1  0  0  0  0
  3  2  1  0  0  0  0
  3  9  1  0  0  0  0
  4  3  1  0  0  0  0
  4 12  1  0  0  0  0
  5  4  1  0  0  0  0
  5 13  1  0  0  0  0
  5  6  1  0  0  0  0
  6 15  1  1  0  0  0
  6 25  1  0  0  0  0
  8  2  1  0  0  0  0
 10  3  1  0  0  0  0
 11  4  1  0  0  0  0
 14  5  1  0  0  0  0
 16 21  1  0  0  0  0
 16  1  1  0  0  0  0
 17 16  2  0  0  0  0
 18 19  2  0  0  0  0
 18 17  1  0  0  0  0
 19 20  1  0  0  0  0
 20 24  1  0  0  0  0
 20 21  2  0  0  0  0
 22 17  1  0  0  0  0
 23 18  1  0  0  0  0
 25 28  1  0  0  0  0
 26 27  1  0  0  0  0
 27 35  1  0  0  0  0
 28 27  2  0  0  0  0
 28 29  1  0  0  0  0
 29 31  2  0  0  0  0
 30 29  1  0  0  0  0
 31 33  1  0  0  0  0
 31 32  1  0  0  0  0
 33 34  1  0  0  0  0
 35 36  1  0  0  0  0
 35 33  2  0  0  0  0
M  END
>  <minimizedAffinity>
-5.22854614

$$$$

 OpenBabel03272503003D

 36 38  0  0  1  0  0  0  0  0999 V2000
   37.2010   27.6550   33.4630 N   0  0  0  0  0  0  0  0  0  0  0  0
   37.0390   27.3310   34.8620 C   0  0  0  0  0  0  0  0  0  0  0  0
   38.2470   27.2240   35.6860 C   0  0  0  0  0  0  0  0  0  0  0  0
   39.5190   26.8710   35.0280 C   0  0  0  0  0  0  0  0  0  0  0  0
   39.5550   27.1630   33.5590 C   0  0  0  0  0  0  0  0  0  0  0  0
   38.2200   26.7740   32.9120 C   0  0  1  0  0  0  0  0  0  0  0  0
   36.4820   26.3630   34.8830 H   0  0  0  0  0  0  0  0  0  0  0  0
   36.3120   28.0810   35.2600 H   0  0  0  0  0  0  0  0  0  0  0  0
   38.0550   26.4690   36.4960 H   0  0  0  0  0  0  0  0  0  0  0  0
   38.3700   28.1900   36.2500 H   0  0  0  0  0  0  0  0  0  0  0  0
   40.3680   27.4670   35.4740 H   0  0  0  0  0  0  0  0  0  0  0  0
   39.8270   25.8000   35.1710 H   0  0  0  0  0  0  0  0  0  0  0  0
   40.3830   26.6280   33.0610 H   0  0  0  0  0  0  0  0  0  0  0  0
   39.6960   28.2320   33.3230 H   0  0  0  0  0  0  0  0  0  0  0  0
   38.3120   26.8670   31.8280 H   0  0  0  0  0  0  0  0  0  0  0  0
   36.4810   28.6640   32.7600 C   0  0  0  0  0  0  0  0  0  0  0  0
   35.5260   29.4970   33.3400 C   0  0  0  0  0  0  0  0  0  0  0  0
   34.8960   30.4380   32.5460 C   0  0  0  0  0  0  0  0  0  0  0  0
   35.2420   30.5020   31.2350 N   0  0  0  0  0  0  0  0  0  0  0  0
   36.1620   29.6880   30.7120 C   0  0  0  0  0  0  0  0  0  0  0  0
   36.7840   28.7650   31.4760 N   0  0  0  0  0  0  0  0  0  0  0  0
   35.3170   29.3720   34.3920 H   0  0  0  0  0  0  0  0  0  0  0  0
   34.1530   31.0910   32.9860 H   0  0  0  0  0  0  0  0  0  0  0  0
   36.4120   29.7740   29.6460 H   0  0  0  0  0  0  0  0  0  0  0  0
   38.0040   25.4560   33.3040 O   0  0  0  0  0  0  0  0  0  0  0  0
   39.0430   22.8060   33.8840 Cl  0  0  0  0  0  0  0  0  0  0  0  0
   37.6890   23.2450   32.8420 C   0  0  0  0  0  0  0  0  0  0  0  0
   37.2470   24.5380   32.6120 C   0  0  0  0  0  0  0  0  0  0  0  0
   36.1750   24.7110   31.7710 C   0  0  0  0  0  0  0  0  0  0  0  0
   35.8870   25.7390   31.6380 H   0  0  0  0  0  0  0  0  0  0  0  0
   35.5610   23.6340   31.1780 C   0  0  0  0  0  0  0  0  0  0  0  0
   34.7280   23.8180   30.5290 H   0  0  0  0  0  0  0  0  0  0  0  0
   35.9860   22.3420   31.3950 C   0  0  0  0  0  0  0  0  0  0  0  0
   35.5000   21.5020   30.9270 H   0  0  0  0  0  0  0  0  0  0  0  0
   37.0770   22.1460   32.2490 C   0  0  0  0  0  0  0  0  0  0  0  0
   37.5830   20.4900   32.4960 Cl  0  0  0  0  0  0  0  0  0  0  0  0
  1  2  1  0  0  0  0
  2  7  1  0  0  0  0
  2  8  1  0  0  0  0
  2  3  1  0  0  0  0
  3 10  1  0  0  0  0
  3  9  1  0  0  0  0
  4 12  1  0  0  0  0
  4 11  1  0  0  0  0
  4  3  1  0  0  0  0
  5  4  1  0  0  0  0
  6 15  1  6  0  0  0
  6 25  1  0  0  0  0
  6  1  1  0  0  0  0
  6  5  1  0  0  0  0
 13  5  1  0  0  0  0
 14  5  1  0  0  0  0
 16 17  1  0  0  0  0
 16  1  1  0  0  0  0
 17 22  1  0  0  0  0
 18 23  1  0  0  0  0
 18 17  2  0  0  0  0
 19 18  1  0  0  0  0
 20 19  2  0  0  0  0
 20 21  1  0  0  0  0
 21 16  2  0  0  0  0
 24 20  1  0  0  0  0
 27 26  1  0  0  0  0
 28 27  1  0  0  0  0
 28 25  1  0  0  0  0
 29 28  2  0  0  0  0
 30 29  1  0  0  0  0
 31 33  2  0  0  0  0
 31 29  1  0  0  0  0
 32 31  1  0  0  0  0
 33 35  1  0  0  0  0
 34 33  1  0  0  0  0
 35 36  1  0  0  0  0
 35 27  2  0  0  0  0
M  END
>  <minimizedAffinity>
-5.22810316

$$$$

 OpenBabel03272503003D

 36 38  0  0  1  0  0  0  0  0999 V2000
   37.9200   26.7230   33.1400 N   0  0  0  0  0  0  0  0  0  0  0  0
   39.2280   26.6530   32.5310 C   0  0  0  0  0  0  0  0  0  0  0  0
   39.5500   25.4670   31.7310 C   0  0  0  0  0  0  0  0  0  0  0  0
   38.8470   24.2050   32.0290 C   0  0  0  0  0  0  0  0  0  0  0  0
   37.5420   24.3800   32.7430 C   0  0  0  0  0  0  0  0  0  0  0  0
   37.6730   25.4620   33.8230 C   0  0  1  0  0  0  0  0  0  0  0  0
   39.9570   26.7480   33.3720 H   0  0  0  0  0  0  0  0  0  0  0  0
   39.3410   27.6040   31.9540 H   0  0  0  0  0  0  0  0  0  0  0  0
   40.6540   25.2760   31.8120 H   0  0  0  0  0  0  0  0  0  0  0  0
   39.4070   25.7300   30.6460 H   0  0  0  0  0  0  0  0  0  0  0  0
   38.5950   23.6620   31.0720 H   0  0  0  0  0  0  0  0  0  0  0  0
   39.4600   23.4670   32.6140 H   0  0  0  0  0  0  0  0  0  0  0  0
   37.2010   23.4340   33.2000 H   0  0  0  0  0  0  0  0  0  0  0  0
   36.7190   24.7160   32.0870 H   0  0  0  0  0  0  0  0  0  0  0  0
   36.7580   25.4810   34.4180 H   0  0  0  0  0  0  0  0  0  0  0  0
   37.0380   27.8410   33.0750 C   0  0  0  0  0  0  0  0  0  0  0  0
   36.8090   28.5970   31.9280 C   0  0  0  0  0  0  0  0  0  0  0  0
   35.9280   29.6610   31.9980 C   0  0  0  0  0  0  0  0  0  0  0  0
   35.3280   29.9160   33.1880 N   0  0  0  0  0  0  0  0  0  0  0  0
   35.5710   29.1700   34.2700 C   0  0  0  0  0  0  0  0  0  0  0  0
   36.4290   28.1290   34.2140 N   0  0  0  0  0  0  0  0  0  0  0  0
   37.3330   28.3190   31.0250 H   0  0  0  0  0  0  0  0  0  0  0  0
   35.7420   30.2540   31.1120 H   0  0  0  0  0  0  0  0  0  0  0  0
   35.0640   29.4110   35.2130 H   0  0  0  0  0  0  0  0  0  0  0  0
   38.7770   25.0790   34.5790 O   0  0  0  0  0  0  0  0  0  0  0  0
   40.8880   23.1010   34.8360 Cl  0  0  0  0  0  0  0  0  0  0  0  0
   39.7060   23.6010   36.0450 C   0  0  0  0  0  0  0  0  0  0  0  0
   38.7220   24.5570   35.8510 C   0  0  0  0  0  0  0  0  0  0  0  0
   37.8770   24.8330   36.8980 C   0  0  0  0  0  0  0  0  0  0  0  0
   37.1390   25.5830   36.6770 H   0  0  0  0  0  0  0  0  0  0  0  0
   38.0060   24.1800   38.1010 C   0  0  0  0  0  0  0  0  0  0  0  0
   37.3240   24.4280   38.8890 H   0  0  0  0  0  0  0  0  0  0  0  0
   38.9780   23.2270   38.3130 C   0  0  0  0  0  0  0  0  0  0  0  0
   39.0730   22.7190   39.2580 H   0  0  0  0  0  0  0  0  0  0  0  0
   39.8480   22.9330   37.2580 C   0  0  0  0  0  0  0  0  0  0  0  0
   41.0660   21.7180   37.5700 Cl  0  0  0  0  0  0  0  0  0  0  0  0
  1  6  1  0  0  0  0
  2  1  1  0  0  0  0
  2  7  1  0  0  0  0
  3  9  1  0  0  0  0
  3  4  1  0  0  0  0
  3  2  1  0  0  0  0
  4 12  1  0  0  0  0
  4  5  1  0  0  0  0
  5 13  1  0  0  0  0
  5  6  1  0  0  0  0
  6 15  1  1  0  0  0
  6 25  1  0  0  0  0
  8  2  1  0  0  0  0
 10  3  1  0  0  0  0
 11  4  1  0  0  0  0
 14  5  1  0  0  0  0
 16  1  1  0  0  0  0
 16 21  1  0  0  0  0
 17 18  1  0  0  0  0
 17 16  2  0  0  0  0
 18 19  2  0  0  0  0
 19 20  1  0  0  0  0
 20 24  1  0  0  0  0
 21 20  2  0  0  0  0
 22 17  1  0  0  0  0
 23 18  1  0  0  0  0
 25 28  1  0  0  0  0
 26 27  1  0  0  0  0
 27 35  1  0  0  0  0
 28 27  2  0  0  0  0
 28 29  1  0  0  0  0
 29 31  2  0  0  0  0
 30 29  1  0  0  0  0
 31 33  1  0  0  0  0
 31 32  1  0  0  0  0
 33 34  1  0  0  0  0
 35 36  1  0  0  0  0
 35 33  2  0  0  0  0
M  END
>  <minimizedAffinity>
-5.22775459

$$$$

 OpenBabel03272503003D

 36 38  0  0  1  0  0  0  0  0999 V2000
   40.3120   24.4610   35.0040 N   0  0  0  0  0  0  0  0  0  0  0  0
   41.0700   25.5450   34.4210 C   0  0  0  0  0  0  0  0  0  0  0  0
   40.5790   26.9120   34.6230 C   0  0  0  0  0  0  0  0  0  0  0  0
   39.1380   27.1140   34.8620 C   0  0  0  0  0  0  0  0  0  0  0  0
   38.4230   25.9040   35.3810 C   0  0  0  0  0  0  0  0  0  0  0  0
   38.9130   24.6490   34.6490 C   0  0  1  0  0  0  0  0  0  0  0  0
   41.1210   25.3210   33.3280 H   0  0  0  0  0  0  0  0  0  0  0  0
   42.1180   25.4060   34.7850 H   0  0  0  0  0  0  0  0  0  0  0  0
   40.8710   27.5270   33.7290 H   0  0  0  0  0  0  0  0  0  0  0  0
   41.1680   27.3730   35.4630 H   0  0  0  0  0  0  0  0  0  0  0  0
   38.9800   27.9150   35.6420 H   0  0  0  0  0  0  0  0  0  0  0  0
   38.5720   27.4860   33.9650 H   0  0  0  0  0  0  0  0  0  0  0  0
   37.3290   26.0010   35.2680 H   0  0  0  0  0  0  0  0  0  0  0  0
   38.6030   25.7100   36.4540 H   0  0  0  0  0  0  0  0  0  0  0  0
   38.2900   23.8020   34.9440 H   0  0  0  0  0  0  0  0  0  0  0  0
   40.8550   23.4020   35.7870 C   0  0  0  0  0  0  0  0  0  0  0  0
   42.0630   22.7620   35.5160 C   0  0  0  0  0  0  0  0  0  0  0  0
   42.4790   21.7440   36.3540 C   0  0  0  0  0  0  0  0  0  0  0  0
   41.6840   21.4180   37.4060 N   0  0  0  0  0  0  0  0  0  0  0  0
   40.5310   22.0530   37.6370 C   0  0  0  0  0  0  0  0  0  0  0  0
   40.1140   23.0480   36.8250 N   0  0  0  0  0  0  0  0  0  0  0  0
   42.6280   23.0900   34.6560 H   0  0  0  0  0  0  0  0  0  0  0  0
   43.4160   21.2410   36.1530 H   0  0  0  0  0  0  0  0  0  0  0  0
   39.9190   21.7570   38.4990 H   0  0  0  0  0  0  0  0  0  0  0  0
   38.7770   24.9490   33.2970 O   0  0  0  0  0  0  0  0  0  0  0  0
   38.2240   22.1580   32.7120 Cl  0  0  0  0  0  0  0  0  0  0  0  0
   37.2730   23.5760   32.2710 C   0  0  0  0  0  0  0  0  0  0  0  0
   37.6000   24.8850   32.5870 C   0  0  0  0  0  0  0  0  0  0  0  0
   36.7500   25.8800   32.1680 C   0  0  0  0  0  0  0  0  0  0  0  0
   37.0660   26.8690   32.4470 H   0  0  0  0  0  0  0  0  0  0  0  0
   35.6100   25.5830   31.4590 C   0  0  0  0  0  0  0  0  0  0  0  0
   34.9770   26.3920   31.1530 H   0  0  0  0  0  0  0  0  0  0  0  0
   35.2690   24.2880   31.1360 C   0  0  0  0  0  0  0  0  0  0  0  0
   34.3740   24.0630   30.5800 H   0  0  0  0  0  0  0  0  0  0  0  0
   36.1230   23.2620   31.5540 C   0  0  0  0  0  0  0  0  0  0  0  0
   35.6500   21.6340   31.1230 Cl  0  0  0  0  0  0  0  0  0  0  0  0
  1 16  1  0  0  0  0
  2  3  1  0  0  0  0
  2  8  1  0  0  0  0
  2  1  1  0  0  0  0
  3  4  1  0  0  0  0
  3 10  1  0  0  0  0
  4  5  1  0  0  0  0
  4 11  1  0  0  0  0
  5 14  1  0  0  0  0
  6 15  1  1  0  0  0
  6  1  1  0  0  0  0
  6  5  1  0  0  0  0
  7  2  1  0  0  0  0
  9  3  1  0  0  0  0
 12  4  1  0  0  0  0
 13  5  1  0  0  0  0
 16 21  1  0  0  0  0
 17 16  2  0  0  0  0
 17 18  1  0  0  0  0
 18 19  2  0  0  0  0
 19 20  1  0  0  0  0
 20 24  1  0  0  0  0
 21 20  2  0  0  0  0
 22 17  1  0  0  0  0
 23 18  1  0  0  0  0
 25  6  1  0  0  0  0
 27 28  1  0  0  0  0
 27 26  1  0  0  0  0
 28 25  1  0  0  0  0
 29 30  1  0  0  0  0
 29 28  2  0  0  0  0
 31 29  1  0  0  0  0
 32 31  1  0  0  0  0
 33 31  2  0  0  0  0
 33 35  1  0  0  0  0
 34 33  1  0  0  0  0
 35 27  2  0  0  0  0
 36 35  1  0  0  0  0
M  END
>  <minimizedAffinity>
-5.17036247

$$$$

 OpenBabel03272503003D

 36 38  0  0  1  0  0  0  0  0999 V2000
   39.6260   24.4680   35.6270 N   0  0  0  0  0  0  0  0  0  0  0  0
   38.3260   24.8530   36.1280 C   0  0  0  0  0  0  0  0  0  0  0  0
   37.9560   24.4210   37.4800 C   0  0  0  0  0  0  0  0  0  0  0  0
   38.5860   23.2050   38.0260 C   0  0  0  0  0  0  0  0  0  0  0  0
   39.8860   22.8390   37.3780 C   0  0  0  0  0  0  0  0  0  0  0  0
   39.7940   23.0420   35.8610 C   0  0  1  0  0  0  0  0  0  0  0  0
   37.5890   24.4540   35.3900 H   0  0  0  0  0  0  0  0  0  0  0  0
   38.2740   25.9630   36.0020 H   0  0  0  0  0  0  0  0  0  0  0  0
   36.8430   24.2780   37.5110 H   0  0  0  0  0  0  0  0  0  0  0  0
   38.1320   25.2830   38.1810 H   0  0  0  0  0  0  0  0  0  0  0  0
   38.8250   23.3470   39.1210 H   0  0  0  0  0  0  0  0  0  0  0  0
   37.9250   22.2960   38.0030 H   0  0  0  0  0  0  0  0  0  0  0  0
   40.1690   21.7950   37.6010 H   0  0  0  0  0  0  0  0  0  0  0  0
   40.7370   23.4620   37.7080 H   0  0  0  0  0  0  0  0  0  0  0  0
   40.6990   22.6450   35.3950 H   0  0  0  0  0  0  0  0  0  0  0  0
   40.5670   25.3450   35.0130 C   0  0  0  0  0  0  0  0  0  0  0  0
   40.2350   26.5540   34.4050 C   0  0  0  0  0  0  0  0  0  0  0  0
   41.2450   27.3130   33.8420 C   0  0  0  0  0  0  0  0  0  0  0  0
   42.5150   26.8390   33.9110 N   0  0  0  0  0  0  0  0  0  0  0  0
   42.7970   25.6750   34.5010 C   0  0  0  0  0  0  0  0  0  0  0  0
   41.8200   24.9240   35.0540 N   0  0  0  0  0  0  0  0  0  0  0  0
   39.1970   26.8500   34.3990 H   0  0  0  0  0  0  0  0  0  0  0  0
   40.9980   28.2550   33.3680 H   0  0  0  0  0  0  0  0  0  0  0  0
   43.8390   25.3280   34.5350 H   0  0  0  0  0  0  0  0  0  0  0  0
   38.6580   22.3360   35.4750 O   0  0  0  0  0  0  0  0  0  0  0  0
   36.0490   21.0620   35.5020 Cl  0  0  0  0  0  0  0  0  0  0  0  0
   37.0670   21.4360   34.1120 C   0  0  0  0  0  0  0  0  0  0  0  0
   38.3080   22.0490   34.1750 C   0  0  0  0  0  0  0  0  0  0  0  0
   38.9770   22.2720   32.9960 C   0  0  0  0  0  0  0  0  0  0  0  0
   39.9320   22.7500   33.1200 H   0  0  0  0  0  0  0  0  0  0  0  0
   38.4300   21.8970   31.7920 C   0  0  0  0  0  0  0  0  0  0  0  0
   38.9890   22.0920   30.8980 H   0  0  0  0  0  0  0  0  0  0  0  0
   37.1980   21.2870   31.7090 C   0  0  0  0  0  0  0  0  0  0  0  0
   36.7750   20.9960   30.7620 H   0  0  0  0  0  0  0  0  0  0  0  0
   36.5020   21.0530   32.9000 C   0  0  0  0  0  0  0  0  0  0  0  0
   34.9420   20.2760   32.7480 Cl  0  0  0  0  0  0  0  0  0  0  0  0
  1  6  1  0  0  0  0
  1  2  1  0  0  0  0
  2  3  1  0  0  0  0
  3  9  1  0  0  0  0
  3  4  1  0  0  0  0
  3 10  1  0  0  0  0
  4 11  1  0  0  0  0
  5 13  1  0  0  0  0
  5 14  1  0  0  0  0
  5  4  1  0  0  0  0
  6 15  1  6  0  0  0
  6  5  1  0  0  0  0
  7  2  1  0  0  0  0
  8  2  1  0  0  0  0
 12  4  1  0  0  0  0
 16 21  1  0  0  0  0
 16  1  1  0  0  0  0
 17 16  2  0  0  0  0
 18 19  2  0  0  0  0
 18 17  1  0  0  0  0
 19 20  1  0  0  0  0
 20 24  1  0  0  0  0
 20 21  2  0  0  0  0
 22 17  1  0  0  0  0
 23 18  1  0  0  0  0
 25  6  1  0  0  0  0
 27 28  1  0  0  0  0
 27 26  1  0  0  0  0
 28 25  1  0  0  0  0
 29 30  1  0  0  0  0
 29 28  2  0  0  0  0
 31 29  1  0  0  0  0
 32 31  1  0  0  0  0
 33 31  2  0  0  0  0
 33 35  1  0  0  0  0
 34 33  1  0  0  0  0
 35 27  2  0  0  0  0
 36 35  1  0  0  0  0
M  END
>  <minimizedAffinity>
-5.12206745

$$$$
