
 OpenBabel03272504573D

 35 37  0  0  1  0  0  0  0  0999 V2000
   36.4170   29.9190   49.4300 C   0  0  1  0  0  0  0  0  0  0  0  0
   35.1510   30.2210   50.0530 C   0  0  0  0  0  0  0  0  0  0  0  0
   35.1890   29.6230   48.6830 C   0  0  2  0  0  0  0  0  0  0  0  0
   37.0300   28.9890   49.6970 H   0  0  0  0  0  0  0  0  0  0  0  0
   35.1500   29.7660   51.0230 H   0  0  0  0  0  0  0  0  0  0  0  0
   34.8700   31.2940   50.1010 H   0  0  0  0  0  0  0  0  0  0  0  0
   34.6110   30.2250   48.0000 H   0  0  0  0  0  0  0  0  0  0  0  0
   37.2870   31.0190   48.8890 C   0  0  0  0  0  0  0  0  0  0  0  0
   38.0050   31.7600   49.8500 C   0  0  0  0  0  0  0  0  0  0  0  0
   38.7970   32.7590   49.3370 C   0  0  0  0  0  0  0  0  0  0  0  0
   38.8480   32.9750   48.0040 N   0  0  0  0  0  0  0  0  0  0  0  0
   38.1390   32.2370   47.1050 C   0  0  0  0  0  0  0  0  0  0  0  0
   37.3360   31.2290   47.5740 N   0  0  0  0  0  0  0  0  0  0  0  0
   38.1950   32.4250   45.7190 N   0  0  0  0  0  0  0  0  0  0  0  0
   37.9730   31.5980   50.9030 H   0  0  0  0  0  0  0  0  0  0  0  0
   39.3970   33.4000   49.9510 H   0  0  0  0  0  0  0  0  0  0  0  0
   38.8700   31.8630   45.1490 H   0  0  0  0  0  0  0  0  0  0  0  0
   37.5920   33.1060   45.1980 H   0  0  0  0  0  0  0  0  0  0  0  0
   34.8520   28.2660   48.6160 O   0  0  0  0  0  0  0  0  0  0  0  0
   33.0810   26.6440   47.6790 O   0  0  0  0  0  0  0  0  0  0  0  0
   33.3020   28.0820   48.0280 P   0  0  1  0  0  0  0  0  0  0  0  0
   32.1830   28.3220   49.3440 O   0  0  0  0  0  0  0  0  0  0  0  0
   31.3230   28.5640   48.9230 H   0  0  0  0  0  0  0  0  0  0  0  0
   33.0040   29.1760   46.8410 O   0  0  0  0  0  0  0  0  0  0  0  0
   30.0310   29.5880   46.4520 Cl  0  0  0  0  0  0  0  0  0  0  0  0
   31.1880   29.3050   45.2040 C   0  0  0  0  0  0  0  0  0  0  0  0
   32.4990   29.1440   45.6050 C   0  0  0  0  0  0  0  0  0  0  0  0
   33.4440   28.9140   44.5910 C   0  0  0  0  0  0  0  0  0  0  0  0
   34.5030   28.7710   44.7720 H   0  0  0  0  0  0  0  0  0  0  0  0
   33.0130   28.8610   43.2600 C   0  0  0  0  0  0  0  0  0  0  0  0
   33.7340   28.6840   42.4670 H   0  0  0  0  0  0  0  0  0  0  0  0
   31.7040   29.0280   42.9130 C   0  0  0  0  0  0  0  0  0  0  0  0
   31.3990   28.9840   41.8930 H   0  0  0  0  0  0  0  0  0  0  0  0
   30.7730   29.2520   43.8880 C   0  0  0  0  0  0  0  0  0  0  0  0
   29.0950   29.4730   43.5310 Cl  0  0  0  0  0  0  0  0  0  0  0  0
  1  4  1  1  0  0  0
  1  2  1  0  0  0  0
  2  6  1  0  0  0  0
  2  5  1  0  0  0  0
  3  7  1  6  0  0  0
  3  1  1  0  0  0  0
  3  2  1  0  0  0  0
  8  1  1  0  0  0  0
  8  9  1  0  0  0  0
  9 15  1  0  0  0  0
 10  9  2  0  0  0  0
 10 16  1  0  0  0  0
 11 10  1  0  0  0  0
 12 13  1  0  0  0  0
 12 11  2  0  0  0  0
 13  8  2  0  0  0  0
 14 12  1  0  0  0  0
 17 14  1  0  0  0  0
 18 14  1  0  0  0  0
 19  3  1  0  0  0  0
 21 20  2  6  0  0  0
 21 19  1  0  0  0  0
 21 22  1  0  0  0  0
 23 22  1  0  0  0  0
 24 21  1  0  0  0  0
 26 27  1  0  0  0  0
 26 25  1  0  0  0  0
 27 24  1  0  0  0  0
 28 29  1  0  0  0  0
 28 27  2  0  0  0  0
 30 28  1  0  0  0  0
 31 30  1  0  0  0  0
 32 30  2  0  0  0  0
 32 34  1  0  0  0  0
 33 32  1  0  0  0  0
 34 26  2  0  0  0  0
 35 34  1  0  0  0  0
M  END
>  <minimizedAffinity>
-4.83515596

>  <minimizedRMSD>
3.59400249

$$$$
