
 OpenBabel03272502273D

 42 45  0  0  0  0  0  0  0  0999 V2000
   34.5630   28.5600   49.6920 O   0  0  0  0  0  0  0  0  0  0  0  0
   33.6210   26.5740   46.7480 N   0  0  0  0  0  0  0  0  0  0  0  0
   34.1150   26.8110   47.9690 C   0  0  0  0  0  0  0  0  0  0  0  0
   34.1080   28.0960   48.4710 C   0  0  0  0  0  0  0  0  0  0  0  0
   33.5810   29.1170   47.6860 C   0  0  0  0  0  0  0  0  0  0  0  0
   33.4760   30.3530   47.9500 O   0  0  0  0  0  0  0  0  0  0  0  0
   33.0920   28.8430   46.4600 N   0  0  0  0  0  0  0  0  0  0  0  0
   33.1080   27.5670   45.9830 C   0  0  0  0  0  0  0  0  0  0  0  0
   32.6650   27.2420   44.8420 O   0  0  0  0  0  0  0  0  0  0  0  0
   33.6770   25.5700   46.4740 H   0  0  0  0  0  0  0  0  0  0  0  0
   34.5330   26.0920   48.6310 H   0  0  0  0  0  0  0  0  0  0  0  0
   30.1150   29.3570   46.6410 Cl  0  0  0  0  0  0  0  0  0  0  0  0
   31.2010   30.1580   45.5240 C   0  0  0  0  0  0  0  0  0  0  0  0
   32.5310   29.8080   45.5710 C   0  0  0  0  0  0  0  0  0  0  0  0
   33.4660   30.3970   44.7160 C   0  0  0  0  0  0  0  0  0  0  0  0
   34.5240   30.1480   44.7220 H   0  0  0  0  0  0  0  0  0  0  0  0
   33.0180   31.3580   43.8050 C   0  0  0  0  0  0  0  0  0  0  0  0
   33.6820   31.8700   43.1000 H   0  0  0  0  0  0  0  0  0  0  0  0
   31.6700   31.7190   43.7510 C   0  0  0  0  0  0  0  0  0  0  0  0
   31.3080   32.4700   43.0420 H   0  0  0  0  0  0  0  0  0  0  0  0
   30.7700   31.1110   44.6170 C   0  0  0  0  0  0  0  0  0  0  0  0
   29.0670   31.5290   44.5880 Cl  0  0  0  0  0  0  0  0  0  0  0  0
   37.5970   30.1240   50.8740 C   0  0  0  0  0  0  0  0  0  0  0  0
   38.0980   30.6990   49.6930 C   0  0  0  0  0  0  0  0  0  0  0  0
   37.3460   30.5110   48.5340 C   0  0  0  0  0  0  0  0  0  0  0  0
   36.2210   29.8050   48.6330 N   0  0  0  0  0  0  0  0  0  0  0  0
   35.7560   29.2630   49.7710 C   0  0  0  0  0  0  0  0  0  0  0  0
   36.4560   29.4280   50.9020 N   0  0  0  0  0  0  0  0  0  0  0  0
   38.1720   30.2600   51.8030 H   0  0  0  0  0  0  0  0  0  0  0  0
   39.0110   31.2610   49.6520 H   0  0  0  0  0  0  0  0  0  0  0  0
   37.7460   31.0590   47.2540 C   0  0  0  0  0  0  0  0  0  0  0  0
   37.0320   30.7570   46.1040 C   0  0  0  0  0  0  0  0  0  0  0  0
   37.3550   31.2550   44.8730 C   0  0  0  0  0  0  0  0  0  0  0  0
   38.4180   32.0790   44.7570 N   0  0  0  0  0  0  0  0  0  0  0  0
   39.1040   32.3630   45.8840 C   0  0  0  0  0  0  0  0  0  0  0  0
   38.8070   31.8880   47.1040 N   0  0  0  0  0  0  0  0  0  0  0  0
   36.1740   30.0910   46.2000 H   0  0  0  0  0  0  0  0  0  0  0  0
   36.7620   30.9860   44.0030 H   0  0  0  0  0  0  0  0  0  0  0  0
   40.2820   33.2720   45.7800 C   0  0  0  0  0  0  0  0  0  0  0  0
   40.3690   33.9730   46.9810 F   0  0  0  0  0  0  0  0  0  0  0  0
   41.4300   32.5480   45.5320 F   0  0  0  0  0  0  0  0  0  0  0  0
   40.1270   34.2070   44.7940 F   0  0  0  0  0  0  0  0  0  0  0  0
  1 27  1  0  0  0  0
  2  3  1  0  0  0  0
  3  4  2  0  0  0  0
  3 11  1  0  0  0  0
  4  1  1  0  0  0  0
  5  6  2  0  0  0  0
  5  4  1  0  0  0  0
  7  5  1  0  0  0  0
  8  7  1  0  0  0  0
  8  2  1  0  0  0  0
  9  8  2  0  0  0  0
 10  2  1  0  0  0  0
 13 14  1  0  0  0  0
 13 12  1  0  0  0  0
 14  7  1  0  0  0  0
 15 16  1  0  0  0  0
 15 14  2  0  0  0  0
 17 15  1  0  0  0  0
 18 17  1  0  0  0  0
 19 17  2  0  0  0  0
 19 21  1  0  0  0  0
 20 19  1  0  0  0  0
 21 13  2  0  0  0  0
 22 21  1  0  0  0  0
 23 28  1  0  0  0  0
 23 29  1  0  0  0  0
 24 23  2  0  0  0  0
 25 26  2  0  0  0  0
 25 24  1  0  0  0  0
 26 27  1  0  0  0  0
 27 28  2  0  0  0  0
 30 24  1  0  0  0  0
 31 25  1  0  0  0  0
 32 37  1  0  0  0  0
 32 31  2  0  0  0  0
 33 32  1  0  0  0  0
 34 33  2  0  0  0  0
 34 35  1  0  0  0  0
 35 36  2  0  0  0  0
 36 31  1  0  0  0  0
 38 33  1  0  0  0  0
 39 35  1  0  0  0  0
 39 40  1  0  0  0  0
 41 39  1  0  0  0  0
 42 39  1  0  0  0  0
M  END
>  <minimizedAffinity>
-6.81531763

>  <minimizedRMSD>
1.40483165

$$$$
