
 OpenBabel03272507473D

 48 52  0  0  0  0  0  0  0  0999 V2000
   32.2950   28.2180   47.3760 N   0  0  0  0  0  0  0  0  0  0  0  0
   32.6440   27.8090   48.6920 C   0  0  0  0  0  0  0  0  0  0  0  0
   33.8670   28.4030   49.2790 C   0  0  0  0  0  0  0  0  0  0  0  0
   35.0010   28.5990   48.3770 C   0  0  0  0  0  0  0  0  0  0  0  0
   34.5610   28.9600   46.9470 C   0  0  0  0  0  0  0  0  0  0  0  0
   33.4570   27.9750   46.5450 C   0  0  0  0  0  0  0  0  0  0  0  0
   31.7800   28.0200   49.3540 H   0  0  0  0  0  0  0  0  0  0  0  0
   32.7490   26.6930   48.7020 H   0  0  0  0  0  0  0  0  0  0  0  0
   33.4990   29.4450   49.5630 H   0  0  0  0  0  0  0  0  0  0  0  0
   34.1680   27.8320   50.1740 H   0  0  0  0  0  0  0  0  0  0  0  0
   35.6080   27.6770   48.2430 H   0  0  0  0  0  0  0  0  0  0  0  0
   35.4400   28.8140   46.3090 H   0  0  0  0  0  0  0  0  0  0  0  0
   34.1770   29.9850   46.9670 H   0  0  0  0  0  0  0  0  0  0  0  0
   33.8490   26.9480   46.6110 H   0  0  0  0  0  0  0  0  0  0  0  0
   33.2180   28.1500   45.4700 H   0  0  0  0  0  0  0  0  0  0  0  0
   36.1760   29.8490   50.1290 C   0  0  0  0  0  0  0  0  0  0  0  0
   35.9370   29.6810   48.7730 C   0  0  0  0  0  0  0  0  0  0  0  0
   36.4870   30.4660   47.7970 C   0  0  0  0  0  0  0  0  0  0  0  0
   37.3380   31.4950   48.1960 C   0  0  0  0  0  0  0  0  0  0  0  0
   37.5780   31.6660   49.5360 C   0  0  0  0  0  0  0  0  0  0  0  0
   37.0210   30.8690   50.5330 C   0  0  0  0  0  0  0  0  0  0  0  0
   38.4530   32.7470   49.7400 O   0  0  0  0  0  0  0  0  0  0  0  0
   38.9970   33.0110   48.4500 C   0  0  0  0  0  0  0  0  0  0  0  0
   38.0740   32.4810   47.5350 O   0  0  0  0  0  0  0  0  0  0  0  0
   35.8120   29.2900   50.9790 H   0  0  0  0  0  0  0  0  0  0  0  0
   36.2840   30.3100   46.7690 H   0  0  0  0  0  0  0  0  0  0  0  0
   37.2550   31.0630   51.5810 H   0  0  0  0  0  0  0  0  0  0  0  0
   39.9910   32.5800   48.3070 H   0  0  0  0  0  0  0  0  0  0  0  0
   38.9750   34.1290   48.3490 H   0  0  0  0  0  0  0  0  0  0  0  0
   31.0670   28.7620   46.9050 C   0  0  0  0  0  0  0  0  0  0  0  0
   30.8640   29.4240   45.6980 C   0  0  0  0  0  0  0  0  0  0  0  0
   29.5820   29.8760   45.4230 C   0  0  0  0  0  0  0  0  0  0  0  0
   28.5990   29.6530   46.3340 N   0  0  0  0  0  0  0  0  0  0  0  0
   28.8200   29.0090   47.4930 C   0  0  0  0  0  0  0  0  0  0  0  0
   30.0470   28.5700   47.7710 N   0  0  0  0  0  0  0  0  0  0  0  0
   31.7280   29.5290   45.0780 H   0  0  0  0  0  0  0  0  0  0  0  0
   29.4370   30.3900   44.4820 H   0  0  0  0  0  0  0  0  0  0  0  0
   29.1170   27.7240   50.2610 Cl  0  0  0  0  0  0  0  0  0  0  0  0
   27.6270   28.3130   49.5950 C   0  0  0  0  0  0  0  0  0  0  0  0
   27.6380   28.8690   48.3360 C   0  0  0  0  0  0  0  0  0  0  0  0
   26.4080   29.3030   47.8920 C   0  0  0  0  0  0  0  0  0  0  0  0
   26.2710   29.7630   46.9120 H   0  0  0  0  0  0  0  0  0  0  0  0
   25.2560   29.1860   48.6640 C   0  0  0  0  0  0  0  0  0  0  0  0
   24.2970   29.5390   48.2850 H   0  0  0  0  0  0  0  0  0  0  0  0
   25.2970   28.6220   49.9200 C   0  0  0  0  0  0  0  0  0  0  0  0
   24.3820   28.5520   50.4770 H   0  0  0  0  0  0  0  0  0  0  0  0
   26.5130   28.1770   50.3940 C   0  0  0  0  0  0  0  0  0  0  0  0
   26.5930   27.4560   51.9870 Cl  0  0  0  0  0  0  0  0  0  0  0  0
  1  2  1  0  0  0  0
  2  8  1  0  0  0  0
  2  3  1  0  0  0  0
  2  7  1  0  0  0  0
  3  9  1  0  0  0  0
  3 10  1  0  0  0  0
  4 17  1  0  0  0  0
  4  3  1  0  0  0  0
  5 13  1  0  0  0  0
  5  4  1  0  0  0  0
  6 14  1  0  0  0  0
  6  5  1  0  0  0  0
  6  1  1  0  0  0  0
 11  4  1  0  0  0  0
 12  5  1  0  0  0  0
 15  6  1  0  0  0  0
 16 21  1  0  0  0  0
 16 25  1  0  0  0  0
 17 16  2  0  0  0  0
 18 19  2  0  0  0  0
 18 17  1  0  0  0  0
 19 20  1  0  0  0  0
 20 22  1  0  0  0  0
 20 21  2  0  0  0  0
 21 27  1  0  0  0  0
 23 22  1  0  0  0  0
 24 19  1  0  0  0  0
 24 23  1  0  0  0  0
 26 18  1  0  0  0  0
 28 23  1  0  0  0  0
 29 23  1  0  0  0  0
 30  1  1  0  0  0  0
 30 35  1  0  0  0  0
 31 30  2  0  0  0  0
 32 31  1  0  0  0  0
 32 33  2  0  0  0  0
 33 34  1  0  0  0  0
 34 35  2  0  0  0  0
 34 40  1  0  0  0  0
 36 31  1  0  0  0  0
 37 32  1  0  0  0  0
 39 38  1  0  0  0  0
 39 47  1  0  0  0  0
 40 39  2  0  0  0  0
 41 40  1  0  0  0  0
 41 43  2  0  0  0  0
 42 41  1  0  0  0  0
 43 45  1  0  0  0  0
 44 43  1  0  0  0  0
 45 47  2  0  0  0  0
 45 46  1  0  0  0  0
 47 48  1  0  0  0  0
M  END
>  <minimizedAffinity>
-8.30923176

>  <minimizedRMSD>
1.14127207

$$$$
