
 OpenBabel03272500003D

 31 33  0  0  0  0  0  0  0  0999 V2000
   35.3800   30.4190   48.0360 C   0  0  0  0  0  0  0  0  0  0  0  0
   36.3940   30.2990   47.0710 C   0  0  0  0  0  0  0  0  0  0  0  0
   36.0110   30.0650   45.7670 C   0  0  0  0  0  0  0  0  0  0  0  0
   34.6730   29.9570   45.4570 N   0  0  0  0  0  0  0  0  0  0  0  0
   33.7280   30.0780   46.4110 C   0  0  0  0  0  0  0  0  0  0  0  0
   34.0710   30.3120   47.7180 N   0  0  0  0  0  0  0  0  0  0  0  0
   35.5560   30.6090   49.0870 H   0  0  0  0  0  0  0  0  0  0  0  0
   36.7660   29.9650   44.9880 H   0  0  0  0  0  0  0  0  0  0  0  0
   32.4200   27.4720   47.5720 Br  0  0  0  0  0  0  0  0  0  0  0  0
   31.5850   28.8660   46.5630 C   0  0  0  0  0  0  0  0  0  0  0  0
   32.3060   29.9630   46.1170 C   0  0  0  0  0  0  0  0  0  0  0  0
   31.6250   30.9160   45.3990 C   0  0  0  0  0  0  0  0  0  0  0  0
   30.2740   30.8230   45.1120 C   0  0  0  0  0  0  0  0  0  0  0  0
   29.5900   29.7210   45.5700 C   0  0  0  0  0  0  0  0  0  0  0  0
   30.2550   28.7380   46.3020 C   0  0  0  0  0  0  0  0  0  0  0  0
   32.1850   31.7730   45.0490 H   0  0  0  0  0  0  0  0  0  0  0  0
   29.8290   31.6070   44.5500 H   0  0  0  0  0  0  0  0  0  0  0  0
   28.5480   29.6710   45.3360 H   0  0  0  0  0  0  0  0  0  0  0  0
   29.6290   27.9090   46.6180 H   0  0  0  0  0  0  0  0  0  0  0  0
   37.6950   30.4130   47.4480 O   0  0  0  0  0  0  0  0  0  0  0  0
   38.0270   32.8120   49.2820 Cl  0  0  0  0  0  0  0  0  0  0  0  0
   38.8090   32.4030   47.7690 C   0  0  0  0  0  0  0  0  0  0  0  0
   38.6210   31.2750   46.9620 C   0  0  0  0  0  0  0  0  0  0  0  0
   39.3750   31.1780   45.8100 C   0  0  0  0  0  0  0  0  0  0  0  0
   39.1620   30.2700   45.2470 H   0  0  0  0  0  0  0  0  0  0  0  0
   40.2960   32.1170   45.4060 C   0  0  0  0  0  0  0  0  0  0  0  0
   40.8130   31.9050   44.4770 H   0  0  0  0  0  0  0  0  0  0  0  0
   40.4730   33.2250   46.2080 C   0  0  0  0  0  0  0  0  0  0  0  0
   41.2050   33.9370   45.8530 H   0  0  0  0  0  0  0  0  0  0  0  0
   39.7430   33.3660   47.3690 C   0  0  0  0  0  0  0  0  0  0  0  0
   40.0990   34.8310   48.2580 Cl  0  0  0  0  0  0  0  0  0  0  0  0
  1  7  1  0  0  0  0
  2 20  1  0  0  0  0
  2  1  2  0  0  0  0
  3  2  1  0  0  0  0
  4  3  2  0  0  0  0
  4  5  1  0  0  0  0
  5  6  2  0  0  0  0
  6  1  1  0  0  0  0
  8  3  1  0  0  0  0
 10  9  1  0  0  0  0
 11  5  1  0  0  0  0
 11 10  2  0  0  0  0
 12 11  1  0  0  0  0
 13 12  2  0  0  0  0
 13 14  1  0  0  0  0
 14 15  2  0  0  0  0
 15 10  1  0  0  0  0
 15 19  1  0  0  0  0
 16 12  1  0  0  0  0
 17 13  1  0  0  0  0
 18 14  1  0  0  0  0
 22 21  1  0  0  0  0
 23 20  1  0  0  0  0
 23 22  2  0  0  0  0
 24 23  1  0  0  0  0
 25 24  1  0  0  0  0
 26 24  2  0  0  0  0
 26 28  1  0  0  0  0
 27 26  1  0  0  0  0
 28 30  2  0  0  0  0
 29 28  1  0  0  0  0
 30 22  1  0  0  0  0
 30 31  1  0  0  0  0
M  END
>  <minimizedAffinity>
-4.98845434

>  <minimizedRMSD>
5.06033897

$$$$
