
 OpenBabel03272502193D

 35 37  0  0  1  0  0  0  0  0999 V2000
   38.0190   25.7000   32.6900 C   0  0  0  0  0  0  0  0  0  0  0  0
   37.4700   24.7260   31.8290 C   0  0  0  0  0  0  0  0  0  0  0  0
   37.2640   23.4440   32.3170 C   0  0  0  0  0  0  0  0  0  0  0  0
   37.6160   23.2120   33.6200 N   0  0  0  0  0  0  0  0  0  0  0  0
   38.1330   24.1390   34.4240 C   0  0  0  0  0  0  0  0  0  0  0  0
   38.3310   25.3750   33.9520 N   0  0  0  0  0  0  0  0  0  0  0  0
   37.1900   24.8870   30.8120 H   0  0  0  0  0  0  0  0  0  0  0  0
   36.8490   22.6700   31.6970 H   0  0  0  0  0  0  0  0  0  0  0  0
   40.5250   22.3930   34.7180 Cl  0  0  0  0  0  0  0  0  0  0  0  0
   39.5750   23.0060   36.0620 C   0  0  0  0  0  0  0  0  0  0  0  0
   38.4820   23.8110   35.8050 C   0  0  0  0  0  0  0  0  0  0  0  0
   37.7270   24.2990   36.8540 C   0  0  0  0  0  0  0  0  0  0  0  0
   36.8650   24.9320   36.6850 H   0  0  0  0  0  0  0  0  0  0  0  0
   38.0420   23.9990   38.1780 C   0  0  0  0  0  0  0  0  0  0  0  0
   37.4550   24.3770   39.0160 H   0  0  0  0  0  0  0  0  0  0  0  0
   39.1420   23.1890   38.4260 C   0  0  0  0  0  0  0  0  0  0  0  0
   39.4420   22.9180   39.4340 H   0  0  0  0  0  0  0  0  0  0  0  0
   39.8990   22.6990   37.3800 C   0  0  0  0  0  0  0  0  0  0  0  0
   41.3010   21.6700   37.6560 Cl  0  0  0  0  0  0  0  0  0  0  0  0
   38.2230   27.2900   31.9240 S   0  0  0  0  0  0  0  0  0  0  0  0
   36.6840   27.7680   29.7500 N   0  0  0  0  0  0  0  0  0  0  0  0
   36.6270   27.8600   31.1930 C   0  0  2  0  0  0  0  0  0  0  0  0
   36.4240   29.3040   31.5560 C   0  0  0  0  0  0  0  0  0  0  0  0
   35.9440   30.0430   30.4540 O   0  0  0  0  0  0  0  0  0  0  0  0
   37.0370   30.1130   29.5790 C   0  0  0  0  0  0  0  0  0  0  0  0
   37.6150   28.7620   29.2720 C   0  0  2  0  0  0  0  0  0  0  0  0
   36.9640   26.8130   29.4210 H   0  0  0  0  0  0  0  0  0  0  0  0
   35.8650   27.1870   31.5920 H   0  0  0  0  0  0  0  0  0  0  0  0
   37.3780   29.8050   31.8310 H   0  0  0  0  0  0  0  0  0  0  0  0
   35.6790   29.3380   32.3800 H   0  0  0  0  0  0  0  0  0  0  0  0
   36.6580   30.6080   28.6520 H   0  0  0  0  0  0  0  0  0  0  0  0
   37.8000   30.7880   30.0280 H   0  0  0  0  0  0  0  0  0  0  0  0
   38.5820   28.5720   29.7710 H   0  0  0  0  0  0  0  0  0  0  0  0
   37.7470   28.5960   27.8780 O   0  0  0  0  0  0  0  0  0  0  0  0
   38.5590   28.0790   27.7260 H   0  0  0  0  0  0  0  0  0  0  0  0
  1  6  1  0  0  0  0
  2  3  1  0  0  0  0
  2  1  2  0  0  0  0
  3  4  2  0  0  0  0
  4  5  1  0  0  0  0
  5 11  1  0  0  0  0
  6  5  2  0  0  0  0
  7  2  1  0  0  0  0
  8  3  1  0  0  0  0
  9 10  1  0  0  0  0
 10 18  1  0  0  0  0
 11 10  2  0  0  0  0
 11 12  1  0  0  0  0
 12 14  2  0  0  0  0
 13 12  1  0  0  0  0
 14 16  1  0  0  0  0
 14 15  1  0  0  0  0
 16 17  1  0  0  0  0
 18 19  1  0  0  0  0
 18 16  2  0  0  0  0
 20  1  1  0  0  0  0
 21 22  1  0  0  0  0
 22 23  1  0  0  0  0
 22 28  1  1  0  0  0
 22 20  1  0  0  0  0
 23 29  1  0  0  0  0
 23 30  1  0  0  0  0
 24 23  1  0  0  0  0
 25 32  1  0  0  0  0
 25 24  1  0  0  0  0
 26 25  1  0  0  0  0
 26 21  1  0  0  0  0
 26 33  1  1  0  0  0
 27 21  1  0  0  0  0
 31 25  1  0  0  0  0
 34 26  1  0  0  0  0
 35 34  1  0  0  0  0
M  END
>  <minimizedAffinity>
-6.01823997

$$$$

 OpenBabel03272502193D

 35 37  0  0  1  0  0  0  0  0999 V2000
   36.5540   28.6570   32.3810 C   0  0  0  0  0  0  0  0  0  0  0  0
   36.3210   29.3180   31.1560 C   0  0  0  0  0  0  0  0  0  0  0  0
   35.5590   30.4780   31.1590 C   0  0  0  0  0  0  0  0  0  0  0  0
   35.0800   30.9040   32.3690 N   0  0  0  0  0  0  0  0  0  0  0  0
   35.3070   30.2710   33.5180 C   0  0  0  0  0  0  0  0  0  0  0  0
   36.0420   29.1530   33.5140 N   0  0  0  0  0  0  0  0  0  0  0  0
   36.6850   29.0030   30.2040 H   0  0  0  0  0  0  0  0  0  0  0  0
   35.3550   31.0140   30.2490 H   0  0  0  0  0  0  0  0  0  0  0  0
   32.5200   29.4100   34.1060 Cl  0  0  0  0  0  0  0  0  0  0  0  0
   33.4730   30.4570   35.1460 C   0  0  0  0  0  0  0  0  0  0  0  0
   34.7600   30.7920   34.7700 C   0  0  0  0  0  0  0  0  0  0  0  0
   35.5190   31.6150   35.5790 C   0  0  0  0  0  0  0  0  0  0  0  0
   36.5310   31.8950   35.3120 H   0  0  0  0  0  0  0  0  0  0  0  0
   35.0170   32.1220   36.7760 C   0  0  0  0  0  0  0  0  0  0  0  0
   35.6050   32.7720   37.4250 H   0  0  0  0  0  0  0  0  0  0  0  0
   33.7230   31.7800   37.1450 C   0  0  0  0  0  0  0  0  0  0  0  0
   33.2720   32.1410   38.0650 H   0  0  0  0  0  0  0  0  0  0  0  0
   32.9610   30.9570   36.3390 C   0  0  0  0  0  0  0  0  0  0  0  0
   31.3160   30.5020   36.7740 Cl  0  0  0  0  0  0  0  0  0  0  0  0
   37.5440   27.1900   32.2180 S   0  0  0  0  0  0  0  0  0  0  0  0
   37.2720   26.6730   34.8600 N   0  0  0  0  0  0  0  0  0  0  0  0
   37.1640   26.0050   33.5800 C   0  0  2  0  0  0  0  0  0  0  0  0
   38.1820   24.9000   33.5500 C   0  0  0  0  0  0  0  0  0  0  0  0
   38.6200   24.5750   34.8510 O   0  0  0  0  0  0  0  0  0  0  0  0
   39.3960   25.6740   35.2420 C   0  0  0  0  0  0  0  0  0  0  0  0
   38.6630   26.9770   35.0930 C   0  0  2  0  0  0  0  0  0  0  0  0
   36.6920   27.5450   34.9060 H   0  0  0  0  0  0  0  0  0  0  0  0
   36.1390   25.6730   33.4040 H   0  0  0  0  0  0  0  0  0  0  0  0
   39.1090   25.1980   33.0120 H   0  0  0  0  0  0  0  0  0  0  0  0
   37.6960   24.0130   33.0880 H   0  0  0  0  0  0  0  0  0  0  0  0
   39.6760   25.4910   36.3080 H   0  0  0  0  0  0  0  0  0  0  0  0
   40.3360   25.6680   34.6450 H   0  0  0  0  0  0  0  0  0  0  0  0
   39.0130   27.5850   34.2400 H   0  0  0  0  0  0  0  0  0  0  0  0
   38.7490   27.7210   36.2880 O   0  0  0  0  0  0  0  0  0  0  0  0
   38.8120   28.6610   36.0370 H   0  0  0  0  0  0  0  0  0  0  0  0
  1  6  1  0  0  0  0
  2  3  1  0  0  0  0
  2  1  2  0  0  0  0
  3  4  2  0  0  0  0
  4  5  1  0  0  0  0
  5 11  1  0  0  0  0
  6  5  2  0  0  0  0
  7  2  1  0  0  0  0
  8  3  1  0  0  0  0
  9 10  1  0  0  0  0
 10 18  1  0  0  0  0
 11 10  2  0  0  0  0
 11 12  1  0  0  0  0
 12 14  2  0  0  0  0
 13 12  1  0  0  0  0
 14 16  1  0  0  0  0
 14 15  1  0  0  0  0
 16 17  1  0  0  0  0
 18 19  1  0  0  0  0
 18 16  2  0  0  0  0
 20  1  1  0  0  0  0
 20 22  1  0  0  0  0
 21 27  1  0  0  0  0
 21 26  1  0  0  0  0
 22 28  1  6  0  0  0
 22 21  1  0  0  0  0
 23 22  1  0  0  0  0
 23 24  1  0  0  0  0
 24 25  1  0  0  0  0
 25 31  1  0  0  0  0
 26 33  1  6  0  0  0
 26 25  1  0  0  0  0
 26 34  1  0  0  0  0
 29 23  1  0  0  0  0
 30 23  1  0  0  0  0
 32 25  1  0  0  0  0
 35 34  1  0  0  0  0
M  END
>  <minimizedAffinity>
-5.80773973

$$$$

 OpenBabel03272502193D

 35 37  0  0  1  0  0  0  0  0999 V2000
   37.1830   23.4620   32.3800 C   0  0  0  0  0  0  0  0  0  0  0  0
   36.4030   22.3200   32.1030 C   0  0  0  0  0  0  0  0  0  0  0  0
   36.3430   21.3070   33.0480 C   0  0  0  0  0  0  0  0  0  0  0  0
   37.0570   21.4910   34.2020 N   0  0  0  0  0  0  0  0  0  0  0  0
   37.7910   22.5730   34.4530 C   0  0  0  0  0  0  0  0  0  0  0  0
   37.8480   23.5500   33.5400 N   0  0  0  0  0  0  0  0  0  0  0  0
   35.8390   22.1580   31.2110 H   0  0  0  0  0  0  0  0  0  0  0  0
   35.7610   20.4190   32.8790 H   0  0  0  0  0  0  0  0  0  0  0  0
   40.6300   21.6920   34.3210 Cl  0  0  0  0  0  0  0  0  0  0  0  0
   39.8530   22.3140   35.7680 C   0  0  0  0  0  0  0  0  0  0  0  0
   38.5250   22.6940   35.7110 C   0  0  0  0  0  0  0  0  0  0  0  0
   37.9030   23.1850   36.8430 C   0  0  0  0  0  0  0  0  0  0  0  0
   36.8640   23.4910   36.8300 H   0  0  0  0  0  0  0  0  0  0  0  0
   38.5840   23.3090   38.0520 C   0  0  0  0  0  0  0  0  0  0  0  0
   38.1060   23.6950   38.9530 H   0  0  0  0  0  0  0  0  0  0  0  0
   39.9180   22.9240   38.0990 C   0  0  0  0  0  0  0  0  0  0  0  0
   40.5060   22.9950   39.0090 H   0  0  0  0  0  0  0  0  0  0  0  0
   40.5440   22.4330   36.9690 C   0  0  0  0  0  0  0  0  0  0  0  0
   42.2330   21.9360   36.9910 Cl  0  0  0  0  0  0  0  0  0  0  0  0
   37.1620   24.6710   31.0770 S   0  0  0  0  0  0  0  0  0  0  0  0
   35.8530   26.9330   30.3770 N   0  0  0  0  0  0  0  0  0  0  0  0
   36.0610   26.0810   31.5280 C   0  0  2  0  0  0  0  0  0  0  0  0
   36.7420   26.8990   32.5900 C   0  0  0  0  0  0  0  0  0  0  0  0
   36.6000   28.2800   32.3380 O   0  0  0  0  0  0  0  0  0  0  0  0
   37.4130   28.5160   31.2220 C   0  0  0  0  0  0  0  0  0  0  0  0
   37.0990   27.5960   30.0760 C   0  0  2  0  0  0  0  0  0  0  0  0
   35.5100   26.4000   29.5420 H   0  0  0  0  0  0  0  0  0  0  0  0
   35.1200   25.6290   31.8480 H   0  0  0  0  0  0  0  0  0  0  0  0
   37.8410   26.7320   32.6060 H   0  0  0  0  0  0  0  0  0  0  0  0
   36.2650   26.6450   33.5610 H   0  0  0  0  0  0  0  0  0  0  0  0
   37.2440   29.5830   30.9380 H   0  0  0  0  0  0  0  0  0  0  0  0
   38.4760   28.4210   31.5380 H   0  0  0  0  0  0  0  0  0  0  0  0
   37.8590   26.8110   29.9210 H   0  0  0  0  0  0  0  0  0  0  0  0
   36.9190   28.3410   28.8920 O   0  0  0  0  0  0  0  0  0  0  0  0
   37.2790   27.8070   28.1610 H   0  0  0  0  0  0  0  0  0  0  0  0
  1  6  1  0  0  0  0
  2  1  2  0  0  0  0
  2  3  1  0  0  0  0
  3  4  2  0  0  0  0
  4  5  1  0  0  0  0
  5 11  1  0  0  0  0
  6  5  2  0  0  0  0
  7  2  1  0  0  0  0
  8  3  1  0  0  0  0
  9 10  1  0  0  0  0
 10 18  1  0  0  0  0
 11 10  2  0  0  0  0
 11 12  1  0  0  0  0
 12 14  2  0  0  0  0
 13 12  1  0  0  0  0
 14 16  1  0  0  0  0
 14 15  1  0  0  0  0
 16 17  1  0  0  0  0
 18 19  1  0  0  0  0
 18 16  2  0  0  0  0
 20 22  1  0  0  0  0
 20  1  1  0  0  0  0
 21 22  1  0  0  0  0
 22 28  1  1  0  0  0
 22 23  1  0  0  0  0
 23 29  1  0  0  0  0
 23 30  1  0  0  0  0
 24 23  1  0  0  0  0
 25 32  1  0  0  0  0
 25 24  1  0  0  0  0
 26 33  1  6  0  0  0
 26 21  1  0  0  0  0
 26 25  1  0  0  0  0
 27 21  1  0  0  0  0
 31 25  1  0  0  0  0
 34 26  1  0  0  0  0
 35 34  1  0  0  0  0
M  END
>  <minimizedAffinity>
-5.7770257

$$$$

 OpenBabel03272502193D

 35 37  0  0  1  0  0  0  0  0999 V2000
   37.6190   25.4070   33.8880 C   0  0  0  0  0  0  0  0  0  0  0  0
   37.4460   24.3210   33.0040 C   0  0  0  0  0  0  0  0  0  0  0  0
   36.8820   24.5570   31.7590 C   0  0  0  0  0  0  0  0  0  0  0  0
   36.5260   25.8480   31.4740 N   0  0  0  0  0  0  0  0  0  0  0  0
   36.6930   26.8660   32.3160 C   0  0  0  0  0  0  0  0  0  0  0  0
   37.2390   26.6360   33.5160 N   0  0  0  0  0  0  0  0  0  0  0  0
   37.7170   23.3090   33.2080 H   0  0  0  0  0  0  0  0  0  0  0  0
   36.7310   23.7600   31.0540 H   0  0  0  0  0  0  0  0  0  0  0  0
   38.6260   28.2910   30.5580 Cl  0  0  0  0  0  0  0  0  0  0  0  0
   37.1080   28.9740   31.1190 C   0  0  0  0  0  0  0  0  0  0  0  0
   36.2880   28.2170   31.9350 C   0  0  0  0  0  0  0  0  0  0  0  0
   35.0910   28.7430   32.3830 C   0  0  0  0  0  0  0  0  0  0  0  0
   34.4270   28.1760   33.0230 H   0  0  0  0  0  0  0  0  0  0  0  0
   34.6860   30.0290   32.0320 C   0  0  0  0  0  0  0  0  0  0  0  0
   33.7450   30.4580   32.3780 H   0  0  0  0  0  0  0  0  0  0  0  0
   35.5170   30.7820   31.2120 C   0  0  0  0  0  0  0  0  0  0  0  0
   35.2590   31.7900   30.9010 H   0  0  0  0  0  0  0  0  0  0  0  0
   36.7130   30.2580   30.7620 C   0  0  0  0  0  0  0  0  0  0  0  0
   37.7930   31.1830   29.7220 Cl  0  0  0  0  0  0  0  0  0  0  0  0
   38.3530   24.9490   35.4400 S   0  0  0  0  0  0  0  0  0  0  0  0
   38.2210   22.6060   36.7880 N   0  0  0  0  0  0  0  0  0  0  0  0
   38.6370   23.1260   35.5030 C   0  0  2  0  0  0  0  0  0  0  0  0
   40.1100   22.8670   35.3540 C   0  0  0  0  0  0  0  0  0  0  0  0
   40.5450   21.8720   36.2550 O   0  0  0  0  0  0  0  0  0  0  0  0
   40.4840   22.4900   37.5110 C   0  0  0  0  0  0  0  0  0  0  0  0
   39.1380   23.0960   37.7900 C   0  0  2  0  0  0  0  0  0  0  0  0
   37.2370   22.8720   37.0280 H   0  0  0  0  0  0  0  0  0  0  0  0
   38.0260   22.7060   34.7010 H   0  0  0  0  0  0  0  0  0  0  0  0
   40.7200   23.7600   35.6100 H   0  0  0  0  0  0  0  0  0  0  0  0
   40.2830   22.5250   34.3100 H   0  0  0  0  0  0  0  0  0  0  0  0
   40.7280   21.6960   38.2580 H   0  0  0  0  0  0  0  0  0  0  0  0
   41.2910   23.2560   37.5640 H   0  0  0  0  0  0  0  0  0  0  0  0
   39.1290   24.1980   37.7290 H   0  0  0  0  0  0  0  0  0  0  0  0
   38.6670   22.6740   39.0500 O   0  0  0  0  0  0  0  0  0  0  0  0
   38.1820   23.4240   39.4410 H   0  0  0  0  0  0  0  0  0  0  0  0
  1 20  1  0  0  0  0
  2  7  1  0  0  0  0
  2  1  2  0  0  0  0
  3  2  1  0  0  0  0
  4  3  2  0  0  0  0
  4  5  1  0  0  0  0
  5  6  2  0  0  0  0
  6  1  1  0  0  0  0
  8  3  1  0  0  0  0
  9 10  1  0  0  0  0
 10 11  1  0  0  0  0
 11  5  1  0  0  0  0
 11 12  2  0  0  0  0
 12 13  1  0  0  0  0
 14 15  1  0  0  0  0
 14 12  1  0  0  0  0
 16 14  2  0  0  0  0
 17 16  1  0  0  0  0
 18 10  2  0  0  0  0
 18 16  1  0  0  0  0
 19 18  1  0  0  0  0
 20 22  1  0  0  0  0
 21 27  1  0  0  0  0
 21 26  1  0  0  0  0
 22 28  1  6  0  0  0
 22 21  1  0  0  0  0
 23 22  1  0  0  0  0
 23 29  1  0  0  0  0
 23 24  1  0  0  0  0
 24 25  1  0  0  0  0
 25 32  1  0  0  0  0
 25 26  1  0  0  0  0
 25 31  1  0  0  0  0
 26 33  1  6  0  0  0
 26 34  1  0  0  0  0
 30 23  1  0  0  0  0
 34 35  1  0  0  0  0
M  END
>  <minimizedAffinity>
-5.58921242

$$$$

 OpenBabel03272502193D

 35 37  0  0  1  0  0  0  0  0999 V2000
   36.4590   28.1300   32.7880 C   0  0  0  0  0  0  0  0  0  0  0  0
   36.5370   28.7970   31.5470 C   0  0  0  0  0  0  0  0  0  0  0  0
   36.0490   30.0920   31.4540 C   0  0  0  0  0  0  0  0  0  0  0  0
   35.5170   30.6380   32.5920 N   0  0  0  0  0  0  0  0  0  0  0  0
   35.4480   29.9990   33.7580 C   0  0  0  0  0  0  0  0  0  0  0  0
   35.9200   28.7500   33.8460 N   0  0  0  0  0  0  0  0  0  0  0  0
   36.9480   28.3890   30.6500 H   0  0  0  0  0  0  0  0  0  0  0  0
   36.0870   30.6380   30.5290 H   0  0  0  0  0  0  0  0  0  0  0  0
   32.5720   29.3880   34.2150 Cl  0  0  0  0  0  0  0  0  0  0  0  0
   33.5360   30.4420   35.2380 C   0  0  0  0  0  0  0  0  0  0  0  0
   34.8660   30.6530   34.9280 C   0  0  0  0  0  0  0  0  0  0  0  0
   35.6340   31.4800   35.7250 C   0  0  0  0  0  0  0  0  0  0  0  0
   36.6790   31.6650   35.5080 H   0  0  0  0  0  0  0  0  0  0  0  0
   35.0980   32.1130   36.8450 C   0  0  0  0  0  0  0  0  0  0  0  0
   35.6920   32.7670   37.4830 H   0  0  0  0  0  0  0  0  0  0  0  0
   33.7610   31.8940   37.1480 C   0  0  0  0  0  0  0  0  0  0  0  0
   33.2820   32.3570   38.0070 H   0  0  0  0  0  0  0  0  0  0  0  0
   32.9900   31.0680   36.3540 C   0  0  0  0  0  0  0  0  0  0  0  0
   31.2910   30.7680   36.7070 Cl  0  0  0  0  0  0  0  0  0  0  0  0
   37.1240   26.4820   32.7500 S   0  0  0  0  0  0  0  0  0  0  0  0
   36.4170   25.0060   30.5950 N   0  0  0  0  0  0  0  0  0  0  0  0
   37.4300   25.9530   31.0080 C   0  0  2  0  0  0  0  0  0  0  0  0
   38.7620   25.2600   30.9470 C   0  0  0  0  0  0  0  0  0  0  0  0
   38.6970   24.1020   30.1430 O   0  0  0  0  0  0  0  0  0  0  0  0
   37.9340   23.1990   30.8950 C   0  0  0  0  0  0  0  0  0  0  0  0
   36.6190   23.7800   31.3310 C   0  0  2  0  0  0  0  0  0  0  0  0
   35.4450   25.3690   30.7450 H   0  0  0  0  0  0  0  0  0  0  0  0
   37.3720   26.8650   30.4110 H   0  0  0  0  0  0  0  0  0  0  0  0
   39.0870   24.8880   31.9430 H   0  0  0  0  0  0  0  0  0  0  0  0
   39.4890   25.9780   30.5090 H   0  0  0  0  0  0  0  0  0  0  0  0
   37.7800   22.3060   30.2410 H   0  0  0  0  0  0  0  0  0  0  0  0
   38.5410   22.8720   31.7690 H   0  0  0  0  0  0  0  0  0  0  0  0
   36.5830   24.0340   32.4050 H   0  0  0  0  0  0  0  0  0  0  0  0
   35.5670   22.9000   31.0030 O   0  0  0  0  0  0  0  0  0  0  0  0
   34.9070   22.9640   31.7170 H   0  0  0  0  0  0  0  0  0  0  0  0
  1  6  1  0  0  0  0
  2  1  2  0  0  0  0
  3  2  1  0  0  0  0
  3  4  2  0  0  0  0
  4  5  1  0  0  0  0
  5  6  2  0  0  0  0
  5 11  1  0  0  0  0
  7  2  1  0  0  0  0
  8  3  1  0  0  0  0
  9 10  1  0  0  0  0
 10 18  1  0  0  0  0
 11 10  2  0  0  0  0
 11 12  1  0  0  0  0
 12 14  2  0  0  0  0
 13 12  1  0  0  0  0
 14 16  1  0  0  0  0
 14 15  1  0  0  0  0
 16 17  1  0  0  0  0
 18 19  1  0  0  0  0
 18 16  2  0  0  0  0
 20  1  1  0  0  0  0
 21 27  1  0  0  0  0
 21 22  1  0  0  0  0
 21 26  1  0  0  0  0
 22 28  1  6  0  0  0
 22 20  1  0  0  0  0
 23 22  1  0  0  0  0
 23 29  1  0  0  0  0
 24 25  1  0  0  0  0
 24 23  1  0  0  0  0
 25 26  1  0  0  0  0
 25 32  1  0  0  0  0
 26 33  1  1  0  0  0
 30 23  1  0  0  0  0
 31 25  1  0  0  0  0
 34 26  1  0  0  0  0
 34 35  1  0  0  0  0
M  END
>  <minimizedAffinity>
-5.53391123

$$$$

 OpenBabel03272502193D

 35 37  0  0  1  0  0  0  0  0999 V2000
   37.4520   23.7670   32.9720 C   0  0  0  0  0  0  0  0  0  0  0  0
   36.6720   22.8900   32.1880 C   0  0  0  0  0  0  0  0  0  0  0  0
   35.9140   23.4160   31.1530 C   0  0  0  0  0  0  0  0  0  0  0  0
   35.9760   24.7710   30.9640 N   0  0  0  0  0  0  0  0  0  0  0  0
   36.7150   25.5890   31.7100 C   0  0  0  0  0  0  0  0  0  0  0  0
   37.4460   25.0800   32.7080 N   0  0  0  0  0  0  0  0  0  0  0  0
   36.6110   21.8320   32.3190 H   0  0  0  0  0  0  0  0  0  0  0  0
   35.3050   22.7850   30.5300 H   0  0  0  0  0  0  0  0  0  0  0  0
   38.9260   26.5010   29.9400 Cl  0  0  0  0  0  0  0  0  0  0  0  0
   37.7100   27.5630   30.6330 C   0  0  0  0  0  0  0  0  0  0  0  0
   36.7280   27.0260   31.4430 C   0  0  0  0  0  0  0  0  0  0  0  0
   35.7660   27.8510   31.9940 C   0  0  0  0  0  0  0  0  0  0  0  0
   34.9840   27.4610   32.6330 H   0  0  0  0  0  0  0  0  0  0  0  0
   35.7600   29.2240   31.7530 C   0  0  0  0  0  0  0  0  0  0  0  0
   35.0080   29.8860   32.1810 H   0  0  0  0  0  0  0  0  0  0  0  0
   36.7520   29.7530   30.9380 C   0  0  0  0  0  0  0  0  0  0  0  0
   36.8040   30.8140   30.7090 H   0  0  0  0  0  0  0  0  0  0  0  0
   37.7150   28.9310   30.3850 C   0  0  0  0  0  0  0  0  0  0  0  0
   38.9870   29.5680   29.3460 Cl  0  0  0  0  0  0  0  0  0  0  0  0
   38.3660   22.9470   34.2560 S   0  0  0  0  0  0  0  0  0  0  0  0
   39.9790   23.5550   36.3420 N   0  0  0  0  0  0  0  0  0  0  0  0
   38.9980   24.1770   35.4790 C   0  0  2  0  0  0  0  0  0  0  0  0
   37.8500   24.6300   36.3370 C   0  0  0  0  0  0  0  0  0  0  0  0
   38.2280   24.7060   37.6940 O   0  0  0  0  0  0  0  0  0  0  0  0
   38.3760   23.3700   38.0900 C   0  0  0  0  0  0  0  0  0  0  0  0
   39.2980   22.6020   37.1860 C   0  0  2  0  0  0  0  0  0  0  0  0
   40.7460   23.0860   35.8040 H   0  0  0  0  0  0  0  0  0  0  0  0
   39.4550   24.9720   34.8870 H   0  0  0  0  0  0  0  0  0  0  0  0
   37.0060   23.9060   36.3240 H   0  0  0  0  0  0  0  0  0  0  0  0
   37.5450   25.6370   35.9780 H   0  0  0  0  0  0  0  0  0  0  0  0
   38.7720   23.4000   39.1340 H   0  0  0  0  0  0  0  0  0  0  0  0
   37.3660   22.9040   38.1300 H   0  0  0  0  0  0  0  0  0  0  0  0
   38.7730   21.8930   36.5210 H   0  0  0  0  0  0  0  0  0  0  0  0
   40.2720   21.9240   37.9480 O   0  0  0  0  0  0  0  0  0  0  0  0
   40.4450   21.0750   37.5020 H   0  0  0  0  0  0  0  0  0  0  0  0
  1 20  1  0  0  0  0
  2  7  1  0  0  0  0
  2  1  2  0  0  0  0
  3  2  1  0  0  0  0
  4  3  2  0  0  0  0
  4  5  1  0  0  0  0
  5  6  2  0  0  0  0
  6  1  1  0  0  0  0
  8  3  1  0  0  0  0
  9 10  1  0  0  0  0
 10 11  1  0  0  0  0
 11  5  1  0  0  0  0
 11 12  2  0  0  0  0
 12 13  1  0  0  0  0
 14 12  1  0  0  0  0
 14 15  1  0  0  0  0
 16 14  2  0  0  0  0
 17 16  1  0  0  0  0
 18 10  2  0  0  0  0
 18 16  1  0  0  0  0
 19 18  1  0  0  0  0
 20 22  1  0  0  0  0
 21 26  1  0  0  0  0
 22 28  1  6  0  0  0
 22 23  1  0  0  0  0
 22 21  1  0  0  0  0
 23 24  1  0  0  0  0
 24 25  1  0  0  0  0
 25 32  1  0  0  0  0
 25 31  1  0  0  0  0
 26 33  1  6  0  0  0
 26 34  1  0  0  0  0
 26 25  1  0  0  0  0
 27 21  1  0  0  0  0
 29 23  1  0  0  0  0
 30 23  1  0  0  0  0
 35 34  1  0  0  0  0
M  END
>  <minimizedAffinity>
-5.49443054

$$$$

 OpenBabel03272502193D

 35 37  0  0  1  0  0  0  0  0999 V2000
   37.3830   24.8450   32.2290 C   0  0  0  0  0  0  0  0  0  0  0  0
   36.2310   24.1190   31.8560 C   0  0  0  0  0  0  0  0  0  0  0  0
   35.2260   24.7750   31.1600 C   0  0  0  0  0  0  0  0  0  0  0  0
   35.4270   26.1010   30.8810 N   0  0  0  0  0  0  0  0  0  0  0  0
   36.5180   26.7750   31.2390 C   0  0  0  0  0  0  0  0  0  0  0  0
   37.4870   26.1410   31.9090 N   0  0  0  0  0  0  0  0  0  0  0  0
   36.0570   23.0870   32.0630 H   0  0  0  0  0  0  0  0  0  0  0  0
   34.3320   24.2620   30.8560 H   0  0  0  0  0  0  0  0  0  0  0  0
   35.6610   28.6490   33.3850 Cl  0  0  0  0  0  0  0  0  0  0  0  0
   36.2890   29.1530   31.8240 C   0  0  0  0  0  0  0  0  0  0  0  0
   36.6560   28.1910   30.9020 C   0  0  0  0  0  0  0  0  0  0  0  0
   37.1520   28.5750   29.6710 C   0  0  0  0  0  0  0  0  0  0  0  0
   37.4480   27.8450   28.9270 H   0  0  0  0  0  0  0  0  0  0  0  0
   37.2920   29.9180   29.3300 C   0  0  0  0  0  0  0  0  0  0  0  0
   37.6810   30.2360   28.3620 H   0  0  0  0  0  0  0  0  0  0  0  0
   36.9200   30.8770   30.2630 C   0  0  0  0  0  0  0  0  0  0  0  0
   37.0040   31.9410   30.0600 H   0  0  0  0  0  0  0  0  0  0  0  0
   36.4250   30.4970   31.4950 C   0  0  0  0  0  0  0  0  0  0  0  0
   35.9420   31.6850   32.7030 Cl  0  0  0  0  0  0  0  0  0  0  0  0
   38.5790   23.8720   33.1120 S   0  0  0  0  0  0  0  0  0  0  0  0
   39.7830   23.8240   35.5350 N   0  0  0  0  0  0  0  0  0  0  0  0
   39.1140   24.7490   34.6450 C   0  0  2  0  0  0  0  0  0  0  0  0
   37.8920   25.2670   35.3500 C   0  0  0  0  0  0  0  0  0  0  0  0
   37.9790   25.0530   36.7420 O   0  0  0  0  0  0  0  0  0  0  0  0
   37.8340   23.6670   36.8900 C   0  0  0  0  0  0  0  0  0  0  0  0
   38.8000   22.8940   36.0380 C   0  0  2  0  0  0  0  0  0  0  0  0
   40.5670   23.3120   35.0650 H   0  0  0  0  0  0  0  0  0  0  0  0
   39.8020   25.5290   34.3120 H   0  0  0  0  0  0  0  0  0  0  0  0
   36.9710   24.7260   35.0430 H   0  0  0  0  0  0  0  0  0  0  0  0
   37.8270   26.3580   35.1440 H   0  0  0  0  0  0  0  0  0  0  0  0
   37.9980   23.4540   37.9750 H   0  0  0  0  0  0  0  0  0  0  0  0
   36.7800   23.3980   36.6540 H   0  0  0  0  0  0  0  0  0  0  0  0
   38.3280   22.4120   35.1640 H   0  0  0  0  0  0  0  0  0  0  0  0
   39.4740   21.9320   36.8190 O   0  0  0  0  0  0  0  0  0  0  0  0
   39.6090   21.1490   36.2550 H   0  0  0  0  0  0  0  0  0  0  0  0
  1 20  1  0  0  0  0
  2  7  1  0  0  0  0
  2  1  2  0  0  0  0
  3  2  1  0  0  0  0
  4  3  2  0  0  0  0
  4  5  1  0  0  0  0
  5  6  2  0  0  0  0
  6  1  1  0  0  0  0
  8  3  1  0  0  0  0
 10  9  1  0  0  0  0
 11  5  1  0  0  0  0
 11 10  2  0  0  0  0
 12 11  1  0  0  0  0
 13 12  1  0  0  0  0
 14 12  2  0  0  0  0
 14 16  1  0  0  0  0
 15 14  1  0  0  0  0
 16 18  2  0  0  0  0
 17 16  1  0  0  0  0
 18 10  1  0  0  0  0
 18 19  1  0  0  0  0
 20 22  1  0  0  0  0
 21 26  1  0  0  0  0
 22 28  1  6  0  0  0
 22 23  1  0  0  0  0
 22 21  1  0  0  0  0
 23 24  1  0  0  0  0
 24 25  1  0  0  0  0
 25 31  1  0  0  0  0
 26 33  1  6  0  0  0
 26 34  1  0  0  0  0
 26 25  1  0  0  0  0
 27 21  1  0  0  0  0
 29 23  1  0  0  0  0
 30 23  1  0  0  0  0
 32 25  1  0  0  0  0
 35 34  1  0  0  0  0
M  END
>  <minimizedAffinity>
-5.48283672

$$$$

 OpenBabel03272502193D

 35 37  0  0  1  0  0  0  0  0999 V2000
   37.9940   24.8850   33.5340 C   0  0  0  0  0  0  0  0  0  0  0  0
   37.5320   23.7410   32.8490 C   0  0  0  0  0  0  0  0  0  0  0  0
   37.1630   23.8650   31.5180 C   0  0  0  0  0  0  0  0  0  0  0  0
   37.2740   25.1090   30.9550 N   0  0  0  0  0  0  0  0  0  0  0  0
   37.7110   26.1820   31.6120 C   0  0  0  0  0  0  0  0  0  0  0  0
   38.0670   26.0610   32.8960 N   0  0  0  0  0  0  0  0  0  0  0  0
   37.4390   22.7650   33.2690 H   0  0  0  0  0  0  0  0  0  0  0  0
   36.8050   23.0210   30.9570 H   0  0  0  0  0  0  0  0  0  0  0  0
   35.4360   28.0220   32.1550 Cl  0  0  0  0  0  0  0  0  0  0  0  0
   36.8000   28.4120   31.1180 C   0  0  0  0  0  0  0  0  0  0  0  0
   37.8010   27.4760   30.9390 C   0  0  0  0  0  0  0  0  0  0  0  0
   38.8780   27.7710   30.1260 C   0  0  0  0  0  0  0  0  0  0  0  0
   39.6780   27.0590   29.9660 H   0  0  0  0  0  0  0  0  0  0  0  0
   38.9840   28.9990   29.4750 C   0  0  0  0  0  0  0  0  0  0  0  0
   39.8280   29.2450   28.8310 H   0  0  0  0  0  0  0  0  0  0  0  0
   37.9730   29.9320   29.6620 C   0  0  0  0  0  0  0  0  0  0  0  0
   37.9940   30.9080   29.1840 H   0  0  0  0  0  0  0  0  0  0  0  0
   36.8940   29.6410   30.4740 C   0  0  0  0  0  0  0  0  0  0  0  0
   35.5930   30.8000   30.7340 Cl  0  0  0  0  0  0  0  0  0  0  0  0
   38.4290   24.5700   35.2280 S   0  0  0  0  0  0  0  0  0  0  0  0
   38.3740   22.3690   36.8010 N   0  0  0  0  0  0  0  0  0  0  0  0
   38.7880   22.7760   35.4750 C   0  0  2  0  0  0  0  0  0  0  0  0
   40.2730   22.5670   35.3710 C   0  0  0  0  0  0  0  0  0  0  0  0
   40.7340   21.6870   36.3720 O   0  0  0  0  0  0  0  0  0  0  0  0
   40.6270   22.4240   37.5600 C   0  0  0  0  0  0  0  0  0  0  0  0
   39.2520   22.9950   37.7600 C   0  0  2  0  0  0  0  0  0  0  0  0
   37.3750   22.6150   37.0010 H   0  0  0  0  0  0  0  0  0  0  0  0
   38.2080   22.2530   34.7120 H   0  0  0  0  0  0  0  0  0  0  0  0
   40.8410   23.5070   35.5440 H   0  0  0  0  0  0  0  0  0  0  0  0
   40.4770   22.1320   34.3690 H   0  0  0  0  0  0  0  0  0  0  0  0
   40.8920   21.7190   38.3850 H   0  0  0  0  0  0  0  0  0  0  0  0
   41.4000   23.2250   37.5450 H   0  0  0  0  0  0  0  0  0  0  0  0
   39.1990   24.0850   37.5900 H   0  0  0  0  0  0  0  0  0  0  0  0
   38.7790   22.6800   39.0510 O   0  0  0  0  0  0  0  0  0  0  0  0
   38.2570   23.4430   39.3580 H   0  0  0  0  0  0  0  0  0  0  0  0
  1 20  1  0  0  0  0
  2  7  1  0  0  0  0
  2  1  2  0  0  0  0
  3  2  1  0  0  0  0
  4  3  2  0  0  0  0
  4  5  1  0  0  0  0
  5  6  2  0  0  0  0
  6  1  1  0  0  0  0
  8  3  1  0  0  0  0
 10  9  1  0  0  0  0
 11 10  1  0  0  0  0
 11  5  1  0  0  0  0
 12 11  2  0  0  0  0
 13 12  1  0  0  0  0
 14 16  2  0  0  0  0
 14 12  1  0  0  0  0
 15 14  1  0  0  0  0
 16 18  1  0  0  0  0
 17 16  1  0  0  0  0
 18 19  1  0  0  0  0
 18 10  2  0  0  0  0
 20 22  1  0  0  0  0
 21 27  1  0  0  0  0
 21 26  1  0  0  0  0
 22 28  1  6  0  0  0
 22 21  1  0  0  0  0
 23 22  1  0  0  0  0
 23 29  1  0  0  0  0
 23 24  1  0  0  0  0
 24 25  1  0  0  0  0
 25 26  1  0  0  0  0
 25 31  1  0  0  0  0
 26 33  1  6  0  0  0
 26 34  1  0  0  0  0
 30 23  1  0  0  0  0
 32 25  1  0  0  0  0
 34 35  1  0  0  0  0
M  END
>  <minimizedAffinity>
-5.41734314

$$$$

 OpenBabel03272502193D

 35 37  0  0  1  0  0  0  0  0999 V2000
   35.3440   29.9260   32.7630 C   0  0  0  0  0  0  0  0  0  0  0  0
   35.7700   30.6840   31.6510 C   0  0  0  0  0  0  0  0  0  0  0  0
   36.3280   30.0220   30.5680 C   0  0  0  0  0  0  0  0  0  0  0  0
   36.4270   28.6590   30.6560 N   0  0  0  0  0  0  0  0  0  0  0  0
   36.0220   27.9540   31.7110 C   0  0  0  0  0  0  0  0  0  0  0  0
   35.4840   28.5940   32.7550 N   0  0  0  0  0  0  0  0  0  0  0  0
   35.7010   31.7450   31.5630 H   0  0  0  0  0  0  0  0  0  0  0  0
   36.6660   30.5580   29.7000 H   0  0  0  0  0  0  0  0  0  0  0  0
   38.4310   26.9580   33.1450 Cl  0  0  0  0  0  0  0  0  0  0  0  0
   37.2440   25.9230   32.3660 C   0  0  0  0  0  0  0  0  0  0  0  0
   36.1620   26.4990   31.7280 C   0  0  0  0  0  0  0  0  0  0  0  0
   35.2220   25.6960   31.1110 C   0  0  0  0  0  0  0  0  0  0  0  0
   34.3630   26.1170   30.6030 H   0  0  0  0  0  0  0  0  0  0  0  0
   35.3370   24.3070   31.1150 C   0  0  0  0  0  0  0  0  0  0  0  0
   34.6030   23.6610   30.6330 H   0  0  0  0  0  0  0  0  0  0  0  0
   36.4270   23.7380   31.7590 C   0  0  0  0  0  0  0  0  0  0  0  0
   36.5760   22.6630   31.8000 H   0  0  0  0  0  0  0  0  0  0  0  0
   37.3690   24.5380   32.3770 C   0  0  0  0  0  0  0  0  0  0  0  0
   38.7660   23.8520   33.2030 Cl  0  0  0  0  0  0  0  0  0  0  0  0
   34.6520   30.9120   34.0700 S   0  0  0  0  0  0  0  0  0  0  0  0
   35.5000   31.7000   36.5160 N   0  0  0  0  0  0  0  0  0  0  0  0
   35.9910   31.5610   35.1620 C   0  0  2  0  0  0  0  0  0  0  0  0
   36.3870   32.9260   34.6720 C   0  0  0  0  0  0  0  0  0  0  0  0
   36.5630   33.8210   35.7470 O   0  0  0  0  0  0  0  0  0  0  0  0
   35.2660   34.0490   36.2270 C   0  0  0  0  0  0  0  0  0  0  0  0
   34.5350   32.7740   36.5370 C   0  0  2  0  0  0  0  0  0  0  0  0
   35.0730   30.8150   36.8790 H   0  0  0  0  0  0  0  0  0  0  0  0
   36.7920   30.8200   35.1160 H   0  0  0  0  0  0  0  0  0  0  0  0
   35.5930   33.3940   34.0490 H   0  0  0  0  0  0  0  0  0  0  0  0
   37.3440   32.8150   34.1180 H   0  0  0  0  0  0  0  0  0  0  0  0
   35.3820   34.6780   37.1430 H   0  0  0  0  0  0  0  0  0  0  0  0
   34.7170   34.6570   35.4730 H   0  0  0  0  0  0  0  0  0  0  0  0
   33.7520   32.5240   35.8000 H   0  0  0  0  0  0  0  0  0  0  0  0
   33.9830   32.8340   37.8330 O   0  0  0  0  0  0  0  0  0  0  0  0
   33.1310   32.3620   37.8040 H   0  0  0  0  0  0  0  0  0  0  0  0
  1 20  1  0  0  0  0
  2  1  2  0  0  0  0
  3  4  2  0  0  0  0
  3  2  1  0  0  0  0
  4  5  1  0  0  0  0
  5 11  1  0  0  0  0
  5  6  2  0  0  0  0
  6  1  1  0  0  0  0
  7  2  1  0  0  0  0
  8  3  1  0  0  0  0
 10 18  1  0  0  0  0
 10  9  1  0  0  0  0
 11 10  2  0  0  0  0
 12 14  2  0  0  0  0
 12 11  1  0  0  0  0
 13 12  1  0  0  0  0
 14 16  1  0  0  0  0
 15 14  1  0  0  0  0
 16 17  1  0  0  0  0
 16 18  2  0  0  0  0
 18 19  1  0  0  0  0
 20 22  1  0  0  0  0
 21 26  1  0  0  0  0
 21 27  1  0  0  0  0
 22 28  1  6  0  0  0
 22 21  1  0  0  0  0
 23 22  1  0  0  0  0
 23 24  1  0  0  0  0
 24 25  1  0  0  0  0
 25 26  1  0  0  0  0
 25 31  1  0  0  0  0
 26 33  1  6  0  0  0
 26 34  1  0  0  0  0
 29 23  1  0  0  0  0
 30 23  1  0  0  0  0
 32 25  1  0  0  0  0
 35 34  1  0  0  0  0
M  END
>  <minimizedAffinity>
-5.36516094

$$$$
