
 OpenBabel03272508453D

 29 31  0  0  0  0  0  0  0  0999 V2000
   35.5720   29.5530   49.6560 C   0  0  0  0  0  0  0  0  0  0  0  0
   36.5960   29.2070   50.5290 C   0  0  0  0  0  0  0  0  0  0  0  0
   37.7080   29.7940   49.9220 C   0  0  0  0  0  0  0  0  0  0  0  0
   37.3420   30.4400   48.7680 C   0  0  0  0  0  0  0  0  0  0  0  0
   36.0540   30.2750   48.6390 O   0  0  0  0  0  0  0  0  0  0  0  0
   36.5000   28.6260   51.4350 H   0  0  0  0  0  0  0  0  0  0  0  0
   38.7170   29.7290   50.3350 H   0  0  0  0  0  0  0  0  0  0  0  0
   38.3480   33.1500   49.7510 Cl  0  0  0  0  0  0  0  0  0  0  0  0
   38.7360   32.3990   48.2290 C   0  0  0  0  0  0  0  0  0  0  0  0
   38.2330   31.1670   47.8680 C   0  0  0  0  0  0  0  0  0  0  0  0
   38.5740   30.6220   46.6500 C   0  0  0  0  0  0  0  0  0  0  0  0
   38.1560   29.6460   46.4000 H   0  0  0  0  0  0  0  0  0  0  0  0
   39.4110   31.2390   45.7360 C   0  0  0  0  0  0  0  0  0  0  0  0
   39.6130   30.7220   44.8070 H   0  0  0  0  0  0  0  0  0  0  0  0
   39.9190   32.4820   46.1000 C   0  0  0  0  0  0  0  0  0  0  0  0
   40.5700   32.9640   45.3880 H   0  0  0  0  0  0  0  0  0  0  0  0
   39.5830   33.0470   47.3270 C   0  0  0  0  0  0  0  0  0  0  0  0
   40.2820   34.6200   47.6820 Cl  0  0  0  0  0  0  0  0  0  0  0  0
   34.1700   29.1780   49.8320 C   0  0  0  0  0  0  0  0  0  0  0  0
   33.5200   29.7680   50.7390 O   0  0  0  0  0  0  0  0  0  0  0  0
   31.6410   27.0740   48.3050 C   0  0  0  0  0  0  0  0  0  0  0  0
   32.3730   26.2770   47.4180 C   0  0  0  0  0  0  0  0  0  0  0  0
   33.7410   26.4600   47.3410 C   0  0  0  0  0  0  0  0  0  0  0  0
   34.2960   27.4130   48.1390 N   0  0  0  0  0  0  0  0  0  0  0  0
   33.5750   28.1660   48.9840 C   0  0  0  0  0  0  0  0  0  0  0  0
   32.2390   27.9950   49.0660 N   0  0  0  0  0  0  0  0  0  0  0  0
   30.5570   26.9850   48.4200 H   0  0  0  0  0  0  0  0  0  0  0  0
   31.8170   25.5690   46.8510 H   0  0  0  0  0  0  0  0  0  0  0  0
   34.3080   25.8450   46.6560 H   0  0  0  0  0  0  0  0  0  0  0  0
  1 19  1  0  0  0  0
  1  2  2  0  0  0  0
  2  6  1  0  0  0  0
  3  7  1  0  0  0  0
  3  2  1  0  0  0  0
  4  3  2  0  0  0  0
  5  4  1  0  0  0  0
  5  1  1  0  0  0  0
  9  8  1  0  0  0  0
 10  9  1  0  0  0  0
 10  4  1  0  0  0  0
 11 10  2  0  0  0  0
 12 11  1  0  0  0  0
 13 15  2  0  0  0  0
 13 11  1  0  0  0  0
 14 13  1  0  0  0  0
 15 17  1  0  0  0  0
 16 15  1  0  0  0  0
 17 18  1  0  0  0  0
 17  9  2  0  0  0  0
 19 20  2  0  0  0  0
 21 27  1  0  0  0  0
 21 26  1  0  0  0  0
 22 21  2  0  0  0  0
 23 22  1  0  0  0  0
 23 24  2  0  0  0  0
 24 25  1  0  0  0  0
 25 26  2  0  0  0  0
 25 19  1  0  0  0  0
 28 22  1  0  0  0  0
 29 23  1  0  0  0  0
M  END
>  <minimizedAffinity>
-6.1813345

>  <minimizedRMSD>
3.25876403

$$$$
