
 OpenBabel03272504103D

 35 37  0  0  0  0  0  0  0  0999 V2000
   38.1560   25.4250   36.6830 C   0  0  0  0  0  0  0  0  0  0  0  0
   38.4170   24.8070   35.4720 C   0  0  0  0  0  0  0  0  0  0  0  0
   38.6680   23.4120   35.4350 C   0  0  0  0  0  0  0  0  0  0  0  0
   38.6420   22.7380   36.6070 N   0  0  0  0  0  0  0  0  0  0  0  0
   38.3780   23.3980   37.7940 C   0  0  0  0  0  0  0  0  0  0  0  0
   38.1350   24.7390   37.8210 N   0  0  0  0  0  0  0  0  0  0  0  0
   38.3670   22.6170   38.9950 N   0  0  0  0  0  0  0  0  0  0  0  0
   37.9640   26.4930   36.7020 H   0  0  0  0  0  0  0  0  0  0  0  0
   37.4680   22.1190   39.1840 H   0  0  0  0  0  0  0  0  0  0  0  0
   39.1460   22.5030   39.6740 H   0  0  0  0  0  0  0  0  0  0  0  0
   40.8590   26.4350   34.6740 Cl  0  0  0  0  0  0  0  0  0  0  0  0
   39.3910   26.4440   33.7460 C   0  0  0  0  0  0  0  0  0  0  0  0
   38.4160   25.6460   34.2560 C   0  0  0  0  0  0  0  0  0  0  0  0
   37.1940   25.5840   33.5590 C   0  0  0  0  0  0  0  0  0  0  0  0
   36.9740   26.2830   32.4240 C   0  0  0  0  0  0  0  0  0  0  0  0
   37.9880   27.0920   31.9230 C   0  0  0  0  0  0  0  0  0  0  0  0
   37.7570   28.0110   30.4640 Cl  0  0  0  0  0  0  0  0  0  0  0  0
   39.1780   27.1610   32.5870 C   0  0  0  0  0  0  0  0  0  0  0  0
   36.3440   24.9790   33.8460 H   0  0  0  0  0  0  0  0  0  0  0  0
   36.0570   26.2760   31.8450 H   0  0  0  0  0  0  0  0  0  0  0  0
   40.0020   27.7810   32.2350 H   0  0  0  0  0  0  0  0  0  0  0  0
   38.9340   22.7850   34.1540 C   0  0  0  0  0  0  0  0  0  0  0  0
   38.9980   23.6110   33.3860 H   0  0  0  0  0  0  0  0  0  0  0  0
   39.8980   22.2780   34.1320 H   0  0  0  0  0  0  0  0  0  0  0  0
   38.9560   21.9320   31.2100 Cl  0  0  0  0  0  0  0  0  0  0  0  0
   37.7020   21.4420   32.3620 C   0  0  0  0  0  0  0  0  0  0  0  0
   37.8350   21.9130   33.6480 C   0  0  0  0  0  0  0  0  0  0  0  0
   36.8260   21.5050   34.5270 C   0  0  0  0  0  0  0  0  0  0  0  0
   36.9030   21.8610   35.5540 H   0  0  0  0  0  0  0  0  0  0  0  0
   35.7390   20.6940   34.2230 C   0  0  0  0  0  0  0  0  0  0  0  0
   35.0240   20.4380   34.9740 H   0  0  0  0  0  0  0  0  0  0  0  0
   35.7130   20.2790   32.8910 C   0  0  0  0  0  0  0  0  0  0  0  0
   34.8710   19.6450   32.6360 H   0  0  0  0  0  0  0  0  0  0  0  0
   36.6620   20.6320   31.9570 C   0  0  0  0  0  0  0  0  0  0  0  0
   36.5620   20.0770   30.3020 Cl  0  0  0  0  0  0  0  0  0  0  0  0
  1  8  1  0  0  0  0
  1  6  1  0  0  0  0
  2  1  2  0  0  0  0
  3  2  1  0  0  0  0
  3  4  2  0  0  0  0
  4  5  1  0  0  0  0
  5  6  2  0  0  0  0
  5  7  1  0  0  0  0
  7  9  1  0  0  0  0
  7 10  1  0  0  0  0
 12 13  1  0  0  0  0
 12 11  1  0  0  0  0
 13  2  1  0  0  0  0
 14 19  1  0  0  0  0
 14 13  2  0  0  0  0
 15 14  1  0  0  0  0
 16 15  2  0  0  0  0
 16 18  1  0  0  0  0
 17 16  1  0  0  0  0
 18 12  2  0  0  0  0
 20 15  1  0  0  0  0
 21 18  1  0  0  0  0
 22  3  1  0  0  0  0
 23 22  1  0  0  0  0
 24 22  1  0  0  0  0
 25 26  1  0  0  0  0
 26 27  1  0  0  0  0
 27 22  1  0  0  0  0
 27 28  2  0  0  0  0
 28 29  1  0  0  0  0
 30 28  1  0  0  0  0
 30 31  1  0  0  0  0
 32 30  2  0  0  0  0
 33 32  1  0  0  0  0
 34 26  2  0  0  0  0
 34 32  1  0  0  0  0
 35 34  1  0  0  0  0
M  END
>  <minimizedAffinity>
-5.96583319

$$$$

 OpenBabel03272504103D

 35 37  0  0  0  0  0  0  0  0999 V2000
   36.9860   28.5470   29.8280 C   0  0  0  0  0  0  0  0  0  0  0  0
   36.6080   28.1500   31.0990 C   0  0  0  0  0  0  0  0  0  0  0  0
   36.2890   29.1290   32.0750 C   0  0  0  0  0  0  0  0  0  0  0  0
   36.3730   30.4280   31.7110 N   0  0  0  0  0  0  0  0  0  0  0  0
   36.7570   30.7780   30.4290 C   0  0  0  0  0  0  0  0  0  0  0  0
   37.0600   29.8310   29.4950 N   0  0  0  0  0  0  0  0  0  0  0  0
   36.8220   32.1750   30.1170 N   0  0  0  0  0  0  0  0  0  0  0  0
   37.2280   27.7910   29.0880 H   0  0  0  0  0  0  0  0  0  0  0  0
   35.9070   32.6080   29.8570 H   0  0  0  0  0  0  0  0  0  0  0  0
   37.6690   32.7790   30.1270 H   0  0  0  0  0  0  0  0  0  0  0  0
   38.8940   26.7200   32.5050 Cl  0  0  0  0  0  0  0  0  0  0  0  0
   37.4620   25.8900   31.9780 C   0  0  0  0  0  0  0  0  0  0  0  0
   36.5490   26.7010   31.3800 C   0  0  0  0  0  0  0  0  0  0  0  0
   35.3510   26.1130   30.9310 C   0  0  0  0  0  0  0  0  0  0  0  0
   35.0950   24.7940   31.0770 C   0  0  0  0  0  0  0  0  0  0  0  0
   36.0460   23.9870   31.6940 C   0  0  0  0  0  0  0  0  0  0  0  0
   35.7650   22.2830   31.9090 Cl  0  0  0  0  0  0  0  0  0  0  0  0
   37.2110   24.5430   32.1340 C   0  0  0  0  0  0  0  0  0  0  0  0
   34.5380   26.6430   30.4540 H   0  0  0  0  0  0  0  0  0  0  0  0
   34.1940   24.2860   30.7540 H   0  0  0  0  0  0  0  0  0  0  0  0
   37.9860   23.9530   32.6220 H   0  0  0  0  0  0  0  0  0  0  0  0
   35.8890   28.6890   33.3980 C   0  0  0  0  0  0  0  0  0  0  0  0
   35.0930   27.9000   33.2600 H   0  0  0  0  0  0  0  0  0  0  0  0
   36.7020   28.2050   33.9380 H   0  0  0  0  0  0  0  0  0  0  0  0
   32.8830   29.1630   33.0270 Cl  0  0  0  0  0  0  0  0  0  0  0  0
   33.8810   30.0640   34.1810 C   0  0  0  0  0  0  0  0  0  0  0  0
   35.2160   29.7330   34.2240 C   0  0  0  0  0  0  0  0  0  0  0  0
   35.9700   30.4650   35.1470 C   0  0  0  0  0  0  0  0  0  0  0  0
   37.0320   30.2260   35.2060 H   0  0  0  0  0  0  0  0  0  0  0  0
   35.5040   31.4640   35.9940 C   0  0  0  0  0  0  0  0  0  0  0  0
   36.1680   31.9610   36.6670 H   0  0  0  0  0  0  0  0  0  0  0  0
   34.1360   31.7090   35.8600 C   0  0  0  0  0  0  0  0  0  0  0  0
   33.7550   32.4860   36.5140 H   0  0  0  0  0  0  0  0  0  0  0  0
   33.3170   31.0380   34.9780 C   0  0  0  0  0  0  0  0  0  0  0  0
   31.6120   31.4020   34.8620 Cl  0  0  0  0  0  0  0  0  0  0  0  0
  1  2  1  0  0  0  0
  2 13  1  0  0  0  0
  2  3  2  0  0  0  0
  3 22  1  0  0  0  0
  4  3  1  0  0  0  0
  5  4  2  0  0  0  0
  6  1  2  0  0  0  0
  6  5  1  0  0  0  0
  7 10  1  0  0  0  0
  7  5  1  0  0  0  0
  8  1  1  0  0  0  0
  9  7  1  0  0  0  0
 12 18  1  0  0  0  0
 12 11  1  0  0  0  0
 13 12  2  0  0  0  0
 14 15  2  0  0  0  0
 14 13  1  0  0  0  0
 15 16  1  0  0  0  0
 16 17  1  0  0  0  0
 16 18  2  0  0  0  0
 18 21  1  0  0  0  0
 19 14  1  0  0  0  0
 20 15  1  0  0  0  0
 22 24  1  0  0  0  0
 22 27  1  0  0  0  0
 23 22  1  0  0  0  0
 25 26  1  0  0  0  0
 26 27  2  0  0  0  0
 26 34  1  0  0  0  0
 27 28  1  0  0  0  0
 28 29  1  0  0  0  0
 28 30  2  0  0  0  0
 30 31  1  0  0  0  0
 32 30  1  0  0  0  0
 32 33  1  0  0  0  0
 34 32  2  0  0  0  0
 35 34  1  0  0  0  0
M  END
>  <minimizedAffinity>
-5.84013987

$$$$

 OpenBabel03272504103D

 35 37  0  0  0  0  0  0  0  0999 V2000
   37.7210   28.5780   31.1500 C   0  0  0  0  0  0  0  0  0  0  0  0
   36.9460   28.3030   32.2640 C   0  0  0  0  0  0  0  0  0  0  0  0
   35.7900   29.0820   32.5250 C   0  0  0  0  0  0  0  0  0  0  0  0
   35.4950   30.0760   31.6580 N   0  0  0  0  0  0  0  0  0  0  0  0
   36.3000   30.3150   30.5590 C   0  0  0  0  0  0  0  0  0  0  0  0
   37.4090   29.5610   30.3130 N   0  0  0  0  0  0  0  0  0  0  0  0
   35.9220   31.3860   29.6850 N   0  0  0  0  0  0  0  0  0  0  0  0
   38.6040   27.9760   30.9580 H   0  0  0  0  0  0  0  0  0  0  0  0
   35.1950   31.1370   28.9770 H   0  0  0  0  0  0  0  0  0  0  0  0
   36.2930   32.3580   29.6910 H   0  0  0  0  0  0  0  0  0  0  0  0
   36.1440   25.4320   31.6600 Cl  0  0  0  0  0  0  0  0  0  0  0  0
   37.1030   25.8580   33.0440 C   0  0  0  0  0  0  0  0  0  0  0  0
   37.3660   27.1890   33.1380 C   0  0  0  0  0  0  0  0  0  0  0  0
   38.1480   27.6220   34.2260 C   0  0  0  0  0  0  0  0  0  0  0  0
   38.6300   26.7670   35.1560 C   0  0  0  0  0  0  0  0  0  0  0  0
   38.3450   25.4110   35.0350 C   0  0  0  0  0  0  0  0  0  0  0  0
   38.9420   24.2680   36.2040 Cl  0  0  0  0  0  0  0  0  0  0  0  0
   37.5890   24.9760   33.9870 C   0  0  0  0  0  0  0  0  0  0  0  0
   38.4440   28.6460   34.4100 H   0  0  0  0  0  0  0  0  0  0  0  0
   39.2350   27.0410   36.0120 H   0  0  0  0  0  0  0  0  0  0  0  0
   37.3390   23.9240   33.8490 H   0  0  0  0  0  0  0  0  0  0  0  0
   34.9900   28.7710   33.6940 C   0  0  0  0  0  0  0  0  0  0  0  0
   33.9330   28.5950   33.3370 H   0  0  0  0  0  0  0  0  0  0  0  0
   35.3020   27.8460   34.1770 H   0  0  0  0  0  0  0  0  0  0  0  0
   32.2120   29.4410   34.8030 Cl  0  0  0  0  0  0  0  0  0  0  0  0
   33.6840   30.3130   35.2610 C   0  0  0  0  0  0  0  0  0  0  0  0
   34.8530   29.8900   34.6710 C   0  0  0  0  0  0  0  0  0  0  0  0
   35.9930   30.6030   35.0580 C   0  0  0  0  0  0  0  0  0  0  0  0
   36.9370   30.2920   34.6080 H   0  0  0  0  0  0  0  0  0  0  0  0
   36.0450   31.6630   35.9550 C   0  0  0  0  0  0  0  0  0  0  0  0
   36.9740   32.1380   36.1840 H   0  0  0  0  0  0  0  0  0  0  0  0
   34.7990   31.9990   36.4870 C   0  0  0  0  0  0  0  0  0  0  0  0
   34.8200   32.8250   37.1900 H   0  0  0  0  0  0  0  0  0  0  0  0
   33.6250   31.3530   36.1640 C   0  0  0  0  0  0  0  0  0  0  0  0
   32.0990   31.8320   36.8680 Cl  0  0  0  0  0  0  0  0  0  0  0  0
  1  2  1  0  0  0  0
  2  3  2  0  0  0  0
  2 13  1  0  0  0  0
  3 22  1  0  0  0  0
  4  3  1  0  0  0  0
  5  4  2  0  0  0  0
  6  5  1  0  0  0  0
  6  1  2  0  0  0  0
  7 10  1  0  0  0  0
  7  5  1  0  0  0  0
  8  1  1  0  0  0  0
  9  7  1  0  0  0  0
 11 12  1  0  0  0  0
 12 13  2  0  0  0  0
 12 18  1  0  0  0  0
 13 14  1  0  0  0  0
 14 19  1  0  0  0  0
 14 15  2  0  0  0  0
 15 20  1  0  0  0  0
 16 15  1  0  0  0  0
 16 17  1  0  0  0  0
 18 16  2  0  0  0  0
 21 18  1  0  0  0  0
 22 24  1  0  0  0  0
 22 27  1  0  0  0  0
 23 22  1  0  0  0  0
 25 26  1  0  0  0  0
 26 34  1  0  0  0  0
 27 28  1  0  0  0  0
 27 26  2  0  0  0  0
 28 30  2  0  0  0  0
 29 28  1  0  0  0  0
 30 31  1  0  0  0  0
 30 32  1  0  0  0  0
 32 33  1  0  0  0  0
 34 32  2  0  0  0  0
 34 35  1  0  0  0  0
M  END
>  <minimizedAffinity>
-5.73920107

$$$$

 OpenBabel03272504103D

 35 37  0  0  0  0  0  0  0  0999 V2000
   36.2210   23.6520   31.1810 C   0  0  0  0  0  0  0  0  0  0  0  0
   37.0070   24.4380   32.0060 C   0  0  0  0  0  0  0  0  0  0  0  0
   37.6250   23.8630   33.1450 C   0  0  0  0  0  0  0  0  0  0  0  0
   37.4120   22.5490   33.3780 N   0  0  0  0  0  0  0  0  0  0  0  0
   36.6170   21.8020   32.5270 C   0  0  0  0  0  0  0  0  0  0  0  0
   36.0280   22.3610   31.4320 N   0  0  0  0  0  0  0  0  0  0  0  0
   36.4380   20.4140   32.8380 N   0  0  0  0  0  0  0  0  0  0  0  0
   35.7520   24.1010   30.3120 H   0  0  0  0  0  0  0  0  0  0  0  0
   37.2090   19.7900   32.5100 H   0  0  0  0  0  0  0  0  0  0  0  0
   35.6380   19.9860   33.3460 H   0  0  0  0  0  0  0  0  0  0  0  0
   39.4950   25.4310   30.5640 Cl  0  0  0  0  0  0  0  0  0  0  0  0
   38.1990   26.4930   31.0240 C   0  0  0  0  0  0  0  0  0  0  0  0
   37.1700   25.8630   31.6490 C   0  0  0  0  0  0  0  0  0  0  0  0
   36.0710   26.6470   32.0470 C   0  0  0  0  0  0  0  0  0  0  0  0
   36.0180   27.9800   31.8280 C   0  0  0  0  0  0  0  0  0  0  0  0
   37.0840   28.6000   31.1850 C   0  0  0  0  0  0  0  0  0  0  0  0
   37.0650   30.3130   30.8770 Cl  0  0  0  0  0  0  0  0  0  0  0  0
   38.1560   27.8530   30.7940 C   0  0  0  0  0  0  0  0  0  0  0  0
   35.1830   26.2710   32.5370 H   0  0  0  0  0  0  0  0  0  0  0  0
   35.2010   28.6350   32.1100 H   0  0  0  0  0  0  0  0  0  0  0  0
   39.0160   28.2920   30.2880 H   0  0  0  0  0  0  0  0  0  0  0  0
   38.4500   24.7050   33.9910 C   0  0  0  0  0  0  0  0  0  0  0  0
   39.4880   24.7070   33.5480 H   0  0  0  0  0  0  0  0  0  0  0  0
   38.1200   25.7430   33.9900 H   0  0  0  0  0  0  0  0  0  0  0  0
   40.7980   22.8110   34.5320 Cl  0  0  0  0  0  0  0  0  0  0  0  0
   39.6570   23.3370   35.7820 C   0  0  0  0  0  0  0  0  0  0  0  0
   38.6550   24.1870   35.3750 C   0  0  0  0  0  0  0  0  0  0  0  0
   37.7750   24.5800   36.3890 C   0  0  0  0  0  0  0  0  0  0  0  0
   36.9690   25.2550   36.0990 H   0  0  0  0  0  0  0  0  0  0  0  0
   37.8240   24.1980   37.7250 C   0  0  0  0  0  0  0  0  0  0  0  0
   37.1000   24.5610   38.4210 H   0  0  0  0  0  0  0  0  0  0  0  0
   38.8830   23.3370   38.0160 C   0  0  0  0  0  0  0  0  0  0  0  0
   38.9370   23.0280   39.0540 H   0  0  0  0  0  0  0  0  0  0  0  0
   39.7960   22.8980   37.0810 C   0  0  0  0  0  0  0  0  0  0  0  0
   41.0970   21.8140   37.5180 Cl  0  0  0  0  0  0  0  0  0  0  0  0
  1  6  2  0  0  0  0
  1  2  1  0  0  0  0
  2  3  2  0  0  0  0
  3  4  1  0  0  0  0
  3 22  1  0  0  0  0
  5  7  1  0  0  0  0
  5  4  2  0  0  0  0
  6  5  1  0  0  0  0
  7 10  1  0  0  0  0
  8  1  1  0  0  0  0
  9  7  1  0  0  0  0
 11 12  1  0  0  0  0
 12 13  1  0  0  0  0
 13  2  1  0  0  0  0
 13 14  2  0  0  0  0
 14 19  1  0  0  0  0
 15 14  1  0  0  0  0
 15 20  1  0  0  0  0
 16 15  2  0  0  0  0
 17 16  1  0  0  0  0
 18 12  2  0  0  0  0
 18 16  1  0  0  0  0
 21 18  1  0  0  0  0
 22 27  1  0  0  0  0
 23 22  1  0  0  0  0
 24 22  1  0  0  0  0
 25 26  1  0  0  0  0
 26 34  1  0  0  0  0
 27 26  2  0  0  0  0
 27 28  1  0  0  0  0
 28 30  2  0  0  0  0
 29 28  1  0  0  0  0
 30 32  1  0  0  0  0
 30 31  1  0  0  0  0
 32 33  1  0  0  0  0
 34 35  1  0  0  0  0
 34 32  2  0  0  0  0
M  END
>  <minimizedAffinity>
-5.72426319

$$$$

 OpenBabel03272504103D

 35 37  0  0  0  0  0  0  0  0999 V2000
   35.8330   30.5480   31.2810 C   0  0  0  0  0  0  0  0  0  0  0  0
   35.6260   29.6450   32.3100 C   0  0  0  0  0  0  0  0  0  0  0  0
   36.0640   28.3040   32.1670 C   0  0  0  0  0  0  0  0  0  0  0  0
   36.6740   27.9630   31.0100 N   0  0  0  0  0  0  0  0  0  0  0  0
   36.8590   28.9000   30.0080 C   0  0  0  0  0  0  0  0  0  0  0  0
   36.4360   30.1880   30.1540 N   0  0  0  0  0  0  0  0  0  0  0  0
   37.5140   28.4640   28.8110 N   0  0  0  0  0  0  0  0  0  0  0  0
   35.4950   31.5720   31.4000 H   0  0  0  0  0  0  0  0  0  0  0  0
   38.5580   28.4550   28.8620 H   0  0  0  0  0  0  0  0  0  0  0  0
   37.0610   28.1640   27.9240 H   0  0  0  0  0  0  0  0  0  0  0  0
   32.6450   29.2200   32.7430 Cl  0  0  0  0  0  0  0  0  0  0  0  0
   33.6430   30.0530   33.8960 C   0  0  0  0  0  0  0  0  0  0  0  0
   34.9500   30.1340   33.5300 C   0  0  0  0  0  0  0  0  0  0  0  0
   35.8340   30.7840   34.4120 C   0  0  0  0  0  0  0  0  0  0  0  0
   35.4230   31.3170   35.5840 C   0  0  0  0  0  0  0  0  0  0  0  0
   34.0800   31.2190   35.9340 C   0  0  0  0  0  0  0  0  0  0  0  0
   33.4990   31.8870   37.4330 Cl  0  0  0  0  0  0  0  0  0  0  0  0
   33.2120   30.5920   35.0900 C   0  0  0  0  0  0  0  0  0  0  0  0
   36.8970   30.9040   34.2510 H   0  0  0  0  0  0  0  0  0  0  0  0
   36.0540   31.8270   36.3020 H   0  0  0  0  0  0  0  0  0  0  0  0
   32.1520   30.4910   35.3190 H   0  0  0  0  0  0  0  0  0  0  0  0
   35.8410   27.3770   33.2610 C   0  0  0  0  0  0  0  0  0  0  0  0
   35.3070   27.9480   34.0770 H   0  0  0  0  0  0  0  0  0  0  0  0
   35.1790   26.5590   32.9830 H   0  0  0  0  0  0  0  0  0  0  0  0
   37.0990   24.7540   32.2970 Cl  0  0  0  0  0  0  0  0  0  0  0  0
   37.7700   25.7370   33.6100 C   0  0  0  0  0  0  0  0  0  0  0  0
   37.0840   26.8870   33.9240 C   0  0  0  0  0  0  0  0  0  0  0  0
   37.6440   27.6360   34.9650 C   0  0  0  0  0  0  0  0  0  0  0  0
   37.1240   28.5540   35.2380 H   0  0  0  0  0  0  0  0  0  0  0  0
   38.7940   27.3280   35.6830 C   0  0  0  0  0  0  0  0  0  0  0  0
   39.1390   27.9730   36.4600 H   0  0  0  0  0  0  0  0  0  0  0  0
   39.4020   26.1400   35.2730 C   0  0  0  0  0  0  0  0  0  0  0  0
   40.3010   25.8840   35.8220 H   0  0  0  0  0  0  0  0  0  0  0  0
   38.9200   25.3400   34.2590 C   0  0  0  0  0  0  0  0  0  0  0  0
   39.7330   23.8620   33.8010 Cl  0  0  0  0  0  0  0  0  0  0  0  0
  1  8  1  0  0  0  0
  1  2  1  0  0  0  0
  2 13  1  0  0  0  0
  3  2  2  0  0  0  0
  3 22  1  0  0  0  0
  4  3  1  0  0  0  0
  5  6  1  0  0  0  0
  5  4  2  0  0  0  0
  6  1  2  0  0  0  0
  7  9  1  0  0  0  0
  7  5  1  0  0  0  0
 10  7  1  0  0  0  0
 11 12  1  0  0  0  0
 12 18  1  0  0  0  0
 13 12  2  0  0  0  0
 13 14  1  0  0  0  0
 14 15  2  0  0  0  0
 15 16  1  0  0  0  0
 15 20  1  0  0  0  0
 16 17  1  0  0  0  0
 18 21  1  0  0  0  0
 18 16  2  0  0  0  0
 19 14  1  0  0  0  0
 22 27  1  0  0  0  0
 22 23  1  0  0  0  0
 24 22  1  0  0  0  0
 25 26  1  0  0  0  0
 26 27  2  0  0  0  0
 26 34  1  0  0  0  0
 27 28  1  0  0  0  0
 28 29  1  0  0  0  0
 28 30  2  0  0  0  0
 30 31  1  0  0  0  0
 32 30  1  0  0  0  0
 32 33  1  0  0  0  0
 34 32  2  0  0  0  0
 35 34  1  0  0  0  0
M  END
>  <minimizedAffinity>
-5.70026636

$$$$

 OpenBabel03272504103D

 35 37  0  0  0  0  0  0  0  0999 V2000
   33.1310   31.9720   33.5830 C   0  0  0  0  0  0  0  0  0  0  0  0
   34.3560   31.3940   33.8700 C   0  0  0  0  0  0  0  0  0  0  0  0
   34.4860   29.9820   33.8640 C   0  0  0  0  0  0  0  0  0  0  0  0
   33.3860   29.2520   33.5740 N   0  0  0  0  0  0  0  0  0  0  0  0
   32.1810   29.8730   33.2940 C   0  0  0  0  0  0  0  0  0  0  0  0
   32.0650   31.2310   33.3000 N   0  0  0  0  0  0  0  0  0  0  0  0
   31.0600   29.0330   32.9960 N   0  0  0  0  0  0  0  0  0  0  0  0
   33.0410   33.0530   33.5900 H   0  0  0  0  0  0  0  0  0  0  0  0
   31.0100   28.7060   32.0040 H   0  0  0  0  0  0  0  0  0  0  0  0
   30.3140   28.7280   33.6540 H   0  0  0  0  0  0  0  0  0  0  0  0
   35.1290   32.0620   36.7350 Cl  0  0  0  0  0  0  0  0  0  0  0  0
   35.9750   32.7170   35.3670 C   0  0  0  0  0  0  0  0  0  0  0  0
   35.4890   32.2940   34.1700 C   0  0  0  0  0  0  0  0  0  0  0  0
   36.1240   32.7670   33.0060 C   0  0  0  0  0  0  0  0  0  0  0  0
   37.1780   33.6120   33.0500 C   0  0  0  0  0  0  0  0  0  0  0  0
   37.6550   34.0290   34.2880 C   0  0  0  0  0  0  0  0  0  0  0  0
   39.0110   35.1150   34.4020 Cl  0  0  0  0  0  0  0  0  0  0  0  0
   37.0500   33.5780   35.4250 C   0  0  0  0  0  0  0  0  0  0  0  0
   35.8490   32.4990   31.9940 H   0  0  0  0  0  0  0  0  0  0  0  0
   37.7060   34.0090   32.1910 H   0  0  0  0  0  0  0  0  0  0  0  0
   37.3870   33.8770   36.4170 H   0  0  0  0  0  0  0  0  0  0  0  0
   35.7810   29.3990   34.1610 C   0  0  0  0  0  0  0  0  0  0  0  0
   36.4950   30.2540   34.3490 H   0  0  0  0  0  0  0  0  0  0  0  0
   35.7700   28.8100   35.0780 H   0  0  0  0  0  0  0  0  0  0  0  0
   37.0510   26.6630   34.7050 Cl  0  0  0  0  0  0  0  0  0  0  0  0
   37.0100   27.4230   33.1050 C   0  0  0  0  0  0  0  0  0  0  0  0
   36.4050   28.6560   33.0290 C   0  0  0  0  0  0  0  0  0  0  0  0
   36.3920   29.2230   31.7500 C   0  0  0  0  0  0  0  0  0  0  0  0
   35.9190   30.2000   31.6560 H   0  0  0  0  0  0  0  0  0  0  0  0
   36.9210   28.6680   30.5900 C   0  0  0  0  0  0  0  0  0  0  0  0
   36.8540   29.1860   29.6590 H   0  0  0  0  0  0  0  0  0  0  0  0
   37.5060   27.4170   30.7930 C   0  0  0  0  0  0  0  0  0  0  0  0
   37.9240   26.9680   29.8990 H   0  0  0  0  0  0  0  0  0  0  0  0
   37.5640   26.7840   32.0160 C   0  0  0  0  0  0  0  0  0  0  0  0
   38.3190   25.2170   32.1960 Cl  0  0  0  0  0  0  0  0  0  0  0  0
  1  8  1  0  0  0  0
  1  2  1  0  0  0  0
  2 13  1  0  0  0  0
  3  2  2  0  0  0  0
  3 22  1  0  0  0  0
  4  3  1  0  0  0  0
  5  6  1  0  0  0  0
  5  4  2  0  0  0  0
  6  1  2  0  0  0  0
  7  5  1  0  0  0  0
  7 10  1  0  0  0  0
  9  7  1  0  0  0  0
 12 18  1  0  0  0  0
 12 11  1  0  0  0  0
 13 12  2  0  0  0  0
 14 15  2  0  0  0  0
 14 13  1  0  0  0  0
 15 16  1  0  0  0  0
 16 17  1  0  0  0  0
 16 18  2  0  0  0  0
 18 21  1  0  0  0  0
 19 14  1  0  0  0  0
 20 15  1  0  0  0  0
 22 23  1  0  0  0  0
 22 24  1  0  0  0  0
 26 25  1  0  0  0  0
 27 26  1  0  0  0  0
 27 22  1  0  0  0  0
 28 27  2  0  0  0  0
 29 28  1  0  0  0  0
 30 32  2  0  0  0  0
 30 28  1  0  0  0  0
 31 30  1  0  0  0  0
 32 34  1  0  0  0  0
 33 32  1  0  0  0  0
 34 35  1  0  0  0  0
 34 26  2  0  0  0  0
M  END
>  <minimizedAffinity>
-5.62946701

$$$$

 OpenBabel03272504103D

 35 37  0  0  0  0  0  0  0  0999 V2000
   37.9180   26.5240   33.3340 C   0  0  0  0  0  0  0  0  0  0  0  0
   38.3600   25.2320   33.1030 C   0  0  0  0  0  0  0  0  0  0  0  0
   38.1080   24.6180   31.8500 C   0  0  0  0  0  0  0  0  0  0  0  0
   37.4330   25.3350   30.9230 N   0  0  0  0  0  0  0  0  0  0  0  0
   37.0100   26.6230   31.2000 C   0  0  0  0  0  0  0  0  0  0  0  0
   37.2580   27.2080   32.4060 N   0  0  0  0  0  0  0  0  0  0  0  0
   36.3010   27.3210   30.1680 N   0  0  0  0  0  0  0  0  0  0  0  0
   38.1160   26.9860   34.2960 H   0  0  0  0  0  0  0  0  0  0  0  0
   36.9110   27.7780   29.4530 H   0  0  0  0  0  0  0  0  0  0  0  0
   35.2700   27.4100   30.0690 H   0  0  0  0  0  0  0  0  0  0  0  0
   41.4000   25.2230   33.2040 Cl  0  0  0  0  0  0  0  0  0  0  0  0
   40.4270   24.4230   34.4000 C   0  0  0  0  0  0  0  0  0  0  0  0
   39.0890   24.5480   34.1900 C   0  0  0  0  0  0  0  0  0  0  0  0
   38.2250   23.9390   35.1190 C   0  0  0  0  0  0  0  0  0  0  0  0
   38.6830   23.2490   36.1870 C   0  0  0  0  0  0  0  0  0  0  0  0
   40.0560   23.1380   36.3790 C   0  0  0  0  0  0  0  0  0  0  0  0
   40.6980   22.2630   37.7400 Cl  0  0  0  0  0  0  0  0  0  0  0  0
   40.9060   23.7230   35.4870 C   0  0  0  0  0  0  0  0  0  0  0  0
   37.1440   23.9740   35.0790 H   0  0  0  0  0  0  0  0  0  0  0  0
   38.0680   22.7600   36.9340 H   0  0  0  0  0  0  0  0  0  0  0  0
   41.9890   23.6630   35.5940 H   0  0  0  0  0  0  0  0  0  0  0  0
   38.5850   23.2660   31.6270 C   0  0  0  0  0  0  0  0  0  0  0  0
   39.0780   23.2500   30.6110 H   0  0  0  0  0  0  0  0  0  0  0  0
   39.3560   22.9760   32.3400 H   0  0  0  0  0  0  0  0  0  0  0  0
   38.9140   20.9920   29.5990 Cl  0  0  0  0  0  0  0  0  0  0  0  0
   37.5090   21.1560   30.6660 C   0  0  0  0  0  0  0  0  0  0  0  0
   37.5120   22.2360   31.5180 C   0  0  0  0  0  0  0  0  0  0  0  0
   36.3870   22.3320   32.3440 C   0  0  0  0  0  0  0  0  0  0  0  0
   36.3600   23.1760   33.0330 H   0  0  0  0  0  0  0  0  0  0  0  0
   35.3040   21.4600   32.3760 C   0  0  0  0  0  0  0  0  0  0  0  0
   34.4940   21.6240   33.0510 H   0  0  0  0  0  0  0  0  0  0  0  0
   35.4160   20.4060   31.4680 C   0  0  0  0  0  0  0  0  0  0  0  0
   34.5800   19.7150   31.4790 H   0  0  0  0  0  0  0  0  0  0  0  0
   36.4860   20.2330   30.6180 C   0  0  0  0  0  0  0  0  0  0  0  0
   36.5550   18.8880   29.5020 Cl  0  0  0  0  0  0  0  0  0  0  0  0
  1  8  1  0  0  0  0
  2  1  1  0  0  0  0
  2 13  1  0  0  0  0
  3  2  2  0  0  0  0
  4  5  2  0  0  0  0
  4  3  1  0  0  0  0
  5  6  1  0  0  0  0
  6  1  2  0  0  0  0
  7  5  1  0  0  0  0
  9  7  1  0  0  0  0
 10  7  1  0  0  0  0
 11 12  1  0  0  0  0
 12 18  1  0  0  0  0
 13 12  2  0  0  0  0
 13 14  1  0  0  0  0
 14 15  2  0  0  0  0
 15 16  1  0  0  0  0
 15 20  1  0  0  0  0
 16 17  1  0  0  0  0
 18 21  1  0  0  0  0
 18 16  2  0  0  0  0
 19 14  1  0  0  0  0
 22  3  1  0  0  0  0
 22 24  1  0  0  0  0
 23 22  1  0  0  0  0
 25 26  1  0  0  0  0
 26 27  1  0  0  0  0
 27 22  1  0  0  0  0
 27 28  2  0  0  0  0
 28 30  1  0  0  0  0
 28 29  1  0  0  0  0
 30 31  1  0  0  0  0
 32 33  1  0  0  0  0
 32 30  2  0  0  0  0
 34 26  2  0  0  0  0
 34 32  1  0  0  0  0
 35 34  1  0  0  0  0
M  END
>  <minimizedAffinity>
-5.56138086

$$$$

 OpenBabel03272504103D

 35 37  0  0  0  0  0  0  0  0999 V2000
   34.9900   31.6360   31.8770 C   0  0  0  0  0  0  0  0  0  0  0  0
   34.9830   30.3290   32.3350 C   0  0  0  0  0  0  0  0  0  0  0  0
   35.9710   29.4190   31.8790 C   0  0  0  0  0  0  0  0  0  0  0  0
   36.8900   29.8790   31.0010 N   0  0  0  0  0  0  0  0  0  0  0  0
   36.8570   31.1930   30.5700 C   0  0  0  0  0  0  0  0  0  0  0  0
   35.9050   32.0630   31.0140 N   0  0  0  0  0  0  0  0  0  0  0  0
   37.8640   31.6080   29.6390 N   0  0  0  0  0  0  0  0  0  0  0  0
   34.2300   32.3250   32.2310 H   0  0  0  0  0  0  0  0  0  0  0  0
   38.7770   31.8740   30.0730 H   0  0  0  0  0  0  0  0  0  0  0  0
   37.7740   31.6650   28.6040 H   0  0  0  0  0  0  0  0  0  0  0  0
   35.3060   30.8300   35.3180 Cl  0  0  0  0  0  0  0  0  0  0  0  0
   33.8940   30.0690   34.6500 C   0  0  0  0  0  0  0  0  0  0  0  0
   33.9300   29.9420   33.2970 C   0  0  0  0  0  0  0  0  0  0  0  0
   32.8200   29.3450   32.6690 C   0  0  0  0  0  0  0  0  0  0  0  0
   31.7470   28.9060   33.3640 C   0  0  0  0  0  0  0  0  0  0  0  0
   31.7360   29.0490   34.7480 C   0  0  0  0  0  0  0  0  0  0  0  0
   30.3790   28.5020   35.6900 Cl  0  0  0  0  0  0  0  0  0  0  0  0
   32.8050   29.6250   35.3690 C   0  0  0  0  0  0  0  0  0  0  0  0
   32.7130   29.1980   31.6030 H   0  0  0  0  0  0  0  0  0  0  0  0
   30.8660   28.4400   32.9380 H   0  0  0  0  0  0  0  0  0  0  0  0
   32.8440   29.7590   36.4500 H   0  0  0  0  0  0  0  0  0  0  0  0
   35.9470   28.0570   32.3780 C   0  0  0  0  0  0  0  0  0  0  0  0
   35.0470   27.9660   33.0540 H   0  0  0  0  0  0  0  0  0  0  0  0
   35.8010   27.3270   31.5820 H   0  0  0  0  0  0  0  0  0  0  0  0
   38.5140   26.9710   31.1020 Cl  0  0  0  0  0  0  0  0  0  0  0  0
   38.3100   27.2020   32.8470 C   0  0  0  0  0  0  0  0  0  0  0  0
   37.0940   27.6970   33.2600 C   0  0  0  0  0  0  0  0  0  0  0  0
   36.9720   27.8660   34.6430 C   0  0  0  0  0  0  0  0  0  0  0  0
   36.0200   28.2570   35.0030 H   0  0  0  0  0  0  0  0  0  0  0  0
   37.9390   27.5870   35.6030 C   0  0  0  0  0  0  0  0  0  0  0  0
   37.7430   27.7570   36.6380 H   0  0  0  0  0  0  0  0  0  0  0  0
   39.1270   27.0920   35.0630 C   0  0  0  0  0  0  0  0  0  0  0  0
   39.8940   26.8690   35.7970 H   0  0  0  0  0  0  0  0  0  0  0  0
   39.3360   26.8940   33.7150 C   0  0  0  0  0  0  0  0  0  0  0  0
   40.8510   26.2660   33.1110 Cl  0  0  0  0  0  0  0  0  0  0  0  0
  1  8  1  0  0  0  0
  1  2  1  0  0  0  0
  2 13  1  0  0  0  0
  3  2  2  0  0  0  0
  3 22  1  0  0  0  0
  4  3  1  0  0  0  0
  5  4  2  0  0  0  0
  5  6  1  0  0  0  0
  6  1  2  0  0  0  0
  7  9  1  0  0  0  0
  7  5  1  0  0  0  0
 10  7  1  0  0  0  0
 12 11  1  0  0  0  0
 12 18  1  0  0  0  0
 13 12  2  0  0  0  0
 14 13  1  0  0  0  0
 14 15  2  0  0  0  0
 15 16  1  0  0  0  0
 16 18  2  0  0  0  0
 16 17  1  0  0  0  0
 18 21  1  0  0  0  0
 19 14  1  0  0  0  0
 20 15  1  0  0  0  0
 22 23  1  0  0  0  0
 22 27  1  0  0  0  0
 24 22  1  0  0  0  0
 25 26  1  0  0  0  0
 26 27  2  0  0  0  0
 26 34  1  0  0  0  0
 27 28  1  0  0  0  0
 28 29  1  0  0  0  0
 28 30  2  0  0  0  0
 30 31  1  0  0  0  0
 32 30  1  0  0  0  0
 32 33  1  0  0  0  0
 34 32  2  0  0  0  0
 35 34  1  0  0  0  0
M  END
>  <minimizedAffinity>
-5.55622149

$$$$

 OpenBabel03272504103D

 35 37  0  0  0  0  0  0  0  0999 V2000
   36.4020   21.1710   33.8280 C   0  0  0  0  0  0  0  0  0  0  0  0
   37.6130   21.7870   34.0940 C   0  0  0  0  0  0  0  0  0  0  0  0
   37.9730   22.0800   35.4340 C   0  0  0  0  0  0  0  0  0  0  0  0
   37.0980   21.7390   36.4070 N   0  0  0  0  0  0  0  0  0  0  0  0
   35.8980   21.1260   36.0940 C   0  0  0  0  0  0  0  0  0  0  0  0
   35.5610   20.8450   34.8030 N   0  0  0  0  0  0  0  0  0  0  0  0
   35.0230   20.7940   37.1790 N   0  0  0  0  0  0  0  0  0  0  0  0
   36.1360   20.9500   32.8000 H   0  0  0  0  0  0  0  0  0  0  0  0
   35.2460   19.8940   37.6610 H   0  0  0  0  0  0  0  0  0  0  0  0
   34.2130   21.3500   37.5210 H   0  0  0  0  0  0  0  0  0  0  0  0
   37.3150   24.3980   32.5640 Cl  0  0  0  0  0  0  0  0  0  0  0  0
   38.5040   23.2040   32.1430 C   0  0  0  0  0  0  0  0  0  0  0  0
   38.4890   22.1090   32.9490 C   0  0  0  0  0  0  0  0  0  0  0  0
   39.4280   21.0940   32.6860 C   0  0  0  0  0  0  0  0  0  0  0  0
   40.3200   21.1800   31.6740 C   0  0  0  0  0  0  0  0  0  0  0  0
   40.3140   22.3110   30.8640 C   0  0  0  0  0  0  0  0  0  0  0  0
   41.4430   22.4720   29.5490 Cl  0  0  0  0  0  0  0  0  0  0  0  0
   39.4100   23.3030   31.1080 C   0  0  0  0  0  0  0  0  0  0  0  0
   39.5350   20.1820   33.2570 H   0  0  0  0  0  0  0  0  0  0  0  0
   41.0650   20.4330   31.4230 H   0  0  0  0  0  0  0  0  0  0  0  0
   39.3650   24.2070   30.5010 H   0  0  0  0  0  0  0  0  0  0  0  0
   39.2490   22.7200   35.6900 C   0  0  0  0  0  0  0  0  0  0  0  0
   39.4990   22.5430   36.7770 H   0  0  0  0  0  0  0  0  0  0  0  0
   40.0600   22.2710   35.1180 H   0  0  0  0  0  0  0  0  0  0  0  0
   41.4590   24.0890   34.0660 Cl  0  0  0  0  0  0  0  0  0  0  0  0
   40.1490   24.9690   34.8730 C   0  0  0  0  0  0  0  0  0  0  0  0
   39.2370   24.2060   35.5650 C   0  0  0  0  0  0  0  0  0  0  0  0
   38.2190   24.9360   36.1880 C   0  0  0  0  0  0  0  0  0  0  0  0
   37.4790   24.3600   36.7440 H   0  0  0  0  0  0  0  0  0  0  0  0
   38.0550   26.3160   36.1690 C   0  0  0  0  0  0  0  0  0  0  0  0
   37.2370   26.7740   36.6770 H   0  0  0  0  0  0  0  0  0  0  0  0
   39.0410   26.9800   35.4350 C   0  0  0  0  0  0  0  0  0  0  0  0
   38.9290   28.0580   35.4090 H   0  0  0  0  0  0  0  0  0  0  0  0
   40.0790   26.3430   34.7900 C   0  0  0  0  0  0  0  0  0  0  0  0
   41.2810   27.2410   33.8920 Cl  0  0  0  0  0  0  0  0  0  0  0  0
  1  2  2  0  0  0  0
  1  6  1  0  0  0  0
  2  3  1  0  0  0  0
  3 22  1  0  0  0  0
  3  4  2  0  0  0  0
  5  4  1  0  0  0  0
  5  7  1  0  0  0  0
  6  5  2  0  0  0  0
  7 10  1  0  0  0  0
  7  9  1  0  0  0  0
  8  1  1  0  0  0  0
 12 11  1  0  0  0  0
 12 13  1  0  0  0  0
 13  2  1  0  0  0  0
 14 13  2  0  0  0  0
 14 19  1  0  0  0  0
 15 14  1  0  0  0  0
 16 18  1  0  0  0  0
 16 15  2  0  0  0  0
 17 16  1  0  0  0  0
 18 12  2  0  0  0  0
 20 15  1  0  0  0  0
 21 18  1  0  0  0  0
 22 23  1  0  0  0  0
 24 22  1  0  0  0  0
 25 26  1  0  0  0  0
 26 27  1  0  0  0  0
 27 22  1  0  0  0  0
 27 28  2  0  0  0  0
 28 29  1  0  0  0  0
 30 28  1  0  0  0  0
 30 31  1  0  0  0  0
 32 30  2  0  0  0  0
 33 32  1  0  0  0  0
 34 26  2  0  0  0  0
 34 32  1  0  0  0  0
 35 34  1  0  0  0  0
M  END
>  <minimizedAffinity>
-5.55403519

$$$$
