
 OpenBabel03262523173D

 41 44  0  0  0  0  0  0  0  0999 V2000
   37.3250   23.4700   32.1630 C   0  0  0  0  0  0  0  0  0  0  0  0
   37.7410   23.1060   33.4480 C   0  0  0  0  0  0  0  0  0  0  0  0
   37.8750   24.1080   34.3850 C   0  0  0  0  0  0  0  0  0  0  0  0
   37.5980   25.3710   34.0040 N   0  0  0  0  0  0  0  0  0  0  0  0
   37.2040   25.7150   32.7840 C   0  0  0  0  0  0  0  0  0  0  0  0
   37.0710   24.7390   31.8640 N   0  0  0  0  0  0  0  0  0  0  0  0
   37.9390   22.0870   33.6660 H   0  0  0  0  0  0  0  0  0  0  0  0
   40.3430   22.4070   34.6570 Cl  0  0  0  0  0  0  0  0  0  0  0  0
   39.4160   23.0710   35.9850 C   0  0  0  0  0  0  0  0  0  0  0  0
   38.2990   23.8380   35.7440 C   0  0  0  0  0  0  0  0  0  0  0  0
   37.6430   24.3110   36.8580 C   0  0  0  0  0  0  0  0  0  0  0  0
   36.7720   24.9110   36.7570 H   0  0  0  0  0  0  0  0  0  0  0  0
   38.0350   24.0620   38.1640 C   0  0  0  0  0  0  0  0  0  0  0  0
   37.4880   24.4550   39.0100 H   0  0  0  0  0  0  0  0  0  0  0  0
   39.1710   23.2810   38.3520 C   0  0  0  0  0  0  0  0  0  0  0  0
   39.5110   23.0640   39.3560 H   0  0  0  0  0  0  0  0  0  0  0  0
   39.8740   22.7760   37.2580 C   0  0  0  0  0  0  0  0  0  0  0  0
   41.2800   21.8090   37.5690 Cl  0  0  0  0  0  0  0  0  0  0  0  0
   36.9230   27.1180   32.4460 C   0  0  0  0  0  0  0  0  0  0  0  0
   37.2870   27.5900   31.2000 C   0  0  0  0  0  0  0  0  0  0  0  0
   36.9830   28.9110   30.9930 C   0  0  0  0  0  0  0  0  0  0  0  0
   36.3700   29.7000   31.9390 C   0  0  0  0  0  0  0  0  0  0  0  0
   36.0450   29.1470   33.1470 C   0  0  0  0  0  0  0  0  0  0  0  0
   36.3270   27.8560   33.3870 N   0  0  0  0  0  0  0  0  0  0  0  0
   37.7700   26.9690   30.4510 H   0  0  0  0  0  0  0  0  0  0  0  0
   37.2530   29.3360   30.0140 H   0  0  0  0  0  0  0  0  0  0  0  0
   36.1900   30.7240   31.6580 H   0  0  0  0  0  0  0  0  0  0  0  0
   33.0200   29.1580   33.1310 Cl  0  0  0  0  0  0  0  0  0  0  0  0
   34.0240   30.0040   34.2630 C   0  0  0  0  0  0  0  0  0  0  0  0
   35.3940   29.9310   34.1810 C   0  0  0  0  0  0  0  0  0  0  0  0
   36.0680   30.6570   35.1540 C   0  0  0  0  0  0  0  0  0  0  0  0
   35.4610   31.3950   36.1310 C   0  0  0  0  0  0  0  0  0  0  0  0
   34.0760   31.4450   36.1820 C   0  0  0  0  0  0  0  0  0  0  0  0
   33.2580   32.3710   37.4060 Cl  0  0  0  0  0  0  0  0  0  0  0  0
   33.3860   30.7450   35.2440 C   0  0  0  0  0  0  0  0  0  0  0  0
   37.1490   30.6420   35.1450 H   0  0  0  0  0  0  0  0  0  0  0  0
   36.0230   31.9450   36.8690 H   0  0  0  0  0  0  0  0  0  0  0  0
   32.3080   30.7870   35.2890 H   0  0  0  0  0  0  0  0  0  0  0  0
   37.1520   22.5050   31.1040 N   0  0  0  0  0  0  0  0  0  0  0  0
   37.4120   22.7850   30.1250 H   0  0  0  0  0  0  0  0  0  0  0  0
   36.7660   21.5710   31.4140 H   0  0  0  0  0  0  0  0  0  0  0  0
  1  2  1  0  0  0  0
  2  7  1  0  0  0  0
  2  3  2  0  0  0  0
  3 10  1  0  0  0  0
  4  3  1  0  0  0  0
  5  4  2  0  0  0  0
  6  1  2  0  0  0  0
  6  5  1  0  0  0  0
  8  9  1  0  0  0  0
  9 17  1  0  0  0  0
 10  9  2  0  0  0  0
 10 11  1  0  0  0  0
 11 13  2  0  0  0  0
 12 11  1  0  0  0  0
 13 15  1  0  0  0  0
 13 14  1  0  0  0  0
 15 16  1  0  0  0  0
 17 18  1  0  0  0  0
 17 15  2  0  0  0  0
 19  5  1  0  0  0  0
 19 24  1  0  0  0  0
 20 19  2  0  0  0  0
 21 20  1  0  0  0  0
 21 22  2  0  0  0  0
 22 23  1  0  0  0  0
 23 24  2  0  0  0  0
 23 30  1  0  0  0  0
 25 20  1  0  0  0  0
 26 21  1  0  0  0  0
 27 22  1  0  0  0  0
 28 29  1  0  0  0  0
 29 35  1  0  0  0  0
 30 29  2  0  0  0  0
 30 31  1  0  0  0  0
 31 32  2  0  0  0  0
 32 33  1  0  0  0  0
 32 37  1  0  0  0  0
 33 34  1  0  0  0  0
 35 38  1  0  0  0  0
 35 33  2  0  0  0  0
 36 31  1  0  0  0  0
 39 41  1  0  0  0  0
 39  1  1  0  0  0  0
 40 39  1  0  0  0  0
M  END
>  <minimizedAffinity>
-7.55120659

$$$$

 OpenBabel03262523173D

 41 44  0  0  0  0  0  0  0  0999 V2000
   36.0730   30.1500   30.9510 C   0  0  0  0  0  0  0  0  0  0  0  0
   35.6390   30.8080   32.1070 C   0  0  0  0  0  0  0  0  0  0  0  0
   35.4470   30.0500   33.2410 C   0  0  0  0  0  0  0  0  0  0  0  0
   35.6870   28.7260   33.1640 N   0  0  0  0  0  0  0  0  0  0  0  0
   36.0990   28.1030   32.0670 C   0  0  0  0  0  0  0  0  0  0  0  0
   36.2890   28.8400   30.9550 N   0  0  0  0  0  0  0  0  0  0  0  0
   35.4730   31.8560   32.0820 H   0  0  0  0  0  0  0  0  0  0  0  0
   32.5740   29.5150   33.9630 Cl  0  0  0  0  0  0  0  0  0  0  0  0
   33.7040   30.4520   34.9170 C   0  0  0  0  0  0  0  0  0  0  0  0
   34.9990   30.6340   34.4890 C   0  0  0  0  0  0  0  0  0  0  0  0
   35.8040   31.3860   35.3140 C   0  0  0  0  0  0  0  0  0  0  0  0
   36.8180   31.5730   35.0550 H   0  0  0  0  0  0  0  0  0  0  0  0
   35.3920   31.9510   36.5110 C   0  0  0  0  0  0  0  0  0  0  0  0
   36.0610   32.5360   37.1280 H   0  0  0  0  0  0  0  0  0  0  0  0
   34.0730   31.7380   36.8970 C   0  0  0  0  0  0  0  0  0  0  0  0
   33.7120   32.1610   37.8250 H   0  0  0  0  0  0  0  0  0  0  0  0
   33.2130   30.9820   36.0990 C   0  0  0  0  0  0  0  0  0  0  0  0
   31.5820   30.7580   36.6440 Cl  0  0  0  0  0  0  0  0  0  0  0  0
   36.3380   26.6520   32.0650 C   0  0  0  0  0  0  0  0  0  0  0  0
   35.6310   25.8610   31.1800 C   0  0  0  0  0  0  0  0  0  0  0  0
   35.9280   24.5250   31.2670 C   0  0  0  0  0  0  0  0  0  0  0  0
   36.8460   24.0140   32.1530 C   0  0  0  0  0  0  0  0  0  0  0  0
   37.5010   24.8730   32.9930 C   0  0  0  0  0  0  0  0  0  0  0  0
   37.2370   26.1880   32.9380 N   0  0  0  0  0  0  0  0  0  0  0  0
   34.9050   26.2620   30.4790 H   0  0  0  0  0  0  0  0  0  0  0  0
   35.3900   23.8510   30.5810 H   0  0  0  0  0  0  0  0  0  0  0  0
   36.9860   22.9450   32.1280 H   0  0  0  0  0  0  0  0  0  0  0  0
   40.3730   24.7930   32.0490 Cl  0  0  0  0  0  0  0  0  0  0  0  0
   39.8160   24.3130   33.6180 C   0  0  0  0  0  0  0  0  0  0  0  0
   38.4830   24.3890   33.9450 C   0  0  0  0  0  0  0  0  0  0  0  0
   38.1830   23.9730   35.2360 C   0  0  0  0  0  0  0  0  0  0  0  0
   39.1040   23.5190   36.1380 C   0  0  0  0  0  0  0  0  0  0  0  0
   40.4400   23.4550   35.7720 C   0  0  0  0  0  0  0  0  0  0  0  0
   41.6480   22.8840   36.8850 Cl  0  0  0  0  0  0  0  0  0  0  0  0
   40.7670   23.8560   34.5150 C   0  0  0  0  0  0  0  0  0  0  0  0
   37.1510   24.0080   35.5570 H   0  0  0  0  0  0  0  0  0  0  0  0
   38.8280   23.2040   37.1330 H   0  0  0  0  0  0  0  0  0  0  0  0
   41.8080   23.8050   34.2350 H   0  0  0  0  0  0  0  0  0  0  0  0
   36.3060   30.8450   29.7080 N   0  0  0  0  0  0  0  0  0  0  0  0
   36.0600   30.3570   28.8100 H   0  0  0  0  0  0  0  0  0  0  0  0
   36.7180   31.8130   29.8110 H   0  0  0  0  0  0  0  0  0  0  0  0
  1  6  2  0  0  0  0
  1  2  1  0  0  0  0
  2  3  2  0  0  0  0
  3 10  1  0  0  0  0
  4  3  1  0  0  0  0
  5  4  2  0  0  0  0
  6  5  1  0  0  0  0
  7  2  1  0  0  0  0
  8  9  1  0  0  0  0
  9 17  1  0  0  0  0
 10  9  2  0  0  0  0
 10 11  1  0  0  0  0
 11 13  2  0  0  0  0
 12 11  1  0  0  0  0
 13 15  1  0  0  0  0
 13 14  1  0  0  0  0
 15 16  1  0  0  0  0
 17 18  1  0  0  0  0
 17 15  2  0  0  0  0
 19  5  1  0  0  0  0
 19 24  1  0  0  0  0
 20 21  1  0  0  0  0
 20 19  2  0  0  0  0
 21 22  2  0  0  0  0
 22 23  1  0  0  0  0
 23 30  1  0  0  0  0
 24 23  2  0  0  0  0
 25 20  1  0  0  0  0
 26 21  1  0  0  0  0
 27 22  1  0  0  0  0
 28 29  1  0  0  0  0
 29 30  2  0  0  0  0
 29 35  1  0  0  0  0
 30 31  1  0  0  0  0
 31 36  1  0  0  0  0
 31 32  2  0  0  0  0
 32 37  1  0  0  0  0
 33 32  1  0  0  0  0
 33 34  1  0  0  0  0
 35 33  2  0  0  0  0
 38 35  1  0  0  0  0
 39 41  1  0  0  0  0
 39  1  1  0  0  0  0
 40 39  1  0  0  0  0
M  END
>  <minimizedAffinity>
-7.04774237

$$$$

 OpenBabel03262523173D

 41 44  0  0  0  0  0  0  0  0999 V2000
   36.1040   29.1450   31.5870 C   0  0  0  0  0  0  0  0  0  0  0  0
   35.5660   30.0330   32.5240 C   0  0  0  0  0  0  0  0  0  0  0  0
   35.6120   29.6680   33.8520 C   0  0  0  0  0  0  0  0  0  0  0  0
   36.1710   28.4810   34.1620 N   0  0  0  0  0  0  0  0  0  0  0  0
   36.6810   27.6390   33.2710 C   0  0  0  0  0  0  0  0  0  0  0  0
   36.6380   27.9920   31.9710 N   0  0  0  0  0  0  0  0  0  0  0  0
   35.1440   30.9500   32.1950 H   0  0  0  0  0  0  0  0  0  0  0  0
   32.7050   29.2500   34.5100 Cl  0  0  0  0  0  0  0  0  0  0  0  0
   33.7650   30.4080   35.2830 C   0  0  0  0  0  0  0  0  0  0  0  0
   35.0830   30.5150   34.9010 C   0  0  0  0  0  0  0  0  0  0  0  0
   35.8290   31.4570   35.5730 C   0  0  0  0  0  0  0  0  0  0  0  0
   36.8550   31.6020   35.3370 H   0  0  0  0  0  0  0  0  0  0  0  0
   35.3380   32.2750   36.5790 C   0  0  0  0  0  0  0  0  0  0  0  0
   35.9620   33.0030   37.0800 H   0  0  0  0  0  0  0  0  0  0  0  0
   33.9990   32.1270   36.9270 C   0  0  0  0  0  0  0  0  0  0  0  0
   33.5780   32.7460   37.7080 H   0  0  0  0  0  0  0  0  0  0  0  0
   33.1980   31.1870   36.2780 C   0  0  0  0  0  0  0  0  0  0  0  0
   31.5380   31.0580   36.7640 Cl  0  0  0  0  0  0  0  0  0  0  0  0
   37.2720   26.3600   33.6910 C   0  0  0  0  0  0  0  0  0  0  0  0
   38.0130   26.3190   34.8560 C   0  0  0  0  0  0  0  0  0  0  0  0
   38.5210   25.0790   35.1500 C   0  0  0  0  0  0  0  0  0  0  0  0
   38.3140   23.9730   34.3590 C   0  0  0  0  0  0  0  0  0  0  0  0
   37.5650   24.1080   33.2220 C   0  0  0  0  0  0  0  0  0  0  0  0
   37.0510   25.3060   32.9010 N   0  0  0  0  0  0  0  0  0  0  0  0
   38.1780   27.1900   35.4820 H   0  0  0  0  0  0  0  0  0  0  0  0
   39.1200   24.9930   36.0700 H   0  0  0  0  0  0  0  0  0  0  0  0
   38.7710   23.0570   34.6950 H   0  0  0  0  0  0  0  0  0  0  0  0
   39.7010   23.4680   31.1780 Cl  0  0  0  0  0  0  0  0  0  0  0  0
   38.2160   22.5980   31.3890 C   0  0  0  0  0  0  0  0  0  0  0  0
   37.3110   22.9740   32.3520 C   0  0  0  0  0  0  0  0  0  0  0  0
   36.1690   22.1850   32.4070 C   0  0  0  0  0  0  0  0  0  0  0  0
   35.9250   21.1160   31.5930 C   0  0  0  0  0  0  0  0  0  0  0  0
   36.8620   20.7660   30.6310 C   0  0  0  0  0  0  0  0  0  0  0  0
   36.5970   19.4130   29.5720 Cl  0  0  0  0  0  0  0  0  0  0  0  0
   37.9920   21.5180   30.5520 C   0  0  0  0  0  0  0  0  0  0  0  0
   35.4160   22.4280   33.1440 H   0  0  0  0  0  0  0  0  0  0  0  0
   35.0230   20.5280   31.6690 H   0  0  0  0  0  0  0  0  0  0  0  0
   38.7180   21.2410   29.8030 H   0  0  0  0  0  0  0  0  0  0  0  0
   36.1090   29.4250   30.1710 N   0  0  0  0  0  0  0  0  0  0  0  0
   35.9570   28.6270   29.5040 H   0  0  0  0  0  0  0  0  0  0  0  0
   36.2710   30.4390   29.9200 H   0  0  0  0  0  0  0  0  0  0  0  0
  1  6  2  0  0  0  0
  1  2  1  0  0  0  0
  2  3  2  0  0  0  0
  3  4  1  0  0  0  0
  3 10  1  0  0  0  0
  5 19  1  0  0  0  0
  5  4  2  0  0  0  0
  6  5  1  0  0  0  0
  7  2  1  0  0  0  0
  8  9  1  0  0  0  0
  9 17  1  0  0  0  0
 10  9  2  0  0  0  0
 10 11  1  0  0  0  0
 11 13  2  0  0  0  0
 12 11  1  0  0  0  0
 13 15  1  0  0  0  0
 13 14  1  0  0  0  0
 15 16  1  0  0  0  0
 17 18  1  0  0  0  0
 17 15  2  0  0  0  0
 19 20  1  0  0  0  0
 20 21  2  0  0  0  0
 20 25  1  0  0  0  0
 21 26  1  0  0  0  0
 22 27  1  0  0  0  0
 22 21  1  0  0  0  0
 23 22  2  0  0  0  0
 24 23  1  0  0  0  0
 24 19  2  0  0  0  0
 28 29  1  0  0  0  0
 29 30  1  0  0  0  0
 30 31  2  0  0  0  0
 30 23  1  0  0  0  0
 31 36  1  0  0  0  0
 32 37  1  0  0  0  0
 32 31  1  0  0  0  0
 33 32  2  0  0  0  0
 34 33  1  0  0  0  0
 35 33  1  0  0  0  0
 35 29  2  0  0  0  0
 38 35  1  0  0  0  0
 39  1  1  0  0  0  0
 40 39  1  0  0  0  0
 41 39  1  0  0  0  0
M  END
>  <minimizedAffinity>
-7.00924921

$$$$

 OpenBabel03262523173D

 41 44  0  0  0  0  0  0  0  0999 V2000
   35.9100   30.4390   30.6910 C   0  0  0  0  0  0  0  0  0  0  0  0
   34.7680   30.5300   31.4940 C   0  0  0  0  0  0  0  0  0  0  0  0
   34.6010   29.5810   32.4790 C   0  0  0  0  0  0  0  0  0  0  0  0
   35.5460   28.6270   32.6040 N   0  0  0  0  0  0  0  0  0  0  0  0
   36.6290   28.5420   31.8410 C   0  0  0  0  0  0  0  0  0  0  0  0
   36.7960   29.4680   30.8770 N   0  0  0  0  0  0  0  0  0  0  0  0
   34.0720   31.3140   31.3290 H   0  0  0  0  0  0  0  0  0  0  0  0
   35.0550   30.8340   35.1780 Cl  0  0  0  0  0  0  0  0  0  0  0  0
   33.5500   30.1330   34.6240 C   0  0  0  0  0  0  0  0  0  0  0  0
   33.4540   29.5850   33.3640 C   0  0  0  0  0  0  0  0  0  0  0  0
   32.2270   29.0610   33.0290 C   0  0  0  0  0  0  0  0  0  0  0  0
   32.0710   28.6190   32.0750 H   0  0  0  0  0  0  0  0  0  0  0  0
   31.1200   29.0560   33.8640 C   0  0  0  0  0  0  0  0  0  0  0  0
   30.1740   28.6330   33.5570 H   0  0  0  0  0  0  0  0  0  0  0  0
   31.2700   29.6230   35.1260 C   0  0  0  0  0  0  0  0  0  0  0  0
   30.4300   29.6400   35.8080 H   0  0  0  0  0  0  0  0  0  0  0  0
   32.4930   30.1680   35.5180 C   0  0  0  0  0  0  0  0  0  0  0  0
   32.6060   30.8560   37.1060 Cl  0  0  0  0  0  0  0  0  0  0  0  0
   37.6130   27.4680   32.0410 C   0  0  0  0  0  0  0  0  0  0  0  0
   38.5460   27.2260   31.0510 C   0  0  0  0  0  0  0  0  0  0  0  0
   39.4110   26.2010   31.3390 C   0  0  0  0  0  0  0  0  0  0  0  0
   39.3590   25.4780   32.5070 C   0  0  0  0  0  0  0  0  0  0  0  0
   38.4010   25.7880   33.4320 C   0  0  0  0  0  0  0  0  0  0  0  0
   37.5350   26.7850   33.1860 N   0  0  0  0  0  0  0  0  0  0  0  0
   38.5890   27.7960   30.1280 H   0  0  0  0  0  0  0  0  0  0  0  0
   40.1750   25.9690   30.5800 H   0  0  0  0  0  0  0  0  0  0  0  0
   40.0900   24.6930   32.6120 H   0  0  0  0  0  0  0  0  0  0  0  0
   38.5370   27.4340   35.9670 Cl  0  0  0  0  0  0  0  0  0  0  0  0
   38.3520   25.7120   35.8930 C   0  0  0  0  0  0  0  0  0  0  0  0
   38.3010   25.0600   34.6840 C   0  0  0  0  0  0  0  0  0  0  0  0
   38.1490   23.6830   34.7790 C   0  0  0  0  0  0  0  0  0  0  0  0
   38.0530   22.9920   35.9540 C   0  0  0  0  0  0  0  0  0  0  0  0
   38.1080   23.6840   37.1550 C   0  0  0  0  0  0  0  0  0  0  0  0
   37.9900   22.8490   38.6760 Cl  0  0  0  0  0  0  0  0  0  0  0  0
   38.2560   25.0340   37.0970 C   0  0  0  0  0  0  0  0  0  0  0  0
   38.1030   23.1100   33.8630 H   0  0  0  0  0  0  0  0  0  0  0  0
   37.9350   21.9200   35.9830 H   0  0  0  0  0  0  0  0  0  0  0  0
   38.2980   25.5670   38.0340 H   0  0  0  0  0  0  0  0  0  0  0  0
   36.1860   31.3790   29.6310 N   0  0  0  0  0  0  0  0  0  0  0  0
   36.6350   31.0200   28.7510 H   0  0  0  0  0  0  0  0  0  0  0  0
   35.9050   32.3760   29.8380 H   0  0  0  0  0  0  0  0  0  0  0  0
  1  6  2  0  0  0  0
  1  2  1  0  0  0  0
  2  3  2  0  0  0  0
  3  4  1  0  0  0  0
  3 10  1  0  0  0  0
  5 19  1  0  0  0  0
  5  4  2  0  0  0  0
  6  5  1  0  0  0  0
  7  2  1  0  0  0  0
  9  8  1  0  0  0  0
  9 17  1  0  0  0  0
 10  9  2  0  0  0  0
 11 10  1  0  0  0  0
 11 13  2  0  0  0  0
 12 11  1  0  0  0  0
 13 15  1  0  0  0  0
 14 13  1  0  0  0  0
 15 17  2  0  0  0  0
 15 16  1  0  0  0  0
 17 18  1  0  0  0  0
 19 24  1  0  0  0  0
 20 21  1  0  0  0  0
 20 19  2  0  0  0  0
 21 22  2  0  0  0  0
 22 27  1  0  0  0  0
 22 23  1  0  0  0  0
 23 30  1  0  0  0  0
 24 23  2  0  0  0  0
 25 20  1  0  0  0  0
 26 21  1  0  0  0  0
 29 28  1  0  0  0  0
 29 35  1  0  0  0  0
 30 31  1  0  0  0  0
 30 29  2  0  0  0  0
 31 32  2  0  0  0  0
 32 37  1  0  0  0  0
 32 33  1  0  0  0  0
 33 34  1  0  0  0  0
 35 33  2  0  0  0  0
 35 38  1  0  0  0  0
 36 31  1  0  0  0  0
 39 41  1  0  0  0  0
 39  1  1  0  0  0  0
 40 39  1  0  0  0  0
M  END
>  <minimizedAffinity>
-6.89626122

$$$$

 OpenBabel03262523173D

 41 44  0  0  0  0  0  0  0  0999 V2000
   38.4610   24.5030   34.8310 C   0  0  0  0  0  0  0  0  0  0  0  0
   38.1220   23.3470   34.1220 C   0  0  0  0  0  0  0  0  0  0  0  0
   37.3750   23.4950   32.9740 C   0  0  0  0  0  0  0  0  0  0  0  0
   37.0180   24.7430   32.6090 N   0  0  0  0  0  0  0  0  0  0  0  0
   37.3410   25.8400   33.2830 C   0  0  0  0  0  0  0  0  0  0  0  0
   38.0720   25.7000   34.4060 N   0  0  0  0  0  0  0  0  0  0  0  0
   38.4440   22.4000   34.4790 H   0  0  0  0  0  0  0  0  0  0  0  0
   39.4100   22.5410   30.9720 Cl  0  0  0  0  0  0  0  0  0  0  0  0
   37.8240   21.8430   31.2200 C   0  0  0  0  0  0  0  0  0  0  0  0
   36.9700   22.3610   32.1670 C   0  0  0  0  0  0  0  0  0  0  0  0
   35.7490   21.7380   32.2810 C   0  0  0  0  0  0  0  0  0  0  0  0
   35.0330   22.0790   32.9890 H   0  0  0  0  0  0  0  0  0  0  0  0
   35.3470   20.6540   31.5170 C   0  0  0  0  0  0  0  0  0  0  0  0
   34.3750   20.1950   31.6410 H   0  0  0  0  0  0  0  0  0  0  0  0
   36.2470   20.1680   30.5740 C   0  0  0  0  0  0  0  0  0  0  0  0
   35.9720   19.3220   29.9580 H   0  0  0  0  0  0  0  0  0  0  0  0
   37.4990   20.7620   30.4170 C   0  0  0  0  0  0  0  0  0  0  0  0
   38.5690   20.1030   29.2210 Cl  0  0  0  0  0  0  0  0  0  0  0  0
   36.9110   27.1670   32.8180 C   0  0  0  0  0  0  0  0  0  0  0  0
   37.1060   27.5050   31.4930 C   0  0  0  0  0  0  0  0  0  0  0  0
   36.6730   28.7660   31.1690 C   0  0  0  0  0  0  0  0  0  0  0  0
   36.0960   29.6200   32.0790 C   0  0  0  0  0  0  0  0  0  0  0  0
   35.9420   29.2000   33.3720 C   0  0  0  0  0  0  0  0  0  0  0  0
   36.3530   27.9730   33.7270 N   0  0  0  0  0  0  0  0  0  0  0  0
   37.5610   26.8320   30.7730 H   0  0  0  0  0  0  0  0  0  0  0  0
   36.8060   29.0830   30.1230 H   0  0  0  0  0  0  0  0  0  0  0  0
   35.8030   30.5870   31.7030 H   0  0  0  0  0  0  0  0  0  0  0  0
   32.9190   29.2450   33.4620 Cl  0  0  0  0  0  0  0  0  0  0  0  0
   33.9700   30.1520   34.4990 C   0  0  0  0  0  0  0  0  0  0  0  0
   35.3360   30.0590   34.3730 C   0  0  0  0  0  0  0  0  0  0  0  0
   36.0510   30.8400   35.2710 C   0  0  0  0  0  0  0  0  0  0  0  0
   35.4860   31.6480   36.2170 C   0  0  0  0  0  0  0  0  0  0  0  0
   34.1040   31.7180   36.3140 C   0  0  0  0  0  0  0  0  0  0  0  0
   33.3390   32.7320   37.5010 Cl  0  0  0  0  0  0  0  0  0  0  0  0
   33.3750   30.9650   35.4490 C   0  0  0  0  0  0  0  0  0  0  0  0
   37.1310   30.8120   35.2250 H   0  0  0  0  0  0  0  0  0  0  0  0
   36.0800   32.2400   36.8970 H   0  0  0  0  0  0  0  0  0  0  0  0
   32.3000   31.0220   35.5300 H   0  0  0  0  0  0  0  0  0  0  0  0
   39.2410   24.4660   36.0450 N   0  0  0  0  0  0  0  0  0  0  0  0
   39.0060   25.1480   36.8100 H   0  0  0  0  0  0  0  0  0  0  0  0
   40.0030   23.7340   36.0610 H   0  0  0  0  0  0  0  0  0  0  0  0
  1 39  1  0  0  0  0
  2  7  1  0  0  0  0
  2  1  2  0  0  0  0
  3  2  1  0  0  0  0
  4  3  2  0  0  0  0
  4  5  1  0  0  0  0
  5  6  2  0  0  0  0
  6  1  1  0  0  0  0
  8  9  1  0  0  0  0
  9 10  1  0  0  0  0
 10 11  2  0  0  0  0
 10  3  1  0  0  0  0
 11 12  1  0  0  0  0
 13 14  1  0  0  0  0
 13 11  1  0  0  0  0
 15 13  2  0  0  0  0
 16 15  1  0  0  0  0
 17 15  1  0  0  0  0
 17  9  2  0  0  0  0
 18 17  1  0  0  0  0
 19  5  1  0  0  0  0
 19 24  1  0  0  0  0
 20 19  2  0  0  0  0
 21 20  1  0  0  0  0
 21 22  2  0  0  0  0
 22 23  1  0  0  0  0
 23 24  2  0  0  0  0
 23 30  1  0  0  0  0
 25 20  1  0  0  0  0
 26 21  1  0  0  0  0
 27 22  1  0  0  0  0
 28 29  1  0  0  0  0
 29 35  1  0  0  0  0
 30 29  2  0  0  0  0
 30 31  1  0  0  0  0
 31 32  2  0  0  0  0
 32 33  1  0  0  0  0
 32 37  1  0  0  0  0
 33 34  1  0  0  0  0
 35 38  1  0  0  0  0
 35 33  2  0  0  0  0
 36 31  1  0  0  0  0
 39 41  1  0  0  0  0
 39 40  1  0  0  0  0
M  END
>  <minimizedAffinity>
-6.79855251

$$$$

 OpenBabel03262523173D

 41 44  0  0  0  0  0  0  0  0999 V2000
   40.0540   25.8170   31.5070 C   0  0  0  0  0  0  0  0  0  0  0  0
   39.8020   24.9280   32.5560 C   0  0  0  0  0  0  0  0  0  0  0  0
   38.6980   25.1660   33.3460 C   0  0  0  0  0  0  0  0  0  0  0  0
   37.9330   26.2390   33.0570 N   0  0  0  0  0  0  0  0  0  0  0  0
   38.1740   27.0820   32.0600 C   0  0  0  0  0  0  0  0  0  0  0  0
   39.2520   26.8530   31.2860 N   0  0  0  0  0  0  0  0  0  0  0  0
   40.4550   24.1070   32.7160 H   0  0  0  0  0  0  0  0  0  0  0  0
   38.6730   26.4920   36.0480 Cl  0  0  0  0  0  0  0  0  0  0  0  0
   38.3050   24.8090   35.7390 C   0  0  0  0  0  0  0  0  0  0  0  0
   38.3480   24.3060   34.4580 C   0  0  0  0  0  0  0  0  0  0  0  0
   38.0420   22.9710   34.3260 C   0  0  0  0  0  0  0  0  0  0  0  0
   38.0520   22.5070   33.3700 H   0  0  0  0  0  0  0  0  0  0  0  0
   37.7050   22.1350   35.3800 C   0  0  0  0  0  0  0  0  0  0  0  0
   37.4710   21.0900   35.2280 H   0  0  0  0  0  0  0  0  0  0  0  0
   37.6770   22.6930   36.6540 C   0  0  0  0  0  0  0  0  0  0  0  0
   37.4180   22.0740   37.5030 H   0  0  0  0  0  0  0  0  0  0  0  0
   37.9780   24.0410   36.8450 C   0  0  0  0  0  0  0  0  0  0  0  0
   37.9240   24.6670   38.4610 Cl  0  0  0  0  0  0  0  0  0  0  0  0
   37.2910   28.2310   31.8120 C   0  0  0  0  0  0  0  0  0  0  0  0
   37.2110   28.7460   30.5320 C   0  0  0  0  0  0  0  0  0  0  0  0
   36.3640   29.8170   30.4140 C   0  0  0  0  0  0  0  0  0  0  0  0
   35.6540   30.3360   31.4720 C   0  0  0  0  0  0  0  0  0  0  0  0
   35.7950   29.7610   32.7050 C   0  0  0  0  0  0  0  0  0  0  0  0
   36.6160   28.7110   32.8600 N   0  0  0  0  0  0  0  0  0  0  0  0
   37.7700   28.3380   29.6950 H   0  0  0  0  0  0  0  0  0  0  0  0
   36.2650   30.2640   29.4120 H   0  0  0  0  0  0  0  0  0  0  0  0
   35.0260   31.1840   31.2510 H   0  0  0  0  0  0  0  0  0  0  0  0
   32.8660   29.0280   32.8800 Cl  0  0  0  0  0  0  0  0  0  0  0  0
   33.7330   29.9900   34.0310 C   0  0  0  0  0  0  0  0  0  0  0  0
   35.0680   30.2650   33.8560 C   0  0  0  0  0  0  0  0  0  0  0  0
   35.6320   31.0450   34.8570 C   0  0  0  0  0  0  0  0  0  0  0  0
   34.9530   31.5210   35.9440 C   0  0  0  0  0  0  0  0  0  0  0  0
   33.6060   31.2230   36.0880 C   0  0  0  0  0  0  0  0  0  0  0  0
   32.7000   31.8050   37.4530 Cl  0  0  0  0  0  0  0  0  0  0  0  0
   33.0250   30.4610   35.1240 C   0  0  0  0  0  0  0  0  0  0  0  0
   36.6800   31.2980   34.7790 H   0  0  0  0  0  0  0  0  0  0  0  0
   35.4300   32.1250   36.7010 H   0  0  0  0  0  0  0  0  0  0  0  0
   31.9760   30.2320   35.2410 H   0  0  0  0  0  0  0  0  0  0  0  0
   41.1810   25.6650   30.6180 N   0  0  0  0  0  0  0  0  0  0  0  0
   41.6680   26.5320   30.2760 H   0  0  0  0  0  0  0  0  0  0  0  0
   41.4260   24.6650   30.3800 H   0  0  0  0  0  0  0  0  0  0  0  0
  1  2  1  0  0  0  0
  2  7  1  0  0  0  0
  2  3  2  0  0  0  0
  3 10  1  0  0  0  0
  4  3  1  0  0  0  0
  5  4  2  0  0  0  0
  6  1  2  0  0  0  0
  6  5  1  0  0  0  0
  9  8  1  0  0  0  0
  9 17  1  0  0  0  0
 10  9  2  0  0  0  0
 11 10  1  0  0  0  0
 11 13  2  0  0  0  0
 12 11  1  0  0  0  0
 13 15  1  0  0  0  0
 14 13  1  0  0  0  0
 15 17  2  0  0  0  0
 15 16  1  0  0  0  0
 17 18  1  0  0  0  0
 19  5  1  0  0  0  0
 19 24  1  0  0  0  0
 20 19  2  0  0  0  0
 21 20  1  0  0  0  0
 21 22  2  0  0  0  0
 22 23  1  0  0  0  0
 23 24  2  0  0  0  0
 23 30  1  0  0  0  0
 25 20  1  0  0  0  0
 26 21  1  0  0  0  0
 27 22  1  0  0  0  0
 28 29  1  0  0  0  0
 29 35  1  0  0  0  0
 30 29  2  0  0  0  0
 30 31  1  0  0  0  0
 31 32  2  0  0  0  0
 32 33  1  0  0  0  0
 32 37  1  0  0  0  0
 33 34  1  0  0  0  0
 35 38  1  0  0  0  0
 35 33  2  0  0  0  0
 36 31  1  0  0  0  0
 39  1  1  0  0  0  0
 40 39  1  0  0  0  0
 41 39  1  0  0  0  0
M  END
>  <minimizedAffinity>
-6.76981115

$$$$

 OpenBabel03262523173D

 41 44  0  0  0  0  0  0  0  0999 V2000
   36.0710   30.0710   30.7600 C   0  0  0  0  0  0  0  0  0  0  0  0
   34.9640   30.2980   31.5830 C   0  0  0  0  0  0  0  0  0  0  0  0
   34.7140   29.3860   32.5850 C   0  0  0  0  0  0  0  0  0  0  0  0
   35.5510   28.3360   32.7070 N   0  0  0  0  0  0  0  0  0  0  0  0
   36.6020   28.1220   31.9250 C   0  0  0  0  0  0  0  0  0  0  0  0
   36.8500   29.0110   30.9440 N   0  0  0  0  0  0  0  0  0  0  0  0
   34.3550   31.1510   31.4190 H   0  0  0  0  0  0  0  0  0  0  0  0
   35.3230   30.7720   35.1870 Cl  0  0  0  0  0  0  0  0  0  0  0  0
   33.7590   30.1460   34.7110 C   0  0  0  0  0  0  0  0  0  0  0  0
   33.5930   29.5270   33.4930 C   0  0  0  0  0  0  0  0  0  0  0  0
   32.3240   29.0720   33.2180 C   0  0  0  0  0  0  0  0  0  0  0  0
   32.1130   28.5830   32.2980 H   0  0  0  0  0  0  0  0  0  0  0  0
   31.2420   29.2000   34.0740 C   0  0  0  0  0  0  0  0  0  0  0  0
   30.2600   28.8260   33.8160 H   0  0  0  0  0  0  0  0  0  0  0  0
   31.4630   29.8330   35.2930 C   0  0  0  0  0  0  0  0  0  0  0  0
   30.6440   29.9530   35.9900 H   0  0  0  0  0  0  0  0  0  0  0  0
   32.7300   30.3140   35.6230 C   0  0  0  0  0  0  0  0  0  0  0  0
   32.9310   31.0910   37.1600 Cl  0  0  0  0  0  0  0  0  0  0  0  0
   37.4670   26.9490   32.1230 C   0  0  0  0  0  0  0  0  0  0  0  0
   38.8200   27.1450   32.3200 C   0  0  0  0  0  0  0  0  0  0  0  0
   39.5320   25.9850   32.4890 C   0  0  0  0  0  0  0  0  0  0  0  0
   38.9550   24.7370   32.4650 C   0  0  0  0  0  0  0  0  0  0  0  0
   37.6050   24.6390   32.2640 C   0  0  0  0  0  0  0  0  0  0  0  0
   36.8750   25.7520   32.0940 N   0  0  0  0  0  0  0  0  0  0  0  0
   39.2780   28.1290   32.3400 H   0  0  0  0  0  0  0  0  0  0  0  0
   40.6170   26.0870   32.6510 H   0  0  0  0  0  0  0  0  0  0  0  0
   39.6220   23.9030   32.6040 H   0  0  0  0  0  0  0  0  0  0  0  0
   37.9320   22.8930   34.7120 Cl  0  0  0  0  0  0  0  0  0  0  0  0
   37.0270   22.4780   33.2930 C   0  0  0  0  0  0  0  0  0  0  0  0
   36.9420   23.3480   32.2320 C   0  0  0  0  0  0  0  0  0  0  0  0
   36.1840   22.8830   31.1660 C   0  0  0  0  0  0  0  0  0  0  0  0
   35.5560   21.6700   31.1320 C   0  0  0  0  0  0  0  0  0  0  0  0
   35.6640   20.8180   32.2210 C   0  0  0  0  0  0  0  0  0  0  0  0
   34.8830   19.2640   32.2240 Cl  0  0  0  0  0  0  0  0  0  0  0  0
   36.4000   21.2430   33.2810 C   0  0  0  0  0  0  0  0  0  0  0  0
   36.0780   23.5200   30.2990 H   0  0  0  0  0  0  0  0  0  0  0  0
   34.9750   21.3470   30.2820 H   0  0  0  0  0  0  0  0  0  0  0  0
   36.4800   20.5770   34.1270 H   0  0  0  0  0  0  0  0  0  0  0  0
   36.4270   30.9600   29.6800 N   0  0  0  0  0  0  0  0  0  0  0  0
   36.8150   30.5430   28.7970 H   0  0  0  0  0  0  0  0  0  0  0  0
   36.2610   31.9860   29.8770 H   0  0  0  0  0  0  0  0  0  0  0  0
  1  6  2  0  0  0  0
  1  2  1  0  0  0  0
  2  3  2  0  0  0  0
  3  4  1  0  0  0  0
  3 10  1  0  0  0  0
  5 19  1  0  0  0  0
  5  4  2  0  0  0  0
  6  5  1  0  0  0  0
  7  2  1  0  0  0  0
  9  8  1  0  0  0  0
  9 17  1  0  0  0  0
 10  9  2  0  0  0  0
 11 10  1  0  0  0  0
 11 13  2  0  0  0  0
 12 11  1  0  0  0  0
 13 15  1  0  0  0  0
 14 13  1  0  0  0  0
 15 17  2  0  0  0  0
 15 16  1  0  0  0  0
 17 18  1  0  0  0  0
 19 20  1  0  0  0  0
 20 25  1  0  0  0  0
 20 21  2  0  0  0  0
 21 26  1  0  0  0  0
 22 21  1  0  0  0  0
 22 27  1  0  0  0  0
 23 22  2  0  0  0  0
 24 19  2  0  0  0  0
 24 23  1  0  0  0  0
 29 28  1  0  0  0  0
 30 23  1  0  0  0  0
 30 29  2  0  0  0  0
 31 30  1  0  0  0  0
 32 31  2  0  0  0  0
 32 33  1  0  0  0  0
 33 34  1  0  0  0  0
 33 35  2  0  0  0  0
 35 29  1  0  0  0  0
 35 38  1  0  0  0  0
 36 31  1  0  0  0  0
 37 32  1  0  0  0  0
 39 41  1  0  0  0  0
 39  1  1  0  0  0  0
 40 39  1  0  0  0  0
M  END
>  <minimizedAffinity>
-6.7195096

$$$$

 OpenBabel03262523173D

 41 44  0  0  0  0  0  0  0  0999 V2000
   36.4430   23.5200   31.9030 C   0  0  0  0  0  0  0  0  0  0  0  0
   37.4760   23.1280   32.7600 C   0  0  0  0  0  0  0  0  0  0  0  0
   38.2190   24.1190   33.3630 C   0  0  0  0  0  0  0  0  0  0  0  0
   37.9030   25.4010   33.0890 N   0  0  0  0  0  0  0  0  0  0  0  0
   36.9220   25.7720   32.2760 C   0  0  0  0  0  0  0  0  0  0  0  0
   36.1930   24.8060   31.6840 N   0  0  0  0  0  0  0  0  0  0  0  0
   37.6590   22.0950   32.9210 H   0  0  0  0  0  0  0  0  0  0  0  0
   37.4340   23.6660   36.2340 Cl  0  0  0  0  0  0  0  0  0  0  0  0
   39.0660   23.5950   35.6030 C   0  0  0  0  0  0  0  0  0  0  0  0
   39.3110   23.8200   34.2680 C   0  0  0  0  0  0  0  0  0  0  0  0
   40.6270   23.7400   33.8770 C   0  0  0  0  0  0  0  0  0  0  0  0
   40.9000   23.9000   32.8620 H   0  0  0  0  0  0  0  0  0  0  0  0
   41.6830   23.4550   34.7280 C   0  0  0  0  0  0  0  0  0  0  0  0
   42.7040   23.4020   34.3760 H   0  0  0  0  0  0  0  0  0  0  0  0
   41.3820   23.2360   36.0690 C   0  0  0  0  0  0  0  0  0  0  0  0
   42.1770   23.0100   36.7660 H   0  0  0  0  0  0  0  0  0  0  0  0
   40.0630   23.3040   36.5190 C   0  0  0  0  0  0  0  0  0  0  0  0
   39.7620   23.0210   38.2030 Cl  0  0  0  0  0  0  0  0  0  0  0  0
   36.6410   27.1940   32.0280 C   0  0  0  0  0  0  0  0  0  0  0  0
   36.9460   27.7270   30.7910 C   0  0  0  0  0  0  0  0  0  0  0  0
   36.6480   29.0610   30.6700 C   0  0  0  0  0  0  0  0  0  0  0  0
   36.0960   29.8040   31.6860 C   0  0  0  0  0  0  0  0  0  0  0  0
   35.8270   29.1910   32.8800 C   0  0  0  0  0  0  0  0  0  0  0  0
   36.1050   27.8870   33.0360 N   0  0  0  0  0  0  0  0  0  0  0  0
   37.3810   27.1420   29.9860 H   0  0  0  0  0  0  0  0  0  0  0  0
   36.8720   29.5340   29.7010 H   0  0  0  0  0  0  0  0  0  0  0  0
   35.9150   30.8440   31.4690 H   0  0  0  0  0  0  0  0  0  0  0  0
   32.8080   29.1920   33.0520 Cl  0  0  0  0  0  0  0  0  0  0  0  0
   33.8790   29.9900   34.1560 C   0  0  0  0  0  0  0  0  0  0  0  0
   35.2410   29.9260   33.9860 C   0  0  0  0  0  0  0  0  0  0  0  0
   35.9750   30.6100   34.9470 C   0  0  0  0  0  0  0  0  0  0  0  0
   35.4290   31.3020   35.9910 C   0  0  0  0  0  0  0  0  0  0  0  0
   34.0490   31.3450   36.1310 C   0  0  0  0  0  0  0  0  0  0  0  0
   33.3090   32.2120   37.4440 Cl  0  0  0  0  0  0  0  0  0  0  0  0
   33.3030   30.6840   35.2070 C   0  0  0  0  0  0  0  0  0  0  0  0
   37.0530   30.5990   34.8690 H   0  0  0  0  0  0  0  0  0  0  0  0
   36.0360   31.8210   36.7170 H   0  0  0  0  0  0  0  0  0  0  0  0
   32.2300   30.7210   35.3210 H   0  0  0  0  0  0  0  0  0  0  0  0
   35.6020   22.5680   31.2180 N   0  0  0  0  0  0  0  0  0  0  0  0
   35.2860   22.7930   30.2410 H   0  0  0  0  0  0  0  0  0  0  0  0
   35.3690   21.7000   31.7760 H   0  0  0  0  0  0  0  0  0  0  0  0
  1  2  1  0  0  0  0
  2  7  1  0  0  0  0
  2  3  2  0  0  0  0
  3 10  1  0  0  0  0
  4  3  1  0  0  0  0
  5  4  2  0  0  0  0
  6  1  2  0  0  0  0
  6  5  1  0  0  0  0
  9  8  1  0  0  0  0
  9 17  1  0  0  0  0
 10  9  2  0  0  0  0
 11 10  1  0  0  0  0
 11 13  2  0  0  0  0
 12 11  1  0  0  0  0
 13 15  1  0  0  0  0
 14 13  1  0  0  0  0
 15 17  2  0  0  0  0
 15 16  1  0  0  0  0
 17 18  1  0  0  0  0
 19  5  1  0  0  0  0
 19 24  1  0  0  0  0
 20 19  2  0  0  0  0
 21 20  1  0  0  0  0
 21 22  2  0  0  0  0
 22 23  1  0  0  0  0
 23 24  2  0  0  0  0
 23 30  1  0  0  0  0
 25 20  1  0  0  0  0
 26 21  1  0  0  0  0
 27 22  1  0  0  0  0
 28 29  1  0  0  0  0
 29 35  1  0  0  0  0
 30 29  2  0  0  0  0
 30 31  1  0  0  0  0
 31 32  2  0  0  0  0
 32 33  1  0  0  0  0
 32 37  1  0  0  0  0
 33 34  1  0  0  0  0
 35 38  1  0  0  0  0
 35 33  2  0  0  0  0
 36 31  1  0  0  0  0
 39 41  1  0  0  0  0
 39  1  1  0  0  0  0
 40 39  1  0  0  0  0
M  END
>  <minimizedAffinity>
-6.7164669

$$$$

 OpenBabel03262523173D

 41 44  0  0  0  0  0  0  0  0999 V2000
   35.8350   29.5170   31.6360 C   0  0  0  0  0  0  0  0  0  0  0  0
   35.0020   30.1190   32.5850 C   0  0  0  0  0  0  0  0  0  0  0  0
   35.0170   29.6100   33.8650 C   0  0  0  0  0  0  0  0  0  0  0  0
   35.8330   28.5670   34.1200 N   0  0  0  0  0  0  0  0  0  0  0  0
   36.6230   27.9970   33.2190 C   0  0  0  0  0  0  0  0  0  0  0  0
   36.6110   28.4920   31.9660 N   0  0  0  0  0  0  0  0  0  0  0  0
   34.3890   30.9370   32.3000 H   0  0  0  0  0  0  0  0  0  0  0  0
   36.1510   32.0170   35.2720 Cl  0  0  0  0  0  0  0  0  0  0  0  0
   34.6140   31.2610   35.6310 C   0  0  0  0  0  0  0  0  0  0  0  0
   34.1920   30.1590   34.9220 C   0  0  0  0  0  0  0  0  0  0  0  0
   32.9690   29.6430   35.2840 C   0  0  0  0  0  0  0  0  0  0  0  0
   32.5720   28.7920   34.7850 H   0  0  0  0  0  0  0  0  0  0  0  0
   32.1680   30.1570   36.2920 C   0  0  0  0  0  0  0  0  0  0  0  0
   31.2120   29.7170   36.5430 H   0  0  0  0  0  0  0  0  0  0  0  0
   32.6400   31.2710   36.9790 C   0  0  0  0  0  0  0  0  0  0  0  0
   32.0450   31.7020   37.7720 H   0  0  0  0  0  0  0  0  0  0  0  0
   33.8740   31.8350   36.6520 C   0  0  0  0  0  0  0  0  0  0  0  0
   34.3990   33.2220   37.5500 Cl  0  0  0  0  0  0  0  0  0  0  0  0
   37.4840   26.8600   33.5780 C   0  0  0  0  0  0  0  0  0  0  0  0
   38.5440   27.0720   34.4380 C   0  0  0  0  0  0  0  0  0  0  0  0
   39.2830   25.9470   34.7010 C   0  0  0  0  0  0  0  0  0  0  0  0
   38.9970   24.7150   34.1590 C   0  0  0  0  0  0  0  0  0  0  0  0
   37.9250   24.5990   33.3170 C   0  0  0  0  0  0  0  0  0  0  0  0
   37.1790   25.6790   33.0360 N   0  0  0  0  0  0  0  0  0  0  0  0
   38.7720   28.0440   34.8670 H   0  0  0  0  0  0  0  0  0  0  0  0
   40.1400   26.0630   35.3820 H   0  0  0  0  0  0  0  0  0  0  0  0
   39.6560   23.9100   34.4380 H   0  0  0  0  0  0  0  0  0  0  0  0
   38.4570   24.3030   30.3540 Cl  0  0  0  0  0  0  0  0  0  0  0  0
   37.7760   23.0840   31.3810 C   0  0  0  0  0  0  0  0  0  0  0  0
   37.5750   23.3230   32.7200 C   0  0  0  0  0  0  0  0  0  0  0  0
   37.0240   22.2570   33.4180 C   0  0  0  0  0  0  0  0  0  0  0  0
   36.6940   21.0530   32.8620 C   0  0  0  0  0  0  0  0  0  0  0  0
   36.9110   20.8480   31.5070 C   0  0  0  0  0  0  0  0  0  0  0  0
   36.5070   19.3340   30.7540 Cl  0  0  0  0  0  0  0  0  0  0  0  0
   37.4500   21.8730   30.7950 C   0  0  0  0  0  0  0  0  0  0  0  0
   36.8400   22.3800   34.4760 H   0  0  0  0  0  0  0  0  0  0  0  0
   36.2670   20.2490   33.4410 H   0  0  0  0  0  0  0  0  0  0  0  0
   37.6170   21.7080   29.7410 H   0  0  0  0  0  0  0  0  0  0  0  0
   35.8990   29.9680   30.2670 N   0  0  0  0  0  0  0  0  0  0  0  0
   36.0210   29.2490   29.5100 H   0  0  0  0  0  0  0  0  0  0  0  0
   35.8150   31.0140   30.1390 H   0  0  0  0  0  0  0  0  0  0  0  0
  1  6  2  0  0  0  0
  1  2  1  0  0  0  0
  2  3  2  0  0  0  0
  3  4  1  0  0  0  0
  3 10  1  0  0  0  0
  5 19  1  0  0  0  0
  5  4  2  0  0  0  0
  6  5  1  0  0  0  0
  7  2  1  0  0  0  0
  8  9  1  0  0  0  0
  9 17  1  0  0  0  0
 10 11  1  0  0  0  0
 10  9  2  0  0  0  0
 11 13  2  0  0  0  0
 12 11  1  0  0  0  0
 13 14  1  0  0  0  0
 13 15  1  0  0  0  0
 15 16  1  0  0  0  0
 17 15  2  0  0  0  0
 17 18  1  0  0  0  0
 19 20  1  0  0  0  0
 20 21  2  0  0  0  0
 20 25  1  0  0  0  0
 21 26  1  0  0  0  0
 22 27  1  0  0  0  0
 22 21  1  0  0  0  0
 23 22  2  0  0  0  0
 24 23  1  0  0  0  0
 24 19  2  0  0  0  0
 28 29  1  0  0  0  0
 29 30  1  0  0  0  0
 30 23  1  0  0  0  0
 30 31  2  0  0  0  0
 31 36  1  0  0  0  0
 32 31  1  0  0  0  0
 32 37  1  0  0  0  0
 33 32  2  0  0  0  0
 34 33  1  0  0  0  0
 35 29  2  0  0  0  0
 35 33  1  0  0  0  0
 38 35  1  0  0  0  0
 39  1  1  0  0  0  0
 40 39  1  0  0  0  0
 41 39  1  0  0  0  0
M  END
>  <minimizedAffinity>
-6.69620752

$$$$
