
 OpenBabel03272507133D

 42 46  0  0  0  0  0  0  0  0999 V2000
   36.4430   30.2310   49.2350 C   0  0  0  0  0  0  0  0  0  0  0  0
   35.4480   30.7610   49.9910 C   0  0  0  0  0  0  0  0  0  0  0  0
   34.3040   30.0020   49.7420 C   0  0  0  0  0  0  0  0  0  0  0  0
   34.6960   29.0250   48.8180 C   0  0  0  0  0  0  0  0  0  0  0  0
   35.9550   29.2230   48.5690 O   0  0  0  0  0  0  0  0  0  0  0  0
   35.4940   31.6110   50.6700 H   0  0  0  0  0  0  0  0  0  0  0  0
   33.3640   30.2070   50.2150 H   0  0  0  0  0  0  0  0  0  0  0  0
   34.1890   26.8160   47.7900 C   0  0  0  0  0  0  0  0  0  0  0  0
   33.7670   28.0160   48.2960 C   0  0  0  0  0  0  0  0  0  0  0  0
   32.4200   28.3570   48.3540 C   0  0  0  0  0  0  0  0  0  0  0  0
   31.5110   27.4240   47.8750 C   0  0  0  0  0  0  0  0  0  0  0  0
   30.1760   27.4860   47.8140 N   0  0  0  0  0  0  0  0  0  0  0  0
   29.7580   26.3380   47.2770 N   0  0  0  0  0  0  0  0  0  0  0  0
   30.8120   25.5670   47.0060 C   0  0  0  0  0  0  0  0  0  0  0  0
   31.9790   26.2270   47.3740 C   0  0  0  0  0  0  0  0  0  0  0  0
   33.3240   25.8920   47.3180 C   0  0  0  0  0  0  0  0  0  0  0  0
   35.2740   26.6490   47.7910 H   0  0  0  0  0  0  0  0  0  0  0  0
   32.0180   29.2940   48.7430 H   0  0  0  0  0  0  0  0  0  0  0  0
   29.5240   28.2500   48.1090 H   0  0  0  0  0  0  0  0  0  0  0  0
   30.8360   24.5600   46.5600 H   0  0  0  0  0  0  0  0  0  0  0  0
   33.6460   24.9400   46.9160 H   0  0  0  0  0  0  0  0  0  0  0  0
   37.7920   30.7800   49.2450 C   0  0  0  0  0  0  0  0  0  0  0  0
   38.4440   30.7730   50.3230 O   0  0  0  0  0  0  0  0  0  0  0  0
   38.3060   31.3060   48.0020 C   0  0  0  0  0  0  0  0  0  0  0  0
   38.9460   32.5320   48.0510 C   0  0  0  0  0  0  0  0  0  0  0  0
   39.4560   33.0740   46.8760 C   0  0  0  0  0  0  0  0  0  0  0  0
   39.2890   32.3480   45.7340 N   0  0  0  0  0  0  0  0  0  0  0  0
   38.6670   31.1640   45.7090 C   0  0  0  0  0  0  0  0  0  0  0  0
   38.1830   30.6580   46.8450 N   0  0  0  0  0  0  0  0  0  0  0  0
   39.1040   33.1410   48.9140 H   0  0  0  0  0  0  0  0  0  0  0  0
   39.9710   34.0390   46.8580 H   0  0  0  0  0  0  0  0  0  0  0  0
   36.8540   32.4480   43.7890 Cl  0  0  0  0  0  0  0  0  0  0  0  0
   37.6920   30.9290   43.4640 C   0  0  0  0  0  0  0  0  0  0  0  0
   38.5180   30.4320   44.4540 C   0  0  0  0  0  0  0  0  0  0  0  0
   39.1940   29.2490   44.2480 C   0  0  0  0  0  0  0  0  0  0  0  0
   39.8510   28.8220   44.9950 H   0  0  0  0  0  0  0  0  0  0  0  0
   39.0420   28.5590   43.0400 C   0  0  0  0  0  0  0  0  0  0  0  0
   39.5480   27.6140   42.8080 H   0  0  0  0  0  0  0  0  0  0  0  0
   38.2060   29.0990   42.0870 C   0  0  0  0  0  0  0  0  0  0  0  0
   38.0820   28.5740   41.1520 H   0  0  0  0  0  0  0  0  0  0  0  0
   37.5270   30.2740   42.2750 C   0  0  0  0  0  0  0  0  0  0  0  0
   36.4540   30.9820   41.0690 Cl  0  0  0  0  0  0  0  0  0  0  0  0
  1 22  1  0  0  0  0
  1  2  2  0  0  0  0
  2  6  1  0  0  0  0
  3  2  1  0  0  0  0
  3  7  1  0  0  0  0
  4  3  2  0  0  0  0
  5  4  1  0  0  0  0
  5  1  1  0  0  0  0
  8 17  1  0  0  0  0
  8  9  1  0  0  0  0
  9 10  2  0  0  0  0
  9  4  1  0  0  0  0
 10 18  1  0  0  0  0
 11 10  1  0  0  0  0
 12 11  1  0  0  0  0
 12 19  1  0  0  0  0
 13 12  1  0  0  0  0
 14 13  2  0  0  0  0
 14 15  1  0  0  0  0
 15 11  2  0  0  0  0
 16 15  1  0  0  0  0
 16  8  2  0  0  0  0
 20 14  1  0  0  0  0
 21 16  1  0  0  0  0
 22 23  2  0  0  0  0
 24 25  1  0  0  0  0
 24 22  1  0  0  0  0
 25 30  1  0  0  0  0
 26 25  2  0  0  0  0
 27 26  1  0  0  0  0
 28 27  2  0  0  0  0
 28 29  1  0  0  0  0
 29 24  2  0  0  0  0
 31 26  1  0  0  0  0
 33 32  1  0  0  0  0
 33 34  1  0  0  0  0
 34 28  1  0  0  0  0
 35 34  2  0  0  0  0
 35 36  1  0  0  0  0
 37 35  1  0  0  0  0
 38 37  1  0  0  0  0
 39 41  1  0  0  0  0
 39 37  2  0  0  0  0
 40 39  1  0  0  0  0
 41 33  2  0  0  0  0
 42 41  1  0  0  0  0
M  END
>  <minimizedAffinity>
-6.35874605

>  <minimizedRMSD>
1.5344739

$$$$
