
 OpenBabel03272504093D

 35 37  0  0  0  0  0  0  0  0999 V2000
   37.3070   30.6270   50.1570 C   0  0  0  0  0  0  0  0  0  0  0  0
   36.9760   30.5910   48.8140 C   0  0  0  0  0  0  0  0  0  0  0  0
   35.7470   30.0120   48.4070 C   0  0  0  0  0  0  0  0  0  0  0  0
   34.9410   29.5110   49.3690 N   0  0  0  0  0  0  0  0  0  0  0  0
   35.3130   29.5670   50.7010 C   0  0  0  0  0  0  0  0  0  0  0  0
   36.4960   30.1280   51.0840 N   0  0  0  0  0  0  0  0  0  0  0  0
   34.4060   29.0160   51.6640 N   0  0  0  0  0  0  0  0  0  0  0  0
   38.2490   31.0720   50.4590 H   0  0  0  0  0  0  0  0  0  0  0  0
   33.6330   29.6570   51.9530 H   0  0  0  0  0  0  0  0  0  0  0  0
   34.4450   28.0670   52.0870 H   0  0  0  0  0  0  0  0  0  0  0  0
   38.0450   33.4180   49.1630 Cl  0  0  0  0  0  0  0  0  0  0  0  0
   38.5110   32.4050   47.8300 C   0  0  0  0  0  0  0  0  0  0  0  0
   37.9360   31.1730   47.8530 C   0  0  0  0  0  0  0  0  0  0  0  0
   38.2670   30.2810   46.8150 C   0  0  0  0  0  0  0  0  0  0  0  0
   39.1200   30.6150   45.8210 C   0  0  0  0  0  0  0  0  0  0  0  0
   39.6950   31.8810   45.8230 C   0  0  0  0  0  0  0  0  0  0  0  0
   40.8020   32.3600   44.5680 Cl  0  0  0  0  0  0  0  0  0  0  0  0
   39.3840   32.7560   46.8220 C   0  0  0  0  0  0  0  0  0  0  0  0
   37.8950   29.2700   46.7210 H   0  0  0  0  0  0  0  0  0  0  0  0
   39.4130   29.9730   44.9970 H   0  0  0  0  0  0  0  0  0  0  0  0
   39.8070   33.7590   46.8670 H   0  0  0  0  0  0  0  0  0  0  0  0
   35.4190   29.9920   46.9940 C   0  0  0  0  0  0  0  0  0  0  0  0
   35.6220   31.0270   46.5910 H   0  0  0  0  0  0  0  0  0  0  0  0
   36.0620   29.3180   46.4290 H   0  0  0  0  0  0  0  0  0  0  0  0
   34.2570   27.1750   47.3210 Cl  0  0  0  0  0  0  0  0  0  0  0  0
   33.3040   28.5720   46.7920 C   0  0  0  0  0  0  0  0  0  0  0  0
   33.9760   29.7680   46.6920 C   0  0  0  0  0  0  0  0  0  0  0  0
   33.1910   30.8470   46.2720 C   0  0  0  0  0  0  0  0  0  0  0  0
   33.6940   31.8090   46.1840 H   0  0  0  0  0  0  0  0  0  0  0  0
   31.8370   30.8150   45.9570 C   0  0  0  0  0  0  0  0  0  0  0  0
   31.3290   31.7010   45.6470 H   0  0  0  0  0  0  0  0  0  0  0  0
   31.2660   29.5480   46.0960 C   0  0  0  0  0  0  0  0  0  0  0  0
   30.2100   29.5040   45.8540 H   0  0  0  0  0  0  0  0  0  0  0  0
   31.9630   28.4310   46.5040 C   0  0  0  0  0  0  0  0  0  0  0  0
   31.1810   26.8740   46.6520 Cl  0  0  0  0  0  0  0  0  0  0  0  0
  1  8  1  0  0  0  0
  1  6  1  0  0  0  0
  2  1  2  0  0  0  0
  3  2  1  0  0  0  0
  3  4  2  0  0  0  0
  4  5  1  0  0  0  0
  5  6  2  0  0  0  0
  5  7  1  0  0  0  0
  7  9  1  0  0  0  0
  7 10  1  0  0  0  0
 12 13  1  0  0  0  0
 12 11  1  0  0  0  0
 13  2  1  0  0  0  0
 14 13  2  0  0  0  0
 15 16  2  0  0  0  0
 15 14  1  0  0  0  0
 16 18  1  0  0  0  0
 17 16  1  0  0  0  0
 18 21  1  0  0  0  0
 18 12  2  0  0  0  0
 19 14  1  0  0  0  0
 20 15  1  0  0  0  0
 22  3  1  0  0  0  0
 23 22  1  0  0  0  0
 24 22  1  0  0  0  0
 26 25  1  0  0  0  0
 27 26  1  0  0  0  0
 27 22  1  0  0  0  0
 28 27  2  0  0  0  0
 29 28  1  0  0  0  0
 30 32  2  0  0  0  0
 30 28  1  0  0  0  0
 31 30  1  0  0  0  0
 32 34  1  0  0  0  0
 33 32  1  0  0  0  0
 34 35  1  0  0  0  0
 34 26  2  0  0  0  0
M  END
>  <minimizedAffinity>
-5.89701319

>  <minimizedRMSD>
0.658768117

$$$$
