
 OpenBabel03272503423D

 43 46  0  0  1  0  0  0  0  0999 V2000
   39.9250   30.9090   41.7070 C   0  0  2  0  0  0  0  0  0  0  0  0
   39.7780   32.0990   42.6750 C   0  0  1  0  0  0  0  0  0  0  0  0
   38.6230   32.7960   42.0040 C   0  0  0  0  0  0  0  0  0  0  0  0
   38.7790   32.6360   40.6480 O   0  0  0  0  0  0  0  0  0  0  0  0
   39.7290   31.6940   40.4020 C   0  0  0  0  0  0  0  0  0  0  0  0
   40.9110   30.4560   41.7660 H   0  0  0  0  0  0  0  0  0  0  0  0
   40.6510   32.7480   42.6730 H   0  0  0  0  0  0  0  0  0  0  0  0
   37.6880   32.3250   42.3630 H   0  0  0  0  0  0  0  0  0  0  0  0
   38.5900   33.8820   42.2130 H   0  0  0  0  0  0  0  0  0  0  0  0
   39.5810   31.0490   39.5390 H   0  0  0  0  0  0  0  0  0  0  0  0
   40.6970   32.2450   40.2380 H   0  0  0  0  0  0  0  0  0  0  0  0
   38.4500   31.0470   45.8420 C   0  0  0  0  0  0  0  0  0  0  0  0
   39.7860   30.8640   46.0760 C   0  0  0  0  0  0  0  0  0  0  0  0
   40.3960   31.2520   44.8830 C   0  0  0  0  0  0  0  0  0  0  0  0
   39.4700   31.6400   44.0000 N   0  0  0  0  0  0  0  0  0  0  0  0
   38.2750   31.5150   44.5860 N   0  0  0  0  0  0  0  0  0  0  0  0
   40.2790   30.4980   46.9860 H   0  0  0  0  0  0  0  0  0  0  0  0
   41.4890   31.2040   44.7980 H   0  0  0  0  0  0  0  0  0  0  0  0
   36.4980   30.6200   49.0160 C   0  0  0  0  0  0  0  0  0  0  0  0
   37.5560   30.8860   48.1580 C   0  0  0  0  0  0  0  0  0  0  0  0
   37.3750   30.7810   46.7920 C   0  0  0  0  0  0  0  0  0  0  0  0
   36.1580   30.4180   46.3400 N   0  0  0  0  0  0  0  0  0  0  0  0
   35.1360   30.1630   47.2010 C   0  0  0  0  0  0  0  0  0  0  0  0
   35.3000   30.2620   48.5140 N   0  0  0  0  0  0  0  0  0  0  0  0
   38.5590   31.1810   48.4450 H   0  0  0  0  0  0  0  0  0  0  0  0
   34.1700   29.8740   46.8120 H   0  0  0  0  0  0  0  0  0  0  0  0
   36.8350   30.7700   50.3610 O   0  0  0  0  0  0  0  0  0  0  0  0
   36.8810   29.7010   51.2690 C   0  0  0  0  0  0  0  0  0  0  0  0
   35.6240   29.2490   51.6220 F   0  0  0  0  0  0  0  0  0  0  0  0
   37.6050   30.0800   52.3730 F   0  0  0  0  0  0  0  0  0  0  0  0
   37.5800   28.6550   50.6700 F   0  0  0  0  0  0  0  0  0  0  0  0
   38.8270   30.1030   41.9240 O   0  0  0  0  0  0  0  0  0  0  0  0
   37.9770   28.7760   39.3860 Cl  0  0  0  0  0  0  0  0  0  0  0  0
   38.4620   28.0300   40.9040 C   0  0  0  0  0  0  0  0  0  0  0  0
   38.8440   28.7420   42.0390 C   0  0  0  0  0  0  0  0  0  0  0  0
   39.1990   28.0170   43.1570 C   0  0  0  0  0  0  0  0  0  0  0  0
   39.4940   28.5730   44.0310 H   0  0  0  0  0  0  0  0  0  0  0  0
   39.1910   26.6290   43.1960 C   0  0  0  0  0  0  0  0  0  0  0  0
   39.4780   26.1180   44.0980 H   0  0  0  0  0  0  0  0  0  0  0  0
   38.8050   25.9430   42.0470 C   0  0  0  0  0  0  0  0  0  0  0  0
   38.8060   24.8550   42.1000 H   0  0  0  0  0  0  0  0  0  0  0  0
   38.4430   26.6510   40.9070 C   0  0  0  0  0  0  0  0  0  0  0  0
   37.9840   25.6530   39.5490 Cl  0  0  0  0  0  0  0  0  0  0  0  0
  1  6  1  1  0  0  0
  1 32  1  0  0  0  0
  1  2  1  0  0  0  0
  2  7  1  6  0  0  0
  2 15  1  0  0  0  0
  3  9  1  0  0  0  0
  3  8  1  0  0  0  0
  3  2  1  0  0  0  0
  4  3  1  0  0  0  0
  5  4  1  0  0  0  0
  5  1  1  0  0  0  0
 10  5  1  0  0  0  0
 11  5  1  0  0  0  0
 12 13  1  0  0  0  0
 12 21  1  0  0  0  0
 13 17  1  0  0  0  0
 14 13  2  0  0  0  0
 15 16  1  0  0  0  0
 15 14  1  0  0  0  0
 16 12  2  0  0  0  0
 18 14  1  0  0  0  0
 19 27  1  0  0  0  0
 20 25  1  0  0  0  0
 20 19  2  0  0  0  0
 21 20  1  0  0  0  0
 22 21  2  0  0  0  0
 22 23  1  0  0  0  0
 23 24  2  0  0  0  0
 24 19  1  0  0  0  0
 26 23  1  0  0  0  0
 27 28  1  0  0  0  0
 28 29  1  0  0  0  0
 28 30  1  0  0  0  0
 31 28  1  0  0  0  0
 32 35  1  0  0  0  0
 33 34  1  0  0  0  0
 34 42  2  0  0  0  0
 34 35  1  0  0  0  0
 35 36  2  0  0  0  0
 36 38  1  0  0  0  0
 36 37  1  0  0  0  0
 38 39  1  0  0  0  0
 40 41  1  0  0  0  0
 40 38  2  0  0  0  0
 42 40  1  0  0  0  0
 43 42  1  0  0  0  0
M  END
>  <minimizedAffinity>
-6.26998806

>  <minimizedRMSD>
0.603631914

$$$$
