
 OpenBabel03272502533D

 29 31  0  0  0  0  0  0  0  0999 V2000
   35.9530   30.4120   48.7820 C   0  0  0  0  0  0  0  0  0  0  0  0
   35.5270   30.0840   50.0640 C   0  0  0  0  0  0  0  0  0  0  0  0
   34.5000   29.1830   50.2610 C   0  0  0  0  0  0  0  0  0  0  0  0
   33.9290   28.6380   49.1370 C   0  0  0  0  0  0  0  0  0  0  0  0
   34.3400   28.9550   47.8530 C   0  0  0  0  0  0  0  0  0  0  0  0
   35.3660   29.8540   47.6940 N   0  0  0  0  0  0  0  0  0  0  0  0
   36.0440   30.5700   50.9010 H   0  0  0  0  0  0  0  0  0  0  0  0
   34.2020   28.9580   51.2680 H   0  0  0  0  0  0  0  0  0  0  0  0
   33.1280   27.9380   49.3020 H   0  0  0  0  0  0  0  0  0  0  0  0
   32.6330   30.8440   46.2400 Cl  0  0  0  0  0  0  0  0  0  0  0  0
   32.9300   29.1430   45.8470 C   0  0  0  0  0  0  0  0  0  0  0  0
   33.7320   28.3740   46.6640 C   0  0  0  0  0  0  0  0  0  0  0  0
   33.9000   27.0650   46.2720 C   0  0  0  0  0  0  0  0  0  0  0  0
   34.5100   26.4110   46.8580 H   0  0  0  0  0  0  0  0  0  0  0  0
   33.3300   26.5070   45.1490 C   0  0  0  0  0  0  0  0  0  0  0  0
   33.4860   25.4680   44.8720 H   0  0  0  0  0  0  0  0  0  0  0  0
   32.5270   27.3110   44.3480 C   0  0  0  0  0  0  0  0  0  0  0  0
   32.0400   26.9740   43.4590 H   0  0  0  0  0  0  0  0  0  0  0  0
   32.3310   28.6310   44.7050 C   0  0  0  0  0  0  0  0  0  0  0  0
   31.3190   29.6840   43.7140 Cl  0  0  0  0  0  0  0  0  0  0  0  0
   38.2460   33.1990   49.3860 C   0  0  0  0  0  0  0  0  0  0  0  0
   39.0840   33.1610   48.2470 C   0  0  0  0  0  0  0  0  0  0  0  0
   38.8440   32.1660   47.2790 C   0  0  0  0  0  0  0  0  0  0  0  0
   37.8150   31.3190   47.5280 N   0  0  0  0  0  0  0  0  0  0  0  0
   37.0330   31.3650   48.6050 C   0  0  0  0  0  0  0  0  0  0  0  0
   37.2660   32.3080   49.5130 N   0  0  0  0  0  0  0  0  0  0  0  0
   38.4300   33.9750   50.1450 H   0  0  0  0  0  0  0  0  0  0  0  0
   39.8930   33.8600   48.0960 H   0  0  0  0  0  0  0  0  0  0  0  0
   39.4630   32.1240   46.4200 H   0  0  0  0  0  0  0  0  0  0  0  0
  1  2  1  0  0  0  0
  2  3  2  0  0  0  0
  2  7  1  0  0  0  0
  3  8  1  0  0  0  0
  4  9  1  0  0  0  0
  4  3  1  0  0  0  0
  5  4  2  0  0  0  0
  6  5  1  0  0  0  0
  6  1  2  0  0  0  0
 11 10  1  0  0  0  0
 11 12  1  0  0  0  0
 12  5  1  0  0  0  0
 13 12  2  0  0  0  0
 13 14  1  0  0  0  0
 15 13  1  0  0  0  0
 16 15  1  0  0  0  0
 17 19  1  0  0  0  0
 17 15  2  0  0  0  0
 18 17  1  0  0  0  0
 19 11  2  0  0  0  0
 20 19  1  0  0  0  0
 21 26  1  0  0  0  0
 21 27  1  0  0  0  0
 22 21  2  0  0  0  0
 23 24  2  0  0  0  0
 23 22  1  0  0  0  0
 24 25  1  0  0  0  0
 25  1  1  0  0  0  0
 25 26  2  0  0  0  0
 28 22  1  0  0  0  0
 29 23  1  0  0  0  0
M  END
>  <minimizedAffinity>
-5.31401825

>  <minimizedRMSD>
1.47070932

$$$$
