
 OpenBabel03272508453D

 29 31  0  0  0  0  0  0  0  0999 V2000
   35.8070   29.9660   49.8000 C   0  0  0  0  0  0  0  0  0  0  0  0
   36.8350   29.3720   50.5200 C   0  0  0  0  0  0  0  0  0  0  0  0
   37.9300   30.1690   50.1790 C   0  0  0  0  0  0  0  0  0  0  0  0
   37.5500   31.1640   49.3120 C   0  0  0  0  0  0  0  0  0  0  0  0
   36.2700   31.0120   49.1070 O   0  0  0  0  0  0  0  0  0  0  0  0
   36.7540   28.5090   51.1670 H   0  0  0  0  0  0  0  0  0  0  0  0
   38.9370   29.9970   50.5650 H   0  0  0  0  0  0  0  0  0  0  0  0
   38.5580   30.6560   46.4750 Cl  0  0  0  0  0  0  0  0  0  0  0  0
   38.9230   32.0420   47.4640 C   0  0  0  0  0  0  0  0  0  0  0  0
   38.4200   32.1860   48.7400 C   0  0  0  0  0  0  0  0  0  0  0  0
   38.7450   33.3050   49.4770 C   0  0  0  0  0  0  0  0  0  0  0  0
   38.3280   33.3840   50.4810 H   0  0  0  0  0  0  0  0  0  0  0  0
   39.5610   34.3230   49.0150 C   0  0  0  0  0  0  0  0  0  0  0  0
   39.7520   35.1560   49.6770 H   0  0  0  0  0  0  0  0  0  0  0  0
   40.0680   34.1760   47.7290 C   0  0  0  0  0  0  0  0  0  0  0  0
   40.7050   34.9690   47.3680 H   0  0  0  0  0  0  0  0  0  0  0  0
   39.7520   33.0520   46.9700 C   0  0  0  0  0  0  0  0  0  0  0  0
   40.4470   32.9720   45.3590 Cl  0  0  0  0  0  0  0  0  0  0  0  0
   34.4190   29.5080   49.8040 C   0  0  0  0  0  0  0  0  0  0  0  0
   33.7240   29.7700   50.8250 O   0  0  0  0  0  0  0  0  0  0  0  0
   32.3220   27.2610   47.8790 C   0  0  0  0  0  0  0  0  0  0  0  0
   32.8240   27.3820   46.5780 C   0  0  0  0  0  0  0  0  0  0  0  0
   33.8870   28.2370   46.3580 C   0  0  0  0  0  0  0  0  0  0  0  0
   34.3840   28.9160   47.4290 N   0  0  0  0  0  0  0  0  0  0  0  0
   33.8860   28.7850   48.6680 C   0  0  0  0  0  0  0  0  0  0  0  0
   32.8490   27.9520   48.8930 N   0  0  0  0  0  0  0  0  0  0  0  0
   31.4830   26.6050   48.1280 H   0  0  0  0  0  0  0  0  0  0  0  0
   32.3450   26.7950   45.8310 H   0  0  0  0  0  0  0  0  0  0  0  0
   34.2770   28.3320   45.3540 H   0  0  0  0  0  0  0  0  0  0  0  0
  1 19  1  0  0  0  0
  1  2  2  0  0  0  0
  2  6  1  0  0  0  0
  3  2  1  0  0  0  0
  3  7  1  0  0  0  0
  4  3  2  0  0  0  0
  5  4  1  0  0  0  0
  5  1  1  0  0  0  0
  8  9  1  0  0  0  0
  9 10  1  0  0  0  0
 10  4  1  0  0  0  0
 10 11  2  0  0  0  0
 11 12  1  0  0  0  0
 13 11  1  0  0  0  0
 13 14  1  0  0  0  0
 15 13  2  0  0  0  0
 16 15  1  0  0  0  0
 17  9  2  0  0  0  0
 17 15  1  0  0  0  0
 18 17  1  0  0  0  0
 19 20  2  0  0  0  0
 21 27  1  0  0  0  0
 21 26  1  0  0  0  0
 22 21  2  0  0  0  0
 23 22  1  0  0  0  0
 23 24  2  0  0  0  0
 24 25  1  0  0  0  0
 25 26  2  0  0  0  0
 25 19  1  0  0  0  0
 28 22  1  0  0  0  0
 29 23  1  0  0  0  0
M  END
>  <minimizedAffinity>
-6.56627464

>  <minimizedRMSD>
2.19124556

$$$$
