
 OpenBabel03272508453D

 29 31  0  0  0  0  0  0  0  0999 V2000
   32.3880   28.4690   45.4940 C   0  0  0  0  0  0  0  0  0  0  0  0
   33.6880   28.3270   45.9620 C   0  0  0  0  0  0  0  0  0  0  0  0
   34.3980   29.1810   45.1150 C   0  0  0  0  0  0  0  0  0  0  0  0
   33.5530   29.7780   44.2130 C   0  0  0  0  0  0  0  0  0  0  0  0
   32.3550   29.3280   44.4690 O   0  0  0  0  0  0  0  0  0  0  0  0
   34.0130   27.7000   46.7800 H   0  0  0  0  0  0  0  0  0  0  0  0
   35.4770   29.3300   45.1870 H   0  0  0  0  0  0  0  0  0  0  0  0
   31.3100   31.4990   43.0590 Cl  0  0  0  0  0  0  0  0  0  0  0  0
   32.9880   31.5490   42.5950 C   0  0  0  0  0  0  0  0  0  0  0  0
   33.9350   30.7290   43.1750 C   0  0  0  0  0  0  0  0  0  0  0  0
   35.2480   30.8140   42.7670 C   0  0  0  0  0  0  0  0  0  0  0  0
   35.9680   30.1500   43.2490 H   0  0  0  0  0  0  0  0  0  0  0  0
   35.6980   31.6850   41.7910 C   0  0  0  0  0  0  0  0  0  0  0  0
   36.7530   31.6690   41.5480 H   0  0  0  0  0  0  0  0  0  0  0  0
   34.7440   32.5100   41.2070 C   0  0  0  0  0  0  0  0  0  0  0  0
   35.0950   33.1910   40.4460 H   0  0  0  0  0  0  0  0  0  0  0  0
   33.4130   32.4400   41.6060 C   0  0  0  0  0  0  0  0  0  0  0  0
   32.2930   33.5280   40.8010 Cl  0  0  0  0  0  0  0  0  0  0  0  0
   31.2260   27.7750   46.0470 C   0  0  0  0  0  0  0  0  0  0  0  0
   31.0410   27.8550   47.2940 O   0  0  0  0  0  0  0  0  0  0  0  0
   28.2330   26.1020   44.8660 C   0  0  0  0  0  0  0  0  0  0  0  0
   28.6000   25.6360   43.5980 C   0  0  0  0  0  0  0  0  0  0  0  0
   29.8800   25.8960   43.1440 C   0  0  0  0  0  0  0  0  0  0  0  0
   30.7110   26.5950   43.9650 N   0  0  0  0  0  0  0  0  0  0  0  0
   30.3380   27.0330   45.1770 C   0  0  0  0  0  0  0  0  0  0  0  0
   29.0910   26.7840   45.6300 N   0  0  0  0  0  0  0  0  0  0  0  0
   27.2400   25.9340   45.2900 H   0  0  0  0  0  0  0  0  0  0  0  0
   27.8550   25.1020   43.0580 H   0  0  0  0  0  0  0  0  0  0  0  0
   30.1650   25.5370   42.1650 H   0  0  0  0  0  0  0  0  0  0  0  0
  1  2  2  0  0  0  0
  1 19  1  0  0  0  0
  2  6  1  0  0  0  0
  3  7  1  0  0  0  0
  3  2  1  0  0  0  0
  4  5  1  0  0  0  0
  4  3  2  0  0  0  0
  5  1  1  0  0  0  0
  9  8  1  0  0  0  0
  9 10  1  0  0  0  0
 10  4  1  0  0  0  0
 11 10  2  0  0  0  0
 11 12  1  0  0  0  0
 13 11  1  0  0  0  0
 14 13  1  0  0  0  0
 15 17  1  0  0  0  0
 15 13  2  0  0  0  0
 16 15  1  0  0  0  0
 17  9  2  0  0  0  0
 18 17  1  0  0  0  0
 19 20  2  0  0  0  0
 21 27  1  0  0  0  0
 21 26  1  0  0  0  0
 22 21  2  0  0  0  0
 23 22  1  0  0  0  0
 23 24  2  0  0  0  0
 24 25  1  0  0  0  0
 25 26  2  0  0  0  0
 25 19  1  0  0  0  0
 28 22  1  0  0  0  0
 29 23  1  0  0  0  0
M  END
>  <minimizedAffinity>
-2.0511291

>  <minimizedRMSD>
7.96424246

$$$$
