
 OpenBabel03272502073D

 41 44  0  0  0  0  0  0  0  0999 V2000
   34.4540   30.4040   47.5070 F   0  0  0  0  0  0  0  0  0  0  0  0
   34.8480   29.9460   46.2750 C   0  0  0  0  0  0  0  0  0  0  0  0
   33.9700   29.2910   45.4180 C   0  0  0  0  0  0  0  0  0  0  0  0
   34.4240   28.8770   44.1900 C   0  0  0  0  0  0  0  0  0  0  0  0
   35.7510   29.1090   43.8030 C   0  0  0  0  0  0  0  0  0  0  0  0
   36.5690   29.7640   44.7020 C   0  0  0  0  0  0  0  0  0  0  0  0
   36.1680   30.1870   45.9130 C   0  0  0  0  0  0  0  0  0  0  0  0
   33.7020   28.3760   43.5730 H   0  0  0  0  0  0  0  0  0  0  0  0
   36.0680   28.7710   42.8370 H   0  0  0  0  0  0  0  0  0  0  0  0
   37.5760   29.9030   44.3250 H   0  0  0  0  0  0  0  0  0  0  0  0
   37.9980   32.4360   44.7280 Br  0  0  0  0  0  0  0  0  0  0  0  0
   37.9580   31.8800   46.5440 C   0  0  0  0  0  0  0  0  0  0  0  0
   37.0890   30.8540   46.8090 C   0  0  0  0  0  0  0  0  0  0  0  0
   37.0370   30.3650   48.1240 C   0  0  0  0  0  0  0  0  0  0  0  0
   37.8230   30.8960   49.1020 C   0  0  0  0  0  0  0  0  0  0  0  0
   38.6670   31.9210   48.7660 C   0  0  0  0  0  0  0  0  0  0  0  0
   38.7520   32.4370   47.4740 C   0  0  0  0  0  0  0  0  0  0  0  0
   36.3820   29.5560   48.4300 H   0  0  0  0  0  0  0  0  0  0  0  0
   37.8150   30.5480   50.1290 H   0  0  0  0  0  0  0  0  0  0  0  0
   39.3190   32.3840   49.5130 H   0  0  0  0  0  0  0  0  0  0  0  0
   39.5640   33.4590   47.0600 O   0  0  0  0  0  0  0  0  0  0  0  0
   39.5650   34.3280   47.6070 H   0  0  0  0  0  0  0  0  0  0  0  0
   32.3800   27.9530   46.6350 C   0  0  0  0  0  0  0  0  0  0  0  0
   32.6360   29.1160   45.9290 C   0  0  0  0  0  0  0  0  0  0  0  0
   31.6020   30.0500   45.7810 C   0  0  0  0  0  0  0  0  0  0  0  0
   30.3840   29.8050   46.3270 N   0  0  0  0  0  0  0  0  0  0  0  0
   30.1820   28.6590   47.0090 C   0  0  0  0  0  0  0  0  0  0  0  0
   31.1360   27.7580   47.1640 N   0  0  0  0  0  0  0  0  0  0  0  0
   33.0640   27.1400   46.8360 H   0  0  0  0  0  0  0  0  0  0  0  0
   31.8330   30.9510   45.2200 H   0  0  0  0  0  0  0  0  0  0  0  0
   30.0720   28.0940   50.0030 Cl  0  0  0  0  0  0  0  0  0  0  0  0
   28.6750   28.1490   48.9320 C   0  0  0  0  0  0  0  0  0  0  0  0
   28.8630   28.4160   47.5910 C   0  0  0  0  0  0  0  0  0  0  0  0
   27.7190   28.4440   46.8100 C   0  0  0  0  0  0  0  0  0  0  0  0
   27.8750   28.6540   45.7600 H   0  0  0  0  0  0  0  0  0  0  0  0
   26.4360   28.2240   47.2920 C   0  0  0  0  0  0  0  0  0  0  0  0
   25.5820   28.2540   46.6560 H   0  0  0  0  0  0  0  0  0  0  0  0
   26.3720   27.9670   48.6450 C   0  0  0  0  0  0  0  0  0  0  0  0
   25.3610   27.7900   49.0440 H   0  0  0  0  0  0  0  0  0  0  0  0
   27.4450   27.9160   49.5130 C   0  0  0  0  0  0  0  0  0  0  0  0
   27.2420   27.5790   51.2200 Cl  0  0  0  0  0  0  0  0  0  0  0  0
  2  1  1  0  0  0  0
  3 24  1  0  0  0  0
  3  2  2  0  0  0  0
  4  3  1  0  0  0  0
  5  4  2  0  0  0  0
  5  6  1  0  0  0  0
  6  7  2  0  0  0  0
  7  2  1  0  0  0  0
  7 13  1  0  0  0  0
  8  4  1  0  0  0  0
  9  5  1  0  0  0  0
 10  6  1  0  0  0  0
 11 12  1  0  0  0  0
 12 13  2  0  0  0  0
 12 17  1  0  0  0  0
 13 14  1  0  0  0  0
 14 18  1  0  0  0  0
 14 15  2  0  0  0  0
 15 19  1  0  0  0  0
 16 15  1  0  0  0  0
 16 20  1  0  0  0  0
 17 16  2  0  0  0  0
 21 17  1  0  0  0  0
 21 22  1  0  0  0  0
 23 29  1  0  0  0  0
 23 28  1  0  0  0  0
 24 23  2  0  0  0  0
 25 24  1  0  0  0  0
 25 26  2  0  0  0  0
 26 27  1  0  0  0  0
 27 28  2  0  0  0  0
 27 33  1  0  0  0  0
 30 25  1  0  0  0  0
 32 40  1  0  0  0  0
 32 31  1  0  0  0  0
 33 32  2  0  0  0  0
 34 36  2  0  0  0  0
 34 33  1  0  0  0  0
 35 34  1  0  0  0  0
 36 38  1  0  0  0  0
 37 36  1  0  0  0  0
 38 39  1  0  0  0  0
 38 40  2  0  0  0  0
 40 41  1  0  0  0  0
M  END
>  <minimizedAffinity>
-7.51104736

>  <minimizedRMSD>
0.40280506

$$$$
