
 OpenBabel03272507143D

 42 46  0  0  0  0  0  0  0  0999 V2000
   35.7290   29.0760   49.8260 C   0  0  0  0  0  0  0  0  0  0  0  0
   34.7120   29.5480   50.5910 C   0  0  0  0  0  0  0  0  0  0  0  0
   33.5400   28.9640   50.1100 C   0  0  0  0  0  0  0  0  0  0  0  0
   33.9390   28.1450   49.0450 C   0  0  0  0  0  0  0  0  0  0  0  0
   35.2270   28.2630   48.9390 O   0  0  0  0  0  0  0  0  0  0  0  0
   34.7610   30.2460   51.4250 H   0  0  0  0  0  0  0  0  0  0  0  0
   32.5780   29.1660   50.5390 H   0  0  0  0  0  0  0  0  0  0  0  0
   33.3780   26.3330   47.4340 C   0  0  0  0  0  0  0  0  0  0  0  0
   32.9850   27.3480   48.2660 C   0  0  0  0  0  0  0  0  0  0  0  0
   31.6470   27.6870   48.4290 C   0  0  0  0  0  0  0  0  0  0  0  0
   30.7160   26.9480   47.7120 C   0  0  0  0  0  0  0  0  0  0  0  0
   29.3820   27.0540   47.6820 N   0  0  0  0  0  0  0  0  0  0  0  0
   28.9370   26.1170   46.8440 N   0  0  0  0  0  0  0  0  0  0  0  0
   29.9720   25.4330   46.3540 C   0  0  0  0  0  0  0  0  0  0  0  0
   31.1550   25.9350   46.8860 C   0  0  0  0  0  0  0  0  0  0  0  0
   32.4910   25.6010   46.7250 C   0  0  0  0  0  0  0  0  0  0  0  0
   34.4590   26.1500   47.3770 H   0  0  0  0  0  0  0  0  0  0  0  0
   31.2670   28.4820   49.0730 H   0  0  0  0  0  0  0  0  0  0  0  0
   28.7480   27.7150   48.1890 H   0  0  0  0  0  0  0  0  0  0  0  0
   29.9730   24.5950   45.6400 H   0  0  0  0  0  0  0  0  0  0  0  0
   32.7910   24.7970   46.0650 H   0  0  0  0  0  0  0  0  0  0  0  0
   37.1100   29.4800   50.0480 C   0  0  0  0  0  0  0  0  0  0  0  0
   37.7890   28.8730   50.9190 O   0  0  0  0  0  0  0  0  0  0  0  0
   37.6240   30.5650   49.2460 C   0  0  0  0  0  0  0  0  0  0  0  0
   38.2940   31.5790   49.9080 C   0  0  0  0  0  0  0  0  0  0  0  0
   38.8040   32.6430   49.1720 C   0  0  0  0  0  0  0  0  0  0  0  0
   38.6100   32.6150   47.8230 N   0  0  0  0  0  0  0  0  0  0  0  0
   37.9590   31.6240   47.2020 C   0  0  0  0  0  0  0  0  0  0  0  0
   37.4740   30.6100   47.9230 N   0  0  0  0  0  0  0  0  0  0  0  0
   38.4740   31.6510   50.9580 H   0  0  0  0  0  0  0  0  0  0  0  0
   39.3420   33.4700   49.6440 H   0  0  0  0  0  0  0  0  0  0  0  0
   39.8970   33.3210   45.7930 Cl  0  0  0  0  0  0  0  0  0  0  0  0
   38.6280   32.4100   44.9710 C   0  0  0  0  0  0  0  0  0  0  0  0
   37.7810   31.6490   45.7530 C   0  0  0  0  0  0  0  0  0  0  0  0
   36.7740   30.9200   45.1580 C   0  0  0  0  0  0  0  0  0  0  0  0
   36.0880   30.3100   45.7300 H   0  0  0  0  0  0  0  0  0  0  0  0
   36.6150   30.9530   43.7680 C   0  0  0  0  0  0  0  0  0  0  0  0
   35.8380   30.4010   43.2270 H   0  0  0  0  0  0  0  0  0  0  0  0
   37.4880   31.7290   43.0350 C   0  0  0  0  0  0  0  0  0  0  0  0
   37.3740   31.7620   41.9620 H   0  0  0  0  0  0  0  0  0  0  0  0
   38.4940   32.4600   43.6110 C   0  0  0  0  0  0  0  0  0  0  0  0
   39.6200   33.4570   42.6920 Cl  0  0  0  0  0  0  0  0  0  0  0  0
  1 22  1  0  0  0  0
  1  2  2  0  0  0  0
  2  6  1  0  0  0  0
  3  7  1  0  0  0  0
  3  2  1  0  0  0  0
  4  3  2  0  0  0  0
  5  4  1  0  0  0  0
  5  1  1  0  0  0  0
  8  9  1  0  0  0  0
  9 10  2  0  0  0  0
  9  4  1  0  0  0  0
 10 18  1  0  0  0  0
 11 10  1  0  0  0  0
 12 11  1  0  0  0  0
 12 19  1  0  0  0  0
 13 12  1  0  0  0  0
 14 13  2  0  0  0  0
 14 15  1  0  0  0  0
 15 11  2  0  0  0  0
 16 15  1  0  0  0  0
 16  8  2  0  0  0  0
 17  8  1  0  0  0  0
 20 14  1  0  0  0  0
 21 16  1  0  0  0  0
 22 23  2  0  0  0  0
 24 25  1  0  0  0  0
 24 22  1  0  0  0  0
 25 30  1  0  0  0  0
 26 31  1  0  0  0  0
 26 25  2  0  0  0  0
 27 26  1  0  0  0  0
 28 27  2  0  0  0  0
 28 29  1  0  0  0  0
 29 24  2  0  0  0  0
 33 34  1  0  0  0  0
 33 32  1  0  0  0  0
 34 28  1  0  0  0  0
 35 36  1  0  0  0  0
 35 34  2  0  0  0  0
 37 35  1  0  0  0  0
 38 37  1  0  0  0  0
 39 41  1  0  0  0  0
 39 37  2  0  0  0  0
 40 39  1  0  0  0  0
 41 33  2  0  0  0  0
 42 41  1  0  0  0  0
M  END
>  <minimizedAffinity>
-7.18409634

>  <minimizedRMSD>
0.869392335

$$$$
