
 OpenBabel03262523343D

 42 46  0  0  1  0  0  0  0  0999 V2000
   35.4980   25.9690   31.1140 C   0  0  0  0  0  0  0  0  0  0  0  0
   35.4440   24.5880   31.1330 C   0  0  0  0  0  0  0  0  0  0  0  0
   36.4610   23.8850   31.8060 C   0  0  0  0  0  0  0  0  0  0  0  0
   37.4590   24.6020   32.4100 N   0  0  0  0  0  0  0  0  0  0  0  0
   37.4600   25.9530   32.3570 C   0  0  0  0  0  0  0  0  0  0  0  0
   36.5130   26.6380   31.7300 N   0  0  0  0  0  0  0  0  0  0  0  0
   34.7260   26.5560   30.6020 H   0  0  0  0  0  0  0  0  0  0  0  0
   34.6460   24.0470   30.6490 H   0  0  0  0  0  0  0  0  0  0  0  0
   37.7580   21.8580   31.9750 C   0  0  0  0  0  0  0  0  0  0  0  0
   36.4880   22.4430   31.8860 C   0  0  0  0  0  0  0  0  0  0  0  0
   35.3840   21.6350   31.8840 C   0  0  0  0  0  0  0  0  0  0  0  0
   35.5310   20.2760   31.9680 C   0  0  0  0  0  0  0  0  0  0  0  0
   34.5840   19.3090   31.9840 N   0  0  0  0  0  0  0  0  0  0  0  0
   35.2120   18.1370   32.0780 C   0  0  0  0  0  0  0  0  0  0  0  0
   36.5390   18.3260   32.1240 N   0  0  0  0  0  0  0  0  0  0  0  0
   36.7630   19.6550   32.0580 C   0  0  0  0  0  0  0  0  0  0  0  0
   37.8850   20.4700   32.0600 C   0  0  0  0  0  0  0  0  0  0  0  0
   38.6740   22.4120   31.9820 H   0  0  0  0  0  0  0  0  0  0  0  0
   34.4080   22.0740   31.8160 H   0  0  0  0  0  0  0  0  0  0  0  0
   33.5570   19.4690   31.9300 H   0  0  0  0  0  0  0  0  0  0  0  0
   34.6640   17.1970   32.1080 H   0  0  0  0  0  0  0  0  0  0  0  0
   38.8630   19.9840   32.1300 H   0  0  0  0  0  0  0  0  0  0  0  0
   38.5400   26.6460   33.0210 C   0  0  0  0  0  0  0  0  0  0  0  0
   39.3320   27.4240   32.4270 O   0  0  0  0  0  0  0  0  0  0  0  0
   38.7510   26.4370   34.5090 C   0  0  1  0  0  0  0  0  0  0  0  0
   37.7800   27.2150   35.4210 C   0  0  0  0  0  0  0  0  0  0  0  0
   37.7430   25.7440   35.3070 C   0  0  2  0  0  0  0  0  0  0  0  0
   39.8110   26.5040   34.8300 H   0  0  0  0  0  0  0  0  0  0  0  0
   38.2770   27.7410   36.2310 H   0  0  0  0  0  0  0  0  0  0  0  0
   37.0480   27.8200   34.8640 H   0  0  0  0  0  0  0  0  0  0  0  0
   36.8620   25.3300   34.7650 H   0  0  0  0  0  0  0  0  0  0  0  0
   39.6780   23.5340   34.6330 Cl  0  0  0  0  0  0  0  0  0  0  0  0
   39.0840   23.8410   36.2650 C   0  0  0  0  0  0  0  0  0  0  0  0
   38.2080   24.8810   36.4190 C   0  0  0  0  0  0  0  0  0  0  0  0
   37.7790   25.0680   37.7270 C   0  0  0  0  0  0  0  0  0  0  0  0
   37.0840   25.8620   37.9700 H   0  0  0  0  0  0  0  0  0  0  0  0
   38.2070   24.2690   38.7680 C   0  0  0  0  0  0  0  0  0  0  0  0
   37.8550   24.4410   39.7730 H   0  0  0  0  0  0  0  0  0  0  0  0
   39.0930   23.2410   38.5200 C   0  0  0  0  0  0  0  0  0  0  0  0
   39.4140   22.6280   39.3530 H   0  0  0  0  0  0  0  0  0  0  0  0
   39.5550   23.0050   37.2400 C   0  0  0  0  0  0  0  0  0  0  0  0
   40.6800   21.6990   36.9290 Cl  0  0  0  0  0  0  0  0  0  0  0  0
  1  2  2  0  0  0  0
  1  6  1  0  0  0  0
  2  3  1  0  0  0  0
  3 10  1  0  0  0  0
  3  4  2  0  0  0  0
  5  4  1  0  0  0  0
  5 23  1  0  0  0  0
  6  5  2  0  0  0  0
  7  1  1  0  0  0  0
  8  2  1  0  0  0  0
  9 18  1  0  0  0  0
  9 17  1  0  0  0  0
 10  9  2  0  0  0  0
 11 10  1  0  0  0  0
 11 12  2  0  0  0  0
 12 13  1  0  0  0  0
 12 16  1  0  0  0  0
 13 14  1  0  0  0  0
 14 21  1  0  0  0  0
 14 15  2  0  0  0  0
 16 17  2  0  0  0  0
 16 15  1  0  0  0  0
 17 22  1  0  0  0  0
 19 11  1  0  0  0  0
 20 13  1  0  0  0  0
 23 25  1  0  0  0  0
 24 23  2  0  0  0  0
 25 28  1  1  0  0  0
 25 27  1  0  0  0  0
 25 26  1  0  0  0  0
 26 29  1  0  0  0  0
 27 31  1  6  0  0  0
 27 26  1  0  0  0  0
 27 34  1  0  0  0  0
 30 26  1  0  0  0  0
 32 33  1  0  0  0  0
 33 34  2  0  0  0  0
 33 41  1  0  0  0  0
 34 35  1  0  0  0  0
 35 36  1  0  0  0  0
 35 37  2  0  0  0  0
 37 38  1  0  0  0  0
 39 37  1  0  0  0  0
 39 40  1  0  0  0  0
 41 39  2  0  0  0  0
 42 41  1  0  0  0  0
M  END
>  <minimizedAffinity>
-7.15581942

$$$$

 OpenBabel03262523343D

 42 46  0  0  1  0  0  0  0  0999 V2000
   36.6030   29.0260   30.5630 C   0  0  0  0  0  0  0  0  0  0  0  0
   35.8100   29.6680   31.4950 C   0  0  0  0  0  0  0  0  0  0  0  0
   35.9150   29.2880   32.8450 C   0  0  0  0  0  0  0  0  0  0  0  0
   36.8010   28.2960   33.1760 N   0  0  0  0  0  0  0  0  0  0  0  0
   37.5510   27.7030   32.2200 C   0  0  0  0  0  0  0  0  0  0  0  0
   37.4700   28.0440   30.9410 N   0  0  0  0  0  0  0  0  0  0  0  0
   36.5530   29.2920   29.5010 H   0  0  0  0  0  0  0  0  0  0  0  0
   35.1200   30.4470   31.2090 H   0  0  0  0  0  0  0  0  0  0  0  0
   33.7900   29.5100   33.9650 C   0  0  0  0  0  0  0  0  0  0  0  0
   35.1330   29.9040   33.8910 C   0  0  0  0  0  0  0  0  0  0  0  0
   35.6070   30.8180   34.7920 C   0  0  0  0  0  0  0  0  0  0  0  0
   34.7710   31.3350   35.7470 C   0  0  0  0  0  0  0  0  0  0  0  0
   35.0330   32.2370   36.7200 N   0  0  0  0  0  0  0  0  0  0  0  0
   33.9050   32.4260   37.4040 C   0  0  0  0  0  0  0  0  0  0  0  0
   32.9230   31.6680   36.8930 N   0  0  0  0  0  0  0  0  0  0  0  0
   33.4400   30.9760   35.8570 C   0  0  0  0  0  0  0  0  0  0  0  0
   32.9560   30.0490   34.9470 C   0  0  0  0  0  0  0  0  0  0  0  0
   33.3350   28.8030   33.3030 H   0  0  0  0  0  0  0  0  0  0  0  0
   36.6330   31.1250   34.7430 H   0  0  0  0  0  0  0  0  0  0  0  0
   35.9540   32.6910   36.8900 H   0  0  0  0  0  0  0  0  0  0  0  0
   33.8550   33.1150   38.2460 H   0  0  0  0  0  0  0  0  0  0  0  0
   31.9020   29.7620   35.0290 H   0  0  0  0  0  0  0  0  0  0  0  0
   38.4690   26.6690   32.6400 C   0  0  0  0  0  0  0  0  0  0  0  0
   39.6210   26.5260   32.1500 O   0  0  0  0  0  0  0  0  0  0  0  0
   38.0420   25.6920   33.7190 C   0  0  1  0  0  0  0  0  0  0  0  0
   37.6680   24.2830   33.2130 C   0  0  0  0  0  0  0  0  0  0  0  0
   38.8700   24.5300   34.0330 C   0  0  2  0  0  0  0  0  0  0  0  0
   37.3150   26.1100   34.4450 H   0  0  0  0  0  0  0  0  0  0  0  0
   36.7300   23.9150   33.6190 H   0  0  0  0  0  0  0  0  0  0  0  0
   37.7710   24.1700   32.1230 H   0  0  0  0  0  0  0  0  0  0  0  0
   39.8410   24.4380   33.4950 H   0  0  0  0  0  0  0  0  0  0  0  0
   41.0230   22.5530   34.7670 Cl  0  0  0  0  0  0  0  0  0  0  0  0
   39.8550   23.1920   35.9240 C   0  0  0  0  0  0  0  0  0  0  0  0
   38.9350   24.0840   35.4450 C   0  0  0  0  0  0  0  0  0  0  0  0
   38.0450   24.5480   36.4070 C   0  0  0  0  0  0  0  0  0  0  0  0
   37.2720   25.2580   36.1440 H   0  0  0  0  0  0  0  0  0  0  0  0
   38.0980   24.1370   37.7230 C   0  0  0  0  0  0  0  0  0  0  0  0
   37.3920   24.5180   38.4460 H   0  0  0  0  0  0  0  0  0  0  0  0
   39.0620   23.2330   38.1190 C   0  0  0  0  0  0  0  0  0  0  0  0
   39.0830   22.9260   39.1570 H   0  0  0  0  0  0  0  0  0  0  0  0
   39.9740   22.7360   37.2080 C   0  0  0  0  0  0  0  0  0  0  0  0
   41.1970   21.5880   37.7140 Cl  0  0  0  0  0  0  0  0  0  0  0  0
  1  6  2  0  0  0  0
  1  2  1  0  0  0  0
  2  3  2  0  0  0  0
  3  4  1  0  0  0  0
  3 10  1  0  0  0  0
  5 23  1  0  0  0  0
  5  4  2  0  0  0  0
  6  5  1  0  0  0  0
  7  1  1  0  0  0  0
  8  2  1  0  0  0  0
  9 17  1  0  0  0  0
 10  9  2  0  0  0  0
 10 11  1  0  0  0  0
 11 12  2  0  0  0  0
 12 16  1  0  0  0  0
 12 13  1  0  0  0  0
 13 20  1  0  0  0  0
 13 14  1  0  0  0  0
 14 21  1  0  0  0  0
 15 14  2  0  0  0  0
 16 15  1  0  0  0  0
 17 22  1  0  0  0  0
 17 16  2  0  0  0  0
 18  9  1  0  0  0  0
 19 11  1  0  0  0  0
 23 25  1  0  0  0  0
 24 23  2  0  0  0  0
 25 27  1  0  0  0  0
 25 28  1  1  0  0  0
 26 29  1  0  0  0  0
 26 25  1  0  0  0  0
 26 27  1  0  0  0  0
 27 31  1  6  0  0  0
 27 34  1  0  0  0  0
 30 26  1  0  0  0  0
 32 33  1  0  0  0  0
 33 41  1  0  0  0  0
 34 33  2  0  0  0  0
 34 35  1  0  0  0  0
 35 37  2  0  0  0  0
 36 35  1  0  0  0  0
 37 39  1  0  0  0  0
 37 38  1  0  0  0  0
 39 40  1  0  0  0  0
 41 42  1  0  0  0  0
 41 39  2  0  0  0  0
M  END
>  <minimizedAffinity>
-6.61902428

$$$$

 OpenBabel03262523343D

 42 46  0  0  1  0  0  0  0  0999 V2000
   37.7750   27.5140   35.3730 C   0  0  0  0  0  0  0  0  0  0  0  0
   38.7170   26.6320   35.8670 C   0  0  0  0  0  0  0  0  0  0  0  0
   39.0100   25.4750   35.1230 C   0  0  0  0  0  0  0  0  0  0  0  0
   38.3460   25.2740   33.9420 N   0  0  0  0  0  0  0  0  0  0  0  0
   37.4330   26.1720   33.5080 C   0  0  0  0  0  0  0  0  0  0  0  0
   37.1410   27.2710   34.1920 N   0  0  0  0  0  0  0  0  0  0  0  0
   37.5180   28.4290   35.9210 H   0  0  0  0  0  0  0  0  0  0  0  0
   39.2270   26.8140   36.8010 H   0  0  0  0  0  0  0  0  0  0  0  0
   41.2690   24.6340   35.0140 C   0  0  0  0  0  0  0  0  0  0  0  0
   39.9830   24.4970   35.5530 C   0  0  0  0  0  0  0  0  0  0  0  0
   39.7350   23.4780   36.4320 C   0  0  0  0  0  0  0  0  0  0  0  0
   40.7390   22.6090   36.7710 C   0  0  0  0  0  0  0  0  0  0  0  0
   40.7090   21.5480   37.6110 N   0  0  0  0  0  0  0  0  0  0  0  0
   41.9290   21.0120   37.6190 C   0  0  0  0  0  0  0  0  0  0  0  0
   42.7430   21.7010   36.8060 N   0  0  0  0  0  0  0  0  0  0  0  0
   42.0220   22.7050   36.2650 C   0  0  0  0  0  0  0  0  0  0  0  0
   42.2770   23.7370   35.3750 C   0  0  0  0  0  0  0  0  0  0  0  0
   41.5510   25.4000   34.3220 H   0  0  0  0  0  0  0  0  0  0  0  0
   38.7550   23.3660   36.8490 H   0  0  0  0  0  0  0  0  0  0  0  0
   39.8760   21.2240   38.1430 H   0  0  0  0  0  0  0  0  0  0  0  0
   42.1640   20.1360   38.2230 H   0  0  0  0  0  0  0  0  0  0  0  0
   43.2910   23.8180   34.9700 H   0  0  0  0  0  0  0  0  0  0  0  0
   36.7750   25.9010   32.2510 C   0  0  0  0  0  0  0  0  0  0  0  0
   36.7800   26.7040   31.2800 O   0  0  0  0  0  0  0  0  0  0  0  0
   36.0310   24.5920   32.0710 C   0  0  1  0  0  0  0  0  0  0  0  0
   35.2520   24.4600   30.7460 C   0  0  0  0  0  0  0  0  0  0  0  0
   36.4450   23.6420   31.0420 C   0  0  2  0  0  0  0  0  0  0  0  0
   35.4470   24.2780   32.9610 H   0  0  0  0  0  0  0  0  0  0  0  0
   34.2340   24.1050   30.8770 H   0  0  0  0  0  0  0  0  0  0  0  0
   35.3490   25.3420   30.0940 H   0  0  0  0  0  0  0  0  0  0  0  0
   37.3560   23.8970   30.4530 H   0  0  0  0  0  0  0  0  0  0  0  0
   38.6960   21.8450   30.1540 Cl  0  0  0  0  0  0  0  0  0  0  0  0
   37.2620   21.2620   30.9990 C   0  0  0  0  0  0  0  0  0  0  0  0
   36.3220   22.1950   31.3400 C   0  0  0  0  0  0  0  0  0  0  0  0
   35.2190   21.6700   32.0030 C   0  0  0  0  0  0  0  0  0  0  0  0
   34.4110   22.3150   32.3220 H   0  0  0  0  0  0  0  0  0  0  0  0
   35.0970   20.3240   32.2840 C   0  0  0  0  0  0  0  0  0  0  0  0
   34.2270   19.9480   32.8010 H   0  0  0  0  0  0  0  0  0  0  0  0
   36.0960   19.4520   31.9020 C   0  0  0  0  0  0  0  0  0  0  0  0
   35.9770   18.4020   32.1340 H   0  0  0  0  0  0  0  0  0  0  0  0
   37.2160   19.9160   31.2400 C   0  0  0  0  0  0  0  0  0  0  0  0
   38.4830   18.8060   30.7560 Cl  0  0  0  0  0  0  0  0  0  0  0  0
  1  2  1  0  0  0  0
  1  7  1  0  0  0  0
  2  8  1  0  0  0  0
  3 10  1  0  0  0  0
  3  2  2  0  0  0  0
  4  3  1  0  0  0  0
  5  4  2  0  0  0  0
  5  6  1  0  0  0  0
  6  1  2  0  0  0  0
  9 17  2  0  0  0  0
  9 10  1  0  0  0  0
 10 11  2  0  0  0  0
 11 12  1  0  0  0  0
 11 19  1  0  0  0  0
 12 13  1  0  0  0  0
 13 14  1  0  0  0  0
 13 20  1  0  0  0  0
 14 21  1  0  0  0  0
 15 14  2  0  0  0  0
 16 12  2  0  0  0  0
 16 15  1  0  0  0  0
 17 16  1  0  0  0  0
 18  9  1  0  0  0  0
 22 17  1  0  0  0  0
 23  5  1  0  0  0  0
 24 23  2  0  0  0  0
 25 23  1  0  0  0  0
 25 28  1  1  0  0  0
 26 29  1  0  0  0  0
 26 27  1  0  0  0  0
 26 25  1  0  0  0  0
 27 31  1  6  0  0  0
 27 34  1  0  0  0  0
 27 25  1  0  0  0  0
 30 26  1  0  0  0  0
 32 33  1  0  0  0  0
 33 41  2  0  0  0  0
 33 34  1  0  0  0  0
 34 35  2  0  0  0  0
 35 37  1  0  0  0  0
 35 36  1  0  0  0  0
 37 38  1  0  0  0  0
 39 40  1  0  0  0  0
 39 37  2  0  0  0  0
 41 39  1  0  0  0  0
 42 41  1  0  0  0  0
M  END
>  <minimizedAffinity>
-6.60870647

$$$$

 OpenBabel03262523343D

 42 46  0  0  1  0  0  0  0  0999 V2000
   36.9590   29.0380   30.5580 C   0  0  0  0  0  0  0  0  0  0  0  0
   36.4460   29.7590   31.6190 C   0  0  0  0  0  0  0  0  0  0  0  0
   35.5850   29.1060   32.5220 C   0  0  0  0  0  0  0  0  0  0  0  0
   35.2940   27.7850   32.3050 N   0  0  0  0  0  0  0  0  0  0  0  0
   35.8260   27.1320   31.2470 C   0  0  0  0  0  0  0  0  0  0  0  0
   36.6400   27.7250   30.3840 N   0  0  0  0  0  0  0  0  0  0  0  0
   37.6340   29.5080   29.8320 H   0  0  0  0  0  0  0  0  0  0  0  0
   36.6910   30.7990   31.7680 H   0  0  0  0  0  0  0  0  0  0  0  0
   33.6380   29.5420   33.8780 C   0  0  0  0  0  0  0  0  0  0  0  0
   35.0040   29.7720   33.6630 C   0  0  0  0  0  0  0  0  0  0  0  0
   35.6840   30.5880   34.5270 C   0  0  0  0  0  0  0  0  0  0  0  0
   35.0270   31.1650   35.5820 C   0  0  0  0  0  0  0  0  0  0  0  0
   35.5050   31.9910   36.5420 N   0  0  0  0  0  0  0  0  0  0  0  0
   34.4890   32.2900   37.3520 C   0  0  0  0  0  0  0  0  0  0  0  0
   33.3710   31.6770   36.9370 N   0  0  0  0  0  0  0  0  0  0  0  0
   33.6820   30.9670   35.8320 C   0  0  0  0  0  0  0  0  0  0  0  0
   32.9900   30.1410   34.9600 C   0  0  0  0  0  0  0  0  0  0  0  0
   33.0300   28.9210   33.2540 H   0  0  0  0  0  0  0  0  0  0  0  0
   36.7280   30.7690   34.3710 H   0  0  0  0  0  0  0  0  0  0  0  0
   36.4880   32.3230   36.6180 H   0  0  0  0  0  0  0  0  0  0  0  0
   34.6180   32.9470   38.2100 H   0  0  0  0  0  0  0  0  0  0  0  0
   31.9240   29.9820   35.1530 H   0  0  0  0  0  0  0  0  0  0  0  0
   35.4820   25.7380   31.0830 C   0  0  0  0  0  0  0  0  0  0  0  0
   34.4910   25.3450   30.4100 O   0  0  0  0  0  0  0  0  0  0  0  0
   36.3400   24.6790   31.7480 C   0  0  1  0  0  0  0  0  0  0  0  0
   37.6680   24.3670   31.0260 C   0  0  0  0  0  0  0  0  0  0  0  0
   37.6260   25.0360   32.3410 C   0  0  2  0  0  0  0  0  0  0  0  0
   35.7800   23.7720   32.0580 H   0  0  0  0  0  0  0  0  0  0  0  0
   37.8500   23.3040   30.9000 H   0  0  0  0  0  0  0  0  0  0  0  0
   37.8220   24.9690   30.1180 H   0  0  0  0  0  0  0  0  0  0  0  0
   37.9050   26.1150   32.3360 H   0  0  0  0  0  0  0  0  0  0  0  0
   37.2180   26.4520   34.9700 Cl  0  0  0  0  0  0  0  0  0  0  0  0
   37.9230   24.8420   34.8330 C   0  0  0  0  0  0  0  0  0  0  0  0
   38.0460   24.3250   33.5730 C   0  0  0  0  0  0  0  0  0  0  0  0
   38.6070   23.0550   33.5350 C   0  0  0  0  0  0  0  0  0  0  0  0
   38.7540   22.5460   32.5910 H   0  0  0  0  0  0  0  0  0  0  0  0
   39.0010   22.3860   34.6770 C   0  0  0  0  0  0  0  0  0  0  0  0
   39.4350   21.4000   34.6130 H   0  0  0  0  0  0  0  0  0  0  0  0
   38.8400   22.9840   35.9090 C   0  0  0  0  0  0  0  0  0  0  0  0
   39.1560   22.4390   36.7900 H   0  0  0  0  0  0  0  0  0  0  0  0
   38.2870   24.2460   36.0100 C   0  0  0  0  0  0  0  0  0  0  0  0
   38.0830   25.0030   37.5770 Cl  0  0  0  0  0  0  0  0  0  0  0  0
  1  2  1  0  0  0  0
  2  8  1  0  0  0  0
  2  3  2  0  0  0  0
  3 10  1  0  0  0  0
  4  3  1  0  0  0  0
  5  4  2  0  0  0  0
  6  1  2  0  0  0  0
  6  5  1  0  0  0  0
  7  1  1  0  0  0  0
  9 17  1  0  0  0  0
 10  9  2  0  0  0  0
 10 11  1  0  0  0  0
 11 12  2  0  0  0  0
 12 16  1  0  0  0  0
 12 13  1  0  0  0  0
 13 20  1  0  0  0  0
 13 14  1  0  0  0  0
 14 21  1  0  0  0  0
 15 14  2  0  0  0  0
 16 15  1  0  0  0  0
 17 22  1  0  0  0  0
 17 16  2  0  0  0  0
 18  9  1  0  0  0  0
 19 11  1  0  0  0  0
 23  5  1  0  0  0  0
 23 25  1  0  0  0  0
 24 23  2  0  0  0  0
 25 28  1  1  0  0  0
 25 27  1  0  0  0  0
 26 25  1  0  0  0  0
 26 27  1  0  0  0  0
 27 31  1  6  0  0  0
 27 34  1  0  0  0  0
 29 26  1  0  0  0  0
 30 26  1  0  0  0  0
 33 32  1  0  0  0  0
 33 41  1  0  0  0  0
 34 33  2  0  0  0  0
 35 34  1  0  0  0  0
 35 37  2  0  0  0  0
 36 35  1  0  0  0  0
 37 39  1  0  0  0  0
 38 37  1  0  0  0  0
 39 41  2  0  0  0  0
 39 40  1  0  0  0  0
 41 42  1  0  0  0  0
M  END
>  <minimizedAffinity>
-6.4636178

$$$$

 OpenBabel03262523343D

 42 46  0  0  1  0  0  0  0  0999 V2000
   36.1290   24.7990   31.1520 C   0  0  0  0  0  0  0  0  0  0  0  0
   37.0480   24.2110   32.0000 C   0  0  0  0  0  0  0  0  0  0  0  0
   37.5870   24.9810   33.0470 C   0  0  0  0  0  0  0  0  0  0  0  0
   37.1770   26.2820   33.1770 N   0  0  0  0  0  0  0  0  0  0  0  0
   36.2750   26.8040   32.3160 C   0  0  0  0  0  0  0  0  0  0  0  0
   35.7520   26.0980   31.3220 N   0  0  0  0  0  0  0  0  0  0  0  0
   35.6840   24.2340   30.3240 H   0  0  0  0  0  0  0  0  0  0  0  0
   37.3550   23.1830   31.8760 H   0  0  0  0  0  0  0  0  0  0  0  0
   39.8830   24.8230   33.7710 C   0  0  0  0  0  0  0  0  0  0  0  0
   38.5480   24.4540   33.9870 C   0  0  0  0  0  0  0  0  0  0  0  0
   38.2470   23.6420   35.0470 C   0  0  0  0  0  0  0  0  0  0  0  0
   39.2440   23.2040   35.8780 C   0  0  0  0  0  0  0  0  0  0  0  0
   39.1640   22.4070   36.9680 N   0  0  0  0  0  0  0  0  0  0  0  0
   40.3990   22.2610   37.4470 C   0  0  0  0  0  0  0  0  0  0  0  0
   41.2720   22.9440   36.6910 N   0  0  0  0  0  0  0  0  0  0  0  0
   40.5730   23.5420   35.7040 C   0  0  0  0  0  0  0  0  0  0  0  0
   40.8830   24.3640   34.6310 C   0  0  0  0  0  0  0  0  0  0  0  0
   40.2090   25.4520   32.9690 H   0  0  0  0  0  0  0  0  0  0  0  0
   37.2290   23.3550   35.2190 H   0  0  0  0  0  0  0  0  0  0  0  0
   38.2890   21.9920   37.3500 H   0  0  0  0  0  0  0  0  0  0  0  0
   40.6020   21.6570   38.3300 H   0  0  0  0  0  0  0  0  0  0  0  0
   41.9340   24.6350   34.4880 H   0  0  0  0  0  0  0  0  0  0  0  0
   35.8810   28.1800   32.5150 C   0  0  0  0  0  0  0  0  0  0  0  0
   35.8820   29.0400   31.5950 O   0  0  0  0  0  0  0  0  0  0  0  0
   35.4470   28.6340   33.8960 C   0  0  1  0  0  0  0  0  0  0  0  0
   36.5850   29.1570   34.7980 C   0  0  0  0  0  0  0  0  0  0  0  0
   35.5300   30.0440   34.2700 C   0  0  2  0  0  0  0  0  0  0  0  0
   34.7630   27.9280   34.4100 H   0  0  0  0  0  0  0  0  0  0  0  0
   36.5680   28.7360   35.8000 H   0  0  0  0  0  0  0  0  0  0  0  0
   37.5720   29.1390   34.3110 H   0  0  0  0  0  0  0  0  0  0  0  0
   35.8600   30.7600   33.4820 H   0  0  0  0  0  0  0  0  0  0  0  0
   36.1980   32.5180   35.8570 Cl  0  0  0  0  0  0  0  0  0  0  0  0
   34.6350   31.7040   35.9370 C   0  0  0  0  0  0  0  0  0  0  0  0
   34.4770   30.5910   35.1590 C   0  0  0  0  0  0  0  0  0  0  0  0
   33.2240   29.9980   35.2690 C   0  0  0  0  0  0  0  0  0  0  0  0
   32.9840   29.1100   34.6990 H   0  0  0  0  0  0  0  0  0  0  0  0
   32.2390   30.5010   36.0940 C   0  0  0  0  0  0  0  0  0  0  0  0
   31.2760   30.0170   36.1570 H   0  0  0  0  0  0  0  0  0  0  0  0
   32.4860   31.6310   36.8450 C   0  0  0  0  0  0  0  0  0  0  0  0
   31.6970   32.0050   37.4850 H   0  0  0  0  0  0  0  0  0  0  0  0
   33.7130   32.2640   36.7780 C   0  0  0  0  0  0  0  0  0  0  0  0
   34.0240   33.6990   37.7330 Cl  0  0  0  0  0  0  0  0  0  0  0  0
  1  6  2  0  0  0  0
  1  2  1  0  0  0  0
  2  3  2  0  0  0  0
  3  4  1  0  0  0  0
  3 10  1  0  0  0  0
  5 23  1  0  0  0  0
  5  4  2  0  0  0  0
  6  5  1  0  0  0  0
  7  1  1  0  0  0  0
  8  2  1  0  0  0  0
  9 10  2  0  0  0  0
  9 17  1  0  0  0  0
 10 11  1  0  0  0  0
 11 19  1  0  0  0  0
 11 12  2  0  0  0  0
 12 13  1  0  0  0  0
 13 20  1  0  0  0  0
 13 14  1  0  0  0  0
 14 21  1  0  0  0  0
 15 14  2  0  0  0  0
 16 12  1  0  0  0  0
 16 15  1  0  0  0  0
 17 16  2  0  0  0  0
 18  9  1  0  0  0  0
 22 17  1  0  0  0  0
 23 25  1  0  0  0  0
 24 23  2  0  0  0  0
 25 27  1  0  0  0  0
 25 28  1  1  0  0  0
 25 26  1  0  0  0  0
 26 29  1  0  0  0  0
 27 31  1  6  0  0  0
 27 26  1  0  0  0  0
 27 34  1  0  0  0  0
 30 26  1  0  0  0  0
 32 33  1  0  0  0  0
 33 41  1  0  0  0  0
 34 35  1  0  0  0  0
 34 33  2  0  0  0  0
 35 37  2  0  0  0  0
 36 35  1  0  0  0  0
 37 38  1  0  0  0  0
 37 39  1  0  0  0  0
 39 40  1  0  0  0  0
 41 39  2  0  0  0  0
 41 42  1  0  0  0  0
M  END
>  <minimizedAffinity>
-6.39297628

$$$$

 OpenBabel03262523343D

 42 46  0  0  1  0  0  0  0  0999 V2000
   36.5840   28.8580   30.8460 C   0  0  0  0  0  0  0  0  0  0  0  0
   35.9840   29.6480   31.8080 C   0  0  0  0  0  0  0  0  0  0  0  0
   35.7850   29.1090   33.0920 C   0  0  0  0  0  0  0  0  0  0  0  0
   36.1950   27.8230   33.3300 N   0  0  0  0  0  0  0  0  0  0  0  0
   36.7760   27.0980   32.3480 C   0  0  0  0  0  0  0  0  0  0  0  0
   36.9750   27.5840   31.1310 N   0  0  0  0  0  0  0  0  0  0  0  0
   36.7580   29.2390   29.8320 H   0  0  0  0  0  0  0  0  0  0  0  0
   35.6700   30.6580   31.5950 H   0  0  0  0  0  0  0  0  0  0  0  0
   36.0240   30.7060   34.8850 C   0  0  0  0  0  0  0  0  0  0  0  0
   35.1720   29.8570   34.1650 C   0  0  0  0  0  0  0  0  0  0  0  0
   33.8500   29.7940   34.5110 C   0  0  0  0  0  0  0  0  0  0  0  0
   33.3770   30.5550   35.5470 C   0  0  0  0  0  0  0  0  0  0  0  0
   32.1220   30.6420   36.0460 N   0  0  0  0  0  0  0  0  0  0  0  0
   32.1530   31.5150   37.0530 C   0  0  0  0  0  0  0  0  0  0  0  0
   33.3970   31.9910   37.2150 N   0  0  0  0  0  0  0  0  0  0  0  0
   34.1800   31.4060   36.2850 C   0  0  0  0  0  0  0  0  0  0  0  0
   35.5210   31.4730   35.9380 C   0  0  0  0  0  0  0  0  0  0  0  0
   37.0690   30.8170   34.6840 H   0  0  0  0  0  0  0  0  0  0  0  0
   33.1920   29.1480   33.9660 H   0  0  0  0  0  0  0  0  0  0  0  0
   31.2960   30.1170   35.6950 H   0  0  0  0  0  0  0  0  0  0  0  0
   31.2580   31.7610   37.6230 H   0  0  0  0  0  0  0  0  0  0  0  0
   36.1610   32.1440   36.5190 H   0  0  0  0  0  0  0  0  0  0  0  0
   37.1900   25.7510   32.6700 C   0  0  0  0  0  0  0  0  0  0  0  0
   37.9860   25.4770   33.6070 O   0  0  0  0  0  0  0  0  0  0  0  0
   36.6540   24.5950   31.8470 C   0  0  1  0  0  0  0  0  0  0  0  0
   37.4670   24.2660   30.5770 C   0  0  0  0  0  0  0  0  0  0  0  0
   37.4150   23.3530   31.7360 C   0  0  2  0  0  0  0  0  0  0  0  0
   35.5590   24.6310   31.6750 H   0  0  0  0  0  0  0  0  0  0  0  0
   36.8510   24.1450   29.6910 H   0  0  0  0  0  0  0  0  0  0  0  0
   38.3440   24.9170   30.4410 H   0  0  0  0  0  0  0  0  0  0  0  0
   38.3560   23.2790   32.3270 H   0  0  0  0  0  0  0  0  0  0  0  0
   38.6240   21.1040   30.1340 Cl  0  0  0  0  0  0  0  0  0  0  0  0
   37.0830   20.9740   30.9820 C   0  0  0  0  0  0  0  0  0  0  0  0
   36.6600   22.0780   31.6690 C   0  0  0  0  0  0  0  0  0  0  0  0
   35.4410   21.9090   32.3140 C   0  0  0  0  0  0  0  0  0  0  0  0
   35.0060   22.7170   32.8900 H   0  0  0  0  0  0  0  0  0  0  0  0
   34.7320   20.7270   32.2570 C   0  0  0  0  0  0  0  0  0  0  0  0
   33.7870   20.6280   32.7700 H   0  0  0  0  0  0  0  0  0  0  0  0
   35.2350   19.6620   31.5390 C   0  0  0  0  0  0  0  0  0  0  0  0
   34.6600   18.7450   31.5090 H   0  0  0  0  0  0  0  0  0  0  0  0
   36.4420   19.7700   30.8760 C   0  0  0  0  0  0  0  0  0  0  0  0
   37.0780   18.4160   29.9650 Cl  0  0  0  0  0  0  0  0  0  0  0  0
  1  6  2  0  0  0  0
  1  2  1  0  0  0  0
  2  3  2  0  0  0  0
  3  4  1  0  0  0  0
  3 10  1  0  0  0  0
  5 23  1  0  0  0  0
  5  4  2  0  0  0  0
  6  5  1  0  0  0  0
  7  1  1  0  0  0  0
  8  2  1  0  0  0  0
  9 17  1  0  0  0  0
 10 11  1  0  0  0  0
 10  9  2  0  0  0  0
 11 12  2  0  0  0  0
 12 13  1  0  0  0  0
 12 16  1  0  0  0  0
 13 14  1  0  0  0  0
 14 15  2  0  0  0  0
 14 21  1  0  0  0  0
 16 15  1  0  0  0  0
 17 16  2  0  0  0  0
 17 22  1  0  0  0  0
 18  9  1  0  0  0  0
 19 11  1  0  0  0  0
 20 13  1  0  0  0  0
 23 24  2  0  0  0  0
 25 28  1  6  0  0  0
 25 23  1  0  0  0  0
 26 27  1  0  0  0  0
 26 25  1  0  0  0  0
 27 25  1  0  0  0  0
 27 31  1  1  0  0  0
 29 26  1  0  0  0  0
 30 26  1  0  0  0  0
 32 33  1  0  0  0  0
 33 34  1  0  0  0  0
 34 27  1  0  0  0  0
 34 35  2  0  0  0  0
 35 36  1  0  0  0  0
 37 35  1  0  0  0  0
 37 38  1  0  0  0  0
 39 37  2  0  0  0  0
 40 39  1  0  0  0  0
 41 33  2  0  0  0  0
 41 39  1  0  0  0  0
 42 41  1  0  0  0  0
M  END
>  <minimizedAffinity>
-6.36888599

$$$$

 OpenBabel03262523343D

 42 46  0  0  1  0  0  0  0  0999 V2000
   38.8950   27.4930   31.1550 C   0  0  0  0  0  0  0  0  0  0  0  0
   39.2040   26.5980   32.1610 C   0  0  0  0  0  0  0  0  0  0  0  0
   38.3570   26.5290   33.2830 C   0  0  0  0  0  0  0  0  0  0  0  0
   37.2640   27.3540   33.3260 N   0  0  0  0  0  0  0  0  0  0  0  0
   37.0130   28.2110   32.3110 C   0  0  0  0  0  0  0  0  0  0  0  0
   37.7960   28.2940   31.2440 N   0  0  0  0  0  0  0  0  0  0  0  0
   39.5280   27.5790   30.2630 H   0  0  0  0  0  0  0  0  0  0  0  0
   40.0710   25.9580   32.1030 H   0  0  0  0  0  0  0  0  0  0  0  0
   39.5780   24.6480   34.1720 C   0  0  0  0  0  0  0  0  0  0  0  0
   38.5920   25.6220   34.3820 C   0  0  0  0  0  0  0  0  0  0  0  0
   37.9360   25.6550   35.5820 C   0  0  0  0  0  0  0  0  0  0  0  0
   38.2460   24.7440   36.5560 C   0  0  0  0  0  0  0  0  0  0  0  0
   37.7260   24.6040   37.7980 N   0  0  0  0  0  0  0  0  0  0  0  0
   38.3470   23.5760   38.3770 C   0  0  0  0  0  0  0  0  0  0  0  0
   39.2540   23.0520   37.5390 N   0  0  0  0  0  0  0  0  0  0  0  0
   39.2100   23.7660   36.3950 C   0  0  0  0  0  0  0  0  0  0  0  0
   39.8780   23.7280   35.1800 C   0  0  0  0  0  0  0  0  0  0  0  0
   40.1390   24.5480   33.2670 H   0  0  0  0  0  0  0  0  0  0  0  0
   37.1820   26.3970   35.7510 H   0  0  0  0  0  0  0  0  0  0  0  0
   36.9770   25.1980   38.2090 H   0  0  0  0  0  0  0  0  0  0  0  0
   38.1040   23.2590   39.3900 H   0  0  0  0  0  0  0  0  0  0  0  0
   40.6410   22.9550   35.0460 H   0  0  0  0  0  0  0  0  0  0  0  0
   35.8400   29.0480   32.4190 C   0  0  0  0  0  0  0  0  0  0  0  0
   35.2420   29.5330   31.4220 O   0  0  0  0  0  0  0  0  0  0  0  0
   35.2870   29.3750   33.7940 C   0  0  1  0  0  0  0  0  0  0  0  0
   35.7200   30.7420   34.3630 C   0  0  0  0  0  0  0  0  0  0  0  0
   34.3270   30.4620   33.9640 C   0  0  2  0  0  0  0  0  0  0  0  0
   35.3710   28.5440   34.5240 H   0  0  0  0  0  0  0  0  0  0  0  0
   36.0720   30.6900   35.3890 H   0  0  0  0  0  0  0  0  0  0  0  0
   36.3730   31.3110   33.6830 H   0  0  0  0  0  0  0  0  0  0  0  0
   33.9810   30.9830   33.0420 H   0  0  0  0  0  0  0  0  0  0  0  0
   31.9410   28.7800   33.2140 Cl  0  0  0  0  0  0  0  0  0  0  0  0
   32.1230   29.5630   34.7840 C   0  0  0  0  0  0  0  0  0  0  0  0
   33.2610   30.2960   34.9810 C   0  0  0  0  0  0  0  0  0  0  0  0
   33.3420   30.8860   36.2370 C   0  0  0  0  0  0  0  0  0  0  0  0
   34.1990   31.4900   36.5070 H   0  0  0  0  0  0  0  0  0  0  0  0
   32.3540   30.7360   37.1890 C   0  0  0  0  0  0  0  0  0  0  0  0
   32.4480   31.2080   38.1560 H   0  0  0  0  0  0  0  0  0  0  0  0
   31.2380   29.9770   36.9040 C   0  0  0  0  0  0  0  0  0  0  0  0
   30.4770   29.8760   37.6670 H   0  0  0  0  0  0  0  0  0  0  0  0
   31.1010   29.3670   35.6720 C   0  0  0  0  0  0  0  0  0  0  0  0
   29.6830   28.4040   35.3130 Cl  0  0  0  0  0  0  0  0  0  0  0  0
  1  6  2  0  0  0  0
  1  2  1  0  0  0  0
  2  3  2  0  0  0  0
  3  4  1  0  0  0  0
  3 10  1  0  0  0  0
  5 23  1  0  0  0  0
  5  4  2  0  0  0  0
  6  5  1  0  0  0  0
  7  1  1  0  0  0  0
  8  2  1  0  0  0  0
  9 10  2  0  0  0  0
  9 17  1  0  0  0  0
 10 11  1  0  0  0  0
 11 19  1  0  0  0  0
 11 12  2  0  0  0  0
 12 13  1  0  0  0  0
 13 20  1  0  0  0  0
 13 14  1  0  0  0  0
 14 21  1  0  0  0  0
 15 14  2  0  0  0  0
 16 12  1  0  0  0  0
 16 15  1  0  0  0  0
 17 16  2  0  0  0  0
 18  9  1  0  0  0  0
 22 17  1  0  0  0  0
 23 25  1  0  0  0  0
 24 23  2  0  0  0  0
 25 27  1  0  0  0  0
 25 26  1  0  0  0  0
 25 28  1  1  0  0  0
 26 29  1  0  0  0  0
 27 31  1  6  0  0  0
 27 26  1  0  0  0  0
 27 34  1  0  0  0  0
 30 26  1  0  0  0  0
 32 33  1  0  0  0  0
 33 34  2  0  0  0  0
 33 41  1  0  0  0  0
 34 35  1  0  0  0  0
 35 36  1  0  0  0  0
 35 37  2  0  0  0  0
 37 38  1  0  0  0  0
 39 37  1  0  0  0  0
 39 40  1  0  0  0  0
 41 39  2  0  0  0  0
 42 41  1  0  0  0  0
M  END
>  <minimizedAffinity>
-6.3654294

$$$$

 OpenBabel03262523343D

 42 46  0  0  1  0  0  0  0  0999 V2000
   36.6690   27.8780   31.6240 C   0  0  0  0  0  0  0  0  0  0  0  0
   35.9680   28.8430   32.3220 C   0  0  0  0  0  0  0  0  0  0  0  0
   35.8770   28.7280   33.7210 C   0  0  0  0  0  0  0  0  0  0  0  0
   36.4870   27.6630   34.3290 N   0  0  0  0  0  0  0  0  0  0  0  0
   37.1600   26.7490   33.5930 C   0  0  0  0  0  0  0  0  0  0  0  0
   37.2590   26.8360   32.2740 N   0  0  0  0  0  0  0  0  0  0  0  0
   36.7640   27.9290   30.5320 H   0  0  0  0  0  0  0  0  0  0  0  0
   35.4950   29.6730   31.8190 H   0  0  0  0  0  0  0  0  0  0  0  0
   33.7730   29.5930   34.5260 C   0  0  0  0  0  0  0  0  0  0  0  0
   35.1720   29.6880   34.5370 C   0  0  0  0  0  0  0  0  0  0  0  0
   35.7650   30.6560   35.3020 C   0  0  0  0  0  0  0  0  0  0  0  0
   34.9930   31.5120   36.0410 C   0  0  0  0  0  0  0  0  0  0  0  0
   35.3720   32.5250   36.8550 N   0  0  0  0  0  0  0  0  0  0  0  0
   34.2640   33.0710   37.3550 C   0  0  0  0  0  0  0  0  0  0  0  0
   33.1820   32.4350   36.8840 N   0  0  0  0  0  0  0  0  0  0  0  0
   33.6120   31.4560   36.0610 C   0  0  0  0  0  0  0  0  0  0  0  0
   33.0060   30.4770   35.2870 C   0  0  0  0  0  0  0  0  0  0  0  0
   33.2260   28.8700   33.9580 H   0  0  0  0  0  0  0  0  0  0  0  0
   36.8330   30.7350   35.3170 H   0  0  0  0  0  0  0  0  0  0  0  0
   36.3550   32.8120   37.0430 H   0  0  0  0  0  0  0  0  0  0  0  0
   34.3030   33.9140   38.0440 H   0  0  0  0  0  0  0  0  0  0  0  0
   31.9120   30.4280   35.2980 H   0  0  0  0  0  0  0  0  0  0  0  0
   37.7850   25.6540   34.2990 C   0  0  0  0  0  0  0  0  0  0  0  0
   38.0410   25.6820   35.5320 O   0  0  0  0  0  0  0  0  0  0  0  0
   38.1650   24.4000   33.5350 C   0  0  1  0  0  0  0  0  0  0  0  0
   39.1230   23.4470   34.2800 C   0  0  0  0  0  0  0  0  0  0  0  0
   37.7190   23.0890   33.9990 C   0  0  2  0  0  0  0  0  0  0  0  0
   38.4550   24.5840   32.4800 H   0  0  0  0  0  0  0  0  0  0  0  0
   39.9590   23.1140   33.6720 H   0  0  0  0  0  0  0  0  0  0  0  0
   39.3990   23.8030   35.2840 H   0  0  0  0  0  0  0  0  0  0  0  0
   37.0450   23.0660   34.8860 H   0  0  0  0  0  0  0  0  0  0  0  0
   35.9180   20.8240   34.8420 Cl  0  0  0  0  0  0  0  0  0  0  0  0
   36.5780   20.9860   33.2150 C   0  0  0  0  0  0  0  0  0  0  0  0
   37.3810   22.0680   32.9780 C   0  0  0  0  0  0  0  0  0  0  0  0
   37.8680   22.1360   31.6780 C   0  0  0  0  0  0  0  0  0  0  0  0
   38.5150   22.9490   31.3750 H   0  0  0  0  0  0  0  0  0  0  0  0
   37.5600   21.1890   30.7220 C   0  0  0  0  0  0  0  0  0  0  0  0
   37.9540   21.2720   29.7210 H   0  0  0  0  0  0  0  0  0  0  0  0
   36.7400   20.1290   31.0490 C   0  0  0  0  0  0  0  0  0  0  0  0
   36.5130   19.4000   30.2820 H   0  0  0  0  0  0  0  0  0  0  0  0
   36.2260   20.0080   32.3260 C   0  0  0  0  0  0  0  0  0  0  0  0
   35.1850   18.6600   32.7380 Cl  0  0  0  0  0  0  0  0  0  0  0  0
  1  6  2  0  0  0  0
  1  2  1  0  0  0  0
  2  3  2  0  0  0  0
  3  4  1  0  0  0  0
  3 10  1  0  0  0  0
  5 23  1  0  0  0  0
  5  4  2  0  0  0  0
  6  5  1  0  0  0  0
  7  1  1  0  0  0  0
  8  2  1  0  0  0  0
  9 10  2  0  0  0  0
  9 17  1  0  0  0  0
 10 11  1  0  0  0  0
 11 19  1  0  0  0  0
 11 12  2  0  0  0  0
 12 16  1  0  0  0  0
 12 13  1  0  0  0  0
 13 20  1  0  0  0  0
 13 14  1  0  0  0  0
 14 21  1  0  0  0  0
 15 14  2  0  0  0  0
 16 15  1  0  0  0  0
 17 22  1  0  0  0  0
 17 16  2  0  0  0  0
 18  9  1  0  0  0  0
 23 24  2  0  0  0  0
 25 28  1  6  0  0  0
 25 27  1  0  0  0  0
 25 26  1  0  0  0  0
 25 23  1  0  0  0  0
 26 30  1  0  0  0  0
 27 26  1  0  0  0  0
 27 31  1  1  0  0  0
 29 26  1  0  0  0  0
 33 32  1  0  0  0  0
 34 33  1  0  0  0  0
 34 27  1  0  0  0  0
 35 34  2  0  0  0  0
 36 35  1  0  0  0  0
 37 39  2  0  0  0  0
 37 35  1  0  0  0  0
 38 37  1  0  0  0  0
 39 41  1  0  0  0  0
 40 39  1  0  0  0  0
 41 42  1  0  0  0  0
 41 33  2  0  0  0  0
M  END
>  <minimizedAffinity>
-6.31937647

$$$$

 OpenBabel03262523343D

 42 46  0  0  1  0  0  0  0  0999 V2000
   37.0180   29.0830   30.5160 C   0  0  0  0  0  0  0  0  0  0  0  0
   36.4980   29.8050   31.5740 C   0  0  0  0  0  0  0  0  0  0  0  0
   35.6460   29.1490   32.4820 C   0  0  0  0  0  0  0  0  0  0  0  0
   35.3700   27.8230   32.2750 N   0  0  0  0  0  0  0  0  0  0  0  0
   35.9080   27.1680   31.2220 C   0  0  0  0  0  0  0  0  0  0  0  0
   36.7140   27.7650   30.3530 N   0  0  0  0  0  0  0  0  0  0  0  0
   37.6870   29.5550   29.7860 H   0  0  0  0  0  0  0  0  0  0  0  0
   36.7310   30.8490   31.7140 H   0  0  0  0  0  0  0  0  0  0  0  0
   33.6860   29.6060   33.8120 C   0  0  0  0  0  0  0  0  0  0  0  0
   35.0580   29.8170   33.6190 C   0  0  0  0  0  0  0  0  0  0  0  0
   35.7370   30.6170   34.4980 C   0  0  0  0  0  0  0  0  0  0  0  0
   35.0740   31.1970   35.5470 C   0  0  0  0  0  0  0  0  0  0  0  0
   35.5500   32.0100   36.5190 N   0  0  0  0  0  0  0  0  0  0  0  0
   34.5270   32.3190   37.3160 C   0  0  0  0  0  0  0  0  0  0  0  0
   33.4060   31.7250   36.8810 N   0  0  0  0  0  0  0  0  0  0  0  0
   33.7230   31.0180   35.7760 C   0  0  0  0  0  0  0  0  0  0  0  0
   33.0310   30.2080   34.8890 C   0  0  0  0  0  0  0  0  0  0  0  0
   33.0780   28.9980   33.1760 H   0  0  0  0  0  0  0  0  0  0  0  0
   36.7860   30.7830   34.3580 H   0  0  0  0  0  0  0  0  0  0  0  0
   36.5370   32.3270   36.6110 H   0  0  0  0  0  0  0  0  0  0  0  0
   34.6530   32.9690   38.1800 H   0  0  0  0  0  0  0  0  0  0  0  0
   31.9600   30.0630   35.0650 H   0  0  0  0  0  0  0  0  0  0  0  0
   35.5800   25.7690   31.0670 C   0  0  0  0  0  0  0  0  0  0  0  0
   34.4040   25.3490   30.9060 O   0  0  0  0  0  0  0  0  0  0  0  0
   36.6930   24.7390   31.1030 C   0  0  1  0  0  0  0  0  0  0  0  0
   37.3370   24.5220   32.4890 C   0  0  0  0  0  0  0  0  0  0  0  0
   36.5160   23.4860   31.8320 C   0  0  2  0  0  0  0  0  0  0  0  0
   37.4320   24.8430   30.2820 H   0  0  0  0  0  0  0  0  0  0  0  0
   38.4230   24.5300   32.4650 H   0  0  0  0  0  0  0  0  0  0  0  0
   36.8910   25.1450   33.2790 H   0  0  0  0  0  0  0  0  0  0  0  0
   35.5190   23.3040   32.2940 H   0  0  0  0  0  0  0  0  0  0  0  0
   35.0260   20.8890   32.1770 Cl  0  0  0  0  0  0  0  0  0  0  0  0
   36.5790   21.0160   31.3520 C   0  0  0  0  0  0  0  0  0  0  0  0
   37.1370   22.2620   31.2720 C   0  0  0  0  0  0  0  0  0  0  0  0
   38.3590   22.2920   30.6110 C   0  0  0  0  0  0  0  0  0  0  0  0
   38.8950   23.2240   30.4860 H   0  0  0  0  0  0  0  0  0  0  0  0
   38.9450   21.1570   30.0870 C   0  0  0  0  0  0  0  0  0  0  0  0
   39.8950   21.2140   29.5780 H   0  0  0  0  0  0  0  0  0  0  0  0
   38.3100   19.9390   30.2140 C   0  0  0  0  0  0  0  0  0  0  0  0
   38.7900   19.0640   29.7950 H   0  0  0  0  0  0  0  0  0  0  0  0
   37.0930   19.8460   30.8620 C   0  0  0  0  0  0  0  0  0  0  0  0
   36.2890   18.2980   31.0210 Cl  0  0  0  0  0  0  0  0  0  0  0  0
  1  2  1  0  0  0  0
  2  8  1  0  0  0  0
  2  3  2  0  0  0  0
  3 10  1  0  0  0  0
  4  3  1  0  0  0  0
  5  4  2  0  0  0  0
  6  1  2  0  0  0  0
  6  5  1  0  0  0  0
  7  1  1  0  0  0  0
  9 17  1  0  0  0  0
 10  9  2  0  0  0  0
 10 11  1  0  0  0  0
 11 12  2  0  0  0  0
 12 16  1  0  0  0  0
 12 13  1  0  0  0  0
 13 20  1  0  0  0  0
 13 14  1  0  0  0  0
 14 21  1  0  0  0  0
 15 14  2  0  0  0  0
 16 15  1  0  0  0  0
 17 22  1  0  0  0  0
 17 16  2  0  0  0  0
 18  9  1  0  0  0  0
 19 11  1  0  0  0  0
 23 25  1  0  0  0  0
 23  5  1  0  0  0  0
 24 23  2  0  0  0  0
 25 28  1  6  0  0  0
 25 27  1  0  0  0  0
 25 26  1  0  0  0  0
 26 30  1  0  0  0  0
 27 31  1  1  0  0  0
 27 26  1  0  0  0  0
 29 26  1  0  0  0  0
 33 32  1  0  0  0  0
 34 33  1  0  0  0  0
 34 27  1  0  0  0  0
 35 34  2  0  0  0  0
 36 35  1  0  0  0  0
 37 39  2  0  0  0  0
 37 35  1  0  0  0  0
 38 37  1  0  0  0  0
 39 41  1  0  0  0  0
 40 39  1  0  0  0  0
 41 42  1  0  0  0  0
 41 33  2  0  0  0  0
M  END
>  <minimizedAffinity>
-6.29344845

$$$$
