
 OpenBabel03272508553D

 40 43  0  0  1  0  0  0  0  0999 V2000
   37.9350   31.5800   45.0540 C   0  0  0  0  0  0  0  0  0  0  0  0
   36.9090   30.8770   45.2710 O   0  0  0  0  0  0  0  0  0  0  0  0
   38.4380   32.4650   46.0670 N   0  0  0  0  0  0  0  0  0  0  0  0
   39.1470   33.1890   45.8870 H   0  0  0  0  0  0  0  0  0  0  0  0
   38.6500   31.5180   43.7620 C   0  0  0  0  0  0  0  0  0  0  0  0
   39.8800   30.9190   43.7210 C   0  0  0  0  0  0  0  0  0  0  0  0
   40.5200   30.8780   42.4930 C   0  0  0  0  0  0  0  0  0  0  0  0
   39.9040   31.4240   41.4110 C   0  0  0  0  0  0  0  0  0  0  0  0
   38.6610   32.0300   41.4430 C   0  0  0  0  0  0  0  0  0  0  0  0
   38.0900   32.0410   42.6540 N   0  0  0  0  0  0  0  0  0  0  0  0
   40.3840   30.4800   44.5710 H   0  0  0  0  0  0  0  0  0  0  0  0
   41.5120   30.4090   42.3960 H   0  0  0  0  0  0  0  0  0  0  0  0
   40.4400   31.3680   40.4730 H   0  0  0  0  0  0  0  0  0  0  0  0
   36.8580   30.1670   40.0680 Cl  0  0  0  0  0  0  0  0  0  0  0  0
   37.1460   31.8340   39.5580 C   0  0  0  0  0  0  0  0  0  0  0  0
   38.0120   32.6110   40.2820 C   0  0  0  0  0  0  0  0  0  0  0  0
   38.2100   33.8880   39.8640 C   0  0  0  0  0  0  0  0  0  0  0  0
   38.8770   34.5440   40.3900 H   0  0  0  0  0  0  0  0  0  0  0  0
   37.5630   34.3970   38.7450 C   0  0  0  0  0  0  0  0  0  0  0  0
   37.7040   35.4230   38.3850 H   0  0  0  0  0  0  0  0  0  0  0  0
   36.7010   33.5670   38.0560 C   0  0  0  0  0  0  0  0  0  0  0  0
   36.1670   33.9100   37.1740 H   0  0  0  0  0  0  0  0  0  0  0  0
   36.4660   32.2640   38.4390 C   0  0  0  0  0  0  0  0  0  0  0  0
   35.3730   31.1820   37.5810 Cl  0  0  0  0  0  0  0  0  0  0  0  0
   38.5770   31.4360   48.3310 C   0  0  2  0  0  0  0  0  0  0  0  0
   38.8630   32.8700   48.5010 C   0  0  0  0  0  0  0  0  0  0  0  0
   37.9090   32.3180   47.4090 C   0  0  1  0  0  0  0  0  0  0  0  0
   39.4660   30.8460   48.0190 H   0  0  0  0  0  0  0  0  0  0  0  0
   38.3840   33.4370   49.3260 H   0  0  0  0  0  0  0  0  0  0  0  0
   39.8170   33.2810   48.1800 H   0  0  0  0  0  0  0  0  0  0  0  0
   36.8470   32.6010   47.5680 H   0  0  0  0  0  0  0  0  0  0  0  0
   36.0720   29.1490   49.8100 C   0  0  0  0  0  0  0  0  0  0  0  0
   36.3200   29.2840   51.2040 C   0  0  0  0  0  0  0  0  0  0  0  0
   37.3620   30.1840   51.6080 C   0  0  0  0  0  0  0  0  0  0  0  0
   38.0660   30.8660   50.6580 N   0  0  0  0  0  0  0  0  0  0  0  0
   37.7630   30.6790   49.3350 C   0  0  0  0  0  0  0  0  0  0  0  0
   36.7750   29.8300   48.8770 N   0  0  0  0  0  0  0  0  0  0  0  0
   35.3030   28.4890   49.4570 H   0  0  0  0  0  0  0  0  0  0  0  0
   35.7440   28.7290   51.9130 H   0  0  0  0  0  0  0  0  0  0  0  0
   37.5610   30.2970   52.6630 H   0  0  0  0  0  0  0  0  0  0  0  0
  1  2  2  0  0  0  0
  1  3  1  0  0  0  0
  3 27  1  0  0  0  0
  4  3  1  0  0  0  0
  5  1  1  0  0  0  0
  6  5  1  0  0  0  0
  6 11  1  0  0  0  0
  7  6  2  0  0  0  0
  8  9  2  0  0  0  0
  8  7  1  0  0  0  0
  9 10  1  0  0  0  0
 10  5  2  0  0  0  0
 12  7  1  0  0  0  0
 13  8  1  0  0  0  0
 15 14  1  0  0  0  0
 15 16  1  0  0  0  0
 16  9  1  0  0  0  0
 17 16  2  0  0  0  0
 17 18  1  0  0  0  0
 19 17  1  0  0  0  0
 20 19  1  0  0  0  0
 21 23  1  0  0  0  0
 21 19  2  0  0  0  0
 22 21  1  0  0  0  0
 23 15  2  0  0  0  0
 24 23  1  0  0  0  0
 25 28  1  6  0  0  0
 25 26  1  0  0  0  0
 25 36  1  0  0  0  0
 26 29  1  0  0  0  0
 27 31  1  1  0  0  0
 27 25  1  0  0  0  0
 27 26  1  0  0  0  0
 30 26  1  0  0  0  0
 32 33  1  0  0  0  0
 33 34  2  0  0  0  0
 33 39  1  0  0  0  0
 34 40  1  0  0  0  0
 35 34  1  0  0  0  0
 36 35  2  0  0  0  0
 37 36  1  0  0  0  0
 37 32  2  0  0  0  0
 38 32  1  0  0  0  0
M  END
>  <minimizedAffinity>
-5.52992439

>  <minimizedRMSD>
1.97469962

$$$$
