
 OpenBabel03272502533D

 29 31  0  0  0  0  0  0  0  0999 V2000
   36.0710   30.3480   48.6760 C   0  0  0  0  0  0  0  0  0  0  0  0
   36.1470   29.3720   49.6630 C   0  0  0  0  0  0  0  0  0  0  0  0
   35.1740   28.3980   49.7730 C   0  0  0  0  0  0  0  0  0  0  0  0
   34.1430   28.4470   48.8680 C   0  0  0  0  0  0  0  0  0  0  0  0
   34.0520   29.4130   47.8790 C   0  0  0  0  0  0  0  0  0  0  0  0
   35.0380   30.3660   47.7990 N   0  0  0  0  0  0  0  0  0  0  0  0
   37.0080   29.4130   50.3410 H   0  0  0  0  0  0  0  0  0  0  0  0
   35.2700   27.6630   50.5490 H   0  0  0  0  0  0  0  0  0  0  0  0
   33.3890   27.6840   48.9620 H   0  0  0  0  0  0  0  0  0  0  0  0
   32.3880   26.9040   47.7120 Cl  0  0  0  0  0  0  0  0  0  0  0  0
   32.1270   28.3730   46.7570 C   0  0  0  0  0  0  0  0  0  0  0  0
   32.9560   29.4610   46.9200 C   0  0  0  0  0  0  0  0  0  0  0  0
   32.6690   30.5540   46.1320 C   0  0  0  0  0  0  0  0  0  0  0  0
   33.2720   31.4330   46.2080 H   0  0  0  0  0  0  0  0  0  0  0  0
   31.6360   30.6100   45.2240 C   0  0  0  0  0  0  0  0  0  0  0  0
   31.4400   31.4910   44.6170 H   0  0  0  0  0  0  0  0  0  0  0  0
   30.8190   29.4930   45.0840 C   0  0  0  0  0  0  0  0  0  0  0  0
   29.9940   29.4370   44.4070 H   0  0  0  0  0  0  0  0  0  0  0  0
   31.0720   28.3770   45.8550 C   0  0  0  0  0  0  0  0  0  0  0  0
   30.0570   26.9400   45.7050 Cl  0  0  0  0  0  0  0  0  0  0  0  0
   38.1700   33.2350   49.4840 C   0  0  0  0  0  0  0  0  0  0  0  0
   39.0740   33.2740   48.3970 C   0  0  0  0  0  0  0  0  0  0  0  0
   38.9450   32.2940   47.3930 C   0  0  0  0  0  0  0  0  0  0  0  0
   37.9510   31.3870   47.5590 N   0  0  0  0  0  0  0  0  0  0  0  0
   37.1060   31.3620   48.5880 C   0  0  0  0  0  0  0  0  0  0  0  0
   37.2340   32.2900   49.5310 N   0  0  0  0  0  0  0  0  0  0  0  0
   38.2660   33.9980   50.2720 H   0  0  0  0  0  0  0  0  0  0  0  0
   39.8500   34.0180   48.3110 H   0  0  0  0  0  0  0  0  0  0  0  0
   39.6150   32.3090   46.5710 H   0  0  0  0  0  0  0  0  0  0  0  0
  1  2  1  0  0  0  0
  2  3  2  0  0  0  0
  2  7  1  0  0  0  0
  3  8  1  0  0  0  0
  4  9  1  0  0  0  0
  4  3  1  0  0  0  0
  5  4  2  0  0  0  0
  6  5  1  0  0  0  0
  6  1  2  0  0  0  0
 11 12  1  0  0  0  0
 11 10  1  0  0  0  0
 12  5  1  0  0  0  0
 13 14  1  0  0  0  0
 13 12  2  0  0  0  0
 15 13  1  0  0  0  0
 16 15  1  0  0  0  0
 17 15  2  0  0  0  0
 17 19  1  0  0  0  0
 18 17  1  0  0  0  0
 19 11  2  0  0  0  0
 20 19  1  0  0  0  0
 21 26  1  0  0  0  0
 21 27  1  0  0  0  0
 22 21  2  0  0  0  0
 23 24  2  0  0  0  0
 23 22  1  0  0  0  0
 24 25  1  0  0  0  0
 25  1  1  0  0  0  0
 25 26  2  0  0  0  0
 28 22  1  0  0  0  0
 29 23  1  0  0  0  0
M  END
>  <minimizedAffinity>
-5.59260321

>  <minimizedRMSD>
0.284051806

$$$$
