
 OpenBabel03272507343D

 38 41  0  0  1  0  0  0  0  0999 V2000
   33.1170   27.3100   48.1510 C   0  0  0  0  0  0  0  0  0  0  0  0
   31.9790   26.9960   48.6220 O   0  0  0  0  0  0  0  0  0  0  0  0
   35.7740   29.1390   49.6990 C   0  0  0  0  0  0  0  0  0  0  0  0
   34.7080   29.7590   50.3100 C   0  0  0  0  0  0  0  0  0  0  0  0
   33.5360   29.1640   49.8180 C   0  0  0  0  0  0  0  0  0  0  0  0
   33.9730   28.2070   48.9260 C   0  0  0  0  0  0  0  0  0  0  0  0
   35.2880   28.2290   48.8890 O   0  0  0  0  0  0  0  0  0  0  0  0
   34.6640   30.5660   51.0500 H   0  0  0  0  0  0  0  0  0  0  0  0
   32.5220   29.4150   50.0900 H   0  0  0  0  0  0  0  0  0  0  0  0
   37.1540   29.5070   49.9760 C   0  0  0  0  0  0  0  0  0  0  0  0
   37.7660   28.9210   50.8790 O   0  0  0  0  0  0  0  0  0  0  0  0
   37.7260   30.5470   49.1690 C   0  0  0  0  0  0  0  0  0  0  0  0
   38.0580   31.7300   49.8030 C   0  0  0  0  0  0  0  0  0  0  0  0
   38.6140   32.7660   49.0470 C   0  0  0  0  0  0  0  0  0  0  0  0
   38.8020   32.5490   47.7050 N   0  0  0  0  0  0  0  0  0  0  0  0
   38.4710   31.3950   47.1220 C   0  0  0  0  0  0  0  0  0  0  0  0
   37.9370   30.3980   47.8420 N   0  0  0  0  0  0  0  0  0  0  0  0
   37.9170   31.9230   50.8670 H   0  0  0  0  0  0  0  0  0  0  0  0
   38.9000   33.7190   49.4670 H   0  0  0  0  0  0  0  0  0  0  0  0
   38.6020   31.1850   46.0720 H   0  0  0  0  0  0  0  0  0  0  0  0
   33.5880   26.7730   46.8300 C   0  0  1  0  0  0  0  0  0  0  0  0
   32.6760   25.5610   46.4040 C   0  0  0  0  0  0  0  0  0  0  0  0
   32.7360   26.8300   45.6410 C   0  0  1  0  0  0  0  0  0  0  0  0
   34.6410   26.3900   46.8560 H   0  0  0  0  0  0  0  0  0  0  0  0
   33.1640   24.6810   45.9900 H   0  0  0  0  0  0  0  0  0  0  0  0
   31.7400   25.4170   46.9620 H   0  0  0  0  0  0  0  0  0  0  0  0
   33.2110   26.7700   44.6520 H   0  0  0  0  0  0  0  0  0  0  0  0
   30.1270   25.5160   45.2580 Cl  0  0  0  0  0  0  0  0  0  0  0  0
   30.3700   27.2490   45.5200 C   0  0  0  0  0  0  0  0  0  0  0  0
   31.6370   27.8180   45.6960 C   0  0  0  0  0  0  0  0  0  0  0  0
   31.6750   29.1880   45.8920 C   0  0  0  0  0  0  0  0  0  0  0  0
   32.6960   29.5500   46.0200 H   0  0  0  0  0  0  0  0  0  0  0  0
   30.5310   29.9260   45.9100 C   0  0  0  0  0  0  0  0  0  0  0  0
   30.6570   30.9940   46.0690 H   0  0  0  0  0  0  0  0  0  0  0  0
   29.2830   29.3650   45.7360 C   0  0  0  0  0  0  0  0  0  0  0  0
   28.3830   29.9640   45.7520 H   0  0  0  0  0  0  0  0  0  0  0  0
   29.2170   28.0010   45.5390 C   0  0  0  0  0  0  0  0  0  0  0  0
   27.6260   27.2960   45.3190 Cl  0  0  0  0  0  0  0  0  0  0  0  0
  1  2  2  0  0  0  0
  1  6  1  0  0  0  0
  3 10  1  0  0  0  0
  3  4  2  0  0  0  0
  4  8  1  0  0  0  0
  5  9  1  0  0  0  0
  5  4  1  0  0  0  0
  6  5  2  0  0  0  0
  7  6  1  0  0  0  0
  7  3  1  0  0  0  0
 10 11  2  0  0  0  0
 12 13  1  0  0  0  0
 12 10  1  0  0  0  0
 13 18  1  0  0  0  0
 14 19  1  0  0  0  0
 14 13  2  0  0  0  0
 15 14  1  0  0  0  0
 16 15  2  0  0  0  0
 16 17  1  0  0  0  0
 17 12  2  0  0  0  0
 20 16  1  0  0  0  0
 21 24  1  6  0  0  0
 21  1  1  0  0  0  0
 22 21  1  0  0  0  0
 22 26  1  0  0  0  0
 23 27  1  6  0  0  0
 23 30  1  0  0  0  0
 23 22  1  0  0  0  0
 23 21  1  0  0  0  0
 25 22  1  0  0  0  0
 28 29  1  0  0  0  0
 29 37  2  0  0  0  0
 29 30  1  0  0  0  0
 30 31  2  0  0  0  0
 31 33  1  0  0  0  0
 31 32  1  0  0  0  0
 33 34  1  0  0  0  0
 35 36  1  0  0  0  0
 35 33  2  0  0  0  0
 37 35  1  0  0  0  0
 38 37  1  0  0  0  0
M  END
>  <minimizedAffinity>
-5.34379673

>  <minimizedRMSD>
2.02570295

$$$$
