
 OpenBabel03272502533D

 29 31  0  0  0  0  0  0  0  0999 V2000
   35.8220   30.1750   48.2350 C   0  0  0  0  0  0  0  0  0  0  0  0
   35.7550   29.1470   49.1680 C   0  0  0  0  0  0  0  0  0  0  0  0
   34.7620   28.1900   49.0970 C   0  0  0  0  0  0  0  0  0  0  0  0
   33.8570   28.3090   48.0720 C   0  0  0  0  0  0  0  0  0  0  0  0
   33.9090   29.3280   47.1350 C   0  0  0  0  0  0  0  0  0  0  0  0
   34.9110   30.2630   47.2350 N   0  0  0  0  0  0  0  0  0  0  0  0
   36.5220   29.1330   49.9520 H   0  0  0  0  0  0  0  0  0  0  0  0
   34.7470   27.4120   49.8380 H   0  0  0  0  0  0  0  0  0  0  0  0
   33.0870   27.5580   48.0270 H   0  0  0  0  0  0  0  0  0  0  0  0
   34.9360   28.5080   44.4220 Cl  0  0  0  0  0  0  0  0  0  0  0  0
   33.3030   29.1050   44.7630 C   0  0  0  0  0  0  0  0  0  0  0  0
   32.9470   29.4510   46.0480 C   0  0  0  0  0  0  0  0  0  0  0  0
   31.6570   29.9050   46.2070 C   0  0  0  0  0  0  0  0  0  0  0  0
   31.3130   30.1910   47.1790 H   0  0  0  0  0  0  0  0  0  0  0  0
   30.7410   30.0260   45.1880 C   0  0  0  0  0  0  0  0  0  0  0  0
   29.7290   30.3880   45.3520 H   0  0  0  0  0  0  0  0  0  0  0  0
   31.1330   29.6680   43.9020 C   0  0  0  0  0  0  0  0  0  0  0  0
   30.4980   29.7240   43.0450 H   0  0  0  0  0  0  0  0  0  0  0  0
   32.4180   29.2080   43.6980 C   0  0  0  0  0  0  0  0  0  0  0  0
   32.9550   28.7440   42.0810 Cl  0  0  0  0  0  0  0  0  0  0  0  0
   37.9860   32.8040   49.5770 C   0  0  0  0  0  0  0  0  0  0  0  0
   38.8740   33.0500   48.5050 C   0  0  0  0  0  0  0  0  0  0  0  0
   38.7120   32.2980   47.3240 C   0  0  0  0  0  0  0  0  0  0  0  0
   37.7040   31.3920   47.3190 N   0  0  0  0  0  0  0  0  0  0  0  0
   36.8740   31.1700   48.3370 C   0  0  0  0  0  0  0  0  0  0  0  0
   37.0340   31.8830   49.4470 N   0  0  0  0  0  0  0  0  0  0  0  0
   38.1080   33.3880   50.5020 H   0  0  0  0  0  0  0  0  0  0  0  0
   39.6630   33.7840   48.5590 H   0  0  0  0  0  0  0  0  0  0  0  0
   39.3710   32.4710   46.5100 H   0  0  0  0  0  0  0  0  0  0  0  0
  1 25  1  0  0  0  0
  1  2  1  0  0  0  0
  2  7  1  0  0  0  0
  3  2  2  0  0  0  0
  3  8  1  0  0  0  0
  4  3  1  0  0  0  0
  5  6  1  0  0  0  0
  5  4  2  0  0  0  0
  6  1  2  0  0  0  0
  9  4  1  0  0  0  0
 10 11  1  0  0  0  0
 11 12  1  0  0  0  0
 12 13  2  0  0  0  0
 12  5  1  0  0  0  0
 13 14  1  0  0  0  0
 15 16  1  0  0  0  0
 15 13  1  0  0  0  0
 17 15  2  0  0  0  0
 18 17  1  0  0  0  0
 19 17  1  0  0  0  0
 19 11  2  0  0  0  0
 20 19  1  0  0  0  0
 21 27  1  0  0  0  0
 22 28  1  0  0  0  0
 22 21  2  0  0  0  0
 23 22  1  0  0  0  0
 24 23  2  0  0  0  0
 24 25  1  0  0  0  0
 25 26  2  0  0  0  0
 26 21  1  0  0  0  0
 29 23  1  0  0  0  0
M  END
>  <minimizedAffinity>
-5.04813004

>  <minimizedRMSD>
0.534720778

$$$$
