
 OpenBabel03272510273D

 47 51  0  0  1  0  0  0  0  0999 V2000
   39.1020   31.3180   41.2780 N   0  0  0  0  0  0  0  0  0  0  0  0
   38.9740   32.7420   41.3420 C   0  0  1  0  0  0  0  0  0  0  0  0
   37.5950   33.1400   41.0440 C   0  0  0  0  0  0  0  0  0  0  0  0
   37.3060   32.8000   39.7270 O   0  0  0  0  0  0  0  0  0  0  0  0
   37.5020   31.4830   39.4300 C   0  0  0  0  0  0  0  0  0  0  0  0
   38.8220   30.9280   39.8950 C   0  0  1  0  0  0  0  0  0  0  0  0
   38.5020   30.7320   41.8300 H   0  0  0  0  0  0  0  0  0  0  0  0
   39.6290   33.2080   40.5770 H   0  0  0  0  0  0  0  0  0  0  0  0
   36.7450   32.8160   41.5850 H   0  0  0  0  0  0  0  0  0  0  0  0
   37.5670   34.2710   41.0480 H   0  0  0  0  0  0  0  0  0  0  0  0
   37.3520   31.3360   38.3660 H   0  0  0  0  0  0  0  0  0  0  0  0
   36.7250   30.9130   40.0200 H   0  0  0  0  0  0  0  0  0  0  0  0
   38.7090   29.8160   39.8710 H   0  0  0  0  0  0  0  0  0  0  0  0
   41.5570   29.4910   40.3600 Cl  0  0  0  0  0  0  0  0  0  0  0  0
   41.2410   30.7860   39.2250 C   0  0  0  0  0  0  0  0  0  0  0  0
   39.9810   31.3320   39.0760 C   0  0  0  0  0  0  0  0  0  0  0  0
   39.9150   32.3090   38.1140 C   0  0  0  0  0  0  0  0  0  0  0  0
   39.0140   32.8190   37.8840 H   0  0  0  0  0  0  0  0  0  0  0  0
   40.9830   32.7420   37.3410 C   0  0  0  0  0  0  0  0  0  0  0  0
   40.9180   33.5040   36.5920 H   0  0  0  0  0  0  0  0  0  0  0  0
   42.2250   32.1540   37.5380 C   0  0  0  0  0  0  0  0  0  0  0  0
   43.0750   32.4710   36.9520 H   0  0  0  0  0  0  0  0  0  0  0  0
   42.3470   31.1670   38.4920 C   0  0  0  0  0  0  0  0  0  0  0  0
   43.9400   30.4660   38.6950 Cl  0  0  0  0  0  0  0  0  0  0  0  0
   39.3390   33.1240   42.6590 O   0  0  0  0  0  0  0  0  0  0  0  0
   36.1750   30.2370   46.7240 C   0  0  0  0  0  0  0  0  0  0  0  0
   37.1620   30.7220   47.5490 C   0  0  0  0  0  0  0  0  0  0  0  0
   38.2120   31.5080   47.0450 C   0  0  0  0  0  0  0  0  0  0  0  0
   38.1920   31.7610   45.6890 C   0  0  0  0  0  0  0  0  0  0  0  0
   39.0890   32.4980   44.9610 N   0  0  0  0  0  0  0  0  0  0  0  0
   38.6540   32.4660   43.6870 C   0  0  0  0  0  0  0  0  0  0  0  0
   37.5510   31.7550   43.6050 N   0  0  0  0  0  0  0  0  0  0  0  0
   37.2170   31.2920   44.8250 C   0  0  0  0  0  0  0  0  0  0  0  0
   36.1860   30.5100   45.3610 C   0  0  0  0  0  0  0  0  0  0  0  0
   35.3620   29.6300   47.0980 H   0  0  0  0  0  0  0  0  0  0  0  0
   39.0000   31.9000   47.6780 H   0  0  0  0  0  0  0  0  0  0  0  0
   39.9540   32.9950   45.3200 H   0  0  0  0  0  0  0  0  0  0  0  0
   35.4240   30.1430   44.6890 H   0  0  0  0  0  0  0  0  0  0  0  0
   37.8130   30.4100   51.2450 C   0  0  0  0  0  0  0  0  0  0  0  0
   38.0280   30.7750   49.9230 C   0  0  0  0  0  0  0  0  0  0  0  0
   37.1080   30.4220   48.9690 C   0  0  0  0  0  0  0  0  0  0  0  0
   36.0030   29.7110   49.3940 N   0  0  0  0  0  0  0  0  0  0  0  0
   35.7950   29.3570   50.6790 C   0  0  0  0  0  0  0  0  0  0  0  0
   36.6930   29.7060   51.5880 N   0  0  0  0  0  0  0  0  0  0  0  0
   38.5670   30.7110   51.9720 H   0  0  0  0  0  0  0  0  0  0  0  0
   38.8760   31.3240   49.5830 H   0  0  0  0  0  0  0  0  0  0  0  0
   34.9000   28.7990   50.9230 H   0  0  0  0  0  0  0  0  0  0  0  0
  1  2  1  0  0  0  0
  1  7  1  0  0  0  0
  2  8  1  6  0  0  0
  2 25  1  0  0  0  0
  3 10  1  0  0  0  0
  3  2  1  0  0  0  0
  3  9  1  0  0  0  0
  4  3  1  0  0  0  0
  5  4  1  0  0  0  0
  5  6  1  0  0  0  0
  5 12  1  0  0  0  0
  6 13  1  6  0  0  0
  6  1  1  0  0  0  0
 11  5  1  0  0  0  0
 15 14  1  0  0  0  0
 16 15  1  0  0  0  0
 16  6  1  0  0  0  0
 17 16  2  0  0  0  0
 18 17  1  0  0  0  0
 19 21  2  0  0  0  0
 19 17  1  0  0  0  0
 20 19  1  0  0  0  0
 21 23  1  0  0  0  0
 22 21  1  0  0  0  0
 23 24  1  0  0  0  0
 23 15  2  0  0  0  0
 25 31  1  0  0  0  0
 26 35  1  0  0  0  0
 26 27  1  0  0  0  0
 27 41  1  0  0  0  0
 28 27  2  0  0  0  0
 28 36  1  0  0  0  0
 29 28  1  0  0  0  0
 30 37  1  0  0  0  0
 30 29  1  0  0  0  0
 31 30  1  0  0  0  0
 32 31  2  0  0  0  0
 32 33  1  0  0  0  0
 33 34  1  0  0  0  0
 33 29  2  0  0  0  0
 34 26  2  0  0  0  0
 38 34  1  0  0  0  0
 39 44  1  0  0  0  0
 39 45  1  0  0  0  0
 40 39  2  0  0  0  0
 41 42  2  0  0  0  0
 41 40  1  0  0  0  0
 42 43  1  0  0  0  0
 43 47  1  0  0  0  0
 43 44  2  0  0  0  0
 46 40  1  0  0  0  0
M  END
>  <minimizedAffinity>
-5.650002

>  <minimizedRMSD>
0.861311615

$$$$
