
 OpenBabel03272507333D

 38 42  0  0  1  0  0  0  0  0999 V2000
   32.9640   27.7720   48.5960 C   0  0  0  0  0  0  0  0  0  0  0  0
   31.7880   27.7540   49.0750 O   0  0  0  0  0  0  0  0  0  0  0  0
   35.9500   29.3190   49.8110 C   0  0  0  0  0  0  0  0  0  0  0  0
   35.0420   29.9430   50.6360 C   0  0  0  0  0  0  0  0  0  0  0  0
   33.7680   29.4550   50.3030 C   0  0  0  0  0  0  0  0  0  0  0  0
   33.9910   28.5530   49.2820 C   0  0  0  0  0  0  0  0  0  0  0  0
   35.2820   28.5070   49.0290 O   0  0  0  0  0  0  0  0  0  0  0  0
   35.1740   30.6850   51.4250 H   0  0  0  0  0  0  0  0  0  0  0  0
   32.8060   29.7000   50.7210 H   0  0  0  0  0  0  0  0  0  0  0  0
   37.3770   29.5900   49.8840 C   0  0  0  0  0  0  0  0  0  0  0  0
   38.0780   28.9370   50.6700 O   0  0  0  0  0  0  0  0  0  0  0  0
   37.8910   30.6180   49.0230 C   0  0  0  0  0  0  0  0  0  0  0  0
   38.2280   31.8230   49.6110 C   0  0  0  0  0  0  0  0  0  0  0  0
   38.7300   32.8480   48.7990 C   0  0  0  0  0  0  0  0  0  0  0  0
   38.8600   32.5970   47.4550 N   0  0  0  0  0  0  0  0  0  0  0  0
   38.5250   31.4210   46.9210 C   0  0  0  0  0  0  0  0  0  0  0  0
   38.0430   30.4350   47.6940 N   0  0  0  0  0  0  0  0  0  0  0  0
   38.1320   32.0330   50.6580 H   0  0  0  0  0  0  0  0  0  0  0  0
   38.9970   33.7960   49.2540 H   0  0  0  0  0  0  0  0  0  0  0  0
   38.6240   31.2140   45.8640 H   0  0  0  0  0  0  0  0  0  0  0  0
   33.2840   27.0040   47.3650 C   0  0  1  0  0  0  0  0  0  0  0  0
   32.5040   25.6290   47.3390 C   0  0  0  0  0  0  0  0  0  0  0  0
   32.2830   26.6780   46.3460 C   0  0  1  0  0  0  0  0  0  0  0  0
   34.3730   26.7820   47.2720 H   0  0  0  0  0  0  0  0  0  0  0  0
   33.1000   24.7370   47.0600 H   0  0  0  0  0  0  0  0  0  0  0  0
   31.8350   25.4260   48.1810 H   0  0  0  0  0  0  0  0  0  0  0  0
   32.7740   26.5160   45.3300 H   0  0  0  0  0  0  0  0  0  0  0  0
   31.0030   28.6470   45.6700 C   0  0  0  0  0  3  0  0  0  0  0  0
   30.9790   27.3630   46.2190 C   0  0  0  0  0  0  0  0  0  0  0  0
   29.7300   26.8930   46.5580 C   0  0  0  0  0  0  0  0  0  0  0  0
   29.6930   25.9030   46.9700 H   0  0  0  0  0  0  0  0  0  0  0  0
   28.5970   27.6520   46.3620 C   0  0  0  0  0  0  0  0  0  0  0  0
   28.6260   28.9080   45.8250 C   0  0  0  0  0  0  0  0  0  0  0  0
   29.8550   29.4210   45.4690 C   0  0  0  0  0  3  0  0  0  0  0  0
   27.3340   29.4060   45.7580 O   0  0  0  0  0  0  0  0  0  0  0  0
   26.4680   28.3090   45.9820 C   0  0  0  0  0  3  0  0  0  0  0  0
   25.6670   28.6310   46.6510 H   0  0  0  0  0  0  0  0  0  0  0  0
   27.2640   27.3280   46.6490 O   0  0  0  0  0  0  0  0  0  0  0  0
  1  2  2  0  0  0  0
  1  6  1  0  0  0  0
  3 10  1  0  0  0  0
  3  4  2  0  0  0  0
  4  8  1  0  0  0  0
  5  4  1  0  0  0  0
  5  9  1  0  0  0  0
  6  5  2  0  0  0  0
  7  6  1  0  0  0  0
  7  3  1  0  0  0  0
 10 11  2  0  0  0  0
 12 13  1  0  0  0  0
 12 10  1  0  0  0  0
 13 18  1  0  0  0  0
 14 19  1  0  0  0  0
 14 13  2  0  0  0  0
 15 14  1  0  0  0  0
 16 15  2  0  0  0  0
 16 17  1  0  0  0  0
 17 12  2  0  0  0  0
 20 16  1  0  0  0  0
 21 24  1  6  0  0  0
 21  1  1  0  0  0  0
 22 21  1  0  0  0  0
 22 26  1  0  0  0  0
 23 27  1  6  0  0  0
 23 22  1  0  0  0  0
 23 21  1  0  0  0  0
 25 22  1  0  0  0  0
 28 29  1  0  0  0  0
 29 23  1  0  0  0  0
 29 30  2  0  0  0  0
 30 31  1  0  0  0  0
 32 30  1  0  0  0  0
 32 38  1  0  0  0  0
 33 32  2  0  0  0  0
 34 28  2  0  0  0  0
 34 33  1  0  0  0  0
 35 33  1  0  0  0  0
 35 36  1  0  0  0  0
 36 38  1  0  0  0  0
 36 37  1  0  0  0  0
M  END
>  <minimizedAffinity>
-5.7271595

>  <minimizedRMSD>
2.14471912

$$$$
