
 OpenBabel03272509073D

 42 46  0  0  0  0  0  0  0  0999 V2000
   33.0520   28.1700   47.8660 C   0  0  0  0  0  0  0  0  0  0  0  0
   32.3880   28.8520   47.3430 H   0  0  0  0  0  0  0  0  0  0  0  0
   32.4640   27.7360   48.7030 H   0  0  0  0  0  0  0  0  0  0  0  0
   33.4430   27.0100   47.0170 C   0  0  0  0  0  0  0  0  0  0  0  0
   33.4130   25.6780   47.4220 C   0  0  0  0  0  0  0  0  0  0  0  0
   33.7820   24.6710   46.5720 C   0  0  0  0  0  0  0  0  0  0  0  0
   34.1950   24.9420   45.2860 C   0  0  0  0  0  0  0  0  0  0  0  0
   34.2250   26.2540   44.8810 C   0  0  0  0  0  0  0  0  0  0  0  0
   33.8540   27.2890   45.7290 C   0  0  0  0  0  0  0  0  0  0  0  0
   33.0740   25.5520   48.4590 H   0  0  0  0  0  0  0  0  0  0  0  0
   33.6990   23.7120   47.0490 H   0  0  0  0  0  0  0  0  0  0  0  0
   34.4610   24.0750   44.7030 H   0  0  0  0  0  0  0  0  0  0  0  0
   34.5670   26.3330   43.8470 H   0  0  0  0  0  0  0  0  0  0  0  0
   35.0830   29.4120   44.9130 C   0  0  0  0  0  3  0  0  0  0  0  0
   34.0110   28.5610   45.0330 C   0  0  0  0  0  0  0  0  0  0  0  0
   32.8490   29.0160   44.3920 C   0  0  0  0  0  0  0  0  0  0  0  0
   31.9210   28.4340   44.4100 H   0  0  0  0  0  0  0  0  0  0  0  0
   32.7450   30.2020   43.6960 C   0  0  0  0  0  0  0  0  0  0  0  0
   33.8510   31.0150   43.6080 C   0  0  0  0  0  0  0  0  0  0  0  0
   34.9960   30.5940   44.2240 C   0  0  0  0  0  3  0  0  0  0  0  0
   33.5010   32.1350   42.8670 O   0  0  0  0  0  0  0  0  0  0  0  0
   32.3490   31.7900   42.1190 C   0  0  0  0  0  3  0  0  0  0  0  0
   32.7090   31.3080   41.1870 H   0  0  0  0  0  0  0  0  0  0  0  0
   31.7300   30.8420   43.0000 O   0  0  0  0  0  0  0  0  0  0  0  0
   34.9930   28.3940   49.4490 C   0  0  0  0  0  3  0  0  0  0  0  0
   34.1980   28.8510   48.5110 C   0  0  0  0  0  3  0  0  0  0  0  0
   37.3890   30.1520   51.5620 C   0  0  0  0  0  0  0  0  0  0  0  0
   38.0980   30.9220   50.6190 C   0  0  0  0  0  0  0  0  0  0  0  0
   37.7200   30.8100   49.2580 C   0  0  0  0  0  0  0  0  0  0  0  0
   36.6940   29.9660   48.9420 N   0  0  0  0  0  0  0  0  0  0  0  0
   36.0580   29.2560   49.9130 C   0  0  0  0  0  0  0  0  0  0  0  0
   36.3960   29.3470   51.1950 N   0  0  0  0  0  0  0  0  0  0  0  0
   37.7140   30.2700   52.6020 H   0  0  0  0  0  0  0  0  0  0  0  0
   38.9150   31.5950   50.8670 H   0  0  0  0  0  0  0  0  0  0  0  0
   38.3750   31.5680   48.1930 C   0  0  0  0  0  0  0  0  0  0  0  0
   38.5620   31.0560   46.9280 C   0  0  0  0  0  0  0  0  0  0  0  0
   39.2030   32.0420   46.1710 C   0  0  0  0  0  0  0  0  0  0  0  0
   39.3740   33.0960   47.0040 N   0  0  0  0  0  0  0  0  0  0  0  0
   38.8840   32.8240   48.2120 N   0  0  0  0  0  0  0  0  0  0  0  0
   38.2770   30.0670   46.5450 H   0  0  0  0  0  0  0  0  0  0  0  0
   39.4800   31.9230   45.1340 H   0  0  0  0  0  0  0  0  0  0  0  0
   39.8430   33.9620   46.6360 H   0  0  0  0  0  0  0  0  0  0  0  0
  1 26  1  0  0  0  0
  1  3  1  0  0  0  0
  2  1  1  0  0  0  0
  4  5  1  0  0  0  0
  4  1  1  0  0  0  0
  5 10  1  0  0  0  0
  6 11  1  0  0  0  0
  6  5  2  0  0  0  0
  7  6  1  0  0  0  0
  8  7  2  0  0  0  0
  8  9  1  0  0  0  0
  9  4  2  0  0  0  0
 12  7  1  0  0  0  0
 13  8  1  0  0  0  0
 14 15  1  0  0  0  0
 15  9  1  0  0  0  0
 16 17  1  0  0  0  0
 16 15  2  0  0  0  0
 18 16  1  0  0  0  0
 19 18  2  0  0  0  0
 19 20  1  0  0  0  0
 20 14  2  0  0  0  0
 21 19  1  0  0  0  0
 22 21  1  0  0  0  0
 22 24  1  0  0  0  0
 23 22  1  0  0  0  0
 24 18  1  0  0  0  0
 25 31  1  0  0  0  0
 26 25  2  0  0  0  0
 27 33  1  0  0  0  0
 28 34  1  0  0  0  0
 28 27  2  0  0  0  0
 29 28  1  0  0  0  0
 30 29  2  0  0  0  0
 30 31  1  0  0  0  0
 31 32  2  0  0  0  0
 32 27  1  0  0  0  0
 35 39  2  0  0  0  0
 35 29  1  0  0  0  0
 36 35  1  0  0  0  0
 37 36  2  0  0  0  0
 37 38  1  0  0  0  0
 38 39  1  0  0  0  0
 40 36  1  0  0  0  0
 41 37  1  0  0  0  0
 42 38  1  0  0  0  0
M  END
>  <minimizedAffinity>
-6.5780549

>  <minimizedRMSD>
0.797059

$$$$
