
 OpenBabel03272507123D

 42 47  0  0  0  0  0  0  0  0999 V2000
   35.8700   29.1270   49.8260 C   0  0  0  0  0  0  0  0  0  0  0  0
   34.8240   29.7000   50.4940 C   0  0  0  0  0  0  0  0  0  0  0  0
   33.6580   29.1280   49.9750 C   0  0  0  0  0  0  0  0  0  0  0  0
   34.0830   28.2170   48.9940 C   0  0  0  0  0  0  0  0  0  0  0  0
   35.3780   28.2730   48.9680 O   0  0  0  0  0  0  0  0  0  0  0  0
   34.8620   30.4580   51.2830 H   0  0  0  0  0  0  0  0  0  0  0  0
   32.6820   29.4030   50.3260 H   0  0  0  0  0  0  0  0  0  0  0  0
   33.5430   26.4450   47.3410 C   0  0  0  0  0  0  0  0  0  0  0  0
   33.1380   27.4250   48.2310 C   0  0  0  0  0  0  0  0  0  0  0  0
   31.8060   27.6860   48.4270 C   0  0  0  0  0  0  0  0  0  0  0  0
   30.8650   26.9500   47.7180 C   0  0  0  0  0  0  0  0  0  0  0  0
   29.5260   26.9900   47.7120 N   0  0  0  0  0  0  0  0  0  0  0  0
   29.1040   26.0660   46.8470 N   0  0  0  0  0  0  0  0  0  0  0  0
   30.1670   25.4440   46.3080 C   0  0  0  0  0  0  0  0  0  0  0  0
   31.3260   25.9840   46.8440 C   0  0  0  0  0  0  0  0  0  0  0  0
   32.6540   25.7020   46.6270 C   0  0  0  0  0  0  0  0  0  0  0  0
   34.6120   26.2500   47.1960 H   0  0  0  0  0  0  0  0  0  0  0  0
   31.3930   28.4440   49.1120 H   0  0  0  0  0  0  0  0  0  0  0  0
   28.8900   27.6250   48.2760 H   0  0  0  0  0  0  0  0  0  0  0  0
   30.1830   24.6360   45.5640 H   0  0  0  0  0  0  0  0  0  0  0  0
   33.0010   24.9470   45.9420 H   0  0  0  0  0  0  0  0  0  0  0  0
   37.2450   29.4860   50.1100 C   0  0  0  0  0  0  0  0  0  0  0  0
   37.8820   28.8210   50.9720 O   0  0  0  0  0  0  0  0  0  0  0  0
   37.8110   30.5960   49.3790 C   0  0  0  0  0  0  0  0  0  0  0  0
   38.0710   31.7620   50.0930 C   0  0  0  0  0  0  0  0  0  0  0  0
   38.6180   32.8520   49.4130 C   0  0  0  0  0  0  0  0  0  0  0  0
   38.8610   32.6950   48.0820 N   0  0  0  0  0  0  0  0  0  0  0  0
   38.6040   31.5710   47.4230 C   0  0  0  0  0  0  0  0  0  0  0  0
   38.0780   30.5250   48.0780 N   0  0  0  0  0  0  0  0  0  0  0  0
   37.8500   31.8040   51.1480 H   0  0  0  0  0  0  0  0  0  0  0  0
   38.8100   33.7430   49.9930 H   0  0  0  0  0  0  0  0  0  0  0  0
   39.1700   30.2280   45.4330 C   0  0  0  0  0  3  0  0  0  0  0  0
   38.8830   31.4550   45.9970 C   0  0  0  0  0  0  0  0  0  0  0  0
   38.8710   32.5460   45.1630 C   0  0  0  0  0  0  0  0  0  0  0  0
   38.6520   33.5240   45.5550 H   0  0  0  0  0  0  0  0  0  0  0  0
   39.1400   32.4160   43.8040 C   0  0  0  0  0  0  0  0  0  0  0  0
   39.4270   31.1890   43.2400 C   0  0  0  0  0  0  0  0  0  0  0  0
   39.4370   30.0980   44.0850 C   0  0  0  0  0  3  0  0  0  0  0  0
   39.6490   31.3810   41.8720 O   0  0  0  0  0  0  0  0  0  0  0  0
   39.1990   32.6890   41.5660 C   0  0  0  0  0  3  0  0  0  0  0  0
   38.1490   32.6620   41.1950 H   0  0  0  0  0  0  0  0  0  0  0  0
   39.1750   33.3840   42.8140 O   0  0  0  0  0  0  0  0  0  0  0  0
  1 22  1  0  0  0  0
  1  2  2  0  0  0  0
  2  6  1  0  0  0  0
  3  7  1  0  0  0  0
  3  2  1  0  0  0  0
  4  3  2  0  0  0  0
  5  4  1  0  0  0  0
  5  1  1  0  0  0  0
  8  9  1  0  0  0  0
  9 10  2  0  0  0  0
  9  4  1  0  0  0  0
 10 18  1  0  0  0  0
 11 10  1  0  0  0  0
 12 11  1  0  0  0  0
 12 19  1  0  0  0  0
 13 12  1  0  0  0  0
 14 15  1  0  0  0  0
 14 13  2  0  0  0  0
 15 11  2  0  0  0  0
 16 15  1  0  0  0  0
 16  8  2  0  0  0  0
 17  8  1  0  0  0  0
 20 14  1  0  0  0  0
 21 16  1  0  0  0  0
 22 23  2  0  0  0  0
 24 25  1  0  0  0  0
 24 22  1  0  0  0  0
 25 30  1  0  0  0  0
 26 31  1  0  0  0  0
 26 25  2  0  0  0  0
 27 26  1  0  0  0  0
 28 29  1  0  0  0  0
 28 27  2  0  0  0  0
 29 24  2  0  0  0  0
 32 33  1  0  0  0  0
 33 28  1  0  0  0  0
 34 35  1  0  0  0  0
 34 33  2  0  0  0  0
 36 34  1  0  0  0  0
 37 36  2  0  0  0  0
 37 38  1  0  0  0  0
 38 32  2  0  0  0  0
 39 37  1  0  0  0  0
 40 39  1  0  0  0  0
 40 42  1  0  0  0  0
 41 40  1  0  0  0  0
 42 36  1  0  0  0  0
M  END
>  <minimizedAffinity>
-7.53365993

>  <minimizedRMSD>
0.475500107

$$$$
