
 OpenBabel03272502183D

 35 38  0  0  1  0  0  0  0  0999 V2000
   37.3000   30.4100   49.0840 C   0  0  0  0  0  0  0  0  0  0  0  0
   37.6530   31.3540   50.0750 C   0  0  0  0  0  0  0  0  0  0  0  0
   38.4670   32.4270   49.7220 C   0  0  0  0  0  0  0  0  0  0  0  0
   38.8830   32.4950   48.4040 N   0  0  0  0  0  0  0  0  0  0  0  0
   38.5310   31.5880   47.5000 C   0  0  0  0  0  0  0  0  0  0  0  0
   37.7430   30.5500   47.8390 N   0  0  0  0  0  0  0  0  0  0  0  0
   37.3370   31.3180   51.1110 H   0  0  0  0  0  0  0  0  0  0  0  0
   38.7480   33.1600   50.4650 H   0  0  0  0  0  0  0  0  0  0  0  0
   40.2090   31.2170   45.7210 C   0  0  0  0  0  3  0  0  0  0  0  0
   38.9830   31.6880   46.1240 C   0  0  0  0  0  0  0  0  0  0  0  0
   38.1670   32.2710   45.1970 C   0  0  0  0  0  0  0  0  0  0  0  0
   37.2140   32.6380   45.5060 H   0  0  0  0  0  0  0  0  0  0  0  0
   38.6120   32.3590   43.8980 C   0  0  0  0  0  0  0  0  0  0  0  0
   39.8370   31.9020   43.4310 C   0  0  0  0  0  0  0  0  0  0  0  0
   40.6290   31.3200   44.4070 C   0  0  0  0  0  3  0  0  0  0  0  0
   39.8720   32.1870   42.0870 O   0  0  0  0  0  0  0  0  0  0  0  0
   38.9400   33.2250   41.8450 C   0  0  0  0  0  3  0  0  0  0  0  0
   38.5450   33.2010   40.8020 H   0  0  0  0  0  0  0  0  0  0  0  0
   37.9370   32.9120   42.8110 O   0  0  0  0  0  0  0  0  0  0  0  0
   36.2600   29.1160   49.7190 S   0  0  0  0  0  0  0  0  0  0  0  0
   33.7800   28.2100   49.1670 N   0  0  0  0  0  0  0  0  0  0  0  0
   34.4970   29.4510   49.3540 C   0  0  2  0  0  0  0  0  0  0  0  0
   34.3970   30.2380   48.0700 C   0  0  0  0  0  0  0  0  0  0  0  0
   33.3680   29.7510   47.2350 O   0  0  0  0  0  0  0  0  0  0  0  0
   33.8000   28.4960   46.8060 C   0  0  0  0  0  0  0  0  0  0  0  0
   34.2220   27.5950   47.9490 C   0  0  2  0  0  0  0  0  0  0  0  0
   33.8610   27.6000   49.9960 H   0  0  0  0  0  0  0  0  0  0  0  0
   34.0900   29.9760   50.2400 H   0  0  0  0  0  0  0  0  0  0  0  0
   35.3550   30.3240   47.5530 H   0  0  0  0  0  0  0  0  0  0  0  0
   34.1000   31.2860   48.3600 H   0  0  0  0  0  0  0  0  0  0  0  0
   32.9110   28.0220   46.3170 H   0  0  0  0  0  0  0  0  0  0  0  0
   34.5780   28.5530   46.0180 H   0  0  0  0  0  0  0  0  0  0  0  0
   35.3270   27.5110   47.9630 H   0  0  0  0  0  0  0  0  0  0  0  0
   33.6120   26.3290   47.8350 O   0  0  0  0  0  0  0  0  0  0  0  0
   33.7930   25.9300   46.9400 H   0  0  0  0  0  0  0  0  0  0  0  0
  1 20  1  0  0  0  0
  1  2  1  0  0  0  0
  2  7  1  0  0  0  0
  3  2  2  0  0  0  0
  3  8  1  0  0  0  0
  4  3  1  0  0  0  0
  5  6  1  0  0  0  0
  5  4  2  0  0  0  0
  6  1  2  0  0  0  0
  9 10  1  0  0  0  0
 10  5  1  0  0  0  0
 11 12  1  0  0  0  0
 11 10  2  0  0  0  0
 13 11  1  0  0  0  0
 14 13  2  0  0  0  0
 14 15  1  0  0  0  0
 15  9  2  0  0  0  0
 16 14  1  0  0  0  0
 17 16  1  0  0  0  0
 17 19  1  0  0  0  0
 18 17  1  0  0  0  0
 19 13  1  0  0  0  0
 21 22  1  0  0  0  0
 21 27  1  0  0  0  0
 22 20  1  0  0  0  0
 22 28  1  1  0  0  0
 23 30  1  0  0  0  0
 23 22  1  0  0  0  0
 24 23  1  0  0  0  0
 25 24  1  0  0  0  0
 25 26  1  0  0  0  0
 26 33  1  1  0  0  0
 26 21  1  0  0  0  0
 29 23  1  0  0  0  0
 31 25  1  0  0  0  0
 32 25  1  0  0  0  0
 34 26  1  0  0  0  0
 35 34  1  0  0  0  0
M  END
>  <minimizedAffinity>
-6.4572711

>  <minimizedRMSD>
1.23529041

$$$$
