
 OpenBabel03272507123D

 42 47  0  0  0  0  0  0  0  0999 V2000
   35.6770   29.1340   49.8740 C   0  0  0  0  0  0  0  0  0  0  0  0
   34.5380   29.6150   50.4570 C   0  0  0  0  0  0  0  0  0  0  0  0
   33.4690   28.9370   49.8630 C   0  0  0  0  0  0  0  0  0  0  0  0
   34.0430   28.0600   48.9290 C   0  0  0  0  0  0  0  0  0  0  0  0
   35.3280   28.2330   48.9950 O   0  0  0  0  0  0  0  0  0  0  0  0
   34.4500   30.3800   51.2370 H   0  0  0  0  0  0  0  0  0  0  0  0
   32.4490   29.1250   50.1390 H   0  0  0  0  0  0  0  0  0  0  0  0
   33.7830   26.1790   47.3290 C   0  0  0  0  0  0  0  0  0  0  0  0
   33.2320   27.1810   48.1110 C   0  0  0  0  0  0  0  0  0  0  0  0
   31.8750   27.3800   48.1400 C   0  0  0  0  0  0  0  0  0  0  0  0
   31.0580   26.5600   47.3720 C   0  0  0  0  0  0  0  0  0  0  0  0
   29.7280   26.5280   47.2130 N   0  0  0  0  0  0  0  0  0  0  0  0
   29.4530   25.5400   46.3600 N   0  0  0  0  0  0  0  0  0  0  0  0
   30.6000   24.9480   45.9810 C   0  0  0  0  0  0  0  0  0  0  0  0
   31.6620   25.5760   46.6120 C   0  0  0  0  0  0  0  0  0  0  0  0
   33.0180   25.3540   46.5640 C   0  0  0  0  0  0  0  0  0  0  0  0
   34.8690   26.0340   47.3180 H   0  0  0  0  0  0  0  0  0  0  0  0
   31.3510   28.1500   48.7290 H   0  0  0  0  0  0  0  0  0  0  0  0
   29.0020   27.1570   47.6640 H   0  0  0  0  0  0  0  0  0  0  0  0
   30.7390   24.1040   45.2920 H   0  0  0  0  0  0  0  0  0  0  0  0
   33.4770   24.5850   45.9670 H   0  0  0  0  0  0  0  0  0  0  0  0
   36.9900   29.6170   50.2520 C   0  0  0  0  0  0  0  0  0  0  0  0
   37.5890   29.0630   51.2130 O   0  0  0  0  0  0  0  0  0  0  0  0
   37.5410   30.7180   49.4950 C   0  0  0  0  0  0  0  0  0  0  0  0
   37.4680   31.9840   50.0670 C   0  0  0  0  0  0  0  0  0  0  0  0
   37.9930   33.0660   49.3590 C   0  0  0  0  0  0  0  0  0  0  0  0
   38.5440   32.8030   48.1420 N   0  0  0  0  0  0  0  0  0  0  0  0
   38.6010   31.5850   47.6170 C   0  0  0  0  0  0  0  0  0  0  0  0
   38.0970   30.5460   48.2990 N   0  0  0  0  0  0  0  0  0  0  0  0
   37.0150   32.1060   51.0380 H   0  0  0  0  0  0  0  0  0  0  0  0
   37.9220   34.0370   49.8280 H   0  0  0  0  0  0  0  0  0  0  0  0
   40.1570   32.2220   45.8100 C   0  0  0  0  0  3  0  0  0  0  0  0
   39.2030   31.3570   46.3090 C   0  0  0  0  0  0  0  0  0  0  0  0
   38.8530   30.2850   45.5250 C   0  0  0  0  0  0  0  0  0  0  0  0
   38.1140   29.5830   45.8700 H   0  0  0  0  0  0  0  0  0  0  0  0
   39.4380   30.0830   44.2790 C   0  0  0  0  0  0  0  0  0  0  0  0
   40.3900   30.9480   43.7810 C   0  0  0  0  0  0  0  0  0  0  0  0
   40.7360   32.0220   44.5750 C   0  0  0  0  0  3  0  0  0  0  0  0
   40.7840   30.4840   42.5200 O   0  0  0  0  0  0  0  0  0  0  0  0
   40.2750   29.1680   42.3960 C   0  0  0  0  0  3  0  0  0  0  0  0
   41.0480   28.4220   42.6970 H   0  0  0  0  0  0  0  0  0  0  0  0
   39.2190   29.0760   43.3530 O   0  0  0  0  0  0  0  0  0  0  0  0
  1 22  1  0  0  0  0
  1  2  2  0  0  0  0
  2  6  1  0  0  0  0
  3  7  1  0  0  0  0
  3  2  1  0  0  0  0
  4  5  1  0  0  0  0
  4  3  2  0  0  0  0
  5  1  1  0  0  0  0
  8  9  1  0  0  0  0
  9 10  2  0  0  0  0
  9  4  1  0  0  0  0
 10 18  1  0  0  0  0
 11 10  1  0  0  0  0
 12 11  1  0  0  0  0
 12 19  1  0  0  0  0
 13 12  1  0  0  0  0
 14 13  2  0  0  0  0
 14 15  1  0  0  0  0
 15 11  2  0  0  0  0
 16 15  1  0  0  0  0
 16  8  2  0  0  0  0
 17  8  1  0  0  0  0
 20 14  1  0  0  0  0
 21 16  1  0  0  0  0
 22 23  2  0  0  0  0
 24 25  1  0  0  0  0
 24 22  1  0  0  0  0
 25 30  1  0  0  0  0
 26 31  1  0  0  0  0
 26 25  2  0  0  0  0
 27 26  1  0  0  0  0
 28 27  2  0  0  0  0
 28 29  1  0  0  0  0
 29 24  2  0  0  0  0
 32 33  1  0  0  0  0
 33 28  1  0  0  0  0
 34 35  1  0  0  0  0
 34 33  2  0  0  0  0
 36 34  1  0  0  0  0
 37 36  2  0  0  0  0
 37 38  1  0  0  0  0
 38 32  2  0  0  0  0
 39 37  1  0  0  0  0
 40 39  1  0  0  0  0
 40 41  1  0  0  0  0
 40 42  1  0  0  0  0
 42 36  1  0  0  0  0
M  END
>  <minimizedAffinity>
-7.86861992

>  <minimizedRMSD>
1.03365505

$$$$
