
 OpenBabel03272500583D

 37 40  0  0  0  0  0  0  0  0999 V2000
   38.0290   31.8440   47.4420 C   0  0  0  0  0  0  0  0  0  0  0  0
   38.5400   32.7350   48.3390 C   0  0  0  0  0  0  0  0  0  0  0  0
   38.0870   32.8180   49.6590 C   0  0  0  0  0  0  0  0  0  0  0  0
   37.0320   31.9090   50.0590 C   0  0  0  0  0  0  0  0  0  0  0  0
   36.5660   31.0470   49.1180 C   0  0  0  0  0  0  0  0  0  0  0  0
   37.0080   30.9770   47.8560 C   0  0  0  0  0  0  0  0  0  0  0  0
   39.3430   33.4390   48.0670 H   0  0  0  0  0  0  0  0  0  0  0  0
   38.5360   33.5500   50.3180 H   0  0  0  0  0  0  0  0  0  0  0  0
   36.7860   32.0820   51.0840 H   0  0  0  0  0  0  0  0  0  0  0  0
   35.8220   30.4580   49.6330 H   0  0  0  0  0  0  0  0  0  0  0  0
   39.8750   31.2220   45.9610 C   0  0  0  0  0  0  0  0  0  0  0  0
   38.6220   31.8650   46.1240 C   0  0  0  0  0  0  0  0  0  0  0  0
   38.1230   32.4290   44.9770 C   0  0  0  0  0  0  0  0  0  0  0  0
   38.7920   32.3570   43.8210 N   0  0  0  0  0  0  0  0  0  0  0  0
   39.9570   31.7550   43.6870 C   0  0  0  0  0  0  0  0  0  0  0  0
   40.4870   31.1930   44.7610 N   0  0  0  0  0  0  0  0  0  0  0  0
   40.3530   30.7420   46.8210 H   0  0  0  0  0  0  0  0  0  0  0  0
   37.1700   32.9210   45.0920 H   0  0  0  0  0  0  0  0  0  0  0  0
   40.5080   31.6910   42.7570 H   0  0  0  0  0  0  0  0  0  0  0  0
   35.0330   29.9740   47.0630 C   0  0  0  0  0  0  0  0  0  0  0  0
   34.4370   30.6500   47.9890 O   0  0  0  0  0  0  0  0  0  0  0  0
   36.4740   30.0970   46.9500 N   0  0  0  0  0  0  0  0  0  0  0  0
   37.0260   29.5600   46.2460 H   0  0  0  0  0  0  0  0  0  0  0  0
   34.2830   29.1810   46.2450 O   0  0  0  0  0  0  0  0  0  0  0  0
   33.1380   29.5710   45.5740 C   0  0  0  0  0  0  0  0  0  0  0  0
   33.1780   30.1810   44.4080 O   0  0  0  0  0  0  0  0  0  0  0  0
   30.6570   29.9110   45.7130 C   0  0  0  0  0  3  0  0  0  0  0  0
   31.7980   29.2920   46.1380 C   0  0  0  0  0  0  0  0  0  0  0  0
   31.6490   28.3660   47.1490 C   0  0  0  0  0  0  0  0  0  0  0  0
   32.5360   27.8450   47.5220 H   0  0  0  0  0  0  0  0  0  0  0  0
   30.4580   28.0430   47.7290 C   0  0  0  0  0  0  0  0  0  0  0  0
   29.3200   28.6980   47.2660 C   0  0  0  0  0  0  0  0  0  0  0  0
   29.4220   29.6330   46.2560 C   0  0  0  0  0  3  0  0  0  0  0  0
   28.2190   28.2130   47.9990 O   0  0  0  0  0  0  0  0  0  0  0  0
   28.6130   27.0030   48.6130 C   0  0  0  0  0  3  0  0  0  0  0  0
   28.2050   26.8560   49.6260 H   0  0  0  0  0  0  0  0  0  0  0  0
   30.0220   27.1740   48.7360 O   0  0  0  0  0  0  0  0  0  0  0  0
  1  6  2  0  0  0  0
  1  2  1  0  0  0  0
  2  3  2  0  0  0  0
  3  4  1  0  0  0  0
  3  8  1  0  0  0  0
  4  9  1  0  0  0  0
  5 10  1  0  0  0  0
  5  4  2  0  0  0  0
  6  5  1  0  0  0  0
  7  2  1  0  0  0  0
 11 12  1  0  0  0  0
 11 17  1  0  0  0  0
 12  1  1  0  0  0  0
 13 18  1  0  0  0  0
 13 12  2  0  0  0  0
 14 13  1  0  0  0  0
 15 14  2  0  0  0  0
 15 16  1  0  0  0  0
 16 11  2  0  0  0  0
 19 15  1  0  0  0  0
 20 21  2  0  0  0  0
 22 20  1  0  0  0  0
 22  6  1  0  0  0  0
 23 22  1  0  0  0  0
 24 20  1  0  0  0  0
 25 28  1  0  0  0  0
 25 24  1  0  0  0  0
 26 25  2  0  0  0  0
 27 28  2  0  0  0  0
 27 33  1  0  0  0  0
 28 29  1  0  0  0  0
 29 30  1  0  0  0  0
 29 31  2  0  0  0  0
 31 37  1  0  0  0  0
 32 31  1  0  0  0  0
 32 34  1  0  0  0  0
 33 32  2  0  0  0  0
 34 35  1  0  0  0  0
 35 37  1  0  0  0  0
 35 36  1  0  0  0  0
M  END
>  <minimizedAffinity>
-6.21477175

>  <minimizedRMSD>
1.47445703

$$$$
