
 OpenBabel03262522083D

 42 46  0  0  1  0  0  0  0  0999 V2000
   38.7480   23.3740   36.0440 C   0  0  2  0  0  0  0  0  0  0  0  0
   38.1130   24.5080   36.7700 C   0  0  0  0  0  0  0  0  0  0  0  0
   38.0140   25.6610   35.8770 N   0  0  0  0  0  0  0  0  0  0  0  0
   37.5820   26.7790   35.0840 C   0  0  0  0  0  0  0  0  0  0  0  0
   36.5530   27.4670   34.9870 O   0  0  0  0  0  0  0  0  0  0  0  0
   38.8110   26.8900   34.3480 C   0  0  1  0  0  0  0  0  0  0  0  0
   39.3360   25.9090   35.3900 C   0  0  2  0  0  0  0  0  0  0  0  0
   39.7540   24.2630   34.7700 S   0  0  0  0  0  0  0  0  0  0  0  0
   37.0500   24.2390   37.0270 H   0  0  0  0  0  0  0  0  0  0  0  0
   38.5760   24.7870   37.7180 H   0  0  0  0  0  0  0  0  0  0  0  0
   39.4190   27.8100   34.4620 H   0  0  0  0  0  0  0  0  0  0  0  0
   40.0460   26.3220   36.1270 H   0  0  0  0  0  0  0  0  0  0  0  0
   37.8360   22.3490   35.4690 C   0  0  0  0  0  0  0  0  0  0  0  0
   37.8810   22.4060   34.3550 H   0  0  0  0  0  0  0  0  0  0  0  0
   38.1510   21.3080   35.7260 H   0  0  0  0  0  0  0  0  0  0  0  0
   36.7780   22.4720   35.7390 H   0  0  0  0  0  0  0  0  0  0  0  0
   39.8060   22.7420   36.9720 C   0  0  0  0  0  0  0  0  0  0  0  0
   40.7030   23.3820   37.0010 H   0  0  0  0  0  0  0  0  0  0  0  0
   40.0680   21.7650   36.5550 H   0  0  0  0  0  0  0  0  0  0  0  0
   39.2660   22.6390   38.2530 O   0  0  0  0  0  0  0  0  0  0  0  0
   39.2050   23.5090   38.6820 H   0  0  0  0  0  0  0  0  0  0  0  0
   38.8020   26.4010   32.9480 C   0  0  0  0  0  0  0  0  0  0  0  0
   39.9330   26.5180   32.3740 O   0  0  0  0  0  0  0  0  0  0  0  0
   37.6530   25.8480   32.3020 C   0  0  0  0  0  0  0  0  0  0  0  0
   36.7360   26.7180   31.7530 C   0  0  0  0  0  0  0  0  0  0  0  0
   35.6010   26.1590   31.1150 C   0  0  0  0  0  0  0  0  0  0  0  0
   35.4810   24.7880   31.0840 N   0  0  0  0  0  0  0  0  0  0  0  0
   36.3880   23.9880   31.6260 C   0  0  0  0  0  0  0  0  0  0  0  0
   37.4780   24.5060   32.2380 N   0  0  0  0  0  0  0  0  0  0  0  0
   36.8880   27.7870   31.8110 H   0  0  0  0  0  0  0  0  0  0  0  0
   34.8810   26.8160   30.6850 H   0  0  0  0  0  0  0  0  0  0  0  0
   35.1560   21.9420   32.1940 C   0  0  0  0  0  3  0  0  0  0  0  0
   36.2370   22.5380   31.5790 C   0  0  0  0  0  0  0  0  0  0  0  0
   37.1380   21.7130   30.9360 C   0  0  0  0  0  0  0  0  0  0  0  0
   38.0000   22.1390   30.4410 H   0  0  0  0  0  0  0  0  0  0  0  0
   36.9620   20.3260   30.9110 C   0  0  0  0  0  0  0  0  0  0  0  0
   35.8420   19.8070   31.5580 C   0  0  0  0  0  0  0  0  0  0  0  0
   34.9080   20.5860   32.2150 C   0  0  0  0  0  3  0  0  0  0  0  0
   35.9230   18.4210   31.3720 O   0  0  0  0  0  0  0  0  0  0  0  0
   36.8530   18.1360   30.3480 C   0  0  0  0  0  3  0  0  0  0  0  0
   36.3570   18.1140   29.3420 H   0  0  0  0  0  0  0  0  0  0  0  0
   37.6970   19.2700   30.3490 O   0  0  0  0  0  0  0  0  0  0  0  0
  1 13  1  6  0  0  0
  1  2  1  0  0  0  0
  1 17  1  0  0  0  0
  2  9  1  0  0  0  0
  2 10  1  0  0  0  0
  3  2  1  0  0  0  0
  4  3  1  0  0  0  0
  5  4  2  0  0  0  0
  6 11  1  1  0  0  0
  6  4  1  0  0  0  0
  6  7  1  0  0  0  0
  7  3  1  0  0  0  0
  7 12  1  1  0  0  0
  8  7  1  0  0  0  0
  8  1  1  0  0  0  0
 13 15  1  0  0  0  0
 13 16  1  0  0  0  0
 14 13  1  0  0  0  0
 17 18  1  0  0  0  0
 17 20  1  0  0  0  0
 19 17  1  0  0  0  0
 20 21  1  0  0  0  0
 22  6  1  0  0  0  0
 23 22  2  0  0  0  0
 24 22  1  0  0  0  0
 25 30  1  0  0  0  0
 25 24  2  0  0  0  0
 26 25  1  0  0  0  0
 27 26  2  0  0  0  0
 27 28  1  0  0  0  0
 28 29  2  0  0  0  0
 29 24  1  0  0  0  0
 31 26  1  0  0  0  0
 32 38  1  0  0  0  0
 33 28  1  0  0  0  0
 33 32  2  0  0  0  0
 34 33  1  0  0  0  0
 35 34  1  0  0  0  0
 36 34  2  0  0  0  0
 36 37  1  0  0  0  0
 37 38  2  0  0  0  0
 39 37  1  0  0  0  0
 40 42  1  0  0  0  0
 40 39  1  0  0  0  0
 41 40  1  0  0  0  0
 42 36  1  0  0  0  0
M  END
>  <minimizedAffinity>
-6.65095949

$$$$

 OpenBabel03262522083D

 42 46  0  0  1  0  0  0  0  0999 V2000
   32.9120   31.7960   36.3100 C   0  0  2  0  0  0  0  0  0  0  0  0
   32.2190   32.7200   35.3700 C   0  0  0  0  0  0  0  0  0  0  0  0
   32.4030   32.2450   34.0000 N   0  0  0  0  0  0  0  0  0  0  0  0
   32.2380   31.7890   32.6470 C   0  0  0  0  0  0  0  0  0  0  0  0
   31.3090   31.7320   31.8250 O   0  0  0  0  0  0  0  0  0  0  0  0
   33.6030   31.3680   32.4910 C   0  0  1  0  0  0  0  0  0  0  0  0
   33.8140   32.1150   33.8040 C   0  0  2  0  0  0  0  0  0  0  0  0
   34.2340   31.0850   35.2290 S   0  0  0  0  0  0  0  0  0  0  0  0
   31.1100   32.6760   35.5530 H   0  0  0  0  0  0  0  0  0  0  0  0
   32.4840   33.7750   35.4570 H   0  0  0  0  0  0  0  0  0  0  0  0
   34.2380   31.8820   31.7430 H   0  0  0  0  0  0  0  0  0  0  0  0
   34.3750   33.0640   33.7350 H   0  0  0  0  0  0  0  0  0  0  0  0
   32.0740   30.7640   36.9780 C   0  0  0  0  0  0  0  0  0  0  0  0
   32.3650   29.7560   36.5960 H   0  0  0  0  0  0  0  0  0  0  0  0
   32.2480   30.7250   38.0810 H   0  0  0  0  0  0  0  0  0  0  0  0
   30.9950   30.8600   36.7960 H   0  0  0  0  0  0  0  0  0  0  0  0
   33.6930   32.6480   37.3330 C   0  0  0  0  0  0  0  0  0  0  0  0
   33.1650   32.6390   38.3000 H   0  0  0  0  0  0  0  0  0  0  0  0
   33.7320   33.6700   36.9480 H   0  0  0  0  0  0  0  0  0  0  0  0
   34.9630   32.0960   37.4900 O   0  0  0  0  0  0  0  0  0  0  0  0
   34.9280   31.2660   37.9960 H   0  0  0  0  0  0  0  0  0  0  0  0
   33.8640   29.9080   32.5320 C   0  0  0  0  0  0  0  0  0  0  0  0
   32.8230   29.2240   32.7950 O   0  0  0  0  0  0  0  0  0  0  0  0
   35.1440   29.3200   32.2950 C   0  0  0  0  0  0  0  0  0  0  0  0
   35.8110   29.6600   31.1380 C   0  0  0  0  0  0  0  0  0  0  0  0
   37.0800   29.0690   30.9130 C   0  0  0  0  0  0  0  0  0  0  0  0
   37.5670   28.1940   31.8580 N   0  0  0  0  0  0  0  0  0  0  0  0
   36.8910   27.8950   32.9570 C   0  0  0  0  0  0  0  0  0  0  0  0
   35.6790   28.4510   33.1860 N   0  0  0  0  0  0  0  0  0  0  0  0
   35.3740   30.3550   30.4340 H   0  0  0  0  0  0  0  0  0  0  0  0
   37.6100   29.3200   30.0240 H   0  0  0  0  0  0  0  0  0  0  0  0
   37.8190   27.4300   35.1820 C   0  0  0  0  0  3  0  0  0  0  0  0
   37.4300   26.9650   33.9430 C   0  0  0  0  0  0  0  0  0  0  0  0
   37.5740   25.6140   33.6970 C   0  0  0  0  0  0  0  0  0  0  0  0
   37.2820   25.2080   32.7380 H   0  0  0  0  0  0  0  0  0  0  0  0
   38.0950   24.7510   34.6660 C   0  0  0  0  0  0  0  0  0  0  0  0
   38.4630   25.3050   35.8900 C   0  0  0  0  0  0  0  0  0  0  0  0
   38.3390   26.6480   36.1910 C   0  0  0  0  0  3  0  0  0  0  0  0
   38.9410   24.2280   36.6480 O   0  0  0  0  0  0  0  0  0  0  0  0
   38.5440   23.0140   36.0460 C   0  0  0  0  0  3  0  0  0  0  0  0
   37.5460   22.6760   36.4300 H   0  0  0  0  0  0  0  0  0  0  0  0
   38.3490   23.3710   34.6920 O   0  0  0  0  0  0  0  0  0  0  0  0
  1 13  1  1  0  0  0
  1 17  1  0  0  0  0
  2 10  1  0  0  0  0
  2  9  1  0  0  0  0
  2  1  1  0  0  0  0
  3  2  1  0  0  0  0
  4  3  1  0  0  0  0
  5  4  2  0  0  0  0
  6 11  1  6  0  0  0
  6 22  1  0  0  0  0
  6  4  1  0  0  0  0
  6  7  1  0  0  0  0
  7 12  1  6  0  0  0
  7  3  1  0  0  0  0
  7  8  1  0  0  0  0
  8  1  1  0  0  0  0
 13 15  1  0  0  0  0
 14 13  1  0  0  0  0
 16 13  1  0  0  0  0
 17 20  1  0  0  0  0
 17 18  1  0  0  0  0
 19 17  1  0  0  0  0
 20 21  1  0  0  0  0
 22 23  2  0  0  0  0
 24 22  1  0  0  0  0
 24 29  1  0  0  0  0
 25 24  2  0  0  0  0
 26 25  1  0  0  0  0
 26 27  2  0  0  0  0
 27 28  1  0  0  0  0
 28 29  2  0  0  0  0
 28 33  1  0  0  0  0
 30 25  1  0  0  0  0
 31 26  1  0  0  0  0
 32 38  1  0  0  0  0
 33 32  2  0  0  0  0
 34 33  1  0  0  0  0
 34 36  2  0  0  0  0
 35 34  1  0  0  0  0
 36 42  1  0  0  0  0
 36 37  1  0  0  0  0
 37 38  2  0  0  0  0
 37 39  1  0  0  0  0
 40 41  1  0  0  0  0
 40 39  1  0  0  0  0
 42 40  1  0  0  0  0
M  END
>  <minimizedAffinity>
-6.24962664

$$$$

 OpenBabel03262522083D

 42 46  0  0  1  0  0  0  0  0999 V2000
   41.7900   25.9610   33.5510 C   0  0  2  0  0  0  0  0  0  0  0  0
   41.5850   25.3690   34.9020 C   0  0  0  0  0  0  0  0  0  0  0  0
   40.1580   25.3680   35.2180 N   0  0  0  0  0  0  0  0  0  0  0  0
   38.8090   25.0290   35.5800 C   0  0  0  0  0  0  0  0  0  0  0  0
   38.2310   24.0450   36.0700 O   0  0  0  0  0  0  0  0  0  0  0  0
   38.2510   26.2860   35.1660 C   0  0  1  0  0  0  0  0  0  0  0  0
   39.7090   26.7180   35.0660 C   0  0  2  0  0  0  0  0  0  0  0  0
   40.3090   27.0590   33.3950 S   0  0  0  0  0  0  0  0  0  0  0  0
   41.8870   24.2850   34.8840 H   0  0  0  0  0  0  0  0  0  0  0  0
   42.1650   25.8160   35.7110 H   0  0  0  0  0  0  0  0  0  0  0  0
   37.7900   26.9420   35.9310 H   0  0  0  0  0  0  0  0  0  0  0  0
   40.0580   27.4260   35.8380 H   0  0  0  0  0  0  0  0  0  0  0  0
   41.9450   25.0110   32.4170 C   0  0  0  0  0  0  0  0  0  0  0  0
   41.0560   25.0960   31.7470 H   0  0  0  0  0  0  0  0  0  0  0  0
   42.8260   25.2560   31.7740 H   0  0  0  0  0  0  0  0  0  0  0  0
   42.0080   23.9530   32.7090 H   0  0  0  0  0  0  0  0  0  0  0  0
   42.9730   26.9490   33.6340 C   0  0  0  0  0  0  0  0  0  0  0  0
   42.5970   27.9830   33.5640 H   0  0  0  0  0  0  0  0  0  0  0  0
   43.6330   26.7430   32.7870 H   0  0  0  0  0  0  0  0  0  0  0  0
   43.6150   26.7690   34.8580 O   0  0  0  0  0  0  0  0  0  0  0  0
   43.0840   27.1240   35.5910 H   0  0  0  0  0  0  0  0  0  0  0  0
   37.4870   26.2960   33.8950 C   0  0  0  0  0  0  0  0  0  0  0  0
   37.5250   25.1790   33.2830 O   0  0  0  0  0  0  0  0  0  0  0  0
   36.7740   27.4310   33.4000 C   0  0  0  0  0  0  0  0  0  0  0  0
   36.6610   27.5830   32.0360 C   0  0  0  0  0  0  0  0  0  0  0  0
   35.9530   28.7130   31.5560 C   0  0  0  0  0  0  0  0  0  0  0  0
   35.4240   29.5880   32.4780 N   0  0  0  0  0  0  0  0  0  0  0  0
   35.5570   29.4040   33.7830 C   0  0  0  0  0  0  0  0  0  0  0  0
   36.2300   28.3290   34.2560 N   0  0  0  0  0  0  0  0  0  0  0  0
   37.1010   26.8590   31.3620 H   0  0  0  0  0  0  0  0  0  0  0  0
   35.8550   28.8470   30.5040 H   0  0  0  0  0  0  0  0  0  0  0  0
   35.8170   31.1790   35.4580 C   0  0  0  0  0  3  0  0  0  0  0  0
   34.9860   30.3460   34.7390 C   0  0  0  0  0  0  0  0  0  0  0  0
   33.6290   30.4520   34.9660 C   0  0  0  0  0  0  0  0  0  0  0  0
   32.9420   29.8180   34.4220 H   0  0  0  0  0  0  0  0  0  0  0  0
   33.1160   31.3680   35.8890 C   0  0  0  0  0  0  0  0  0  0  0  0
   34.0270   32.1710   36.5730 C   0  0  0  0  0  0  0  0  0  0  0  0
   35.3950   32.1080   36.3850 C   0  0  0  0  0  3  0  0  0  0  0  0
   33.2450   32.9740   37.4140 O   0  0  0  0  0  0  0  0  0  0  0  0
   31.8970   32.9200   36.9990 C   0  0  0  0  0  3  0  0  0  0  0  0
   31.6720   33.7150   36.2410 H   0  0  0  0  0  0  0  0  0  0  0  0
   31.8160   31.6850   36.3140 O   0  0  0  0  0  0  0  0  0  0  0  0
  1 13  1  6  0  0  0
  1 17  1  0  0  0  0
  1  2  1  0  0  0  0
  2  3  1  0  0  0  0
  2 10  1  0  0  0  0
  3  4  1  0  0  0  0
  4  5  2  0  0  0  0
  6  4  1  0  0  0  0
  6 11  1  1  0  0  0
  7  6  1  0  0  0  0
  7  3  1  0  0  0  0
  7 12  1  1  0  0  0
  8  1  1  0  0  0  0
  8  7  1  0  0  0  0
  9  2  1  0  0  0  0
 13 16  1  0  0  0  0
 14 13  1  0  0  0  0
 15 13  1  0  0  0  0
 17 20  1  0  0  0  0
 18 17  1  0  0  0  0
 19 17  1  0  0  0  0
 20 21  1  0  0  0  0
 22  6  1  0  0  0  0
 23 22  2  0  0  0  0
 24 22  1  0  0  0  0
 24 29  1  0  0  0  0
 25 24  2  0  0  0  0
 26 25  1  0  0  0  0
 26 27  2  0  0  0  0
 27 28  1  0  0  0  0
 28 29  2  0  0  0  0
 28 33  1  0  0  0  0
 30 25  1  0  0  0  0
 31 26  1  0  0  0  0
 32 38  1  0  0  0  0
 33 34  1  0  0  0  0
 33 32  2  0  0  0  0
 34 36  2  0  0  0  0
 35 34  1  0  0  0  0
 36 42  1  0  0  0  0
 36 37  1  0  0  0  0
 37 39  1  0  0  0  0
 38 37  2  0  0  0  0
 40 39  1  0  0  0  0
 41 40  1  0  0  0  0
 42 40  1  0  0  0  0
M  END
>  <minimizedAffinity>
-6.08953667

$$$$

 OpenBabel03262522083D

 42 46  0  0  1  0  0  0  0  0999 V2000
   38.1190   23.6520   37.4760 C   0  0  2  0  0  0  0  0  0  0  0  0
   39.3180   23.0170   36.8630 C   0  0  0  0  0  0  0  0  0  0  0  0
   39.8240   23.8710   35.7910 N   0  0  0  0  0  0  0  0  0  0  0  0
   40.6170   24.6910   34.9160 C   0  0  0  0  0  0  0  0  0  0  0  0
   41.8230   24.9540   34.7800 O   0  0  0  0  0  0  0  0  0  0  0  0
   39.4990   25.1810   34.1600 C   0  0  1  0  0  0  0  0  0  0  0  0
   38.7270   24.0960   34.9010 C   0  0  2  0  0  0  0  0  0  0  0  0
   37.4860   24.6840   36.0770 S   0  0  0  0  0  0  0  0  0  0  0  0
   40.1460   22.9710   37.6240 H   0  0  0  0  0  0  0  0  0  0  0  0
   39.1890   21.9900   36.5170 H   0  0  0  0  0  0  0  0  0  0  0  0
   39.4290   24.9240   33.0840 H   0  0  0  0  0  0  0  0  0  0  0  0
   38.4180   23.2250   34.2970 H   0  0  0  0  0  0  0  0  0  0  0  0
   38.3330   24.4220   38.7310 C   0  0  0  0  0  0  0  0  0  0  0  0
   38.1580   25.5050   38.5270 H   0  0  0  0  0  0  0  0  0  0  0  0
   37.5990   24.1470   39.5280 H   0  0  0  0  0  0  0  0  0  0  0  0
   39.3470   24.3490   39.1470 H   0  0  0  0  0  0  0  0  0  0  0  0
   37.0350   22.5660   37.6500 C   0  0  0  0  0  0  0  0  0  0  0  0
   37.3130   21.6710   37.0700 H   0  0  0  0  0  0  0  0  0  0  0  0
   36.0970   22.9730   37.2650 H   0  0  0  0  0  0  0  0  0  0  0  0
   36.9520   22.2380   39.0020 O   0  0  0  0  0  0  0  0  0  0  0  0
   37.7200   21.7160   39.2880 H   0  0  0  0  0  0  0  0  0  0  0  0
   39.0670   26.5750   34.4260 C   0  0  0  0  0  0  0  0  0  0  0  0
   39.7440   27.1390   35.3450 O   0  0  0  0  0  0  0  0  0  0  0  0
   38.0060   27.2290   33.7260 C   0  0  0  0  0  0  0  0  0  0  0  0
   37.8610   26.9730   32.3810 C   0  0  0  0  0  0  0  0  0  0  0  0
   36.8060   27.6280   31.6970 C   0  0  0  0  0  0  0  0  0  0  0  0
   35.9950   28.4780   32.4140 N   0  0  0  0  0  0  0  0  0  0  0  0
   36.1710   28.6960   33.7090 C   0  0  0  0  0  0  0  0  0  0  0  0
   37.1730   28.0780   34.3760 N   0  0  0  0  0  0  0  0  0  0  0  0
   38.5330   26.2940   31.8730 H   0  0  0  0  0  0  0  0  0  0  0  0
   36.6780   27.4420   30.6560 H   0  0  0  0  0  0  0  0  0  0  0  0
   33.9340   29.3830   34.4520 C   0  0  0  0  0  3  0  0  0  0  0  0
   35.2960   29.6010   34.4460 C   0  0  0  0  0  0  0  0  0  0  0  0
   35.7690   30.6880   35.1540 C   0  0  0  0  0  0  0  0  0  0  0  0
   36.8300   30.8950   35.1750 H   0  0  0  0  0  0  0  0  0  0  0  0
   34.9010   31.5350   35.8490 C   0  0  0  0  0  0  0  0  0  0  0  0
   33.5400   31.2410   35.8020 C   0  0  0  0  0  0  0  0  0  0  0  0
   33.0120   30.1680   35.1110 C   0  0  0  0  0  3  0  0  0  0  0  0
   32.9260   32.2380   36.5730 O   0  0  0  0  0  0  0  0  0  0  0  0
   33.8990   32.8970   37.3540 C   0  0  0  0  0  3  0  0  0  0  0  0
   34.0360   32.3920   38.3470 H   0  0  0  0  0  0  0  0  0  0  0  0
   35.0960   32.6840   36.6330 O   0  0  0  0  0  0  0  0  0  0  0  0
  1 17  1  1  0  0  0
  1 13  1  0  0  0  0
  2  1  1  0  0  0  0
  2  9  1  0  0  0  0
  3  2  1  0  0  0  0
  4  3  1  0  0  0  0
  5  4  2  0  0  0  0
  6 11  1  6  0  0  0
  6 22  1  0  0  0  0
  6  7  1  0  0  0  0
  6  4  1  0  0  0  0
  7 12  1  6  0  0  0
  7  3  1  0  0  0  0
  7  8  1  0  0  0  0
  8  1  1  0  0  0  0
 10  2  1  0  0  0  0
 13 16  1  0  0  0  0
 13 15  1  0  0  0  0
 14 13  1  0  0  0  0
 17 20  1  0  0  0  0
 18 17  1  0  0  0  0
 19 17  1  0  0  0  0
 20 21  1  0  0  0  0
 22 23  2  0  0  0  0
 24 29  1  0  0  0  0
 24 22  1  0  0  0  0
 25 24  2  0  0  0  0
 26 25  1  0  0  0  0
 26 27  2  0  0  0  0
 27 28  1  0  0  0  0
 28 29  2  0  0  0  0
 28 33  1  0  0  0  0
 30 25  1  0  0  0  0
 31 26  1  0  0  0  0
 32 38  1  0  0  0  0
 33 32  2  0  0  0  0
 33 34  1  0  0  0  0
 34 35  1  0  0  0  0
 34 36  2  0  0  0  0
 36 42  1  0  0  0  0
 37 36  1  0  0  0  0
 37 39  1  0  0  0  0
 38 37  2  0  0  0  0
 39 40  1  0  0  0  0
 40 41  1  0  0  0  0
 42 40  1  0  0  0  0
M  END
>  <minimizedAffinity>
-5.93836117

$$$$

 OpenBabel03262522083D

 42 46  0  0  1  0  0  0  0  0999 V2000
   34.1700   31.5840   35.5780 C   0  0  2  0  0  0  0  0  0  0  0  0
   33.1890   30.4770   35.7450 C   0  0  0  0  0  0  0  0  0  0  0  0
   32.5710   30.1770   34.4550 N   0  0  0  0  0  0  0  0  0  0  0  0
   32.0760   29.5620   33.2540 C   0  0  0  0  0  0  0  0  0  0  0  0
   31.9230   28.4030   32.8360 O   0  0  0  0  0  0  0  0  0  0  0  0
   31.7740   30.8030   32.5960 C   0  0  1  0  0  0  0  0  0  0  0  0
   32.0280   31.4090   33.9710 C   0  0  2  0  0  0  0  0  0  0  0  0
   33.4890   32.4660   34.1010 S   0  0  0  0  0  0  0  0  0  0  0  0
   33.7330   29.5370   36.0400 H   0  0  0  0  0  0  0  0  0  0  0  0
   32.4300   30.6240   36.5170 H   0  0  0  0  0  0  0  0  0  0  0  0
   30.7190   31.0340   32.3510 H   0  0  0  0  0  0  0  0  0  0  0  0
   31.1380   31.7800   34.5080 H   0  0  0  0  0  0  0  0  0  0  0  0
   35.5990   31.1990   35.4320 C   0  0  0  0  0  0  0  0  0  0  0  0
   35.9370   31.4410   34.3960 H   0  0  0  0  0  0  0  0  0  0  0  0
   36.2690   31.7860   36.1070 H   0  0  0  0  0  0  0  0  0  0  0  0
   35.8050   30.1290   35.5790 H   0  0  0  0  0  0  0  0  0  0  0  0
   33.9630   32.5880   36.7320 C   0  0  0  0  0  0  0  0  0  0  0  0
   32.9360   32.4990   37.1200 H   0  0  0  0  0  0  0  0  0  0  0  0
   34.1150   33.5910   36.3270 H   0  0  0  0  0  0  0  0  0  0  0  0
   34.8710   32.2870   37.7470 O   0  0  0  0  0  0  0  0  0  0  0  0
   34.6180   31.4760   38.2190 H   0  0  0  0  0  0  0  0  0  0  0  0
   32.7000   31.2350   31.5200 C   0  0  0  0  0  0  0  0  0  0  0  0
   32.1320   31.9490   30.6320 O   0  0  0  0  0  0  0  0  0  0  0  0
   34.0880   30.8960   31.4780 C   0  0  0  0  0  0  0  0  0  0  0  0
   34.9880   31.8850   31.1450 C   0  0  0  0  0  0  0  0  0  0  0  0
   36.3610   31.5390   31.1050 C   0  0  0  0  0  0  0  0  0  0  0  0
   36.7130   30.2400   31.3980 N   0  0  0  0  0  0  0  0  0  0  0  0
   35.8140   29.3190   31.7130 C   0  0  0  0  0  0  0  0  0  0  0  0
   34.4990   29.6350   31.7550 N   0  0  0  0  0  0  0  0  0  0  0  0
   34.6470   32.8890   30.9260 H   0  0  0  0  0  0  0  0  0  0  0  0
   37.0710   32.2910   30.8510 H   0  0  0  0  0  0  0  0  0  0  0  0
   36.8740   27.6780   33.1980 C   0  0  0  0  0  3  0  0  0  0  0  0
   36.2130   27.9510   32.0190 C   0  0  0  0  0  0  0  0  0  0  0  0
   35.9590   26.8900   31.1730 C   0  0  0  0  0  0  0  0  0  0  0  0
   35.4420   27.0600   30.2380 H   0  0  0  0  0  0  0  0  0  0  0  0
   36.3560   25.5900   31.4990 C   0  0  0  0  0  0  0  0  0  0  0  0
   37.0190   25.4040   32.7110 C   0  0  0  0  0  0  0  0  0  0  0  0
   37.2990   26.4280   33.5950 C   0  0  0  0  0  3  0  0  0  0  0  0
   37.2910   24.0310   32.7700 O   0  0  0  0  0  0  0  0  0  0  0  0
   36.5080   23.3530   31.8100 C   0  0  0  0  0  3  0  0  0  0  0  0
   35.5170   23.0460   32.2360 H   0  0  0  0  0  0  0  0  0  0  0  0
   36.2340   24.3520   30.8480 O   0  0  0  0  0  0  0  0  0  0  0  0
  1 13  1  6  0  0  0
  1  2  1  0  0  0  0
  1 17  1  0  0  0  0
  2  9  1  0  0  0  0
  2 10  1  0  0  0  0
  3  2  1  0  0  0  0
  4  3  1  0  0  0  0
  5  4  2  0  0  0  0
  6 11  1  6  0  0  0
  6  4  1  0  0  0  0
  6  7  1  0  0  0  0
  7  8  1  0  0  0  0
  7  3  1  0  0  0  0
  7 12  1  1  0  0  0
  8  1  1  0  0  0  0
 13 16  1  0  0  0  0
 13 15  1  0  0  0  0
 14 13  1  0  0  0  0
 17 18  1  0  0  0  0
 17 20  1  0  0  0  0
 19 17  1  0  0  0  0
 20 21  1  0  0  0  0
 22  6  1  0  0  0  0
 23 22  2  0  0  0  0
 24 22  1  0  0  0  0
 24 29  1  0  0  0  0
 25 24  2  0  0  0  0
 26 25  1  0  0  0  0
 26 27  2  0  0  0  0
 27 28  1  0  0  0  0
 28 29  2  0  0  0  0
 28 33  1  0  0  0  0
 30 25  1  0  0  0  0
 31 26  1  0  0  0  0
 32 38  1  0  0  0  0
 33 32  2  0  0  0  0
 34 36  2  0  0  0  0
 34 33  1  0  0  0  0
 35 34  1  0  0  0  0
 36 37  1  0  0  0  0
 37 39  1  0  0  0  0
 37 38  2  0  0  0  0
 40 41  1  0  0  0  0
 40 39  1  0  0  0  0
 42 36  1  0  0  0  0
 42 40  1  0  0  0  0
M  END
>  <minimizedAffinity>
-5.88398886

$$$$

 OpenBabel03262522083D

 42 46  0  0  1  0  0  0  0  0999 V2000
   31.5700   30.3950   35.2320 C   0  0  2  0  0  0  0  0  0  0  0  0
   32.0740   31.7620   35.5410 C   0  0  0  0  0  0  0  0  0  0  0  0
   33.2150   32.0640   34.6790 N   0  0  0  0  0  0  0  0  0  0  0  0
   34.1470   32.6380   33.7470 C   0  0  0  0  0  0  0  0  0  0  0  0
   34.2730   33.7230   33.1570 O   0  0  0  0  0  0  0  0  0  0  0  0
   34.9860   31.4740   33.6800 C   0  0  1  0  0  0  0  0  0  0  0  0
   34.1580   31.0050   34.8700 C   0  0  2  0  0  0  0  0  0  0  0  0
   33.0900   29.5780   34.5650 S   0  0  0  0  0  0  0  0  0  0  0  0
   31.2880   32.5200   35.2710 H   0  0  0  0  0  0  0  0  0  0  0  0
   32.3130   31.9560   36.5890 H   0  0  0  0  0  0  0  0  0  0  0  0
   36.0300   31.5470   34.0440 H   0  0  0  0  0  0  0  0  0  0  0  0
   34.6750   30.9980   35.8460 H   0  0  0  0  0  0  0  0  0  0  0  0
   30.3980   30.3020   34.3200 C   0  0  0  0  0  0  0  0  0  0  0  0
   30.7210   29.8340   33.3590 H   0  0  0  0  0  0  0  0  0  0  0  0
   29.6000   29.6310   34.7230 H   0  0  0  0  0  0  0  0  0  0  0  0
   29.9450   31.2670   34.0540 H   0  0  0  0  0  0  0  0  0  0  0  0
   31.3160   29.6630   36.5670 C   0  0  0  0  0  0  0  0  0  0  0  0
   31.7380   28.6470   36.5170 H   0  0  0  0  0  0  0  0  0  0  0  0
   30.2330   29.6030   36.7080 H   0  0  0  0  0  0  0  0  0  0  0  0
   31.9400   30.3770   37.5890 O   0  0  0  0  0  0  0  0  0  0  0  0
   32.9060   30.2730   37.5540 H   0  0  0  0  0  0  0  0  0  0  0  0
   34.8830   30.6420   32.4550 C   0  0  0  0  0  0  0  0  0  0  0  0
   33.9040   30.9720   31.7110 O   0  0  0  0  0  0  0  0  0  0  0  0
   35.7860   29.5830   32.1320 C   0  0  0  0  0  0  0  0  0  0  0  0
   36.1800   29.4440   30.8190 C   0  0  0  0  0  0  0  0  0  0  0  0
   37.0750   28.3900   30.5090 C   0  0  0  0  0  0  0  0  0  0  0  0
   37.4940   27.5700   31.5330 N   0  0  0  0  0  0  0  0  0  0  0  0
   37.0890   27.7400   32.7830 C   0  0  0  0  0  0  0  0  0  0  0  0
   36.2350   28.7420   33.0940 N   0  0  0  0  0  0  0  0  0  0  0  0
   35.8140   30.1220   30.0590 H   0  0  0  0  0  0  0  0  0  0  0  0
   37.3910   28.2680   29.4990 H   0  0  0  0  0  0  0  0  0  0  0  0
   37.9190   27.3900   35.0660 C   0  0  0  0  0  3  0  0  0  0  0  0
   37.5480   26.8570   33.8490 C   0  0  0  0  0  0  0  0  0  0  0  0
   37.6320   25.4870   33.7030 C   0  0  0  0  0  0  0  0  0  0  0  0
   37.3500   25.0290   32.7640 H   0  0  0  0  0  0  0  0  0  0  0  0
   38.0760   24.6710   34.7470 C   0  0  0  0  0  0  0  0  0  0  0  0
   38.4310   25.2920   35.9430 C   0  0  0  0  0  0  0  0  0  0  0  0
   38.3670   26.6570   36.1450 C   0  0  0  0  0  3  0  0  0  0  0  0
   38.8300   24.2490   36.7900 O   0  0  0  0  0  0  0  0  0  0  0  0
   38.3920   23.0160   36.2600 C   0  0  0  0  0  3  0  0  0  0  0  0
   37.3660   22.7550   36.6300 H   0  0  0  0  0  0  0  0  0  0  0  0
   38.2590   23.2850   34.8780 O   0  0  0  0  0  0  0  0  0  0  0  0
  1 13  1  6  0  0  0
  1  2  1  0  0  0  0
  1 17  1  0  0  0  0
  2 10  1  0  0  0  0
  3  7  1  0  0  0  0
  3  2  1  0  0  0  0
  4  3  1  0  0  0  0
  5  4  2  0  0  0  0
  6  4  1  0  0  0  0
  6 11  1  1  0  0  0
  6  7  1  0  0  0  0
  7 12  1  1  0  0  0
  8  7  1  0  0  0  0
  8  1  1  0  0  0  0
  9  2  1  0  0  0  0
 13 15  1  0  0  0  0
 14 13  1  0  0  0  0
 16 13  1  0  0  0  0
 17 19  1  0  0  0  0
 17 20  1  0  0  0  0
 18 17  1  0  0  0  0
 21 20  1  0  0  0  0
 22  6  1  0  0  0  0
 23 22  2  0  0  0  0
 24 22  1  0  0  0  0
 24 29  1  0  0  0  0
 25 24  2  0  0  0  0
 26 25  1  0  0  0  0
 26 27  2  0  0  0  0
 27 28  1  0  0  0  0
 28 29  2  0  0  0  0
 28 33  1  0  0  0  0
 30 25  1  0  0  0  0
 31 26  1  0  0  0  0
 32 38  1  0  0  0  0
 33 32  2  0  0  0  0
 34 33  1  0  0  0  0
 34 36  2  0  0  0  0
 35 34  1  0  0  0  0
 36 42  1  0  0  0  0
 36 37  1  0  0  0  0
 37 38  2  0  0  0  0
 37 39  1  0  0  0  0
 40 41  1  0  0  0  0
 40 39  1  0  0  0  0
 42 40  1  0  0  0  0
M  END
>  <minimizedAffinity>
-5.85267925

$$$$

 OpenBabel03262522083D

 42 46  0  0  1  0  0  0  0  0999 V2000
   36.9000   25.8670   31.6070 C   0  0  2  0  0  0  0  0  0  0  0  0
   38.3120   26.0410   31.1680 C   0  0  0  0  0  0  0  0  0  0  0  0
   39.1800   26.1020   32.3410 N   0  0  0  0  0  0  0  0  0  0  0  0
   40.1990   25.9020   33.3360 C   0  0  0  0  0  0  0  0  0  0  0  0
   41.2660   25.2720   33.4140 O   0  0  0  0  0  0  0  0  0  0  0  0
   39.5640   26.7230   34.3290 C   0  0  1  0  0  0  0  0  0  0  0  0
   38.6640   27.1450   33.1730 C   0  0  2  0  0  0  0  0  0  0  0  0
   36.9380   26.6200   33.2960 S   0  0  0  0  0  0  0  0  0  0  0  0
   38.6420   25.1280   30.6000 H   0  0  0  0  0  0  0  0  0  0  0  0
   38.5020   26.8810   30.4970 H   0  0  0  0  0  0  0  0  0  0  0  0
   40.0780   27.6450   34.6660 H   0  0  0  0  0  0  0  0  0  0  0  0
   38.8110   28.1720   32.7960 H   0  0  0  0  0  0  0  0  0  0  0  0
   36.3560   24.4820   31.5870 C   0  0  0  0  0  0  0  0  0  0  0  0
   36.1760   24.1470   32.6370 H   0  0  0  0  0  0  0  0  0  0  0  0
   35.3610   24.4240   31.0820 H   0  0  0  0  0  0  0  0  0  0  0  0
   37.0220   23.7330   31.1360 H   0  0  0  0  0  0  0  0  0  0  0  0
   36.0190   26.8380   30.7920 C   0  0  0  0  0  0  0  0  0  0  0  0
   35.5400   27.5610   31.4720 H   0  0  0  0  0  0  0  0  0  0  0  0
   35.2510   26.2440   30.2900 H   0  0  0  0  0  0  0  0  0  0  0  0
   36.8330   27.5190   29.8870 O   0  0  0  0  0  0  0  0  0  0  0  0
   37.3890   28.1770   30.3370 H   0  0  0  0  0  0  0  0  0  0  0  0
   38.8900   26.0230   35.4490 C   0  0  0  0  0  0  0  0  0  0  0  0
   38.2980   26.8180   36.2480 O   0  0  0  0  0  0  0  0  0  0  0  0
   38.8910   24.6040   35.6210 C   0  0  0  0  0  0  0  0  0  0  0  0
   39.5520   24.0830   36.7110 C   0  0  0  0  0  0  0  0  0  0  0  0
   39.5480   22.6750   36.8710 C   0  0  0  0  0  0  0  0  0  0  0  0
   38.8880   21.9150   35.9310 N   0  0  0  0  0  0  0  0  0  0  0  0
   38.2650   22.4590   34.8960 C   0  0  0  0  0  0  0  0  0  0  0  0
   38.2600   23.8020   34.7300 N   0  0  0  0  0  0  0  0  0  0  0  0
   40.0520   24.7340   37.4150 H   0  0  0  0  0  0  0  0  0  0  0  0
   40.0530   22.2540   37.7090 H   0  0  0  0  0  0  0  0  0  0  0  0
   36.3080   21.1540   34.1910 C   0  0  0  0  0  3  0  0  0  0  0  0
   37.5730   21.6310   33.9140 C   0  0  0  0  0  0  0  0  0  0  0  0
   38.1270   21.2940   32.6960 C   0  0  0  0  0  0  0  0  0  0  0  0
   39.1170   21.6470   32.4400 H   0  0  0  0  0  0  0  0  0  0  0  0
   37.4340   20.4980   31.7790 C   0  0  0  0  0  0  0  0  0  0  0  0
   36.1620   20.0590   32.1390 C   0  0  0  0  0  0  0  0  0  0  0  0
   35.5590   20.3670   33.3430 C   0  0  0  0  0  3  0  0  0  0  0  0
   35.7170   19.2980   31.0500 O   0  0  0  0  0  0  0  0  0  0  0  0
   36.5300   19.5630   29.9260 C   0  0  0  0  0  3  0  0  0  0  0  0
   36.1300   20.4220   29.3270 H   0  0  0  0  0  0  0  0  0  0  0  0
   37.7430   20.0100   30.4990 O   0  0  0  0  0  0  0  0  0  0  0  0
  1 17  1  6  0  0  0
  1  8  1  0  0  0  0
  2  1  1  0  0  0  0
  2  3  1  0  0  0  0
  3  7  1  0  0  0  0
  3  4  1  0  0  0  0
  4  5  2  0  0  0  0
  4  6  1  0  0  0  0
  6 11  1  1  0  0  0
  6 22  1  0  0  0  0
  7 12  1  6  0  0  0
  7  8  1  0  0  0  0
  7  6  1  0  0  0  0
  9  2  1  0  0  0  0
 10  2  1  0  0  0  0
 13  1  1  0  0  0  0
 13 14  1  0  0  0  0
 15 13  1  0  0  0  0
 16 13  1  0  0  0  0
 17 18  1  0  0  0  0
 19 17  1  0  0  0  0
 20 21  1  0  0  0  0
 20 17  1  0  0  0  0
 22 24  1  0  0  0  0
 22 23  2  0  0  0  0
 24 25  1  0  0  0  0
 25 26  2  0  0  0  0
 25 30  1  0  0  0  0
 26 31  1  0  0  0  0
 27 26  1  0  0  0  0
 28 27  2  0  0  0  0
 29 28  1  0  0  0  0
 29 24  2  0  0  0  0
 33 32  1  0  0  0  0
 33 28  1  0  0  0  0
 34 33  2  0  0  0  0
 35 34  1  0  0  0  0
 36 37  2  0  0  0  0
 36 34  1  0  0  0  0
 37 38  1  0  0  0  0
 38 32  2  0  0  0  0
 39 37  1  0  0  0  0
 40 42  1  0  0  0  0
 40 39  1  0  0  0  0
 41 40  1  0  0  0  0
 42 36  1  0  0  0  0
M  END
>  <minimizedAffinity>
-5.79357481

$$$$

 OpenBabel03262522083D

 42 46  0  0  1  0  0  0  0  0999 V2000
   41.8390   22.1350   36.6350 C   0  0  2  0  0  0  0  0  0  0  0  0
   42.7890   23.2740   36.5090 C   0  0  0  0  0  0  0  0  0  0  0  0
   42.3870   24.1170   35.3840 N   0  0  0  0  0  0  0  0  0  0  0  0
   41.9950   25.1950   34.5180 C   0  0  0  0  0  0  0  0  0  0  0  0
   41.9530   26.4340   34.5890 O   0  0  0  0  0  0  0  0  0  0  0  0
   41.6190   24.3440   33.4240 C   0  0  1  0  0  0  0  0  0  0  0  0
   42.3060   23.2570   34.2440 C   0  0  2  0  0  0  0  0  0  0  0  0
   41.2190   21.9700   34.9000 S   0  0  0  0  0  0  0  0  0  0  0  0
   42.7060   23.9320   37.4180 H   0  0  0  0  0  0  0  0  0  0  0  0
   43.8450   23.0090   36.4410 H   0  0  0  0  0  0  0  0  0  0  0  0
   42.1860   24.4130   32.4750 H   0  0  0  0  0  0  0  0  0  0  0  0
   43.2710   22.8930   33.8510 H   0  0  0  0  0  0  0  0  0  0  0  0
   40.7530   22.2730   37.6430 C   0  0  0  0  0  0  0  0  0  0  0  0
   39.7730   22.3520   37.1130 H   0  0  0  0  0  0  0  0  0  0  0  0
   40.6640   21.3730   38.2980 H   0  0  0  0  0  0  0  0  0  0  0  0
   40.8280   23.1650   38.2800 H   0  0  0  0  0  0  0  0  0  0  0  0
   42.6600   20.8460   36.8550 C   0  0  0  0  0  0  0  0  0  0  0  0
   43.7350   21.0900   36.8610 H   0  0  0  0  0  0  0  0  0  0  0  0
   42.4430   20.1720   36.0230 H   0  0  0  0  0  0  0  0  0  0  0  0
   42.3000   20.2970   38.0850 O   0  0  0  0  0  0  0  0  0  0  0  0
   42.6570   20.8190   38.8240 H   0  0  0  0  0  0  0  0  0  0  0  0
   40.1670   24.1530   33.1890 C   0  0  0  0  0  0  0  0  0  0  0  0
   39.9190   23.3120   32.2660 O   0  0  0  0  0  0  0  0  0  0  0  0
   39.1440   24.8310   33.9200 C   0  0  0  0  0  0  0  0  0  0  0  0
   38.7850   24.3310   35.1530 C   0  0  0  0  0  0  0  0  0  0  0  0
   37.7690   25.0110   35.8690 C   0  0  0  0  0  0  0  0  0  0  0  0
   37.2020   26.1250   35.2930 N   0  0  0  0  0  0  0  0  0  0  0  0
   37.5780   26.5730   34.1030 C   0  0  0  0  0  0  0  0  0  0  0  0
   38.5470   25.9350   33.4080 N   0  0  0  0  0  0  0  0  0  0  0  0
   39.2700   23.4490   35.5510 H   0  0  0  0  0  0  0  0  0  0  0  0
   37.4790   24.6380   36.8240 H   0  0  0  0  0  0  0  0  0  0  0  0
   36.1920   28.5890   34.3020 C   0  0  0  0  0  3  0  0  0  0  0  0
   36.9610   27.7570   33.5160 C   0  0  0  0  0  0  0  0  0  0  0  0
   37.1100   28.0970   32.1860 C   0  0  0  0  0  0  0  0  0  0  0  0
   37.7050   27.4710   31.5350 H   0  0  0  0  0  0  0  0  0  0  0  0
   36.5040   29.2400   31.6570 C   0  0  0  0  0  0  0  0  0  0  0  0
   35.7440   30.0250   32.5210 C   0  0  0  0  0  0  0  0  0  0  0  0
   35.5620   29.7330   33.8600 C   0  0  0  0  0  3  0  0  0  0  0  0
   35.2690   31.0810   31.7320 O   0  0  0  0  0  0  0  0  0  0  0  0
   36.0030   31.1370   30.5270 C   0  0  0  0  0  3  0  0  0  0  0  0
   36.9080   31.7910   30.6320 H   0  0  0  0  0  0  0  0  0  0  0  0
   36.4840   29.8150   30.3760 O   0  0  0  0  0  0  0  0  0  0  0  0
  1 17  1  1  0  0  0
  1 13  1  0  0  0  0
  2  1  1  0  0  0  0
  2  9  1  0  0  0  0
  3  2  1  0  0  0  0
  4  5  2  0  0  0  0
  4  3  1  0  0  0  0
  6 11  1  6  0  0  0
  6  7  1  0  0  0  0
  6  4  1  0  0  0  0
  7 12  1  6  0  0  0
  7  8  1  0  0  0  0
  7  3  1  0  0  0  0
  8  1  1  0  0  0  0
 10  2  1  0  0  0  0
 13 16  1  0  0  0  0
 13 15  1  0  0  0  0
 14 13  1  0  0  0  0
 17 18  1  0  0  0  0
 17 20  1  0  0  0  0
 19 17  1  0  0  0  0
 20 21  1  0  0  0  0
 22  6  1  0  0  0  0
 22 24  1  0  0  0  0
 23 22  2  0  0  0  0
 24 25  1  0  0  0  0
 25 30  1  0  0  0  0
 25 26  2  0  0  0  0
 26 31  1  0  0  0  0
 27 26  1  0  0  0  0
 28 27  2  0  0  0  0
 29 24  2  0  0  0  0
 29 28  1  0  0  0  0
 33 28  1  0  0  0  0
 33 32  2  0  0  0  0
 34 33  1  0  0  0  0
 35 34  1  0  0  0  0
 36 34  2  0  0  0  0
 36 37  1  0  0  0  0
 37 38  2  0  0  0  0
 38 32  1  0  0  0  0
 39 37  1  0  0  0  0
 40 41  1  0  0  0  0
 40 39  1  0  0  0  0
 42 40  1  0  0  0  0
 42 36  1  0  0  0  0
M  END
>  <minimizedAffinity>
-5.75644207

$$$$

 OpenBabel03262522083D

 42 46  0  0  1  0  0  0  0  0999 V2000
   38.2480   23.6930   37.2230 C   0  0  2  0  0  0  0  0  0  0  0  0
   39.5350   22.9560   37.0820 C   0  0  0  0  0  0  0  0  0  0  0  0
   40.3490   23.5970   36.0510 N   0  0  0  0  0  0  0  0  0  0  0  0
   41.3860   24.2410   35.2920 C   0  0  0  0  0  0  0  0  0  0  0  0
   42.5960   24.4750   35.4420 O   0  0  0  0  0  0  0  0  0  0  0  0
   40.5350   24.5800   34.1860 C   0  0  1  0  0  0  0  0  0  0  0  0
   39.5410   23.6510   34.8720 C   0  0  2  0  0  0  0  0  0  0  0  0
   38.0630   24.4460   35.5430 S   0  0  0  0  0  0  0  0  0  0  0  0
   40.1280   23.0540   38.0330 H   0  0  0  0  0  0  0  0  0  0  0  0
   39.4520   21.8820   36.9030 H   0  0  0  0  0  0  0  0  0  0  0  0
   40.7410   24.1280   33.1950 H   0  0  0  0  0  0  0  0  0  0  0  0
   39.3610   22.6820   34.3740 H   0  0  0  0  0  0  0  0  0  0  0  0
   38.1590   24.6830   38.3300 C   0  0  0  0  0  0  0  0  0  0  0  0
   38.0980   25.7090   37.8950 H   0  0  0  0  0  0  0  0  0  0  0  0
   37.2270   24.5610   38.9340 H   0  0  0  0  0  0  0  0  0  0  0  0
   39.0210   24.6890   39.0110 H   0  0  0  0  0  0  0  0  0  0  0  0
   37.1060   22.6570   37.2890 C   0  0  0  0  0  0  0  0  0  0  0  0
   37.3800   21.7670   36.7000 H   0  0  0  0  0  0  0  0  0  0  0  0
   36.2150   23.1210   36.8570 H   0  0  0  0  0  0  0  0  0  0  0  0
   36.9160   22.2930   38.6210 O   0  0  0  0  0  0  0  0  0  0  0  0
   37.6380   21.7250   38.9390 H   0  0  0  0  0  0  0  0  0  0  0  0
   40.1160   25.9990   34.0700 C   0  0  0  0  0  0  0  0  0  0  0  0
   40.5510   26.7240   35.0220 O   0  0  0  0  0  0  0  0  0  0  0  0
   39.3140   26.5110   33.0040 C   0  0  0  0  0  0  0  0  0  0  0  0
   39.6440   26.1550   31.7150 C   0  0  0  0  0  0  0  0  0  0  0  0
   38.8420   26.6680   30.6650 C   0  0  0  0  0  0  0  0  0  0  0  0
   37.7870   27.4900   30.9950 N   0  0  0  0  0  0  0  0  0  0  0  0
   37.5060   27.8070   32.2500 C   0  0  0  0  0  0  0  0  0  0  0  0
   38.2620   27.3240   33.2630 N   0  0  0  0  0  0  0  0  0  0  0  0
   40.4870   25.5040   31.5210 H   0  0  0  0  0  0  0  0  0  0  0  0
   39.0820   26.4040   29.6620 H   0  0  0  0  0  0  0  0  0  0  0  0
   35.9950   28.8390   33.8860 C   0  0  0  0  0  3  0  0  0  0  0  0
   36.3820   28.6790   32.5720 C   0  0  0  0  0  0  0  0  0  0  0  0
   35.6710   29.3690   31.6110 C   0  0  0  0  0  0  0  0  0  0  0  0
   35.9420   29.2710   30.5680 H   0  0  0  0  0  0  0  0  0  0  0  0
   34.5990   30.1970   31.9560 C   0  0  0  0  0  0  0  0  0  0  0  0
   34.2750   30.3010   33.3070 C   0  0  0  0  0  0  0  0  0  0  0  0
   34.9520   29.6350   34.3100 C   0  0  0  0  0  3  0  0  0  0  0  0
   33.1840   31.1800   33.3540 O   0  0  0  0  0  0  0  0  0  0  0  0
   33.0770   31.8650   32.1240 C   0  0  0  0  0  3  0  0  0  0  0  0
   33.6780   32.8130   32.1320 H   0  0  0  0  0  0  0  0  0  0  0  0
   33.7190   30.9970   31.2100 O   0  0  0  0  0  0  0  0  0  0  0  0
  1 17  1  1  0  0  0
  1 13  1  0  0  0  0
  2  1  1  0  0  0  0
  2  9  1  0  0  0  0
  3  2  1  0  0  0  0
  4  5  2  0  0  0  0
  4  3  1  0  0  0  0
  6 11  1  6  0  0  0
  6  7  1  0  0  0  0
  6  4  1  0  0  0  0
  7 12  1  6  0  0  0
  7  8  1  0  0  0  0
  7  3  1  0  0  0  0
  8  1  1  0  0  0  0
 10  2  1  0  0  0  0
 13 15  1  0  0  0  0
 13 16  1  0  0  0  0
 14 13  1  0  0  0  0
 17 20  1  0  0  0  0
 18 17  1  0  0  0  0
 19 17  1  0  0  0  0
 20 21  1  0  0  0  0
 22  6  1  0  0  0  0
 22 23  2  0  0  0  0
 24 29  1  0  0  0  0
 24 22  1  0  0  0  0
 25 24  2  0  0  0  0
 26 27  2  0  0  0  0
 26 25  1  0  0  0  0
 27 28  1  0  0  0  0
 28 33  1  0  0  0  0
 28 29  2  0  0  0  0
 30 25  1  0  0  0  0
 31 26  1  0  0  0  0
 32 38  1  0  0  0  0
 33 32  2  0  0  0  0
 34 36  2  0  0  0  0
 34 33  1  0  0  0  0
 35 34  1  0  0  0  0
 36 37  1  0  0  0  0
 37 39  1  0  0  0  0
 37 38  2  0  0  0  0
 40 41  1  0  0  0  0
 40 39  1  0  0  0  0
 42 36  1  0  0  0  0
 42 40  1  0  0  0  0
M  END
>  <minimizedAffinity>
-5.75551844

$$$$
