
 OpenBabel03272509083D

 42 46  0  0  0  0  0  0  0  0999 V2000
   33.1070   28.2280   47.7290 C   0  0  0  0  0  0  0  0  0  0  0  0
   32.4510   28.9210   47.2100 H   0  0  0  0  0  0  0  0  0  0  0  0
   32.5070   27.7790   48.5500 H   0  0  0  0  0  0  0  0  0  0  0  0
   33.5060   27.0840   46.8640 C   0  0  0  0  0  0  0  0  0  0  0  0
   33.5290   25.7500   47.2630 C   0  0  0  0  0  0  0  0  0  0  0  0
   33.9020   24.7570   46.3980 C   0  0  0  0  0  0  0  0  0  0  0  0
   34.2690   25.0460   45.1020 C   0  0  0  0  0  0  0  0  0  0  0  0
   34.2470   26.3590   44.7020 C   0  0  0  0  0  0  0  0  0  0  0  0
   33.8710   27.3800   45.5660 C   0  0  0  0  0  0  0  0  0  0  0  0
   33.2240   25.6100   48.3090 H   0  0  0  0  0  0  0  0  0  0  0  0
   33.8610   23.7940   46.8740 H   0  0  0  0  0  0  0  0  0  0  0  0
   34.5430   24.1890   44.5080 H   0  0  0  0  0  0  0  0  0  0  0  0
   34.5570   26.4520   43.6600 H   0  0  0  0  0  0  0  0  0  0  0  0
   33.0120   29.4940   44.3500 C   0  0  0  0  0  3  0  0  0  0  0  0
   33.9700   28.6590   44.8720 C   0  0  0  0  0  0  0  0  0  0  0  0
   35.2850   29.1070   44.6730 C   0  0  0  0  0  0  0  0  0  0  0  0
   36.1460   28.5360   45.0390 H   0  0  0  0  0  0  0  0  0  0  0  0
   35.6320   30.2700   44.0190 C   0  0  0  0  0  0  0  0  0  0  0  0
   34.6290   31.0690   43.5160 C   0  0  0  0  0  0  0  0  0  0  0  0
   33.3390   30.6540   43.6970 C   0  0  0  0  0  3  0  0  0  0  0  0
   35.2220   32.1670   42.9090 O   0  0  0  0  0  0  0  0  0  0  0  0
   36.5280   32.2790   43.4440 C   0  0  0  0  0  3  0  0  0  0  0  0
   36.4380   32.8660   44.3790 H   0  0  0  0  0  0  0  0  0  0  0  0
   36.8270   30.9000   43.7090 O   0  0  0  0  0  0  0  0  0  0  0  0
   34.9770   28.4510   49.3950 C   0  0  0  0  0  3  0  0  0  0  0  0
   34.2460   28.8950   48.4010 C   0  0  0  0  0  3  0  0  0  0  0  0
   37.3860   30.1500   51.5410 C   0  0  0  0  0  0  0  0  0  0  0  0
   38.1060   30.9260   50.6120 C   0  0  0  0  0  0  0  0  0  0  0  0
   37.7310   30.8390   49.2490 C   0  0  0  0  0  0  0  0  0  0  0  0
   36.6970   30.0110   48.9160 N   0  0  0  0  0  0  0  0  0  0  0  0
   36.0500   29.2940   49.8750 C   0  0  0  0  0  0  0  0  0  0  0  0
   36.3860   29.3610   51.1600 N   0  0  0  0  0  0  0  0  0  0  0  0
   37.7100   30.2480   52.5840 H   0  0  0  0  0  0  0  0  0  0  0  0
   38.9310   31.5860   50.8730 H   0  0  0  0  0  0  0  0  0  0  0  0
   38.3970   31.6070   48.1970 C   0  0  0  0  0  0  0  0  0  0  0  0
   38.6020   31.1040   46.9320 C   0  0  0  0  0  0  0  0  0  0  0  0
   39.2500   32.0970   46.1900 C   0  0  0  0  0  0  0  0  0  0  0  0
   39.4060   33.1460   47.0310 N   0  0  0  0  0  0  0  0  0  0  0  0
   38.9020   32.8640   48.2310 N   0  0  0  0  0  0  0  0  0  0  0  0
   38.3250   30.1160   46.5380 H   0  0  0  0  0  0  0  0  0  0  0  0
   39.5400   31.9860   45.1550 H   0  0  0  0  0  0  0  0  0  0  0  0
   39.8780   34.0160   46.6750 H   0  0  0  0  0  0  0  0  0  0  0  0
  1 26  1  0  0  0  0
  1  3  1  0  0  0  0
  2  1  1  0  0  0  0
  4  5  1  0  0  0  0
  4  1  1  0  0  0  0
  5 10  1  0  0  0  0
  6 11  1  0  0  0  0
  6  5  2  0  0  0  0
  7  6  1  0  0  0  0
  8  7  2  0  0  0  0
  8  9  1  0  0  0  0
  9  4  2  0  0  0  0
 12  7  1  0  0  0  0
 13  8  1  0  0  0  0
 14 15  1  0  0  0  0
 15  9  1  0  0  0  0
 16 15  2  0  0  0  0
 16 17  1  0  0  0  0
 18 16  1  0  0  0  0
 19 20  1  0  0  0  0
 19 18  2  0  0  0  0
 20 14  2  0  0  0  0
 21 22  1  0  0  0  0
 21 19  1  0  0  0  0
 22 24  1  0  0  0  0
 22 23  1  0  0  0  0
 24 18  1  0  0  0  0
 25 31  1  0  0  0  0
 26 25  2  0  0  0  0
 27 33  1  0  0  0  0
 28 34  1  0  0  0  0
 28 27  2  0  0  0  0
 29 28  1  0  0  0  0
 30 29  2  0  0  0  0
 30 31  1  0  0  0  0
 31 32  2  0  0  0  0
 32 27  1  0  0  0  0
 35 39  2  0  0  0  0
 35 29  1  0  0  0  0
 36 35  1  0  0  0  0
 37 36  2  0  0  0  0
 37 38  1  0  0  0  0
 38 39  1  0  0  0  0
 40 36  1  0  0  0  0
 41 37  1  0  0  0  0
 42 38  1  0  0  0  0
M  END
>  <minimizedAffinity>
-6.61963177

>  <minimizedRMSD>
1.00944972

$$$$
