
 OpenBabel03272510173D

 30 33  0  0  0  0  0  0  0  0999 V2000
   37.5000   29.2370   50.9040 Br  0  0  0  0  0  0  0  0  0  0  0  0
   36.0600   29.2930   49.6440 C   0  0  0  0  0  0  0  0  0  0  0  0
   36.0190   30.2690   48.6590 C   0  0  0  0  0  0  0  0  0  0  0  0
   34.9520   30.2420   47.7930 C   0  0  0  0  0  0  0  0  0  0  0  0
   33.9290   29.3070   47.8480 C   0  0  0  0  0  0  0  0  0  0  0  0
   34.0110   28.3610   48.8390 C   0  0  0  0  0  0  0  0  0  0  0  0
   35.0680   28.3580   49.7270 C   0  0  0  0  0  0  0  0  0  0  0  0
   34.9130   31.0020   47.0170 H   0  0  0  0  0  0  0  0  0  0  0  0
   33.2230   27.6130   48.9090 H   0  0  0  0  0  0  0  0  0  0  0  0
   35.0940   27.5840   50.5040 H   0  0  0  0  0  0  0  0  0  0  0  0
   32.7350   30.4400   46.0830 C   0  0  0  0  0  3  0  0  0  0  0  0
   32.8300   29.3350   46.9010 C   0  0  0  0  0  0  0  0  0  0  0  0
   31.8950   28.3260   46.7850 C   0  0  0  0  0  0  0  0  0  0  0  0
   31.9610   27.4670   47.4150 H   0  0  0  0  0  0  0  0  0  0  0  0
   30.8880   28.4440   45.8560 C   0  0  0  0  0  0  0  0  0  0  0  0
   30.7960   29.5640   45.0300 C   0  0  0  0  0  0  0  0  0  0  0  0
   31.7260   30.5970   45.1270 C   0  0  0  0  0  3  0  0  0  0  0  0
   29.6980   29.4750   44.1630 O   0  0  0  0  0  0  0  0  0  0  0  0
   29.3780   28.0760   44.1980 C   0  0  0  0  0  3  0  0  0  0  0  0
   28.3140   27.9130   44.0270 H   0  0  0  0  0  0  0  0  0  0  0  0
   29.8020   27.6390   45.4750 O   0  0  0  0  0  0  0  0  0  0  0  0
   38.0310   33.2120   49.4160 C   0  0  0  0  0  0  0  0  0  0  0  0
   39.0400   33.1990   48.4270 C   0  0  0  0  0  0  0  0  0  0  0  0
   39.0110   32.1620   47.5010 C   0  0  0  0  0  0  0  0  0  0  0  0
   38.0240   31.2080   47.5790 N   0  0  0  0  0  0  0  0  0  0  0  0
   37.0740   31.2740   48.5600 C   0  0  0  0  0  0  0  0  0  0  0  0
   37.0870   32.2690   49.4640 N   0  0  0  0  0  0  0  0  0  0  0  0
   38.0930   34.0360   50.1150 H   0  0  0  0  0  0  0  0  0  0  0  0
   39.8220   33.9430   48.3540 H   0  0  0  0  0  0  0  0  0  0  0  0
   39.7270   32.0450   46.6990 H   0  0  0  0  0  0  0  0  0  0  0  0
  2  7  1  0  0  0  0
  2  1  1  0  0  0  0
  3  2  2  0  0  0  0
  4  5  2  0  0  0  0
  4  3  1  0  0  0  0
  5  6  1  0  0  0  0
  6  9  1  0  0  0  0
  6  7  2  0  0  0  0
  7 10  1  0  0  0  0
  8  4  1  0  0  0  0
 11 12  1  0  0  0  0
 12  5  1  0  0  0  0
 13 12  2  0  0  0  0
 13 14  1  0  0  0  0
 15 13  1  0  0  0  0
 16 17  1  0  0  0  0
 16 15  2  0  0  0  0
 17 11  2  0  0  0  0
 18 19  1  0  0  0  0
 18 16  1  0  0  0  0
 19 21  1  0  0  0  0
 20 19  1  0  0  0  0
 21 15  1  0  0  0  0
 22 27  1  0  0  0  0
 22 28  1  0  0  0  0
 23 22  2  0  0  0  0
 24 25  2  0  0  0  0
 24 23  1  0  0  0  0
 25 26  1  0  0  0  0
 26  3  1  0  0  0  0
 26 27  2  0  0  0  0
 29 23  1  0  0  0  0
 30 24  1  0  0  0  0
M  END
>  <minimizedAffinity>
-6.12518454

>  <minimizedRMSD>
0.69948864

$$$$
