
 OpenBabel03272507123D

 42 47  0  0  0  0  0  0  0  0999 V2000
   35.8810   29.1000   49.8460 C   0  0  0  0  0  0  0  0  0  0  0  0
   34.8470   29.6080   50.5810 C   0  0  0  0  0  0  0  0  0  0  0  0
   33.6760   29.0460   50.0630 C   0  0  0  0  0  0  0  0  0  0  0  0
   34.0850   28.2070   49.0150 C   0  0  0  0  0  0  0  0  0  0  0  0
   35.3780   28.2920   48.9520 O   0  0  0  0  0  0  0  0  0  0  0  0
   34.8960   30.3170   51.4150 H   0  0  0  0  0  0  0  0  0  0  0  0
   32.7060   29.2790   50.4610 H   0  0  0  0  0  0  0  0  0  0  0  0
   33.5250   26.5220   47.2780 C   0  0  0  0  0  0  0  0  0  0  0  0
   33.1310   27.4450   48.2330 C   0  0  0  0  0  0  0  0  0  0  0  0
   31.8010   27.6750   48.4780 C   0  0  0  0  0  0  0  0  0  0  0  0
   30.8520   26.9660   47.7530 C   0  0  0  0  0  0  0  0  0  0  0  0
   29.5120   26.9870   47.7840 N   0  0  0  0  0  0  0  0  0  0  0  0
   29.0800   26.1070   46.8790 N   0  0  0  0  0  0  0  0  0  0  0  0
   30.1370   25.5310   46.2790 C   0  0  0  0  0  0  0  0  0  0  0  0
   31.3020   26.0580   46.8130 C   0  0  0  0  0  0  0  0  0  0  0  0
   32.6270   25.8080   46.5480 C   0  0  0  0  0  0  0  0  0  0  0  0
   34.5930   26.3520   47.0960 H   0  0  0  0  0  0  0  0  0  0  0  0
   31.3970   28.3880   49.2140 H   0  0  0  0  0  0  0  0  0  0  0  0
   28.8830   27.5800   48.3990 H   0  0  0  0  0  0  0  0  0  0  0  0
   30.1430   24.7660   45.4900 H   0  0  0  0  0  0  0  0  0  0  0  0
   32.9660   25.0980   45.8120 H   0  0  0  0  0  0  0  0  0  0  0  0
   37.2580   29.4680   50.1100 C   0  0  0  0  0  0  0  0  0  0  0  0
   37.9010   28.8300   50.9870 O   0  0  0  0  0  0  0  0  0  0  0  0
   37.8170   30.5570   49.3420 C   0  0  0  0  0  0  0  0  0  0  0  0
   38.2110   31.6940   50.0420 C   0  0  0  0  0  0  0  0  0  0  0  0
   38.7550   32.7610   49.3260 C   0  0  0  0  0  0  0  0  0  0  0  0
   38.8640   32.6130   47.9770 N   0  0  0  0  0  0  0  0  0  0  0  0
   38.4800   31.5180   47.3320 C   0  0  0  0  0  0  0  0  0  0  0  0
   37.9580   30.4930   48.0210 N   0  0  0  0  0  0  0  0  0  0  0  0
   38.0910   31.7300   51.1130 H   0  0  0  0  0  0  0  0  0  0  0  0
   39.0520   33.6300   49.8960 H   0  0  0  0  0  0  0  0  0  0  0  0
   38.2530   32.4570   45.0610 C   0  0  0  0  0  3  0  0  0  0  0  0
   38.6180   31.4100   45.8840 C   0  0  0  0  0  0  0  0  0  0  0  0
   39.1100   30.2770   45.2840 C   0  0  0  0  0  0  0  0  0  0  0  0
   39.4090   29.4350   45.8830 H   0  0  0  0  0  0  0  0  0  0  0  0
   39.2350   30.1920   43.9020 C   0  0  0  0  0  0  0  0  0  0  0  0
   38.8690   31.2390   43.0780 C   0  0  0  0  0  0  0  0  0  0  0  0
   38.3760   32.3730   43.6900 C   0  0  0  0  0  3  0  0  0  0  0  0
   39.1100   30.8550   41.7540 O   0  0  0  0  0  0  0  0  0  0  0  0
   39.9010   29.6820   41.8080 C   0  0  0  0  0  3  0  0  0  0  0  0
   40.9830   29.9380   41.7250 H   0  0  0  0  0  0  0  0  0  0  0  0
   39.7040   29.1490   43.1190 O   0  0  0  0  0  0  0  0  0  0  0  0
  1 22  1  0  0  0  0
  1  2  2  0  0  0  0
  2  6  1  0  0  0  0
  3  7  1  0  0  0  0
  3  2  1  0  0  0  0
  4  3  2  0  0  0  0
  5  4  1  0  0  0  0
  5  1  1  0  0  0  0
  8  9  1  0  0  0  0
  9 10  2  0  0  0  0
  9  4  1  0  0  0  0
 10 18  1  0  0  0  0
 11 12  1  0  0  0  0
 11 10  1  0  0  0  0
 12 19  1  0  0  0  0
 13 12  1  0  0  0  0
 14 15  1  0  0  0  0
 14 13  2  0  0  0  0
 15 11  2  0  0  0  0
 16 15  1  0  0  0  0
 16  8  2  0  0  0  0
 17  8  1  0  0  0  0
 20 14  1  0  0  0  0
 21 16  1  0  0  0  0
 22 23  2  0  0  0  0
 24 25  1  0  0  0  0
 24 22  1  0  0  0  0
 25 30  1  0  0  0  0
 26 31  1  0  0  0  0
 26 25  2  0  0  0  0
 27 26  1  0  0  0  0
 28 27  2  0  0  0  0
 28 29  1  0  0  0  0
 29 24  2  0  0  0  0
 32 33  1  0  0  0  0
 33 28  1  0  0  0  0
 34 35  1  0  0  0  0
 34 33  2  0  0  0  0
 36 34  1  0  0  0  0
 37 38  1  0  0  0  0
 37 36  2  0  0  0  0
 38 32  2  0  0  0  0
 39 40  1  0  0  0  0
 39 37  1  0  0  0  0
 40 42  1  0  0  0  0
 41 40  1  0  0  0  0
 42 36  1  0  0  0  0
M  END
>  <minimizedAffinity>
-7.4505868

>  <minimizedRMSD>
0.27073437

$$$$
