
 OpenBabel03272502183D

 35 38  0  0  1  0  0  0  0  0999 V2000
   37.2090   30.4660   49.1460 C   0  0  0  0  0  0  0  0  0  0  0  0
   37.3960   31.5780   49.9980 C   0  0  0  0  0  0  0  0  0  0  0  0
   38.2030   32.6280   49.5680 C   0  0  0  0  0  0  0  0  0  0  0  0
   38.7780   32.5070   48.3150 N   0  0  0  0  0  0  0  0  0  0  0  0
   38.5790   31.4460   47.5410 C   0  0  0  0  0  0  0  0  0  0  0  0
   37.7990   30.4310   47.9560 N   0  0  0  0  0  0  0  0  0  0  0  0
   36.9550   31.6900   50.9820 H   0  0  0  0  0  0  0  0  0  0  0  0
   38.3590   33.4870   50.2050 H   0  0  0  0  0  0  0  0  0  0  0  0
   40.0410   32.3200   45.7470 C   0  0  0  0  0  3  0  0  0  0  0  0
   39.1960   31.3500   46.2300 C   0  0  0  0  0  0  0  0  0  0  0  0
   38.9310   30.2620   45.4490 C   0  0  0  0  0  0  0  0  0  0  0  0
   38.2750   29.5070   45.8210 H   0  0  0  0  0  0  0  0  0  0  0  0
   39.5240   30.1880   44.2100 C   0  0  0  0  0  0  0  0  0  0  0  0
   40.3850   31.1340   43.6670 C   0  0  0  0  0  0  0  0  0  0  0  0
   40.6230   32.2170   44.4960 C   0  0  0  0  0  3  0  0  0  0  0  0
   40.7400   30.6670   42.4240 O   0  0  0  0  0  0  0  0  0  0  0  0
   39.7510   29.7430   42.0130 C   0  0  0  0  0  3  0  0  0  0  0  0
   40.1530   28.9830   41.3020 H   0  0  0  0  0  0  0  0  0  0  0  0
   39.3850   29.1690   43.2670 O   0  0  0  0  0  0  0  0  0  0  0  0
   36.1510   29.2310   49.8630 S   0  0  0  0  0  0  0  0  0  0  0  0
   33.7360   28.2440   49.1790 N   0  0  0  0  0  0  0  0  0  0  0  0
   34.4030   29.5080   49.3920 C   0  0  2  0  0  0  0  0  0  0  0  0
   34.3560   30.2770   48.0940 C   0  0  0  0  0  0  0  0  0  0  0  0
   33.3920   29.7500   47.2070 O   0  0  0  0  0  0  0  0  0  0  0  0
   33.8850   28.5030   46.8210 C   0  0  0  0  0  0  0  0  0  0  0  0
   34.2660   27.6280   47.9970 C   0  0  2  0  0  0  0  0  0  0  0  0
   33.7870   27.6460   50.0200 H   0  0  0  0  0  0  0  0  0  0  0  0
   33.9300   30.0310   50.2450 H   0  0  0  0  0  0  0  0  0  0  0  0
   35.3390   30.3860   47.6320 H   0  0  0  0  0  0  0  0  0  0  0  0
   34.0110   31.3190   48.3520 H   0  0  0  0  0  0  0  0  0  0  0  0
   33.0410   27.9970   46.2870 H   0  0  0  0  0  0  0  0  0  0  0  0
   34.7060   28.5750   46.0780 H   0  0  0  0  0  0  0  0  0  0  0  0
   35.3710   27.5780   48.0760 H   0  0  0  0  0  0  0  0  0  0  0  0
   33.7030   26.3440   47.8640 O   0  0  0  0  0  0  0  0  0  0  0  0
   33.9470   25.9400   46.9880 H   0  0  0  0  0  0  0  0  0  0  0  0
  1 20  1  0  0  0  0
  1  2  1  0  0  0  0
  2  7  1  0  0  0  0
  3  2  2  0  0  0  0
  3  8  1  0  0  0  0
  4  3  1  0  0  0  0
  5  6  1  0  0  0  0
  5  4  2  0  0  0  0
  6  1  2  0  0  0  0
  9 10  1  0  0  0  0
 10  5  1  0  0  0  0
 11 12  1  0  0  0  0
 11 10  2  0  0  0  0
 13 11  1  0  0  0  0
 14 13  2  0  0  0  0
 14 15  1  0  0  0  0
 15  9  2  0  0  0  0
 16 14  1  0  0  0  0
 17 16  1  0  0  0  0
 17 19  1  0  0  0  0
 18 17  1  0  0  0  0
 19 13  1  0  0  0  0
 21 22  1  0  0  0  0
 21 27  1  0  0  0  0
 22 20  1  0  0  0  0
 22 28  1  1  0  0  0
 23 30  1  0  0  0  0
 23 22  1  0  0  0  0
 24 23  1  0  0  0  0
 25 24  1  0  0  0  0
 25 26  1  0  0  0  0
 26 33  1  1  0  0  0
 26 21  1  0  0  0  0
 29 23  1  0  0  0  0
 31 25  1  0  0  0  0
 32 25  1  0  0  0  0
 34 26  1  0  0  0  0
 35 34  1  0  0  0  0
M  END
>  <minimizedAffinity>
-6.43016148

>  <minimizedRMSD>
1.4015404

$$$$
