
 OpenBabel03272505513D

 46 50  0  0  1  0  0  0  0  0999 V2000
   37.2650   29.2750   50.5430 C   0  0  0  0  0  0  0  0  0  0  0  0
   37.4080   30.6530   50.8220 C   0  0  0  0  0  0  0  0  0  0  0  0
   36.6410   31.5320   50.0630 C   0  0  0  0  0  0  0  0  0  0  0  0
   35.8150   31.0170   49.1140 N   0  0  0  0  0  0  0  0  0  0  0  0
   35.7150   29.7110   48.8880 C   0  0  0  0  0  0  0  0  0  0  0  0
   36.4360   28.8350   49.5980 N   0  0  0  0  0  0  0  0  0  0  0  0
   34.8350   29.2360   47.8820 N   0  0  0  0  0  0  0  0  0  0  0  0
   34.2170   27.9260   47.9620 C   0  0  0  0  0  0  0  0  0  0  0  0
   32.7330   28.0470   47.8160 C   0  0  0  0  0  0  0  0  0  0  0  0
   32.2560   29.2520   47.3380 N   0  0  0  0  0  0  0  0  0  0  0  0
   33.0720   30.1150   46.5250 C   0  0  0  0  0  0  0  0  0  0  0  0
   34.5080   30.0420   46.7150 C   0  0  2  0  0  0  0  0  0  0  0  0
   37.8860   28.6380   51.1640 H   0  0  0  0  0  0  0  0  0  0  0  0
   38.0590   31.0610   51.5700 H   0  0  0  0  0  0  0  0  0  0  0  0
   36.6560   32.6100   50.1760 H   0  0  0  0  0  0  0  0  0  0  0  0
   34.3820   27.5850   49.0320 H   0  0  0  0  0  0  0  0  0  0  0  0
   34.7030   27.1530   47.3680 H   0  0  0  0  0  0  0  0  0  0  0  0
   32.1710   27.7580   48.7280 H   0  0  0  0  0  0  0  0  0  0  0  0
   32.4530   27.2360   47.0780 H   0  0  0  0  0  0  0  0  0  0  0  0
   31.5410   29.6970   47.9130 H   0  0  0  0  0  0  0  0  0  0  0  0
   32.7620   31.1500   46.9060 H   0  0  0  0  0  0  0  0  0  0  0  0
   32.6050   30.1040   45.5530 H   0  0  0  0  0  0  0  0  0  0  0  0
   34.9820   31.0560   46.8930 H   0  0  0  0  0  0  0  0  0  0  0  0
   35.2380   29.4770   45.5930 N   0  0  2  0  0  0  0  0  0  0  0  0
   36.3620   30.3290   45.2100 C   0  0  0  0  0  0  0  0  0  0  0  0
   36.4840   30.2490   43.7010 C   0  0  0  0  0  0  0  0  0  0  0  0
   35.5220   29.1710   43.3450 C   0  0  0  0  0  0  0  0  0  0  0  0
   34.4400   29.2900   44.4360 C   0  0  1  0  0  0  0  0  0  0  0  0
   36.2400   31.3630   45.5680 H   0  0  0  0  0  0  0  0  0  0  0  0
   37.2690   29.8810   45.6620 H   0  0  0  0  0  0  0  0  0  0  0  0
   37.5010   29.9480   43.3900 H   0  0  0  0  0  0  0  0  0  0  0  0
   36.1670   31.2140   43.2630 H   0  0  0  0  0  0  0  0  0  0  0  0
   35.0660   29.2940   42.3350 H   0  0  0  0  0  0  0  0  0  0  0  0
   35.9620   28.1550   43.3820 H   0  0  0  0  0  0  0  0  0  0  0  0
   33.8830   30.1370   44.0390 H   0  0  0  0  0  0  0  0  0  0  0  0
   34.2870   26.7260   44.6020 C   0  0  0  0  0  3  0  0  0  0  0  0
   33.7700   27.9700   44.3070 C   0  0  0  0  0  0  0  0  0  0  0  0
   32.4660   27.9570   43.8450 C   0  0  0  0  0  0  0  0  0  0  0  0
   31.8960   28.8560   43.5610 H   0  0  0  0  0  0  0  0  0  0  0  0
   31.7270   26.8030   43.6870 C   0  0  0  0  0  0  0  0  0  0  0  0
   32.2900   25.5820   43.9960 C   0  0  0  0  0  0  0  0  0  0  0  0
   33.5880   25.5480   44.4590 C   0  0  0  0  0  3  0  0  0  0  0  0
   31.3370   24.5810   43.7490 O   0  0  0  0  0  0  0  0  0  0  0  0
   30.0690   25.1990   43.5660 C   0  0  0  0  0  3  0  0  0  0  0  0
   29.5400   24.7970   42.6780 H   0  0  0  0  0  0  0  0  0  0  0  0
   30.4210   26.5170   43.2490 O   0  0  0  0  0  0  0  0  0  0  0  0
  1  2  1  0  0  0  0
  1 13  1  0  0  0  0
  2 14  1  0  0  0  0
  3 15  1  0  0  0  0
  3  2  2  0  0  0  0
  4  3  1  0  0  0  0
  5  4  2  0  0  0  0
  5  6  1  0  0  0  0
  6  1  2  0  0  0  0
  7  8  1  0  0  0  0
  7  5  1  0  0  0  0
  8 16  1  0  0  0  0
  9  8  1  0  0  0  0
  9 18  1  0  0  0  0
 10  9  1  0  0  0  0
 10 20  1  0  0  0  0
 11 12  1  0  0  0  0
 11 21  1  0  0  0  0
 11 10  1  0  0  0  0
 12 23  1  1  0  0  0
 12  7  1  0  0  0  0
 17  8  1  0  0  0  0
 19  9  1  0  0  0  0
 22 11  1  0  0  0  0
 24 25  1  6  0  0  0
 24 12  1  0  0  0  0
 25 29  1  0  0  0  0
 25 30  1  0  0  0  0
 26 25  1  0  0  0  0
 27 34  1  0  0  0  0
 27 26  1  0  0  0  0
 27 28  1  0  0  0  0
 28 35  1  6  0  0  0
 28 24  1  0  0  0  0
 31 26  1  0  0  0  0
 32 26  1  0  0  0  0
 33 27  1  0  0  0  0
 37 28  1  0  0  0  0
 37 36  2  0  0  0  0
 38 37  1  0  0  0  0
 39 38  1  0  0  0  0
 40 38  2  0  0  0  0
 40 41  1  0  0  0  0
 41 42  2  0  0  0  0
 42 36  1  0  0  0  0
 43 41  1  0  0  0  0
 44 43  1  0  0  0  0
 45 44  1  0  0  0  0
 46 44  1  0  0  0  0
 46 40  1  0  0  0  0
M  END
>  <minimizedAffinity>
-4.80885506

>  <minimizedRMSD>
1.16878283

$$$$
