
 OpenBabel03272510263D

 47 52  0  0  1  0  0  0  0  0999 V2000
   38.8710   31.7620   41.4360 N   0  0  0  0  0  0  0  0  0  0  0  0
   38.9250   33.1890   41.5820 C   0  0  1  0  0  0  0  0  0  0  0  0
   37.6350   33.7970   41.2820 C   0  0  0  0  0  0  0  0  0  0  0  0
   37.3150   33.5430   39.9410 O   0  0  0  0  0  0  0  0  0  0  0  0
   37.3360   32.2150   39.5820 C   0  0  0  0  0  0  0  0  0  0  0  0
   38.5700   31.5030   40.0440 C   0  0  1  0  0  0  0  0  0  0  0  0
   38.4490   31.1870   42.1230 H   0  0  0  0  0  0  0  0  0  0  0  0
   39.7060   33.5730   40.9120 H   0  0  0  0  0  0  0  0  0  0  0  0
   37.7880   34.9200   41.3040 H   0  0  0  0  0  0  0  0  0  0  0  0
   36.7350   33.6060   41.8000 H   0  0  0  0  0  0  0  0  0  0  0  0
   36.4000   31.6970   39.9400 H   0  0  0  0  0  0  0  0  0  0  0  0
   37.2750   32.1530   38.4810 H   0  0  0  0  0  0  0  0  0  0  0  0
   38.3110   30.4030   40.0130 H   0  0  0  0  0  0  0  0  0  0  0  0
   39.9660   32.4720   38.0860 C   0  0  0  0  0  3  0  0  0  0  0  0
   39.7430   31.6660   39.1820 C   0  0  0  0  0  0  0  0  0  0  0  0
   40.7840   30.8270   39.5990 C   0  0  0  0  0  0  0  0  0  0  0  0
   40.7620   30.1320   40.4470 H   0  0  0  0  0  0  0  0  0  0  0  0
   42.0080   30.8110   38.9230 C   0  0  0  0  0  0  0  0  0  0  0  0
   42.1420   31.6480   37.8410 C   0  0  0  0  0  0  0  0  0  0  0  0
   41.1550   32.4810   37.4000 C   0  0  0  0  0  3  0  0  0  0  0  0
   43.4290   31.4670   37.3260 O   0  0  0  0  0  0  0  0  0  0  0  0
   44.0060   30.3660   37.9810 C   0  0  0  0  0  3  0  0  0  0  0  0
   45.0600   30.5560   38.2850 H   0  0  0  0  0  0  0  0  0  0  0  0
   43.2010   30.1040   39.0950 O   0  0  0  0  0  0  0  0  0  0  0  0
   39.3070   33.4540   42.9270 O   0  0  0  0  0  0  0  0  0  0  0  0
   36.1800   30.1950   46.7230 C   0  0  0  0  0  0  0  0  0  0  0  0
   37.0670   30.7570   47.6310 C   0  0  0  0  0  0  0  0  0  0  0  0
   38.0560   31.6450   47.2090 C   0  0  0  0  0  0  0  0  0  0  0  0
   38.0950   31.9230   45.8480 C   0  0  0  0  0  0  0  0  0  0  0  0
   38.9740   32.7630   45.2000 N   0  0  0  0  0  0  0  0  0  0  0  0
   38.6280   32.7170   43.8990 C   0  0  0  0  0  0  0  0  0  0  0  0
   37.6000   31.9040   43.7300 N   0  0  0  0  0  0  0  0  0  0  0  0
   37.2390   31.3900   44.9190 C   0  0  0  0  0  0  0  0  0  0  0  0
   36.2550   30.5020   45.3730 C   0  0  0  0  0  0  0  0  0  0  0  0
   35.4040   29.5030   47.0320 H   0  0  0  0  0  0  0  0  0  0  0  0
   38.7580   32.0940   47.8990 H   0  0  0  0  0  0  0  0  0  0  0  0
   39.7480   33.3170   45.6480 H   0  0  0  0  0  0  0  0  0  0  0  0
   35.5750   30.0760   44.6470 H   0  0  0  0  0  0  0  0  0  0  0  0
   37.5630   30.2840   51.3290 C   0  0  0  0  0  0  0  0  0  0  0  0
   37.8410   30.7030   50.0270 C   0  0  0  0  0  0  0  0  0  0  0  0
   36.9420   30.4040   49.0310 C   0  0  0  0  0  0  0  0  0  0  0  0
   35.8080   29.7010   49.3880 N   0  0  0  0  0  0  0  0  0  0  0  0
   35.5630   29.3090   50.6550 C   0  0  0  0  0  0  0  0  0  0  0  0
   36.4280   29.5970   51.6060 N   0  0  0  0  0  0  0  0  0  0  0  0
   38.2940   30.5390   52.0800 H   0  0  0  0  0  0  0  0  0  0  0  0
   38.7220   31.2510   49.7420 H   0  0  0  0  0  0  0  0  0  0  0  0
   34.6460   28.7680   50.8000 H   0  0  0  0  0  0  0  0  0  0  0  0
  1  2  1  0  0  0  0
  1  7  1  0  0  0  0
  2  8  1  6  0  0  0
  2 25  1  0  0  0  0
  3  9  1  0  0  0  0
  3  2  1  0  0  0  0
  3 10  1  0  0  0  0
  4  3  1  0  0  0  0
  5 11  1  0  0  0  0
  5  4  1  0  0  0  0
  5  6  1  0  0  0  0
  6 13  1  6  0  0  0
  6  1  1  0  0  0  0
 12  5  1  0  0  0  0
 14 15  1  0  0  0  0
 15 16  2  0  0  0  0
 15  6  1  0  0  0  0
 16 17  1  0  0  0  0
 18 24  1  0  0  0  0
 18 16  1  0  0  0  0
 19 18  2  0  0  0  0
 20 19  1  0  0  0  0
 20 14  2  0  0  0  0
 21 19  1  0  0  0  0
 21 22  1  0  0  0  0
 22 23  1  0  0  0  0
 22 24  1  0  0  0  0
 25 31  1  0  0  0  0
 26 35  1  0  0  0  0
 26 27  1  0  0  0  0
 27 41  1  0  0  0  0
 28 27  2  0  0  0  0
 28 36  1  0  0  0  0
 29 28  1  0  0  0  0
 30 37  1  0  0  0  0
 30 29  1  0  0  0  0
 31 30  1  0  0  0  0
 32 31  2  0  0  0  0
 32 33  1  0  0  0  0
 33 34  1  0  0  0  0
 33 29  2  0  0  0  0
 34 26  2  0  0  0  0
 38 34  1  0  0  0  0
 39 44  1  0  0  0  0
 39 45  1  0  0  0  0
 40 39  2  0  0  0  0
 41 42  2  0  0  0  0
 41 40  1  0  0  0  0
 42 43  1  0  0  0  0
 43 47  1  0  0  0  0
 43 44  2  0  0  0  0
 46 40  1  0  0  0  0
M  END
>  <minimizedAffinity>
-6.07552099

>  <minimizedRMSD>
0.967273951

$$$$
