
 OpenBabel03272508303D

 34 37  0  0  1  0  0  0  0  0999 V2000
   36.4100   29.7540   43.2140 N   0  0  0  0  0  0  0  0  0  0  0  0
   36.3320   29.9090   41.7670 C   0  0  0  0  0  0  0  0  0  0  0  0
   37.5600   29.4690   41.0630 C   0  0  0  0  0  0  0  0  0  0  0  0
   38.2760   28.5170   41.8690 N   0  0  0  0  0  0  0  0  0  0  0  0
   38.8030   29.2530   43.0110 C   0  0  0  0  0  0  0  0  0  0  0  0
   37.6290   29.4310   43.9390 C   0  0  1  0  0  0  0  0  0  0  0  0
   35.4740   29.2850   41.4360 H   0  0  0  0  0  0  0  0  0  0  0  0
   36.0170   30.9580   41.4970 H   0  0  0  0  0  0  0  0  0  0  0  0
   37.2820   28.9550   40.1060 H   0  0  0  0  0  0  0  0  0  0  0  0
   38.2110   30.3100   40.7360 H   0  0  0  0  0  0  0  0  0  0  0  0
   39.0250   28.0530   41.3250 H   0  0  0  0  0  0  0  0  0  0  0  0
   39.5680   28.6600   43.5630 H   0  0  0  0  0  0  0  0  0  0  0  0
   39.2250   30.2060   42.6350 H   0  0  0  0  0  0  0  0  0  0  0  0
   37.4440   28.4430   44.4110 H   0  0  0  0  0  0  0  0  0  0  0  0
   38.3160   31.7180   44.7900 C   0  0  0  0  0  3  0  0  0  0  0  0
   37.9220   30.4160   45.0160 C   0  0  0  0  0  0  0  0  0  0  0  0
   37.7770   29.9520   46.3190 C   0  0  0  0  0  0  0  0  0  0  0  0
   37.4740   28.9530   46.5920 H   0  0  0  0  0  0  0  0  0  0  0  0
   38.0370   30.8300   47.3470 C   0  0  0  0  0  0  0  0  0  0  0  0
   38.4360   32.1460   47.1000 C   0  0  0  0  0  0  0  0  0  0  0  0
   38.5840   32.6160   45.7960 C   0  0  0  0  0  3  0  0  0  0  0  0
   38.6300   32.8050   48.3270 O   0  0  0  0  0  0  0  0  0  0  0  0
   37.9700   32.0270   49.3070 C   0  0  0  0  0  3  0  0  0  0  0  0
   36.9380   32.4350   49.4010 H   0  0  0  0  0  0  0  0  0  0  0  0
   38.0000   30.7270   48.7470 O   0  0  0  0  0  0  0  0  0  0  0  0
   34.7680   28.9340   44.8570 C   0  0  0  0  0  0  0  0  0  0  0  0
   35.2280   29.9250   43.9860 C   0  0  0  0  0  0  0  0  0  0  0  0
   34.4780   31.0910   43.9040 C   0  0  0  0  0  0  0  0  0  0  0  0
   33.3460   31.2200   44.6630 N   0  0  0  0  0  0  0  0  0  0  0  0
   32.9550   30.2200   45.4880 C   0  0  0  0  0  0  0  0  0  0  0  0
   33.6540   29.0660   45.6000 N   0  0  0  0  0  0  0  0  0  0  0  0
   35.3240   28.0160   44.9480 H   0  0  0  0  0  0  0  0  0  0  0  0
   34.7840   31.8900   43.2480 H   0  0  0  0  0  0  0  0  0  0  0  0
   32.0670   30.2740   46.1080 H   0  0  0  0  0  0  0  0  0  0  0  0
  1  6  1  0  0  0  0
  1 27  1  0  0  0  0
  2  1  1  0  0  0  0
  3  2  1  0  0  0  0
  3  4  1  0  0  0  0
  4  5  1  0  0  0  0
  5 12  1  0  0  0  0
  5  6  1  0  0  0  0
  6 14  1  1  0  0  0
  6 16  1  0  0  0  0
  7  2  1  0  0  0  0
  8  2  1  0  0  0  0
  9  3  1  0  0  0  0
 10  3  1  0  0  0  0
 11  4  1  0  0  0  0
 13  5  1  0  0  0  0
 15 16  2  0  0  0  0
 15 21  1  0  0  0  0
 16 17  1  0  0  0  0
 17 18  1  0  0  0  0
 17 19  2  0  0  0  0
 19 25  1  0  0  0  0
 20 19  1  0  0  0  0
 20 22  1  0  0  0  0
 21 20  2  0  0  0  0
 22 23  1  0  0  0  0
 23 24  1  0  0  0  0
 25 23  1  0  0  0  0
 26 32  1  0  0  0  0
 26 31  1  0  0  0  0
 27 26  2  0  0  0  0
 28 27  1  0  0  0  0
 28 29  2  0  0  0  0
 29 30  1  0  0  0  0
 30 31  2  0  0  0  0
 30 34  1  0  0  0  0
 33 28  1  0  0  0  0
M  END
>  <minimizedAffinity>
-3.14360452

>  <minimizedRMSD>
5.83179092

$$$$
