
 OpenBabel03272507443D

 35 38  0  0  0  0  0  0  0  0999 V2000
   32.7050   28.2200   47.4470 N   0  0  0  0  0  0  0  0  0  0  0  0
   33.2790   27.8070   48.6940 C   0  0  0  0  0  0  0  0  0  0  0  0
   34.5200   28.4590   49.1250 C   0  0  0  0  0  0  0  0  0  0  0  0
   35.4190   29.0130   48.0950 C   0  0  0  0  0  0  0  0  0  0  0  0
   34.7220   29.3910   46.8060 C   0  0  0  0  0  0  0  0  0  0  0  0
   33.7530   28.2540   46.4470 C   0  0  0  0  0  0  0  0  0  0  0  0
   32.4920   27.9640   49.4850 H   0  0  0  0  0  0  0  0  0  0  0  0
   33.3980   26.6970   48.6520 H   0  0  0  0  0  0  0  0  0  0  0  0
   35.1090   27.7330   49.7390 H   0  0  0  0  0  0  0  0  0  0  0  0
   34.2840   29.2800   49.8620 H   0  0  0  0  0  0  0  0  0  0  0  0
   36.1890   28.2530   47.7780 H   0  0  0  0  0  0  0  0  0  0  0  0
   34.2020   30.3500   46.9190 H   0  0  0  0  0  0  0  0  0  0  0  0
   35.4710   29.4010   45.9730 H   0  0  0  0  0  0  0  0  0  0  0  0
   34.3580   27.3350   46.3930 H   0  0  0  0  0  0  0  0  0  0  0  0
   33.3750   28.4280   45.4260 H   0  0  0  0  0  0  0  0  0  0  0  0
   35.9290   30.7530   49.7750 C   0  0  0  0  0  0  0  0  0  0  0  0
   36.1800   30.2290   48.5240 C   0  0  0  0  0  0  0  0  0  0  0  0
   37.0910   30.7410   47.6180 C   0  0  0  0  0  0  0  0  0  0  0  0
   37.2900   30.3450   46.6530 H   0  0  0  0  0  0  0  0  0  0  0  0
   37.7950   31.8760   48.0290 C   0  0  0  0  0  0  0  0  0  0  0  0
   37.5500   32.4070   49.2810 C   0  0  0  0  0  0  0  0  0  0  0  0
   36.6350   31.8780   50.1700 C   0  0  0  0  0  0  0  0  0  0  0  0
   38.3500   33.5330   49.5010 O   0  0  0  0  0  0  0  0  0  0  0  0
   39.3250   33.4900   48.4600 C   0  0  0  0  0  0  0  0  0  0  0  0
   39.5910   34.5090   48.1100 H   0  0  0  0  0  0  0  0  0  0  0  0
   38.7710   32.6830   47.4470 O   0  0  0  0  0  0  0  0  0  0  0  0
   31.3400   28.5470   47.2110 C   0  0  0  0  0  0  0  0  0  0  0  0
   30.8680   29.3510   46.1640 C   0  0  0  0  0  0  0  0  0  0  0  0
   29.4950   29.5590   46.0950 C   0  0  0  0  0  0  0  0  0  0  0  0
   28.6880   28.9820   47.0320 N   0  0  0  0  0  0  0  0  0  0  0  0
   29.1800   28.2240   48.0130 C   0  0  0  0  0  0  0  0  0  0  0  0
   30.4870   28.0110   48.1000 N   0  0  0  0  0  0  0  0  0  0  0  0
   31.5940   29.7400   45.5020 H   0  0  0  0  0  0  0  0  0  0  0  0
   29.1710   30.1840   45.2730 H   0  0  0  0  0  0  0  0  0  0  0  0
   28.4390   27.8200   48.6970 H   0  0  0  0  0  0  0  0  0  0  0  0
  1  2  1  0  0  0  0
  2  3  1  0  0  0  0
  2  7  1  0  0  0  0
  3  9  1  0  0  0  0
  3 10  1  0  0  0  0
  4 17  1  0  0  0  0
  4  3  1  0  0  0  0
  5 12  1  0  0  0  0
  5  4  1  0  0  0  0
  6  5  1  0  0  0  0
  6  1  1  0  0  0  0
  8  2  1  0  0  0  0
 11  4  1  0  0  0  0
 13  5  1  0  0  0  0
 14  6  1  0  0  0  0
 15  6  1  0  0  0  0
 16 22  1  0  0  0  0
 17 16  2  0  0  0  0
 18 20  2  0  0  0  0
 18 17  1  0  0  0  0
 19 18  1  0  0  0  0
 20 21  1  0  0  0  0
 21 23  1  0  0  0  0
 21 22  2  0  0  0  0
 24 23  1  0  0  0  0
 25 24  1  0  0  0  0
 26 20  1  0  0  0  0
 26 24  1  0  0  0  0
 27  1  1  0  0  0  0
 27 32  1  0  0  0  0
 28 27  2  0  0  0  0
 29 28  1  0  0  0  0
 29 30  2  0  0  0  0
 30 31  1  0  0  0  0
 31 32  2  0  0  0  0
 31 35  1  0  0  0  0
 33 28  1  0  0  0  0
 34 29  1  0  0  0  0
M  END
>  <minimizedAffinity>
-5.98004436

>  <minimizedRMSD>
4.28941727

$$$$
