
 OpenBabel03272500583D

 37 40  0  0  0  0  0  0  0  0999 V2000
   38.0300   31.8300   47.4320 C   0  0  0  0  0  0  0  0  0  0  0  0
   38.5330   32.6860   48.3680 C   0  0  0  0  0  0  0  0  0  0  0  0
   38.0460   32.7410   49.6770 C   0  0  0  0  0  0  0  0  0  0  0  0
   36.9630   31.8430   50.0220 C   0  0  0  0  0  0  0  0  0  0  0  0
   36.5070   31.0160   49.0450 C   0  0  0  0  0  0  0  0  0  0  0  0
   36.9820   30.9730   47.7940 C   0  0  0  0  0  0  0  0  0  0  0  0
   39.3570   33.3810   48.1370 H   0  0  0  0  0  0  0  0  0  0  0  0
   38.4910   33.4450   50.3680 H   0  0  0  0  0  0  0  0  0  0  0  0
   36.6920   31.9920   51.0450 H   0  0  0  0  0  0  0  0  0  0  0  0
   35.7380   30.4290   49.5220 H   0  0  0  0  0  0  0  0  0  0  0  0
   39.9020   31.2090   45.9840 C   0  0  0  0  0  0  0  0  0  0  0  0
   38.6600   31.8760   46.1320 C   0  0  0  0  0  0  0  0  0  0  0  0
   38.2060   32.4850   44.9900 C   0  0  0  0  0  0  0  0  0  0  0  0
   38.9050   32.4320   43.8500 N   0  0  0  0  0  0  0  0  0  0  0  0
   40.0590   31.8070   43.7300 C   0  0  0  0  0  0  0  0  0  0  0  0
   40.5460   31.2000   44.8010 N   0  0  0  0  0  0  0  0  0  0  0  0
   40.3450   30.6930   46.8420 H   0  0  0  0  0  0  0  0  0  0  0  0
   37.2610   32.9960   45.0930 H   0  0  0  0  0  0  0  0  0  0  0  0
   40.6340   31.7570   42.8130 H   0  0  0  0  0  0  0  0  0  0  0  0
   35.0150   29.9970   46.9480 C   0  0  0  0  0  0  0  0  0  0  0  0
   34.4120   30.6340   47.8960 O   0  0  0  0  0  0  0  0  0  0  0  0
   36.4570   30.1290   46.8490 N   0  0  0  0  0  0  0  0  0  0  0  0
   37.0150   29.6230   46.1270 H   0  0  0  0  0  0  0  0  0  0  0  0
   34.2730   29.2360   46.0920 O   0  0  0  0  0  0  0  0  0  0  0  0
   33.1050   29.6350   45.4680 C   0  0  0  0  0  0  0  0  0  0  0  0
   33.0220   30.7490   44.7730 O   0  0  0  0  0  0  0  0  0  0  0  0
   31.4700   27.9850   44.5230 C   0  0  0  0  0  3  0  0  0  0  0  0
   31.8860   28.7970   45.5380 C   0  0  0  0  0  0  0  0  0  0  0  0
   31.1000   28.8070   46.6710 C   0  0  0  0  0  0  0  0  0  0  0  0
   31.3940   29.4430   47.5110 H   0  0  0  0  0  0  0  0  0  0  0  0
   29.9630   28.0720   46.8270 C   0  0  0  0  0  0  0  0  0  0  0  0
   29.5750   27.2570   45.7670 C   0  0  0  0  0  0  0  0  0  0  0  0
   30.3310   27.2150   44.6130 C   0  0  0  0  0  3  0  0  0  0  0  0
   28.3890   26.5980   46.1440 O   0  0  0  0  0  0  0  0  0  0  0  0
   28.2740   26.6960   47.5510 C   0  0  0  0  0  3  0  0  0  0  0  0
   27.2430   26.8410   47.9110 H   0  0  0  0  0  0  0  0  0  0  0  0
   29.0010   27.8890   47.8280 O   0  0  0  0  0  0  0  0  0  0  0  0
  1  6  2  0  0  0  0
  1  2  1  0  0  0  0
  2  3  2  0  0  0  0
  3  4  1  0  0  0  0
  3  8  1  0  0  0  0
  4  9  1  0  0  0  0
  5 10  1  0  0  0  0
  5  4  2  0  0  0  0
  6  5  1  0  0  0  0
  7  2  1  0  0  0  0
 11 12  1  0  0  0  0
 11 17  1  0  0  0  0
 12  1  1  0  0  0  0
 13 18  1  0  0  0  0
 13 12  2  0  0  0  0
 14 13  1  0  0  0  0
 15 14  2  0  0  0  0
 15 16  1  0  0  0  0
 16 11  2  0  0  0  0
 19 15  1  0  0  0  0
 20 21  2  0  0  0  0
 22 20  1  0  0  0  0
 22  6  1  0  0  0  0
 23 22  1  0  0  0  0
 24 20  1  0  0  0  0
 25 28  1  0  0  0  0
 25 24  1  0  0  0  0
 26 25  2  0  0  0  0
 27 33  2  0  0  0  0
 27 28  1  0  0  0  0
 28 29  2  0  0  0  0
 29 31  1  0  0  0  0
 29 30  1  0  0  0  0
 31 37  1  0  0  0  0
 32 34  1  0  0  0  0
 32 31  2  0  0  0  0
 33 32  1  0  0  0  0
 34 35  1  0  0  0  0
 35 37  1  0  0  0  0
 35 36  1  0  0  0  0
M  END
>  <minimizedAffinity>
-5.83016157

>  <minimizedRMSD>
0.528126478

$$$$
