
 OpenBabel03272500583D

 37 40  0  0  0  0  0  0  0  0999 V2000
   38.0240   31.8490   47.4450 C   0  0  0  0  0  0  0  0  0  0  0  0
   38.5370   32.7610   48.3190 C   0  0  0  0  0  0  0  0  0  0  0  0
   38.0970   32.8680   49.6420 C   0  0  0  0  0  0  0  0  0  0  0  0
   37.0520   31.9600   50.0690 C   0  0  0  0  0  0  0  0  0  0  0  0
   36.5830   31.0750   49.1510 C   0  0  0  0  0  0  0  0  0  0  0  0
   37.0130   30.9840   47.8870 C   0  0  0  0  0  0  0  0  0  0  0  0
   39.3330   33.4650   48.0250 H   0  0  0  0  0  0  0  0  0  0  0  0
   38.5470   33.6160   50.2810 H   0  0  0  0  0  0  0  0  0  0  0  0
   36.8150   32.1510   51.0940 H   0  0  0  0  0  0  0  0  0  0  0  0
   35.8480   30.4930   49.6850 H   0  0  0  0  0  0  0  0  0  0  0  0
   39.8410   31.1750   45.9510 C   0  0  0  0  0  0  0  0  0  0  0  0
   38.6040   31.8470   46.1210 C   0  0  0  0  0  0  0  0  0  0  0  0
   38.1060   32.4140   44.9750 C   0  0  0  0  0  0  0  0  0  0  0  0
   38.7620   32.3190   43.8130 N   0  0  0  0  0  0  0  0  0  0  0  0
   39.9120   31.6900   43.6720 C   0  0  0  0  0  0  0  0  0  0  0  0
   40.4400   31.1240   44.7450 N   0  0  0  0  0  0  0  0  0  0  0  0
   40.3160   30.6910   46.8090 H   0  0  0  0  0  0  0  0  0  0  0  0
   37.1650   32.9270   45.0960 H   0  0  0  0  0  0  0  0  0  0  0  0
   40.4520   31.6070   42.7370 H   0  0  0  0  0  0  0  0  0  0  0  0
   35.0370   29.9580   47.1270 C   0  0  0  0  0  0  0  0  0  0  0  0
   34.4440   30.6540   48.0400 O   0  0  0  0  0  0  0  0  0  0  0  0
   36.4770   30.0820   47.0040 N   0  0  0  0  0  0  0  0  0  0  0  0
   37.0260   29.5300   46.3090 H   0  0  0  0  0  0  0  0  0  0  0  0
   34.2840   29.1440   46.3310 O   0  0  0  0  0  0  0  0  0  0  0  0
   32.9380   29.3080   46.0560 C   0  0  0  0  0  0  0  0  0  0  0  0
   32.5090   30.0360   45.0470 O   0  0  0  0  0  0  0  0  0  0  0  0
   32.1960   27.6810   47.8140 C   0  0  0  0  0  3  0  0  0  0  0  0
   31.9090   28.6410   46.8860 C   0  0  0  0  0  0  0  0  0  0  0  0
   30.5790   28.9750   46.7450 C   0  0  0  0  0  0  0  0  0  0  0  0
   30.3030   29.7390   46.0130 H   0  0  0  0  0  0  0  0  0  0  0  0
   29.5650   28.4160   47.4630 C   0  0  0  0  0  0  0  0  0  0  0  0
   29.9010   27.4410   48.4000 C   0  0  0  0  0  0  0  0  0  0  0  0
   31.2200   27.0750   48.5740 C   0  0  0  0  0  3  0  0  0  0  0  0
   28.7100   27.0100   49.0150 O   0  0  0  0  0  0  0  0  0  0  0  0
   27.7160   27.9790   48.7520 C   0  0  0  0  0  3  0  0  0  0  0  0
   26.7120   27.5610   48.5700 H   0  0  0  0  0  0  0  0  0  0  0  0
   28.1730   28.5540   47.5320 O   0  0  0  0  0  0  0  0  0  0  0  0
  1  6  2  0  0  0  0
  1  2  1  0  0  0  0
  2  3  2  0  0  0  0
  3  4  1  0  0  0  0
  3  8  1  0  0  0  0
  4  9  1  0  0  0  0
  5 10  1  0  0  0  0
  5  4  2  0  0  0  0
  6  5  1  0  0  0  0
  7  2  1  0  0  0  0
 11 12  1  0  0  0  0
 11 17  1  0  0  0  0
 12  1  1  0  0  0  0
 13 18  1  0  0  0  0
 13 12  2  0  0  0  0
 14 13  1  0  0  0  0
 15 14  2  0  0  0  0
 15 16  1  0  0  0  0
 16 11  2  0  0  0  0
 19 15  1  0  0  0  0
 20 21  2  0  0  0  0
 22 20  1  0  0  0  0
 22  6  1  0  0  0  0
 23 22  1  0  0  0  0
 24 20  1  0  0  0  0
 25 24  1  0  0  0  0
 25 28  1  0  0  0  0
 26 25  2  0  0  0  0
 27 33  1  0  0  0  0
 28 27  2  0  0  0  0
 29 28  1  0  0  0  0
 29 31  2  0  0  0  0
 30 29  1  0  0  0  0
 31 37  1  0  0  0  0
 31 32  1  0  0  0  0
 32 33  2  0  0  0  0
 32 34  1  0  0  0  0
 35 34  1  0  0  0  0
 36 35  1  0  0  0  0
 37 35  1  0  0  0  0
M  END
>  <minimizedAffinity>
-6.39252853

>  <minimizedRMSD>
2.31216121

$$$$
