
 OpenBabel03272508303D

 34 37  0  0  1  0  0  0  0  0999 V2000
   34.6290   29.7310   46.1040 N   0  0  0  0  0  0  0  0  0  0  0  0
   33.3800   29.9110   45.3730 C   0  0  0  0  0  0  0  0  0  0  0  0
   33.5360   29.7880   43.9050 C   0  0  0  0  0  0  0  0  0  0  0  0
   34.7000   29.0000   43.5970 N   0  0  0  0  0  0  0  0  0  0  0  0
   35.8560   29.8000   43.9800 C   0  0  0  0  0  0  0  0  0  0  0  0
   35.9420   29.6730   45.4790 C   0  0  1  0  0  0  0  0  0  0  0  0
   32.6920   29.1170   45.7380 H   0  0  0  0  0  0  0  0  0  0  0  0
   32.8720   30.8670   45.6880 H   0  0  0  0  0  0  0  0  0  0  0  0
   32.6480   29.2550   43.4740 H   0  0  0  0  0  0  0  0  0  0  0  0
   33.5440   30.7670   43.3750 H   0  0  0  0  0  0  0  0  0  0  0  0
   34.7220   28.7390   42.5960 H   0  0  0  0  0  0  0  0  0  0  0  0
   36.8010   29.3810   43.5630 H   0  0  0  0  0  0  0  0  0  0  0  0
   35.6830   30.8360   43.6280 H   0  0  0  0  0  0  0  0  0  0  0  0
   36.3290   28.6540   45.6910 H   0  0  0  0  0  0  0  0  0  0  0  0
   37.5690   31.6120   45.3290 C   0  0  0  0  0  0  0  0  0  0  0  0
   36.8870   30.6630   46.0640 C   0  0  0  0  0  0  0  0  0  0  0  0
   37.0660   30.5930   47.4410 C   0  0  0  0  0  0  0  0  0  0  0  0
   36.5770   29.8870   48.0940 H   0  0  0  0  0  0  0  0  0  0  0  0
   37.9330   31.4890   48.0240 C   0  0  0  0  0  0  0  0  0  0  0  0
   38.6150   32.4450   47.2650 C   0  0  0  0  0  0  0  0  0  0  0  0
   38.4400   32.5200   45.8840 C   0  0  0  0  0  0  0  0  0  0  0  0
   39.4240   33.2170   48.1180 O   0  0  0  0  0  0  0  0  0  0  0  0
   38.9360   33.0060   49.4300 C   0  0  0  0  0  0  0  0  0  0  0  0
   38.1870   33.8060   49.6280 H   0  0  0  0  0  0  0  0  0  0  0  0
   38.3550   31.7170   49.3430 O   0  0  0  0  0  0  0  0  0  0  0  0
   34.7480   28.3650   48.1490 C   0  0  0  0  0  0  0  0  0  0  0  0
   34.5820   29.6010   47.5180 C   0  0  0  0  0  0  0  0  0  0  0  0
   34.3670   30.7030   48.3360 C   0  0  0  0  0  0  0  0  0  0  0  0
   34.3290   30.5390   49.6950 N   0  0  0  0  0  0  0  0  0  0  0  0
   34.4980   29.3120   50.2430 C   0  0  0  0  0  0  0  0  0  0  0  0
   34.7090   28.2100   49.4860 N   0  0  0  0  0  0  0  0  0  0  0  0
   34.9170   27.4870   47.5490 H   0  0  0  0  0  0  0  0  0  0  0  0
   34.2320   31.6810   47.9050 H   0  0  0  0  0  0  0  0  0  0  0  0
   34.4760   29.1300   51.3110 H   0  0  0  0  0  0  0  0  0  0  0  0
  1 27  1  0  0  0  0
  2  8  1  0  0  0  0
  2  7  1  0  0  0  0
  2  1  1  0  0  0  0
  3  2  1  0  0  0  0
  4  3  1  0  0  0  0
  4  5  1  0  0  0  0
  5  6  1  0  0  0  0
  6 14  1  1  0  0  0
  6 16  1  0  0  0  0
  6  1  1  0  0  0  0
  9  3  1  0  0  0  0
 10  3  1  0  0  0  0
 11  4  1  0  0  0  0
 12  5  1  0  0  0  0
 13  5  1  0  0  0  0
 15 21  2  0  0  0  0
 15 16  1  0  0  0  0
 16 17  2  0  0  0  0
 17 19  1  0  0  0  0
 17 18  1  0  0  0  0
 19 25  1  0  0  0  0
 20 19  2  0  0  0  0
 20 22  1  0  0  0  0
 21 20  1  0  0  0  0
 22 23  1  0  0  0  0
 23 24  1  0  0  0  0
 25 23  1  0  0  0  0
 26 31  1  0  0  0  0
 27 26  2  0  0  0  0
 27 28  1  0  0  0  0
 28 29  2  0  0  0  0
 29 30  1  0  0  0  0
 30 34  1  0  0  0  0
 31 30  2  0  0  0  0
 32 26  1  0  0  0  0
 33 28  1  0  0  0  0
M  END
>  <minimizedAffinity>
-4.59960699

>  <minimizedRMSD>
4.75297403

$$$$
