
 OpenBabel03272507333D

 38 42  0  0  1  0  0  0  0  0999 V2000
   32.8820   27.7980   47.9660 C   0  0  0  0  0  0  0  0  0  0  0  0
   32.2440   26.7850   48.3890 O   0  0  0  0  0  0  0  0  0  0  0  0
   35.7080   29.1660   49.6760 C   0  0  0  0  0  0  0  0  0  0  0  0
   34.7200   29.5940   50.5330 C   0  0  0  0  0  0  0  0  0  0  0  0
   33.4940   29.1430   50.0170 C   0  0  0  0  0  0  0  0  0  0  0  0
   33.8250   28.4610   48.8640 C   0  0  0  0  0  0  0  0  0  0  0  0
   35.1310   28.5020   48.7050 O   0  0  0  0  0  0  0  0  0  0  0  0
   34.7650   30.1720   51.4560 H   0  0  0  0  0  0  0  0  0  0  0  0
   32.4950   29.2750   50.4000 H   0  0  0  0  0  0  0  0  0  0  0  0
   37.1140   29.4580   49.9080 C   0  0  0  0  0  0  0  0  0  0  0  0
   37.7380   28.8000   50.7510 O   0  0  0  0  0  0  0  0  0  0  0  0
   37.6990   30.5120   49.1270 C   0  0  0  0  0  0  0  0  0  0  0  0
   38.0300   31.6800   49.7910 C   0  0  0  0  0  0  0  0  0  0  0  0
   38.5990   32.7280   49.0590 C   0  0  0  0  0  0  0  0  0  0  0  0
   38.7990   32.5380   47.7130 N   0  0  0  0  0  0  0  0  0  0  0  0
   38.4680   31.3980   47.1050 C   0  0  0  0  0  0  0  0  0  0  0  0
   37.9220   30.3890   47.8010 N   0  0  0  0  0  0  0  0  0  0  0  0
   37.8790   31.8420   50.8400 H   0  0  0  0  0  0  0  0  0  0  0  0
   38.8620   33.6470   49.5740 H   0  0  0  0  0  0  0  0  0  0  0  0
   38.6210   31.2390   46.0470 H   0  0  0  0  0  0  0  0  0  0  0  0
   32.6730   28.2900   46.5790 C   0  0  1  0  0  0  0  0  0  0  0  0
   32.2510   27.1080   45.6180 C   0  0  0  0  0  0  0  0  0  0  0  0
   31.3750   28.2410   45.9030 C   0  0  1  0  0  0  0  0  0  0  0  0
   33.5880   28.7670   46.1540 H   0  0  0  0  0  0  0  0  0  0  0  0
   32.7780   27.0620   44.6440 H   0  0  0  0  0  0  0  0  0  0  0  0
   32.1450   26.1180   46.0730 H   0  0  0  0  0  0  0  0  0  0  0  0
   31.3080   29.0380   45.0900 H   0  0  0  0  0  0  0  0  0  0  0  0
   29.4540   26.8320   46.4490 C   0  0  0  0  0  3  0  0  0  0  0  0
   30.0840   28.0680   46.6030 C   0  0  0  0  0  0  0  0  0  0  0  0
   29.4210   28.9700   47.4070 C   0  0  0  0  0  0  0  0  0  0  0  0
   29.8980   29.9210   47.5440 H   0  0  0  0  0  0  0  0  0  0  0  0
   28.2210   28.6530   48.0070 C   0  0  0  0  0  0  0  0  0  0  0  0
   27.6100   27.4400   47.8540 C   0  0  0  0  0  0  0  0  0  0  0  0
   28.2370   26.5060   47.0570 C   0  0  0  0  0  3  0  0  0  0  0  0
   26.4280   27.4310   48.5760 O   0  0  0  0  0  0  0  0  0  0  0  0
   26.4710   28.5580   49.4320 C   0  0  0  0  0  3  0  0  0  0  0  0
   25.4890   29.0360   49.4250 H   0  0  0  0  0  0  0  0  0  0  0  0
   27.4240   29.4430   48.8450 O   0  0  0  0  0  0  0  0  0  0  0  0
  1  2  2  0  0  0  0
  1  6  1  0  0  0  0
  3 10  1  0  0  0  0
  3  4  2  0  0  0  0
  4  8  1  0  0  0  0
  5  9  1  0  0  0  0
  5  4  1  0  0  0  0
  6  5  2  0  0  0  0
  7  6  1  0  0  0  0
  7  3  1  0  0  0  0
 10 11  2  0  0  0  0
 12 13  1  0  0  0  0
 12 10  1  0  0  0  0
 13 18  1  0  0  0  0
 14 19  1  0  0  0  0
 14 13  2  0  0  0  0
 15 14  1  0  0  0  0
 16 15  2  0  0  0  0
 16 17  1  0  0  0  0
 17 12  2  0  0  0  0
 20 16  1  0  0  0  0
 21 24  1  6  0  0  0
 21  1  1  0  0  0  0
 22 23  1  0  0  0  0
 22 26  1  0  0  0  0
 22 21  1  0  0  0  0
 23 27  1  6  0  0  0
 23 21  1  0  0  0  0
 23 29  1  0  0  0  0
 25 22  1  0  0  0  0
 28 29  2  0  0  0  0
 28 34  1  0  0  0  0
 29 30  1  0  0  0  0
 30 31  1  0  0  0  0
 30 32  2  0  0  0  0
 32 38  1  0  0  0  0
 33 32  1  0  0  0  0
 33 35  1  0  0  0  0
 34 33  2  0  0  0  0
 35 36  1  0  0  0  0
 37 36  1  0  0  0  0
 38 36  1  0  0  0  0
M  END
>  <minimizedAffinity>
-6.29755688

>  <minimizedRMSD>
1.95707238

$$$$
