
 OpenBabel03272507133D

 42 47  0  0  0  0  0  0  0  0999 V2000
   35.8790   29.1230   49.8390 C   0  0  0  0  0  0  0  0  0  0  0  0
   34.8370   29.6690   50.5360 C   0  0  0  0  0  0  0  0  0  0  0  0
   33.6690   29.1020   50.0170 C   0  0  0  0  0  0  0  0  0  0  0  0
   34.0870   28.2210   49.0070 C   0  0  0  0  0  0  0  0  0  0  0  0
   35.3820   28.2880   48.9650 O   0  0  0  0  0  0  0  0  0  0  0  0
   34.8810   30.4060   51.3460 H   0  0  0  0  0  0  0  0  0  0  0  0
   32.6960   29.3600   50.3890 H   0  0  0  0  0  0  0  0  0  0  0  0
   33.5390   26.4900   47.3140 C   0  0  0  0  0  0  0  0  0  0  0  0
   33.1380   27.4430   48.2360 C   0  0  0  0  0  0  0  0  0  0  0  0
   31.8070   27.6880   48.4560 C   0  0  0  0  0  0  0  0  0  0  0  0
   30.8620   26.9650   47.7400 C   0  0  0  0  0  0  0  0  0  0  0  0
   29.5230   26.9950   47.7520 N   0  0  0  0  0  0  0  0  0  0  0  0
   29.0960   26.0910   46.8680 N   0  0  0  0  0  0  0  0  0  0  0  0
   30.1560   25.4920   46.2990 C   0  0  0  0  0  0  0  0  0  0  0  0
   31.3180   26.0260   46.8330 C   0  0  0  0  0  0  0  0  0  0  0  0
   32.6450   25.7600   46.5920 C   0  0  0  0  0  0  0  0  0  0  0  0
   34.6070   26.3080   47.1500 H   0  0  0  0  0  0  0  0  0  0  0  0
   31.3980   28.4250   49.1660 H   0  0  0  0  0  0  0  0  0  0  0  0
   28.8890   27.6100   48.3420 H   0  0  0  0  0  0  0  0  0  0  0  0
   30.1680   24.7040   45.5330 H   0  0  0  0  0  0  0  0  0  0  0  0
   32.9890   25.0270   45.8830 H   0  0  0  0  0  0  0  0  0  0  0  0
   37.2550   29.4840   50.1150 C   0  0  0  0  0  0  0  0  0  0  0  0
   37.8920   28.8320   50.9860 O   0  0  0  0  0  0  0  0  0  0  0  0
   37.8200   30.5820   49.3650 C   0  0  0  0  0  0  0  0  0  0  0  0
   38.1070   31.7500   50.0660 C   0  0  0  0  0  0  0  0  0  0  0  0
   38.6550   32.8280   49.3680 C   0  0  0  0  0  0  0  0  0  0  0  0
   38.8720   32.6580   48.0340 N   0  0  0  0  0  0  0  0  0  0  0  0
   38.5890   31.5330   47.3890 C   0  0  0  0  0  0  0  0  0  0  0  0
   38.0630   30.4990   48.0600 N   0  0  0  0  0  0  0  0  0  0  0  0
   37.9060   31.8020   51.1240 H   0  0  0  0  0  0  0  0  0  0  0  0
   38.8680   33.7210   49.9380 H   0  0  0  0  0  0  0  0  0  0  0  0
   39.0510   30.1630   45.3890 C   0  0  0  0  0  3  0  0  0  0  0  0
   38.8400   31.4030   45.9580 C   0  0  0  0  0  0  0  0  0  0  0  0
   38.8770   32.4950   45.1250 C   0  0  0  0  0  0  0  0  0  0  0  0
   38.7190   33.4820   45.5210 H   0  0  0  0  0  0  0  0  0  0  0  0
   39.1180   32.3500   43.7630 C   0  0  0  0  0  0  0  0  0  0  0  0
   39.3300   31.1100   43.1940 C   0  0  0  0  0  0  0  0  0  0  0  0
   39.2900   30.0210   44.0380 C   0  0  0  0  0  3  0  0  0  0  0  0
   39.5420   31.2920   41.8220 O   0  0  0  0  0  0  0  0  0  0  0  0
   39.1610   32.6230   41.5240 C   0  0  0  0  0  3  0  0  0  0  0  0
   38.1060   32.6550   41.1670 H   0  0  0  0  0  0  0  0  0  0  0  0
   39.1940   33.3160   42.7720 O   0  0  0  0  0  0  0  0  0  0  0  0
  1 22  1  0  0  0  0
  1  2  2  0  0  0  0
  2  6  1  0  0  0  0
  3  7  1  0  0  0  0
  3  2  1  0  0  0  0
  4  3  2  0  0  0  0
  5  4  1  0  0  0  0
  5  1  1  0  0  0  0
  8  9  1  0  0  0  0
  9 10  2  0  0  0  0
  9  4  1  0  0  0  0
 10 18  1  0  0  0  0
 11 12  1  0  0  0  0
 11 10  1  0  0  0  0
 12 19  1  0  0  0  0
 13 12  1  0  0  0  0
 14 15  1  0  0  0  0
 14 13  2  0  0  0  0
 15 11  2  0  0  0  0
 16 15  1  0  0  0  0
 16  8  2  0  0  0  0
 17  8  1  0  0  0  0
 20 14  1  0  0  0  0
 21 16  1  0  0  0  0
 22 23  2  0  0  0  0
 24 25  1  0  0  0  0
 24 22  1  0  0  0  0
 25 30  1  0  0  0  0
 26 31  1  0  0  0  0
 26 25  2  0  0  0  0
 27 26  1  0  0  0  0
 28 27  2  0  0  0  0
 28 29  1  0  0  0  0
 29 24  2  0  0  0  0
 32 33  1  0  0  0  0
 33 28  1  0  0  0  0
 34 35  1  0  0  0  0
 34 33  2  0  0  0  0
 36 34  1  0  0  0  0
 37 36  2  0  0  0  0
 37 38  1  0  0  0  0
 38 32  2  0  0  0  0
 39 37  1  0  0  0  0
 40 39  1  0  0  0  0
 40 42  1  0  0  0  0
 41 40  1  0  0  0  0
 42 36  1  0  0  0  0
M  END
>  <minimizedAffinity>
-7.53377438

>  <minimizedRMSD>
0.309775025

$$$$
