
 OpenBabel03272510163D

 30 33  0  0  0  0  0  0  0  0999 V2000
   37.4160   29.8720   51.4910 Br  0  0  0  0  0  0  0  0  0  0  0  0
   36.0750   29.6430   50.1450 C   0  0  0  0  0  0  0  0  0  0  0  0
   36.1010   30.4020   48.9840 C   0  0  0  0  0  0  0  0  0  0  0  0
   35.1020   30.1780   48.0670 C   0  0  0  0  0  0  0  0  0  0  0  0
   34.0850   29.2510   48.2350 C   0  0  0  0  0  0  0  0  0  0  0  0
   34.0990   28.5240   49.3980 C   0  0  0  0  0  0  0  0  0  0  0  0
   35.0860   28.7220   50.3420 C   0  0  0  0  0  0  0  0  0  0  0  0
   35.1160   30.7670   47.1520 H   0  0  0  0  0  0  0  0  0  0  0  0
   33.3140   27.7870   49.5610 H   0  0  0  0  0  0  0  0  0  0  0  0
   35.0600   28.1190   51.2590 H   0  0  0  0  0  0  0  0  0  0  0  0
   32.9730   30.0210   46.2350 C   0  0  0  0  0  3  0  0  0  0  0  0
   33.0590   29.0640   47.2240 C   0  0  0  0  0  0  0  0  0  0  0  0
   32.1840   27.9970   47.2100 C   0  0  0  0  0  0  0  0  0  0  0  0
   32.2460   27.2520   47.9730 H   0  0  0  0  0  0  0  0  0  0  0  0
   31.2450   27.9090   46.2110 C   0  0  0  0  0  0  0  0  0  0  0  0
   31.1610   28.8780   45.2110 C   0  0  0  0  0  0  0  0  0  0  0  0
   32.0330   29.9660   45.2010 C   0  0  0  0  0  3  0  0  0  0  0  0
   30.1380   28.5890   44.2980 O   0  0  0  0  0  0  0  0  0  0  0  0
   29.8820   27.1970   44.5360 C   0  0  0  0  0  3  0  0  0  0  0  0
   28.8430   26.9470   44.3240 H   0  0  0  0  0  0  0  0  0  0  0  0
   30.2300   26.9920   45.8920 O   0  0  0  0  0  0  0  0  0  0  0  0
   38.1260   33.4040   49.3940 C   0  0  0  0  0  0  0  0  0  0  0  0
   39.1150   33.2880   48.3920 C   0  0  0  0  0  0  0  0  0  0  0  0
   39.0680   32.1620   47.5780 C   0  0  0  0  0  0  0  0  0  0  0  0
   38.0840   31.2210   47.7730 N   0  0  0  0  0  0  0  0  0  0  0  0
   37.1530   31.3890   48.7610 C   0  0  0  0  0  0  0  0  0  0  0  0
   37.1830   32.4720   49.5580 N   0  0  0  0  0  0  0  0  0  0  0  0
   38.2010   34.2950   50.0040 H   0  0  0  0  0  0  0  0  0  0  0  0
   39.8940   34.0190   48.2270 H   0  0  0  0  0  0  0  0  0  0  0  0
   39.7680   31.9620   46.7780 H   0  0  0  0  0  0  0  0  0  0  0  0
  2  7  1  0  0  0  0
  2  1  1  0  0  0  0
  3  2  2  0  0  0  0
  4  5  2  0  0  0  0
  4  3  1  0  0  0  0
  5  6  1  0  0  0  0
  6  9  1  0  0  0  0
  6  7  2  0  0  0  0
  7 10  1  0  0  0  0
  8  4  1  0  0  0  0
 11 12  1  0  0  0  0
 12  5  1  0  0  0  0
 13 12  2  0  0  0  0
 13 14  1  0  0  0  0
 15 13  1  0  0  0  0
 16 15  2  0  0  0  0
 17 16  1  0  0  0  0
 17 11  2  0  0  0  0
 18 19  1  0  0  0  0
 18 16  1  0  0  0  0
 19 21  1  0  0  0  0
 20 19  1  0  0  0  0
 21 15  1  0  0  0  0
 22 27  1  0  0  0  0
 22 28  1  0  0  0  0
 23 22  2  0  0  0  0
 24 25  2  0  0  0  0
 24 23  1  0  0  0  0
 25 26  1  0  0  0  0
 26  3  1  0  0  0  0
 26 27  2  0  0  0  0
 29 23  1  0  0  0  0
 30 24  1  0  0  0  0
M  END
>  <minimizedAffinity>
-6.12471199

>  <minimizedRMSD>
1.05511785

$$$$
