
 OpenBabel03272505513D

 46 50  0  0  1  0  0  0  0  0999 V2000
   37.1970   29.2390   50.5160 C   0  0  0  0  0  0  0  0  0  0  0  0
   37.3640   30.6100   50.8130 C   0  0  0  0  0  0  0  0  0  0  0  0
   36.6280   31.5140   50.0520 C   0  0  0  0  0  0  0  0  0  0  0  0
   35.8060   31.0270   49.0850 N   0  0  0  0  0  0  0  0  0  0  0  0
   35.6820   29.7260   48.8420 C   0  0  0  0  0  0  0  0  0  0  0  0
   36.3740   28.8270   49.5530 N   0  0  0  0  0  0  0  0  0  0  0  0
   34.8100   29.2800   47.8170 N   0  0  0  0  0  0  0  0  0  0  0  0
   34.1630   27.9830   47.8720 C   0  0  0  0  0  0  0  0  0  0  0  0
   32.6840   28.1370   47.7040 C   0  0  0  0  0  0  0  0  0  0  0  0
   32.2400   29.3570   47.2330 N   0  0  0  0  0  0  0  0  0  0  0  0
   33.0870   30.2110   46.4430 C   0  0  0  0  0  0  0  0  0  0  0  0
   34.5180   30.1060   46.6550 C   0  0  2  0  0  0  0  0  0  0  0  0
   37.7940   28.5820   51.1390 H   0  0  0  0  0  0  0  0  0  0  0  0
   38.0110   30.9970   51.5750 H   0  0  0  0  0  0  0  0  0  0  0  0
   36.6630   32.5900   50.1780 H   0  0  0  0  0  0  0  0  0  0  0  0
   34.3040   27.6270   48.9410 H   0  0  0  0  0  0  0  0  0  0  0  0
   34.6420   27.2070   47.2770 H   0  0  0  0  0  0  0  0  0  0  0  0
   32.1020   27.8500   48.6040 H   0  0  0  0  0  0  0  0  0  0  0  0
   32.3990   27.3400   46.9530 H   0  0  0  0  0  0  0  0  0  0  0  0
   31.5260   29.8100   47.8020 H   0  0  0  0  0  0  0  0  0  0  0  0
   32.7920   31.2480   46.8310 H   0  0  0  0  0  0  0  0  0  0  0  0
   32.6350   30.2210   45.4630 H   0  0  0  0  0  0  0  0  0  0  0  0
   35.0100   31.1080   46.8520 H   0  0  0  0  0  0  0  0  0  0  0  0
   35.2530   29.5390   45.5380 N   0  0  2  0  0  0  0  0  0  0  0  0
   36.4230   30.3510   45.2070 C   0  0  0  0  0  0  0  0  0  0  0  0
   36.5830   30.3040   43.7000 C   0  0  0  0  0  0  0  0  0  0  0  0
   35.5860   29.2780   43.2900 C   0  0  0  0  0  0  0  0  0  0  0  0
   34.4810   29.4160   44.3550 C   0  0  1  0  0  0  0  0  0  0  0  0
   36.3350   31.3800   45.5890 H   0  0  0  0  0  0  0  0  0  0  0  0
   37.2980   29.8520   45.6700 H   0  0  0  0  0  0  0  0  0  0  0  0
   37.5940   29.9670   43.4080 H   0  0  0  0  0  0  0  0  0  0  0  0
   36.3200   31.2920   43.2790 H   0  0  0  0  0  0  0  0  0  0  0  0
   35.1630   29.4460   42.2720 H   0  0  0  0  0  0  0  0  0  0  0  0
   35.9810   28.2430   43.3120 H   0  0  0  0  0  0  0  0  0  0  0  0
   33.9710   30.2970   43.9670 H   0  0  0  0  0  0  0  0  0  0  0  0
   32.4660   27.9400   43.7300 C   0  0  0  0  0  3  0  0  0  0  0  0
   33.7580   28.1300   44.1740 C   0  0  0  0  0  0  0  0  0  0  0  0
   34.4410   26.9650   44.4700 C   0  0  0  0  0  0  0  0  0  0  0  0
   35.4790   26.9270   44.8390 H   0  0  0  0  0  0  0  0  0  0  0  0
   33.8910   25.7070   44.3400 C   0  0  0  0  0  0  0  0  0  0  0  0
   32.5940   25.5710   43.8910 C   0  0  0  0  0  0  0  0  0  0  0  0
   31.8760   26.7060   43.5830 C   0  0  0  0  0  3  0  0  0  0  0  0
   32.2820   24.2020   43.8490 O   0  0  0  0  0  0  0  0  0  0  0  0
   33.4890   23.4600   43.9860 C   0  0  0  0  0  3  0  0  0  0  0  0
   33.3820   22.6380   44.7230 H   0  0  0  0  0  0  0  0  0  0  0  0
   34.3530   24.3980   44.5660 O   0  0  0  0  0  0  0  0  0  0  0  0
  1  2  1  0  0  0  0
  1 13  1  0  0  0  0
  2 14  1  0  0  0  0
  3 15  1  0  0  0  0
  3  2  2  0  0  0  0
  4  3  1  0  0  0  0
  5  4  2  0  0  0  0
  5  6  1  0  0  0  0
  6  1  2  0  0  0  0
  7  8  1  0  0  0  0
  7  5  1  0  0  0  0
  8 16  1  0  0  0  0
  9  8  1  0  0  0  0
  9 18  1  0  0  0  0
 10  9  1  0  0  0  0
 10 20  1  0  0  0  0
 11 12  1  0  0  0  0
 11 21  1  0  0  0  0
 11 10  1  0  0  0  0
 12 23  1  1  0  0  0
 12  7  1  0  0  0  0
 17  8  1  0  0  0  0
 19  9  1  0  0  0  0
 22 11  1  0  0  0  0
 24 25  1  6  0  0  0
 24 12  1  0  0  0  0
 25 29  1  0  0  0  0
 25 30  1  0  0  0  0
 26 25  1  0  0  0  0
 27 34  1  0  0  0  0
 27 26  1  0  0  0  0
 27 28  1  0  0  0  0
 28 35  1  6  0  0  0
 28 24  1  0  0  0  0
 31 26  1  0  0  0  0
 32 26  1  0  0  0  0
 33 27  1  0  0  0  0
 36 37  1  0  0  0  0
 37 28  1  0  0  0  0
 37 38  2  0  0  0  0
 38 39  1  0  0  0  0
 40 38  1  0  0  0  0
 40 46  1  0  0  0  0
 41 40  2  0  0  0  0
 42 36  2  0  0  0  0
 42 41  1  0  0  0  0
 43 41  1  0  0  0  0
 43 44  1  0  0  0  0
 44 46  1  0  0  0  0
 44 45  1  0  0  0  0
M  END
>  <minimizedAffinity>
-4.76912022

>  <minimizedRMSD>
1.02808356

$$$$
