
 OpenBabel03272508303D

 34 37  0  0  1  0  0  0  0  0999 V2000
   35.7180   30.0810   46.5350 N   0  0  0  0  0  0  0  0  0  0  0  0
   34.8770   30.4160   45.3920 C   0  0  0  0  0  0  0  0  0  0  0  0
   35.6330   30.5400   44.1240 C   0  0  0  0  0  0  0  0  0  0  0  0
   36.8550   29.7850   44.2030 N   0  0  0  0  0  0  0  0  0  0  0  0
   37.7100   30.4760   45.1580 C   0  0  0  0  0  0  0  0  0  0  0  0
   37.1730   30.0940   46.5130 C   0  0  1  0  0  0  0  0  0  0  0  0
   34.1370   29.5910   45.3010 H   0  0  0  0  0  0  0  0  0  0  0  0
   34.2400   31.3190   45.6200 H   0  0  0  0  0  0  0  0  0  0  0  0
   35.0290   30.1120   43.2810 H   0  0  0  0  0  0  0  0  0  0  0  0
   35.8140   31.5940   43.8150 H   0  0  0  0  0  0  0  0  0  0  0  0
   37.3020   29.6970   43.2730 H   0  0  0  0  0  0  0  0  0  0  0  0
   38.7610   30.1080   45.1090 H   0  0  0  0  0  0  0  0  0  0  0  0
   37.6510   31.5620   44.9430 H   0  0  0  0  0  0  0  0  0  0  0  0
   37.4840   29.0440   46.6960 H   0  0  0  0  0  0  0  0  0  0  0  0
   37.8690   30.5490   48.9080 C   0  0  0  0  0  3  0  0  0  0  0  0
   37.7440   30.9450   47.5930 C   0  0  0  0  0  0  0  0  0  0  0  0
   38.1670   32.2130   47.2090 C   0  0  0  0  0  0  0  0  0  0  0  0
   38.1100   32.6090   46.2060 H   0  0  0  0  0  0  0  0  0  0  0  0
   38.7030   33.0330   48.1760 C   0  0  0  0  0  0  0  0  0  0  0  0
   38.8220   32.6150   49.5040 C   0  0  0  0  0  0  0  0  0  0  0  0
   38.3990   31.3460   49.8950 C   0  0  0  0  0  3  0  0  0  0  0  0
   39.3980   33.6510   50.2610 O   0  0  0  0  0  0  0  0  0  0  0  0
   39.9960   34.5380   49.3360 C   0  0  0  0  0  3  0  0  0  0  0  0
   41.0540   34.2140   49.2150 H   0  0  0  0  0  0  0  0  0  0  0  0
   39.2210   34.3380   48.1670 O   0  0  0  0  0  0  0  0  0  0  0  0
   34.8860   28.3770   48.1060 C   0  0  0  0  0  0  0  0  0  0  0  0
   35.0950   29.7140   47.7590 C   0  0  0  0  0  0  0  0  0  0  0  0
   34.6660   30.6750   48.6650 C   0  0  0  0  0  0  0  0  0  0  0  0
   34.0720   30.2840   49.8340 N   0  0  0  0  0  0  0  0  0  0  0  0
   33.8990   28.9690   50.1100 C   0  0  0  0  0  0  0  0  0  0  0  0
   34.2990   27.9980   49.2560 N   0  0  0  0  0  0  0  0  0  0  0  0
   35.2050   27.6020   47.4280 H   0  0  0  0  0  0  0  0  0  0  0  0
   34.8020   31.7230   48.4510 H   0  0  0  0  0  0  0  0  0  0  0  0
   33.4330   28.6090   51.0200 H   0  0  0  0  0  0  0  0  0  0  0  0
  1 27  1  0  0  0  0
  2  8  1  0  0  0  0
  2  1  1  0  0  0  0
  3  4  1  0  0  0  0
  3  2  1  0  0  0  0
  4  5  1  0  0  0  0
  5  6  1  0  0  0  0
  6  1  1  0  0  0  0
  6 14  1  1  0  0  0
  6 16  1  0  0  0  0
  7  2  1  0  0  0  0
  9  3  1  0  0  0  0
 10  3  1  0  0  0  0
 11  4  1  0  0  0  0
 12  5  1  0  0  0  0
 13  5  1  0  0  0  0
 15 21  1  0  0  0  0
 16 15  2  0  0  0  0
 17 16  1  0  0  0  0
 17 19  2  0  0  0  0
 18 17  1  0  0  0  0
 19 20  1  0  0  0  0
 20 21  2  0  0  0  0
 20 22  1  0  0  0  0
 23 22  1  0  0  0  0
 24 23  1  0  0  0  0
 25 19  1  0  0  0  0
 25 23  1  0  0  0  0
 26 31  1  0  0  0  0
 27 26  2  0  0  0  0
 27 28  1  0  0  0  0
 28 29  2  0  0  0  0
 29 30  1  0  0  0  0
 30 34  1  0  0  0  0
 31 30  2  0  0  0  0
 32 26  1  0  0  0  0
 33 28  1  0  0  0  0
M  END
>  <minimizedAffinity>
-3.96586895

>  <minimizedRMSD>
3.63823795

$$$$
