
 OpenBabel03272508473D

 42 47  0  0  0  0  0  0  0  0999 V2000
   35.5890   29.7680   49.7020 C   0  0  0  0  0  0  0  0  0  0  0  0
   36.5430   29.7240   50.7010 C   0  0  0  0  0  0  0  0  0  0  0  0
   37.6750   30.2660   50.0960 C   0  0  0  0  0  0  0  0  0  0  0  0
   37.3710   30.6060   48.7930 C   0  0  0  0  0  0  0  0  0  0  0  0
   36.1090   30.2910   48.5960 O   0  0  0  0  0  0  0  0  0  0  0  0
   36.5000   29.3740   51.7170 H   0  0  0  0  0  0  0  0  0  0  0  0
   38.6650   30.4220   50.5220 H   0  0  0  0  0  0  0  0  0  0  0  0
   38.7560   32.4690   48.0260 C   0  0  0  0  0  0  0  0  0  0  0  0
   38.2640   31.2000   47.8140 C   0  0  0  0  0  0  0  0  0  0  0  0
   38.5980   30.4620   46.6790 C   0  0  0  0  0  0  0  0  0  0  0  0
   39.4450   30.9970   45.7280 C   0  0  0  0  0  0  0  0  0  0  0  0
   39.9520   30.5700   44.5590 N   0  0  0  0  0  0  0  0  0  0  0  0
   40.7270   31.5460   44.0790 N   0  0  0  0  0  0  0  0  0  0  0  0
   40.7260   32.5980   44.9210 C   0  0  0  0  0  0  0  0  0  0  0  0
   39.9080   32.2760   45.9960 C   0  0  0  0  0  0  0  0  0  0  0  0
   39.6220   33.0580   47.0870 C   0  0  0  0  0  0  0  0  0  0  0  0
   38.4880   33.0360   48.9150 H   0  0  0  0  0  0  0  0  0  0  0  0
   38.2230   29.4730   46.5000 H   0  0  0  0  0  0  0  0  0  0  0  0
   39.7700   29.6450   44.1170 H   0  0  0  0  0  0  0  0  0  0  0  0
   41.2750   33.5300   44.7720 H   0  0  0  0  0  0  0  0  0  0  0  0
   40.0280   34.0310   47.2040 H   0  0  0  0  0  0  0  0  0  0  0  0
   34.2230   29.3090   49.8470 C   0  0  0  0  0  0  0  0  0  0  0  0
   33.6220   29.5850   50.9110 O   0  0  0  0  0  0  0  0  0  0  0  0
   31.8090   27.2140   48.0850 C   0  0  0  0  0  0  0  0  0  0  0  0
   32.3550   27.1210   46.8110 C   0  0  0  0  0  0  0  0  0  0  0  0
   33.5350   27.7610   46.5370 C   0  0  0  0  0  0  0  0  0  0  0  0
   34.1160   28.4610   47.5380 N   0  0  0  0  0  0  0  0  0  0  0  0
   33.5800   28.5460   48.7750 C   0  0  0  0  0  0  0  0  0  0  0  0
   32.4270   27.9200   49.0390 N   0  0  0  0  0  0  0  0  0  0  0  0
   30.8770   26.7330   48.3750 H   0  0  0  0  0  0  0  0  0  0  0  0
   31.8420   26.5530   46.0730 H   0  0  0  0  0  0  0  0  0  0  0  0
   34.2470   26.5860   44.4470 C   0  0  0  0  0  0  0  0  0  0  0  0
   34.1700   27.7150   45.2340 C   0  0  0  0  0  0  0  0  0  0  0  0
   34.7490   28.8410   44.6980 C   0  0  0  0  0  0  0  0  0  0  0  0
   34.7350   29.7690   45.2480 H   0  0  0  0  0  0  0  0  0  0  0  0
   35.3680   28.8250   43.4460 C   0  0  0  0  0  0  0  0  0  0  0  0
   35.4230   27.6710   42.6900 C   0  0  0  0  0  0  0  0  0  0  0  0
   34.8440   26.5230   43.2100 C   0  0  0  0  0  0  0  0  0  0  0  0
   36.0890   27.9420   41.5010 O   0  0  0  0  0  0  0  0  0  0  0  0
   36.7590   29.1820   41.6990 C   0  0  0  0  0  0  0  0  0  0  0  0
   37.7740   29.0440   42.1160 H   0  0  0  0  0  0  0  0  0  0  0  0
   36.0090   29.8320   42.7210 O   0  0  0  0  0  0  0  0  0  0  0  0
  1 22  1  0  0  0  0
  1  2  2  0  0  0  0
  2  6  1  0  0  0  0
  3  7  1  0  0  0  0
  3  2  1  0  0  0  0
  4  3  2  0  0  0  0
  5  4  1  0  0  0  0
  5  1  1  0  0  0  0
  8 17  1  0  0  0  0
  9  8  1  0  0  0  0
  9  4  1  0  0  0  0
 10  9  2  0  0  0  0
 11 15  2  0  0  0  0
 11 10  1  0  0  0  0
 12 11  1  0  0  0  0
 13 12  1  0  0  0  0
 13 14  2  0  0  0  0
 14 15  1  0  0  0  0
 15 16  1  0  0  0  0
 16 21  1  0  0  0  0
 16  8  2  0  0  0  0
 18 10  1  0  0  0  0
 19 12  1  0  0  0  0
 20 14  1  0  0  0  0
 22 23  2  0  0  0  0
 24 30  1  0  0  0  0
 24 29  1  0  0  0  0
 25 24  2  0  0  0  0
 26 25  1  0  0  0  0
 26 27  2  0  0  0  0
 27 28  1  0  0  0  0
 28 29  2  0  0  0  0
 28 22  1  0  0  0  0
 31 25  1  0  0  0  0
 32 33  1  0  0  0  0
 33 26  1  0  0  0  0
 34 33  2  0  0  0  0
 34 35  1  0  0  0  0
 36 34  1  0  0  0  0
 37 38  1  0  0  0  0
 37 36  2  0  0  0  0
 38 32  2  0  0  0  0
 39 40  1  0  0  0  0
 39 37  1  0  0  0  0
 40 41  1  0  0  0  0
 40 42  1  0  0  0  0
 42 36  1  0  0  0  0
M  END
>  <minimizedAffinity>
-6.85065556

>  <minimizedRMSD>
2.36909819

$$$$
