
 OpenBabel03272507453D

 35 38  0  0  0  0  0  0  0  0999 V2000
   39.1220   24.8840   34.8100 N   0  0  0  0  0  0  0  0  0  0  0  0
   39.9700   25.9750   34.4250 C   0  0  0  0  0  0  0  0  0  0  0  0
   39.3950   27.0200   33.5710 C   0  0  0  0  0  0  0  0  0  0  0  0
   38.2720   26.6650   32.6830 C   0  0  0  0  0  0  0  0  0  0  0  0
   37.4560   25.4820   33.1600 C   0  0  0  0  0  0  0  0  0  0  0  0
   38.4370   24.3960   33.6300 C   0  0  0  0  0  0  0  0  0  0  0  0
   40.3450   26.4480   35.3760 H   0  0  0  0  0  0  0  0  0  0  0  0
   40.8870   25.5350   33.9640 H   0  0  0  0  0  0  0  0  0  0  0  0
   40.2090   27.4500   32.9380 H   0  0  0  0  0  0  0  0  0  0  0  0
   39.0760   27.8970   34.2040 H   0  0  0  0  0  0  0  0  0  0  0  0
   38.6440   26.3490   31.6660 H   0  0  0  0  0  0  0  0  0  0  0  0
   36.7720   25.7880   33.9620 H   0  0  0  0  0  0  0  0  0  0  0  0
   36.9230   25.0280   32.2880 H   0  0  0  0  0  0  0  0  0  0  0  0
   39.1000   24.1850   32.7750 H   0  0  0  0  0  0  0  0  0  0  0  0
   37.8690   23.4690   33.8080 H   0  0  0  0  0  0  0  0  0  0  0  0
   37.2670   28.3710   31.2040 C   0  0  0  0  0  3  0  0  0  0  0  0
   37.2930   27.7730   32.4460 C   0  0  0  0  0  0  0  0  0  0  0  0
   36.4770   28.1160   33.5090 C   0  0  0  0  0  0  0  0  0  0  0  0
   36.4910   27.6610   34.4680 H   0  0  0  0  0  0  0  0  0  0  0  0
   35.5670   29.1510   33.2770 C   0  0  0  0  0  0  0  0  0  0  0  0
   35.5350   29.7550   32.0360 C   0  0  0  0  0  0  0  0  0  0  0  0
   36.3600   29.3970   30.9880 C   0  0  0  0  0  3  0  0  0  0  0  0
   34.5630   30.7610   32.0060 O   0  0  0  0  0  0  0  0  0  0  0  0
   33.7830   30.5420   33.1800 C   0  0  0  0  0  3  0  0  0  0  0  0
   33.4390   31.4980   33.6250 H   0  0  0  0  0  0  0  0  0  0  0  0
   34.5960   29.7870   34.0470 O   0  0  0  0  0  0  0  0  0  0  0  0
   38.9660   24.3560   36.1220 C   0  0  0  0  0  0  0  0  0  0  0  0
   37.9940   24.7600   37.0480 C   0  0  0  0  0  0  0  0  0  0  0  0
   37.9960   24.1260   38.2850 C   0  0  0  0  0  0  0  0  0  0  0  0
   38.9270   23.1590   38.5350 N   0  0  0  0  0  0  0  0  0  0  0  0
   39.8340   22.8050   37.6230 C   0  0  0  0  0  0  0  0  0  0  0  0
   39.8520   23.3970   36.4350 N   0  0  0  0  0  0  0  0  0  0  0  0
   37.3290   25.5190   36.7350 H   0  0  0  0  0  0  0  0  0  0  0  0
   37.2320   24.4650   38.9710 H   0  0  0  0  0  0  0  0  0  0  0  0
   40.5210   22.0250   37.9370 H   0  0  0  0  0  0  0  0  0  0  0  0
  1 27  1  0  0  0  0
  2  1  1  0  0  0  0
  2  7  1  0  0  0  0
  3 10  1  0  0  0  0
  3  2  1  0  0  0  0
  4  5  1  0  0  0  0
  4  3  1  0  0  0  0
  5  6  1  0  0  0  0
  5 12  1  0  0  0  0
  6 15  1  0  0  0  0
  6  1  1  0  0  0  0
  8  2  1  0  0  0  0
  9  3  1  0  0  0  0
 11  4  1  0  0  0  0
 13  5  1  0  0  0  0
 14  6  1  0  0  0  0
 16 17  1  0  0  0  0
 17  4  1  0  0  0  0
 17 18  2  0  0  0  0
 18 19  1  0  0  0  0
 20 18  1  0  0  0  0
 20 26  1  0  0  0  0
 21 20  2  0  0  0  0
 22 16  2  0  0  0  0
 22 21  1  0  0  0  0
 23 21  1  0  0  0  0
 23 24  1  0  0  0  0
 24 25  1  0  0  0  0
 24 26  1  0  0  0  0
 27 32  2  0  0  0  0
 27 28  1  0  0  0  0
 28 29  2  0  0  0  0
 29 30  1  0  0  0  0
 29 34  1  0  0  0  0
 31 35  1  0  0  0  0
 31 30  2  0  0  0  0
 32 31  1  0  0  0  0
 33 28  1  0  0  0  0
M  END
>  <minimizedAffinity>
-5.57045412

$$$$

 OpenBabel03272507453D

 35 38  0  0  0  0  0  0  0  0999 V2000
   39.2180   24.8130   34.7110 N   0  0  0  0  0  0  0  0  0  0  0  0
   40.0290   25.9300   34.3240 C   0  0  0  0  0  0  0  0  0  0  0  0
   39.3840   27.0200   33.5850 C   0  0  0  0  0  0  0  0  0  0  0  0
   38.1920   26.7120   32.7720 C   0  0  0  0  0  0  0  0  0  0  0  0
   37.4200   25.4980   33.2440 C   0  0  0  0  0  0  0  0  0  0  0  0
   38.4380   24.3920   33.5650 C   0  0  0  0  0  0  0  0  0  0  0  0
   40.4810   26.3480   35.2670 H   0  0  0  0  0  0  0  0  0  0  0  0
   40.9060   25.5240   33.7640 H   0  0  0  0  0  0  0  0  0  0  0  0
   40.1430   27.4930   32.9140 H   0  0  0  0  0  0  0  0  0  0  0  0
   39.1170   27.8560   34.2940 H   0  0  0  0  0  0  0  0  0  0  0  0
   38.4790   26.4590   31.7110 H   0  0  0  0  0  0  0  0  0  0  0  0
   36.8040   25.7510   34.1160 H   0  0  0  0  0  0  0  0  0  0  0  0
   36.8170   25.0920   32.3930 H   0  0  0  0  0  0  0  0  0  0  0  0
   39.0280   24.2360   32.6470 H   0  0  0  0  0  0  0  0  0  0  0  0
   37.8880   23.4520   33.7340 H   0  0  0  0  0  0  0  0  0  0  0  0
   37.0540   28.4850   31.4820 C   0  0  0  0  0  3  0  0  0  0  0  0
   37.1950   27.8250   32.6840 C   0  0  0  0  0  0  0  0  0  0  0  0
   36.4820   28.1110   33.8350 C   0  0  0  0  0  0  0  0  0  0  0  0
   36.5850   27.6080   34.7640 H   0  0  0  0  0  0  0  0  0  0  0  0
   35.5550   29.1520   33.7410 C   0  0  0  0  0  0  0  0  0  0  0  0
   35.4060   29.8180   32.5400 C   0  0  0  0  0  0  0  0  0  0  0  0
   36.1300   29.5160   31.4030 C   0  0  0  0  0  3  0  0  0  0  0  0
   34.4360   30.8200   32.6510 O   0  0  0  0  0  0  0  0  0  0  0  0
   33.7690   30.5380   33.8800 C   0  0  0  0  0  3  0  0  0  0  0  0
   33.4680   31.4690   34.4030 H   0  0  0  0  0  0  0  0  0  0  0  0
   34.6590   29.7450   34.6290 O   0  0  0  0  0  0  0  0  0  0  0  0
   39.1710   24.2060   35.9980 C   0  0  0  0  0  0  0  0  0  0  0  0
   40.0610   23.2310   36.4680 C   0  0  0  0  0  0  0  0  0  0  0  0
   39.8560   22.7550   37.7580 C   0  0  0  0  0  0  0  0  0  0  0  0
   38.8180   23.2510   38.4920 N   0  0  0  0  0  0  0  0  0  0  0  0
   37.9940   24.1800   38.0050 C   0  0  0  0  0  0  0  0  0  0  0  0
   38.1690   24.6500   36.7750 N   0  0  0  0  0  0  0  0  0  0  0  0
   40.8250   22.9290   35.8030 H   0  0  0  0  0  0  0  0  0  0  0  0
   40.5640   22.0040   38.0830 H   0  0  0  0  0  0  0  0  0  0  0  0
   37.2060   24.4960   38.6820 H   0  0  0  0  0  0  0  0  0  0  0  0
  1 27  1  0  0  0  0
  2  1  1  0  0  0  0
  2  7  1  0  0  0  0
  3 10  1  0  0  0  0
  3  2  1  0  0  0  0
  4  5  1  0  0  0  0
  4  3  1  0  0  0  0
  5  6  1  0  0  0  0
  5 12  1  0  0  0  0
  6 15  1  0  0  0  0
  6  1  1  0  0  0  0
  8  2  1  0  0  0  0
  9  3  1  0  0  0  0
 11  4  1  0  0  0  0
 13  5  1  0  0  0  0
 14  6  1  0  0  0  0
 16 17  1  0  0  0  0
 17  4  1  0  0  0  0
 17 18  2  0  0  0  0
 18 19  1  0  0  0  0
 20 18  1  0  0  0  0
 20 26  1  0  0  0  0
 21 23  1  0  0  0  0
 21 20  2  0  0  0  0
 22 16  2  0  0  0  0
 22 21  1  0  0  0  0
 23 24  1  0  0  0  0
 24 25  1  0  0  0  0
 24 26  1  0  0  0  0
 27 28  2  0  0  0  0
 27 32  1  0  0  0  0
 28 29  1  0  0  0  0
 29 34  1  0  0  0  0
 29 30  2  0  0  0  0
 31 30  1  0  0  0  0
 31 35  1  0  0  0  0
 32 31  2  0  0  0  0
 33 28  1  0  0  0  0
M  END
>  <minimizedAffinity>
-5.54813623

$$$$

 OpenBabel03272507453D

 35 38  0  0  0  0  0  0  0  0999 V2000
   39.2500   24.8220   34.7290 N   0  0  0  0  0  0  0  0  0  0  0  0
   40.0340   25.9620   34.3520 C   0  0  0  0  0  0  0  0  0  0  0  0
   39.3490   27.0710   33.6790 C   0  0  0  0  0  0  0  0  0  0  0  0
   38.1290   26.7770   32.9020 C   0  0  0  0  0  0  0  0  0  0  0  0
   37.3900   25.5370   33.3580 C   0  0  0  0  0  0  0  0  0  0  0  0
   38.4310   24.4330   33.5990 C   0  0  0  0  0  0  0  0  0  0  0  0
   40.5180   26.3520   35.2920 H   0  0  0  0  0  0  0  0  0  0  0  0
   40.8930   25.5880   33.7440 H   0  0  0  0  0  0  0  0  0  0  0  0
   40.0760   27.5770   32.9970 H   0  0  0  0  0  0  0  0  0  0  0  0
   39.1000   27.8770   34.4280 H   0  0  0  0  0  0  0  0  0  0  0  0
   38.3780   26.5660   31.8220 H   0  0  0  0  0  0  0  0  0  0  0  0
   36.8060   25.7510   34.2610 H   0  0  0  0  0  0  0  0  0  0  0  0
   36.7590   25.1560   32.5160 H   0  0  0  0  0  0  0  0  0  0  0  0
   38.9870   24.3180   32.6540 H   0  0  0  0  0  0  0  0  0  0  0  0
   37.8990   23.4810   33.7540 H   0  0  0  0  0  0  0  0  0  0  0  0
   36.4690   28.1850   34.0710 C   0  0  0  0  0  3  0  0  0  0  0  0
   37.1180   27.8810   32.8930 C   0  0  0  0  0  0  0  0  0  0  0  0
   36.9090   28.5200   31.6840 C   0  0  0  0  0  0  0  0  0  0  0  0
   37.4030   28.2910   30.7730 H   0  0  0  0  0  0  0  0  0  0  0  0
   35.9630   29.5480   31.6880 C   0  0  0  0  0  0  0  0  0  0  0  0
   35.3080   29.8600   32.8640 C   0  0  0  0  0  0  0  0  0  0  0  0
   35.5330   29.2070   34.0600 C   0  0  0  0  0  3  0  0  0  0  0  0
   34.4070   30.9090   32.6600 O   0  0  0  0  0  0  0  0  0  0  0  0
   34.7590   31.4420   31.3830 C   0  0  0  0  0  3  0  0  0  0  0  0
   33.8640   31.7860   30.8260 H   0  0  0  0  0  0  0  0  0  0  0  0
   35.4640   30.4190   30.7210 O   0  0  0  0  0  0  0  0  0  0  0  0
   39.2600   24.1690   35.9930 C   0  0  0  0  0  0  0  0  0  0  0  0
   40.2070   23.2220   36.4100 C   0  0  0  0  0  0  0  0  0  0  0  0
   40.0520   22.6920   37.6860 C   0  0  0  0  0  0  0  0  0  0  0  0
   39.0070   23.1090   38.4570 N   0  0  0  0  0  0  0  0  0  0  0  0
   38.1290   24.0130   38.0200 C   0  0  0  0  0  0  0  0  0  0  0  0
   38.2550   24.5340   36.8060 N   0  0  0  0  0  0  0  0  0  0  0  0
   40.9700   22.9820   35.7200 H   0  0  0  0  0  0  0  0  0  0  0  0
   40.8020   21.9650   37.9690 H   0  0  0  0  0  0  0  0  0  0  0  0
   37.3410   24.2660   38.7240 H   0  0  0  0  0  0  0  0  0  0  0  0
  1 27  1  0  0  0  0
  2  1  1  0  0  0  0
  2  7  1  0  0  0  0
  3  2  1  0  0  0  0
  3 10  1  0  0  0  0
  4  5  1  0  0  0  0
  4  3  1  0  0  0  0
  5  6  1  0  0  0  0
  5 12  1  0  0  0  0
  6 15  1  0  0  0  0
  6  1  1  0  0  0  0
  8  2  1  0  0  0  0
  9  3  1  0  0  0  0
 11  4  1  0  0  0  0
 13  5  1  0  0  0  0
 14  6  1  0  0  0  0
 17  4  1  0  0  0  0
 17 16  2  0  0  0  0
 18 20  2  0  0  0  0
 18 17  1  0  0  0  0
 19 18  1  0  0  0  0
 20 21  1  0  0  0  0
 21 22  2  0  0  0  0
 22 16  1  0  0  0  0
 23 21  1  0  0  0  0
 24 23  1  0  0  0  0
 25 24  1  0  0  0  0
 26 24  1  0  0  0  0
 26 20  1  0  0  0  0
 27 28  2  0  0  0  0
 27 32  1  0  0  0  0
 28 29  1  0  0  0  0
 29 34  1  0  0  0  0
 29 30  2  0  0  0  0
 31 30  1  0  0  0  0
 31 35  1  0  0  0  0
 32 31  2  0  0  0  0
 33 28  1  0  0  0  0
M  END
>  <minimizedAffinity>
-5.49375534

$$$$

 OpenBabel03272507453D

 35 38  0  0  0  0  0  0  0  0999 V2000
   36.4240   33.0220   34.4920 N   0  0  0  0  0  0  0  0  0  0  0  0
   36.1550   32.2060   35.6400 C   0  0  0  0  0  0  0  0  0  0  0  0
   35.9320   30.7720   35.4240 C   0  0  0  0  0  0  0  0  0  0  0  0
   35.4060   30.3310   34.1170 C   0  0  0  0  0  0  0  0  0  0  0  0
   35.7170   31.2750   32.9750 C   0  0  0  0  0  0  0  0  0  0  0  0
   35.4510   32.7070   33.4660 C   0  0  0  0  0  0  0  0  0  0  0  0
   37.0250   32.3360   36.3450 H   0  0  0  0  0  0  0  0  0  0  0  0
   35.2980   32.6720   36.1840 H   0  0  0  0  0  0  0  0  0  0  0  0
   35.2400   30.3960   36.2160 H   0  0  0  0  0  0  0  0  0  0  0  0
   36.8840   30.2030   35.6270 H   0  0  0  0  0  0  0  0  0  0  0  0
   34.2790   30.2790   34.1320 H   0  0  0  0  0  0  0  0  0  0  0  0
   36.7530   31.1440   32.6420 H   0  0  0  0  0  0  0  0  0  0  0  0
   34.9750   31.1120   32.1530 H   0  0  0  0  0  0  0  0  0  0  0  0
   34.4040   32.7280   33.8110 H   0  0  0  0  0  0  0  0  0  0  0  0
   35.4960   33.3850   32.5990 H   0  0  0  0  0  0  0  0  0  0  0  0
   36.6490   28.2410   34.5550 C   0  0  0  0  0  3  0  0  0  0  0  0
   35.8840   28.9820   33.6790 C   0  0  0  0  0  0  0  0  0  0  0  0
   35.5160   28.5760   32.4090 C   0  0  0  0  0  0  0  0  0  0  0  0
   34.9280   29.1410   31.7280 H   0  0  0  0  0  0  0  0  0  0  0  0
   35.9680   27.3160   32.0110 C   0  0  0  0  0  0  0  0  0  0  0  0
   36.7350   26.5670   32.8820 C   0  0  0  0  0  0  0  0  0  0  0  0
   37.0910   26.9920   34.1470 C   0  0  0  0  0  3  0  0  0  0  0  0
   37.0850   25.3440   32.3000 O   0  0  0  0  0  0  0  0  0  0  0  0
   36.2420   25.2370   31.1540 C   0  0  0  0  0  3  0  0  0  0  0  0
   36.7630   24.7390   30.3110 H   0  0  0  0  0  0  0  0  0  0  0  0
   35.8310   26.5500   30.8540 O   0  0  0  0  0  0  0  0  0  0  0  0
   37.4650   33.9830   34.3620 C   0  0  0  0  0  0  0  0  0  0  0  0
   37.7790   34.6860   33.1900 C   0  0  0  0  0  0  0  0  0  0  0  0
   38.8340   35.5890   33.2570 C   0  0  0  0  0  0  0  0  0  0  0  0
   39.5020   35.7450   34.4370 N   0  0  0  0  0  0  0  0  0  0  0  0
   39.1700   35.0550   35.5290 C   0  0  0  0  0  0  0  0  0  0  0  0
   38.1660   34.1870   35.4900 N   0  0  0  0  0  0  0  0  0  0  0  0
   37.1870   34.4760   32.3400 H   0  0  0  0  0  0  0  0  0  0  0  0
   39.0440   36.1110   32.3330 H   0  0  0  0  0  0  0  0  0  0  0  0
   39.7730   35.2650   36.4070 H   0  0  0  0  0  0  0  0  0  0  0  0
  1  2  1  0  0  0  0
  2  8  1  0  0  0  0
  2  7  1  0  0  0  0
  3 10  1  0  0  0  0
  3  2  1  0  0  0  0
  3  9  1  0  0  0  0
  4 11  1  0  0  0  0
  4  3  1  0  0  0  0
  5  6  1  0  0  0  0
  5  4  1  0  0  0  0
  6 14  1  0  0  0  0
  6  1  1  0  0  0  0
 12  5  1  0  0  0  0
 13  5  1  0  0  0  0
 15  6  1  0  0  0  0
 17  4  1  0  0  0  0
 17 16  2  0  0  0  0
 18 17  1  0  0  0  0
 19 18  1  0  0  0  0
 20 18  2  0  0  0  0
 20 21  1  0  0  0  0
 21 22  2  0  0  0  0
 22 16  1  0  0  0  0
 23 21  1  0  0  0  0
 24 23  1  0  0  0  0
 25 24  1  0  0  0  0
 26 24  1  0  0  0  0
 26 20  1  0  0  0  0
 27  1  1  0  0  0  0
 27 32  1  0  0  0  0
 28 29  1  0  0  0  0
 28 27  2  0  0  0  0
 29 30  2  0  0  0  0
 30 31  1  0  0  0  0
 31 35  1  0  0  0  0
 32 31  2  0  0  0  0
 33 28  1  0  0  0  0
 34 29  1  0  0  0  0
M  END
>  <minimizedAffinity>
-5.1689086

$$$$

 OpenBabel03272507453D

 35 38  0  0  0  0  0  0  0  0999 V2000
   34.7310   29.2780   33.4140 N   0  0  0  0  0  0  0  0  0  0  0  0
   35.2280   28.6550   32.2220 C   0  0  0  0  0  0  0  0  0  0  0  0
   36.2250   27.5900   32.3710 C   0  0  0  0  0  0  0  0  0  0  0  0
   37.0930   27.5990   33.5640 C   0  0  0  0  0  0  0  0  0  0  0  0
   36.4910   28.3060   34.7600 C   0  0  0  0  0  0  0  0  0  0  0  0
   35.8580   29.6140   34.2610 C   0  0  0  0  0  0  0  0  0  0  0  0
   34.3350   28.2430   31.6720 H   0  0  0  0  0  0  0  0  0  0  0  0
   35.6020   29.4690   31.5540 H   0  0  0  0  0  0  0  0  0  0  0  0
   36.8840   27.5900   31.4680 H   0  0  0  0  0  0  0  0  0  0  0  0
   35.7190   26.5830   32.3150 H   0  0  0  0  0  0  0  0  0  0  0  0
   38.0490   28.1630   33.3650 H   0  0  0  0  0  0  0  0  0  0  0  0
   35.7560   27.6610   35.2560 H   0  0  0  0  0  0  0  0  0  0  0  0
   37.3130   28.6310   35.4470 H   0  0  0  0  0  0  0  0  0  0  0  0
   36.6590   30.1720   33.7490 H   0  0  0  0  0  0  0  0  0  0  0  0
   35.5790   30.2220   35.1370 H   0  0  0  0  0  0  0  0  0  0  0  0
   37.6020   25.2210   33.1280 C   0  0  0  0  0  3  0  0  0  0  0  0
   37.4980   26.2420   34.0490 C   0  0  0  0  0  0  0  0  0  0  0  0
   37.7390   26.1140   35.4050 C   0  0  0  0  0  0  0  0  0  0  0  0
   37.6600   26.8950   36.1210 H   0  0  0  0  0  0  0  0  0  0  0  0
   38.1160   24.8430   35.8460 C   0  0  0  0  0  0  0  0  0  0  0  0
   38.2240   23.8150   34.9290 C   0  0  0  0  0  0  0  0  0  0  0  0
   37.9770   23.9650   33.5790 C   0  0  0  0  0  3  0  0  0  0  0  0
   38.6100   22.6300   35.5650 O   0  0  0  0  0  0  0  0  0  0  0  0
   39.0410   23.0420   36.8610 C   0  0  0  0  0  3  0  0  0  0  0  0
   38.7810   22.2900   37.6340 H   0  0  0  0  0  0  0  0  0  0  0  0
   38.4410   24.2970   37.0860 O   0  0  0  0  0  0  0  0  0  0  0  0
   33.3670   29.5310   33.7310 C   0  0  0  0  0  0  0  0  0  0  0  0
   32.2660   29.1110   32.9720 C   0  0  0  0  0  0  0  0  0  0  0  0
   31.0040   29.4530   33.4430 C   0  0  0  0  0  0  0  0  0  0  0  0
   30.8990   30.1690   34.6000 N   0  0  0  0  0  0  0  0  0  0  0  0
   31.9740   30.5490   35.2920 C   0  0  0  0  0  0  0  0  0  0  0  0
   33.1900   30.2340   34.8620 N   0  0  0  0  0  0  0  0  0  0  0  0
   32.4790   28.5620   32.0940 H   0  0  0  0  0  0  0  0  0  0  0  0
   30.1820   29.1110   32.8290 H   0  0  0  0  0  0  0  0  0  0  0  0
   31.7630   31.1130   36.1960 H   0  0  0  0  0  0  0  0  0  0  0  0
  1 27  1  0  0  0  0
  1  6  1  0  0  0  0
  2  3  1  0  0  0  0
  2  1  1  0  0  0  0
  3  4  1  0  0  0  0
  4 17  1  0  0  0  0
  4  5  1  0  0  0  0
  5 12  1  0  0  0  0
  5 13  1  0  0  0  0
  6  5  1  0  0  0  0
  6 15  1  0  0  0  0
  7  2  1  0  0  0  0
  8  2  1  0  0  0  0
  9  3  1  0  0  0  0
 10  3  1  0  0  0  0
 11  4  1  0  0  0  0
 14  6  1  0  0  0  0
 16 22  2  0  0  0  0
 16 17  1  0  0  0  0
 17 18  2  0  0  0  0
 18 20  1  0  0  0  0
 18 19  1  0  0  0  0
 20 26  1  0  0  0  0
 21 23  1  0  0  0  0
 21 20  2  0  0  0  0
 22 21  1  0  0  0  0
 23 24  1  0  0  0  0
 24 26  1  0  0  0  0
 24 25  1  0  0  0  0
 27 32  1  0  0  0  0
 28 29  1  0  0  0  0
 28 27  2  0  0  0  0
 29 30  2  0  0  0  0
 30 31  1  0  0  0  0
 31 35  1  0  0  0  0
 32 31  2  0  0  0  0
 33 28  1  0  0  0  0
 34 29  1  0  0  0  0
M  END
>  <minimizedAffinity>
-5.13533592

$$$$

 OpenBabel03272507453D

 35 38  0  0  0  0  0  0  0  0999 V2000
   36.9980   27.5200   32.0610 N   0  0  0  0  0  0  0  0  0  0  0  0
   36.5120   26.1870   31.8530 C   0  0  0  0  0  0  0  0  0  0  0  0
   37.1550   25.1010   32.6000 C   0  0  0  0  0  0  0  0  0  0  0  0
   38.5580   25.2710   33.0250 C   0  0  0  0  0  0  0  0  0  0  0  0
   38.9820   26.7160   33.1870 C   0  0  0  0  0  0  0  0  0  0  0  0
   38.4450   27.5000   31.9800 C   0  0  0  0  0  0  0  0  0  0  0  0
   35.4130   26.1980   32.1000 H   0  0  0  0  0  0  0  0  0  0  0  0
   36.5380   25.9930   30.7530 H   0  0  0  0  0  0  0  0  0  0  0  0
   37.0930   24.1650   31.9910 H   0  0  0  0  0  0  0  0  0  0  0  0
   36.5420   24.8500   33.5130 H   0  0  0  0  0  0  0  0  0  0  0  0
   39.2680   24.8620   32.2500 H   0  0  0  0  0  0  0  0  0  0  0  0
   38.6090   27.1200   34.1360 H   0  0  0  0  0  0  0  0  0  0  0  0
   40.0960   26.7830   33.0980 H   0  0  0  0  0  0  0  0  0  0  0  0
   38.8420   27.0000   31.0820 H   0  0  0  0  0  0  0  0  0  0  0  0
   38.8960   28.5060   31.9900 H   0  0  0  0  0  0  0  0  0  0  0  0
   40.0760   23.8710   34.3810 C   0  0  0  0  0  3  0  0  0  0  0  0
   38.9030   24.5930   34.3130 C   0  0  0  0  0  0  0  0  0  0  0  0
   38.0050   24.7440   35.3540 C   0  0  0  0  0  0  0  0  0  0  0  0
   37.0990   25.2970   35.3100 H   0  0  0  0  0  0  0  0  0  0  0  0
   38.3370   24.1060   36.5520 C   0  0  0  0  0  0  0  0  0  0  0  0
   39.5110   23.3810   36.6280 C   0  0  0  0  0  0  0  0  0  0  0  0
   40.3940   23.2430   35.5750 C   0  0  0  0  0  3  0  0  0  0  0  0
   39.6610   22.8240   37.9010 O   0  0  0  0  0  0  0  0  0  0  0  0
   38.6890   23.4930   38.7030 C   0  0  0  0  0  3  0  0  0  0  0  0
   38.2520   22.8140   39.4640 H   0  0  0  0  0  0  0  0  0  0  0  0
   37.7340   24.0050   37.8040 O   0  0  0  0  0  0  0  0  0  0  0  0
   36.2100   28.6790   32.3070 C   0  0  0  0  0  0  0  0  0  0  0  0
   35.8070   29.1320   33.5710 C   0  0  0  0  0  0  0  0  0  0  0  0
   35.0370   30.2900   33.6120 C   0  0  0  0  0  0  0  0  0  0  0  0
   34.7180   30.9180   32.4440 N   0  0  0  0  0  0  0  0  0  0  0  0
   35.1230   30.4510   31.2620 C   0  0  0  0  0  0  0  0  0  0  0  0
   35.8590   29.3480   31.1960 N   0  0  0  0  0  0  0  0  0  0  0  0
   36.1190   28.5580   34.4010 H   0  0  0  0  0  0  0  0  0  0  0  0
   34.7470   30.6060   34.6050 H   0  0  0  0  0  0  0  0  0  0  0  0
   34.8060   31.0370   30.4030 H   0  0  0  0  0  0  0  0  0  0  0  0
  1 27  1  0  0  0  0
  2  1  1  0  0  0  0
  2  7  1  0  0  0  0
  2  3  1  0  0  0  0
  3  4  1  0  0  0  0
  3 10  1  0  0  0  0
  4  5  1  0  0  0  0
  4 17  1  0  0  0  0
  5 12  1  0  0  0  0
  6 15  1  0  0  0  0
  6  1  1  0  0  0  0
  6  5  1  0  0  0  0
  8  2  1  0  0  0  0
  9  3  1  0  0  0  0
 11  4  1  0  0  0  0
 13  5  1  0  0  0  0
 14  6  1  0  0  0  0
 16 22  1  0  0  0  0
 17 16  2  0  0  0  0
 17 18  1  0  0  0  0
 18 20  2  0  0  0  0
 19 18  1  0  0  0  0
 20 21  1  0  0  0  0
 20 26  1  0  0  0  0
 21 23  1  0  0  0  0
 22 21  2  0  0  0  0
 23 24  1  0  0  0  0
 24 25  1  0  0  0  0
 26 24  1  0  0  0  0
 27 28  1  0  0  0  0
 28 29  2  0  0  0  0
 28 33  1  0  0  0  0
 29 34  1  0  0  0  0
 30 29  1  0  0  0  0
 31 30  2  0  0  0  0
 32 31  1  0  0  0  0
 32 27  2  0  0  0  0
 35 31  1  0  0  0  0
M  END
>  <minimizedAffinity>
-5.13082123

$$$$

 OpenBabel03272507453D

 35 38  0  0  0  0  0  0  0  0999 V2000
   36.8930   26.3730   32.3900 N   0  0  0  0  0  0  0  0  0  0  0  0
   37.4620   26.9160   33.5900 C   0  0  0  0  0  0  0  0  0  0  0  0
   36.8070   28.0830   34.1900 C   0  0  0  0  0  0  0  0  0  0  0  0
   36.0380   28.9880   33.3140 C   0  0  0  0  0  0  0  0  0  0  0  0
   35.5060   28.3280   32.0600 C   0  0  0  0  0  0  0  0  0  0  0  0
   36.6320   27.4630   31.4720 C   0  0  0  0  0  0  0  0  0  0  0  0
   37.4840   26.0820   34.3470 H   0  0  0  0  0  0  0  0  0  0  0  0
   38.5400   27.1180   33.3830 H   0  0  0  0  0  0  0  0  0  0  0  0
   37.5810   28.6930   34.7180 H   0  0  0  0  0  0  0  0  0  0  0  0
   36.1310   27.7510   35.0300 H   0  0  0  0  0  0  0  0  0  0  0  0
   36.6860   29.8260   32.9290 H   0  0  0  0  0  0  0  0  0  0  0  0
   34.6130   27.7330   32.2900 H   0  0  0  0  0  0  0  0  0  0  0  0
   35.3140   29.1130   31.2860 H   0  0  0  0  0  0  0  0  0  0  0  0
   37.4900   28.1370   31.3120 H   0  0  0  0  0  0  0  0  0  0  0  0
   36.3220   27.1240   30.4700 H   0  0  0  0  0  0  0  0  0  0  0  0
   33.5990   29.3430   33.4940 C   0  0  0  0  0  3  0  0  0  0  0  0
   34.8590   29.6350   33.9720 C   0  0  0  0  0  0  0  0  0  0  0  0
   35.1300   30.4900   35.0250 C   0  0  0  0  0  0  0  0  0  0  0  0
   36.0960   30.7210   35.3990 H   0  0  0  0  0  0  0  0  0  0  0  0
   34.0220   31.0890   35.6310 C   0  0  0  0  0  0  0  0  0  0  0  0
   32.7560   30.8010   35.1590 C   0  0  0  0  0  0  0  0  0  0  0  0
   32.5090   29.9440   34.1040 C   0  0  0  0  0  3  0  0  0  0  0  0
   31.7890   31.4960   35.8930 O   0  0  0  0  0  0  0  0  0  0  0  0
   32.4880   31.9790   37.0390 C   0  0  0  0  0  3  0  0  0  0  0  0
   32.1160   32.9760   37.3520 H   0  0  0  0  0  0  0  0  0  0  0  0
   33.8510   31.9830   36.6860 O   0  0  0  0  0  0  0  0  0  0  0  0
   36.6220   25.0020   32.1280 C   0  0  0  0  0  0  0  0  0  0  0  0
   35.6070   24.5210   31.2880 C   0  0  0  0  0  0  0  0  0  0  0  0
   35.4960   23.1420   31.1540 C   0  0  0  0  0  0  0  0  0  0  0  0
   36.3640   22.3360   31.8330 N   0  0  0  0  0  0  0  0  0  0  0  0
   37.3160   22.8360   32.6220 C   0  0  0  0  0  0  0  0  0  0  0  0
   37.4420   24.1500   32.7660 N   0  0  0  0  0  0  0  0  0  0  0  0
   35.0000   25.2470   30.8180 H   0  0  0  0  0  0  0  0  0  0  0  0
   34.7020   22.8120   30.4980 H   0  0  0  0  0  0  0  0  0  0  0  0
   37.9450   22.0960   33.1090 H   0  0  0  0  0  0  0  0  0  0  0  0
  1  2  1  0  0  0  0
  2  3  1  0  0  0  0
  2  7  1  0  0  0  0
  3  9  1  0  0  0  0
  3 10  1  0  0  0  0
  4 17  1  0  0  0  0
  4  3  1  0  0  0  0
  5 12  1  0  0  0  0
  5  4  1  0  0  0  0
  6  5  1  0  0  0  0
  6  1  1  0  0  0  0
  8  2  1  0  0  0  0
 11  4  1  0  0  0  0
 13  5  1  0  0  0  0
 14  6  1  0  0  0  0
 15  6  1  0  0  0  0
 16 17  2  0  0  0  0
 16 22  1  0  0  0  0
 17 18  1  0  0  0  0
 18 19  1  0  0  0  0
 18 20  2  0  0  0  0
 20 26  1  0  0  0  0
 21 20  1  0  0  0  0
 21 23  1  0  0  0  0
 22 21  2  0  0  0  0
 23 24  1  0  0  0  0
 24 25  1  0  0  0  0
 26 24  1  0  0  0  0
 27  1  1  0  0  0  0
 27 32  1  0  0  0  0
 28 27  2  0  0  0  0
 29 28  1  0  0  0  0
 29 30  2  0  0  0  0
 30 31  1  0  0  0  0
 31 32  2  0  0  0  0
 31 35  1  0  0  0  0
 33 28  1  0  0  0  0
 34 29  1  0  0  0  0
M  END
>  <minimizedAffinity>
-5.0757947

$$$$

 OpenBabel03272507453D

 35 38  0  0  0  0  0  0  0  0999 V2000
   36.9170   26.4420   32.6010 N   0  0  0  0  0  0  0  0  0  0  0  0
   37.2500   26.9800   33.8870 C   0  0  0  0  0  0  0  0  0  0  0  0
   36.4750   28.1280   34.3710 C   0  0  0  0  0  0  0  0  0  0  0  0
   35.8560   29.0280   33.3790 C   0  0  0  0  0  0  0  0  0  0  0  0
   35.5700   28.3740   32.0450 C   0  0  0  0  0  0  0  0  0  0  0  0
   36.8010   27.5380   31.6600 C   0  0  0  0  0  0  0  0  0  0  0  0
   37.1540   26.1380   34.6290 H   0  0  0  0  0  0  0  0  0  0  0  0
   38.3440   27.2060   33.8780 H   0  0  0  0  0  0  0  0  0  0  0  0
   37.1290   28.7460   35.0330 H   0  0  0  0  0  0  0  0  0  0  0  0
   35.6670   27.7730   35.0740 H   0  0  0  0  0  0  0  0  0  0  0  0
   36.5460   29.8840   33.1240 H   0  0  0  0  0  0  0  0  0  0  0  0
   34.6640   27.7600   32.1060 H   0  0  0  0  0  0  0  0  0  0  0  0
   35.5040   29.1640   31.2550 H   0  0  0  0  0  0  0  0  0  0  0  0
   37.6600   28.2290   31.6610 H   0  0  0  0  0  0  0  0  0  0  0  0
   36.6830   27.2050   30.6160 H   0  0  0  0  0  0  0  0  0  0  0  0
   34.5780   30.4750   34.9220 C   0  0  0  0  0  3  0  0  0  0  0  0
   34.5660   29.6450   33.8210 C   0  0  0  0  0  0  0  0  0  0  0  0
   33.4420   29.3300   33.0780 C   0  0  0  0  0  0  0  0  0  0  0  0
   33.4240   28.6920   32.2300 H   0  0  0  0  0  0  0  0  0  0  0  0
   32.2440   29.9110   33.4990 C   0  0  0  0  0  0  0  0  0  0  0  0
   32.2470   30.7440   34.6010 C   0  0  0  0  0  0  0  0  0  0  0  0
   33.3820   31.0440   35.3290 C   0  0  0  0  0  3  0  0  0  0  0  0
   30.9580   31.2220   34.8600 O   0  0  0  0  0  0  0  0  0  0  0  0
   30.2140   30.9000   33.6850 C   0  0  0  0  0  3  0  0  0  0  0  0
   29.1670   30.6270   33.9290 H   0  0  0  0  0  0  0  0  0  0  0  0
   30.9250   29.8620   33.0520 O   0  0  0  0  0  0  0  0  0  0  0  0
   36.7260   25.0690   32.2820 C   0  0  0  0  0  0  0  0  0  0  0  0
   35.7820   24.5700   31.3730 C   0  0  0  0  0  0  0  0  0  0  0  0
   35.7440   23.1920   31.1910 C   0  0  0  0  0  0  0  0  0  0  0  0
   36.6100   22.4050   31.8930 N   0  0  0  0  0  0  0  0  0  0  0  0
   37.4920   22.9220   32.7490 C   0  0  0  0  0  0  0  0  0  0  0  0
   37.5480   24.2350   32.9400 N   0  0  0  0  0  0  0  0  0  0  0  0
   35.1680   25.2830   30.8910 H   0  0  0  0  0  0  0  0  0  0  0  0
   35.0030   22.8480   30.4820 H   0  0  0  0  0  0  0  0  0  0  0  0
   38.1280   22.1960   33.2490 H   0  0  0  0  0  0  0  0  0  0  0  0
  1  2  1  0  0  0  0
  2  3  1  0  0  0  0
  2  7  1  0  0  0  0
  3  9  1  0  0  0  0
  3 10  1  0  0  0  0
  4 17  1  0  0  0  0
  4  3  1  0  0  0  0
  5 12  1  0  0  0  0
  5  4  1  0  0  0  0
  6 14  1  0  0  0  0
  6  5  1  0  0  0  0
  6  1  1  0  0  0  0
  8  2  1  0  0  0  0
 11  4  1  0  0  0  0
 13  5  1  0  0  0  0
 15  6  1  0  0  0  0
 16 22  1  0  0  0  0
 17 16  2  0  0  0  0
 18 20  2  0  0  0  0
 18 17  1  0  0  0  0
 19 18  1  0  0  0  0
 20 21  1  0  0  0  0
 21 23  1  0  0  0  0
 21 22  2  0  0  0  0
 24 25  1  0  0  0  0
 24 23  1  0  0  0  0
 26 20  1  0  0  0  0
 26 24  1  0  0  0  0
 27  1  1  0  0  0  0
 27 32  1  0  0  0  0
 28 27  2  0  0  0  0
 29 28  1  0  0  0  0
 29 30  2  0  0  0  0
 30 31  1  0  0  0  0
 31 32  2  0  0  0  0
 31 35  1  0  0  0  0
 33 28  1  0  0  0  0
 34 29  1  0  0  0  0
M  END
>  <minimizedAffinity>
-5.0686059

$$$$

 OpenBabel03272507453D

 35 38  0  0  0  0  0  0  0  0999 V2000
   37.8540   26.9390   32.9540 N   0  0  0  0  0  0  0  0  0  0  0  0
   37.8800   27.5200   34.2650 C   0  0  0  0  0  0  0  0  0  0  0  0
   38.1370   26.6290   35.4020 C   0  0  0  0  0  0  0  0  0  0  0  0
   37.7700   25.2050   35.2780 C   0  0  0  0  0  0  0  0  0  0  0  0
   37.7420   24.6960   33.8530 C   0  0  0  0  0  0  0  0  0  0  0  0
   37.0270   25.7500   32.9930 C   0  0  0  0  0  0  0  0  0  0  0  0
   38.6670   28.3260   34.2500 H   0  0  0  0  0  0  0  0  0  0  0  0
   36.9230   28.0810   34.3980 H   0  0  0  0  0  0  0  0  0  0  0  0
   37.6150   27.0400   36.3010 H   0  0  0  0  0  0  0  0  0  0  0  0
   39.2250   26.6860   35.6930 H   0  0  0  0  0  0  0  0  0  0  0  0
   36.7230   25.0220   35.6560 H   0  0  0  0  0  0  0  0  0  0  0  0
   38.7610   24.5020   33.4960 H   0  0  0  0  0  0  0  0  0  0  0  0
   37.0860   23.7910   33.7990 H   0  0  0  0  0  0  0  0  0  0  0  0
   36.0350   25.9030   33.4490 H   0  0  0  0  0  0  0  0  0  0  0  0
   36.8380   25.3170   31.9980 H   0  0  0  0  0  0  0  0  0  0  0  0
   38.3210   23.9430   37.3300 C   0  0  0  0  0  3  0  0  0  0  0  0
   38.6600   24.2670   36.0340 C   0  0  0  0  0  0  0  0  0  0  0  0
   39.7700   23.7900   35.3610 C   0  0  0  0  0  0  0  0  0  0  0  0
   40.0390   24.0350   34.3640 H   0  0  0  0  0  0  0  0  0  0  0  0
   40.5930   22.9160   36.0760 C   0  0  0  0  0  0  0  0  0  0  0  0
   40.2610   22.5860   37.3750 C   0  0  0  0  0  0  0  0  0  0  0  0
   39.1460   23.0750   38.0280 C   0  0  0  0  0  3  0  0  0  0  0  0
   41.2040   21.7050   37.9140 O   0  0  0  0  0  0  0  0  0  0  0  0
   41.9610   21.2580   36.7900 C   0  0  0  0  0  3  0  0  0  0  0  0
   43.0280   21.1050   37.0530 H   0  0  0  0  0  0  0  0  0  0  0  0
   41.7710   22.2280   35.7880 O   0  0  0  0  0  0  0  0  0  0  0  0
   38.5210   27.4320   31.7970 C   0  0  0  0  0  0  0  0  0  0  0  0
   39.8520   27.1590   31.4510 C   0  0  0  0  0  0  0  0  0  0  0  0
   40.3310   27.7310   30.2770 C   0  0  0  0  0  0  0  0  0  0  0  0
   39.4990   28.5170   29.5340 N   0  0  0  0  0  0  0  0  0  0  0  0
   38.2380   28.7510   29.9010 C   0  0  0  0  0  0  0  0  0  0  0  0
   37.7580   28.2150   31.0170 N   0  0  0  0  0  0  0  0  0  0  0  0
   40.3940   26.5350   32.1100 H   0  0  0  0  0  0  0  0  0  0  0  0
   41.3610   27.4960   30.0450 H   0  0  0  0  0  0  0  0  0  0  0  0
   37.6740   29.3910   29.2290 H   0  0  0  0  0  0  0  0  0  0  0  0
  1  6  1  0  0  0  0
  1  2  1  0  0  0  0
  2  8  1  0  0  0  0
  2  3  1  0  0  0  0
  3 10  1  0  0  0  0
  3  9  1  0  0  0  0
  4  3  1  0  0  0  0
  4 11  1  0  0  0  0
  4 17  1  0  0  0  0
  5  4  1  0  0  0  0
  6 14  1  0  0  0  0
  6  5  1  0  0  0  0
  7  2  1  0  0  0  0
 12  5  1  0  0  0  0
 13  5  1  0  0  0  0
 15  6  1  0  0  0  0
 16 22  1  0  0  0  0
 17 16  2  0  0  0  0
 18 17  1  0  0  0  0
 18 20  2  0  0  0  0
 19 18  1  0  0  0  0
 20 21  1  0  0  0  0
 21 23  1  0  0  0  0
 21 22  2  0  0  0  0
 24 25  1  0  0  0  0
 24 23  1  0  0  0  0
 26 20  1  0  0  0  0
 26 24  1  0  0  0  0
 27  1  1  0  0  0  0
 28 27  1  0  0  0  0
 28 33  1  0  0  0  0
 29 28  2  0  0  0  0
 30 31  2  0  0  0  0
 30 29  1  0  0  0  0
 31 32  1  0  0  0  0
 32 27  2  0  0  0  0
 34 29  1  0  0  0  0
 35 31  1  0  0  0  0
M  END
>  <minimizedAffinity>
-5.06363773

$$$$
