
 OpenBabel03272500583D

 37 40  0  0  0  0  0  0  0  0999 V2000
   38.1010   31.8840   47.4270 C   0  0  0  0  0  0  0  0  0  0  0  0
   38.6760   32.8210   48.2340 C   0  0  0  0  0  0  0  0  0  0  0  0
   38.3430   32.9580   49.5850 C   0  0  0  0  0  0  0  0  0  0  0  0
   37.3440   32.0540   50.1180 C   0  0  0  0  0  0  0  0  0  0  0  0
   36.8090   31.1440   49.2630 C   0  0  0  0  0  0  0  0  0  0  0  0
   37.1360   31.0240   47.9700 C   0  0  0  0  0  0  0  0  0  0  0  0
   39.4400   33.5220   47.8600 H   0  0  0  0  0  0  0  0  0  0  0  0
   38.8380   33.7240   50.1680 H   0  0  0  0  0  0  0  0  0  0  0  0
   37.1890   32.2690   51.1530 H   0  0  0  0  0  0  0  0  0  0  0  0
   36.1250   30.5700   49.8680 H   0  0  0  0  0  0  0  0  0  0  0  0
   39.8040   31.1980   45.8100 C   0  0  0  0  0  0  0  0  0  0  0  0
   38.5730   31.8530   46.0610 C   0  0  0  0  0  0  0  0  0  0  0  0
   37.9730   32.3780   44.9440 C   0  0  0  0  0  0  0  0  0  0  0  0
   38.5350   32.2600   43.7350 N   0  0  0  0  0  0  0  0  0  0  0  0
   39.6810   31.6470   43.5190 C   0  0  0  0  0  0  0  0  0  0  0  0
   40.3050   31.1210   44.5610 N   0  0  0  0  0  0  0  0  0  0  0  0
   40.3570   30.7480   46.6400 H   0  0  0  0  0  0  0  0  0  0  0  0
   37.0350   32.8790   45.1260 H   0  0  0  0  0  0  0  0  0  0  0  0
   40.1460   31.5460   42.5460 H   0  0  0  0  0  0  0  0  0  0  0  0
   35.1300   29.9120   47.4500 C   0  0  0  0  0  0  0  0  0  0  0  0
   34.6210   30.5840   48.4290 O   0  0  0  0  0  0  0  0  0  0  0  0
   36.5380   30.0970   47.1550 N   0  0  0  0  0  0  0  0  0  0  0  0
   37.0240   29.5680   46.3990 H   0  0  0  0  0  0  0  0  0  0  0  0
   34.3230   29.0640   46.7480 O   0  0  0  0  0  0  0  0  0  0  0  0
   33.1230   29.4050   46.1510 C   0  0  0  0  0  0  0  0  0  0  0  0
   32.9700   30.5140   45.4580 O   0  0  0  0  0  0  0  0  0  0  0  0
   32.0250   27.2060   46.6480 C   0  0  0  0  0  3  0  0  0  0  0  0
   31.9480   28.5090   46.2490 C   0  0  0  0  0  0  0  0  0  0  0  0
   30.6900   28.9760   45.9310 C   0  0  0  0  0  0  0  0  0  0  0  0
   30.5790   30.0140   45.6050 H   0  0  0  0  0  0  0  0  0  0  0  0
   29.5530   28.2280   45.9900 C   0  0  0  0  0  0  0  0  0  0  0  0
   29.6770   26.9030   46.4020 C   0  0  0  0  0  0  0  0  0  0  0  0
   30.9160   26.3930   46.7310 C   0  0  0  0  0  3  0  0  0  0  0  0
   28.3910   26.3280   46.3890 O   0  0  0  0  0  0  0  0  0  0  0  0
   27.4500   27.3840   46.3610 C   0  0  0  0  0  3  0  0  0  0  0  0
   26.5640   27.1830   45.7380 H   0  0  0  0  0  0  0  0  0  0  0  0
   28.1900   28.4270   45.7350 O   0  0  0  0  0  0  0  0  0  0  0  0
  1  6  2  0  0  0  0
  1  2  1  0  0  0  0
  2  3  2  0  0  0  0
  3  4  1  0  0  0  0
  3  8  1  0  0  0  0
  4  9  1  0  0  0  0
  5 10  1  0  0  0  0
  5  4  2  0  0  0  0
  6  5  1  0  0  0  0
  7  2  1  0  0  0  0
 11 12  1  0  0  0  0
 11 17  1  0  0  0  0
 12  1  1  0  0  0  0
 13 18  1  0  0  0  0
 13 12  2  0  0  0  0
 14 13  1  0  0  0  0
 15 14  2  0  0  0  0
 15 16  1  0  0  0  0
 16 11  2  0  0  0  0
 19 15  1  0  0  0  0
 20 21  2  0  0  0  0
 22 20  1  0  0  0  0
 22  6  1  0  0  0  0
 23 22  1  0  0  0  0
 24 20  1  0  0  0  0
 25 28  1  0  0  0  0
 25 24  1  0  0  0  0
 26 25  2  0  0  0  0
 27 33  1  0  0  0  0
 28 27  2  0  0  0  0
 29 31  2  0  0  0  0
 29 28  1  0  0  0  0
 30 29  1  0  0  0  0
 31 32  1  0  0  0  0
 32 33  2  0  0  0  0
 34 32  1  0  0  0  0
 35 34  1  0  0  0  0
 36 35  1  0  0  0  0
 37 31  1  0  0  0  0
 37 35  1  0  0  0  0
M  END
>  <minimizedAffinity>
-5.76564789

>  <minimizedRMSD>
1.01046062

$$$$
