
 OpenBabel03262522053D

 42 46  0  0  1  0  0  0  0  0999 V2000
   34.5040   29.0700   48.7500 C   0  0  2  0  0  0  0  0  0  0  0  0
   35.1590   28.3350   49.8670 C   0  0  0  0  0  0  0  0  0  0  0  0
   36.2870   29.1180   50.3670 N   0  0  0  0  0  0  0  0  0  0  0  0
   37.2330   29.8530   51.1620 C   0  0  0  0  0  0  0  0  0  0  0  0
   37.4440   30.0270   52.3730 O   0  0  0  0  0  0  0  0  0  0  0  0
   37.9440   30.3940   50.0380 C   0  0  1  0  0  0  0  0  0  0  0  0
   37.1230   29.3890   49.2380 C   0  0  2  0  0  0  0  0  0  0  0  0
   35.9030   30.0980   48.1100 S   0  0  0  0  0  0  0  0  0  0  0  0
   34.4440   28.2570   50.7330 H   0  0  0  0  0  0  0  0  0  0  0  0
   35.4610   27.3090   49.6500 H   0  0  0  0  0  0  0  0  0  0  0  0
   39.0040   30.1090   49.8900 H   0  0  0  0  0  0  0  0  0  0  0  0
   37.6780   28.5220   48.8380 H   0  0  0  0  0  0  0  0  0  0  0  0
   33.2910   29.8630   49.0870 C   0  0  0  0  0  0  0  0  0  0  0  0
   33.5240   30.9490   48.9740 H   0  0  0  0  0  0  0  0  0  0  0  0
   32.4460   29.6660   48.3830 H   0  0  0  0  0  0  0  0  0  0  0  0
   32.9290   29.7340   50.1160 H   0  0  0  0  0  0  0  0  0  0  0  0
   34.2330   28.0680   47.6090 C   0  0  0  0  0  0  0  0  0  0  0  0
   33.2370   27.6150   47.7430 H   0  0  0  0  0  0  0  0  0  0  0  0
   34.9980   27.2900   47.6650 H   0  0  0  0  0  0  0  0  0  0  0  0
   34.2710   28.7570   46.3970 O   0  0  0  0  0  0  0  0  0  0  0  0
   33.4840   29.3160   46.2830 H   0  0  0  0  0  0  0  0  0  0  0  0
   37.7040   31.8230   49.7160 C   0  0  0  0  0  0  0  0  0  0  0  0
   36.6760   32.2980   50.2980 O   0  0  0  0  0  0  0  0  0  0  0  0
   38.5360   32.5960   48.8490 C   0  0  0  0  0  0  0  0  0  0  0  0
   39.1190   33.7370   49.3550 C   0  0  0  0  0  0  0  0  0  0  0  0
   39.9410   34.4970   48.4870 C   0  0  0  0  0  0  0  0  0  0  0  0
   40.1070   34.0530   47.1950 N   0  0  0  0  0  0  0  0  0  0  0  0
   39.5270   32.9480   46.7480 C   0  0  0  0  0  0  0  0  0  0  0  0
   38.7400   32.2120   47.5650 N   0  0  0  0  0  0  0  0  0  0  0  0
   38.9480   34.0330   50.3820 H   0  0  0  0  0  0  0  0  0  0  0  0
   40.4000   35.3820   48.8610 H   0  0  0  0  0  0  0  0  0  0  0  0
   40.4250   31.3400   45.1260 C   0  0  0  0  0  0  0  0  0  0  0  0
   39.7200   32.4990   45.3740 C   0  0  0  0  0  0  0  0  0  0  0  0
   39.2240   33.1870   44.2850 C   0  0  0  0  0  0  0  0  0  0  0  0
   38.6650   34.1000   44.4360 H   0  0  0  0  0  0  0  0  0  0  0  0
   39.4270   32.7260   42.9810 C   0  0  0  0  0  0  0  0  0  0  0  0
   40.1510   31.5460   42.8200 C   0  0  0  0  0  0  0  0  0  0  0  0
   40.6700   30.8180   43.8730 C   0  0  0  0  0  0  0  0  0  0  0  0
   40.1970   31.3330   41.4360 O   0  0  0  0  0  0  0  0  0  0  0  0
   39.2340   32.1470   40.8010 C   0  0  0  0  0  0  0  0  0  0  0  0
   38.2460   31.6240   40.7210 H   0  0  0  0  0  0  0  0  0  0  0  0
   39.0480   33.2080   41.7180 O   0  0  0  0  0  0  0  0  0  0  0  0
  1 17  1  6  0  0  0
  1 13  1  0  0  0  0
  1  2  1  0  0  0  0
  2  3  1  0  0  0  0
  2  9  1  0  0  0  0
  3  4  1  0  0  0  0
  4  5  2  0  0  0  0
  6 11  1  1  0  0  0
  6  4  1  0  0  0  0
  7 12  1  6  0  0  0
  7  6  1  0  0  0  0
  7  3  1  0  0  0  0
  8  1  1  0  0  0  0
  8  7  1  0  0  0  0
 10  2  1  0  0  0  0
 13 16  1  0  0  0  0
 14 13  1  0  0  0  0
 15 13  1  0  0  0  0
 17 19  1  0  0  0  0
 17 18  1  0  0  0  0
 20 17  1  0  0  0  0
 21 20  1  0  0  0  0
 22  6  1  0  0  0  0
 22 23  2  0  0  0  0
 24 25  1  0  0  0  0
 24 22  1  0  0  0  0
 25 30  1  0  0  0  0
 26 31  1  0  0  0  0
 26 25  2  0  0  0  0
 27 26  1  0  0  0  0
 28 27  2  0  0  0  0
 28 29  1  0  0  0  0
 29 24  2  0  0  0  0
 32 33  1  0  0  0  0
 33 28  1  0  0  0  0
 34 35  1  0  0  0  0
 34 33  2  0  0  0  0
 36 34  1  0  0  0  0
 37 36  2  0  0  0  0
 37 38  1  0  0  0  0
 38 32  2  0  0  0  0
 39 37  1  0  0  0  0
 40 39  1  0  0  0  0
 40 42  1  0  0  0  0
 41 40  1  0  0  0  0
 42 36  1  0  0  0  0
M  END
>  <minimizedAffinity>
-6.52329493

>  <minimizedRMSD>
0.978898704

$$$$
