
 OpenBabel03272508303D

 34 37  0  0  1  0  0  0  0  0999 V2000
   35.4700   30.0300   47.1710 N   0  0  0  0  0  0  0  0  0  0  0  0
   34.2720   30.0490   46.3390 C   0  0  0  0  0  0  0  0  0  0  0  0
   34.5660   30.1250   44.8890 C   0  0  0  0  0  0  0  0  0  0  0  0
   35.8850   29.6150   44.6260 N   0  0  0  0  0  0  0  0  0  0  0  0
   36.8230   30.5730   45.1970 C   0  0  0  0  0  0  0  0  0  0  0  0
   36.8130   30.2960   46.6780 C   0  0  1  0  0  0  0  0  0  0  0  0
   33.7310   29.1030   46.5560 H   0  0  0  0  0  0  0  0  0  0  0  0
   33.5590   30.8490   46.6900 H   0  0  0  0  0  0  0  0  0  0  0  0
   33.8410   29.4840   44.3230 H   0  0  0  0  0  0  0  0  0  0  0  0
   34.4190   31.1410   44.4570 H   0  0  0  0  0  0  0  0  0  0  0  0
   36.0390   29.4770   43.6110 H   0  0  0  0  0  0  0  0  0  0  0  0
   37.8630   30.3920   44.8390 H   0  0  0  0  0  0  0  0  0  0  0  0
   36.4740   31.5900   44.9290 H   0  0  0  0  0  0  0  0  0  0  0  0
   37.3790   29.3530   46.8300 H   0  0  0  0  0  0  0  0  0  0  0  0
   37.2210   31.6750   48.7660 C   0  0  0  0  0  3  0  0  0  0  0  0
   37.4900   31.3760   47.4460 C   0  0  0  0  0  0  0  0  0  0  0  0
   38.4500   32.1060   46.7530 C   0  0  0  0  0  0  0  0  0  0  0  0
   38.7280   31.9430   45.7230 H   0  0  0  0  0  0  0  0  0  0  0  0
   39.1020   33.1140   47.4250 C   0  0  0  0  0  0  0  0  0  0  0  0
   38.8170   33.4040   48.7630 C   0  0  0  0  0  0  0  0  0  0  0  0
   37.8550   32.6760   49.4630 C   0  0  0  0  0  3  0  0  0  0  0  0
   39.6270   34.4720   49.1840 O   0  0  0  0  0  0  0  0  0  0  0  0
   40.6800   34.5700   48.2450 C   0  0  0  0  0  3  0  0  0  0  0  0
   41.5190   33.9520   48.6330 H   0  0  0  0  0  0  0  0  0  0  0  0
   40.0990   34.0350   47.0680 O   0  0  0  0  0  0  0  0  0  0  0  0
   36.3060   29.0020   49.2460 C   0  0  0  0  0  0  0  0  0  0  0  0
   35.3370   29.7340   48.5540 C   0  0  0  0  0  0  0  0  0  0  0  0
   34.2330   30.1630   49.2800 C   0  0  0  0  0  0  0  0  0  0  0  0
   34.1410   29.8600   50.6120 N   0  0  0  0  0  0  0  0  0  0  0  0
   35.1170   29.1450   51.2220 C   0  0  0  0  0  0  0  0  0  0  0  0
   36.2090   28.7060   50.5550 N   0  0  0  0  0  0  0  0  0  0  0  0
   37.1770   28.6520   48.7170 H   0  0  0  0  0  0  0  0  0  0  0  0
   33.4540   30.7320   48.7990 H   0  0  0  0  0  0  0  0  0  0  0  0
   35.0890   28.8800   52.2730 H   0  0  0  0  0  0  0  0  0  0  0  0
  1 27  1  0  0  0  0
  2  7  1  0  0  0  0
  2  8  1  0  0  0  0
  2  1  1  0  0  0  0
  3  2  1  0  0  0  0
  4  3  1  0  0  0  0
  4  5  1  0  0  0  0
  5  6  1  0  0  0  0
  6 14  1  1  0  0  0
  6  1  1  0  0  0  0
  6 16  1  0  0  0  0
  9  3  1  0  0  0  0
 10  3  1  0  0  0  0
 11  4  1  0  0  0  0
 12  5  1  0  0  0  0
 13  5  1  0  0  0  0
 15 21  1  0  0  0  0
 16 15  2  0  0  0  0
 17 19  2  0  0  0  0
 17 16  1  0  0  0  0
 18 17  1  0  0  0  0
 19 20  1  0  0  0  0
 20 22  1  0  0  0  0
 20 21  2  0  0  0  0
 23 24  1  0  0  0  0
 23 22  1  0  0  0  0
 25 19  1  0  0  0  0
 25 23  1  0  0  0  0
 26 31  1  0  0  0  0
 27 26  2  0  0  0  0
 27 28  1  0  0  0  0
 28 29  2  0  0  0  0
 29 30  1  0  0  0  0
 30 34  1  0  0  0  0
 31 30  2  0  0  0  0
 32 26  1  0  0  0  0
 33 28  1  0  0  0  0
M  END
>  <minimizedAffinity>
-4.42531252

>  <minimizedRMSD>
3.60130382

$$$$
