
 OpenBabel03272510163D

 30 33  0  0  0  0  0  0  0  0999 V2000
   37.4770   29.1910   50.8370 Br  0  0  0  0  0  0  0  0  0  0  0  0
   36.0420   29.2830   49.5740 C   0  0  0  0  0  0  0  0  0  0  0  0
   36.0100   30.2820   48.6110 C   0  0  0  0  0  0  0  0  0  0  0  0
   34.9450   30.2790   47.7410 C   0  0  0  0  0  0  0  0  0  0  0  0
   33.9180   29.3490   47.7710 C   0  0  0  0  0  0  0  0  0  0  0  0
   33.9910   28.3800   48.7400 C   0  0  0  0  0  0  0  0  0  0  0  0
   35.0450   28.3510   49.6310 C   0  0  0  0  0  0  0  0  0  0  0  0
   34.9120   31.0580   46.9830 H   0  0  0  0  0  0  0  0  0  0  0  0
   33.2000   27.6340   48.7900 H   0  0  0  0  0  0  0  0  0  0  0  0
   35.0650   27.5590   50.3900 H   0  0  0  0  0  0  0  0  0  0  0  0
   32.7420   30.5260   46.0210 C   0  0  0  0  0  3  0  0  0  0  0  0
   32.8220   29.4040   46.8210 C   0  0  0  0  0  0  0  0  0  0  0  0
   31.8750   28.4080   46.6850 C   0  0  0  0  0  0  0  0  0  0  0  0
   31.9320   27.5380   47.3010 H   0  0  0  0  0  0  0  0  0  0  0  0
   30.8740   28.5530   45.7560 C   0  0  0  0  0  0  0  0  0  0  0  0
   30.7960   29.6870   44.9490 C   0  0  0  0  0  0  0  0  0  0  0  0
   31.7370   30.7080   45.0650 C   0  0  0  0  0  3  0  0  0  0  0  0
   29.7010   29.6250   44.0770 O   0  0  0  0  0  0  0  0  0  0  0  0
   29.3640   28.2300   44.0870 C   0  0  0  0  0  3  0  0  0  0  0  0
   28.3000   28.0820   43.9110 H   0  0  0  0  0  0  0  0  0  0  0  0
   29.7790   27.7670   45.3590 O   0  0  0  0  0  0  0  0  0  0  0  0
   38.0280   33.2010   49.4380 C   0  0  0  0  0  0  0  0  0  0  0  0
   39.0450   33.2010   48.4580 C   0  0  0  0  0  0  0  0  0  0  0  0
   39.0180   32.1830   47.5120 C   0  0  0  0  0  0  0  0  0  0  0  0
   38.0270   31.2310   47.5650 N   0  0  0  0  0  0  0  0  0  0  0  0
   37.0700   31.2830   48.5390 C   0  0  0  0  0  0  0  0  0  0  0  0
   37.0790   32.2620   49.4620 N   0  0  0  0  0  0  0  0  0  0  0  0
   38.0880   34.0110   50.1530 H   0  0  0  0  0  0  0  0  0  0  0  0
   39.8300   33.9430   48.4040 H   0  0  0  0  0  0  0  0  0  0  0  0
   39.7400   32.0770   46.7130 H   0  0  0  0  0  0  0  0  0  0  0  0
  2  7  1  0  0  0  0
  2  1  1  0  0  0  0
  3  2  2  0  0  0  0
  4  5  2  0  0  0  0
  4  3  1  0  0  0  0
  5  6  1  0  0  0  0
  6  9  1  0  0  0  0
  6  7  2  0  0  0  0
  7 10  1  0  0  0  0
  8  4  1  0  0  0  0
 11 12  1  0  0  0  0
 12  5  1  0  0  0  0
 13 12  2  0  0  0  0
 13 14  1  0  0  0  0
 15 13  1  0  0  0  0
 16 17  1  0  0  0  0
 16 15  2  0  0  0  0
 17 11  2  0  0  0  0
 18 19  1  0  0  0  0
 18 16  1  0  0  0  0
 19 21  1  0  0  0  0
 20 19  1  0  0  0  0
 21 15  1  0  0  0  0
 22 27  1  0  0  0  0
 22 28  1  0  0  0  0
 23 22  2  0  0  0  0
 24 25  2  0  0  0  0
 24 23  1  0  0  0  0
 25 26  1  0  0  0  0
 26  3  1  0  0  0  0
 26 27  2  0  0  0  0
 29 23  1  0  0  0  0
 30 24  1  0  0  0  0
M  END
>  <minimizedAffinity>
-6.12914419

>  <minimizedRMSD>
1.04568851

$$$$
