
 OpenBabel03272500583D

 37 40  0  0  0  0  0  0  0  0999 V2000
   38.0860   31.8830   47.4220 C   0  0  0  0  0  0  0  0  0  0  0  0
   38.5320   32.7890   48.3380 C   0  0  0  0  0  0  0  0  0  0  0  0
   38.0200   32.8620   49.6370 C   0  0  0  0  0  0  0  0  0  0  0  0
   36.9750   31.9230   49.9920 C   0  0  0  0  0  0  0  0  0  0  0  0
   36.5750   31.0470   49.0350 C   0  0  0  0  0  0  0  0  0  0  0  0
   37.0730   30.9880   47.7940 C   0  0  0  0  0  0  0  0  0  0  0  0
   39.3260   33.5160   48.0990 H   0  0  0  0  0  0  0  0  0  0  0  0
   38.4190   33.6070   50.3130 H   0  0  0  0  0  0  0  0  0  0  0  0
   36.6790   32.0910   51.0060 H   0  0  0  0  0  0  0  0  0  0  0  0
   35.8260   30.4380   49.5180 H   0  0  0  0  0  0  0  0  0  0  0  0
   39.9930   31.2730   46.0140 C   0  0  0  0  0  0  0  0  0  0  0  0
   38.7360   31.9190   46.1320 C   0  0  0  0  0  0  0  0  0  0  0  0
   38.2880   32.5000   44.9720 C   0  0  0  0  0  0  0  0  0  0  0  0
   39.0070   32.4400   43.8440 N   0  0  0  0  0  0  0  0  0  0  0  0
   40.1750   31.8360   43.7530 C   0  0  0  0  0  0  0  0  0  0  0  0
   40.6560   31.2570   44.8410 N   0  0  0  0  0  0  0  0  0  0  0  0
   40.4310   30.7810   46.8870 H   0  0  0  0  0  0  0  0  0  0  0  0
   37.3330   32.9930   45.0520 H   0  0  0  0  0  0  0  0  0  0  0  0
   40.7650   31.7820   42.8460 H   0  0  0  0  0  0  0  0  0  0  0  0
   35.1620   29.9440   46.9030 C   0  0  0  0  0  0  0  0  0  0  0  0
   34.5050   30.6170   47.7890 O   0  0  0  0  0  0  0  0  0  0  0  0
   36.6050   30.0920   46.8670 N   0  0  0  0  0  0  0  0  0  0  0  0
   37.2030   29.5600   46.1990 H   0  0  0  0  0  0  0  0  0  0  0  0
   34.4710   29.1320   46.0520 O   0  0  0  0  0  0  0  0  0  0  0  0
   33.2390   29.4160   45.4910 C   0  0  0  0  0  0  0  0  0  0  0  0
   33.0610   30.4120   44.6490 O   0  0  0  0  0  0  0  0  0  0  0  0
   31.8030   27.3810   45.2010 C   0  0  0  0  0  3  0  0  0  0  0  0
   32.0560   28.5810   45.8010 C   0  0  0  0  0  0  0  0  0  0  0  0
   31.1360   29.0000   46.7380 C   0  0  0  0  0  0  0  0  0  0  0  0
   31.2990   29.9570   47.2450 H   0  0  0  0  0  0  0  0  0  0  0  0
   30.0200   28.3020   47.0900 C   0  0  0  0  0  0  0  0  0  0  0  0
   29.7990   27.0820   46.4530 C   0  0  0  0  0  0  0  0  0  0  0  0
   30.6940   26.6230   45.5080 C   0  0  0  0  0  3  0  0  0  0  0  0
   28.6040   26.5430   46.9650 O   0  0  0  0  0  0  0  0  0  0  0  0
   28.3120   27.2170   48.1730 C   0  0  0  0  0  3  0  0  0  0  0  0
   27.2390   27.4080   48.3370 H   0  0  0  0  0  0  0  0  0  0  0  0
   28.9500   28.4750   47.9750 O   0  0  0  0  0  0  0  0  0  0  0  0
  1  6  2  0  0  0  0
  1  2  1  0  0  0  0
  2  3  2  0  0  0  0
  3  4  1  0  0  0  0
  3  8  1  0  0  0  0
  4  9  1  0  0  0  0
  5 10  1  0  0  0  0
  5  4  2  0  0  0  0
  6  5  1  0  0  0  0
  7  2  1  0  0  0  0
 11 12  1  0  0  0  0
 11 17  1  0  0  0  0
 12  1  1  0  0  0  0
 13 18  1  0  0  0  0
 13 12  2  0  0  0  0
 14 13  1  0  0  0  0
 15 14  2  0  0  0  0
 15 16  1  0  0  0  0
 16 11  2  0  0  0  0
 19 15  1  0  0  0  0
 20 21  2  0  0  0  0
 22 20  1  0  0  0  0
 22  6  1  0  0  0  0
 23 22  1  0  0  0  0
 24 20  1  0  0  0  0
 25 28  1  0  0  0  0
 25 24  1  0  0  0  0
 26 25  2  0  0  0  0
 27 33  2  0  0  0  0
 27 28  1  0  0  0  0
 28 29  2  0  0  0  0
 29 31  1  0  0  0  0
 29 30  1  0  0  0  0
 31 37  1  0  0  0  0
 32 34  1  0  0  0  0
 32 31  2  0  0  0  0
 33 32  1  0  0  0  0
 34 35  1  0  0  0  0
 35 36  1  0  0  0  0
 37 35  1  0  0  0  0
M  END
>  <minimizedAffinity>
-5.85618591

>  <minimizedRMSD>
0.828434646

$$$$
