
 OpenBabel03272510173D

 30 33  0  0  0  0  0  0  0  0999 V2000
   37.4380   29.2350   50.8990 Br  0  0  0  0  0  0  0  0  0  0  0  0
   36.0290   29.2790   49.6040 C   0  0  0  0  0  0  0  0  0  0  0  0
   36.0090   30.2500   48.6140 C   0  0  0  0  0  0  0  0  0  0  0  0
   34.9630   30.2140   47.7220 C   0  0  0  0  0  0  0  0  0  0  0  0
   33.9430   29.2750   47.7570 C   0  0  0  0  0  0  0  0  0  0  0  0
   34.0030   28.3350   48.7540 C   0  0  0  0  0  0  0  0  0  0  0  0
   35.0390   28.3410   49.6680 C   0  0  0  0  0  0  0  0  0  0  0  0
   34.9390   30.9700   46.9410 H   0  0  0  0  0  0  0  0  0  0  0  0
   33.2180   27.5840   48.8100 H   0  0  0  0  0  0  0  0  0  0  0  0
   35.0490   27.5700   50.4490 H   0  0  0  0  0  0  0  0  0  0  0  0
   32.1780   28.1160   46.5860 C   0  0  0  0  0  0  0  0  0  0  0  0
   32.8660   29.2950   46.7830 C   0  0  0  0  0  0  0  0  0  0  0  0
   32.5060   30.4160   46.0620 C   0  0  0  0  0  0  0  0  0  0  0  0
   33.0340   31.3310   46.2100 H   0  0  0  0  0  0  0  0  0  0  0  0
   31.4720   30.3330   45.1620 C   0  0  0  0  0  0  0  0  0  0  0  0
   30.7790   29.1400   44.9650 C   0  0  0  0  0  0  0  0  0  0  0  0
   31.1210   27.9930   45.6790 C   0  0  0  0  0  0  0  0  0  0  0  0
   29.7680   29.2830   44.0050 O   0  0  0  0  0  0  0  0  0  0  0  0
   29.5930   30.7060   43.9360 C   0  0  0  0  0  0  0  0  0  0  0  0
   29.2640   31.0130   42.9450 H   0  0  0  0  0  0  0  0  0  0  0  0
   30.8560   31.2420   44.2860 O   0  0  0  0  0  0  0  0  0  0  0  0
   38.0120   33.1840   49.4260 C   0  0  0  0  0  0  0  0  0  0  0  0
   39.0240   33.1890   48.4410 C   0  0  0  0  0  0  0  0  0  0  0  0
   39.0000   32.1680   47.4970 C   0  0  0  0  0  0  0  0  0  0  0  0
   38.0150   31.2110   47.5560 N   0  0  0  0  0  0  0  0  0  0  0  0
   37.0620   31.2580   48.5340 C   0  0  0  0  0  0  0  0  0  0  0  0
   37.0700   32.2380   49.4560 N   0  0  0  0  0  0  0  0  0  0  0  0
   38.0700   33.9950   50.1400 H   0  0  0  0  0  0  0  0  0  0  0  0
   39.8040   33.9360   48.3830 H   0  0  0  0  0  0  0  0  0  0  0  0
   39.7180   32.0660   46.6950 H   0  0  0  0  0  0  0  0  0  0  0  0
  2  7  1  0  0  0  0
  2  1  1  0  0  0  0
  3  2  2  0  0  0  0
  4  5  2  0  0  0  0
  4  3  1  0  0  0  0
  5  6  1  0  0  0  0
  6  9  1  0  0  0  0
  6  7  2  0  0  0  0
  7 10  1  0  0  0  0
  8  4  1  0  0  0  0
 11 12  1  0  0  0  0
 12  5  1  0  0  0  0
 13 14  1  0  0  0  0
 13 12  2  0  0  0  0
 15 13  1  0  0  0  0
 16 15  2  0  0  0  0
 16 17  1  0  0  0  0
 17 11  2  0  0  0  0
 18 16  1  0  0  0  0
 19 18  1  0  0  0  0
 19 21  1  0  0  0  0
 20 19  1  0  0  0  0
 21 15  1  0  0  0  0
 22 27  1  0  0  0  0
 22 28  1  0  0  0  0
 23 22  2  0  0  0  0
 24 25  2  0  0  0  0
 24 23  1  0  0  0  0
 25 26  1  0  0  0  0
 26  3  1  0  0  0  0
 26 27  2  0  0  0  0
 29 23  1  0  0  0  0
 30 24  1  0  0  0  0
M  END
>  <minimizedAffinity>
-6.17297363

>  <minimizedRMSD>
0.46845901

$$$$
