
 OpenBabel03272507123D

 42 47  0  0  0  0  0  0  0  0999 V2000
   35.8280   29.0950   49.8320 C   0  0  0  0  0  0  0  0  0  0  0  0
   34.7860   29.5970   50.5600 C   0  0  0  0  0  0  0  0  0  0  0  0
   33.6230   29.0130   50.0470 C   0  0  0  0  0  0  0  0  0  0  0  0
   34.0460   28.1670   49.0090 C   0  0  0  0  0  0  0  0  0  0  0  0
   35.3370   28.2690   48.9460 O   0  0  0  0  0  0  0  0  0  0  0  0
   34.8250   30.3160   51.3860 H   0  0  0  0  0  0  0  0  0  0  0  0
   32.6510   29.2370   50.4410 H   0  0  0  0  0  0  0  0  0  0  0  0
   33.5110   26.4040   47.3450 C   0  0  0  0  0  0  0  0  0  0  0  0
   33.1030   27.3840   48.2350 C   0  0  0  0  0  0  0  0  0  0  0  0
   31.7710   27.6520   48.4190 C   0  0  0  0  0  0  0  0  0  0  0  0
   30.8320   26.9250   47.6990 C   0  0  0  0  0  0  0  0  0  0  0  0
   29.4930   26.9730   47.6810 N   0  0  0  0  0  0  0  0  0  0  0  0
   29.0740   26.0540   46.8090 N   0  0  0  0  0  0  0  0  0  0  0  0
   30.1380   25.4270   46.2790 C   0  0  0  0  0  0  0  0  0  0  0  0
   31.2950   25.9580   46.8260 C   0  0  0  0  0  0  0  0  0  0  0  0
   32.6230   25.6690   46.6210 C   0  0  0  0  0  0  0  0  0  0  0  0
   34.5800   26.2030   47.2100 H   0  0  0  0  0  0  0  0  0  0  0  0
   31.3570   28.4110   49.1020 H   0  0  0  0  0  0  0  0  0  0  0  0
   28.8560   27.6100   48.2410 H   0  0  0  0  0  0  0  0  0  0  0  0
   30.1560   24.6210   45.5320 H   0  0  0  0  0  0  0  0  0  0  0  0
   32.9720   24.9140   45.9370 H   0  0  0  0  0  0  0  0  0  0  0  0
   37.2000   29.4850   50.0930 C   0  0  0  0  0  0  0  0  0  0  0  0
   37.8700   28.8270   50.9340 O   0  0  0  0  0  0  0  0  0  0  0  0
   37.7230   30.6170   49.3640 C   0  0  0  0  0  0  0  0  0  0  0  0
   38.2960   31.6440   50.1080 C   0  0  0  0  0  0  0  0  0  0  0  0
   38.8100   32.7510   49.4300 C   0  0  0  0  0  0  0  0  0  0  0  0
   38.7130   32.7470   48.0720 N   0  0  0  0  0  0  0  0  0  0  0  0
   38.1610   31.7550   47.3850 C   0  0  0  0  0  0  0  0  0  0  0  0
   37.6670   30.6920   48.0370 N   0  0  0  0  0  0  0  0  0  0  0  0
   38.3330   31.5680   51.1830 H   0  0  0  0  0  0  0  0  0  0  0  0
   39.2480   33.5320   50.0340 H   0  0  0  0  0  0  0  0  0  0  0  0
   37.1980   30.9880   45.2450 C   0  0  0  0  0  3  0  0  0  0  0  0
   38.0820   31.8000   45.9290 C   0  0  0  0  0  0  0  0  0  0  0  0
   38.8720   32.6410   45.1850 C   0  0  0  0  0  0  0  0  0  0  0  0
   39.5760   33.2920   45.6720 H   0  0  0  0  0  0  0  0  0  0  0  0
   38.7820   32.6710   43.7960 C   0  0  0  0  0  0  0  0  0  0  0  0
   37.8990   31.8600   43.1130 C   0  0  0  0  0  0  0  0  0  0  0  0
   37.1100   31.0180   43.8690 C   0  0  0  0  0  3  0  0  0  0  0  0
   38.0420   32.1160   41.7450 O   0  0  0  0  0  0  0  0  0  0  0  0
   38.8080   33.3030   41.6320 C   0  0  0  0  0  3  0  0  0  0  0  0
   38.1390   34.1890   41.5300 H   0  0  0  0  0  0  0  0  0  0  0  0
   39.4840   33.4390   42.8830 O   0  0  0  0  0  0  0  0  0  0  0  0
  1 22  1  0  0  0  0
  1  2  2  0  0  0  0
  2  6  1  0  0  0  0
  3  7  1  0  0  0  0
  3  2  1  0  0  0  0
  4  3  2  0  0  0  0
  5  4  1  0  0  0  0
  5  1  1  0  0  0  0
  8  9  1  0  0  0  0
  9 10  2  0  0  0  0
  9  4  1  0  0  0  0
 10 18  1  0  0  0  0
 11 10  1  0  0  0  0
 12 11  1  0  0  0  0
 12 19  1  0  0  0  0
 13 12  1  0  0  0  0
 14 13  2  0  0  0  0
 14 15  1  0  0  0  0
 15 11  2  0  0  0  0
 16 15  1  0  0  0  0
 16  8  2  0  0  0  0
 17  8  1  0  0  0  0
 20 14  1  0  0  0  0
 21 16  1  0  0  0  0
 22 23  2  0  0  0  0
 24 22  1  0  0  0  0
 24 25  1  0  0  0  0
 25 30  1  0  0  0  0
 26 31  1  0  0  0  0
 26 25  2  0  0  0  0
 27 26  1  0  0  0  0
 28 29  1  0  0  0  0
 28 27  2  0  0  0  0
 29 24  2  0  0  0  0
 32 33  1  0  0  0  0
 33 28  1  0  0  0  0
 34 35  1  0  0  0  0
 34 33  2  0  0  0  0
 36 34  1  0  0  0  0
 37 36  2  0  0  0  0
 37 38  1  0  0  0  0
 38 32  2  0  0  0  0
 39 37  1  0  0  0  0
 40 39  1  0  0  0  0
 40 42  1  0  0  0  0
 41 40  1  0  0  0  0
 42 36  1  0  0  0  0
M  END
>  <minimizedAffinity>
-7.34520912

>  <minimizedRMSD>
0.78367126

$$$$
