
 OpenBabel03272509073D

 42 46  0  0  0  0  0  0  0  0999 V2000
   33.0640   28.1490   47.8750 C   0  0  0  0  0  0  0  0  0  0  0  0
   32.3890   28.8280   47.3620 H   0  0  0  0  0  0  0  0  0  0  0  0
   32.4860   27.7010   48.7110 H   0  0  0  0  0  0  0  0  0  0  0  0
   33.4600   27.0010   47.0120 C   0  0  0  0  0  0  0  0  0  0  0  0
   33.4500   25.6650   47.4070 C   0  0  0  0  0  0  0  0  0  0  0  0
   33.8230   24.6690   46.5450 C   0  0  0  0  0  0  0  0  0  0  0  0
   34.2210   24.9560   45.2570 C   0  0  0  0  0  0  0  0  0  0  0  0
   34.2310   26.2710   44.8630 C   0  0  0  0  0  0  0  0  0  0  0  0
   33.8560   27.2950   45.7230 C   0  0  0  0  0  0  0  0  0  0  0  0
   33.1220   25.5260   48.4460 H   0  0  0  0  0  0  0  0  0  0  0  0
   33.7560   23.7050   47.0150 H   0  0  0  0  0  0  0  0  0  0  0  0
   34.4920   24.0960   44.6650 H   0  0  0  0  0  0  0  0  0  0  0  0
   34.5630   26.3620   43.8270 H   0  0  0  0  0  0  0  0  0  0  0  0
   35.0660   29.4160   44.8720 C   0  0  0  0  0  3  0  0  0  0  0  0
   33.9910   28.5740   45.0360 C   0  0  0  0  0  0  0  0  0  0  0  0
   32.8030   29.0510   44.4630 C   0  0  0  0  0  0  0  0  0  0  0  0
   31.8700   28.4790   44.5220 H   0  0  0  0  0  0  0  0  0  0  0  0
   32.6760   30.2460   43.7890 C   0  0  0  0  0  0  0  0  0  0  0  0
   33.7860   31.0510   43.6550 C   0  0  0  0  0  0  0  0  0  0  0  0
   34.9570   30.6080   44.2050 C   0  0  0  0  0  3  0  0  0  0  0  0
   33.4110   32.1830   42.9480 O   0  0  0  0  0  0  0  0  0  0  0  0
   32.2170   31.8610   42.2560 C   0  0  0  0  0  3  0  0  0  0  0  0
   32.5240   31.3890   41.3010 H   0  0  0  0  0  0  0  0  0  0  0  0
   31.6340   30.9080   43.1560 O   0  0  0  0  0  0  0  0  0  0  0  0
   35.0030   28.3840   49.4580 C   0  0  0  0  0  3  0  0  0  0  0  0
   34.2070   28.8350   48.5170 C   0  0  0  0  0  3  0  0  0  0  0  0
   37.3910   30.1580   51.5660 C   0  0  0  0  0  0  0  0  0  0  0  0
   38.0980   30.9260   50.6200 C   0  0  0  0  0  0  0  0  0  0  0  0
   37.7220   30.8090   49.2600 C   0  0  0  0  0  0  0  0  0  0  0  0
   36.6990   29.9600   48.9460 N   0  0  0  0  0  0  0  0  0  0  0  0
   36.0640   29.2520   49.9190 C   0  0  0  0  0  0  0  0  0  0  0  0
   36.4020   29.3480   51.2010 N   0  0  0  0  0  0  0  0  0  0  0  0
   37.7150   30.2810   52.6060 H   0  0  0  0  0  0  0  0  0  0  0  0
   38.9140   31.6030   50.8660 H   0  0  0  0  0  0  0  0  0  0  0  0
   38.3750   31.5650   48.1920 C   0  0  0  0  0  0  0  0  0  0  0  0
   38.5580   31.0510   46.9270 C   0  0  0  0  0  0  0  0  0  0  0  0
   39.1980   32.0360   46.1680 C   0  0  0  0  0  0  0  0  0  0  0  0
   39.3720   33.0900   46.9990 N   0  0  0  0  0  0  0  0  0  0  0  0
   38.8850   32.8200   48.2080 N   0  0  0  0  0  0  0  0  0  0  0  0
   38.2710   30.0620   46.5460 H   0  0  0  0  0  0  0  0  0  0  0  0
   39.4720   31.9160   45.1300 H   0  0  0  0  0  0  0  0  0  0  0  0
   39.8420   33.9560   46.6290 H   0  0  0  0  0  0  0  0  0  0  0  0
  1 26  1  0  0  0  0
  1  3  1  0  0  0  0
  2  1  1  0  0  0  0
  4  5  1  0  0  0  0
  4  1  1  0  0  0  0
  5 10  1  0  0  0  0
  6 11  1  0  0  0  0
  6  5  2  0  0  0  0
  7  6  1  0  0  0  0
  8  7  2  0  0  0  0
  8  9  1  0  0  0  0
  9  4  2  0  0  0  0
 12  7  1  0  0  0  0
 13  8  1  0  0  0  0
 14 15  1  0  0  0  0
 15  9  1  0  0  0  0
 16 17  1  0  0  0  0
 16 15  2  0  0  0  0
 18 16  1  0  0  0  0
 19 18  2  0  0  0  0
 19 20  1  0  0  0  0
 20 14  2  0  0  0  0
 21 19  1  0  0  0  0
 22 21  1  0  0  0  0
 22 24  1  0  0  0  0
 23 22  1  0  0  0  0
 24 18  1  0  0  0  0
 25 31  1  0  0  0  0
 26 25  2  0  0  0  0
 27 33  1  0  0  0  0
 28 34  1  0  0  0  0
 28 27  2  0  0  0  0
 29 28  1  0  0  0  0
 30 29  2  0  0  0  0
 30 31  1  0  0  0  0
 31 32  2  0  0  0  0
 32 27  1  0  0  0  0
 35 39  2  0  0  0  0
 35 29  1  0  0  0  0
 36 35  1  0  0  0  0
 37 36  2  0  0  0  0
 37 38  1  0  0  0  0
 38 39  1  0  0  0  0
 40 36  1  0  0  0  0
 41 37  1  0  0  0  0
 42 38  1  0  0  0  0
M  END
>  <minimizedAffinity>
-6.59408998

>  <minimizedRMSD>
1.01003647

$$$$
