
 OpenBabel03272500583D

 37 40  0  0  0  0  0  0  0  0999 V2000
   38.0950   31.8870   47.4260 C   0  0  0  0  0  0  0  0  0  0  0  0
   38.5960   32.7750   48.3300 C   0  0  0  0  0  0  0  0  0  0  0  0
   38.1250   32.8600   49.6440 C   0  0  0  0  0  0  0  0  0  0  0  0
   37.0600   31.9560   50.0270 C   0  0  0  0  0  0  0  0  0  0  0  0
   36.6030   31.0960   49.0800 C   0  0  0  0  0  0  0  0  0  0  0  0
   37.0640   31.0250   47.8250 C   0  0  0  0  0  0  0  0  0  0  0  0
   39.4070   33.4760   48.0700 H   0  0  0  0  0  0  0  0  0  0  0  0
   38.5670   33.5900   50.3090 H   0  0  0  0  0  0  0  0  0  0  0  0
   36.7990   32.1300   51.0490 H   0  0  0  0  0  0  0  0  0  0  0  0
   35.8490   30.5110   49.5830 H   0  0  0  0  0  0  0  0  0  0  0  0
   39.9570   31.2510   45.9710 C   0  0  0  0  0  0  0  0  0  0  0  0
   38.7070   31.9050   46.1170 C   0  0  0  0  0  0  0  0  0  0  0  0
   38.2300   32.4760   44.9640 C   0  0  0  0  0  0  0  0  0  0  0  0
   38.9160   32.4010   43.8170 N   0  0  0  0  0  0  0  0  0  0  0  0
   40.0780   31.7890   43.7000 C   0  0  0  0  0  0  0  0  0  0  0  0
   40.5870   31.2190   44.7800 N   0  0  0  0  0  0  0  0  0  0  0  0
   40.4170   30.7660   46.8370 H   0  0  0  0  0  0  0  0  0  0  0  0
   37.2800   32.9760   45.0660 H   0  0  0  0  0  0  0  0  0  0  0  0
   40.6420   31.7210   42.7770 H   0  0  0  0  0  0  0  0  0  0  0  0
   35.1040   29.9850   47.0410 C   0  0  0  0  0  0  0  0  0  0  0  0
   34.5040   30.6300   47.9870 O   0  0  0  0  0  0  0  0  0  0  0  0
   36.5400   30.1470   46.9100 N   0  0  0  0  0  0  0  0  0  0  0  0
   37.0950   29.6370   46.1890 H   0  0  0  0  0  0  0  0  0  0  0  0
   34.3620   29.1880   46.2190 O   0  0  0  0  0  0  0  0  0  0  0  0
   33.1910   29.5560   45.5820 C   0  0  0  0  0  0  0  0  0  0  0  0
   33.1850   30.1600   44.4130 O   0  0  0  0  0  0  0  0  0  0  0  0
   30.7040   29.8260   45.7670 C   0  0  0  0  0  3  0  0  0  0  0  0
   31.8730   29.2590   46.1890 C   0  0  0  0  0  0  0  0  0  0  0  0
   31.7760   28.3710   47.2380 C   0  0  0  0  0  0  0  0  0  0  0  0
   32.6870   27.8920   47.6090 H   0  0  0  0  0  0  0  0  0  0  0  0
   30.6100   28.0350   47.8590 C   0  0  0  0  0  0  0  0  0  0  0  0
   29.4410   28.6360   47.3970 C   0  0  0  0  0  0  0  0  0  0  0  0
   29.4910   29.5330   46.3500 C   0  0  0  0  0  3  0  0  0  0  0  0
   28.3740   28.1490   48.1750 O   0  0  0  0  0  0  0  0  0  0  0  0
   28.8190   26.9760   48.8270 C   0  0  0  0  0  3  0  0  0  0  0  0
   28.4370   26.8580   49.8540 H   0  0  0  0  0  0  0  0  0  0  0  0
   30.2230   27.1940   48.9100 O   0  0  0  0  0  0  0  0  0  0  0  0
  1  6  2  0  0  0  0
  1  2  1  0  0  0  0
  2  3  2  0  0  0  0
  3  4  1  0  0  0  0
  3  8  1  0  0  0  0
  4  9  1  0  0  0  0
  5 10  1  0  0  0  0
  5  4  2  0  0  0  0
  6  5  1  0  0  0  0
  7  2  1  0  0  0  0
 11 12  1  0  0  0  0
 11 17  1  0  0  0  0
 12  1  1  0  0  0  0
 13 18  1  0  0  0  0
 13 12  2  0  0  0  0
 14 13  1  0  0  0  0
 15 14  2  0  0  0  0
 15 16  1  0  0  0  0
 16 11  2  0  0  0  0
 19 15  1  0  0  0  0
 20 21  2  0  0  0  0
 22 20  1  0  0  0  0
 22  6  1  0  0  0  0
 23 22  1  0  0  0  0
 24 20  1  0  0  0  0
 25 28  1  0  0  0  0
 25 24  1  0  0  0  0
 26 25  2  0  0  0  0
 27 28  2  0  0  0  0
 27 33  1  0  0  0  0
 28 29  1  0  0  0  0
 29 30  1  0  0  0  0
 29 31  2  0  0  0  0
 31 37  1  0  0  0  0
 32 31  1  0  0  0  0
 32 34  1  0  0  0  0
 33 32  2  0  0  0  0
 34 35  1  0  0  0  0
 35 37  1  0  0  0  0
 35 36  1  0  0  0  0
M  END
>  <minimizedAffinity>
-6.27722263

>  <minimizedRMSD>
2.18434262

$$$$
