
 OpenBabel03272510173D

 30 33  0  0  0  0  0  0  0  0999 V2000
   37.5050   29.2370   50.9010 Br  0  0  0  0  0  0  0  0  0  0  0  0
   36.0630   29.2980   49.6440 C   0  0  0  0  0  0  0  0  0  0  0  0
   36.0210   30.2780   48.6620 C   0  0  0  0  0  0  0  0  0  0  0  0
   34.9520   30.2530   47.7990 C   0  0  0  0  0  0  0  0  0  0  0  0
   33.9280   29.3200   47.8530 C   0  0  0  0  0  0  0  0  0  0  0  0
   34.0100   28.3710   48.8410 C   0  0  0  0  0  0  0  0  0  0  0  0
   35.0700   28.3650   49.7260 C   0  0  0  0  0  0  0  0  0  0  0  0
   34.9120   31.0160   47.0240 H   0  0  0  0  0  0  0  0  0  0  0  0
   33.2220   27.6240   48.9110 H   0  0  0  0  0  0  0  0  0  0  0  0
   35.0970   27.5880   50.5010 H   0  0  0  0  0  0  0  0  0  0  0  0
   32.7540   30.4410   46.0660 C   0  0  0  0  0  3  0  0  0  0  0  0
   32.8260   29.3520   46.9080 C   0  0  0  0  0  0  0  0  0  0  0  0
   31.8670   28.3640   46.8180 C   0  0  0  0  0  0  0  0  0  0  0  0
   31.9170   27.5180   47.4670 H   0  0  0  0  0  0  0  0  0  0  0  0
   30.8600   28.4850   45.8910 C   0  0  0  0  0  0  0  0  0  0  0  0
   30.7910   29.5870   45.0390 C   0  0  0  0  0  0  0  0  0  0  0  0
   31.7460   30.6000   45.1100 C   0  0  0  0  0  3  0  0  0  0  0  0
   29.6890   29.5040   44.1780 O   0  0  0  0  0  0  0  0  0  0  0  0
   29.3360   28.1150   44.2450 C   0  0  0  0  0  3  0  0  0  0  0  0
   28.2680   27.9740   44.0820 H   0  0  0  0  0  0  0  0  0  0  0  0
   29.7540   27.6980   45.5310 O   0  0  0  0  0  0  0  0  0  0  0  0
   38.0360   33.2180   49.4200 C   0  0  0  0  0  0  0  0  0  0  0  0
   39.0450   33.2040   48.4310 C   0  0  0  0  0  0  0  0  0  0  0  0
   39.0140   32.1680   47.5050 C   0  0  0  0  0  0  0  0  0  0  0  0
   38.0270   31.2140   47.5820 N   0  0  0  0  0  0  0  0  0  0  0  0
   37.0770   31.2810   48.5630 C   0  0  0  0  0  0  0  0  0  0  0  0
   37.0910   32.2760   49.4680 N   0  0  0  0  0  0  0  0  0  0  0  0
   38.0990   34.0410   50.1200 H   0  0  0  0  0  0  0  0  0  0  0  0
   39.8270   33.9470   48.3580 H   0  0  0  0  0  0  0  0  0  0  0  0
   39.7300   32.0500   46.7020 H   0  0  0  0  0  0  0  0  0  0  0  0
  2  7  1  0  0  0  0
  2  1  1  0  0  0  0
  3  2  2  0  0  0  0
  4  5  2  0  0  0  0
  4  3  1  0  0  0  0
  5  6  1  0  0  0  0
  6  9  1  0  0  0  0
  6  7  2  0  0  0  0
  7 10  1  0  0  0  0
  8  4  1  0  0  0  0
 11 12  1  0  0  0  0
 12  5  1  0  0  0  0
 13 12  2  0  0  0  0
 13 14  1  0  0  0  0
 15 13  1  0  0  0  0
 16 17  1  0  0  0  0
 16 15  2  0  0  0  0
 17 11  2  0  0  0  0
 18 19  1  0  0  0  0
 18 16  1  0  0  0  0
 19 21  1  0  0  0  0
 20 19  1  0  0  0  0
 21 15  1  0  0  0  0
 22 27  1  0  0  0  0
 22 28  1  0  0  0  0
 23 22  2  0  0  0  0
 24 25  2  0  0  0  0
 24 23  1  0  0  0  0
 25 26  1  0  0  0  0
 26  3  1  0  0  0  0
 26 27  2  0  0  0  0
 29 23  1  0  0  0  0
 30 24  1  0  0  0  0
M  END
>  <minimizedAffinity>
-6.12977362

>  <minimizedRMSD>
0.813800752

$$$$
