
 OpenBabel03272508503D

 42 47  0  0  0  0  0  0  0  0999 V2000
   37.4300   26.1100   33.8140 C   0  0  0  0  0  0  0  0  0  0  0  0
   37.2270   26.5920   35.0930 C   0  0  0  0  0  0  0  0  0  0  0  0
   38.1740   25.9100   35.8530 C   0  0  0  0  0  0  0  0  0  0  0  0
   38.8920   25.0660   35.0290 C   0  0  0  0  0  0  0  0  0  0  0  0
   38.4130   25.2160   33.8120 O   0  0  0  0  0  0  0  0  0  0  0  0
   36.5330   27.3140   35.4850 H   0  0  0  0  0  0  0  0  0  0  0  0
   38.3690   25.9820   36.9220 H   0  0  0  0  0  0  0  0  0  0  0  0
   41.1770   24.2410   34.7510 C   0  0  0  0  0  0  0  0  0  0  0  0
   39.9710   24.1750   35.4160 C   0  0  0  0  0  0  0  0  0  0  0  0
   39.7550   23.2720   36.4560 C   0  0  0  0  0  0  0  0  0  0  0  0
   40.7610   22.4110   36.8490 C   0  0  0  0  0  0  0  0  0  0  0  0
   40.8790   21.4520   37.7820 N   0  0  0  0  0  0  0  0  0  0  0  0
   42.1150   20.9530   37.6860 N   0  0  0  0  0  0  0  0  0  0  0  0
   42.7950   21.5760   36.7050 C   0  0  0  0  0  0  0  0  0  0  0  0
   41.9490   22.5250   36.1440 C   0  0  0  0  0  0  0  0  0  0  0  0
   42.2320   23.3860   35.1140 C   0  0  0  0  0  0  0  0  0  0  0  0
   41.3350   24.9500   33.9400 H   0  0  0  0  0  0  0  0  0  0  0  0
   38.8220   23.2090   36.9830 H   0  0  0  0  0  0  0  0  0  0  0  0
   40.1390   21.1580   38.4520 H   0  0  0  0  0  0  0  0  0  0  0  0
   43.8260   21.3650   36.4140 H   0  0  0  0  0  0  0  0  0  0  0  0
   43.1780   23.3980   34.6330 H   0  0  0  0  0  0  0  0  0  0  0  0
   36.6750   26.5230   32.6490 C   0  0  0  0  0  0  0  0  0  0  0  0
   36.3000   25.6350   31.8480 O   0  0  0  0  0  0  0  0  0  0  0  0
   36.3190   29.7440   30.9700 C   0  0  0  0  0  0  0  0  0  0  0  0
   35.8140   30.5600   31.9760 C   0  0  0  0  0  0  0  0  0  0  0  0
   35.5920   30.0330   33.2210 C   0  0  0  0  0  0  0  0  0  0  0  0
   35.8800   28.7250   33.4080 N   0  0  0  0  0  0  0  0  0  0  0  0
   36.3700   27.9380   32.4270 C   0  0  0  0  0  0  0  0  0  0  0  0
   36.5860   28.4550   31.2120 N   0  0  0  0  0  0  0  0  0  0  0  0
   36.5200   30.0930   29.9600 H   0  0  0  0  0  0  0  0  0  0  0  0
   35.6120   31.5800   31.7550 H   0  0  0  0  0  0  0  0  0  0  0  0
   35.7770   31.1220   35.4650 C   0  0  0  0  0  3  0  0  0  0  0  0
   35.0680   30.8170   34.3230 C   0  0  0  0  0  0  0  0  0  0  0  0
   33.7870   31.3140   34.2800 C   0  0  0  0  0  0  0  0  0  0  0  0
   33.1620   31.1220   33.4210 H   0  0  0  0  0  0  0  0  0  0  0  0
   33.2570   32.0710   35.3270 C   0  0  0  0  0  0  0  0  0  0  0  0
   34.0020   32.3530   36.4550 C   0  0  0  0  0  0  0  0  0  0  0  0
   35.2970   31.8630   36.5200 C   0  0  0  0  0  3  0  0  0  0  0  0
   33.2320   33.1170   37.3250 O   0  0  0  0  0  0  0  0  0  0  0  0
   31.8880   32.9890   36.8760 C   0  0  0  0  0  3  0  0  0  0  0  0
   31.3740   32.1270   37.3420 H   0  0  0  0  0  0  0  0  0  0  0  0
   32.0030   32.6650   35.4930 O   0  0  0  0  0  0  0  0  0  0  0  0
  1  2  2  0  0  0  0
  2  6  1  0  0  0  0
  2  3  1  0  0  0  0
  3  7  1  0  0  0  0
  4  9  1  0  0  0  0
  4  3  2  0  0  0  0
  5  1  1  0  0  0  0
  5  4  1  0  0  0  0
  8 16  2  0  0  0  0
  8  9  1  0  0  0  0
  9 10  2  0  0  0  0
 10 11  1  0  0  0  0
 10 18  1  0  0  0  0
 11 12  1  0  0  0  0
 12 19  1  0  0  0  0
 13 12  1  0  0  0  0
 14 13  2  0  0  0  0
 15 14  1  0  0  0  0
 15 11  2  0  0  0  0
 16 15  1  0  0  0  0
 17  8  1  0  0  0  0
 20 14  1  0  0  0  0
 21 16  1  0  0  0  0
 22  1  1  0  0  0  0
 23 22  2  0  0  0  0
 24 29  2  0  0  0  0
 24 25  1  0  0  0  0
 25 26  2  0  0  0  0
 26 27  1  0  0  0  0
 26 33  1  0  0  0  0
 28 22  1  0  0  0  0
 28 27  2  0  0  0  0
 29 28  1  0  0  0  0
 30 24  1  0  0  0  0
 31 25  1  0  0  0  0
 32 38  1  0  0  0  0
 33 32  2  0  0  0  0
 34 33  1  0  0  0  0
 34 36  2  0  0  0  0
 35 34  1  0  0  0  0
 36 42  1  0  0  0  0
 36 37  1  0  0  0  0
 37 38  2  0  0  0  0
 37 39  1  0  0  0  0
 40 39  1  0  0  0  0
 40 41  1  0  0  0  0
 42 40  1  0  0  0  0
M  END
>  <minimizedAffinity>
-7.24546146

$$$$

 OpenBabel03272508503D

 42 47  0  0  0  0  0  0  0  0999 V2000
   36.2640   24.6410   31.7550 C   0  0  0  0  0  0  0  0  0  0  0  0
   36.1040   23.2830   31.5510 C   0  0  0  0  0  0  0  0  0  0  0  0
   37.0630   22.7120   32.3830 C   0  0  0  0  0  0  0  0  0  0  0  0
   37.7470   23.7160   33.0390 C   0  0  0  0  0  0  0  0  0  0  0  0
   37.2370   24.8590   32.6340 O   0  0  0  0  0  0  0  0  0  0  0  0
   35.4290   22.7280   30.9240 H   0  0  0  0  0  0  0  0  0  0  0  0
   37.2900   21.6580   32.5370 H   0  0  0  0  0  0  0  0  0  0  0  0
   39.9560   24.3400   33.8820 C   0  0  0  0  0  0  0  0  0  0  0  0
   38.8270   23.5580   33.9960 C   0  0  0  0  0  0  0  0  0  0  0  0
   38.6890   22.6110   35.0110 C   0  0  0  0  0  0  0  0  0  0  0  0
   39.6980   22.4360   35.9390 C   0  0  0  0  0  0  0  0  0  0  0  0
   39.8790   21.6390   37.0050 N   0  0  0  0  0  0  0  0  0  0  0  0
   41.0780   21.9280   37.5190 N   0  0  0  0  0  0  0  0  0  0  0  0
   41.6720   22.8990   36.8010 C   0  0  0  0  0  0  0  0  0  0  0  0
   40.8080   23.2500   35.7710 C   0  0  0  0  0  0  0  0  0  0  0  0
   41.0110   24.1980   34.8010 C   0  0  0  0  0  0  0  0  0  0  0  0
   40.0530   25.0760   33.0850 H   0  0  0  0  0  0  0  0  0  0  0  0
   37.8170   21.9950   35.1140 H   0  0  0  0  0  0  0  0  0  0  0  0
   39.2050   20.9290   37.3580 H   0  0  0  0  0  0  0  0  0  0  0  0
   42.6570   23.3260   37.0020 H   0  0  0  0  0  0  0  0  0  0  0  0
   41.9000   24.7760   34.7560 H   0  0  0  0  0  0  0  0  0  0  0  0
   35.4810   25.6700   31.1020 C   0  0  0  0  0  0  0  0  0  0  0  0
   34.5550   25.3060   30.3410 O   0  0  0  0  0  0  0  0  0  0  0  0
   36.8960   29.0050   30.6650 C   0  0  0  0  0  0  0  0  0  0  0  0
   36.3500   29.7120   31.7290 C   0  0  0  0  0  0  0  0  0  0  0  0
   35.5040   29.0730   32.5980 C   0  0  0  0  0  0  0  0  0  0  0  0
   35.2420   27.7660   32.3700 N   0  0  0  0  0  0  0  0  0  0  0  0
   35.7770   27.0850   31.3340 C   0  0  0  0  0  0  0  0  0  0  0  0
   36.6020   27.7120   30.4870 N   0  0  0  0  0  0  0  0  0  0  0  0
   37.5740   29.4460   29.9380 H   0  0  0  0  0  0  0  0  0  0  0  0
   36.6020   30.7390   31.8460 H   0  0  0  0  0  0  0  0  0  0  0  0
   33.5820   29.5630   34.1220 C   0  0  0  0  0  3  0  0  0  0  0  0
   34.8920   29.7390   33.7320 C   0  0  0  0  0  0  0  0  0  0  0  0
   35.6200   30.6120   34.5050 C   0  0  0  0  0  0  0  0  0  0  0  0
   36.6550   30.8090   34.2700 H   0  0  0  0  0  0  0  0  0  0  0  0
   35.0560   31.2670   35.6030 C   0  0  0  0  0  0  0  0  0  0  0  0
   33.7380   31.0620   35.9580 C   0  0  0  0  0  0  0  0  0  0  0  0
   32.9860   30.1850   35.1930 C   0  0  0  0  0  3  0  0  0  0  0  0
   33.4480   31.8340   37.0770 O   0  0  0  0  0  0  0  0  0  0  0  0
   34.4990   32.7880   37.1810 C   0  0  0  0  0  3  0  0  0  0  0  0
   34.2790   33.7120   36.6150 H   0  0  0  0  0  0  0  0  0  0  0  0
   35.5990   32.1800   36.5110 O   0  0  0  0  0  0  0  0  0  0  0  0
  1  5  1  0  0  0  0
  2  1  2  0  0  0  0
  2  3  1  0  0  0  0
  3  7  1  0  0  0  0
  3  4  2  0  0  0  0
  4  9  1  0  0  0  0
  5  4  1  0  0  0  0
  6  2  1  0  0  0  0
  8  9  2  0  0  0  0
  8 16  1  0  0  0  0
  9 10  1  0  0  0  0
 10 18  1  0  0  0  0
 10 11  2  0  0  0  0
 11 12  1  0  0  0  0
 12 19  1  0  0  0  0
 12 13  1  0  0  0  0
 14 20  1  0  0  0  0
 14 13  2  0  0  0  0
 15 11  1  0  0  0  0
 15 14  1  0  0  0  0
 16 15  2  0  0  0  0
 17  8  1  0  0  0  0
 21 16  1  0  0  0  0
 22 28  1  0  0  0  0
 22  1  1  0  0  0  0
 23 22  2  0  0  0  0
 24 25  1  0  0  0  0
 25 31  1  0  0  0  0
 25 26  2  0  0  0  0
 26 33  1  0  0  0  0
 27 26  1  0  0  0  0
 28 27  2  0  0  0  0
 29 24  2  0  0  0  0
 29 28  1  0  0  0  0
 30 24  1  0  0  0  0
 32 38  1  0  0  0  0
 33 32  2  0  0  0  0
 33 34  1  0  0  0  0
 34 36  2  0  0  0  0
 35 34  1  0  0  0  0
 36 37  1  0  0  0  0
 36 42  1  0  0  0  0
 37 39  1  0  0  0  0
 38 37  2  0  0  0  0
 39 40  1  0  0  0  0
 41 40  1  0  0  0  0
 42 40  1  0  0  0  0
M  END
>  <minimizedAffinity>
-7.17868328

$$$$

 OpenBabel03272508503D

 42 47  0  0  0  0  0  0  0  0999 V2000
   36.7770   27.9220   32.3740 C   0  0  0  0  0  0  0  0  0  0  0  0
   37.4270   27.4270   33.4890 C   0  0  0  0  0  0  0  0  0  0  0  0
   36.8210   28.1010   34.5470 C   0  0  0  0  0  0  0  0  0  0  0  0
   35.8570   28.9530   34.0450 C   0  0  0  0  0  0  0  0  0  0  0  0
   35.8620   28.8150   32.7370 O   0  0  0  0  0  0  0  0  0  0  0  0
   38.2130   26.7010   33.5960 H   0  0  0  0  0  0  0  0  0  0  0  0
   37.0260   28.0180   35.6130 H   0  0  0  0  0  0  0  0  0  0  0  0
   33.6250   29.7150   34.6900 C   0  0  0  0  0  0  0  0  0  0  0  0
   34.9930   29.8390   34.8050 C   0  0  0  0  0  0  0  0  0  0  0  0
   35.5770   30.7960   35.6340 C   0  0  0  0  0  0  0  0  0  0  0  0
   34.7840   31.6540   36.3700 C   0  0  0  0  0  0  0  0  0  0  0  0
   35.0170   32.6560   37.2350 N   0  0  0  0  0  0  0  0  0  0  0  0
   33.8300   33.1240   37.6320 N   0  0  0  0  0  0  0  0  0  0  0  0
   32.8360   32.4390   37.0360 C   0  0  0  0  0  0  0  0  0  0  0  0
   33.4170   31.4820   36.2140 C   0  0  0  0  0  0  0  0  0  0  0  0
   32.7750   30.5660   35.4200 C   0  0  0  0  0  0  0  0  0  0  0  0
   33.1790   28.9650   34.0400 H   0  0  0  0  0  0  0  0  0  0  0  0
   36.6400   30.9040   35.7330 H   0  0  0  0  0  0  0  0  0  0  0  0
   35.9530   32.9970   37.5350 H   0  0  0  0  0  0  0  0  0  0  0  0
   31.7680   32.6140   37.1810 H   0  0  0  0  0  0  0  0  0  0  0  0
   31.7170   30.5110   35.3660 H   0  0  0  0  0  0  0  0  0  0  0  0
   37.0580   27.5200   31.0110 C   0  0  0  0  0  0  0  0  0  0  0  0
   36.7690   28.3220   30.0930 O   0  0  0  0  0  0  0  0  0  0  0  0
   39.4420   25.0040   29.8690 C   0  0  0  0  0  0  0  0  0  0  0  0
   38.8100   23.8110   30.1980 C   0  0  0  0  0  0  0  0  0  0  0  0
   37.5820   23.8460   30.8040 C   0  0  0  0  0  0  0  0  0  0  0  0
   37.0400   25.0590   31.0540 N   0  0  0  0  0  0  0  0  0  0  0  0
   37.6600   26.2150   30.7320 C   0  0  0  0  0  0  0  0  0  0  0  0
   38.8590   26.1780   30.1400 N   0  0  0  0  0  0  0  0  0  0  0  0
   40.4160   25.0540   29.3860 H   0  0  0  0  0  0  0  0  0  0  0  0
   39.2970   22.8930   29.9700 H   0  0  0  0  0  0  0  0  0  0  0  0
   35.6480   22.6450   31.8420 C   0  0  0  0  0  3  0  0  0  0  0  0
   36.8570   22.6470   31.1790 C   0  0  0  0  0  0  0  0  0  0  0  0
   37.3600   21.4030   30.8790 C   0  0  0  0  0  0  0  0  0  0  0  0
   38.3020   21.3120   30.3600 H   0  0  0  0  0  0  0  0  0  0  0  0
   36.6830   20.2320   31.2280 C   0  0  0  0  0  0  0  0  0  0  0  0
   35.4740   20.2760   31.8930 C   0  0  0  0  0  0  0  0  0  0  0  0
   34.9480   21.5190   32.2060 C   0  0  0  0  0  3  0  0  0  0  0  0
   35.0320   18.9760   32.1110 O   0  0  0  0  0  0  0  0  0  0  0  0
   36.1600   18.1360   31.8950 C   0  0  0  0  0  3  0  0  0  0  0  0
   36.7460   17.9810   32.8200 H   0  0  0  0  0  0  0  0  0  0  0  0
   37.0030   18.8870   31.0270 O   0  0  0  0  0  0  0  0  0  0  0  0
  1  5  1  0  0  0  0
  1  2  2  0  0  0  0
  2  6  1  0  0  0  0
  2  3  1  0  0  0  0
  3  7  1  0  0  0  0
  4  3  2  0  0  0  0
  4  9  1  0  0  0  0
  5  4  1  0  0  0  0
  8  9  2  0  0  0  0
  8 16  1  0  0  0  0
  9 10  1  0  0  0  0
 10 18  1  0  0  0  0
 10 11  2  0  0  0  0
 11 12  1  0  0  0  0
 12 19  1  0  0  0  0
 12 13  1  0  0  0  0
 14 20  1  0  0  0  0
 14 13  2  0  0  0  0
 15 11  1  0  0  0  0
 15 14  1  0  0  0  0
 16 15  2  0  0  0  0
 17  8  1  0  0  0  0
 21 16  1  0  0  0  0
 22  1  1  0  0  0  0
 23 22  2  0  0  0  0
 24 29  2  0  0  0  0
 24 25  1  0  0  0  0
 25 26  2  0  0  0  0
 26 27  1  0  0  0  0
 26 33  1  0  0  0  0
 28 22  1  0  0  0  0
 28 27  2  0  0  0  0
 29 28  1  0  0  0  0
 30 24  1  0  0  0  0
 31 25  1  0  0  0  0
 32 38  1  0  0  0  0
 33 32  2  0  0  0  0
 34 33  1  0  0  0  0
 34 36  2  0  0  0  0
 35 34  1  0  0  0  0
 36 37  1  0  0  0  0
 37 39  1  0  0  0  0
 37 38  2  0  0  0  0
 40 39  1  0  0  0  0
 40 41  1  0  0  0  0
 42 36  1  0  0  0  0
 42 40  1  0  0  0  0
M  END
>  <minimizedAffinity>
-7.12474728

$$$$

 OpenBabel03272508503D

 42 47  0  0  0  0  0  0  0  0999 V2000
   38.3690   26.5610   33.6400 C   0  0  0  0  0  0  0  0  0  0  0  0
   38.4460   27.2970   34.8070 C   0  0  0  0  0  0  0  0  0  0  0  0
   39.3120   26.5540   35.6060 C   0  0  0  0  0  0  0  0  0  0  0  0
   39.7120   25.4290   34.9120 C   0  0  0  0  0  0  0  0  0  0  0  0
   39.1230   25.4710   33.7370 O   0  0  0  0  0  0  0  0  0  0  0  0
   37.9850   28.2230   35.1010 H   0  0  0  0  0  0  0  0  0  0  0  0
   39.6560   26.7670   36.6170 H   0  0  0  0  0  0  0  0  0  0  0  0
   41.8910   24.3210   34.8710 C   0  0  0  0  0  0  0  0  0  0  0  0
   40.6110   24.3890   35.3780 C   0  0  0  0  0  0  0  0  0  0  0  0
   40.1500   23.4810   36.3310 C   0  0  0  0  0  0  0  0  0  0  0  0
   40.9800   22.4800   36.7960 C   0  0  0  0  0  0  0  0  0  0  0  0
   40.8540   21.4770   37.6800 N   0  0  0  0  0  0  0  0  0  0  0  0
   42.0190   20.8230   37.7100 N   0  0  0  0  0  0  0  0  0  0  0  0
   42.8930   21.3890   36.8570 C   0  0  0  0  0  0  0  0  0  0  0  0
   42.2540   22.4630   36.2500 C   0  0  0  0  0  0  0  0  0  0  0  0
   42.7740   23.3190   35.3130 C   0  0  0  0  0  0  0  0  0  0  0  0
   42.2420   25.0340   34.1280 H   0  0  0  0  0  0  0  0  0  0  0  0
   39.1560   23.5220   36.7350 H   0  0  0  0  0  0  0  0  0  0  0  0
   40.0020   21.2570   38.2360 H   0  0  0  0  0  0  0  0  0  0  0  0
   43.9180   21.0550   36.6830 H   0  0  0  0  0  0  0  0  0  0  0  0
   43.7690   23.2250   34.9540 H   0  0  0  0  0  0  0  0  0  0  0  0
   37.5770   26.9290   32.4850 C   0  0  0  0  0  0  0  0  0  0  0  0
   37.7600   28.0640   31.9870 O   0  0  0  0  0  0  0  0  0  0  0  0
   34.6130   25.6680   30.7690 C   0  0  0  0  0  0  0  0  0  0  0  0
   34.7560   24.2900   30.8820 C   0  0  0  0  0  0  0  0  0  0  0  0
   35.8470   23.7790   31.5340 C   0  0  0  0  0  0  0  0  0  0  0  0
   36.7420   24.6560   32.0420 N   0  0  0  0  0  0  0  0  0  0  0  0
   36.5970   25.9940   31.9290 C   0  0  0  0  0  0  0  0  0  0  0  0
   35.5300   26.4910   31.2910 N   0  0  0  0  0  0  0  0  0  0  0  0
   33.7740   26.1440   30.2660 H   0  0  0  0  0  0  0  0  0  0  0  0
   34.0110   23.6610   30.4570 H   0  0  0  0  0  0  0  0  0  0  0  0
   35.1980   21.4980   32.3320 C   0  0  0  0  0  3  0  0  0  0  0  0
   36.0700   22.3550   31.6950 C   0  0  0  0  0  0  0  0  0  0  0  0
   37.2080   21.7650   31.1970 C   0  0  0  0  0  0  0  0  0  0  0  0
   37.9460   22.3630   30.6830 H   0  0  0  0  0  0  0  0  0  0  0  0
   37.4490   20.3960   31.3380 C   0  0  0  0  0  0  0  0  0  0  0  0
   36.5480   19.5750   31.9850 C   0  0  0  0  0  0  0  0  0  0  0  0
   35.3930   20.1470   32.4940 C   0  0  0  0  0  3  0  0  0  0  0  0
   37.0390   18.2740   31.9770 O   0  0  0  0  0  0  0  0  0  0  0  0
   38.4170   18.3750   31.6380 C   0  0  0  0  0  3  0  0  0  0  0  0
   39.0570   18.5000   32.5320 H   0  0  0  0  0  0  0  0  0  0  0  0
   38.5180   19.6000   30.9190 O   0  0  0  0  0  0  0  0  0  0  0  0
  1  5  1  0  0  0  0
  1  2  2  0  0  0  0
  2  6  1  0  0  0  0
  2  3  1  0  0  0  0
  3  7  1  0  0  0  0
  4  9  1  0  0  0  0
  4  3  2  0  0  0  0
  5  4  1  0  0  0  0
  8 16  2  0  0  0  0
  8  9  1  0  0  0  0
  9 10  2  0  0  0  0
 10 18  1  0  0  0  0
 10 11  1  0  0  0  0
 11 12  1  0  0  0  0
 12 13  1  0  0  0  0
 12 19  1  0  0  0  0
 14 13  2  0  0  0  0
 15 11  2  0  0  0  0
 15 14  1  0  0  0  0
 16 15  1  0  0  0  0
 17  8  1  0  0  0  0
 20 14  1  0  0  0  0
 21 16  1  0  0  0  0
 22  1  1  0  0  0  0
 23 22  2  0  0  0  0
 24 25  2  0  0  0  0
 24 29  1  0  0  0  0
 25 26  1  0  0  0  0
 26 33  1  0  0  0  0
 26 27  2  0  0  0  0
 28 27  1  0  0  0  0
 28 22  1  0  0  0  0
 29 28  2  0  0  0  0
 30 24  1  0  0  0  0
 31 25  1  0  0  0  0
 32 38  1  0  0  0  0
 33 32  2  0  0  0  0
 34 36  2  0  0  0  0
 34 33  1  0  0  0  0
 35 34  1  0  0  0  0
 36 37  1  0  0  0  0
 37 38  2  0  0  0  0
 39 37  1  0  0  0  0
 40 39  1  0  0  0  0
 40 41  1  0  0  0  0
 42 36  1  0  0  0  0
 42 40  1  0  0  0  0
M  END
>  <minimizedAffinity>
-6.95084524

$$$$

 OpenBabel03272508503D

 42 47  0  0  0  0  0  0  0  0999 V2000
   35.9880   27.2410   31.3070 C   0  0  0  0  0  0  0  0  0  0  0  0
   36.6600   27.9420   30.3240 C   0  0  0  0  0  0  0  0  0  0  0  0
   36.7040   29.2420   30.8220 C   0  0  0  0  0  0  0  0  0  0  0  0
   36.0740   29.2760   32.0510 C   0  0  0  0  0  0  0  0  0  0  0  0
   35.6580   28.0540   32.3050 O   0  0  0  0  0  0  0  0  0  0  0  0
   37.0780   27.6330   29.3830 H   0  0  0  0  0  0  0  0  0  0  0  0
   37.1440   30.1300   30.3700 H   0  0  0  0  0  0  0  0  0  0  0  0
   35.9860   31.6980   32.3720 C   0  0  0  0  0  0  0  0  0  0  0  0
   35.8960   30.4330   32.9100 C   0  0  0  0  0  0  0  0  0  0  0  0
   35.6370   30.2270   34.2650 C   0  0  0  0  0  0  0  0  0  0  0  0
   35.4620   31.3070   35.1100 C   0  0  0  0  0  0  0  0  0  0  0  0
   35.2090   31.4550   36.4210 N   0  0  0  0  0  0  0  0  0  0  0  0
   35.1460   32.7660   36.6690 N   0  0  0  0  0  0  0  0  0  0  0  0
   35.3570   33.4650   35.5380 C   0  0  0  0  0  0  0  0  0  0  0  0
   35.5640   32.5530   34.5110 C   0  0  0  0  0  0  0  0  0  0  0  0
   35.8160   32.8290   33.1910 C   0  0  0  0  0  0  0  0  0  0  0  0
   36.1890   31.8470   31.3130 H   0  0  0  0  0  0  0  0  0  0  0  0
   35.5640   29.2490   34.6980 H   0  0  0  0  0  0  0  0  0  0  0  0
   35.0840   30.6840   37.1090 H   0  0  0  0  0  0  0  0  0  0  0  0
   35.3600   34.5540   35.4560 H   0  0  0  0  0  0  0  0  0  0  0  0
   35.8750   33.8230   32.8250 H   0  0  0  0  0  0  0  0  0  0  0  0
   35.6890   25.8250   31.2500 C   0  0  0  0  0  0  0  0  0  0  0  0
   34.5090   25.4850   31.0010 O   0  0  0  0  0  0  0  0  0  0  0  0
   38.2200   23.2780   30.5960 C   0  0  0  0  0  0  0  0  0  0  0  0
   38.7020   22.9900   31.8670 C   0  0  0  0  0  0  0  0  0  0  0  0
   38.1790   23.6490   32.9490 C   0  0  0  0  0  0  0  0  0  0  0  0
   37.2060   24.5590   32.7190 N   0  0  0  0  0  0  0  0  0  0  0  0
   36.7430   24.8340   31.4810 C   0  0  0  0  0  0  0  0  0  0  0  0
   37.2550   24.1900   30.4260 N   0  0  0  0  0  0  0  0  0  0  0  0
   38.5870   22.7960   29.6930 H   0  0  0  0  0  0  0  0  0  0  0  0
   39.4690   22.2610   31.9720 H   0  0  0  0  0  0  0  0  0  0  0  0
   39.5800   22.4750   34.6570 C   0  0  0  0  0  3  0  0  0  0  0  0
   38.6260   23.4060   34.3080 C   0  0  0  0  0  0  0  0  0  0  0  0
   38.1000   24.1250   35.3550 C   0  0  0  0  0  0  0  0  0  0  0  0
   37.3460   24.8760   35.1710 H   0  0  0  0  0  0  0  0  0  0  0  0
   38.5110   23.9120   36.6730 C   0  0  0  0  0  0  0  0  0  0  0  0
   39.4700   22.9670   36.9790 C   0  0  0  0  0  0  0  0  0  0  0  0
   40.0150   22.2320   35.9390 C   0  0  0  0  0  3  0  0  0  0  0  0
   39.6830   22.9710   38.3530 O   0  0  0  0  0  0  0  0  0  0  0  0
   38.5830   23.6720   38.9200 C   0  0  0  0  0  3  0  0  0  0  0  0
   37.7380   22.9980   39.1580 H   0  0  0  0  0  0  0  0  0  0  0  0
   38.1190   24.5150   37.8710 O   0  0  0  0  0  0  0  0  0  0  0  0
  1  5  1  0  0  0  0
  2  3  1  0  0  0  0
  2  1  2  0  0  0  0
  3  4  2  0  0  0  0
  4  5  1  0  0  0  0
  4  9  1  0  0  0  0
  6  2  1  0  0  0  0
  7  3  1  0  0  0  0
  8  9  2  0  0  0  0
  8 16  1  0  0  0  0
  9 10  1  0  0  0  0
 10 18  1  0  0  0  0
 10 11  2  0  0  0  0
 11 12  1  0  0  0  0
 12 13  1  0  0  0  0
 12 19  1  0  0  0  0
 14 13  2  0  0  0  0
 15 11  1  0  0  0  0
 15 14  1  0  0  0  0
 16 15  2  0  0  0  0
 17  8  1  0  0  0  0
 20 14  1  0  0  0  0
 21 16  1  0  0  0  0
 22  1  1  0  0  0  0
 22 28  1  0  0  0  0
 23 22  2  0  0  0  0
 24 25  1  0  0  0  0
 25 31  1  0  0  0  0
 25 26  2  0  0  0  0
 26 33  1  0  0  0  0
 27 26  1  0  0  0  0
 28 27  2  0  0  0  0
 29 24  2  0  0  0  0
 29 28  1  0  0  0  0
 30 24  1  0  0  0  0
 32 38  1  0  0  0  0
 33 32  2  0  0  0  0
 33 34  1  0  0  0  0
 34 36  2  0  0  0  0
 35 34  1  0  0  0  0
 36 37  1  0  0  0  0
 36 42  1  0  0  0  0
 37 39  1  0  0  0  0
 38 37  2  0  0  0  0
 39 40  1  0  0  0  0
 40 41  1  0  0  0  0
 42 40  1  0  0  0  0
M  END
>  <minimizedAffinity>
-6.94561577

$$$$

 OpenBabel03272508503D

 42 47  0  0  0  0  0  0  0  0999 V2000
   36.6520   25.8430   31.8430 C   0  0  0  0  0  0  0  0  0  0  0  0
   35.4440   25.9380   31.1770 C   0  0  0  0  0  0  0  0  0  0  0  0
   35.0620   24.6110   31.0010 C   0  0  0  0  0  0  0  0  0  0  0  0
   36.0250   23.7870   31.5500 C   0  0  0  0  0  0  0  0  0  0  0  0
   36.9620   24.5660   32.0450 O   0  0  0  0  0  0  0  0  0  0  0  0
   34.8760   26.7880   30.8450 H   0  0  0  0  0  0  0  0  0  0  0  0
   34.1680   24.2180   30.5190 H   0  0  0  0  0  0  0  0  0  0  0  0
   35.0440   21.6770   32.3000 C   0  0  0  0  0  0  0  0  0  0  0  0
   36.0190   22.3350   31.5820 C   0  0  0  0  0  0  0  0  0  0  0  0
   37.0070   21.6460   30.8800 C   0  0  0  0  0  0  0  0  0  0  0  0
   37.0290   20.2640   30.8900 C   0  0  0  0  0  0  0  0  0  0  0  0
   37.8150   19.3240   30.3390 N   0  0  0  0  0  0  0  0  0  0  0  0
   37.3330   18.1350   30.7110 N   0  0  0  0  0  0  0  0  0  0  0  0
   36.2480   18.2940   31.4930 C   0  0  0  0  0  0  0  0  0  0  0  0
   36.0240   19.6590   31.6280 C   0  0  0  0  0  0  0  0  0  0  0  0
   35.0240   20.2710   32.3400 C   0  0  0  0  0  0  0  0  0  0  0  0
   34.2780   22.2250   32.8440 H   0  0  0  0  0  0  0  0  0  0  0  0
   37.7720   22.1440   30.3170 H   0  0  0  0  0  0  0  0  0  0  0  0
   38.6440   19.4980   29.7350 H   0  0  0  0  0  0  0  0  0  0  0  0
   35.6590   17.4880   31.9340 H   0  0  0  0  0  0  0  0  0  0  0  0
   34.2960   19.7180   32.8780 H   0  0  0  0  0  0  0  0  0  0  0  0
   37.4560   26.9740   32.2570 C   0  0  0  0  0  0  0  0  0  0  0  0
   38.6160   26.7470   32.6730 O   0  0  0  0  0  0  0  0  0  0  0  0
   36.6590   30.2970   30.9780 C   0  0  0  0  0  0  0  0  0  0  0  0
   35.9290   30.8590   32.0180 C   0  0  0  0  0  0  0  0  0  0  0  0
   35.7010   30.1260   33.1530 C   0  0  0  0  0  0  0  0  0  0  0  0
   36.2080   28.8730   33.2010 N   0  0  0  0  0  0  0  0  0  0  0  0
   36.9160   28.3330   32.1870 C   0  0  0  0  0  0  0  0  0  0  0  0
   37.1370   29.0510   31.0800 N   0  0  0  0  0  0  0  0  0  0  0  0
   36.8780   30.8190   30.0490 H   0  0  0  0  0  0  0  0  0  0  0  0
   35.5620   31.8520   31.9090 H   0  0  0  0  0  0  0  0  0  0  0  0
   33.7460   30.1240   34.7130 C   0  0  0  0  0  3  0  0  0  0  0  0
   34.9500   30.6390   34.2830 C   0  0  0  0  0  0  0  0  0  0  0  0
   35.4220   31.7060   35.0100 C   0  0  0  0  0  0  0  0  0  0  0  0
   36.3590   32.1700   34.7410 H   0  0  0  0  0  0  0  0  0  0  0  0
   34.7200   32.2200   36.1020 C   0  0  0  0  0  0  0  0  0  0  0  0
   33.5150   31.6750   36.4980 C   0  0  0  0  0  0  0  0  0  0  0  0
   33.0200   30.5970   35.7810 C   0  0  0  0  0  3  0  0  0  0  0  0
   33.0440   32.3770   37.6010 O   0  0  0  0  0  0  0  0  0  0  0  0
   33.7930   33.5860   37.6480 C   0  0  0  0  0  3  0  0  0  0  0  0
   33.3170   34.3930   37.0600 H   0  0  0  0  0  0  0  0  0  0  0  0
   35.0060   33.2790   36.9670 O   0  0  0  0  0  0  0  0  0  0  0  0
  1  5  1  0  0  0  0
  1 22  1  0  0  0  0
  2  1  2  0  0  0  0
  3  2  1  0  0  0  0
  3  4  2  0  0  0  0
  4  9  1  0  0  0  0
  4  5  1  0  0  0  0
  6  2  1  0  0  0  0
  7  3  1  0  0  0  0
  8 16  1  0  0  0  0
  8 17  1  0  0  0  0
  9  8  2  0  0  0  0
 10 11  2  0  0  0  0
 10  9  1  0  0  0  0
 11 15  1  0  0  0  0
 12 13  1  0  0  0  0
 12 11  1  0  0  0  0
 13 14  2  0  0  0  0
 14 15  1  0  0  0  0
 14 20  1  0  0  0  0
 15 16  2  0  0  0  0
 16 21  1  0  0  0  0
 18 10  1  0  0  0  0
 19 12  1  0  0  0  0
 22 23  2  0  0  0  0
 24 29  2  0  0  0  0
 24 25  1  0  0  0  0
 25 26  2  0  0  0  0
 26 27  1  0  0  0  0
 26 33  1  0  0  0  0
 28 22  1  0  0  0  0
 28 27  2  0  0  0  0
 29 28  1  0  0  0  0
 30 24  1  0  0  0  0
 31 25  1  0  0  0  0
 32 38  1  0  0  0  0
 33 32  2  0  0  0  0
 33 34  1  0  0  0  0
 34 36  2  0  0  0  0
 35 34  1  0  0  0  0
 36 37  1  0  0  0  0
 36 42  1  0  0  0  0
 37 39  1  0  0  0  0
 38 37  2  0  0  0  0
 39 40  1  0  0  0  0
 41 40  1  0  0  0  0
 42 40  1  0  0  0  0
M  END
>  <minimizedAffinity>
-6.9256711

$$$$

 OpenBabel03272508503D

 42 47  0  0  0  0  0  0  0  0999 V2000
   36.8000   27.5120   31.0780 C   0  0  0  0  0  0  0  0  0  0  0  0
   35.9120   26.4930   30.7850 C   0  0  0  0  0  0  0  0  0  0  0  0
   36.1330   25.5650   31.8000 C   0  0  0  0  0  0  0  0  0  0  0  0
   37.1160   26.0440   32.6430 C   0  0  0  0  0  0  0  0  0  0  0  0
   37.4900   27.2150   32.1740 O   0  0  0  0  0  0  0  0  0  0  0  0
   35.1970   26.3730   29.9910 H   0  0  0  0  0  0  0  0  0  0  0  0
   35.6460   24.6040   31.9610 H   0  0  0  0  0  0  0  0  0  0  0  0
   37.6590   26.0660   35.0270 C   0  0  0  0  0  0  0  0  0  0  0  0
   37.6480   25.3900   33.8260 C   0  0  0  0  0  0  0  0  0  0  0  0
   38.1360   24.0890   33.7100 C   0  0  0  0  0  0  0  0  0  0  0  0
   38.6490   23.4390   34.8160 C   0  0  0  0  0  0  0  0  0  0  0  0
   39.1810   22.2260   35.0420 N   0  0  0  0  0  0  0  0  0  0  0  0
   39.5030   22.1680   36.3370 N   0  0  0  0  0  0  0  0  0  0  0  0
   39.1870   23.3250   36.9490 C   0  0  0  0  0  0  0  0  0  0  0  0
   38.6330   24.1690   35.9950 C   0  0  0  0  0  0  0  0  0  0  0  0
   38.1710   25.4470   36.1820 C   0  0  0  0  0  0  0  0  0  0  0  0
   37.2760   27.0820   35.1060 H   0  0  0  0  0  0  0  0  0  0  0  0
   38.1340   23.5510   32.7820 H   0  0  0  0  0  0  0  0  0  0  0  0
   39.3130   21.4760   34.3330 H   0  0  0  0  0  0  0  0  0  0  0  0
   39.3440   23.5480   38.0070 H   0  0  0  0  0  0  0  0  0  0  0  0
   38.2010   25.9240   37.1290 H   0  0  0  0  0  0  0  0  0  0  0  0
   36.9500   28.7230   30.2980 C   0  0  0  0  0  0  0  0  0  0  0  0
   37.2410   28.6060   29.0850 O   0  0  0  0  0  0  0  0  0  0  0  0
   37.0530   32.3340   30.8120 C   0  0  0  0  0  0  0  0  0  0  0  0
   36.4400   32.4860   32.0500 C   0  0  0  0  0  0  0  0  0  0  0  0
   35.9890   31.3780   32.7170 C   0  0  0  0  0  0  0  0  0  0  0  0
   36.1680   30.1750   32.1260 N   0  0  0  0  0  0  0  0  0  0  0  0
   36.7650   30.0340   30.9230 C   0  0  0  0  0  0  0  0  0  0  0  0
   37.2040   31.1180   30.2740 N   0  0  0  0  0  0  0  0  0  0  0  0
   37.4350   33.1680   30.2260 H   0  0  0  0  0  0  0  0  0  0  0  0
   36.3340   33.4650   32.4530 H   0  0  0  0  0  0  0  0  0  0  0  0
   35.9190   31.9800   35.1440 C   0  0  0  0  0  3  0  0  0  0  0  0
   35.3390   31.4500   34.0120 C   0  0  0  0  0  0  0  0  0  0  0  0
   34.0590   30.9770   34.1780 C   0  0  0  0  0  0  0  0  0  0  0  0
   33.5300   30.5450   33.3420 H   0  0  0  0  0  0  0  0  0  0  0  0
   33.4090   31.0340   35.4130 C   0  0  0  0  0  0  0  0  0  0  0  0
   34.0280   31.5720   36.5230 C   0  0  0  0  0  0  0  0  0  0  0  0
   35.3180   32.0570   36.3780 C   0  0  0  0  0  3  0  0  0  0  0  0
   33.1570   31.5000   37.6040 O   0  0  0  0  0  0  0  0  0  0  0  0
   32.1370   30.5820   37.2270 C   0  0  0  0  0  3  0  0  0  0  0  0
   32.3940   29.5410   37.4980 H   0  0  0  0  0  0  0  0  0  0  0  0
   32.1330   30.6190   35.8040 O   0  0  0  0  0  0  0  0  0  0  0  0
  1  5  1  0  0  0  0
  2  1  2  0  0  0  0
  2  3  1  0  0  0  0
  3  7  1  0  0  0  0
  3  4  2  0  0  0  0
  4  9  1  0  0  0  0
  5  4  1  0  0  0  0
  6  2  1  0  0  0  0
  8 17  1  0  0  0  0
  8 16  1  0  0  0  0
  9  8  2  0  0  0  0
 10  9  1  0  0  0  0
 10 11  2  0  0  0  0
 11 12  1  0  0  0  0
 11 15  1  0  0  0  0
 12 13  1  0  0  0  0
 13 14  2  0  0  0  0
 14 20  1  0  0  0  0
 15 16  2  0  0  0  0
 15 14  1  0  0  0  0
 16 21  1  0  0  0  0
 18 10  1  0  0  0  0
 19 12  1  0  0  0  0
 22 28  1  0  0  0  0
 22  1  1  0  0  0  0
 23 22  2  0  0  0  0
 24 25  1  0  0  0  0
 25 31  1  0  0  0  0
 25 26  2  0  0  0  0
 26 33  1  0  0  0  0
 27 26  1  0  0  0  0
 28 27  2  0  0  0  0
 29 24  2  0  0  0  0
 29 28  1  0  0  0  0
 30 24  1  0  0  0  0
 32 38  1  0  0  0  0
 33 34  1  0  0  0  0
 33 32  2  0  0  0  0
 34 36  2  0  0  0  0
 35 34  1  0  0  0  0
 36 42  1  0  0  0  0
 36 37  1  0  0  0  0
 37 39  1  0  0  0  0
 38 37  2  0  0  0  0
 40 41  1  0  0  0  0
 40 39  1  0  0  0  0
 42 40  1  0  0  0  0
M  END
>  <minimizedAffinity>
-6.88273716

$$$$

 OpenBabel03272508503D

 42 47  0  0  0  0  0  0  0  0999 V2000
   35.8710   27.3790   31.6340 C   0  0  0  0  0  0  0  0  0  0  0  0
   36.4840   28.4360   30.9880 C   0  0  0  0  0  0  0  0  0  0  0  0
   36.2590   29.5150   31.8410 C   0  0  0  0  0  0  0  0  0  0  0  0
   35.5390   29.0810   32.9360 C   0  0  0  0  0  0  0  0  0  0  0  0
   35.3270   27.7930   32.7740 O   0  0  0  0  0  0  0  0  0  0  0  0
   37.0220   28.4930   30.0590 H   0  0  0  0  0  0  0  0  0  0  0  0
   36.5690   30.5520   31.7220 H   0  0  0  0  0  0  0  0  0  0  0  0
   35.9640   30.7770   34.6450 C   0  0  0  0  0  0  0  0  0  0  0  0
   35.0930   29.8820   34.0620 C   0  0  0  0  0  0  0  0  0  0  0  0
   33.7860   29.7220   34.5230 C   0  0  0  0  0  0  0  0  0  0  0  0
   33.3310   30.4690   35.5920 C   0  0  0  0  0  0  0  0  0  0  0  0
   32.1700   30.5560   36.2630 N   0  0  0  0  0  0  0  0  0  0  0  0
   32.3310   31.4740   37.2200 N   0  0  0  0  0  0  0  0  0  0  0  0
   33.5790   31.9780   37.1780 C   0  0  0  0  0  0  0  0  0  0  0  0
   34.2520   31.3510   36.1360 C   0  0  0  0  0  0  0  0  0  0  0  0
   35.5470   31.5610   35.7360 C   0  0  0  0  0  0  0  0  0  0  0  0
   36.9810   30.8940   34.2780 H   0  0  0  0  0  0  0  0  0  0  0  0
   33.0970   29.0300   34.0790 H   0  0  0  0  0  0  0  0  0  0  0  0
   31.3080   30.0070   36.0650 H   0  0  0  0  0  0  0  0  0  0  0  0
   33.9780   32.7430   37.8460 H   0  0  0  0  0  0  0  0  0  0  0  0
   36.1790   32.2630   36.2200 H   0  0  0  0  0  0  0  0  0  0  0  0
   35.8320   26.0200   31.1350 C   0  0  0  0  0  0  0  0  0  0  0  0
   34.8270   25.6660   30.4760 O   0  0  0  0  0  0  0  0  0  0  0  0
   38.6190   23.7330   30.5630 C   0  0  0  0  0  0  0  0  0  0  0  0
   39.0030   23.3900   31.8540 C   0  0  0  0  0  0  0  0  0  0  0  0
   38.3300   23.9230   32.9210 C   0  0  0  0  0  0  0  0  0  0  0  0
   37.3090   24.7700   32.6570 N   0  0  0  0  0  0  0  0  0  0  0  0
   36.9400   25.1000   31.4010 C   0  0  0  0  0  0  0  0  0  0  0  0
   37.6000   24.5770   30.3610 N   0  0  0  0  0  0  0  0  0  0  0  0
   39.1060   23.3490   29.6700 H   0  0  0  0  0  0  0  0  0  0  0  0
   39.8160   22.7160   31.9840 H   0  0  0  0  0  0  0  0  0  0  0  0
   39.4940   22.5820   34.6820 C   0  0  0  0  0  3  0  0  0  0  0  0
   38.6680   23.6160   34.2970 C   0  0  0  0  0  0  0  0  0  0  0  0
   38.1630   24.3730   35.3270 C   0  0  0  0  0  0  0  0  0  0  0  0
   37.5060   25.2040   35.1150 H   0  0  0  0  0  0  0  0  0  0  0  0
   38.4720   24.1000   36.6610 C   0  0  0  0  0  0  0  0  0  0  0  0
   39.3030   23.0520   37.0030 C   0  0  0  0  0  0  0  0  0  0  0  0
   39.8260   22.2760   35.9810 C   0  0  0  0  0  3  0  0  0  0  0  0
   39.4360   23.0150   38.3860 O   0  0  0  0  0  0  0  0  0  0  0  0
   38.3860   23.8240   38.9040 C   0  0  0  0  0  3  0  0  0  0  0  0
   37.4610   23.2430   39.0810 H   0  0  0  0  0  0  0  0  0  0  0  0
   38.0770   24.7260   37.8470 O   0  0  0  0  0  0  0  0  0  0  0  0
  1  5  1  0  0  0  0
  2  1  2  0  0  0  0
  2  3  1  0  0  0  0
  3  4  2  0  0  0  0
  4  9  1  0  0  0  0
  5  4  1  0  0  0  0
  6  2  1  0  0  0  0
  7  3  1  0  0  0  0
  8 16  1  0  0  0  0
  9 10  1  0  0  0  0
  9  8  2  0  0  0  0
 10 11  2  0  0  0  0
 11 15  1  0  0  0  0
 11 12  1  0  0  0  0
 12 13  1  0  0  0  0
 14 13  2  0  0  0  0
 14 20  1  0  0  0  0
 15 14  1  0  0  0  0
 16 15  2  0  0  0  0
 16 21  1  0  0  0  0
 17  8  1  0  0  0  0
 18 10  1  0  0  0  0
 19 12  1  0  0  0  0
 22 28  1  0  0  0  0
 22  1  1  0  0  0  0
 23 22  2  0  0  0  0
 24 25  1  0  0  0  0
 25 31  1  0  0  0  0
 25 26  2  0  0  0  0
 26 33  1  0  0  0  0
 27 26  1  0  0  0  0
 28 27  2  0  0  0  0
 29 24  2  0  0  0  0
 29 28  1  0  0  0  0
 30 24  1  0  0  0  0
 32 38  1  0  0  0  0
 33 32  2  0  0  0  0
 33 34  1  0  0  0  0
 34 36  2  0  0  0  0
 35 34  1  0  0  0  0
 36 37  1  0  0  0  0
 36 42  1  0  0  0  0
 37 39  1  0  0  0  0
 38 37  2  0  0  0  0
 39 40  1  0  0  0  0
 40 41  1  0  0  0  0
 42 40  1  0  0  0  0
M  END
>  <minimizedAffinity>
-6.8494482

$$$$

 OpenBabel03272508503D

 42 47  0  0  0  0  0  0  0  0999 V2000
   38.4370   24.9030   35.7370 C   0  0  0  0  0  0  0  0  0  0  0  0
   38.2730   26.1330   36.3460 C   0  0  0  0  0  0  0  0  0  0  0  0
   38.3390   27.0350   35.2860 C   0  0  0  0  0  0  0  0  0  0  0  0
   38.5360   26.3360   34.1120 C   0  0  0  0  0  0  0  0  0  0  0  0
   38.5890   25.0600   34.4260 O   0  0  0  0  0  0  0  0  0  0  0  0
   38.1240   26.4090   37.3750 H   0  0  0  0  0  0  0  0  0  0  0  0
   38.2580   28.1210   35.3100 H   0  0  0  0  0  0  0  0  0  0  0  0
   39.9170   27.1220   32.2540 C   0  0  0  0  0  0  0  0  0  0  0  0
   38.6630   26.8900   32.7750 C   0  0  0  0  0  0  0  0  0  0  0  0
   37.5030   27.1740   32.0550 C   0  0  0  0  0  0  0  0  0  0  0  0
   37.5890   27.7010   30.7810 C   0  0  0  0  0  0  0  0  0  0  0  0
   36.7000   28.0770   29.8470 N   0  0  0  0  0  0  0  0  0  0  0  0
   37.3910   28.5210   28.7940 N   0  0  0  0  0  0  0  0  0  0  0  0
   38.7130   28.4380   29.0350 C   0  0  0  0  0  0  0  0  0  0  0  0
   38.8760   27.9130   30.3110 C   0  0  0  0  0  0  0  0  0  0  0  0
   40.0570   27.6590   30.9610 C   0  0  0  0  0  0  0  0  0  0  0  0
   40.8160   26.8980   32.8250 H   0  0  0  0  0  0  0  0  0  0  0  0
   36.5210   26.9980   32.4470 H   0  0  0  0  0  0  0  0  0  0  0  0
   35.6640   28.0260   29.9360 H   0  0  0  0  0  0  0  0  0  0  0  0
   39.5040   28.7340   28.3440 H   0  0  0  0  0  0  0  0  0  0  0  0
   40.9990   27.8550   30.5150 H   0  0  0  0  0  0  0  0  0  0  0  0
   38.4420   23.6340   36.4330 C   0  0  0  0  0  0  0  0  0  0  0  0
   39.3250   23.4450   37.3020 O   0  0  0  0  0  0  0  0  0  0  0  0
   35.6650   21.3000   36.8350 C   0  0  0  0  0  0  0  0  0  0  0  0
   35.5680   20.7190   35.5760 C   0  0  0  0  0  0  0  0  0  0  0  0
   36.4330   21.1080   34.5880 C   0  0  0  0  0  0  0  0  0  0  0  0
   37.3520   22.0520   34.8940 N   0  0  0  0  0  0  0  0  0  0  0  0
   37.4410   22.6120   36.1200 C   0  0  0  0  0  0  0  0  0  0  0  0
   36.5950   22.2300   37.0830 N   0  0  0  0  0  0  0  0  0  0  0  0
   35.0140   21.0410   37.6670 H   0  0  0  0  0  0  0  0  0  0  0  0
   34.8200   19.9820   35.4080 H   0  0  0  0  0  0  0  0  0  0  0  0
   35.4610   19.6390   32.8110 C   0  0  0  0  0  3  0  0  0  0  0  0
   36.3980   20.5510   33.2490 C   0  0  0  0  0  0  0  0  0  0  0  0
   37.3330   20.9240   32.3120 C   0  0  0  0  0  0  0  0  0  0  0  0
   38.1030   21.6340   32.5710 H   0  0  0  0  0  0  0  0  0  0  0  0
   37.3230   20.4040   31.0160 C   0  0  0  0  0  0  0  0  0  0  0  0
   36.3660   19.4900   30.6190 C   0  0  0  0  0  0  0  0  0  0  0  0
   35.4130   19.1020   31.5470 C   0  0  0  0  0  3  0  0  0  0  0  0
   36.5940   19.1480   29.2910 O   0  0  0  0  0  0  0  0  0  0  0  0
   37.9150   19.5850   28.9930 C   0  0  0  0  0  3  0  0  0  0  0  0
   38.6700   18.8080   29.2150 H   0  0  0  0  0  0  0  0  0  0  0  0
   38.1610   20.6360   29.9220 O   0  0  0  0  0  0  0  0  0  0  0  0
  1  2  2  0  0  0  0
  1 22  1  0  0  0  0
  2  6  1  0  0  0  0
  3  7  1  0  0  0  0
  3  2  1  0  0  0  0
  4  5  1  0  0  0  0
  4  3  2  0  0  0  0
  5  1  1  0  0  0  0
  8  9  1  0  0  0  0
  8 17  1  0  0  0  0
  9  4  1  0  0  0  0
 10 18  1  0  0  0  0
 10  9  2  0  0  0  0
 11 10  1  0  0  0  0
 12 19  1  0  0  0  0
 12 11  1  0  0  0  0
 13 14  2  0  0  0  0
 13 12  1  0  0  0  0
 14 15  1  0  0  0  0
 15 11  2  0  0  0  0
 15 16  1  0  0  0  0
 16  8  2  0  0  0  0
 20 14  1  0  0  0  0
 21 16  1  0  0  0  0
 22 23  2  0  0  0  0
 24 29  1  0  0  0  0
 24 30  1  0  0  0  0
 25 24  2  0  0  0  0
 26 27  2  0  0  0  0
 26 25  1  0  0  0  0
 27 28  1  0  0  0  0
 28 22  1  0  0  0  0
 28 29  2  0  0  0  0
 31 25  1  0  0  0  0
 32 33  1  0  0  0  0
 33 26  1  0  0  0  0
 34 35  1  0  0  0  0
 34 33  2  0  0  0  0
 36 34  1  0  0  0  0
 37 36  2  0  0  0  0
 37 38  1  0  0  0  0
 38 32  2  0  0  0  0
 39 37  1  0  0  0  0
 40 41  1  0  0  0  0
 40 39  1  0  0  0  0
 40 42  1  0  0  0  0
 42 36  1  0  0  0  0
M  END
>  <minimizedAffinity>
-6.82077885

$$$$
