
 OpenBabel03272500583D

 37 40  0  0  0  0  0  0  0  0999 V2000
   38.1510   31.8850   47.4010 C   0  0  0  0  0  0  0  0  0  0  0  0
   38.6630   32.7680   48.3050 C   0  0  0  0  0  0  0  0  0  0  0  0
   38.2040   32.8480   49.6230 C   0  0  0  0  0  0  0  0  0  0  0  0
   37.1400   31.9450   50.0120 C   0  0  0  0  0  0  0  0  0  0  0  0
   36.6730   31.0910   49.0650 C   0  0  0  0  0  0  0  0  0  0  0  0
   37.1210   31.0240   47.8050 C   0  0  0  0  0  0  0  0  0  0  0  0
   39.4730   33.4680   48.0410 H   0  0  0  0  0  0  0  0  0  0  0  0
   38.6540   33.5740   50.2880 H   0  0  0  0  0  0  0  0  0  0  0  0
   36.8890   32.1150   51.0370 H   0  0  0  0  0  0  0  0  0  0  0  0
   35.9220   30.5050   49.5730 H   0  0  0  0  0  0  0  0  0  0  0  0
   39.9970   31.2490   45.9260 C   0  0  0  0  0  0  0  0  0  0  0  0
   38.7520   31.9070   46.0870 C   0  0  0  0  0  0  0  0  0  0  0  0
   38.2670   32.4870   44.9410 C   0  0  0  0  0  0  0  0  0  0  0  0
   38.9420   32.4150   43.7880 N   0  0  0  0  0  0  0  0  0  0  0  0
   40.1000   31.7980   43.6570 C   0  0  0  0  0  0  0  0  0  0  0  0
   40.6160   31.2200   44.7290 N   0  0  0  0  0  0  0  0  0  0  0  0
   40.4630   30.7570   46.7850 H   0  0  0  0  0  0  0  0  0  0  0  0
   37.3200   32.9900   45.0540 H   0  0  0  0  0  0  0  0  0  0  0  0
   40.6550   31.7330   42.7290 H   0  0  0  0  0  0  0  0  0  0  0  0
   35.1470   30.0160   47.0160 C   0  0  0  0  0  0  0  0  0  0  0  0
   34.5550   30.6750   47.9560 O   0  0  0  0  0  0  0  0  0  0  0  0
   36.5870   30.1520   46.8920 N   0  0  0  0  0  0  0  0  0  0  0  0
   37.1360   29.6290   46.1760 H   0  0  0  0  0  0  0  0  0  0  0  0
   34.3960   29.2280   46.1930 O   0  0  0  0  0  0  0  0  0  0  0  0
   33.0440   29.3820   45.9450 C   0  0  0  0  0  0  0  0  0  0  0  0
   32.5900   30.1110   44.9480 O   0  0  0  0  0  0  0  0  0  0  0  0
   32.3570   27.8050   47.7700 C   0  0  0  0  0  3  0  0  0  0  0  0
   32.0370   28.7030   46.7910 C   0  0  0  0  0  0  0  0  0  0  0  0
   30.6940   28.9620   46.6160 C   0  0  0  0  0  0  0  0  0  0  0  0
   30.3920   29.6740   45.8440 H   0  0  0  0  0  0  0  0  0  0  0  0
   29.6970   28.3860   47.3450 C   0  0  0  0  0  0  0  0  0  0  0  0
   30.0680   27.4760   48.3340 C   0  0  0  0  0  0  0  0  0  0  0  0
   31.4000   27.1860   48.5440 C   0  0  0  0  0  3  0  0  0  0  0  0
   28.8900   27.0130   48.9520 O   0  0  0  0  0  0  0  0  0  0  0  0
   27.8520   27.9170   48.6280 C   0  0  0  0  0  3  0  0  0  0  0  0
   26.8740   27.4390   48.4520 H   0  0  0  0  0  0  0  0  0  0  0  0
   28.2990   28.4540   47.3870 O   0  0  0  0  0  0  0  0  0  0  0  0
  1  6  2  0  0  0  0
  1  2  1  0  0  0  0
  2  3  2  0  0  0  0
  3  4  1  0  0  0  0
  3  8  1  0  0  0  0
  4  9  1  0  0  0  0
  5 10  1  0  0  0  0
  5  4  2  0  0  0  0
  6  5  1  0  0  0  0
  7  2  1  0  0  0  0
 11 12  1  0  0  0  0
 11 17  1  0  0  0  0
 12  1  1  0  0  0  0
 13 18  1  0  0  0  0
 13 12  2  0  0  0  0
 14 13  1  0  0  0  0
 15 14  2  0  0  0  0
 15 16  1  0  0  0  0
 16 11  2  0  0  0  0
 19 15  1  0  0  0  0
 20 21  2  0  0  0  0
 22 20  1  0  0  0  0
 22  6  1  0  0  0  0
 23 22  1  0  0  0  0
 24 20  1  0  0  0  0
 25 24  1  0  0  0  0
 25 28  1  0  0  0  0
 26 25  2  0  0  0  0
 27 33  1  0  0  0  0
 28 27  2  0  0  0  0
 29 28  1  0  0  0  0
 29 31  2  0  0  0  0
 30 29  1  0  0  0  0
 31 37  1  0  0  0  0
 31 32  1  0  0  0  0
 32 33  2  0  0  0  0
 32 34  1  0  0  0  0
 35 34  1  0  0  0  0
 36 35  1  0  0  0  0
 37 35  1  0  0  0  0
M  END
>  <minimizedAffinity>
-6.45091057

>  <minimizedRMSD>
2.16689992

$$$$
