
 OpenBabel03272500583D

 37 40  0  0  0  0  0  0  0  0999 V2000
   38.0860   31.9210   47.4540 C   0  0  0  0  0  0  0  0  0  0  0  0
   38.5500   32.8550   48.3320 C   0  0  0  0  0  0  0  0  0  0  0  0
   38.0720   32.9610   49.6420 C   0  0  0  0  0  0  0  0  0  0  0  0
   37.0420   32.0280   50.0510 C   0  0  0  0  0  0  0  0  0  0  0  0
   36.6230   31.1220   49.1290 C   0  0  0  0  0  0  0  0  0  0  0  0
   37.0880   31.0320   47.8770 C   0  0  0  0  0  0  0  0  0  0  0  0
   39.3330   33.5790   48.0520 H   0  0  0  0  0  0  0  0  0  0  0  0
   38.4840   33.7280   50.2850 H   0  0  0  0  0  0  0  0  0  0  0  0
   36.7730   32.2220   51.0660 H   0  0  0  0  0  0  0  0  0  0  0  0
   35.8910   30.5230   49.6490 H   0  0  0  0  0  0  0  0  0  0  0  0
   39.9670   31.3000   46.0170 C   0  0  0  0  0  0  0  0  0  0  0  0
   38.7010   31.9240   46.1460 C   0  0  0  0  0  0  0  0  0  0  0  0
   38.2110   32.4550   44.9790 C   0  0  0  0  0  0  0  0  0  0  0  0
   38.9020   32.3700   43.8360 N   0  0  0  0  0  0  0  0  0  0  0  0
   40.0790   31.7860   43.7340 C   0  0  0  0  0  0  0  0  0  0  0  0
   40.6000   31.2550   44.8290 N   0  0  0  0  0  0  0  0  0  0  0  0
   40.4380   30.8470   46.8950 H   0  0  0  0  0  0  0  0  0  0  0  0
   37.2480   32.9330   45.0670 H   0  0  0  0  0  0  0  0  0  0  0  0
   40.6460   31.7110   42.8150 H   0  0  0  0  0  0  0  0  0  0  0  0
   35.1620   29.9470   47.0720 C   0  0  0  0  0  0  0  0  0  0  0  0
   34.5250   30.6380   47.9590 O   0  0  0  0  0  0  0  0  0  0  0  0
   36.6020   30.1070   46.9890 N   0  0  0  0  0  0  0  0  0  0  0  0
   37.1850   29.5620   46.3180 H   0  0  0  0  0  0  0  0  0  0  0  0
   34.4540   29.1070   46.2630 O   0  0  0  0  0  0  0  0  0  0  0  0
   33.2950   29.4320   45.5810 C   0  0  0  0  0  0  0  0  0  0  0  0
   33.3110   29.9520   44.3720 O   0  0  0  0  0  0  0  0  0  0  0  0
   30.8180   29.7820   45.7550 C   0  0  0  0  0  3  0  0  0  0  0  0
   31.9670   29.1810   46.1850 C   0  0  0  0  0  0  0  0  0  0  0  0
   31.8370   28.3020   47.2380 C   0  0  0  0  0  0  0  0  0  0  0  0
   32.7310   27.7970   47.6160 H   0  0  0  0  0  0  0  0  0  0  0  0
   30.6590   28.0070   47.8570 C   0  0  0  0  0  0  0  0  0  0  0  0
   29.5110   28.6420   47.3870 C   0  0  0  0  0  0  0  0  0  0  0  0
   29.5940   29.5310   46.3350 C   0  0  0  0  0  3  0  0  0  0  0  0
   28.4260   28.1940   48.1640 O   0  0  0  0  0  0  0  0  0  0  0  0
   28.8320   27.0110   48.8240 C   0  0  0  0  0  3  0  0  0  0  0  0
   28.4420   26.9110   49.8510 H   0  0  0  0  0  0  0  0  0  0  0  0
   30.2420   27.1850   48.9110 O   0  0  0  0  0  0  0  0  0  0  0  0
  1  6  2  0  0  0  0
  1  2  1  0  0  0  0
  2  3  2  0  0  0  0
  3  4  1  0  0  0  0
  3  8  1  0  0  0  0
  4  9  1  0  0  0  0
  5 10  1  0  0  0  0
  5  4  2  0  0  0  0
  6  5  1  0  0  0  0
  7  2  1  0  0  0  0
 11 12  1  0  0  0  0
 11 17  1  0  0  0  0
 12  1  1  0  0  0  0
 13 18  1  0  0  0  0
 13 12  2  0  0  0  0
 14 13  1  0  0  0  0
 15 14  2  0  0  0  0
 15 16  1  0  0  0  0
 16 11  2  0  0  0  0
 19 15  1  0  0  0  0
 20 21  2  0  0  0  0
 22 20  1  0  0  0  0
 22  6  1  0  0  0  0
 23 22  1  0  0  0  0
 24 20  1  0  0  0  0
 25 28  1  0  0  0  0
 25 24  1  0  0  0  0
 26 25  2  0  0  0  0
 27 28  2  0  0  0  0
 27 33  1  0  0  0  0
 28 29  1  0  0  0  0
 29 30  1  0  0  0  0
 29 31  2  0  0  0  0
 31 37  1  0  0  0  0
 32 31  1  0  0  0  0
 32 34  1  0  0  0  0
 33 32  2  0  0  0  0
 34 35  1  0  0  0  0
 35 37  1  0  0  0  0
 35 36  1  0  0  0  0
M  END
>  <minimizedAffinity>
-6.2169137

>  <minimizedRMSD>
1.99092996

$$$$
