
 OpenBabel03272507123D

 42 47  0  0  0  0  0  0  0  0999 V2000
   35.9680   29.1240   49.8320 C   0  0  0  0  0  0  0  0  0  0  0  0
   34.9440   29.6540   50.5650 C   0  0  0  0  0  0  0  0  0  0  0  0
   33.7630   29.0990   50.0620 C   0  0  0  0  0  0  0  0  0  0  0  0
   34.1570   28.2400   49.0240 C   0  0  0  0  0  0  0  0  0  0  0  0
   35.4500   28.3090   48.9520 O   0  0  0  0  0  0  0  0  0  0  0  0
   35.0070   30.3740   51.3890 H   0  0  0  0  0  0  0  0  0  0  0  0
   32.7990   29.3480   50.4630 H   0  0  0  0  0  0  0  0  0  0  0  0
   33.5670   26.5350   47.3180 C   0  0  0  0  0  0  0  0  0  0  0  0
   33.1890   27.4790   48.2580 C   0  0  0  0  0  0  0  0  0  0  0  0
   31.8640   27.7310   48.5040 C   0  0  0  0  0  0  0  0  0  0  0  0
   30.9020   27.0230   47.7950 C   0  0  0  0  0  0  0  0  0  0  0  0
   29.5630   27.0630   47.8300 N   0  0  0  0  0  0  0  0  0  0  0  0
   29.1150   26.1740   46.9420 N   0  0  0  0  0  0  0  0  0  0  0  0
   30.1610   25.5740   46.3470 C   0  0  0  0  0  0  0  0  0  0  0  0
   31.3350   26.0930   46.8690 C   0  0  0  0  0  0  0  0  0  0  0  0
   32.6560   25.8210   46.6020 C   0  0  0  0  0  0  0  0  0  0  0  0
   34.6310   26.3470   47.1340 H   0  0  0  0  0  0  0  0  0  0  0  0
   31.4720   28.4610   49.2300 H   0  0  0  0  0  0  0  0  0  0  0  0
   28.9440   27.6750   48.4380 H   0  0  0  0  0  0  0  0  0  0  0  0
   30.1540   24.7960   45.5720 H   0  0  0  0  0  0  0  0  0  0  0  0
   32.9830   25.0940   45.8780 H   0  0  0  0  0  0  0  0  0  0  0  0
   37.3510   29.4790   50.0820 C   0  0  0  0  0  0  0  0  0  0  0  0
   38.0130   28.7990   50.9120 O   0  0  0  0  0  0  0  0  0  0  0  0
   37.8930   30.6050   49.3560 C   0  0  0  0  0  0  0  0  0  0  0  0
   38.2590   31.7240   50.0980 C   0  0  0  0  0  0  0  0  0  0  0  0
   38.7860   32.8270   49.4240 C   0  0  0  0  0  0  0  0  0  0  0  0
   38.9070   32.7280   48.0710 N   0  0  0  0  0  0  0  0  0  0  0  0
   38.5500   31.6480   47.3860 C   0  0  0  0  0  0  0  0  0  0  0  0
   38.0430   30.5900   48.0350 N   0  0  0  0  0  0  0  0  0  0  0  0
   38.1320   31.7200   51.1690 H   0  0  0  0  0  0  0  0  0  0  0  0
   39.0620   33.6810   50.0260 H   0  0  0  0  0  0  0  0  0  0  0  0
   37.8280   32.2790   45.1120 C   0  0  0  0  0  3  0  0  0  0  0  0
   38.6990   31.5940   45.9360 C   0  0  0  0  0  0  0  0  0  0  0  0
   39.6980   30.8680   45.3360 C   0  0  0  0  0  0  0  0  0  0  0  0
   40.4000   30.3170   45.9360 H   0  0  0  0  0  0  0  0  0  0  0  0
   39.8250   30.8280   43.9510 C   0  0  0  0  0  0  0  0  0  0  0  0
   38.9550   31.5120   43.1270 C   0  0  0  0  0  0  0  0  0  0  0  0
   37.9540   32.2390   43.7380 C   0  0  0  0  0  3  0  0  0  0  0  0
   39.3360   31.2790   41.8010 O   0  0  0  0  0  0  0  0  0  0  0  0
   40.6230   30.6880   41.8460 C   0  0  0  0  0  3  0  0  0  0  0  0
   41.4130   31.4660   41.7320 H   0  0  0  0  0  0  0  0  0  0  0  0
   40.7540   30.1620   43.1680 O   0  0  0  0  0  0  0  0  0  0  0  0
  1 22  1  0  0  0  0
  1  2  2  0  0  0  0
  2  6  1  0  0  0  0
  3  7  1  0  0  0  0
  3  2  1  0  0  0  0
  4  3  2  0  0  0  0
  5  4  1  0  0  0  0
  5  1  1  0  0  0  0
  8  9  1  0  0  0  0
  9 10  2  0  0  0  0
  9  4  1  0  0  0  0
 10 18  1  0  0  0  0
 11 12  1  0  0  0  0
 11 10  1  0  0  0  0
 12 19  1  0  0  0  0
 13 12  1  0  0  0  0
 14 15  1  0  0  0  0
 14 13  2  0  0  0  0
 15 11  2  0  0  0  0
 16 15  1  0  0  0  0
 16  8  2  0  0  0  0
 17  8  1  0  0  0  0
 20 14  1  0  0  0  0
 21 16  1  0  0  0  0
 22 23  2  0  0  0  0
 24 22  1  0  0  0  0
 24 25  1  0  0  0  0
 25 30  1  0  0  0  0
 26 31  1  0  0  0  0
 26 25  2  0  0  0  0
 27 26  1  0  0  0  0
 28 29  1  0  0  0  0
 28 27  2  0  0  0  0
 29 24  2  0  0  0  0
 32 33  1  0  0  0  0
 33 28  1  0  0  0  0
 34 33  2  0  0  0  0
 34 35  1  0  0  0  0
 36 34  1  0  0  0  0
 37 38  1  0  0  0  0
 37 36  2  0  0  0  0
 38 32  2  0  0  0  0
 39 40  1  0  0  0  0
 39 37  1  0  0  0  0
 40 42  1  0  0  0  0
 41 40  1  0  0  0  0
 42 36  1  0  0  0  0
M  END
>  <minimizedAffinity>
-7.50115108

>  <minimizedRMSD>
0.416403264

$$$$
