
 OpenBabel03262521503D

 34 37  0  0  1  0  0  0  0  0999 V2000
   43.0070   24.8390   33.5770 C   0  0  0  0  0  0  0  0  0  0  0  0
   42.7020   26.1960   33.6500 C   0  0  0  0  0  0  0  0  0  0  0  0
   41.5980   26.5680   34.4290 C   0  0  0  0  0  0  0  0  0  0  0  0
   40.8960   25.5900   35.0620 N   0  0  0  0  0  0  0  0  0  0  0  0
   41.2200   24.2970   34.9680 C   0  0  0  0  0  0  0  0  0  0  0  0
   42.2870   23.9210   34.2160 N   0  0  0  0  0  0  0  0  0  0  0  0
   40.4650   23.3220   35.6360 N   0  0  0  0  0  0  0  0  0  0  0  0
   41.0570   22.0760   36.1210 C   0  0  0  0  0  0  0  0  0  0  0  0
   40.8100   21.9210   37.5680 C   0  0  0  0  0  0  0  0  0  0  0  0
   39.7860   22.6890   38.1240 N   0  0  0  0  0  0  0  0  0  0  0  0
   38.7720   23.2650   37.3360 C   0  0  0  0  0  0  0  0  0  0  0  0
   39.0550   23.4700   35.8880 C   0  0  1  0  0  0  0  0  0  0  0  0
   43.8540   24.5200   32.9820 H   0  0  0  0  0  0  0  0  0  0  0  0
   43.2960   26.9380   33.1230 H   0  0  0  0  0  0  0  0  0  0  0  0
   41.3280   27.6260   34.5110 H   0  0  0  0  0  0  0  0  0  0  0  0
   42.1130   21.9890   35.8130 H   0  0  0  0  0  0  0  0  0  0  0  0
   40.5090   21.2750   35.5680 H   0  0  0  0  0  0  0  0  0  0  0  0
   41.7740   22.1650   38.0980 H   0  0  0  0  0  0  0  0  0  0  0  0
   40.6370   20.8320   37.7810 H   0  0  0  0  0  0  0  0  0  0  0  0
   39.9720   23.1350   39.0280 H   0  0  0  0  0  0  0  0  0  0  0  0
   37.8340   22.6900   37.4840 H   0  0  0  0  0  0  0  0  0  0  0  0
   38.5530   24.2780   37.7890 H   0  0  0  0  0  0  0  0  0  0  0  0
   38.6310   22.5190   35.3920 H   0  0  0  0  0  0  0  0  0  0  0  0
   37.9530   25.7860   35.6780 C   0  0  0  0  0  3  0  0  0  0  0  0
   38.3750   24.5620   35.2200 C   0  0  0  0  0  0  0  0  0  0  0  0
   38.0890   24.3100   33.8710 C   0  0  0  0  0  0  0  0  0  0  0  0
   38.3650   23.3750   33.3600 H   0  0  0  0  0  0  0  0  0  0  0  0
   37.4330   25.2460   33.0980 C   0  0  0  0  0  0  0  0  0  0  0  0
   37.0270   26.4500   33.5850 C   0  0  0  0  0  0  0  0  0  0  0  0
   37.2980   26.7150   34.9020 C   0  0  0  0  0  3  0  0  0  0  0  0
   36.4000   27.1520   32.5570 O   0  0  0  0  0  0  0  0  0  0  0  0
   36.0520   26.2390   31.5320 C   0  0  0  0  0  3  0  0  0  0  0  0
   36.1170   26.6650   30.5150 H   0  0  0  0  0  0  0  0  0  0  0  0
   37.0400   25.2220   31.7460 O   0  0  0  0  0  0  0  0  0  0  0  0
  1  2  2  0  0  0  0
  1  6  1  0  0  0  0
  2  3  1  0  0  0  0
  3 15  1  0  0  0  0
  3  4  2  0  0  0  0
  5  4  1  0  0  0  0
  5  7  1  0  0  0  0
  6  5  2  0  0  0  0
  7 12  1  0  0  0  0
  7  8  1  0  0  0  0
  8  9  1  0  0  0  0
  9 19  1  0  0  0  0
  9 18  1  0  0  0  0
  9 10  1  0  0  0  0
 10 20  1  0  0  0  0
 11 21  1  0  0  0  0
 11 22  1  0  0  0  0
 11 10  1  0  0  0  0
 12 23  1  6  0  0  0
 12 11  1  0  0  0  0
 13  1  1  0  0  0  0
 14  2  1  0  0  0  0
 16  8  1  0  0  0  0
 17  8  1  0  0  0  0
 25 24  1  0  0  0  0
 25 12  1  0  0  0  0
 26 25  2  0  0  0  0
 27 26  1  0  0  0  0
 28 29  2  0  0  0  0
 28 26  1  0  0  0  0
 29 30  1  0  0  0  0
 30 24  2  0  0  0  0
 31 29  1  0  0  0  0
 32 34  1  0  0  0  0
 32 31  1  0  0  0  0
 33 32  1  0  0  0  0
 34 28  1  0  0  0  0
M  END
>  <minimizedAffinity>
-5.54710245

$$$$

 OpenBabel03262521503D

 34 37  0  0  1  0  0  0  0  0999 V2000
   39.5490   22.3270   36.2910 C   0  0  0  0  0  0  0  0  0  0  0  0
   38.4130   22.3310   35.4870 C   0  0  0  0  0  0  0  0  0  0  0  0
   38.3270   23.3210   34.4980 C   0  0  0  0  0  0  0  0  0  0  0  0
   39.3480   24.2110   34.3860 N   0  0  0  0  0  0  0  0  0  0  0  0
   40.4240   24.1750   35.1780 C   0  0  0  0  0  0  0  0  0  0  0  0
   40.5220   23.2210   36.1400 N   0  0  0  0  0  0  0  0  0  0  0  0
   41.4530   25.1150   35.0270 N   0  0  0  0  0  0  0  0  0  0  0  0
   42.8470   24.8010   35.3390 C   0  0  0  0  0  0  0  0  0  0  0  0
   43.7050   25.0610   34.1660 C   0  0  0  0  0  0  0  0  0  0  0  0
   43.1860   25.8910   33.1710 N   0  0  0  0  0  0  0  0  0  0  0  0
   42.1100   26.7640   33.4120 C   0  0  0  0  0  0  0  0  0  0  0  0
   41.2160   26.4580   34.5640 C   0  0  1  0  0  0  0  0  0  0  0  0
   39.6450   21.5740   37.0640 H   0  0  0  0  0  0  0  0  0  0  0  0
   37.6240   21.5960   35.6190 H   0  0  0  0  0  0  0  0  0  0  0  0
   37.4480   23.3550   33.8450 H   0  0  0  0  0  0  0  0  0  0  0  0
   42.9410   23.7910   35.7750 H   0  0  0  0  0  0  0  0  0  0  0  0
   43.1160   25.5140   36.1560 H   0  0  0  0  0  0  0  0  0  0  0  0
   43.9570   24.0620   33.7100 H   0  0  0  0  0  0  0  0  0  0  0  0
   44.6880   25.4640   34.5310 H   0  0  0  0  0  0  0  0  0  0  0  0
   43.3340   25.6040   32.1970 H   0  0  0  0  0  0  0  0  0  0  0  0
   42.4970   27.8030   33.4700 H   0  0  0  0  0  0  0  0  0  0  0  0
   41.4750   26.7550   32.4750 H   0  0  0  0  0  0  0  0  0  0  0  0
   41.6610   27.0810   35.4260 H   0  0  0  0  0  0  0  0  0  0  0  0
   38.9120   27.1900   35.4480 C   0  0  0  0  0  3  0  0  0  0  0  0
   39.8360   26.8920   34.4760 C   0  0  0  0  0  0  0  0  0  0  0  0
   39.3640   27.0140   33.1620 C   0  0  0  0  0  0  0  0  0  0  0  0
   39.9850   26.8100   32.2760 H   0  0  0  0  0  0  0  0  0  0  0  0
   38.0650   27.4050   32.9070 C   0  0  0  0  0  0  0  0  0  0  0  0
   37.1750   27.6920   33.8960 C   0  0  0  0  0  0  0  0  0  0  0  0
   37.6180   27.5790   35.1880 C   0  0  0  0  0  3  0  0  0  0  0  0
   35.9640   28.0500   33.3070 O   0  0  0  0  0  0  0  0  0  0  0  0
   35.9640   27.6050   31.9630 C   0  0  0  0  0  3  0  0  0  0  0  0
   35.4230   28.2740   31.2720 H   0  0  0  0  0  0  0  0  0  0  0  0
   37.3730   27.5940   31.6950 O   0  0  0  0  0  0  0  0  0  0  0  0
  1 13  1  0  0  0  0
  2 14  1  0  0  0  0
  2  1  2  0  0  0  0
  3  2  1  0  0  0  0
  4  3  2  0  0  0  0
  4  5  1  0  0  0  0
  5  6  2  0  0  0  0
  6  1  1  0  0  0  0
  7  5  1  0  0  0  0
  7  8  1  0  0  0  0
  8 16  1  0  0  0  0
  8 17  1  0  0  0  0
  9 19  1  0  0  0  0
  9  8  1  0  0  0  0
 10 11  1  0  0  0  0
 10  9  1  0  0  0  0
 11 21  1  0  0  0  0
 11 12  1  0  0  0  0
 12  7  1  0  0  0  0
 12 23  1  1  0  0  0
 15  3  1  0  0  0  0
 18  9  1  0  0  0  0
 20 10  1  0  0  0  0
 22 11  1  0  0  0  0
 25 12  1  0  0  0  0
 25 24  2  0  0  0  0
 26 25  1  0  0  0  0
 27 26  1  0  0  0  0
 28 26  2  0  0  0  0
 28 29  1  0  0  0  0
 29 30  2  0  0  0  0
 30 24  1  0  0  0  0
 31 29  1  0  0  0  0
 32 31  1  0  0  0  0
 33 32  1  0  0  0  0
 34 32  1  0  0  0  0
 34 28  1  0  0  0  0
M  END
>  <minimizedAffinity>
-5.38314199

$$$$

 OpenBabel03262521503D

 34 37  0  0  1  0  0  0  0  0999 V2000
   36.4910   27.2230   30.7020 C   0  0  0  0  0  0  0  0  0  0  0  0
   35.7910   27.7260   31.7950 C   0  0  0  0  0  0  0  0  0  0  0  0
   36.5170   27.9690   32.9690 C   0  0  0  0  0  0  0  0  0  0  0  0
   37.8500   27.7010   32.9710 N   0  0  0  0  0  0  0  0  0  0  0  0
   38.4880   27.2190   31.9000 C   0  0  0  0  0  0  0  0  0  0  0  0
   37.7970   26.9780   30.7550 N   0  0  0  0  0  0  0  0  0  0  0  0
   39.8640   26.9560   31.9480 N   0  0  0  0  0  0  0  0  0  0  0  0
   40.7190   27.0640   30.7660 C   0  0  0  0  0  0  0  0  0  0  0  0
   41.8360   27.9940   31.0270 C   0  0  0  0  0  0  0  0  0  0  0  0
   42.1310   28.2750   32.3610 N   0  0  0  0  0  0  0  0  0  0  0  0
   41.7010   27.4440   33.4130 C   0  0  0  0  0  0  0  0  0  0  0  0
   40.5350   26.5520   33.1560 C   0  0  1  0  0  0  0  0  0  0  0  0
   35.9570   27.0240   29.7810 H   0  0  0  0  0  0  0  0  0  0  0  0
   34.7240   27.9220   31.7420 H   0  0  0  0  0  0  0  0  0  0  0  0
   36.0000   28.3660   33.8500 H   0  0  0  0  0  0  0  0  0  0  0  0
   40.1260   27.2840   29.8620 H   0  0  0  0  0  0  0  0  0  0  0  0
   41.1260   26.0340   30.6220 H   0  0  0  0  0  0  0  0  0  0  0  0
   41.5950   28.9590   30.4980 H   0  0  0  0  0  0  0  0  0  0  0  0
   42.7490   27.6030   30.5020 H   0  0  0  0  0  0  0  0  0  0  0  0
   42.3300   29.2520   32.6020 H   0  0  0  0  0  0  0  0  0  0  0  0
   42.5700   26.8680   33.7920 H   0  0  0  0  0  0  0  0  0  0  0  0
   41.4240   28.1300   34.2690 H   0  0  0  0  0  0  0  0  0  0  0  0
   41.0210   25.5590   32.8290 H   0  0  0  0  0  0  0  0  0  0  0  0
   39.2780   26.9240   35.3710 C   0  0  0  0  0  3  0  0  0  0  0  0
   39.7030   26.1950   34.2870 C   0  0  0  0  0  0  0  0  0  0  0  0
   39.2690   24.8620   34.2720 C   0  0  0  0  0  0  0  0  0  0  0  0
   39.5260   24.1530   33.4700 H   0  0  0  0  0  0  0  0  0  0  0  0
   38.4790   24.3610   35.2860 C   0  0  0  0  0  0  0  0  0  0  0  0
   38.0770   25.1130   36.3470 C   0  0  0  0  0  0  0  0  0  0  0  0
   38.4910   26.4190   36.3800 C   0  0  0  0  0  3  0  0  0  0  0  0
   37.2990   24.3140   37.1830 O   0  0  0  0  0  0  0  0  0  0  0  0
   37.5380   22.9550   36.8620 C   0  0  0  0  0  3  0  0  0  0  0  0
   36.6500   22.3080   36.9760 H   0  0  0  0  0  0  0  0  0  0  0  0
   37.9300   23.0800   35.4880 O   0  0  0  0  0  0  0  0  0  0  0  0
  1  6  2  0  0  0  0
  1  2  1  0  0  0  0
  2  3  2  0  0  0  0
  3  4  1  0  0  0  0
  3 15  1  0  0  0  0
  5  7  1  0  0  0  0
  5  4  2  0  0  0  0
  6  5  1  0  0  0  0
  7 12  1  0  0  0  0
  8  9  1  0  0  0  0
  8  7  1  0  0  0  0
  9 10  1  0  0  0  0
 10 20  1  0  0  0  0
 10 11  1  0  0  0  0
 11 21  1  0  0  0  0
 11 22  1  0  0  0  0
 12 23  1  6  0  0  0
 12 11  1  0  0  0  0
 12 25  1  0  0  0  0
 13  1  1  0  0  0  0
 14  2  1  0  0  0  0
 16  8  1  0  0  0  0
 17  8  1  0  0  0  0
 18  9  1  0  0  0  0
 19  9  1  0  0  0  0
 24 30  1  0  0  0  0
 25 24  2  0  0  0  0
 26 25  1  0  0  0  0
 26 28  2  0  0  0  0
 27 26  1  0  0  0  0
 28 34  1  0  0  0  0
 28 29  1  0  0  0  0
 29 30  2  0  0  0  0
 29 31  1  0  0  0  0
 32 33  1  0  0  0  0
 32 31  1  0  0  0  0
 34 32  1  0  0  0  0
M  END
>  <minimizedAffinity>
-5.28066206

$$$$

 OpenBabel03262521503D

 34 37  0  0  1  0  0  0  0  0999 V2000
   38.0020   27.2820   35.7160 C   0  0  0  0  0  0  0  0  0  0  0  0
   39.0910   26.4720   35.4070 C   0  0  0  0  0  0  0  0  0  0  0  0
   39.3380   26.2150   34.0510 C   0  0  0  0  0  0  0  0  0  0  0  0
   38.5050   26.7660   33.1280 N   0  0  0  0  0  0  0  0  0  0  0  0
   37.4680   27.5390   33.4650 C   0  0  0  0  0  0  0  0  0  0  0  0
   37.2170   27.7970   34.7740 N   0  0  0  0  0  0  0  0  0  0  0  0
   36.6340   28.0840   32.4780 N   0  0  0  0  0  0  0  0  0  0  0  0
   35.9510   29.3640   32.6560 C   0  0  0  0  0  0  0  0  0  0  0  0
   36.2940   30.2840   31.5530 C   0  0  0  0  0  0  0  0  0  0  0  0
   36.8200   29.7170   30.3920 N   0  0  0  0  0  0  0  0  0  0  0  0
   36.6680   28.3500   30.0930 C   0  0  0  0  0  0  0  0  0  0  0  0
   36.3810   27.4230   31.2240 C   0  0  1  0  0  0  0  0  0  0  0  0
   37.7850   27.4980   36.7560 H   0  0  0  0  0  0  0  0  0  0  0  0
   39.7260   26.0560   36.1840 H   0  0  0  0  0  0  0  0  0  0  0  0
   40.1870   25.5830   33.7680 H   0  0  0  0  0  0  0  0  0  0  0  0
   36.1150   29.7670   33.6710 H   0  0  0  0  0  0  0  0  0  0  0  0
   34.8650   29.1110   32.5990 H   0  0  0  0  0  0  0  0  0  0  0  0
   37.0330   31.0310   31.9600 H   0  0  0  0  0  0  0  0  0  0  0  0
   35.3810   30.8930   31.3070 H   0  0  0  0  0  0  0  0  0  0  0  0
   37.6150   30.1950   29.9560 H   0  0  0  0  0  0  0  0  0  0  0  0
   35.9140   28.2420   29.2860 H   0  0  0  0  0  0  0  0  0  0  0  0
   37.6380   28.0170   29.6170 H   0  0  0  0  0  0  0  0  0  0  0  0
   35.2300   27.3500   31.2290 H   0  0  0  0  0  0  0  0  0  0  0  0
   37.9960   25.5180   30.6020 C   0  0  0  0  0  3  0  0  0  0  0  0
   36.8310   26.0510   31.0970 C   0  0  0  0  0  0  0  0  0  0  0  0
   35.9010   25.1060   31.5500 C   0  0  0  0  0  0  0  0  0  0  0  0
   34.9220   25.3780   31.9740 H   0  0  0  0  0  0  0  0  0  0  0  0
   36.1720   23.7550   31.4850 C   0  0  0  0  0  0  0  0  0  0  0  0
   37.3380   23.2610   30.9860 C   0  0  0  0  0  0  0  0  0  0  0  0
   38.2610   24.1690   30.5380 C   0  0  0  0  0  3  0  0  0  0  0  0
   37.2940   21.8700   31.0620 O   0  0  0  0  0  0  0  0  0  0  0  0
   35.9470   21.4670   31.2340 C   0  0  0  0  0  3  0  0  0  0  0  0
   35.8290   20.5690   31.8650 H   0  0  0  0  0  0  0  0  0  0  0  0
   35.4090   22.6350   31.8690 O   0  0  0  0  0  0  0  0  0  0  0  0
  1 13  1  0  0  0  0
  2  1  1  0  0  0  0
  2 14  1  0  0  0  0
  3  2  2  0  0  0  0
  4  5  2  0  0  0  0
  4  3  1  0  0  0  0
  5  6  1  0  0  0  0
  6  1  2  0  0  0  0
  7  8  1  0  0  0  0
  7  5  1  0  0  0  0
  8 16  1  0  0  0  0
  9 18  1  0  0  0  0
  9  8  1  0  0  0  0
 10  9  1  0  0  0  0
 11 10  1  0  0  0  0
 11 12  1  0  0  0  0
 12 23  1  6  0  0  0
 12  7  1  0  0  0  0
 15  3  1  0  0  0  0
 17  8  1  0  0  0  0
 19  9  1  0  0  0  0
 20 10  1  0  0  0  0
 21 11  1  0  0  0  0
 22 11  1  0  0  0  0
 24 25  1  0  0  0  0
 25 12  1  0  0  0  0
 25 26  2  0  0  0  0
 26 27  1  0  0  0  0
 28 26  1  0  0  0  0
 28 34  1  0  0  0  0
 29 31  1  0  0  0  0
 29 28  2  0  0  0  0
 30 24  2  0  0  0  0
 30 29  1  0  0  0  0
 31 32  1  0  0  0  0
 32 33  1  0  0  0  0
 32 34  1  0  0  0  0
M  END
>  <minimizedAffinity>
-5.22502279

$$$$

 OpenBabel03262521503D

 34 37  0  0  1  0  0  0  0  0999 V2000
   37.7820   23.7590   30.4200 C   0  0  0  0  0  0  0  0  0  0  0  0
   37.4280   22.7130   31.2680 C   0  0  0  0  0  0  0  0  0  0  0  0
   37.1500   23.0320   32.6040 C   0  0  0  0  0  0  0  0  0  0  0  0
   37.2440   24.3330   32.9900 N   0  0  0  0  0  0  0  0  0  0  0  0
   37.5870   25.3100   32.1460 C   0  0  0  0  0  0  0  0  0  0  0  0
   37.8590   25.0160   30.8480 N   0  0  0  0  0  0  0  0  0  0  0  0
   37.6730   26.6380   32.5890 N   0  0  0  0  0  0  0  0  0  0  0  0
   37.3980   27.7720   31.7080 C   0  0  0  0  0  0  0  0  0  0  0  0
   36.3450   28.6280   32.2900 C   0  0  0  0  0  0  0  0  0  0  0  0
   36.0940   28.4870   33.6550 N   0  0  0  0  0  0  0  0  0  0  0  0
   37.0240   27.8930   34.5290 C   0  0  0  0  0  0  0  0  0  0  0  0
   38.0450   26.9840   33.9360 C   0  0  1  0  0  0  0  0  0  0  0  0
   38.0030   23.5450   29.3820 H   0  0  0  0  0  0  0  0  0  0  0  0
   37.3690   21.6900   30.9090 H   0  0  0  0  0  0  0  0  0  0  0  0
   36.8670   22.2350   33.3000 H   0  0  0  0  0  0  0  0  0  0  0  0
   37.2120   27.4380   30.6720 H   0  0  0  0  0  0  0  0  0  0  0  0
   38.3590   28.3400   31.6780 H   0  0  0  0  0  0  0  0  0  0  0  0
   35.3950   28.4190   31.7230 H   0  0  0  0  0  0  0  0  0  0  0  0
   36.5900   29.6980   32.0490 H   0  0  0  0  0  0  0  0  0  0  0  0
   35.1130   28.4730   33.9520 H   0  0  0  0  0  0  0  0  0  0  0  0
   37.5010   28.6880   35.1390 H   0  0  0  0  0  0  0  0  0  0  0  0
   36.4220   27.2910   35.2740 H   0  0  0  0  0  0  0  0  0  0  0  0
   38.9500   27.6750   33.7560 H   0  0  0  0  0  0  0  0  0  0  0  0
   39.6510   25.0960   34.6300 C   0  0  0  0  0  3  0  0  0  0  0  0
   38.5610   25.9190   34.7730 C   0  0  0  0  0  0  0  0  0  0  0  0
   37.7990   25.6860   35.9270 C   0  0  0  0  0  0  0  0  0  0  0  0
   36.8970   26.2640   36.1810 H   0  0  0  0  0  0  0  0  0  0  0  0
   38.1490   24.6960   36.8210 C   0  0  0  0  0  0  0  0  0  0  0  0
   39.2370   23.8960   36.6470 C   0  0  0  0  0  0  0  0  0  0  0  0
   39.9950   24.1090   35.5250 C   0  0  0  0  0  3  0  0  0  0  0  0
   39.3070   23.0090   37.7190 O   0  0  0  0  0  0  0  0  0  0  0  0
   38.0470   22.9770   38.3640 C   0  0  0  0  0  3  0  0  0  0  0  0
   38.1100   22.8350   39.4570 H   0  0  0  0  0  0  0  0  0  0  0  0
   37.5510   24.2800   38.0270 O   0  0  0  0  0  0  0  0  0  0  0  0
  1  6  2  0  0  0  0
  1  2  1  0  0  0  0
  2  3  2  0  0  0  0
  3  4  1  0  0  0  0
  3 15  1  0  0  0  0
  5  7  1  0  0  0  0
  5  4  2  0  0  0  0
  6  5  1  0  0  0  0
  7 12  1  0  0  0  0
  8  9  1  0  0  0  0
  8  7  1  0  0  0  0
  9 10  1  0  0  0  0
 10 20  1  0  0  0  0
 10 11  1  0  0  0  0
 11 21  1  0  0  0  0
 11 22  1  0  0  0  0
 12 23  1  6  0  0  0
 12 11  1  0  0  0  0
 12 25  1  0  0  0  0
 13  1  1  0  0  0  0
 14  2  1  0  0  0  0
 16  8  1  0  0  0  0
 17  8  1  0  0  0  0
 18  9  1  0  0  0  0
 19  9  1  0  0  0  0
 24 25  2  0  0  0  0
 24 30  1  0  0  0  0
 25 26  1  0  0  0  0
 26 27  1  0  0  0  0
 26 28  2  0  0  0  0
 28 34  1  0  0  0  0
 29 28  1  0  0  0  0
 29 31  1  0  0  0  0
 30 29  2  0  0  0  0
 31 32  1  0  0  0  0
 32 33  1  0  0  0  0
 34 32  1  0  0  0  0
M  END
>  <minimizedAffinity>
-5.20249653

$$$$

 OpenBabel03262521503D

 34 37  0  0  1  0  0  0  0  0999 V2000
   35.7290   21.0230   35.8090 C   0  0  0  0  0  0  0  0  0  0  0  0
   35.6960   20.7010   34.4550 C   0  0  0  0  0  0  0  0  0  0  0  0
   36.7450   21.1730   33.6540 C   0  0  0  0  0  0  0  0  0  0  0  0
   37.7240   21.9120   34.2420 N   0  0  0  0  0  0  0  0  0  0  0  0
   37.7210   22.2000   35.5470 C   0  0  0  0  0  0  0  0  0  0  0  0
   36.7110   21.7500   36.3360 N   0  0  0  0  0  0  0  0  0  0  0  0
   38.7510   22.9680   36.1100 N   0  0  0  0  0  0  0  0  0  0  0  0
   39.1820   22.7940   37.4970 C   0  0  0  0  0  0  0  0  0  0  0  0
   40.6300   22.5110   37.5510 C   0  0  0  0  0  0  0  0  0  0  0  0
   41.3840   22.8430   36.4240 N   0  0  0  0  0  0  0  0  0  0  0  0
   40.9220   23.7530   35.4560 C   0  0  0  0  0  0  0  0  0  0  0  0
   39.4520   23.9860   35.3730 C   0  0  1  0  0  0  0  0  0  0  0  0
   34.9320   20.6740   36.4540 H   0  0  0  0  0  0  0  0  0  0  0  0
   34.8890   20.1080   34.0340 H   0  0  0  0  0  0  0  0  0  0  0  0
   36.7540   20.9390   32.5840 H   0  0  0  0  0  0  0  0  0  0  0  0
   38.5420   22.0670   38.0270 H   0  0  0  0  0  0  0  0  0  0  0  0
   38.9830   23.7830   37.9760 H   0  0  0  0  0  0  0  0  0  0  0  0
   40.7460   21.4090   37.7540 H   0  0  0  0  0  0  0  0  0  0  0  0
   41.0530   23.0150   38.4620 H   0  0  0  0  0  0  0  0  0  0  0  0
   42.0880   22.1630   36.1150 H   0  0  0  0  0  0  0  0  0  0  0  0
   41.4730   24.7100   35.5720 H   0  0  0  0  0  0  0  0  0  0  0  0
   41.2620   23.3540   34.4540 H   0  0  0  0  0  0  0  0  0  0  0  0
   39.2860   24.9110   36.0410 H   0  0  0  0  0  0  0  0  0  0  0  0
   39.1890   23.9300   32.8130 C   0  0  0  0  0  3  0  0  0  0  0  0
   38.9060   24.3640   34.0850 C   0  0  0  0  0  0  0  0  0  0  0  0
   37.9230   25.3610   34.1580 C   0  0  0  0  0  0  0  0  0  0  0  0
   37.5870   25.8090   35.1060 H   0  0  0  0  0  0  0  0  0  0  0  0
   37.3130   25.8420   33.0180 C   0  0  0  0  0  0  0  0  0  0  0  0
   37.6200   25.3890   31.7710 C   0  0  0  0  0  0  0  0  0  0  0  0
   38.5780   24.4140   31.6790 C   0  0  0  0  0  3  0  0  0  0  0  0
   36.8320   26.0750   30.8480 O   0  0  0  0  0  0  0  0  0  0  0  0
   36.3180   27.2400   31.4680 C   0  0  0  0  0  3  0  0  0  0  0  0
   35.3060   27.5160   31.1250 H   0  0  0  0  0  0  0  0  0  0  0  0
   36.3190   26.8230   32.8400 O   0  0  0  0  0  0  0  0  0  0  0  0
  1  6  1  0  0  0  0
  1 13  1  0  0  0  0
  2  1  2  0  0  0  0
  3  4  2  0  0  0  0
  3  2  1  0  0  0  0
  4  5  1  0  0  0  0
  5  7  1  0  0  0  0
  5  6  2  0  0  0  0
  7  8  1  0  0  0  0
  8  9  1  0  0  0  0
  8 17  1  0  0  0  0
  8 16  1  0  0  0  0
  9 18  1  0  0  0  0
  9 19  1  0  0  0  0
 10  9  1  0  0  0  0
 11 21  1  0  0  0  0
 11 10  1  0  0  0  0
 12 11  1  0  0  0  0
 12 23  1  1  0  0  0
 12  7  1  0  0  0  0
 14  2  1  0  0  0  0
 15  3  1  0  0  0  0
 20 10  1  0  0  0  0
 22 11  1  0  0  0  0
 24 25  1  0  0  0  0
 25 26  2  0  0  0  0
 25 12  1  0  0  0  0
 26 27  1  0  0  0  0
 28 26  1  0  0  0  0
 29 28  2  0  0  0  0
 30 29  1  0  0  0  0
 30 24  2  0  0  0  0
 31 32  1  0  0  0  0
 31 29  1  0  0  0  0
 32 34  1  0  0  0  0
 33 32  1  0  0  0  0
 34 28  1  0  0  0  0
M  END
>  <minimizedAffinity>
-5.16526222

$$$$

 OpenBabel03262521503D

 34 37  0  0  1  0  0  0  0  0999 V2000
   39.5040   26.2650   35.0370 C   0  0  0  0  0  0  0  0  0  0  0  0
   38.7560   27.2840   35.6210 C   0  0  0  0  0  0  0  0  0  0  0  0
   37.5160   27.5870   35.0400 C   0  0  0  0  0  0  0  0  0  0  0  0
   37.1230   26.8750   33.9500 N   0  0  0  0  0  0  0  0  0  0  0  0
   37.8700   25.9020   33.4190 C   0  0  0  0  0  0  0  0  0  0  0  0
   39.0730   25.5970   33.9710 N   0  0  0  0  0  0  0  0  0  0  0  0
   37.4240   25.1950   32.2930 N   0  0  0  0  0  0  0  0  0  0  0  0
   37.7920   23.8000   32.0540 C   0  0  0  0  0  0  0  0  0  0  0  0
   36.5800   22.9720   31.8960 C   0  0  0  0  0  0  0  0  0  0  0  0
   35.3900   23.6370   31.5970 N   0  0  0  0  0  0  0  0  0  0  0  0
   35.3750   24.9410   31.0690 C   0  0  0  0  0  0  0  0  0  0  0  0
   36.5820   25.7880   31.2870 C   0  0  1  0  0  0  0  0  0  0  0  0
   40.4660   26.0080   35.4630 H   0  0  0  0  0  0  0  0  0  0  0  0
   39.1170   27.8240   36.4910 H   0  0  0  0  0  0  0  0  0  0  0  0
   36.8990   28.3820   35.4720 H   0  0  0  0  0  0  0  0  0  0  0  0
   38.5100   23.4410   32.8120 H   0  0  0  0  0  0  0  0  0  0  0  0
   38.3510   23.8220   31.0880 H   0  0  0  0  0  0  0  0  0  0  0  0
   36.4430   22.3960   32.8540 H   0  0  0  0  0  0  0  0  0  0  0  0
   36.7900   22.1860   31.1200 H   0  0  0  0  0  0  0  0  0  0  0  0
   34.5460   23.3350   32.0950 H   0  0  0  0  0  0  0  0  0  0  0  0
   35.1110   24.8890   29.9930 H   0  0  0  0  0  0  0  0  0  0  0  0
   34.4970   25.4690   31.5480 H   0  0  0  0  0  0  0  0  0  0  0  0
   37.2070   25.6190   30.3330 H   0  0  0  0  0  0  0  0  0  0  0  0
   35.4400   27.9900   31.9750 C   0  0  0  0  0  3  0  0  0  0  0  0
   36.3910   27.2240   31.3470 C   0  0  0  0  0  0  0  0  0  0  0  0
   37.3440   27.9520   30.6210 C   0  0  0  0  0  0  0  0  0  0  0  0
   38.1690   27.4800   30.0650 H   0  0  0  0  0  0  0  0  0  0  0  0
   37.2940   29.3290   30.5660 C   0  0  0  0  0  0  0  0  0  0  0  0
   36.3350   30.0580   31.2000 C   0  0  0  0  0  0  0  0  0  0  0  0
   35.3940   29.3640   31.9150 C   0  0  0  0  0  3  0  0  0  0  0  0
   36.5670   31.4080   30.9440 O   0  0  0  0  0  0  0  0  0  0  0  0
   37.4300   31.5160   29.8260 C   0  0  0  0  0  3  0  0  0  0  0  0
   38.1250   32.3720   29.8820 H   0  0  0  0  0  0  0  0  0  0  0  0
   38.1220   30.2630   29.9130 O   0  0  0  0  0  0  0  0  0  0  0  0
  1 13  1  0  0  0  0
  1  2  1  0  0  0  0
  2 14  1  0  0  0  0
  3 15  1  0  0  0  0
  3  2  2  0  0  0  0
  4  3  1  0  0  0  0
  5  4  2  0  0  0  0
  5  6  1  0  0  0  0
  6  1  2  0  0  0  0
  7  5  1  0  0  0  0
  8  7  1  0  0  0  0
  8 16  1  0  0  0  0
  9  8  1  0  0  0  0
  9 18  1  0  0  0  0
 10  9  1  0  0  0  0
 10 20  1  0  0  0  0
 11 12  1  0  0  0  0
 11 22  1  0  0  0  0
 11 10  1  0  0  0  0
 12 23  1  6  0  0  0
 12 25  1  0  0  0  0
 12  7  1  0  0  0  0
 17  8  1  0  0  0  0
 19  9  1  0  0  0  0
 21 11  1  0  0  0  0
 25 24  2  0  0  0  0
 26 25  1  0  0  0  0
 27 26  1  0  0  0  0
 28 26  2  0  0  0  0
 28 29  1  0  0  0  0
 29 30  2  0  0  0  0
 30 24  1  0  0  0  0
 31 29  1  0  0  0  0
 32 33  1  0  0  0  0
 32 34  1  0  0  0  0
 32 31  1  0  0  0  0
 34 28  1  0  0  0  0
M  END
>  <minimizedAffinity>
-5.16120386

$$$$

 OpenBabel03262521503D

 34 37  0  0  1  0  0  0  0  0999 V2000
   36.7820   21.9100   31.1490 C   0  0  0  0  0  0  0  0  0  0  0  0
   35.6600   22.6140   31.5790 C   0  0  0  0  0  0  0  0  0  0  0  0
   35.6730   24.0060   31.4220 C   0  0  0  0  0  0  0  0  0  0  0  0
   36.7720   24.5820   30.8640 N   0  0  0  0  0  0  0  0  0  0  0  0
   37.8300   23.8720   30.4630 C   0  0  0  0  0  0  0  0  0  0  0  0
   37.8320   22.5220   30.6090 N   0  0  0  0  0  0  0  0  0  0  0  0
   38.9420   24.5100   29.8950 N   0  0  0  0  0  0  0  0  0  0  0  0
   39.7870   23.8570   28.8950 C   0  0  0  0  0  0  0  0  0  0  0  0
   39.8620   24.6830   27.6730 C   0  0  0  0  0  0  0  0  0  0  0  0
   39.5090   26.0280   27.7910 N   0  0  0  0  0  0  0  0  0  0  0  0
   39.4780   26.6850   29.0350 C   0  0  0  0  0  0  0  0  0  0  0  0
   39.3410   25.8440   30.2580 C   0  0  1  0  0  0  0  0  0  0  0  0
   36.8020   20.8320   31.2580 H   0  0  0  0  0  0  0  0  0  0  0  0
   34.8070   22.1050   32.0200 H   0  0  0  0  0  0  0  0  0  0  0  0
   34.8080   24.5940   31.7480 H   0  0  0  0  0  0  0  0  0  0  0  0
   39.4800   22.8090   28.7340 H   0  0  0  0  0  0  0  0  0  0  0  0
   40.7960   23.8120   29.3700 H   0  0  0  0  0  0  0  0  0  0  0  0
   39.1970   24.1990   26.9030 H   0  0  0  0  0  0  0  0  0  0  0  0
   40.8990   24.5910   27.2500 H   0  0  0  0  0  0  0  0  0  0  0  0
   38.9260   26.4270   27.0480 H   0  0  0  0  0  0  0  0  0  0  0  0
   40.3580   27.3570   29.1070 H   0  0  0  0  0  0  0  0  0  0  0  0
   38.5910   27.3870   29.0030 H   0  0  0  0  0  0  0  0  0  0  0  0
   40.4320   25.6760   30.5940 H   0  0  0  0  0  0  0  0  0  0  0  0
   37.6810   27.3610   31.5100 C   0  0  0  0  0  3  0  0  0  0  0  0
   38.6930   26.4380   31.4100 C   0  0  0  0  0  0  0  0  0  0  0  0
   39.2060   25.9960   32.6380 C   0  0  0  0  0  0  0  0  0  0  0  0
   40.0180   25.2570   32.7220 H   0  0  0  0  0  0  0  0  0  0  0  0
   38.7060   26.4760   33.8300 C   0  0  0  0  0  0  0  0  0  0  0  0
   37.7020   27.3930   33.8930 C   0  0  0  0  0  0  0  0  0  0  0  0
   37.1870   27.8370   32.7030 C   0  0  0  0  0  3  0  0  0  0  0  0
   37.4360   27.6630   35.2340 O   0  0  0  0  0  0  0  0  0  0  0  0
   38.5350   27.2250   36.0110 C   0  0  0  0  0  3  0  0  0  0  0  0
   38.2510   26.8370   37.0050 H   0  0  0  0  0  0  0  0  0  0  0  0
   39.0530   26.1890   35.1650 O   0  0  0  0  0  0  0  0  0  0  0  0
  1 13  1  0  0  0  0
  1  2  1  0  0  0  0
  2 14  1  0  0  0  0
  3  2  2  0  0  0  0
  3 15  1  0  0  0  0
  4  3  1  0  0  0  0
  5  6  1  0  0  0  0
  5  4  2  0  0  0  0
  6  1  2  0  0  0  0
  7 12  1  0  0  0  0
  7  5  1  0  0  0  0
  8 17  1  0  0  0  0
  8  7  1  0  0  0  0
  9 10  1  0  0  0  0
  9  8  1  0  0  0  0
 10 11  1  0  0  0  0
 11 21  1  0  0  0  0
 11 12  1  0  0  0  0
 12 23  1  1  0  0  0
 12 25  1  0  0  0  0
 16  8  1  0  0  0  0
 18  9  1  0  0  0  0
 19  9  1  0  0  0  0
 20 10  1  0  0  0  0
 22 11  1  0  0  0  0
 24 30  1  0  0  0  0
 25 24  2  0  0  0  0
 25 26  1  0  0  0  0
 26 27  1  0  0  0  0
 26 28  2  0  0  0  0
 28 29  1  0  0  0  0
 28 34  1  0  0  0  0
 29 31  1  0  0  0  0
 30 29  2  0  0  0  0
 31 32  1  0  0  0  0
 32 33  1  0  0  0  0
 34 32  1  0  0  0  0
M  END
>  <minimizedAffinity>
-5.10976601

$$$$

 OpenBabel03262521503D

 34 37  0  0  1  0  0  0  0  0999 V2000
   36.9990   22.5250   31.2190 C   0  0  0  0  0  0  0  0  0  0  0  0
   35.7370   23.0140   31.5460 C   0  0  0  0  0  0  0  0  0  0  0  0
   35.5240   24.3920   31.4040 C   0  0  0  0  0  0  0  0  0  0  0  0
   36.5540   25.1620   30.9600 N   0  0  0  0  0  0  0  0  0  0  0  0
   37.7520   24.6540   30.6560 C   0  0  0  0  0  0  0  0  0  0  0  0
   37.9730   23.3210   30.7890 N   0  0  0  0  0  0  0  0  0  0  0  0
   38.7850   25.4870   30.2040 N   0  0  0  0  0  0  0  0  0  0  0  0
   39.8190   25.0150   29.2830 C   0  0  0  0  0  0  0  0  0  0  0  0
   39.8650   25.8730   28.0830 C   0  0  0  0  0  0  0  0  0  0  0  0
   39.2750   27.1340   28.1800 N   0  0  0  0  0  0  0  0  0  0  0  0
   39.0140   27.7440   29.4210 C   0  0  0  0  0  0  0  0  0  0  0  0
   38.9120   26.8610   30.6160 C   0  0  1  0  0  0  0  0  0  0  0  0
   37.1950   21.4640   31.3190 H   0  0  0  0  0  0  0  0  0  0  0  0
   34.9480   22.3550   31.8980 H   0  0  0  0  0  0  0  0  0  0  0  0
   34.5440   24.8140   31.6510 H   0  0  0  0  0  0  0  0  0  0  0  0
   39.7140   23.9350   29.0850 H   0  0  0  0  0  0  0  0  0  0  0  0
   40.7730   25.1310   29.8530 H   0  0  0  0  0  0  0  0  0  0  0  0
   39.3670   25.3030   27.2480 H   0  0  0  0  0  0  0  0  0  0  0  0
   40.9370   25.9710   27.7610 H   0  0  0  0  0  0  0  0  0  0  0  0
   38.7040   27.4470   27.3870 H   0  0  0  0  0  0  0  0  0  0  0  0
   39.7540   28.5550   29.5840 H   0  0  0  0  0  0  0  0  0  0  0  0
   38.0270   28.2850   29.3100 H   0  0  0  0  0  0  0  0  0  0  0  0
   39.9790   26.8730   31.0540 H   0  0  0  0  0  0  0  0  0  0  0  0
   38.0780   27.0050   33.0470 C   0  0  0  0  0  3  0  0  0  0  0  0
   38.0660   27.3040   31.7070 C   0  0  0  0  0  0  0  0  0  0  0  0
   37.0490   28.1850   31.3120 C   0  0  0  0  0  0  0  0  0  0  0  0
   36.9100   28.5190   30.2730 H   0  0  0  0  0  0  0  0  0  0  0  0
   36.1500   28.6880   32.2300 C   0  0  0  0  0  0  0  0  0  0  0  0
   36.1910   28.3680   33.5520 C   0  0  0  0  0  0  0  0  0  0  0  0
   37.1780   27.5090   33.9580 C   0  0  0  0  0  3  0  0  0  0  0  0
   35.1530   29.0380   34.1980 O   0  0  0  0  0  0  0  0  0  0  0  0
   34.2130   29.4620   33.2270 C   0  0  0  0  0  3  0  0  0  0  0  0
   33.7280   30.4240   33.4680 H   0  0  0  0  0  0  0  0  0  0  0  0
   35.0620   29.5690   32.0770 O   0  0  0  0  0  0  0  0  0  0  0  0
  1 13  1  0  0  0  0
  1  2  1  0  0  0  0
  2 14  1  0  0  0  0
  3  2  2  0  0  0  0
  3 15  1  0  0  0  0
  4  3  1  0  0  0  0
  5  6  1  0  0  0  0
  5  4  2  0  0  0  0
  6  1  2  0  0  0  0
  7 12  1  0  0  0  0
  7  5  1  0  0  0  0
  8 17  1  0  0  0  0
  8  7  1  0  0  0  0
  9 10  1  0  0  0  0
  9  8  1  0  0  0  0
 10 11  1  0  0  0  0
 11 21  1  0  0  0  0
 11 12  1  0  0  0  0
 12 23  1  1  0  0  0
 12 25  1  0  0  0  0
 16  8  1  0  0  0  0
 18  9  1  0  0  0  0
 19  9  1  0  0  0  0
 20 10  1  0  0  0  0
 22 11  1  0  0  0  0
 24 30  1  0  0  0  0
 25 24  2  0  0  0  0
 26 25  1  0  0  0  0
 26 28  2  0  0  0  0
 27 26  1  0  0  0  0
 28 29  1  0  0  0  0
 29 30  2  0  0  0  0
 29 31  1  0  0  0  0
 32 33  1  0  0  0  0
 32 31  1  0  0  0  0
 34 28  1  0  0  0  0
 34 32  1  0  0  0  0
M  END
>  <minimizedAffinity>
-5.08912134

$$$$
