
 OpenBabel03272507353D

 38 42  0  0  1  0  0  0  0  0999 V2000
   36.9640   26.9300   32.7120 C   0  0  0  0  0  0  0  0  0  0  0  0
   36.2140   26.0860   32.1300 O   0  0  0  0  0  0  0  0  0  0  0  0
   38.0300   25.4660   35.7950 C   0  0  0  0  0  0  0  0  0  0  0  0
   38.2730   26.7870   36.0970 C   0  0  0  0  0  0  0  0  0  0  0  0
   37.9090   27.5470   34.9750 C   0  0  0  0  0  0  0  0  0  0  0  0
   37.4610   26.6240   34.0510 C   0  0  0  0  0  0  0  0  0  0  0  0
   37.5510   25.4200   34.5760 O   0  0  0  0  0  0  0  0  0  0  0  0
   38.6680   27.2600   36.9960 H   0  0  0  0  0  0  0  0  0  0  0  0
   37.9510   28.6130   34.8220 H   0  0  0  0  0  0  0  0  0  0  0  0
   38.2950   24.3930   36.7410 C   0  0  0  0  0  0  0  0  0  0  0  0
   37.4850   24.1760   37.6520 O   0  0  0  0  0  0  0  0  0  0  0  0
   39.5030   23.6400   36.5510 C   0  0  0  0  0  0  0  0  0  0  0  0
   39.8340   22.7220   37.5310 C   0  0  0  0  0  0  0  0  0  0  0  0
   41.0070   21.9730   37.3790 C   0  0  0  0  0  0  0  0  0  0  0  0
   41.7690   22.1940   36.2580 N   0  0  0  0  0  0  0  0  0  0  0  0
   41.4190   23.0870   35.3320 C   0  0  0  0  0  0  0  0  0  0  0  0
   40.2960   23.8090   35.4720 N   0  0  0  0  0  0  0  0  0  0  0  0
   39.2490   22.5400   38.4110 H   0  0  0  0  0  0  0  0  0  0  0  0
   41.2720   21.2510   38.1440 H   0  0  0  0  0  0  0  0  0  0  0  0
   42.0120   23.2680   34.4460 H   0  0  0  0  0  0  0  0  0  0  0  0
   37.3310   28.2000   32.0330 C   0  0  1  0  0  0  0  0  0  0  0  0
   36.3530   28.5000   30.8280 C   0  0  0  0  0  0  0  0  0  0  0  0
   36.4490   29.3690   31.9980 C   0  0  1  0  0  0  0  0  0  0  0  0
   38.3720   28.1840   31.6340 H   0  0  0  0  0  0  0  0  0  0  0  0
   36.8320   28.8130   29.8800 H   0  0  0  0  0  0  0  0  0  0  0  0
   35.5450   27.7810   30.6600 H   0  0  0  0  0  0  0  0  0  0  0  0
   37.0490   30.3290   31.8600 H   0  0  0  0  0  0  0  0  0  0  0  0
   35.5620   30.2820   34.0850 C   0  0  0  0  0  3  0  0  0  0  0  0
   35.3040   29.5690   32.9130 C   0  0  0  0  0  0  0  0  0  0  0  0
   34.0000   29.1550   32.7510 C   0  0  0  0  0  0  0  0  0  0  0  0
   33.7830   28.6170   31.8480 H   0  0  0  0  0  0  0  0  0  0  0  0
   33.0330   29.4350   33.6930 C   0  0  0  0  0  0  0  0  0  0  0  0
   33.2910   30.1310   34.8390 C   0  0  0  0  0  0  0  0  0  0  0  0
   34.5840   30.5680   35.0440 C   0  0  0  0  0  3  0  0  0  0  0  0
   32.1240   30.2460   35.5760 O   0  0  0  0  0  0  0  0  0  0  0  0
   31.0670   29.8700   34.7150 C   0  0  0  0  0  3  0  0  0  0  0  0
   30.3720   29.2390   35.2750 H   0  0  0  0  0  0  0  0  0  0  0  0
   31.6750   29.0910   33.6840 O   0  0  0  0  0  0  0  0  0  0  0  0
  1  6  1  0  0  0  0
  2  1  2  0  0  0  0
  3  4  2  0  0  0  0
  3 10  1  0  0  0  0
  4  8  1  0  0  0  0
  5  4  1  0  0  0  0
  6  7  1  0  0  0  0
  6  5  2  0  0  0  0
  7  3  1  0  0  0  0
  9  5  1  0  0  0  0
 10 11  2  0  0  0  0
 12 10  1  0  0  0  0
 12 13  1  0  0  0  0
 13 18  1  0  0  0  0
 14 13  2  0  0  0  0
 14 19  1  0  0  0  0
 15 14  1  0  0  0  0
 16 17  1  0  0  0  0
 16 15  2  0  0  0  0
 17 12  2  0  0  0  0
 20 16  1  0  0  0  0
 21 24  1  6  0  0  0
 21  1  1  0  0  0  0
 22 23  1  0  0  0  0
 22 21  1  0  0  0  0
 23 27  1  6  0  0  0
 23 21  1  0  0  0  0
 23 29  1  0  0  0  0
 25 22  1  0  0  0  0
 26 22  1  0  0  0  0
 28 34  1  0  0  0  0
 29 28  2  0  0  0  0
 30 29  1  0  0  0  0
 30 32  2  0  0  0  0
 31 30  1  0  0  0  0
 32 33  1  0  0  0  0
 33 34  2  0  0  0  0
 33 35  1  0  0  0  0
 36 37  1  0  0  0  0
 36 35  1  0  0  0  0
 38 32  1  0  0  0  0
 38 36  1  0  0  0  0
M  END
>  <minimizedAffinity>
-6.13457441

$$$$

 OpenBabel03272507353D

 38 42  0  0  1  0  0  0  0  0999 V2000
   36.9060   22.0520   31.1230 C   0  0  0  0  0  0  0  0  0  0  0  0
   38.0770   21.8520   30.6750 O   0  0  0  0  0  0  0  0  0  0  0  0
   36.4370   25.5310   31.8020 C   0  0  0  0  0  0  0  0  0  0  0  0
   35.2080   25.2610   31.2440 C   0  0  0  0  0  0  0  0  0  0  0  0
   35.1950   23.9000   30.8980 C   0  0  0  0  0  0  0  0  0  0  0  0
   36.4360   23.4270   31.2760 C   0  0  0  0  0  0  0  0  0  0  0  0
   37.1270   24.4170   31.7990 O   0  0  0  0  0  0  0  0  0  0  0  0
   34.3440   25.8990   31.0580 H   0  0  0  0  0  0  0  0  0  0  0  0
   34.4160   23.3140   30.4400 H   0  0  0  0  0  0  0  0  0  0  0  0
   36.7970   26.8570   32.2790 C   0  0  0  0  0  0  0  0  0  0  0  0
   36.3090   27.8520   31.7250 O   0  0  0  0  0  0  0  0  0  0  0  0
   37.7110   26.9280   33.3850 C   0  0  0  0  0  0  0  0  0  0  0  0
   37.1850   27.2660   34.6180 C   0  0  0  0  0  0  0  0  0  0  0  0
   38.0500   27.3470   35.7160 C   0  0  0  0  0  0  0  0  0  0  0  0
   39.3810   27.0840   35.5050 N   0  0  0  0  0  0  0  0  0  0  0  0
   39.8550   26.7600   34.3020 C   0  0  0  0  0  0  0  0  0  0  0  0
   39.0310   26.6820   33.2440 N   0  0  0  0  0  0  0  0  0  0  0  0
   36.1480   27.4740   34.7960 H   0  0  0  0  0  0  0  0  0  0  0  0
   37.6430   27.6110   36.6870 H   0  0  0  0  0  0  0  0  0  0  0  0
   40.9010   26.5520   34.1260 H   0  0  0  0  0  0  0  0  0  0  0  0
   36.0330   20.9030   31.4780 C   0  0  1  0  0  0  0  0  0  0  0  0
   36.8950   19.6580   31.9330 C   0  0  0  0  0  0  0  0  0  0  0  0
   35.9640   20.3410   32.8290 C   0  0  1  0  0  0  0  0  0  0  0  0
   35.3870   20.5800   30.6270 H   0  0  0  0  0  0  0  0  0  0  0  0
   36.6070   18.6820   31.4950 H   0  0  0  0  0  0  0  0  0  0  0  0
   37.9810   19.7930   31.9540 H   0  0  0  0  0  0  0  0  0  0  0  0
   34.9650   19.8190   33.0030 H   0  0  0  0  0  0  0  0  0  0  0  0
   35.6700   20.8620   35.1980 C   0  0  0  0  0  3  0  0  0  0  0  0
   36.4310   21.0450   34.0430 C   0  0  0  0  0  0  0  0  0  0  0  0
   37.5380   21.8520   34.1880 C   0  0  0  0  0  0  0  0  0  0  0  0
   38.1400   21.9920   33.3110 H   0  0  0  0  0  0  0  0  0  0  0  0
   37.8540   22.4300   35.3990 C   0  0  0  0  0  0  0  0  0  0  0  0
   37.1050   22.2500   36.5270 C   0  0  0  0  0  0  0  0  0  0  0  0
   35.9860   21.4470   36.4290 C   0  0  0  0  0  3  0  0  0  0  0  0
   37.6760   22.9560   37.5730 O   0  0  0  0  0  0  0  0  0  0  0  0
   38.9700   23.3330   37.1420 C   0  0  0  0  0  3  0  0  0  0  0  0
   39.1480   24.3680   37.4470 H   0  0  0  0  0  0  0  0  0  0  0  0
   38.9300   23.2680   35.7160 O   0  0  0  0  0  0  0  0  0  0  0  0
  1  6  1  0  0  0  0
  1 21  1  0  0  0  0
  2  1  2  0  0  0  0
  3 10  1  0  0  0  0
  4  3  2  0  0  0  0
  5  4  1  0  0  0  0
  5  6  2  0  0  0  0
  6  7  1  0  0  0  0
  7  3  1  0  0  0  0
  8  4  1  0  0  0  0
  9  5  1  0  0  0  0
 10 12  1  0  0  0  0
 11 10  2  0  0  0  0
 12 13  1  0  0  0  0
 13 18  1  0  0  0  0
 13 14  2  0  0  0  0
 14 19  1  0  0  0  0
 15 14  1  0  0  0  0
 16 15  2  0  0  0  0
 17 12  2  0  0  0  0
 17 16  1  0  0  0  0
 20 16  1  0  0  0  0
 21 24  1  6  0  0  0
 21 22  1  0  0  0  0
 21 23  1  0  0  0  0
 22 26  1  0  0  0  0
 22 23  1  0  0  0  0
 23 27  1  1  0  0  0
 23 29  1  0  0  0  0
 25 22  1  0  0  0  0
 28 34  1  0  0  0  0
 29 30  1  0  0  0  0
 29 28  2  0  0  0  0
 30 32  2  0  0  0  0
 31 30  1  0  0  0  0
 32 38  1  0  0  0  0
 32 33  1  0  0  0  0
 33 35  1  0  0  0  0
 34 33  2  0  0  0  0
 36 37  1  0  0  0  0
 36 35  1  0  0  0  0
 38 36  1  0  0  0  0
M  END
>  <minimizedAffinity>
-6.11167336

$$$$

 OpenBabel03272507353D

 38 42  0  0  1  0  0  0  0  0999 V2000
   37.0540   27.6800   33.3640 C   0  0  0  0  0  0  0  0  0  0  0  0
   35.9170   28.2430   33.4230 O   0  0  0  0  0  0  0  0  0  0  0  0
   37.9540   25.4190   35.9830 C   0  0  0  0  0  0  0  0  0  0  0  0
   38.5680   26.5520   36.4660 C   0  0  0  0  0  0  0  0  0  0  0  0
   38.3240   27.5850   35.5480 C   0  0  0  0  0  0  0  0  0  0  0  0
   37.5660   27.0020   34.5530 C   0  0  0  0  0  0  0  0  0  0  0  0
   37.3750   25.7340   34.8510 O   0  0  0  0  0  0  0  0  0  0  0  0
   39.1540   26.7260   37.3700 H   0  0  0  0  0  0  0  0  0  0  0  0
   38.6370   28.6160   35.5720 H   0  0  0  0  0  0  0  0  0  0  0  0
   38.0040   24.1490   36.6910 C   0  0  0  0  0  0  0  0  0  0  0  0
   37.0490   23.8170   37.4060 O   0  0  0  0  0  0  0  0  0  0  0  0
   39.1810   23.3460   36.5090 C   0  0  0  0  0  0  0  0  0  0  0  0
   39.5990   23.1260   35.2090 C   0  0  0  0  0  0  0  0  0  0  0  0
   40.7410   22.3450   34.9960 C   0  0  0  0  0  0  0  0  0  0  0  0
   41.3870   21.8370   36.0970 N   0  0  0  0  0  0  0  0  0  0  0  0
   40.9550   22.0700   37.3370 C   0  0  0  0  0  0  0  0  0  0  0  0
   39.8610   22.8180   37.5490 N   0  0  0  0  0  0  0  0  0  0  0  0
   39.1050   23.5150   34.3410 H   0  0  0  0  0  0  0  0  0  0  0  0
   41.0760   22.1690   33.9790 H   0  0  0  0  0  0  0  0  0  0  0  0
   41.4560   21.6750   38.2100 H   0  0  0  0  0  0  0  0  0  0  0  0
   37.8390   27.7090   32.1030 C   0  0  1  0  0  0  0  0  0  0  0  0
   39.2020   26.9250   32.2680 C   0  0  0  0  0  0  0  0  0  0  0  0
   38.1600   26.5030   31.3360 C   0  0  1  0  0  0  0  0  0  0  0  0
   38.0790   28.7470   31.7740 H   0  0  0  0  0  0  0  0  0  0  0  0
   40.1050   27.4330   31.8760 H   0  0  0  0  0  0  0  0  0  0  0  0
   39.3860   26.4560   33.2400 H   0  0  0  0  0  0  0  0  0  0  0  0
   38.3390   26.7540   30.2380 H   0  0  0  0  0  0  0  0  0  0  0  0
   36.1160   25.1840   31.1020 C   0  0  0  0  0  3  0  0  0  0  0  0
   37.4560   25.2120   31.4910 C   0  0  0  0  0  0  0  0  0  0  0  0
   37.9570   24.0170   31.9590 C   0  0  0  0  0  0  0  0  0  0  0  0
   38.9900   24.0200   32.2500 H   0  0  0  0  0  0  0  0  0  0  0  0
   37.1750   22.8850   32.0300 C   0  0  0  0  0  0  0  0  0  0  0  0
   35.8630   22.8630   31.6490 C   0  0  0  0  0  0  0  0  0  0  0  0
   35.3160   24.0380   31.1720 C   0  0  0  0  0  3  0  0  0  0  0  0
   35.3530   21.5900   31.8400 O   0  0  0  0  0  0  0  0  0  0  0  0
   36.4630   20.7420   32.0610 C   0  0  0  0  0  3  0  0  0  0  0  0
   36.2200   20.0580   32.8780 H   0  0  0  0  0  0  0  0  0  0  0  0
   37.5230   21.6040   32.4760 O   0  0  0  0  0  0  0  0  0  0  0  0
  1  2  2  0  0  0  0
  1  6  1  0  0  0  0
  3  4  2  0  0  0  0
  3 10  1  0  0  0  0
  4  8  1  0  0  0  0
  5  9  1  0  0  0  0
  5  4  1  0  0  0  0
  6  7  1  0  0  0  0
  6  5  2  0  0  0  0
  7  3  1  0  0  0  0
 10 11  2  0  0  0  0
 12 10  1  0  0  0  0
 12 17  1  0  0  0  0
 13 12  2  0  0  0  0
 14 13  1  0  0  0  0
 14 15  2  0  0  0  0
 15 16  1  0  0  0  0
 16 17  2  0  0  0  0
 16 20  1  0  0  0  0
 18 13  1  0  0  0  0
 19 14  1  0  0  0  0
 21 24  1  6  0  0  0
 21 22  1  0  0  0  0
 21  1  1  0  0  0  0
 22 26  1  0  0  0  0
 23 27  1  6  0  0  0
 23 29  1  0  0  0  0
 23 21  1  0  0  0  0
 23 22  1  0  0  0  0
 25 22  1  0  0  0  0
 28 34  2  0  0  0  0
 28 29  1  0  0  0  0
 29 30  2  0  0  0  0
 30 32  1  0  0  0  0
 30 31  1  0  0  0  0
 32 38  1  0  0  0  0
 33 35  1  0  0  0  0
 33 32  2  0  0  0  0
 34 33  1  0  0  0  0
 35 36  1  0  0  0  0
 36 38  1  0  0  0  0
 36 37  1  0  0  0  0
M  END
>  <minimizedAffinity>
-6.00952625

$$$$

 OpenBabel03272507353D

 38 42  0  0  1  0  0  0  0  0999 V2000
   36.2310   20.7720   33.2130 C   0  0  0  0  0  0  0  0  0  0  0  0
   35.0250   20.4100   33.0430 O   0  0  0  0  0  0  0  0  0  0  0  0
   37.7570   22.4390   35.9830 C   0  0  0  0  0  0  0  0  0  0  0  0
   36.7160   21.8350   36.6520 C   0  0  0  0  0  0  0  0  0  0  0  0
   35.9750   21.1100   35.7050 C   0  0  0  0  0  0  0  0  0  0  0  0
   36.6240   21.3250   34.5070 C   0  0  0  0  0  0  0  0  0  0  0  0
   37.6600   22.1090   34.7190 O   0  0  0  0  0  0  0  0  0  0  0  0
   36.4290   21.8480   37.7040 H   0  0  0  0  0  0  0  0  0  0  0  0
   35.0910   20.5070   35.8370 H   0  0  0  0  0  0  0  0  0  0  0  0
   38.7330   23.2760   36.6640 C   0  0  0  0  0  0  0  0  0  0  0  0
   39.2750   22.8560   37.6960 O   0  0  0  0  0  0  0  0  0  0  0  0
   39.0110   24.5590   36.0830 C   0  0  0  0  0  0  0  0  0  0  0  0
   38.1770   25.6050   36.4350 C   0  0  0  0  0  0  0  0  0  0  0  0
   38.4190   26.8690   35.8840 C   0  0  0  0  0  0  0  0  0  0  0  0
   39.4780   27.0010   35.0180 N   0  0  0  0  0  0  0  0  0  0  0  0
   40.2620   25.9700   34.7010 C   0  0  0  0  0  0  0  0  0  0  0  0
   40.0360   24.7550   35.2260 N   0  0  0  0  0  0  0  0  0  0  0  0
   37.3480   25.5160   37.1080 H   0  0  0  0  0  0  0  0  0  0  0  0
   37.7690   27.6940   36.1560 H   0  0  0  0  0  0  0  0  0  0  0  0
   41.0970   26.0640   34.0210 H   0  0  0  0  0  0  0  0  0  0  0  0
   37.2190   20.6240   32.1130 C   0  0  1  0  0  0  0  0  0  0  0  0
   36.5020   20.6350   30.7040 C   0  0  0  0  0  0  0  0  0  0  0  0
   37.4560   21.6650   31.1090 C   0  0  1  0  0  0  0  0  0  0  0  0
   37.8060   19.6790   32.1910 H   0  0  0  0  0  0  0  0  0  0  0  0
   36.8220   19.8510   29.9900 H   0  0  0  0  0  0  0  0  0  0  0  0
   35.4150   20.7670   30.7060 H   0  0  0  0  0  0  0  0  0  0  0  0
   38.5040   21.5760   30.6690 H   0  0  0  0  0  0  0  0  0  0  0  0
   35.7030   23.3670   31.0520 C   0  0  0  0  0  3  0  0  0  0  0  0
   37.0510   23.0780   31.2700 C   0  0  0  0  0  0  0  0  0  0  0  0
   37.8330   24.1540   31.6280 C   0  0  0  0  0  0  0  0  0  0  0  0
   38.8700   23.9450   31.8110 H   0  0  0  0  0  0  0  0  0  0  0  0
   37.3030   25.4200   31.7550 C   0  0  0  0  0  0  0  0  0  0  0  0
   35.9830   25.6980   31.5380 C   0  0  0  0  0  0  0  0  0  0  0  0
   35.1600   24.6500   31.1790 C   0  0  0  0  0  3  0  0  0  0  0  0
   35.7620   27.0500   31.7430 O   0  0  0  0  0  0  0  0  0  0  0  0
   36.9150   27.5520   32.3900 C   0  0  0  0  0  3  0  0  0  0  0  0
   37.1740   28.5140   31.9410 H   0  0  0  0  0  0  0  0  0  0  0  0
   37.9500   26.6110   32.1060 O   0  0  0  0  0  0  0  0  0  0  0  0
  1  6  1  0  0  0  0
  2  1  2  0  0  0  0
  3  4  2  0  0  0  0
  3 10  1  0  0  0  0
  4  8  1  0  0  0  0
  5  9  1  0  0  0  0
  5  4  1  0  0  0  0
  6  7  1  0  0  0  0
  6  5  2  0  0  0  0
  7  3  1  0  0  0  0
 10 11  2  0  0  0  0
 12 13  1  0  0  0  0
 12 10  1  0  0  0  0
 13 18  1  0  0  0  0
 14 19  1  0  0  0  0
 14 13  2  0  0  0  0
 15 14  1  0  0  0  0
 16 15  2  0  0  0  0
 16 17  1  0  0  0  0
 17 12  2  0  0  0  0
 20 16  1  0  0  0  0
 21 24  1  1  0  0  0
 21  1  1  0  0  0  0
 22 26  1  0  0  0  0
 22 23  1  0  0  0  0
 22 21  1  0  0  0  0
 23 27  1  6  0  0  0
 23 29  1  0  0  0  0
 23 21  1  0  0  0  0
 25 22  1  0  0  0  0
 28 34  2  0  0  0  0
 28 29  1  0  0  0  0
 29 30  2  0  0  0  0
 30 32  1  0  0  0  0
 30 31  1  0  0  0  0
 32 38  1  0  0  0  0
 33 35  1  0  0  0  0
 33 32  2  0  0  0  0
 34 33  1  0  0  0  0
 35 36  1  0  0  0  0
 37 36  1  0  0  0  0
 38 36  1  0  0  0  0
M  END
>  <minimizedAffinity>
-5.97960091

$$$$

 OpenBabel03272507353D

 38 42  0  0  1  0  0  0  0  0999 V2000
   37.0650   27.4080   33.5770 C   0  0  0  0  0  0  0  0  0  0  0  0
   36.9220   27.8800   34.7470 O   0  0  0  0  0  0  0  0  0  0  0  0
   37.8750   23.9410   33.9020 C   0  0  0  0  0  0  0  0  0  0  0  0
   37.4050   23.9240   32.6080 C   0  0  0  0  0  0  0  0  0  0  0  0
   37.0230   25.2360   32.2840 C   0  0  0  0  0  0  0  0  0  0  0  0
   37.2910   25.9730   33.4200 C   0  0  0  0  0  0  0  0  0  0  0  0
   37.7880   25.1730   34.3390 O   0  0  0  0  0  0  0  0  0  0  0  0
   37.3040   23.1120   31.8880 H   0  0  0  0  0  0  0  0  0  0  0  0
   36.6090   25.6260   31.3690 H   0  0  0  0  0  0  0  0  0  0  0  0
   38.3600   22.7410   34.5660 C   0  0  0  0  0  0  0  0  0  0  0  0
   38.4690   21.6920   33.9160 O   0  0  0  0  0  0  0  0  0  0  0  0
   38.6880   22.8530   35.9600 C   0  0  0  0  0  0  0  0  0  0  0  0
   37.6770   23.2480   36.8160 C   0  0  0  0  0  0  0  0  0  0  0  0
   37.9640   23.3700   38.1800 C   0  0  0  0  0  0  0  0  0  0  0  0
   39.2430   23.0900   38.5950 N   0  0  0  0  0  0  0  0  0  0  0  0
   40.1950   22.7110   37.7410 C   0  0  0  0  0  0  0  0  0  0  0  0
   39.9260   22.5930   36.4310 N   0  0  0  0  0  0  0  0  0  0  0  0
   36.6750   23.4690   36.5060 H   0  0  0  0  0  0  0  0  0  0  0  0
   37.1740   23.6780   38.8580 H   0  0  0  0  0  0  0  0  0  0  0  0
   41.2040   22.4890   38.0580 H   0  0  0  0  0  0  0  0  0  0  0  0
   36.9940   28.3040   32.3940 C   0  0  1  0  0  0  0  0  0  0  0  0
   35.5980   28.1680   31.6640 C   0  0  0  0  0  0  0  0  0  0  0  0
   36.0410   29.4120   32.2890 C   0  0  1  0  0  0  0  0  0  0  0  0
   37.7930   28.0880   31.6470 H   0  0  0  0  0  0  0  0  0  0  0  0
   35.6330   28.0730   30.5610 H   0  0  0  0  0  0  0  0  0  0  0  0
   34.8740   27.4780   32.1110 H   0  0  0  0  0  0  0  0  0  0  0  0
   36.4280   30.2170   31.5800 H   0  0  0  0  0  0  0  0  0  0  0  0
   34.0610   29.4790   33.7200 C   0  0  0  0  0  3  0  0  0  0  0  0
   35.3260   30.0000   33.4420 C   0  0  0  0  0  0  0  0  0  0  0  0
   35.7540   30.9920   34.2960 C   0  0  0  0  0  0  0  0  0  0  0  0
   36.7300   31.3940   34.1020 H   0  0  0  0  0  0  0  0  0  0  0  0
   34.9740   31.4270   35.3450 C   0  0  0  0  0  0  0  0  0  0  0  0
   33.7360   30.9150   35.6130 C   0  0  0  0  0  0  0  0  0  0  0  0
   33.2650   29.9170   34.7840 C   0  0  0  0  0  3  0  0  0  0  0  0
   33.2070   31.5540   36.7220 O   0  0  0  0  0  0  0  0  0  0  0  0
   34.2740   32.2630   37.3230 C   0  0  0  0  0  3  0  0  0  0  0  0
   33.9110   33.2500   37.6190 H   0  0  0  0  0  0  0  0  0  0  0  0
   35.2550   32.4150   36.2970 O   0  0  0  0  0  0  0  0  0  0  0  0
  1  2  2  0  0  0  0
  3  7  1  0  0  0  0
  3 10  1  0  0  0  0
  4  3  2  0  0  0  0
  5  4  1  0  0  0  0
  5  6  2  0  0  0  0
  6  1  1  0  0  0  0
  6  7  1  0  0  0  0
  8  4  1  0  0  0  0
  9  5  1  0  0  0  0
 10 12  1  0  0  0  0
 11 10  2  0  0  0  0
 12 17  2  0  0  0  0
 12 13  1  0  0  0  0
 13 14  2  0  0  0  0
 14 15  1  0  0  0  0
 14 19  1  0  0  0  0
 16 20  1  0  0  0  0
 16 15  2  0  0  0  0
 17 16  1  0  0  0  0
 18 13  1  0  0  0  0
 21 24  1  6  0  0  0
 21  1  1  0  0  0  0
 22 26  1  0  0  0  0
 22 23  1  0  0  0  0
 22 21  1  0  0  0  0
 23 27  1  6  0  0  0
 23 21  1  0  0  0  0
 23 29  1  0  0  0  0
 25 22  1  0  0  0  0
 28 34  1  0  0  0  0
 29 28  2  0  0  0  0
 29 30  1  0  0  0  0
 30 32  2  0  0  0  0
 31 30  1  0  0  0  0
 32 33  1  0  0  0  0
 32 38  1  0  0  0  0
 33 35  1  0  0  0  0
 34 33  2  0  0  0  0
 35 36  1  0  0  0  0
 36 37  1  0  0  0  0
 38 36  1  0  0  0  0
M  END
>  <minimizedAffinity>
-5.90449047

$$$$

 OpenBabel03272507353D

 38 42  0  0  1  0  0  0  0  0999 V2000
   35.8880   22.3590   31.8260 C   0  0  0  0  0  0  0  0  0  0  0  0
   34.8820   21.7860   32.3500 O   0  0  0  0  0  0  0  0  0  0  0  0
   36.2820   25.9080   32.0020 C   0  0  0  0  0  0  0  0  0  0  0  0
   35.4310   25.8470   30.9210 C   0  0  0  0  0  0  0  0  0  0  0  0
   35.1500   24.4910   30.6860 C   0  0  0  0  0  0  0  0  0  0  0  0
   35.8600   23.8100   31.6530 C   0  0  0  0  0  0  0  0  0  0  0  0
   36.5070   24.6800   32.3990 O   0  0  0  0  0  0  0  0  0  0  0  0
   34.9970   26.6300   30.2980 H   0  0  0  0  0  0  0  0  0  0  0  0
   34.5280   24.0380   29.9320 H   0  0  0  0  0  0  0  0  0  0  0  0
   36.7790   27.1710   32.5240 C   0  0  0  0  0  0  0  0  0  0  0  0
   36.3550   28.2330   32.0470 O   0  0  0  0  0  0  0  0  0  0  0  0
   37.7490   27.1030   33.5820 C   0  0  0  0  0  0  0  0  0  0  0  0
   39.0800   27.0310   33.2130 C   0  0  0  0  0  0  0  0  0  0  0  0
   40.0500   26.9600   34.2200 C   0  0  0  0  0  0  0  0  0  0  0  0
   39.6240   26.9670   35.5250 N   0  0  0  0  0  0  0  0  0  0  0  0
   38.3310   27.0380   35.8440 C   0  0  0  0  0  0  0  0  0  0  0  0
   37.3950   27.1050   34.8850 N   0  0  0  0  0  0  0  0  0  0  0  0
   39.4270   27.0250   32.1990 H   0  0  0  0  0  0  0  0  0  0  0  0
   41.0970   26.9040   33.9370 H   0  0  0  0  0  0  0  0  0  0  0  0
   37.9860   27.0430   36.8690 H   0  0  0  0  0  0  0  0  0  0  0  0
   37.0700   21.5620   31.4070 C   0  0  1  0  0  0  0  0  0  0  0  0
   38.2600   22.5050   30.9660 C   0  0  0  0  0  0  0  0  0  0  0  0
   38.3530   21.6060   32.1140 C   0  0  1  0  0  0  0  0  0  0  0  0
   36.8420   20.8770   30.5570 H   0  0  0  0  0  0  0  0  0  0  0  0
   38.7710   22.2320   30.0220 H   0  0  0  0  0  0  0  0  0  0  0  0
   38.0870   23.5830   31.0400 H   0  0  0  0  0  0  0  0  0  0  0  0
   38.9420   20.6440   31.9490 H   0  0  0  0  0  0  0  0  0  0  0  0
   39.7080   22.8050   33.7570 C   0  0  0  0  0  3  0  0  0  0  0  0
   38.5220   22.1190   33.4900 C   0  0  0  0  0  0  0  0  0  0  0  0
   37.6470   22.0230   34.5500 C   0  0  0  0  0  0  0  0  0  0  0  0
   36.7240   21.5100   34.3570 H   0  0  0  0  0  0  0  0  0  0  0  0
   37.9410   22.5720   35.7800 C   0  0  0  0  0  0  0  0  0  0  0  0
   39.1050   23.2410   36.0360 C   0  0  0  0  0  0  0  0  0  0  0  0
   40.0120   23.3630   35.0030 C   0  0  0  0  0  3  0  0  0  0  0  0
   39.1050   23.6690   37.3530 O   0  0  0  0  0  0  0  0  0  0  0  0
   37.7800   23.5160   37.8250 C   0  0  0  0  0  3  0  0  0  0  0  0
   37.8170   23.0980   38.8340 H   0  0  0  0  0  0  0  0  0  0  0  0
   37.1720   22.5650   36.9500 O   0  0  0  0  0  0  0  0  0  0  0  0
  1  2  2  0  0  0  0
  3  7  1  0  0  0  0
  3 10  1  0  0  0  0
  4  3  2  0  0  0  0
  5  4  1  0  0  0  0
  5  6  2  0  0  0  0
  6  1  1  0  0  0  0
  6  7  1  0  0  0  0
  8  4  1  0  0  0  0
  9  5  1  0  0  0  0
 10 12  1  0  0  0  0
 11 10  2  0  0  0  0
 12 17  1  0  0  0  0
 13 12  2  0  0  0  0
 13 14  1  0  0  0  0
 14 15  2  0  0  0  0
 15 16  1  0  0  0  0
 16 20  1  0  0  0  0
 17 16  2  0  0  0  0
 18 13  1  0  0  0  0
 19 14  1  0  0  0  0
 21 24  1  6  0  0  0
 21  1  1  0  0  0  0
 21 23  1  0  0  0  0
 22 26  1  0  0  0  0
 22 21  1  0  0  0  0
 22 23  1  0  0  0  0
 23 27  1  6  0  0  0
 23 29  1  0  0  0  0
 25 22  1  0  0  0  0
 28 34  1  0  0  0  0
 29 28  2  0  0  0  0
 29 30  1  0  0  0  0
 30 32  2  0  0  0  0
 31 30  1  0  0  0  0
 32 33  1  0  0  0  0
 32 38  1  0  0  0  0
 33 35  1  0  0  0  0
 34 33  2  0  0  0  0
 35 36  1  0  0  0  0
 36 37  1  0  0  0  0
 38 36  1  0  0  0  0
M  END
>  <minimizedAffinity>
-5.87092113

$$$$

 OpenBabel03272507353D

 38 42  0  0  1  0  0  0  0  0999 V2000
   38.0260   24.3600   36.3310 C   0  0  0  0  0  0  0  0  0  0  0  0
   38.0840   24.1570   37.5840 O   0  0  0  0  0  0  0  0  0  0  0  0
   37.0490   27.4350   34.7910 C   0  0  0  0  0  0  0  0  0  0  0  0
   38.1750   27.8790   35.4480 C   0  0  0  0  0  0  0  0  0  0  0  0
   38.7190   26.7830   36.1350 C   0  0  0  0  0  0  0  0  0  0  0  0
   37.8760   25.7290   35.8460 C   0  0  0  0  0  0  0  0  0  0  0  0
   36.9140   26.1590   35.0570 O   0  0  0  0  0  0  0  0  0  0  0  0
   38.6410   28.8640   35.4950 H   0  0  0  0  0  0  0  0  0  0  0  0
   39.5960   26.7280   36.7600 H   0  0  0  0  0  0  0  0  0  0  0  0
   36.2310   28.3160   33.9730 C   0  0  0  0  0  0  0  0  0  0  0  0
   35.3490   28.9970   34.5140 O   0  0  0  0  0  0  0  0  0  0  0  0
   36.5060   28.3400   32.5640 C   0  0  0  0  0  0  0  0  0  0  0  0
   36.0680   29.4440   31.8550 C   0  0  0  0  0  0  0  0  0  0  0  0
   36.3170   29.4980   30.4780 C   0  0  0  0  0  0  0  0  0  0  0  0
   36.9860   28.4440   29.9050 N   0  0  0  0  0  0  0  0  0  0  0  0
   37.3940   27.3950   30.6200 C   0  0  0  0  0  0  0  0  0  0  0  0
   37.1580   27.3360   31.9400 N   0  0  0  0  0  0  0  0  0  0  0  0
   35.5450   30.2730   32.2890 H   0  0  0  0  0  0  0  0  0  0  0  0
   35.9770   30.3620   29.9160 H   0  0  0  0  0  0  0  0  0  0  0  0
   37.9210   26.5600   30.1770 H   0  0  0  0  0  0  0  0  0  0  0  0
   38.1180   23.2190   35.3830 C   0  0  1  0  0  0  0  0  0  0  0  0
   38.6100   23.7040   33.9610 C   0  0  0  0  0  0  0  0  0  0  0  0
   39.3820   22.7780   34.7870 C   0  0  1  0  0  0  0  0  0  0  0  0
   37.1420   22.6970   35.2480 H   0  0  0  0  0  0  0  0  0  0  0  0
   38.0460   23.3120   33.0920 H   0  0  0  0  0  0  0  0  0  0  0  0
   38.8370   24.7700   33.8560 H   0  0  0  0  0  0  0  0  0  0  0  0
   39.3290   21.6780   34.4880 H   0  0  0  0  0  0  0  0  0  0  0  0
   41.2820   22.2440   36.2290 C   0  0  0  0  0  3  0  0  0  0  0  0
   40.7150   23.1350   35.3160 C   0  0  0  0  0  0  0  0  0  0  0  0
   41.4870   24.2350   35.0110 C   0  0  0  0  0  0  0  0  0  0  0  0
   41.0710   24.9230   34.3000 H   0  0  0  0  0  0  0  0  0  0  0  0
   42.7290   24.4240   35.5790 C   0  0  0  0  0  0  0  0  0  0  0  0
   43.2790   23.5490   36.4730 C   0  0  0  0  0  0  0  0  0  0  0  0
   42.5410   22.4310   36.8080 C   0  0  0  0  0  3  0  0  0  0  0  0
   44.5250   24.0130   36.8600 O   0  0  0  0  0  0  0  0  0  0  0  0
   44.8690   25.0420   35.9520 C   0  0  0  0  0  3  0  0  0  0  0  0
   45.3100   25.8680   36.5150 H   0  0  0  0  0  0  0  0  0  0  0  0
   43.6340   25.4740   35.3810 O   0  0  0  0  0  0  0  0  0  0  0  0
  1  2  2  0  0  0  0
  3  7  1  0  0  0  0
  3  4  2  0  0  0  0
  4  8  1  0  0  0  0
  4  5  1  0  0  0  0
  5  9  1  0  0  0  0
  6  5  2  0  0  0  0
  6  1  1  0  0  0  0
  7  6  1  0  0  0  0
 10 11  2  0  0  0  0
 10  3  1  0  0  0  0
 12 10  1  0  0  0  0
 13 18  1  0  0  0  0
 13 12  2  0  0  0  0
 14 13  1  0  0  0  0
 15 14  2  0  0  0  0
 15 16  1  0  0  0  0
 16 17  2  0  0  0  0
 17 12  1  0  0  0  0
 19 14  1  0  0  0  0
 20 16  1  0  0  0  0
 21 24  1  1  0  0  0
 21  1  1  0  0  0  0
 22 23  1  0  0  0  0
 22 21  1  0  0  0  0
 23 27  1  6  0  0  0
 23 29  1  0  0  0  0
 23 21  1  0  0  0  0
 25 22  1  0  0  0  0
 26 22  1  0  0  0  0
 28 34  1  0  0  0  0
 29 28  2  0  0  0  0
 30 29  1  0  0  0  0
 30 32  2  0  0  0  0
 31 30  1  0  0  0  0
 32 33  1  0  0  0  0
 33 34  2  0  0  0  0
 33 35  1  0  0  0  0
 36 37  1  0  0  0  0
 36 35  1  0  0  0  0
 38 32  1  0  0  0  0
 38 36  1  0  0  0  0
M  END
>  <minimizedAffinity>
-5.72076178

$$$$

 OpenBabel03272507353D

 38 42  0  0  1  0  0  0  0  0999 V2000
   36.7710   27.1450   32.8220 C   0  0  0  0  0  0  0  0  0  0  0  0
   36.6550   27.1900   34.0870 O   0  0  0  0  0  0  0  0  0  0  0  0
   36.7430   23.8550   31.4230 C   0  0  0  0  0  0  0  0  0  0  0  0
   35.5400   24.3030   30.9250 C   0  0  0  0  0  0  0  0  0  0  0  0
   35.3630   25.6200   31.3790 C   0  0  0  0  0  0  0  0  0  0  0  0
   36.4870   25.8880   32.1340 C   0  0  0  0  0  0  0  0  0  0  0  0
   37.2650   24.8270   32.1310 O   0  0  0  0  0  0  0  0  0  0  0  0
   34.7950   23.8180   30.2940 H   0  0  0  0  0  0  0  0  0  0  0  0
   34.5490   26.3050   31.2040 H   0  0  0  0  0  0  0  0  0  0  0  0
   37.2470   22.5190   31.1450 C   0  0  0  0  0  0  0  0  0  0  0  0
   38.2120   22.3830   30.3810 O   0  0  0  0  0  0  0  0  0  0  0  0
   36.5790   21.4230   31.7890 C   0  0  0  0  0  0  0  0  0  0  0  0
   36.2580   20.3310   31.0030 C   0  0  0  0  0  0  0  0  0  0  0  0
   35.6030   19.2470   31.5990 C   0  0  0  0  0  0  0  0  0  0  0  0
   35.3150   19.3280   32.9400 N   0  0  0  0  0  0  0  0  0  0  0  0
   35.6400   20.3970   33.6670 C   0  0  0  0  0  0  0  0  0  0  0  0
   36.2670   21.4400   33.1030 N   0  0  0  0  0  0  0  0  0  0  0  0
   36.4760   20.2550   29.9570 H   0  0  0  0  0  0  0  0  0  0  0  0
   35.3480   18.3870   30.9880 H   0  0  0  0  0  0  0  0  0  0  0  0
   35.4170   20.4700   34.7230 H   0  0  0  0  0  0  0  0  0  0  0  0
   37.1800   28.3560   32.0640 C   0  0  1  0  0  0  0  0  0  0  0  0
   36.1340   28.6920   30.9280 C   0  0  0  0  0  0  0  0  0  0  0  0
   36.3940   29.5920   32.0490 C   0  0  1  0  0  0  0  0  0  0  0  0
   38.1810   28.2400   31.5850 H   0  0  0  0  0  0  0  0  0  0  0  0
   36.5580   28.9310   29.9330 H   0  0  0  0  0  0  0  0  0  0  0  0
   35.2610   28.0370   30.8530 H   0  0  0  0  0  0  0  0  0  0  0  0
   37.0550   30.4930   31.8240 H   0  0  0  0  0  0  0  0  0  0  0  0
   34.0590   29.4600   32.7600 C   0  0  0  0  0  3  0  0  0  0  0  0
   35.3470   29.9180   33.0410 C   0  0  0  0  0  0  0  0  0  0  0  0
   35.4810   30.6070   34.2270 C   0  0  0  0  0  0  0  0  0  0  0  0
   36.4680   30.9540   34.4640 H   0  0  0  0  0  0  0  0  0  0  0  0
   34.4050   30.8190   35.0620 C   0  0  0  0  0  0  0  0  0  0  0  0
   33.1450   30.3700   34.7810 C   0  0  0  0  0  0  0  0  0  0  0  0
   32.9640   29.6730   33.6040 C   0  0  0  0  0  3  0  0  0  0  0  0
   32.2890   30.7400   35.8060 O   0  0  0  0  0  0  0  0  0  0  0  0
   33.1080   31.1640   36.8790 C   0  0  0  0  0  3  0  0  0  0  0  0
   32.6710   32.0680   37.3110 H   0  0  0  0  0  0  0  0  0  0  0  0
   34.3670   31.4920   36.2900 O   0  0  0  0  0  0  0  0  0  0  0  0
  1  2  2  0  0  0  0
  3  7  1  0  0  0  0
  4  5  1  0  0  0  0
  4  3  2  0  0  0  0
  5  6  2  0  0  0  0
  6  1  1  0  0  0  0
  7  6  1  0  0  0  0
  8  4  1  0  0  0  0
  9  5  1  0  0  0  0
 10  3  1  0  0  0  0
 10 12  1  0  0  0  0
 11 10  2  0  0  0  0
 12 17  1  0  0  0  0
 13 14  1  0  0  0  0
 13 12  2  0  0  0  0
 14 15  2  0  0  0  0
 15 16  1  0  0  0  0
 16 20  1  0  0  0  0
 17 16  2  0  0  0  0
 18 13  1  0  0  0  0
 19 14  1  0  0  0  0
 21 24  1  6  0  0  0
 21  1  1  0  0  0  0
 22 23  1  0  0  0  0
 22 21  1  0  0  0  0
 23 27  1  6  0  0  0
 23 21  1  0  0  0  0
 23 29  1  0  0  0  0
 25 22  1  0  0  0  0
 26 22  1  0  0  0  0
 28 29  2  0  0  0  0
 28 34  1  0  0  0  0
 29 30  1  0  0  0  0
 30 31  1  0  0  0  0
 30 32  2  0  0  0  0
 32 38  1  0  0  0  0
 33 32  1  0  0  0  0
 33 35  1  0  0  0  0
 34 33  2  0  0  0  0
 35 36  1  0  0  0  0
 36 37  1  0  0  0  0
 38 36  1  0  0  0  0
M  END
>  <minimizedAffinity>
-5.68636322

$$$$

 OpenBabel03272507353D

 38 42  0  0  1  0  0  0  0  0999 V2000
   37.5140   26.1460   31.2960 C   0  0  0  0  0  0  0  0  0  0  0  0
   36.8020   25.0950   31.3500 O   0  0  0  0  0  0  0  0  0  0  0  0
   35.6030   29.1000   31.9280 C   0  0  0  0  0  0  0  0  0  0  0  0
   36.1430   29.4580   30.7130 C   0  0  0  0  0  0  0  0  0  0  0  0
   36.9520   28.3940   30.2850 C   0  0  0  0  0  0  0  0  0  0  0  0
   36.8490   27.4460   31.2840 C   0  0  0  0  0  0  0  0  0  0  0  0
   36.0490   27.9040   32.2240 O   0  0  0  0  0  0  0  0  0  0  0  0
   36.0320   30.3600   30.1120 H   0  0  0  0  0  0  0  0  0  0  0  0
   37.5410   28.2940   29.3880 H   0  0  0  0  0  0  0  0  0  0  0  0
   34.7050   29.9770   32.6650 C   0  0  0  0  0  0  0  0  0  0  0  0
   33.4850   29.9010   32.4630 O   0  0  0  0  0  0  0  0  0  0  0  0
   35.3050   30.8900   33.5970 C   0  0  0  0  0  0  0  0  0  0  0  0
   35.5100   30.4310   34.8860 C   0  0  0  0  0  0  0  0  0  0  0  0
   36.0890   31.2980   35.8200 C   0  0  0  0  0  0  0  0  0  0  0  0
   36.4230   32.5630   35.4030 N   0  0  0  0  0  0  0  0  0  0  0  0
   36.2110   32.9720   34.1520 C   0  0  0  0  0  0  0  0  0  0  0  0
   35.6560   32.1470   33.2510 N   0  0  0  0  0  0  0  0  0  0  0  0
   35.2540   29.4470   35.2250 H   0  0  0  0  0  0  0  0  0  0  0  0
   36.2540   30.9440   36.8330 H   0  0  0  0  0  0  0  0  0  0  0  0
   36.4700   33.9660   33.8140 H   0  0  0  0  0  0  0  0  0  0  0  0
   38.9960   26.0440   31.2550 C   0  0  1  0  0  0  0  0  0  0  0  0
   39.6670   27.3040   31.9350 C   0  0  0  0  0  0  0  0  0  0  0  0
   39.8220   25.9500   32.4610 C   0  0  1  0  0  0  0  0  0  0  0  0
   39.3880   25.9670   30.2140 H   0  0  0  0  0  0  0  0  0  0  0  0
   40.5050   27.7670   31.3780 H   0  0  0  0  0  0  0  0  0  0  0  0
   38.9920   28.0550   32.3560 H   0  0  0  0  0  0  0  0  0  0  0  0
   40.8150   25.4360   32.2350 H   0  0  0  0  0  0  0  0  0  0  0  0
   38.9550   26.6170   34.6460 C   0  0  0  0  0  3  0  0  0  0  0  0
   39.3030   25.5700   33.7920 C   0  0  0  0  0  0  0  0  0  0  0  0
   39.1000   24.3050   34.2990 C   0  0  0  0  0  0  0  0  0  0  0  0
   39.3520   23.4880   33.6500 H   0  0  0  0  0  0  0  0  0  0  0  0
   38.5890   24.1090   35.5640 C   0  0  0  0  0  0  0  0  0  0  0  0
   38.2500   25.1380   36.3970 C   0  0  0  0  0  0  0  0  0  0  0  0
   38.4350   26.4240   35.9310 C   0  0  0  0  0  3  0  0  0  0  0  0
   37.7700   24.6220   37.5890 O   0  0  0  0  0  0  0  0  0  0  0  0
   37.5300   23.2460   37.3630 C   0  0  0  0  0  3  0  0  0  0  0  0
   37.8880   22.6850   38.2300 H   0  0  0  0  0  0  0  0  0  0  0  0
   38.3230   22.9040   36.2260 O   0  0  0  0  0  0  0  0  0  0  0  0
  1  2  2  0  0  0  0
  3  7  1  0  0  0  0
  3 10  1  0  0  0  0
  4  3  2  0  0  0  0
  5  4  1  0  0  0  0
  5  6  2  0  0  0  0
  6  1  1  0  0  0  0
  6  7  1  0  0  0  0
  8  4  1  0  0  0  0
  9  5  1  0  0  0  0
 10 12  1  0  0  0  0
 11 10  2  0  0  0  0
 12 13  1  0  0  0  0
 13 18  1  0  0  0  0
 13 14  2  0  0  0  0
 14 19  1  0  0  0  0
 15 14  1  0  0  0  0
 16 15  2  0  0  0  0
 17 12  2  0  0  0  0
 17 16  1  0  0  0  0
 20 16  1  0  0  0  0
 21 24  1  6  0  0  0
 21  1  1  0  0  0  0
 21 22  1  0  0  0  0
 21 23  1  0  0  0  0
 22 26  1  0  0  0  0
 22 23  1  0  0  0  0
 23 27  1  6  0  0  0
 23 29  1  0  0  0  0
 25 22  1  0  0  0  0
 28 34  1  0  0  0  0
 29 30  1  0  0  0  0
 29 28  2  0  0  0  0
 30 32  2  0  0  0  0
 31 30  1  0  0  0  0
 32 38  1  0  0  0  0
 32 33  1  0  0  0  0
 33 35  1  0  0  0  0
 34 33  2  0  0  0  0
 36 35  1  0  0  0  0
 36 37  1  0  0  0  0
 38 36  1  0  0  0  0
M  END
>  <minimizedAffinity>
-5.6376977

$$$$
