
 OpenBabel03272505343D

 37 40  0  0  1  0  0  0  0  0999 V2000
   37.2690   31.0880   49.3480 C   0  0  0  0  0  0  0  0  0  0  0  0
   37.4060   32.3540   49.9060 C   0  0  0  0  0  0  0  0  0  0  0  0
   38.0890   33.3370   49.1520 C   0  0  0  0  0  0  0  0  0  0  0  0
   38.5770   32.9760   47.9150 N   0  0  0  0  0  0  0  0  0  0  0  0
   38.4150   31.7420   47.4320 C   0  0  0  0  0  0  0  0  0  0  0  0
   37.7720   30.8110   48.1350 N   0  0  0  0  0  0  0  0  0  0  0  0
   38.9550   31.4760   46.1490 N   0  0  0  0  0  0  0  0  0  0  0  0
   40.3130   30.9720   46.0310 C   0  0  0  0  0  0  0  0  0  0  0  0
   41.0680   31.6380   44.9120 C   0  0  0  0  0  0  0  0  0  0  0  0
   40.2990   31.7330   43.6990 N   0  0  0  0  0  0  0  0  0  0  0  0
   39.0080   31.1070   43.7770 C   0  0  0  0  0  0  0  0  0  0  0  0
   38.1930   31.6880   44.9220 C   0  0  1  0  0  0  0  0  0  0  0  0
   37.0000   32.5770   50.8820 H   0  0  0  0  0  0  0  0  0  0  0  0
   38.2180   34.3360   49.5480 H   0  0  0  0  0  0  0  0  0  0  0  0
   40.8850   31.1650   46.9640 H   0  0  0  0  0  0  0  0  0  0  0  0
   40.2410   29.8830   45.8360 H   0  0  0  0  0  0  0  0  0  0  0  0
   41.9220   30.9400   44.6780 H   0  0  0  0  0  0  0  0  0  0  0  0
   41.5510   32.5860   45.2100 H   0  0  0  0  0  0  0  0  0  0  0  0
   40.1210   32.7620   43.5350 H   0  0  0  0  0  0  0  0  0  0  0  0
   38.4990   31.2600   42.8160 H   0  0  0  0  0  0  0  0  0  0  0  0
   39.1600   30.0140   43.9320 H   0  0  0  0  0  0  0  0  0  0  0  0
   38.1220   32.7750   44.7090 H   0  0  0  0  0  0  0  0  0  0  0  0
   35.9910   31.1690   43.8850 C   0  0  0  0  0  0  0  0  0  0  0  0
   36.8500   31.0930   44.9530 C   0  0  0  0  0  0  0  0  0  0  0  0
   36.3650   30.4140   46.0680 C   0  0  0  0  0  0  0  0  0  0  0  0
   37.0230   30.3370   46.9330 H   0  0  0  0  0  0  0  0  0  0  0  0
   35.1130   29.8580   46.0980 C   0  0  0  0  0  0  0  0  0  0  0  0
   34.2670   29.9550   44.9930 C   0  0  0  0  0  0  0  0  0  0  0  0
   34.7100   30.6180   43.8730 C   0  0  0  0  0  0  0  0  0  0  0  0
   33.0890   29.3050   45.3240 O   0  0  0  0  0  0  0  0  0  0  0  0
   33.0190   29.1680   46.7390 C   0  0  0  0  0  0  0  0  0  0  0  0
   32.5650   30.0530   47.2090 H   0  0  0  0  0  0  0  0  0  0  0  0
   34.4000   29.1450   47.0600 O   0  0  0  0  0  0  0  0  0  0  0  0
   36.5480   30.0450   50.1380 C   0  0  0  0  0  0  0  0  0  0  0  0
   35.1800   30.3370   50.1520 F   0  0  0  0  0  0  0  0  0  0  0  0
   36.8340   28.8320   49.6130 F   0  0  0  0  0  0  0  0  0  0  0  0
   36.9660   30.1730   51.4600 F   0  0  0  0  0  0  0  0  0  0  0  0
  1  2  1  0  0  0  0
  1 34  1  0  0  0  0
  2 13  1  0  0  0  0
  3 14  1  0  0  0  0
  3  2  2  0  0  0  0
  4  3  1  0  0  0  0
  5  4  2  0  0  0  0
  5  6  1  0  0  0  0
  6  1  2  0  0  0  0
  7  5  1  0  0  0  0
  8  7  1  0  0  0  0
  8 15  1  0  0  0  0
  9 18  1  0  0  0  0
  9  8  1  0  0  0  0
 10 11  1  0  0  0  0
 10  9  1  0  0  0  0
 11 21  1  0  0  0  0
 11 12  1  0  0  0  0
 12 22  1  6  0  0  0
 12 24  1  0  0  0  0
 12  7  1  0  0  0  0
 16  8  1  0  0  0  0
 17  9  1  0  0  0  0
 19 10  1  0  0  0  0
 20 11  1  0  0  0  0
 23 24  1  0  0  0  0
 24 25  2  0  0  0  0
 25 27  1  0  0  0  0
 25 26  1  0  0  0  0
 27 33  1  0  0  0  0
 28 30  1  0  0  0  0
 28 27  2  0  0  0  0
 29 23  2  0  0  0  0
 29 28  1  0  0  0  0
 30 31  1  0  0  0  0
 31 33  1  0  0  0  0
 31 32  1  0  0  0  0
 34 35  1  0  0  0  0
 34 37  1  0  0  0  0
 36 34  1  0  0  0  0
M  END
>  <minimizedAffinity>
-6.6196208

>  <minimizedRMSD>
1.33571482

$$$$
