
 OpenBabel03272507333D

 38 42  0  0  1  0  0  0  0  0999 V2000
   33.0010   27.7410   48.5180 C   0  0  0  0  0  0  0  0  0  0  0  0
   31.8510   27.5950   49.0390 O   0  0  0  0  0  0  0  0  0  0  0  0
   35.9410   29.3140   49.8060 C   0  0  0  0  0  0  0  0  0  0  0  0
   35.0100   29.9090   50.6270 C   0  0  0  0  0  0  0  0  0  0  0  0
   33.7500   29.4070   50.2650 C   0  0  0  0  0  0  0  0  0  0  0  0
   34.0040   28.5260   49.2330 C   0  0  0  0  0  0  0  0  0  0  0  0
   35.2990   28.5050   49.0000 O   0  0  0  0  0  0  0  0  0  0  0  0
   35.1180   30.6390   51.4300 H   0  0  0  0  0  0  0  0  0  0  0  0
   32.7770   29.6300   50.6720 H   0  0  0  0  0  0  0  0  0  0  0  0
   37.3630   29.6060   49.9080 C   0  0  0  0  0  0  0  0  0  0  0  0
   38.0540   28.9760   50.7200 O   0  0  0  0  0  0  0  0  0  0  0  0
   37.8830   30.6260   49.0400 C   0  0  0  0  0  0  0  0  0  0  0  0
   38.2230   31.8340   49.6200 C   0  0  0  0  0  0  0  0  0  0  0  0
   38.7300   32.8500   48.8020 C   0  0  0  0  0  0  0  0  0  0  0  0
   38.8620   32.5890   47.4600 N   0  0  0  0  0  0  0  0  0  0  0  0
   38.5240   31.4110   46.9340 C   0  0  0  0  0  0  0  0  0  0  0  0
   38.0370   30.4320   47.7130 N   0  0  0  0  0  0  0  0  0  0  0  0
   38.1250   32.0510   50.6650 H   0  0  0  0  0  0  0  0  0  0  0  0
   38.9990   33.8010   49.2510 H   0  0  0  0  0  0  0  0  0  0  0  0
   38.6240   31.1960   45.8790 H   0  0  0  0  0  0  0  0  0  0  0  0
   33.3130   27.1140   47.2070 C   0  0  1  0  0  0  0  0  0  0  0  0
   32.3310   25.9120   46.9070 C   0  0  0  0  0  0  0  0  0  0  0  0
   32.3780   27.1150   46.0800 C   0  0  1  0  0  0  0  0  0  0  0  0
   34.3570   26.7240   47.1600 H   0  0  0  0  0  0  0  0  0  0  0  0
   32.8030   24.9810   46.5360 H   0  0  0  0  0  0  0  0  0  0  0  0
   31.5590   25.7090   47.6560 H   0  0  0  0  0  0  0  0  0  0  0  0
   32.9340   27.0190   45.0890 H   0  0  0  0  0  0  0  0  0  0  0  0
   31.4930   29.3360   45.5770 C   0  0  0  0  0  3  0  0  0  0  0  0
   31.2180   28.0250   45.9680 C   0  0  0  0  0  0  0  0  0  0  0  0
   29.8870   27.7440   46.1860 C   0  0  0  0  0  0  0  0  0  0  0  0
   29.6580   26.7370   46.4770 H   0  0  0  0  0  0  0  0  0  0  0  0
   28.9120   28.7050   46.0250 C   0  0  0  0  0  0  0  0  0  0  0  0
   29.1870   29.9860   45.6420 C   0  0  0  0  0  0  0  0  0  0  0  0
   30.5060   30.3150   45.4110 C   0  0  0  0  0  3  0  0  0  0  0  0
   28.0040   30.7050   45.5690 O   0  0  0  0  0  0  0  0  0  0  0  0
   26.9540   29.7570   45.6190 C   0  0  0  0  0  3  0  0  0  0  0  0
   26.1740   30.1390   46.2790 H   0  0  0  0  0  0  0  0  0  0  0  0
   27.5280   28.5880   46.2040 O   0  0  0  0  0  0  0  0  0  0  0  0
  1  2  2  0  0  0  0
  1  6  1  0  0  0  0
  3 10  1  0  0  0  0
  3  4  2  0  0  0  0
  4  8  1  0  0  0  0
  5  4  1  0  0  0  0
  5  9  1  0  0  0  0
  6  5  2  0  0  0  0
  7  6  1  0  0  0  0
  7  3  1  0  0  0  0
 10 11  2  0  0  0  0
 12 13  1  0  0  0  0
 12 10  1  0  0  0  0
 13 18  1  0  0  0  0
 14 19  1  0  0  0  0
 14 13  2  0  0  0  0
 15 14  1  0  0  0  0
 16 15  2  0  0  0  0
 16 17  1  0  0  0  0
 17 12  2  0  0  0  0
 20 16  1  0  0  0  0
 21 24  1  6  0  0  0
 21  1  1  0  0  0  0
 22 21  1  0  0  0  0
 22 26  1  0  0  0  0
 23 27  1  6  0  0  0
 23 22  1  0  0  0  0
 23 21  1  0  0  0  0
 25 22  1  0  0  0  0
 28 29  1  0  0  0  0
 29 23  1  0  0  0  0
 29 30  2  0  0  0  0
 30 31  1  0  0  0  0
 32 30  1  0  0  0  0
 32 38  1  0  0  0  0
 33 32  2  0  0  0  0
 34 28  2  0  0  0  0
 34 33  1  0  0  0  0
 35 36  1  0  0  0  0
 35 33  1  0  0  0  0
 36 38  1  0  0  0  0
 36 37  1  0  0  0  0
M  END
>  <minimizedAffinity>
-5.54195261

>  <minimizedRMSD>
2.73886895

$$$$
