
 OpenBabel03272505073D

 35 38  0  0  1  0  0  0  0  0999 V2000
   35.7790   23.5930   31.1700 C   0  0  0  0  0  0  0  0  0  0  0  0
   35.5240   24.9270   31.4820 C   0  0  0  0  0  0  0  0  0  0  0  0
   36.6460   25.7050   31.8060 C   0  0  0  0  0  0  0  0  0  0  0  0
   37.8640   25.1280   31.7960 N   0  0  0  0  0  0  0  0  0  0  0  0
   38.0500   23.8380   31.4880 C   0  0  0  0  0  0  0  0  0  0  0  0
   37.0030   23.0620   31.1720 N   0  0  0  0  0  0  0  0  0  0  0  0
   36.6330   27.0900   32.1710 N   0  0  0  0  0  0  0  0  0  0  0  0
   35.8990   28.1030   31.4770 C   0  0  0  0  0  0  0  0  0  0  0  0
   35.1420   29.0720   32.2950 C   0  0  0  0  0  0  0  0  0  0  0  0
   35.7680   29.4830   33.5850 C   0  0  0  0  0  0  0  0  0  0  0  0
   36.3140   28.2590   34.2700 C   0  0  0  0  0  0  0  0  0  0  0  0
   37.3430   27.6730   33.2750 C   0  0  1  0  0  0  0  0  0  0  0  0
   34.8580   23.0480   30.9280 H   0  0  0  0  0  0  0  0  0  0  0  0
   34.5890   25.4410   31.5070 H   0  0  0  0  0  0  0  0  0  0  0  0
   39.0120   23.3450   31.4700 H   0  0  0  0  0  0  0  0  0  0  0  0
   35.2080   27.5980   30.7660 H   0  0  0  0  0  0  0  0  0  0  0  0
   36.6500   28.6340   30.8240 H   0  0  0  0  0  0  0  0  0  0  0  0
   34.9940   30.0010   31.6850 H   0  0  0  0  0  0  0  0  0  0  0  0
   34.1200   28.6840   32.5080 H   0  0  0  0  0  0  0  0  0  0  0  0
   36.6550   30.1320   33.3660 H   0  0  0  0  0  0  0  0  0  0  0  0
   35.0110   30.0190   34.1870 H   0  0  0  0  0  0  0  0  0  0  0  0
   35.4650   27.5320   34.3260 H   0  0  0  0  0  0  0  0  0  0  0  0
   36.7660   28.4390   35.2510 H   0  0  0  0  0  0  0  0  0  0  0  0
   38.0710   28.4540   33.0040 H   0  0  0  0  0  0  0  0  0  0  0  0
   39.4250   26.3930   33.9880 C   0  0  0  0  0  3  0  0  0  0  0  0
   38.0770   26.6560   34.1110 C   0  0  0  0  0  0  0  0  0  0  0  0
   37.3990   25.9090   35.0790 C   0  0  0  0  0  0  0  0  0  0  0  0
   36.3470   26.1030   35.1860 H   0  0  0  0  0  0  0  0  0  0  0  0
   37.9950   24.9700   35.8740 C   0  0  0  0  0  0  0  0  0  0  0  0
   39.3470   24.7360   35.7220 C   0  0  0  0  0  0  0  0  0  0  0  0
   40.0530   25.4510   34.7770 C   0  0  0  0  0  3  0  0  0  0  0  0
   39.7060   23.7370   36.6470 O   0  0  0  0  0  0  0  0  0  0  0  0
   38.4980   23.0090   36.8980 C   0  0  0  0  0  3  0  0  0  0  0  0
   38.3050   22.3670   35.9950 H   0  0  0  0  0  0  0  0  0  0  0  0
   37.5790   24.1110   36.8820 O   0  0  0  0  0  0  0  0  0  0  0  0
  1  6  2  0  0  0  0
  1  2  1  0  0  0  0
  2 14  1  0  0  0  0
  2  3  2  0  0  0  0
  3  7  1  0  0  0  0
  4  3  1  0  0  0  0
  5  4  2  0  0  0  0
  6  5  1  0  0  0  0
  7 12  1  0  0  0  0
  8  7  1  0  0  0  0
  8  9  1  0  0  0  0
  9 19  1  0  0  0  0
  9 10  1  0  0  0  0
 10 21  1  0  0  0  0
 10 11  1  0  0  0  0
 11 22  1  0  0  0  0
 11 23  1  0  0  0  0
 12 24  1  6  0  0  0
 12 26  1  0  0  0  0
 12 11  1  0  0  0  0
 13  1  1  0  0  0  0
 15  5  1  0  0  0  0
 16  8  1  0  0  0  0
 17  8  1  0  0  0  0
 18  9  1  0  0  0  0
 20 10  1  0  0  0  0
 25 26  2  0  0  0  0
 25 31  1  0  0  0  0
 26 27  1  0  0  0  0
 27 28  1  0  0  0  0
 27 29  2  0  0  0  0
 29 35  1  0  0  0  0
 30 29  1  0  0  0  0
 30 32  1  0  0  0  0
 31 30  2  0  0  0  0
 32 33  1  0  0  0  0
 34 33  1  0  0  0  0
 35 33  1  0  0  0  0
M  END
>  <minimizedAffinity>
-5.5535965

$$$$

 OpenBabel03272505073D

 35 38  0  0  1  0  0  0  0  0999 V2000
   42.7370   25.9310   34.2530 C   0  0  0  0  0  0  0  0  0  0  0  0
   42.0560   25.2100   35.2320 C   0  0  0  0  0  0  0  0  0  0  0  0
   40.7900   24.7250   34.8650 C   0  0  0  0  0  0  0  0  0  0  0  0
   40.3300   24.9810   33.6250 N   0  0  0  0  0  0  0  0  0  0  0  0
   41.0300   25.6810   32.7230 C   0  0  0  0  0  0  0  0  0  0  0  0
   42.2420   26.1610   33.0360 N   0  0  0  0  0  0  0  0  0  0  0  0
   39.9030   23.9730   35.7010 N   0  0  0  0  0  0  0  0  0  0  0  0
   40.3000   22.8620   36.5110 C   0  0  0  0  0  0  0  0  0  0  0  0
   39.7830   22.8130   37.8930 C   0  0  0  0  0  0  0  0  0  0  0  0
   38.3940   23.3120   38.1000 C   0  0  0  0  0  0  0  0  0  0  0  0
   38.2180   24.5930   37.3300 C   0  0  0  0  0  0  0  0  0  0  0  0
   38.4950   24.2110   35.8560 C   0  0  1  0  0  0  0  0  0  0  0  0
   43.7150   26.2780   34.6090 H   0  0  0  0  0  0  0  0  0  0  0  0
   42.3650   24.9740   36.2260 H   0  0  0  0  0  0  0  0  0  0  0  0
   40.6890   25.9030   31.7210 H   0  0  0  0  0  0  0  0  0  0  0  0
   41.4130   22.8330   36.5280 H   0  0  0  0  0  0  0  0  0  0  0  0
   39.9940   21.9390   35.9380 H   0  0  0  0  0  0  0  0  0  0  0  0
   39.8100   21.7460   38.2360 H   0  0  0  0  0  0  0  0  0  0  0  0
   40.4630   23.3680   38.5800 H   0  0  0  0  0  0  0  0  0  0  0  0
   37.6760   22.5810   37.6460 H   0  0  0  0  0  0  0  0  0  0  0  0
   38.2210   23.4290   39.1860 H   0  0  0  0  0  0  0  0  0  0  0  0
   39.0540   25.2650   37.6530 H   0  0  0  0  0  0  0  0  0  0  0  0
   37.2410   25.0710   37.4400 H   0  0  0  0  0  0  0  0  0  0  0  0
   37.8430   23.3700   35.5720 H   0  0  0  0  0  0  0  0  0  0  0  0
   38.0550   26.7050   35.5990 C   0  0  0  0  0  3  0  0  0  0  0  0
   38.0110   25.4200   35.0990 C   0  0  0  0  0  0  0  0  0  0  0  0
   37.4760   25.2870   33.8130 C   0  0  0  0  0  0  0  0  0  0  0  0
   37.4340   24.2920   33.4110 H   0  0  0  0  0  0  0  0  0  0  0  0
   37.0170   26.3360   33.0670 C   0  0  0  0  0  0  0  0  0  0  0  0
   37.0790   27.6070   33.6010 C   0  0  0  0  0  0  0  0  0  0  0  0
   37.5990   27.7820   34.8670 C   0  0  0  0  0  3  0  0  0  0  0  0
   36.5500   28.4920   32.6420 O   0  0  0  0  0  0  0  0  0  0  0  0
   35.6730   27.6920   31.8400 C   0  0  0  0  0  3  0  0  0  0  0  0
   34.7480   27.5010   32.4500 H   0  0  0  0  0  0  0  0  0  0  0  0
   36.4560   26.4890   31.8060 O   0  0  0  0  0  0  0  0  0  0  0  0
  1 13  1  0  0  0  0
  1  2  1  0  0  0  0
  2 14  1  0  0  0  0
  3  2  2  0  0  0  0
  3  7  1  0  0  0  0
  4  3  1  0  0  0  0
  5  6  1  0  0  0  0
  5  4  2  0  0  0  0
  6  1  2  0  0  0  0
  7 12  1  0  0  0  0
  7  8  1  0  0  0  0
  8 16  1  0  0  0  0
  8  9  1  0  0  0  0
  9 10  1  0  0  0  0
  9 18  1  0  0  0  0
  9 19  1  0  0  0  0
 10 21  1  0  0  0  0
 11 23  1  0  0  0  0
 11 22  1  0  0  0  0
 11 10  1  0  0  0  0
 12 24  1  6  0  0  0
 12 11  1  0  0  0  0
 15  5  1  0  0  0  0
 17  8  1  0  0  0  0
 20 10  1  0  0  0  0
 26 25  1  0  0  0  0
 26 12  1  0  0  0  0
 27 26  2  0  0  0  0
 28 27  1  0  0  0  0
 29 30  2  0  0  0  0
 29 27  1  0  0  0  0
 30 31  1  0  0  0  0
 31 25  2  0  0  0  0
 32 30  1  0  0  0  0
 33 34  1  0  0  0  0
 33 32  1  0  0  0  0
 35 33  1  0  0  0  0
 35 29  1  0  0  0  0
M  END
>  <minimizedAffinity>
-5.46584272

$$$$

 OpenBabel03272505073D

 35 38  0  0  1  0  0  0  0  0999 V2000
   31.0270   28.3310   35.2180 C   0  0  0  0  0  0  0  0  0  0  0  0
   31.6820   29.4050   35.8190 C   0  0  0  0  0  0  0  0  0  0  0  0
   32.4310   30.2240   34.9580 C   0  0  0  0  0  0  0  0  0  0  0  0
   32.4660   29.9270   33.6440 N   0  0  0  0  0  0  0  0  0  0  0  0
   31.8160   28.8800   33.1210 C   0  0  0  0  0  0  0  0  0  0  0  0
   31.0900   28.0750   33.9110 N   0  0  0  0  0  0  0  0  0  0  0  0
   33.1960   31.3720   35.3440 N   0  0  0  0  0  0  0  0  0  0  0  0
   32.7250   32.4020   36.2180 C   0  0  0  0  0  0  0  0  0  0  0  0
   33.6490   32.8710   37.2710 C   0  0  0  0  0  0  0  0  0  0  0  0
   35.0940   32.9280   36.9080 C   0  0  0  0  0  0  0  0  0  0  0  0
   35.4570   31.6720   36.1630 C   0  0  0  0  0  0  0  0  0  0  0  0
   34.5360   31.6670   34.9200 C   0  0  1  0  0  0  0  0  0  0  0  0
   30.4640   27.7370   35.9480 H   0  0  0  0  0  0  0  0  0  0  0  0
   31.6930   29.6920   36.8460 H   0  0  0  0  0  0  0  0  0  0  0  0
   31.8230   28.6160   32.0730 H   0  0  0  0  0  0  0  0  0  0  0  0
   31.7790   32.0470   36.6850 H   0  0  0  0  0  0  0  0  0  0  0  0
   32.4170   33.2560   35.5490 H   0  0  0  0  0  0  0  0  0  0  0  0
   33.3380   33.9060   37.5700 H   0  0  0  0  0  0  0  0  0  0  0  0
   33.5400   32.2470   38.1880 H   0  0  0  0  0  0  0  0  0  0  0  0
   35.2510   33.7690   36.1840 H   0  0  0  0  0  0  0  0  0  0  0  0
   35.6820   33.0730   37.8330 H   0  0  0  0  0  0  0  0  0  0  0  0
   35.1290   30.8220   36.8140 H   0  0  0  0  0  0  0  0  0  0  0  0
   36.5100   31.5890   35.8790 H   0  0  0  0  0  0  0  0  0  0  0  0
   34.6570   32.6170   34.3760 H   0  0  0  0  0  0  0  0  0  0  0  0
   35.6330   29.3990   34.5580 C   0  0  0  0  0  3  0  0  0  0  0  0
   35.1370   30.5860   34.0610 C   0  0  0  0  0  0  0  0  0  0  0  0
   35.2230   30.7440   32.6740 C   0  0  0  0  0  0  0  0  0  0  0  0
   34.8410   31.6640   32.2710 H   0  0  0  0  0  0  0  0  0  0  0  0
   35.7560   29.8090   31.8310 C   0  0  0  0  0  0  0  0  0  0  0  0
   36.2410   28.6340   32.3670 C   0  0  0  0  0  0  0  0  0  0  0  0
   36.1760   28.4370   33.7310 C   0  0  0  0  0  3  0  0  0  0  0  0
   36.7270   27.8550   31.2990 O   0  0  0  0  0  0  0  0  0  0  0  0
   37.0520   28.7950   30.2690 C   0  0  0  0  0  3  0  0  0  0  0  0
   38.0060   29.3070   30.5770 H   0  0  0  0  0  0  0  0  0  0  0  0
   35.9600   29.7070   30.4610 O   0  0  0  0  0  0  0  0  0  0  0  0
  1  2  1  0  0  0  0
  1 13  1  0  0  0  0
  2 14  1  0  0  0  0
  3  7  1  0  0  0  0
  3  2  2  0  0  0  0
  4  3  1  0  0  0  0
  5  4  2  0  0  0  0
  5  6  1  0  0  0  0
  6  1  2  0  0  0  0
  7  8  1  0  0  0  0
  8 16  1  0  0  0  0
  8  9  1  0  0  0  0
  9 18  1  0  0  0  0
  9 19  1  0  0  0  0
 10  9  1  0  0  0  0
 10 21  1  0  0  0  0
 11 22  1  0  0  0  0
 11 10  1  0  0  0  0
 12 24  1  6  0  0  0
 12  7  1  0  0  0  0
 12 11  1  0  0  0  0
 15  5  1  0  0  0  0
 17  8  1  0  0  0  0
 20 10  1  0  0  0  0
 23 11  1  0  0  0  0
 26 25  1  0  0  0  0
 26 12  1  0  0  0  0
 27 26  2  0  0  0  0
 28 27  1  0  0  0  0
 29 30  2  0  0  0  0
 29 27  1  0  0  0  0
 30 31  1  0  0  0  0
 31 25  2  0  0  0  0
 32 30  1  0  0  0  0
 33 35  1  0  0  0  0
 33 34  1  0  0  0  0
 33 32  1  0  0  0  0
 35 29  1  0  0  0  0
M  END
>  <minimizedAffinity>
-5.4192338

$$$$

 OpenBabel03272505073D

 35 38  0  0  1  0  0  0  0  0999 V2000
   36.3950   27.3370   31.1580 C   0  0  0  0  0  0  0  0  0  0  0  0
   37.7680   27.5770   31.1520 C   0  0  0  0  0  0  0  0  0  0  0  0
   38.5680   26.5700   31.7160 C   0  0  0  0  0  0  0  0  0  0  0  0
   37.9730   25.4670   32.2110 N   0  0  0  0  0  0  0  0  0  0  0  0
   36.6470   25.2890   32.1900 C   0  0  0  0  0  0  0  0  0  0  0  0
   35.8490   26.2280   31.6600 N   0  0  0  0  0  0  0  0  0  0  0  0
   39.9950   26.5980   31.8340 N   0  0  0  0  0  0  0  0  0  0  0  0
   40.8880   26.9780   30.7820 C   0  0  0  0  0  0  0  0  0  0  0  0
   41.9980   27.8870   31.1320 C   0  0  0  0  0  0  0  0  0  0  0  0
   42.6120   27.6970   32.4770 C   0  0  0  0  0  0  0  0  0  0  0  0
   41.5150   27.5070   33.4900 C   0  0  0  0  0  0  0  0  0  0  0  0
   40.7450   26.2530   33.0090 C   0  0  1  0  0  0  0  0  0  0  0  0
   35.8350   28.1630   30.7040 H   0  0  0  0  0  0  0  0  0  0  0  0
   38.2970   28.4240   30.7770 H   0  0  0  0  0  0  0  0  0  0  0  0
   36.1390   24.4170   32.5780 H   0  0  0  0  0  0  0  0  0  0  0  0
   40.2810   27.4300   29.9660 H   0  0  0  0  0  0  0  0  0  0  0  0
   41.2830   26.0130   30.3510 H   0  0  0  0  0  0  0  0  0  0  0  0
   42.8110   27.7520   30.3710 H   0  0  0  0  0  0  0  0  0  0  0  0
   41.6730   28.9490   31.0410 H   0  0  0  0  0  0  0  0  0  0  0  0
   43.1960   26.7400   32.4760 H   0  0  0  0  0  0  0  0  0  0  0  0
   43.2600   28.5670   32.6930 H   0  0  0  0  0  0  0  0  0  0  0  0
   40.8240   28.3790   33.3640 H   0  0  0  0  0  0  0  0  0  0  0  0
   41.8520   27.3950   34.5240 H   0  0  0  0  0  0  0  0  0  0  0  0
   41.4540   25.4190   32.8860 H   0  0  0  0  0  0  0  0  0  0  0  0
   39.2010   26.8660   34.9380 C   0  0  0  0  0  3  0  0  0  0  0  0
   39.8740   25.9200   34.1920 C   0  0  0  0  0  0  0  0  0  0  0  0
   39.7050   24.5930   34.6010 C   0  0  0  0  0  0  0  0  0  0  0  0
   40.2240   23.8450   34.0310 H   0  0  0  0  0  0  0  0  0  0  0  0
   38.9330   24.2150   35.6640 C   0  0  0  0  0  0  0  0  0  0  0  0
   38.2740   25.1900   36.3840 C   0  0  0  0  0  0  0  0  0  0  0  0
   38.4140   26.5120   36.0150 C   0  0  0  0  0  3  0  0  0  0  0  0
   37.5590   24.5430   37.4100 O   0  0  0  0  0  0  0  0  0  0  0  0
   38.2570   23.3130   37.6330 C   0  0  0  0  0  3  0  0  0  0  0  0
   39.2000   23.5640   38.1920 H   0  0  0  0  0  0  0  0  0  0  0  0
   38.5970   23.0120   36.2710 O   0  0  0  0  0  0  0  0  0  0  0  0
  1  6  1  0  0  0  0
  2  1  2  0  0  0  0
  2  3  1  0  0  0  0
  3  7  1  0  0  0  0
  3  4  2  0  0  0  0
  5  4  1  0  0  0  0
  5 15  1  0  0  0  0
  6  5  2  0  0  0  0
  7 12  1  0  0  0  0
  8  9  1  0  0  0  0
  8  7  1  0  0  0  0
  9 10  1  0  0  0  0
 10 21  1  0  0  0  0
 10 11  1  0  0  0  0
 11 23  1  0  0  0  0
 12 24  1  6  0  0  0
 12 11  1  0  0  0  0
 12 26  1  0  0  0  0
 13  1  1  0  0  0  0
 14  2  1  0  0  0  0
 16  8  1  0  0  0  0
 17  8  1  0  0  0  0
 18  9  1  0  0  0  0
 19  9  1  0  0  0  0
 20 10  1  0  0  0  0
 22 11  1  0  0  0  0
 25 31  1  0  0  0  0
 26 27  1  0  0  0  0
 26 25  2  0  0  0  0
 27 29  2  0  0  0  0
 28 27  1  0  0  0  0
 29 35  1  0  0  0  0
 29 30  1  0  0  0  0
 30 32  1  0  0  0  0
 31 30  2  0  0  0  0
 32 33  1  0  0  0  0
 33 34  1  0  0  0  0
 35 33  1  0  0  0  0
M  END
>  <minimizedAffinity>
-5.29259157

$$$$

 OpenBabel03272505073D

 35 38  0  0  1  0  0  0  0  0999 V2000
   39.2730   22.1270   33.9940 C   0  0  0  0  0  0  0  0  0  0  0  0
   40.4100   22.9330   33.9710 C   0  0  0  0  0  0  0  0  0  0  0  0
   40.3480   24.1010   34.7470 C   0  0  0  0  0  0  0  0  0  0  0  0
   39.2250   24.3600   35.4460 N   0  0  0  0  0  0  0  0  0  0  0  0
   38.1600   23.5480   35.4310 C   0  0  0  0  0  0  0  0  0  0  0  0
   38.1810   22.4230   34.7010 N   0  0  0  0  0  0  0  0  0  0  0  0
   41.3810   25.0850   34.8700 N   0  0  0  0  0  0  0  0  0  0  0  0
   42.7620   24.7850   35.0950 C   0  0  0  0  0  0  0  0  0  0  0  0
   43.7550   25.5210   34.2870 C   0  0  0  0  0  0  0  0  0  0  0  0
   43.4340   26.9440   33.9770 C   0  0  0  0  0  0  0  0  0  0  0  0
   41.9890   27.0380   33.5700 C   0  0  0  0  0  0  0  0  0  0  0  0
   41.1980   26.5080   34.7890 C   0  0  1  0  0  0  0  0  0  0  0  0
   39.3930   21.2360   33.3670 H   0  0  0  0  0  0  0  0  0  0  0  0
   41.3240   22.7840   33.4430 H   0  0  0  0  0  0  0  0  0  0  0  0
   37.2450   23.7260   35.9800 H   0  0  0  0  0  0  0  0  0  0  0  0
   42.9020   23.6910   34.9500 H   0  0  0  0  0  0  0  0  0  0  0  0
   42.9380   24.9580   36.1970 H   0  0  0  0  0  0  0  0  0  0  0  0
   44.7300   25.5110   34.8410 H   0  0  0  0  0  0  0  0  0  0  0  0
   43.9470   24.9870   33.3290 H   0  0  0  0  0  0  0  0  0  0  0  0
   43.5280   27.5490   34.9160 H   0  0  0  0  0  0  0  0  0  0  0  0
   44.1330   27.2980   33.1950 H   0  0  0  0  0  0  0  0  0  0  0  0
   41.8510   26.2940   32.7450 H   0  0  0  0  0  0  0  0  0  0  0  0
   41.6520   28.0380   33.2810 H   0  0  0  0  0  0  0  0  0  0  0  0
   41.4960   27.0710   35.6870 H   0  0  0  0  0  0  0  0  0  0  0  0
   38.8500   27.2590   35.4240 C   0  0  0  0  0  3  0  0  0  0  0  0
   39.7810   26.9050   34.4690 C   0  0  0  0  0  0  0  0  0  0  0  0
   39.3320   26.9340   33.1450 C   0  0  0  0  0  0  0  0  0  0  0  0
   40.0460   26.6610   32.3890 H   0  0  0  0  0  0  0  0  0  0  0  0
   38.0620   27.2830   32.7780 C   0  0  0  0  0  0  0  0  0  0  0  0
   37.1600   27.6310   33.7620 C   0  0  0  0  0  0  0  0  0  0  0  0
   37.5610   27.6160   35.0810 C   0  0  0  0  0  3  0  0  0  0  0  0
   35.9430   27.9420   33.1240 O   0  0  0  0  0  0  0  0  0  0  0  0
   35.9770   27.2250   31.8850 C   0  0  0  0  0  3  0  0  0  0  0  0
   35.7910   26.1420   32.1240 H   0  0  0  0  0  0  0  0  0  0  0  0
   37.3690   27.3950   31.5790 O   0  0  0  0  0  0  0  0  0  0  0  0
  1  6  1  0  0  0  0
  2  1  2  0  0  0  0
  2  3  1  0  0  0  0
  3  7  1  0  0  0  0
  3  4  2  0  0  0  0
  5  4  1  0  0  0  0
  5 15  1  0  0  0  0
  6  5  2  0  0  0  0
  7  8  1  0  0  0  0
  8 17  1  0  0  0  0
  9 18  1  0  0  0  0
  9  8  1  0  0  0  0
 10  9  1  0  0  0  0
 10 20  1  0  0  0  0
 11 10  1  0  0  0  0
 11 12  1  0  0  0  0
 12  7  1  0  0  0  0
 12 24  1  1  0  0  0
 13  1  1  0  0  0  0
 14  2  1  0  0  0  0
 16  8  1  0  0  0  0
 19  9  1  0  0  0  0
 21 10  1  0  0  0  0
 22 11  1  0  0  0  0
 23 11  1  0  0  0  0
 26 12  1  0  0  0  0
 26 25  2  0  0  0  0
 27 26  1  0  0  0  0
 28 27  1  0  0  0  0
 29 27  2  0  0  0  0
 29 30  1  0  0  0  0
 30 31  2  0  0  0  0
 31 25  1  0  0  0  0
 32 30  1  0  0  0  0
 33 34  1  0  0  0  0
 33 32  1  0  0  0  0
 35 33  1  0  0  0  0
 35 29  1  0  0  0  0
M  END
>  <minimizedAffinity>
-5.28352261

$$$$

 OpenBabel03272505073D

 35 38  0  0  1  0  0  0  0  0999 V2000
   41.9860   26.5710   32.2510 C   0  0  0  0  0  0  0  0  0  0  0  0
   40.6990   26.7750   31.7590 C   0  0  0  0  0  0  0  0  0  0  0  0
   39.6980   26.9680   32.7240 C   0  0  0  0  0  0  0  0  0  0  0  0
   40.0370   26.9440   34.0280 N   0  0  0  0  0  0  0  0  0  0  0  0
   41.2940   26.7430   34.4450 C   0  0  0  0  0  0  0  0  0  0  0  0
   42.2770   26.5550   33.5530 N   0  0  0  0  0  0  0  0  0  0  0  0
   38.3060   27.1810   32.4610 N   0  0  0  0  0  0  0  0  0  0  0  0
   37.7980   28.0930   31.4820 C   0  0  0  0  0  0  0  0  0  0  0  0
   36.7010   27.6140   30.6160 C   0  0  0  0  0  0  0  0  0  0  0  0
   35.7010   26.7090   31.2520 C   0  0  0  0  0  0  0  0  0  0  0  0
   36.4300   25.6930   32.0900 C   0  0  0  0  0  0  0  0  0  0  0  0
   37.2160   26.5260   33.1290 C   0  0  1  0  0  0  0  0  0  0  0  0
   42.7140   26.4290   31.4430 H   0  0  0  0  0  0  0  0  0  0  0  0
   40.3680   26.8060   30.7450 H   0  0  0  0  0  0  0  0  0  0  0  0
   41.5990   26.7190   35.4820 H   0  0  0  0  0  0  0  0  0  0  0  0
   38.6510   28.4260   30.8500 H   0  0  0  0  0  0  0  0  0  0  0  0
   37.4810   29.0130   32.0530 H   0  0  0  0  0  0  0  0  0  0  0  0
   36.1450   28.5090   30.2320 H   0  0  0  0  0  0  0  0  0  0  0  0
   37.1130   27.1050   29.7150 H   0  0  0  0  0  0  0  0  0  0  0  0
   35.0780   27.3050   31.9680 H   0  0  0  0  0  0  0  0  0  0  0  0
   35.0820   26.2550   30.4550 H   0  0  0  0  0  0  0  0  0  0  0  0
   37.1860   25.2200   31.4130 H   0  0  0  0  0  0  0  0  0  0  0  0
   35.7920   24.9490   32.5770 H   0  0  0  0  0  0  0  0  0  0  0  0
   36.5200   27.1960   33.6590 H   0  0  0  0  0  0  0  0  0  0  0  0
   38.1320   24.2370   33.7630 C   0  0  0  0  0  3  0  0  0  0  0  0
   37.6690   25.4860   34.1210 C   0  0  0  0  0  0  0  0  0  0  0  0
   37.6360   25.7500   35.4940 C   0  0  0  0  0  0  0  0  0  0  0  0
   37.2760   26.7190   35.7890 H   0  0  0  0  0  0  0  0  0  0  0  0
   38.0280   24.8570   36.4520 C   0  0  0  0  0  0  0  0  0  0  0  0
   38.4870   23.6180   36.0540 C   0  0  0  0  0  0  0  0  0  0  0  0
   38.5360   23.3160   34.7090 C   0  0  0  0  0  3  0  0  0  0  0  0
   38.8220   22.9010   37.2190 O   0  0  0  0  0  0  0  0  0  0  0  0
   38.0260   23.4830   38.2570 C   0  0  0  0  0  3  0  0  0  0  0  0
   36.9720   23.1190   38.1100 H   0  0  0  0  0  0  0  0  0  0  0  0
   38.1000   24.8540   37.8390 O   0  0  0  0  0  0  0  0  0  0  0  0
  1  6  1  0  0  0  0
  2  1  2  0  0  0  0
  2  3  1  0  0  0  0
  3  4  2  0  0  0  0
  4  5  1  0  0  0  0
  5 15  1  0  0  0  0
  6  5  2  0  0  0  0
  7  3  1  0  0  0  0
  7 12  1  0  0  0  0
  8 17  1  0  0  0  0
  8  7  1  0  0  0  0
  9 10  1  0  0  0  0
  9  8  1  0  0  0  0
 10 20  1  0  0  0  0
 10 11  1  0  0  0  0
 11 23  1  0  0  0  0
 11 12  1  0  0  0  0
 12 24  1  1  0  0  0
 12 26  1  0  0  0  0
 13  1  1  0  0  0  0
 14  2  1  0  0  0  0
 16  8  1  0  0  0  0
 18  9  1  0  0  0  0
 19  9  1  0  0  0  0
 21 10  1  0  0  0  0
 22 11  1  0  0  0  0
 25 26  2  0  0  0  0
 25 31  1  0  0  0  0
 26 27  1  0  0  0  0
 27 28  1  0  0  0  0
 27 29  2  0  0  0  0
 29 35  1  0  0  0  0
 30 29  1  0  0  0  0
 30 32  1  0  0  0  0
 31 30  2  0  0  0  0
 32 33  1  0  0  0  0
 34 33  1  0  0  0  0
 35 33  1  0  0  0  0
M  END
>  <minimizedAffinity>
-5.26620388

$$$$

 OpenBabel03272505073D

 35 38  0  0  1  0  0  0  0  0999 V2000
   36.3170   24.4310   31.0570 C   0  0  0  0  0  0  0  0  0  0  0  0
   37.4880   25.1850   31.0030 C   0  0  0  0  0  0  0  0  0  0  0  0
   38.5250   24.7660   31.8520 C   0  0  0  0  0  0  0  0  0  0  0  0
   38.3270   23.6930   32.6420 N   0  0  0  0  0  0  0  0  0  0  0  0
   37.1780   23.0050   32.6520 C   0  0  0  0  0  0  0  0  0  0  0  0
   36.1650   23.3730   31.8560 N   0  0  0  0  0  0  0  0  0  0  0  0
   39.8090   25.3880   31.9810 N   0  0  0  0  0  0  0  0  0  0  0  0
   40.6250   25.7970   30.8790 C   0  0  0  0  0  0  0  0  0  0  0  0
   41.2580   27.1280   30.9620 C   0  0  0  0  0  0  0  0  0  0  0  0
   41.7150   27.5620   32.3140 C   0  0  0  0  0  0  0  0  0  0  0  0
   40.6460   27.2280   33.3180 C   0  0  0  0  0  0  0  0  0  0  0  0
   40.4720   25.6940   33.2180 C   0  0  1  0  0  0  0  0  0  0  0  0
   35.5540   24.8140   30.3690 H   0  0  0  0  0  0  0  0  0  0  0  0
   37.7060   26.0390   30.4030 H   0  0  0  0  0  0  0  0  0  0  0  0
   36.9880   22.1390   33.2730 H   0  0  0  0  0  0  0  0  0  0  0  0
   40.0060   25.7370   29.9560 H   0  0  0  0  0  0  0  0  0  0  0  0
   41.4060   24.9910   30.7590 H   0  0  0  0  0  0  0  0  0  0  0  0
   42.1550   27.1300   30.2890 H   0  0  0  0  0  0  0  0  0  0  0  0
   40.5740   27.9090   30.5550 H   0  0  0  0  0  0  0  0  0  0  0  0
   42.6090   26.9520   32.6050 H   0  0  0  0  0  0  0  0  0  0  0  0
   41.9550   28.6410   32.2730 H   0  0  0  0  0  0  0  0  0  0  0  0
   39.7020   27.6880   32.9290 H   0  0  0  0  0  0  0  0  0  0  0  0
   40.8600   27.5380   34.3460 H   0  0  0  0  0  0  0  0  0  0  0  0
   41.4510   25.2090   33.3580 H   0  0  0  0  0  0  0  0  0  0  0  0
   38.5780   26.1390   34.8600 C   0  0  0  0  0  3  0  0  0  0  0  0
   39.6400   25.3700   34.4320 C   0  0  0  0  0  0  0  0  0  0  0  0
   39.9200   24.2380   35.2040 C   0  0  0  0  0  0  0  0  0  0  0  0
   40.7450   23.6290   34.8840 H   0  0  0  0  0  0  0  0  0  0  0  0
   39.2120   23.8810   36.3180 C   0  0  0  0  0  0  0  0  0  0  0  0
   38.1550   24.6750   36.7140 C   0  0  0  0  0  0  0  0  0  0  0  0
   37.8450   25.8020   35.9800 C   0  0  0  0  0  3  0  0  0  0  0  0
   37.6030   24.0920   37.8710 O   0  0  0  0  0  0  0  0  0  0  0  0
   38.6700   23.3340   38.4520 C   0  0  0  0  0  3  0  0  0  0  0  0
   39.3750   24.0680   38.9300 H   0  0  0  0  0  0  0  0  0  0  0  0
   39.2670   22.8460   37.2420 O   0  0  0  0  0  0  0  0  0  0  0  0
  1  6  1  0  0  0  0
  2  1  2  0  0  0  0
  2  3  1  0  0  0  0
  3  7  1  0  0  0  0
  3  4  2  0  0  0  0
  4  5  1  0  0  0  0
  5 15  1  0  0  0  0
  6  5  2  0  0  0  0
  7 12  1  0  0  0  0
  8  9  1  0  0  0  0
  8  7  1  0  0  0  0
  9 10  1  0  0  0  0
 10 20  1  0  0  0  0
 10 11  1  0  0  0  0
 11 23  1  0  0  0  0
 12 11  1  0  0  0  0
 12 24  1  1  0  0  0
 12 26  1  0  0  0  0
 13  1  1  0  0  0  0
 14  2  1  0  0  0  0
 16  8  1  0  0  0  0
 17  8  1  0  0  0  0
 18  9  1  0  0  0  0
 19  9  1  0  0  0  0
 21 10  1  0  0  0  0
 22 11  1  0  0  0  0
 25 31  1  0  0  0  0
 26 25  2  0  0  0  0
 26 27  1  0  0  0  0
 27 29  2  0  0  0  0
 28 27  1  0  0  0  0
 29 30  1  0  0  0  0
 29 35  1  0  0  0  0
 30 32  1  0  0  0  0
 31 30  2  0  0  0  0
 32 33  1  0  0  0  0
 33 34  1  0  0  0  0
 35 33  1  0  0  0  0
M  END
>  <minimizedAffinity>
-5.20502949

$$$$

 OpenBabel03272505073D

 35 38  0  0  1  0  0  0  0  0999 V2000
   38.3210   26.1600   36.0340 C   0  0  0  0  0  0  0  0  0  0  0  0
   37.7560   25.1900   35.2080 C   0  0  0  0  0  0  0  0  0  0  0  0
   38.1360   25.2380   33.8580 C   0  0  0  0  0  0  0  0  0  0  0  0
   38.9990   26.1930   33.4580 N   0  0  0  0  0  0  0  0  0  0  0  0
   39.5120   27.1020   34.2980 C   0  0  0  0  0  0  0  0  0  0  0  0
   39.1730   27.0880   35.5950 N   0  0  0  0  0  0  0  0  0  0  0  0
   37.6790   24.3600   32.8230 N   0  0  0  0  0  0  0  0  0  0  0  0
   37.6050   22.9360   32.9440 C   0  0  0  0  0  0  0  0  0  0  0  0
   36.3800   22.2760   32.4490 C   0  0  0  0  0  0  0  0  0  0  0  0
   35.7580   22.8640   31.2290 C   0  0  0  0  0  0  0  0  0  0  0  0
   35.7430   24.3630   31.3650 C   0  0  0  0  0  0  0  0  0  0  0  0
   37.2300   24.7620   31.5190 C   0  0  1  0  0  0  0  0  0  0  0  0
   37.9800   26.0610   37.0710 H   0  0  0  0  0  0  0  0  0  0  0  0
   37.0710   24.4120   35.4620 H   0  0  0  0  0  0  0  0  0  0  0  0
   40.2060   27.8790   34.0100 H   0  0  0  0  0  0  0  0  0  0  0  0
   37.7600   22.6760   34.0150 H   0  0  0  0  0  0  0  0  0  0  0  0
   38.5160   22.5340   32.4120 H   0  0  0  0  0  0  0  0  0  0  0  0
   36.6300   21.2080   32.2160 H   0  0  0  0  0  0  0  0  0  0  0  0
   35.6100   22.2380   33.2530 H   0  0  0  0  0  0  0  0  0  0  0  0
   36.4130   22.6440   30.3470 H   0  0  0  0  0  0  0  0  0  0  0  0
   34.7490   22.4270   31.1040 H   0  0  0  0  0  0  0  0  0  0  0  0
   35.2460   24.5790   32.3440 H   0  0  0  0  0  0  0  0  0  0  0  0
   35.2710   24.9000   30.5370 H   0  0  0  0  0  0  0  0  0  0  0  0
   37.8060   24.3470   30.6760 H   0  0  0  0  0  0  0  0  0  0  0  0
   38.1720   26.9700   30.6730 C   0  0  0  0  0  3  0  0  0  0  0  0
   37.1970   26.2570   31.3390 C   0  0  0  0  0  0  0  0  0  0  0  0
   36.1410   27.0130   31.8580 C   0  0  0  0  0  0  0  0  0  0  0  0
   35.3740   26.4710   32.3800 H   0  0  0  0  0  0  0  0  0  0  0  0
   36.0430   28.3710   31.7350 C   0  0  0  0  0  0  0  0  0  0  0  0
   37.0380   29.0490   31.0610 C   0  0  0  0  0  0  0  0  0  0  0  0
   38.0990   28.3410   30.5340 C   0  0  0  0  0  3  0  0  0  0  0  0
   36.7000   30.4150   31.0780 O   0  0  0  0  0  0  0  0  0  0  0  0
   35.8610   30.5780   32.2260 C   0  0  0  0  0  3  0  0  0  0  0  0
   36.5270   30.5390   33.1320 H   0  0  0  0  0  0  0  0  0  0  0  0
   35.1360   29.3430   32.1370 O   0  0  0  0  0  0  0  0  0  0  0  0
  1 13  1  0  0  0  0
  2 14  1  0  0  0  0
  2  1  2  0  0  0  0
  3  2  1  0  0  0  0
  4  3  2  0  0  0  0
  4  5  1  0  0  0  0
  5  6  2  0  0  0  0
  6  1  1  0  0  0  0
  7  8  1  0  0  0  0
  7  3  1  0  0  0  0
  8 16  1  0  0  0  0
  9  8  1  0  0  0  0
  9 19  1  0  0  0  0
 10 11  1  0  0  0  0
 10  9  1  0  0  0  0
 11 12  1  0  0  0  0
 11 22  1  0  0  0  0
 12 24  1  6  0  0  0
 12  7  1  0  0  0  0
 15  5  1  0  0  0  0
 17  8  1  0  0  0  0
 18  9  1  0  0  0  0
 20 10  1  0  0  0  0
 21 10  1  0  0  0  0
 23 11  1  0  0  0  0
 25 26  1  0  0  0  0
 26 12  1  0  0  0  0
 26 27  2  0  0  0  0
 27 28  1  0  0  0  0
 29 27  1  0  0  0  0
 29 35  1  0  0  0  0
 30 32  1  0  0  0  0
 30 29  2  0  0  0  0
 31 25  2  0  0  0  0
 31 30  1  0  0  0  0
 32 33  1  0  0  0  0
 33 34  1  0  0  0  0
 35 33  1  0  0  0  0
M  END
>  <minimizedAffinity>
-5.19173431

$$$$

 OpenBabel03272505073D

 35 38  0  0  1  0  0  0  0  0999 V2000
   36.0010   23.4010   31.2970 C   0  0  0  0  0  0  0  0  0  0  0  0
   36.8550   23.8420   32.3060 C   0  0  0  0  0  0  0  0  0  0  0  0
   36.8440   25.2230   32.5570 C   0  0  0  0  0  0  0  0  0  0  0  0
   36.0310   26.0110   31.8260 N   0  0  0  0  0  0  0  0  0  0  0  0
   35.2290   25.5320   30.8670 C   0  0  0  0  0  0  0  0  0  0  0  0
   35.2110   24.2180   30.5980 N   0  0  0  0  0  0  0  0  0  0  0  0
   37.6410   25.9080   33.5300 N   0  0  0  0  0  0  0  0  0  0  0  0
   37.8170   25.4750   34.8820 C   0  0  0  0  0  0  0  0  0  0  0  0
   39.1870   25.5090   35.4320 C   0  0  0  0  0  0  0  0  0  0  0  0
   40.0520   26.6390   34.9880 C   0  0  0  0  0  0  0  0  0  0  0  0
   39.8860   26.8230   33.5040 C   0  0  0  0  0  0  0  0  0  0  0  0
   38.3800   27.1200   33.3070 C   0  0  1  0  0  0  0  0  0  0  0  0
   36.0620   22.3150   31.1570 H   0  0  0  0  0  0  0  0  0  0  0  0
   37.5190   23.2720   32.9160 H   0  0  0  0  0  0  0  0  0  0  0  0
   34.5640   26.1360   30.2650 H   0  0  0  0  0  0  0  0  0  0  0  0
   37.4090   24.4430   34.9660 H   0  0  0  0  0  0  0  0  0  0  0  0
   37.1230   26.1130   35.5020 H   0  0  0  0  0  0  0  0  0  0  0  0
   39.1120   25.5640   36.5500 H   0  0  0  0  0  0  0  0  0  0  0  0
   39.7170   24.5530   35.2130 H   0  0  0  0  0  0  0  0  0  0  0  0
   39.6780   27.5860   35.4570 H   0  0  0  0  0  0  0  0  0  0  0  0
   41.0940   26.4220   35.2870 H   0  0  0  0  0  0  0  0  0  0  0  0
   40.0820   25.8210   33.0440 H   0  0  0  0  0  0  0  0  0  0  0  0
   40.5070   27.6070   33.0600 H   0  0  0  0  0  0  0  0  0  0  0  0
   38.0910   27.9690   33.9460 H   0  0  0  0  0  0  0  0  0  0  0  0
   39.0290   27.0270   30.8470 C   0  0  0  0  0  3  0  0  0  0  0  0
   38.3160   27.5980   31.8800 C   0  0  0  0  0  0  0  0  0  0  0  0
   37.5030   28.6810   31.5280 C   0  0  0  0  0  0  0  0  0  0  0  0
   36.9410   29.1370   32.3220 H   0  0  0  0  0  0  0  0  0  0  0  0
   37.3940   29.1720   30.2570 C   0  0  0  0  0  0  0  0  0  0  0  0
   38.1230   28.5720   29.2510 C   0  0  0  0  0  0  0  0  0  0  0  0
   38.9380   27.5010   29.5540 C   0  0  0  0  0  3  0  0  0  0  0  0
   37.8340   29.2600   28.0560 O   0  0  0  0  0  0  0  0  0  0  0  0
   37.4230   30.5680   28.4690 C   0  0  0  0  0  3  0  0  0  0  0  0
   38.3490   31.1220   28.7840 H   0  0  0  0  0  0  0  0  0  0  0  0
   36.6870   30.1980   29.6450 O   0  0  0  0  0  0  0  0  0  0  0  0
  1  2  1  0  0  0  0
  2  3  2  0  0  0  0
  2 14  1  0  0  0  0
  3  7  1  0  0  0  0
  4  3  1  0  0  0  0
  5  4  2  0  0  0  0
  6  5  1  0  0  0  0
  6  1  2  0  0  0  0
  7  8  1  0  0  0  0
  8 16  1  0  0  0  0
  8  9  1  0  0  0  0
  8 17  1  0  0  0  0
  9 18  1  0  0  0  0
 10 21  1  0  0  0  0
 10  9  1  0  0  0  0
 10 20  1  0  0  0  0
 11 10  1  0  0  0  0
 12 11  1  0  0  0  0
 12  7  1  0  0  0  0
 12 24  1  1  0  0  0
 13  1  1  0  0  0  0
 15  5  1  0  0  0  0
 19  9  1  0  0  0  0
 22 11  1  0  0  0  0
 23 11  1  0  0  0  0
 25 26  1  0  0  0  0
 26 12  1  0  0  0  0
 27 26  2  0  0  0  0
 27 28  1  0  0  0  0
 29 27  1  0  0  0  0
 30 31  1  0  0  0  0
 30 29  2  0  0  0  0
 31 25  2  0  0  0  0
 32 33  1  0  0  0  0
 32 30  1  0  0  0  0
 33 34  1  0  0  0  0
 33 35  1  0  0  0  0
 35 29  1  0  0  0  0
M  END
>  <minimizedAffinity>
-5.12686253

$$$$
