
 OpenBabel03272507333D

 38 42  0  0  1  0  0  0  0  0999 V2000
   33.0610   27.7770   48.4500 C   0  0  0  0  0  0  0  0  0  0  0  0
   31.9240   27.5520   48.9700 O   0  0  0  0  0  0  0  0  0  0  0  0
   35.9820   29.2950   49.8460 C   0  0  0  0  0  0  0  0  0  0  0  0
   35.0510   29.7740   50.7400 C   0  0  0  0  0  0  0  0  0  0  0  0
   33.7980   29.2750   50.3490 C   0  0  0  0  0  0  0  0  0  0  0  0
   34.0560   28.5130   49.2270 C   0  0  0  0  0  0  0  0  0  0  0  0
   35.3460   28.5560   48.9700 O   0  0  0  0  0  0  0  0  0  0  0  0
   35.1540   30.4190   51.6130 H   0  0  0  0  0  0  0  0  0  0  0  0
   32.8280   29.4240   50.7930 H   0  0  0  0  0  0  0  0  0  0  0  0
   37.3960   29.6180   49.9520 C   0  0  0  0  0  0  0  0  0  0  0  0
   38.0930   29.0170   50.7810 O   0  0  0  0  0  0  0  0  0  0  0  0
   37.9020   30.6320   49.0700 C   0  0  0  0  0  0  0  0  0  0  0  0
   38.2360   31.8500   49.6350 C   0  0  0  0  0  0  0  0  0  0  0  0
   38.7290   32.8610   48.8030 C   0  0  0  0  0  0  0  0  0  0  0  0
   38.8550   32.5870   47.4630 N   0  0  0  0  0  0  0  0  0  0  0  0
   38.5240   31.4010   46.9520 C   0  0  0  0  0  0  0  0  0  0  0  0
   38.0500   30.4260   47.7440 N   0  0  0  0  0  0  0  0  0  0  0  0
   38.1420   32.0780   50.6790 H   0  0  0  0  0  0  0  0  0  0  0  0
   38.9940   33.8190   49.2400 H   0  0  0  0  0  0  0  0  0  0  0  0
   38.6200   31.1750   45.8990 H   0  0  0  0  0  0  0  0  0  0  0  0
   33.3680   27.2900   47.0800 C   0  0  1  0  0  0  0  0  0  0  0  0
   32.6700   25.8990   46.8050 C   0  0  0  0  0  0  0  0  0  0  0  0
   32.3420   27.1070   46.0510 C   0  0  1  0  0  0  0  0  0  0  0  0
   34.4630   27.1640   46.9090 H   0  0  0  0  0  0  0  0  0  0  0  0
   33.3040   25.1220   46.3340 H   0  0  0  0  0  0  0  0  0  0  0  0
   32.0530   25.4900   47.6110 H   0  0  0  0  0  0  0  0  0  0  0  0
   32.7940   27.1820   45.0070 H   0  0  0  0  0  0  0  0  0  0  0  0
   30.9240   29.0870   45.8620 C   0  0  0  0  0  3  0  0  0  0  0  0
   30.9960   27.7150   46.1070 C   0  0  0  0  0  0  0  0  0  0  0  0
   29.7900   27.0980   46.3550 C   0  0  0  0  0  0  0  0  0  0  0  0
   29.8260   26.0410   46.5340 H   0  0  0  0  0  0  0  0  0  0  0  0
   28.6060   27.8050   46.3580 C   0  0  0  0  0  0  0  0  0  0  0  0
   28.5410   29.1490   46.1180 C   0  0  0  0  0  0  0  0  0  0  0  0
   29.7250   29.8090   45.8630 C   0  0  0  0  0  3  0  0  0  0  0  0
   27.2210   29.5620   46.1900 O   0  0  0  0  0  0  0  0  0  0  0  0
   26.4310   28.3890   46.1780 C   0  0  0  0  0  3  0  0  0  0  0  0
   25.6350   28.4990   46.9170 H   0  0  0  0  0  0  0  0  0  0  0  0
   27.3060   27.3380   46.5900 O   0  0  0  0  0  0  0  0  0  0  0  0
  1  2  2  0  0  0  0
  1  6  1  0  0  0  0
  3 10  1  0  0  0  0
  3  4  2  0  0  0  0
  4  8  1  0  0  0  0
  5  4  1  0  0  0  0
  5  9  1  0  0  0  0
  6  5  2  0  0  0  0
  7  6  1  0  0  0  0
  7  3  1  0  0  0  0
 10 11  2  0  0  0  0
 12 13  1  0  0  0  0
 12 10  1  0  0  0  0
 13 18  1  0  0  0  0
 14 19  1  0  0  0  0
 14 13  2  0  0  0  0
 15 14  1  0  0  0  0
 16 15  2  0  0  0  0
 16 17  1  0  0  0  0
 17 12  2  0  0  0  0
 20 16  1  0  0  0  0
 21 24  1  6  0  0  0
 21  1  1  0  0  0  0
 22 21  1  0  0  0  0
 22 26  1  0  0  0  0
 23 27  1  6  0  0  0
 23 29  1  0  0  0  0
 23 22  1  0  0  0  0
 23 21  1  0  0  0  0
 25 22  1  0  0  0  0
 28 34  2  0  0  0  0
 28 29  1  0  0  0  0
 29 30  2  0  0  0  0
 30 32  1  0  0  0  0
 30 31  1  0  0  0  0
 32 38  1  0  0  0  0
 33 35  1  0  0  0  0
 33 32  2  0  0  0  0
 34 33  1  0  0  0  0
 36 35  1  0  0  0  0
 36 38  1  0  0  0  0
 36 37  1  0  0  0  0
M  END
>  <minimizedAffinity>
-5.77078056

>  <minimizedRMSD>
2.22202468

$$$$
