
 OpenBabel03262522033D

 41 45  0  0  1  0  0  0  0  0999 V2000
   34.5440   29.2040   48.7220 C   0  0  2  0  0  0  0  0  0  0  0  0
   35.1980   28.4410   49.8240 C   0  0  0  0  0  0  0  0  0  0  0  0
   36.3620   29.1870   50.2830 N   0  0  0  0  0  0  0  0  0  0  0  0
   37.3320   29.8860   51.0770 C   0  0  0  0  0  0  0  0  0  0  0  0
   37.5810   30.0480   52.2890 O   0  0  0  0  0  0  0  0  0  0  0  0
   38.0400   30.4250   49.9190 C   0  0  1  0  0  0  0  0  0  0  0  0
   37.1970   29.4490   49.1390 C   0  0  2  0  0  0  0  0  0  0  0  0
   35.9360   30.2050   48.0640 S   0  0  0  0  0  0  0  0  0  0  0  0
   34.5080   28.3240   50.6890 H   0  0  0  0  0  0  0  0  0  0  0  0
   35.5350   27.4640   49.4480 H   0  0  0  0  0  0  0  0  0  0  0  0
   39.1080   30.1660   49.8090 H   0  0  0  0  0  0  0  0  0  0  0  0
   37.7180   28.5880   48.7070 H   0  0  0  0  0  0  0  0  0  0  0  0
   33.3580   30.0250   49.1100 C   0  0  0  0  0  0  0  0  0  0  0  0
   32.9310   30.4670   48.2110 H   0  0  0  0  0  0  0  0  0  0  0  0
   33.7420   30.8050   49.8260 H   0  0  0  0  0  0  0  0  0  0  0  0
   32.7020   29.3890   49.7120 H   0  0  0  0  0  0  0  0  0  0  0  0
   34.2060   28.2340   47.5790 C   0  0  0  0  0  0  0  0  0  0  0  0
   35.1570   27.8490   47.1620 H   0  0  0  0  0  0  0  0  0  0  0  0
   33.7020   27.3470   48.0290 H   0  0  0  0  0  0  0  0  0  0  0  0
   32.0120   28.5560   46.5360 C   0  0  0  0  0  3  0  0  0  0  0  0
   33.3690   28.8770   46.5380 C   0  0  0  0  0  0  0  0  0  0  0  0
   33.8360   29.7590   45.5860 C   0  0  0  0  0  0  0  0  0  0  0  0
   34.8740   29.9940   45.6000 H   0  0  0  0  0  0  0  0  0  0  0  0
   32.9370   30.2800   44.6780 C   0  0  0  0  0  0  0  0  0  0  0  0
   31.5880   29.9860   44.6450 C   0  0  0  0  0  0  0  0  0  0  0  0
   31.1390   29.1060   45.6010 C   0  0  0  0  0  3  0  0  0  0  0  0
   31.0630   30.7220   43.5820 O   0  0  0  0  0  0  0  0  0  0  0  0
   31.9570   31.7860   43.2380 C   0  0  0  0  0  3  0  0  0  0  0  0
   31.8480   32.6580   43.9390 H   0  0  0  0  0  0  0  0  0  0  0  0
   33.1950   31.1830   43.6380 O   0  0  0  0  0  0  0  0  0  0  0  0
   37.8280   31.8560   49.6400 C   0  0  0  0  0  0  0  0  0  0  0  0
   36.8550   32.3650   50.2680 O   0  0  0  0  0  0  0  0  0  0  0  0
   38.6570   32.6120   48.7360 C   0  0  0  0  0  0  0  0  0  0  0  0
   39.1680   33.8180   49.1880 C   0  0  0  0  0  0  0  0  0  0  0  0
   39.9780   34.5650   48.3050 C   0  0  0  0  0  0  0  0  0  0  0  0
   40.2080   34.0520   47.0600 N   0  0  0  0  0  0  0  0  0  0  0  0
   39.7000   32.8880   46.6620 C   0  0  0  0  0  0  0  0  0  0  0  0
   38.9240   32.1660   47.4970 N   0  0  0  0  0  0  0  0  0  0  0  0
   39.0150   34.2590   50.1520 H   0  0  0  0  0  0  0  0  0  0  0  0
   40.3980   35.5000   48.6000 H   0  0  0  0  0  0  0  0  0  0  0  0
   39.8680   32.4590   45.6780 H   0  0  0  0  0  0  0  0  0  0  0  0
  1 17  1  6  0  0  0
  1 13  1  0  0  0  0
  1  2  1  0  0  0  0
  2  3  1  0  0  0  0
  2  9  1  0  0  0  0
  3  4  1  0  0  0  0
  4  5  2  0  0  0  0
  6 11  1  6  0  0  0
  6  4  1  0  0  0  0
  7 12  1  6  0  0  0
  7  6  1  0  0  0  0
  7  3  1  0  0  0  0
  8  1  1  0  0  0  0
  8  7  1  0  0  0  0
 10  2  1  0  0  0  0
 13 16  1  0  0  0  0
 13 15  1  0  0  0  0
 14 13  1  0  0  0  0
 17 19  1  0  0  0  0
 18 17  1  0  0  0  0
 20 21  1  0  0  0  0
 21 17  1  0  0  0  0
 22 23  1  0  0  0  0
 22 21  2  0  0  0  0
 24 22  1  0  0  0  0
 25 24  2  0  0  0  0
 25 26  1  0  0  0  0
 26 20  2  0  0  0  0
 27 25  1  0  0  0  0
 28 27  1  0  0  0  0
 28 30  1  0  0  0  0
 28 29  1  0  0  0  0
 30 24  1  0  0  0  0
 31  6  1  0  0  0  0
 31 32  2  0  0  0  0
 33 34  1  0  0  0  0
 33 31  1  0  0  0  0
 34 39  1  0  0  0  0
 35 40  1  0  0  0  0
 35 34  2  0  0  0  0
 36 35  1  0  0  0  0
 37 36  2  0  0  0  0
 37 38  1  0  0  0  0
 38 33  2  0  0  0  0
 41 37  1  0  0  0  0
M  END
>  <minimizedAffinity>
-5.28264666

>  <minimizedRMSD>
0.368147671

$$$$
