
 OpenBabel03262522033D

 41 45  0  0  1  0  0  0  0  0999 V2000
   34.3570   29.1460   49.0160 C   0  0  2  0  0  0  0  0  0  0  0  0
   35.0880   28.3970   50.0790 C   0  0  0  0  0  0  0  0  0  0  0  0
   36.2950   29.1340   50.4260 N   0  0  0  0  0  0  0  0  0  0  0  0
   37.3360   29.8350   51.1230 C   0  0  0  0  0  0  0  0  0  0  0  0
   37.6850   30.0190   52.3070 O   0  0  0  0  0  0  0  0  0  0  0  0
   37.9550   30.3360   49.8990 C   0  0  1  0  0  0  0  0  0  0  0  0
   37.0390   29.3570   49.2120 C   0  0  2  0  0  0  0  0  0  0  0  0
   35.7050   30.1100   48.2250 S   0  0  0  0  0  0  0  0  0  0  0  0
   34.4680   28.3100   51.0000 H   0  0  0  0  0  0  0  0  0  0  0  0
   35.3790   27.4070   49.7010 H   0  0  0  0  0  0  0  0  0  0  0  0
   39.0080   30.0580   49.7100 H   0  0  0  0  0  0  0  0  0  0  0  0
   37.5110   28.4790   48.7600 H   0  0  0  0  0  0  0  0  0  0  0  0
   33.2180   29.9940   49.4800 C   0  0  0  0  0  0  0  0  0  0  0  0
   32.7270   30.4230   48.6080 H   0  0  0  0  0  0  0  0  0  0  0  0
   33.6700   30.7830   50.1440 H   0  0  0  0  0  0  0  0  0  0  0  0
   32.6040   29.3820   50.1470 H   0  0  0  0  0  0  0  0  0  0  0  0
   33.9140   28.1560   47.9270 C   0  0  0  0  0  0  0  0  0  0  0  0
   34.4170   28.4390   46.9810 H   0  0  0  0  0  0  0  0  0  0  0  0
   34.3290   27.1570   48.1920 H   0  0  0  0  0  0  0  0  0  0  0  0
   31.9050   28.7820   46.6710 C   0  0  0  0  0  3  0  0  0  0  0  0
   32.4400   28.1220   47.7780 C   0  0  0  0  0  0  0  0  0  0  0  0
   31.5740   27.4910   48.6460 C   0  0  0  0  0  0  0  0  0  0  0  0
   31.9980   26.9920   49.4860 H   0  0  0  0  0  0  0  0  0  0  0  0
   30.2210   27.5440   48.3760 C   0  0  0  0  0  0  0  0  0  0  0  0
   29.6570   28.1860   47.2940 C   0  0  0  0  0  0  0  0  0  0  0  0
   30.5330   28.8090   46.4370 C   0  0  0  0  0  3  0  0  0  0  0  0
   28.2800   27.9910   47.4080 O   0  0  0  0  0  0  0  0  0  0  0  0
   28.0160   26.8880   48.2840 C   0  0  0  0  0  3  0  0  0  0  0  0
   28.1460   25.9050   47.7560 H   0  0  0  0  0  0  0  0  0  0  0  0
   29.1770   26.9770   49.1200 O   0  0  0  0  0  0  0  0  0  0  0  0
   37.7420   31.7650   49.6050 C   0  0  0  0  0  0  0  0  0  0  0  0
   36.7620   32.2760   50.2200 O   0  0  0  0  0  0  0  0  0  0  0  0
   38.5770   32.5140   48.7020 C   0  0  0  0  0  0  0  0  0  0  0  0
   39.1040   33.7120   49.1570 C   0  0  0  0  0  0  0  0  0  0  0  0
   39.9200   34.4540   48.2740 C   0  0  0  0  0  0  0  0  0  0  0  0
   40.1400   33.9430   47.0270 N   0  0  0  0  0  0  0  0  0  0  0  0
   39.6160   32.7870   46.6250 C   0  0  0  0  0  0  0  0  0  0  0  0
   38.8340   32.0700   47.4600 N   0  0  0  0  0  0  0  0  0  0  0  0
   38.9590   34.1510   50.1240 H   0  0  0  0  0  0  0  0  0  0  0  0
   40.3520   35.3820   48.5720 H   0  0  0  0  0  0  0  0  0  0  0  0
   39.7750   32.3600   45.6380 H   0  0  0  0  0  0  0  0  0  0  0  0
  1 17  1  6  0  0  0
  1 13  1  0  0  0  0
  1  2  1  0  0  0  0
  2  3  1  0  0  0  0
  2  9  1  0  0  0  0
  3  4  1  0  0  0  0
  4  5  2  0  0  0  0
  6 11  1  6  0  0  0
  6  4  1  0  0  0  0
  7 12  1  6  0  0  0
  7  6  1  0  0  0  0
  7  3  1  0  0  0  0
  8  1  1  0  0  0  0
  8  7  1  0  0  0  0
 10  2  1  0  0  0  0
 13 15  1  0  0  0  0
 13 16  1  0  0  0  0
 14 13  1  0  0  0  0
 17 19  1  0  0  0  0
 18 17  1  0  0  0  0
 20 21  1  0  0  0  0
 21 17  1  0  0  0  0
 21 22  2  0  0  0  0
 22 23  1  0  0  0  0
 24 22  1  0  0  0  0
 24 30  1  0  0  0  0
 25 27  1  0  0  0  0
 25 24  2  0  0  0  0
 26 20  2  0  0  0  0
 26 25  1  0  0  0  0
 27 28  1  0  0  0  0
 28 30  1  0  0  0  0
 29 28  1  0  0  0  0
 31  6  1  0  0  0  0
 31 32  2  0  0  0  0
 33 34  1  0  0  0  0
 33 31  1  0  0  0  0
 34 39  1  0  0  0  0
 35 40  1  0  0  0  0
 35 34  2  0  0  0  0
 36 35  1  0  0  0  0
 37 36  2  0  0  0  0
 37 38  1  0  0  0  0
 38 33  2  0  0  0  0
 41 37  1  0  0  0  0
M  END
>  <minimizedAffinity>
-5.87688017

>  <minimizedRMSD>
2.77220941

$$$$
