
 OpenBabel03262522033D

 41 45  0  0  1  0  0  0  0  0999 V2000
   34.5440   29.2330   48.6910 C   0  0  2  0  0  0  0  0  0  0  0  0
   35.1930   28.4550   49.7860 C   0  0  0  0  0  0  0  0  0  0  0  0
   36.3590   29.1900   50.2560 N   0  0  0  0  0  0  0  0  0  0  0  0
   37.3310   29.8760   51.0590 C   0  0  0  0  0  0  0  0  0  0  0  0
   37.5780   30.0230   52.2740 O   0  0  0  0  0  0  0  0  0  0  0  0
   38.0430   30.4250   49.9090 C   0  0  1  0  0  0  0  0  0  0  0  0
   37.1980   29.4620   49.1160 C   0  0  2  0  0  0  0  0  0  0  0  0
   35.9420   30.2360   48.0480 S   0  0  0  0  0  0  0  0  0  0  0  0
   34.5010   28.3300   50.6480 H   0  0  0  0  0  0  0  0  0  0  0  0
   35.5270   27.4800   49.3990 H   0  0  0  0  0  0  0  0  0  0  0  0
   39.1100   30.1630   49.7980 H   0  0  0  0  0  0  0  0  0  0  0  0
   37.7160   28.6030   48.6760 H   0  0  0  0  0  0  0  0  0  0  0  0
   33.3610   30.0540   49.0870 C   0  0  0  0  0  0  0  0  0  0  0  0
   32.9380   30.5090   48.1920 H   0  0  0  0  0  0  0  0  0  0  0  0
   33.7470   30.8240   49.8120 H   0  0  0  0  0  0  0  0  0  0  0  0
   32.7010   29.4140   49.6790 H   0  0  0  0  0  0  0  0  0  0  0  0
   34.2040   28.2770   47.5360 C   0  0  0  0  0  0  0  0  0  0  0  0
   35.1370   27.7680   47.2250 H   0  0  0  0  0  0  0  0  0  0  0  0
   33.5530   27.4710   47.9480 H   0  0  0  0  0  0  0  0  0  0  0  0
   32.1750   28.8670   46.2960 C   0  0  0  0  0  3  0  0  0  0  0  0
   33.5600   28.9850   46.4040 C   0  0  0  0  0  0  0  0  0  0  0  0
   34.2300   29.7440   45.4660 C   0  0  0  0  0  0  0  0  0  0  0  0
   35.2860   29.8240   45.5620 H   0  0  0  0  0  0  0  0  0  0  0  0
   33.4940   30.3470   44.4670 C   0  0  0  0  0  0  0  0  0  0  0  0
   32.1240   30.2520   44.3270 C   0  0  0  0  0  0  0  0  0  0  0  0
   31.4720   29.4930   45.2710 C   0  0  0  0  0  3  0  0  0  0  0  0
   31.8010   31.0060   43.1980 O   0  0  0  0  0  0  0  0  0  0  0  0
   32.8690   31.9100   42.8950 C   0  0  0  0  0  3  0  0  0  0  0  0
   32.8360   32.8200   43.5530 H   0  0  0  0  0  0  0  0  0  0  0  0
   33.9670   31.1520   43.4220 O   0  0  0  0  0  0  0  0  0  0  0  0
   37.8370   31.8600   49.6460 C   0  0  0  0  0  0  0  0  0  0  0  0
   36.8720   32.3690   50.2870 O   0  0  0  0  0  0  0  0  0  0  0  0
   38.6640   32.6200   48.7440 C   0  0  0  0  0  0  0  0  0  0  0  0
   39.1710   33.8280   49.1990 C   0  0  0  0  0  0  0  0  0  0  0  0
   39.9790   34.5790   48.3170 C   0  0  0  0  0  0  0  0  0  0  0  0
   40.2130   34.0680   47.0720 N   0  0  0  0  0  0  0  0  0  0  0  0
   39.7090   32.9030   46.6710 C   0  0  0  0  0  0  0  0  0  0  0  0
   38.9350   32.1770   47.5050 N   0  0  0  0  0  0  0  0  0  0  0  0
   39.0150   34.2670   50.1630 H   0  0  0  0  0  0  0  0  0  0  0  0
   40.3950   35.5150   48.6140 H   0  0  0  0  0  0  0  0  0  0  0  0
   39.8790   32.4760   45.6870 H   0  0  0  0  0  0  0  0  0  0  0  0
  1 17  1  6  0  0  0
  1 13  1  0  0  0  0
  1  2  1  0  0  0  0
  2  3  1  0  0  0  0
  2  9  1  0  0  0  0
  3  4  1  0  0  0  0
  4  5  2  0  0  0  0
  6 11  1  6  0  0  0
  6  4  1  0  0  0  0
  7 12  1  6  0  0  0
  7  6  1  0  0  0  0
  7  3  1  0  0  0  0
  8  1  1  0  0  0  0
  8  7  1  0  0  0  0
 10  2  1  0  0  0  0
 13 16  1  0  0  0  0
 13 15  1  0  0  0  0
 14 13  1  0  0  0  0
 17 19  1  0  0  0  0
 18 17  1  0  0  0  0
 20 21  1  0  0  0  0
 21 17  1  0  0  0  0
 22 23  1  0  0  0  0
 22 21  2  0  0  0  0
 24 22  1  0  0  0  0
 25 24  2  0  0  0  0
 25 26  1  0  0  0  0
 26 20  2  0  0  0  0
 27 25  1  0  0  0  0
 28 27  1  0  0  0  0
 28 30  1  0  0  0  0
 28 29  1  0  0  0  0
 30 24  1  0  0  0  0
 31  6  1  0  0  0  0
 31 32  2  0  0  0  0
 33 34  1  0  0  0  0
 33 31  1  0  0  0  0
 34 39  1  0  0  0  0
 35 40  1  0  0  0  0
 35 34  2  0  0  0  0
 36 35  1  0  0  0  0
 37 36  2  0  0  0  0
 37 38  1  0  0  0  0
 38 33  2  0  0  0  0
 41 37  1  0  0  0  0
M  END
>  <minimizedAffinity>
-5.3214283

>  <minimizedRMSD>
0.438380539

$$$$
