
 OpenBabel03262522033D

 41 45  0  0  1  0  0  0  0  0999 V2000
   34.3550   29.1450   49.0180 C   0  0  2  0  0  0  0  0  0  0  0  0
   35.0860   28.3970   50.0810 C   0  0  0  0  0  0  0  0  0  0  0  0
   36.2940   29.1340   50.4270 N   0  0  0  0  0  0  0  0  0  0  0  0
   37.3350   29.8350   51.1230 C   0  0  0  0  0  0  0  0  0  0  0  0
   37.6840   30.0200   52.3070 O   0  0  0  0  0  0  0  0  0  0  0  0
   37.9540   30.3360   49.8990 C   0  0  1  0  0  0  0  0  0  0  0  0
   37.0370   29.3570   49.2130 C   0  0  2  0  0  0  0  0  0  0  0  0
   35.7040   30.1090   48.2260 S   0  0  0  0  0  0  0  0  0  0  0  0
   34.4670   28.3100   51.0020 H   0  0  0  0  0  0  0  0  0  0  0  0
   35.3780   27.4060   49.7020 H   0  0  0  0  0  0  0  0  0  0  0  0
   39.0060   30.0570   49.7100 H   0  0  0  0  0  0  0  0  0  0  0  0
   37.5090   28.4780   48.7610 H   0  0  0  0  0  0  0  0  0  0  0  0
   33.2170   29.9940   49.4810 C   0  0  0  0  0  0  0  0  0  0  0  0
   32.7250   30.4230   48.6100 H   0  0  0  0  0  0  0  0  0  0  0  0
   33.6690   30.7830   50.1450 H   0  0  0  0  0  0  0  0  0  0  0  0
   32.6030   29.3820   50.1480 H   0  0  0  0  0  0  0  0  0  0  0  0
   33.9120   28.1560   47.9290 C   0  0  0  0  0  0  0  0  0  0  0  0
   34.4150   28.4370   46.9830 H   0  0  0  0  0  0  0  0  0  0  0  0
   34.3270   27.1560   48.1950 H   0  0  0  0  0  0  0  0  0  0  0  0
   31.9050   28.7810   46.6720 C   0  0  0  0  0  3  0  0  0  0  0  0
   32.4380   28.1220   47.7790 C   0  0  0  0  0  0  0  0  0  0  0  0
   31.5720   27.4910   48.6470 C   0  0  0  0  0  0  0  0  0  0  0  0
   31.9940   26.9920   49.4870 H   0  0  0  0  0  0  0  0  0  0  0  0
   30.2200   27.5450   48.3780 C   0  0  0  0  0  0  0  0  0  0  0  0
   29.6560   28.1870   47.2940 C   0  0  0  0  0  0  0  0  0  0  0  0
   30.5320   28.8100   46.4380 C   0  0  0  0  0  3  0  0  0  0  0  0
   28.2780   27.9930   47.4090 O   0  0  0  0  0  0  0  0  0  0  0  0
   28.0140   26.8900   48.2840 C   0  0  0  0  0  3  0  0  0  0  0  0
   28.1430   25.9060   47.7560 H   0  0  0  0  0  0  0  0  0  0  0  0
   29.1750   26.9780   49.1200 O   0  0  0  0  0  0  0  0  0  0  0  0
   37.7400   31.7640   49.6050 C   0  0  0  0  0  0  0  0  0  0  0  0
   36.7610   32.2760   50.2200 O   0  0  0  0  0  0  0  0  0  0  0  0
   38.5750   32.5130   48.7020 C   0  0  0  0  0  0  0  0  0  0  0  0
   39.1030   33.7110   49.1570 C   0  0  0  0  0  0  0  0  0  0  0  0
   39.9190   34.4520   48.2740 C   0  0  0  0  0  0  0  0  0  0  0  0
   40.1380   33.9420   47.0260 N   0  0  0  0  0  0  0  0  0  0  0  0
   39.6140   32.7860   46.6250 C   0  0  0  0  0  0  0  0  0  0  0  0
   38.8320   32.0700   47.4590 N   0  0  0  0  0  0  0  0  0  0  0  0
   38.9590   34.1500   50.1240 H   0  0  0  0  0  0  0  0  0  0  0  0
   40.3520   35.3800   48.5720 H   0  0  0  0  0  0  0  0  0  0  0  0
   39.7730   32.3600   45.6380 H   0  0  0  0  0  0  0  0  0  0  0  0
  1 17  1  6  0  0  0
  1 13  1  0  0  0  0
  1  2  1  0  0  0  0
  2  3  1  0  0  0  0
  2  9  1  0  0  0  0
  3  4  1  0  0  0  0
  4  5  2  0  0  0  0
  6 11  1  6  0  0  0
  6  4  1  0  0  0  0
  7 12  1  6  0  0  0
  7  6  1  0  0  0  0
  7  3  1  0  0  0  0
  8  1  1  0  0  0  0
  8  7  1  0  0  0  0
 10  2  1  0  0  0  0
 13 15  1  0  0  0  0
 13 16  1  0  0  0  0
 14 13  1  0  0  0  0
 17 19  1  0  0  0  0
 18 17  1  0  0  0  0
 20 21  1  0  0  0  0
 21 17  1  0  0  0  0
 21 22  2  0  0  0  0
 22 23  1  0  0  0  0
 24 22  1  0  0  0  0
 24 30  1  0  0  0  0
 25 27  1  0  0  0  0
 25 24  2  0  0  0  0
 26 20  2  0  0  0  0
 26 25  1  0  0  0  0
 27 28  1  0  0  0  0
 28 30  1  0  0  0  0
 29 28  1  0  0  0  0
 31  6  1  0  0  0  0
 31 32  2  0  0  0  0
 33 34  1  0  0  0  0
 33 31  1  0  0  0  0
 34 39  1  0  0  0  0
 35 40  1  0  0  0  0
 35 34  2  0  0  0  0
 36 35  1  0  0  0  0
 37 36  2  0  0  0  0
 37 38  1  0  0  0  0
 38 33  2  0  0  0  0
 41 37  1  0  0  0  0
M  END
>  <minimizedAffinity>
-5.8737402

>  <minimizedRMSD>
2.84269166

$$$$
