
 OpenBabel03262522043D

 41 45  0  0  1  0  0  0  0  0999 V2000
   37.2620   24.8550   31.5080 C   0  0  2  0  0  0  0  0  0  0  0  0
   37.8710   23.7550   30.7050 C   0  0  0  0  0  0  0  0  0  0  0  0
   38.1770   22.6410   31.5920 N   0  0  0  0  0  0  0  0  0  0  0  0
   38.2650   21.3490   32.2110 C   0  0  0  0  0  0  0  0  0  0  0  0
   37.9950   20.1680   31.9120 O   0  0  0  0  0  0  0  0  0  0  0  0
   38.8330   21.8710   33.4510 C   0  0  1  0  0  0  0  0  0  0  0  0
   38.9990   23.1440   32.6640 C   0  0  2  0  0  0  0  0  0  0  0  0
   37.9270   24.5210   33.1880 S   0  0  0  0  0  0  0  0  0  0  0  0
   37.1590   23.3870   29.9330 H   0  0  0  0  0  0  0  0  0  0  0  0
   38.8080   24.1060   30.2480 H   0  0  0  0  0  0  0  0  0  0  0  0
   39.8230   21.4900   33.7580 H   0  0  0  0  0  0  0  0  0  0  0  0
   40.0240   23.4280   32.4020 H   0  0  0  0  0  0  0  0  0  0  0  0
   35.7720   24.9430   31.4710 C   0  0  0  0  0  0  0  0  0  0  0  0
   35.4610   25.8240   32.0310 H   0  0  0  0  0  0  0  0  0  0  0  0
   35.3930   23.9900   31.9340 H   0  0  0  0  0  0  0  0  0  0  0  0
   35.4670   24.8870   30.4220 H   0  0  0  0  0  0  0  0  0  0  0  0
   37.9150   26.1860   31.1040 C   0  0  0  0  0  0  0  0  0  0  0  0
   38.9560   26.1870   31.4810 H   0  0  0  0  0  0  0  0  0  0  0  0
   38.0060   26.1910   29.9930 H   0  0  0  0  0  0  0  0  0  0  0  0
   36.6250   28.2160   30.6400 C   0  0  0  0  0  3  0  0  0  0  0  0
   37.1480   27.3520   31.6020 C   0  0  0  0  0  0  0  0  0  0  0  0
   36.9210   27.6360   32.9320 C   0  0  0  0  0  0  0  0  0  0  0  0
   37.3260   26.9670   33.6530 H   0  0  0  0  0  0  0  0  0  0  0  0
   36.1860   28.7610   33.2460 C   0  0  0  0  0  0  0  0  0  0  0  0
   35.6530   29.6380   32.3240 C   0  0  0  0  0  0  0  0  0  0  0  0
   35.8880   29.3410   31.0020 C   0  0  0  0  0  3  0  0  0  0  0  0
   34.9950   30.6210   33.0650 O   0  0  0  0  0  0  0  0  0  0  0  0
   34.7390   30.1400   34.3900 C   0  0  0  0  0  3  0  0  0  0  0  0
   33.8390   29.4690   34.4160 H   0  0  0  0  0  0  0  0  0  0  0  0
   35.8400   29.2310   34.5210 O   0  0  0  0  0  0  0  0  0  0  0  0
   37.9210   21.9190   34.6090 C   0  0  0  0  0  0  0  0  0  0  0  0
   36.7500   21.5120   34.3600 O   0  0  0  0  0  0  0  0  0  0  0  0
   38.3280   22.3840   35.9100 C   0  0  0  0  0  0  0  0  0  0  0  0
   39.6590   22.2240   36.2630 C   0  0  0  0  0  0  0  0  0  0  0  0
   40.0630   22.6750   37.5400 C   0  0  0  0  0  0  0  0  0  0  0  0
   39.1170   23.2410   38.3460 N   0  0  0  0  0  0  0  0  0  0  0  0
   37.8470   23.3790   37.9710 C   0  0  0  0  0  0  0  0  0  0  0  0
   37.4500   22.9520   36.7540 N   0  0  0  0  0  0  0  0  0  0  0  0
   40.4330   21.7870   35.6660 H   0  0  0  0  0  0  0  0  0  0  0  0
   41.0740   22.5770   37.8640 H   0  0  0  0  0  0  0  0  0  0  0  0
   37.0770   23.8250   38.5940 H   0  0  0  0  0  0  0  0  0  0  0  0
  1 17  1  6  0  0  0
  1  8  1  0  0  0  0
  2  1  1  0  0  0  0
  2  3  1  0  0  0  0
  3  4  1  0  0  0  0
  3  7  1  0  0  0  0
  4  6  1  0  0  0  0
  5  4  2  0  0  0  0
  6 11  1  1  0  0  0
  6 31  1  0  0  0  0
  7 12  1  6  0  0  0
  7  8  1  0  0  0  0
  7  6  1  0  0  0  0
  9  2  1  0  0  0  0
 10  2  1  0  0  0  0
 13  1  1  0  0  0  0
 13 15  1  0  0  0  0
 13 14  1  0  0  0  0
 16 13  1  0  0  0  0
 17 18  1  0  0  0  0
 17 21  1  0  0  0  0
 19 17  1  0  0  0  0
 20 26  2  0  0  0  0
 20 21  1  0  0  0  0
 21 22  2  0  0  0  0
 22 24  1  0  0  0  0
 22 23  1  0  0  0  0
 24 30  1  0  0  0  0
 25 27  1  0  0  0  0
 25 24  2  0  0  0  0
 26 25  1  0  0  0  0
 27 28  1  0  0  0  0
 28 29  1  0  0  0  0
 28 30  1  0  0  0  0
 31 33  1  0  0  0  0
 32 31  2  0  0  0  0
 33 34  2  0  0  0  0
 33 38  1  0  0  0  0
 34 35  1  0  0  0  0
 35 40  1  0  0  0  0
 35 36  2  0  0  0  0
 37 36  1  0  0  0  0
 37 41  1  0  0  0  0
 38 37  2  0  0  0  0
 39 34  1  0  0  0  0
M  END
>  <minimizedAffinity>
-5.93795967

$$$$

 OpenBabel03262522043D

 41 45  0  0  1  0  0  0  0  0999 V2000
   38.3600   26.4720   32.8640 C   0  0  2  0  0  0  0  0  0  0  0  0
   39.4110   26.2590   31.8270 C   0  0  0  0  0  0  0  0  0  0  0  0
   39.1270   25.0190   31.1190 N   0  0  0  0  0  0  0  0  0  0  0  0
   38.8640   24.0280   30.1140 C   0  0  0  0  0  0  0  0  0  0  0  0
   38.9290   23.9440   28.8710 O   0  0  0  0  0  0  0  0  0  0  0  0
   38.4450   23.0150   31.0780 C   0  0  1  0  0  0  0  0  0  0  0  0
   39.0100   23.9690   32.0990 C   0  0  2  0  0  0  0  0  0  0  0  0
   37.7770   24.7600   33.1820 S   0  0  0  0  0  0  0  0  0  0  0  0
   39.4050   27.0850   31.0810 H   0  0  0  0  0  0  0  0  0  0  0  0
   40.3950   26.1680   32.3110 H   0  0  0  0  0  0  0  0  0  0  0  0
   39.0120   22.0670   31.1000 H   0  0  0  0  0  0  0  0  0  0  0  0
   39.9350   23.6610   32.5970 H   0  0  0  0  0  0  0  0  0  0  0  0
   37.2590   27.4110   32.4930 C   0  0  0  0  0  0  0  0  0  0  0  0
   36.6040   27.5370   33.3550 H   0  0  0  0  0  0  0  0  0  0  0  0
   36.7270   26.9360   31.6220 H   0  0  0  0  0  0  0  0  0  0  0  0
   37.7220   28.3130   32.0840 H   0  0  0  0  0  0  0  0  0  0  0  0
   39.0360   26.8900   34.1790 C   0  0  0  0  0  0  0  0  0  0  0  0
   40.0070   27.3610   33.9320 H   0  0  0  0  0  0  0  0  0  0  0  0
   38.4210   27.7040   34.6290 H   0  0  0  0  0  0  0  0  0  0  0  0
   38.1730   25.5280   36.0240 C   0  0  0  0  0  3  0  0  0  0  0  0
   39.2000   25.7440   35.1050 C   0  0  0  0  0  0  0  0  0  0  0  0
   40.2830   24.8900   35.1180 C   0  0  0  0  0  0  0  0  0  0  0  0
   41.0570   25.0670   34.4100 H   0  0  0  0  0  0  0  0  0  0  0  0
   40.2960   23.8640   36.0410 C   0  0  0  0  0  0  0  0  0  0  0  0
   39.3000   23.6180   36.9630 C   0  0  0  0  0  0  0  0  0  0  0  0
   38.2280   24.4790   36.9380 C   0  0  0  0  0  3  0  0  0  0  0  0
   39.7150   22.5000   37.6870 O   0  0  0  0  0  0  0  0  0  0  0  0
   40.7220   21.7930   36.9540 C   0  0  0  0  0  3  0  0  0  0  0  0
   40.2700   21.1490   36.1520 H   0  0  0  0  0  0  0  0  0  0  0  0
   41.2880   22.8900   36.2250 O   0  0  0  0  0  0  0  0  0  0  0  0
   36.9970   22.7490   31.1480 C   0  0  0  0  0  0  0  0  0  0  0  0
   36.2770   23.7040   30.7370 O   0  0  0  0  0  0  0  0  0  0  0  0
   36.4490   21.5100   31.6360 C   0  0  0  0  0  0  0  0  0  0  0  0
   36.0800   21.4500   32.9700 C   0  0  0  0  0  0  0  0  0  0  0  0
   35.5460   20.2350   33.4550 C   0  0  0  0  0  0  0  0  0  0  0  0
   35.4250   19.1960   32.5780 N   0  0  0  0  0  0  0  0  0  0  0  0
   35.7900   19.2910   31.3010 C   0  0  0  0  0  0  0  0  0  0  0  0
   36.3020   20.4460   30.8270 N   0  0  0  0  0  0  0  0  0  0  0  0
   36.1570   22.2370   33.6930 H   0  0  0  0  0  0  0  0  0  0  0  0
   35.2460   20.1330   34.4730 H   0  0  0  0  0  0  0  0  0  0  0  0
   35.7040   18.4790   30.5850 H   0  0  0  0  0  0  0  0  0  0  0  0
  1 13  1  6  0  0  0
  1  8  1  0  0  0  0
  1 17  1  0  0  0  0
  2 10  1  0  0  0  0
  2  1  1  0  0  0  0
  3  2  1  0  0  0  0
  3  7  1  0  0  0  0
  4  6  1  0  0  0  0
  4  3  1  0  0  0  0
  5  4  2  0  0  0  0
  6 11  1  6  0  0  0
  6 31  1  0  0  0  0
  6  7  1  0  0  0  0
  7 12  1  1  0  0  0
  7  8  1  0  0  0  0
  9  2  1  0  0  0  0
 13 14  1  0  0  0  0
 15 13  1  0  0  0  0
 16 13  1  0  0  0  0
 17 19  1  0  0  0  0
 17 21  1  0  0  0  0
 18 17  1  0  0  0  0
 20 26  1  0  0  0  0
 21 22  1  0  0  0  0
 21 20  2  0  0  0  0
 22 24  2  0  0  0  0
 23 22  1  0  0  0  0
 24 30  1  0  0  0  0
 24 25  1  0  0  0  0
 25 27  1  0  0  0  0
 26 25  2  0  0  0  0
 28 27  1  0  0  0  0
 29 28  1  0  0  0  0
 30 28  1  0  0  0  0
 31 33  1  0  0  0  0
 32 31  2  0  0  0  0
 33 34  1  0  0  0  0
 34 35  2  0  0  0  0
 34 39  1  0  0  0  0
 35 40  1  0  0  0  0
 36 35  1  0  0  0  0
 37 36  2  0  0  0  0
 38 37  1  0  0  0  0
 38 33  2  0  0  0  0
 41 37  1  0  0  0  0
M  END
>  <minimizedAffinity>
-5.71754122

$$$$

 OpenBabel03262522043D

 41 45  0  0  1  0  0  0  0  0999 V2000
   39.3330   26.2320   34.3910 C   0  0  2  0  0  0  0  0  0  0  0  0
   40.2190   26.7060   33.2890 C   0  0  0  0  0  0  0  0  0  0  0  0
   39.3960   27.0300   32.1320 N   0  0  0  0  0  0  0  0  0  0  0  0
   38.7660   27.6880   31.0230 C   0  0  0  0  0  0  0  0  0  0  0  0
   38.9340   28.7310   30.3590 O   0  0  0  0  0  0  0  0  0  0  0  0
   37.7390   26.6610   30.8670 C   0  0  1  0  0  0  0  0  0  0  0  0
   38.5960   25.8710   31.8220 C   0  0  2  0  0  0  0  0  0  0  0  0
   37.8710   25.6060   33.4720 S   0  0  0  0  0  0  0  0  0  0  0  0
   40.7630   27.6300   33.5870 H   0  0  0  0  0  0  0  0  0  0  0  0
   40.9180   25.9050   33.0070 H   0  0  0  0  0  0  0  0  0  0  0  0
   37.6850   26.1380   29.8950 H   0  0  0  0  0  0  0  0  0  0  0  0
   39.1270   25.0090   31.4050 H   0  0  0  0  0  0  0  0  0  0  0  0
   38.9850   27.2460   35.4320 C   0  0  0  0  0  0  0  0  0  0  0  0
   38.4020   26.7590   36.2120 H   0  0  0  0  0  0  0  0  0  0  0  0
   38.3990   28.0470   34.9000 H   0  0  0  0  0  0  0  0  0  0  0  0
   39.9160   27.7340   35.7370 H   0  0  0  0  0  0  0  0  0  0  0  0
   39.9500   24.9720   35.0190 C   0  0  0  0  0  0  0  0  0  0  0  0
   40.7400   24.6010   34.3380 H   0  0  0  0  0  0  0  0  0  0  0  0
   40.4850   25.2860   35.9450 H   0  0  0  0  0  0  0  0  0  0  0  0
   38.3870   23.9110   36.5800 C   0  0  0  0  0  3  0  0  0  0  0  0
   38.9280   23.9340   35.2940 C   0  0  0  0  0  0  0  0  0  0  0  0
   38.4830   23.0030   34.3790 C   0  0  0  0  0  0  0  0  0  0  0  0
   38.9040   23.0350   33.4020 H   0  0  0  0  0  0  0  0  0  0  0  0
   37.5240   22.0960   34.7810 C   0  0  0  0  0  0  0  0  0  0  0  0
   36.9660   22.0440   36.0420 C   0  0  0  0  0  0  0  0  0  0  0  0
   37.4210   22.9770   36.9430 C   0  0  0  0  0  3  0  0  0  0  0  0
   36.0530   20.9890   36.0130 O   0  0  0  0  0  0  0  0  0  0  0  0
   35.7170   20.6740   34.6570 C   0  0  0  0  0  3  0  0  0  0  0  0
   34.9560   21.3900   34.2440 H   0  0  0  0  0  0  0  0  0  0  0  0
   36.9370   21.0770   34.0190 O   0  0  0  0  0  0  0  0  0  0  0  0
   36.3880   27.0230   31.3310 C   0  0  0  0  0  0  0  0  0  0  0  0
   35.5600   26.0660   31.3050 O   0  0  0  0  0  0  0  0  0  0  0  0
   36.0400   28.3460   31.7810 C   0  0  0  0  0  0  0  0  0  0  0  0
   36.0210   28.5770   33.1470 C   0  0  0  0  0  0  0  0  0  0  0  0
   35.6760   29.8720   33.5940 C   0  0  0  0  0  0  0  0  0  0  0  0
   35.3840   30.8160   32.6510 N   0  0  0  0  0  0  0  0  0  0  0  0
   35.4130   30.5560   31.3460 C   0  0  0  0  0  0  0  0  0  0  0  0
   35.7400   29.3230   30.9080 N   0  0  0  0  0  0  0  0  0  0  0  0
   36.2410   27.8700   33.9210 H   0  0  0  0  0  0  0  0  0  0  0  0
   35.6460   30.1060   34.6340 H   0  0  0  0  0  0  0  0  0  0  0  0
   35.1840   31.2900   30.5780 H   0  0  0  0  0  0  0  0  0  0  0  0
  1 17  1  1  0  0  0
  1 13  1  0  0  0  0
  2  9  1  0  0  0  0
  2  1  1  0  0  0  0
  3  2  1  0  0  0  0
  4  3  1  0  0  0  0
  5  4  2  0  0  0  0
  6 11  1  6  0  0  0
  6  4  1  0  0  0  0
  6 31  1  0  0  0  0
  6  7  1  0  0  0  0
  7 12  1  6  0  0  0
  7  3  1  0  0  0  0
  7  8  1  0  0  0  0
  8  1  1  0  0  0  0
 10  2  1  0  0  0  0
 13 16  1  0  0  0  0
 13 14  1  0  0  0  0
 15 13  1  0  0  0  0
 17 21  1  0  0  0  0
 17 19  1  0  0  0  0
 18 17  1  0  0  0  0
 20 26  1  0  0  0  0
 21 20  2  0  0  0  0
 22 24  2  0  0  0  0
 22 21  1  0  0  0  0
 23 22  1  0  0  0  0
 24 25  1  0  0  0  0
 25 26  2  0  0  0  0
 27 25  1  0  0  0  0
 28 27  1  0  0  0  0
 29 28  1  0  0  0  0
 30 28  1  0  0  0  0
 30 24  1  0  0  0  0
 31 33  1  0  0  0  0
 32 31  2  0  0  0  0
 33 34  1  0  0  0  0
 34 35  2  0  0  0  0
 34 39  1  0  0  0  0
 35 40  1  0  0  0  0
 36 35  1  0  0  0  0
 37 36  2  0  0  0  0
 38 37  1  0  0  0  0
 38 33  2  0  0  0  0
 41 37  1  0  0  0  0
M  END
>  <minimizedAffinity>
-5.51727486

$$$$

 OpenBabel03262522043D

 41 45  0  0  1  0  0  0  0  0999 V2000
   37.3980   26.3310   31.9410 C   0  0  2  0  0  0  0  0  0  0  0  0
   38.3710   25.6620   31.0290 C   0  0  0  0  0  0  0  0  0  0  0  0
   38.8940   24.4750   31.6920 N   0  0  0  0  0  0  0  0  0  0  0  0
   39.2870   23.1350   32.0240 C   0  0  0  0  0  0  0  0  0  0  0  0
   39.3950   22.0390   31.4360 O   0  0  0  0  0  0  0  0  0  0  0  0
   39.5580   23.4520   33.4230 C   0  0  1  0  0  0  0  0  0  0  0  0
   39.4290   24.8830   32.9670 C   0  0  2  0  0  0  0  0  0  0  0  0
   37.9640   25.7640   33.5940 S   0  0  0  0  0  0  0  0  0  0  0  0
   37.8720   25.3330   30.0900 H   0  0  0  0  0  0  0  0  0  0  0  0
   39.2090   26.3420   30.8180 H   0  0  0  0  0  0  0  0  0  0  0  0
   40.5810   23.2710   33.7970 H   0  0  0  0  0  0  0  0  0  0  0  0
   40.3510   25.4740   32.9430 H   0  0  0  0  0  0  0  0  0  0  0  0
   35.9560   26.0450   31.6800 C   0  0  0  0  0  0  0  0  0  0  0  0
   35.3540   26.6470   32.3590 H   0  0  0  0  0  0  0  0  0  0  0  0
   35.8220   24.9420   31.8590 H   0  0  0  0  0  0  0  0  0  0  0  0
   35.7840   26.1810   30.6090 H   0  0  0  0  0  0  0  0  0  0  0  0
   37.6800   27.8420   31.9460 C   0  0  0  0  0  0  0  0  0  0  0  0
   38.5540   28.0270   32.6000 H   0  0  0  0  0  0  0  0  0  0  0  0
   38.0170   28.1240   30.9210 H   0  0  0  0  0  0  0  0  0  0  0  0
   36.1930   28.6090   33.7350 C   0  0  0  0  0  3  0  0  0  0  0  0
   36.4960   28.6240   32.3740 C   0  0  0  0  0  0  0  0  0  0  0  0
   35.6860   29.3540   31.5290 C   0  0  0  0  0  0  0  0  0  0  0  0
   35.9320   29.3560   30.4940 H   0  0  0  0  0  0  0  0  0  0  0  0
   34.6150   30.0330   32.0730 C   0  0  0  0  0  0  0  0  0  0  0  0
   34.2850   30.0430   33.4130 C   0  0  0  0  0  0  0  0  0  0  0  0
   35.1020   29.3100   34.2420 C   0  0  0  0  0  3  0  0  0  0  0  0
   33.1480   30.8450   33.5210 O   0  0  0  0  0  0  0  0  0  0  0  0
   33.0280   31.6760   32.3620 C   0  0  0  0  0  3  0  0  0  0  0  0
   33.7070   32.5690   32.4240 H   0  0  0  0  0  0  0  0  0  0  0  0
   33.6760   30.8290   31.4030 O   0  0  0  0  0  0  0  0  0  0  0  0
   38.5620   22.9740   34.3990 C   0  0  0  0  0  0  0  0  0  0  0  0
   37.5130   22.4990   33.8750 O   0  0  0  0  0  0  0  0  0  0  0  0
   38.7650   23.0370   35.8230 C   0  0  0  0  0  0  0  0  0  0  0  0
   37.7470   23.5730   36.5960 C   0  0  0  0  0  0  0  0  0  0  0  0
   37.9430   23.6420   37.9930 C   0  0  0  0  0  0  0  0  0  0  0  0
   39.1230   23.1730   38.4960 N   0  0  0  0  0  0  0  0  0  0  0  0
   40.0790   22.6640   37.7220 C   0  0  0  0  0  0  0  0  0  0  0  0
   39.9030   22.5940   36.3850 N   0  0  0  0  0  0  0  0  0  0  0  0
   36.8080   23.9520   36.2460 H   0  0  0  0  0  0  0  0  0  0  0  0
   37.1940   24.0450   38.6350 H   0  0  0  0  0  0  0  0  0  0  0  0
   41.0260   22.2860   38.0980 H   0  0  0  0  0  0  0  0  0  0  0  0
  1 13  1  6  0  0  0
  1 17  1  0  0  0  0
  1  8  1  0  0  0  0
  2  3  1  0  0  0  0
  2  1  1  0  0  0  0
  3  4  1  0  0  0  0
  3  7  1  0  0  0  0
  4  6  1  0  0  0  0
  5  4  2  0  0  0  0
  6 11  1  1  0  0  0
  6 31  1  0  0  0  0
  7 12  1  6  0  0  0
  7  6  1  0  0  0  0
  7  8  1  0  0  0  0
  9  2  1  0  0  0  0
 10  2  1  0  0  0  0
 13 15  1  0  0  0  0
 13 14  1  0  0  0  0
 16 13  1  0  0  0  0
 17 21  1  0  0  0  0
 17 18  1  0  0  0  0
 19 17  1  0  0  0  0
 20 26  1  0  0  0  0
 21 20  2  0  0  0  0
 22 24  2  0  0  0  0
 22 21  1  0  0  0  0
 23 22  1  0  0  0  0
 24 25  1  0  0  0  0
 25 27  1  0  0  0  0
 25 26  2  0  0  0  0
 28 29  1  0  0  0  0
 28 27  1  0  0  0  0
 30 24  1  0  0  0  0
 30 28  1  0  0  0  0
 31 33  1  0  0  0  0
 32 31  2  0  0  0  0
 33 38  2  0  0  0  0
 33 34  1  0  0  0  0
 34 35  2  0  0  0  0
 35 36  1  0  0  0  0
 35 40  1  0  0  0  0
 37 41  1  0  0  0  0
 37 36  2  0  0  0  0
 38 37  1  0  0  0  0
 39 34  1  0  0  0  0
M  END
>  <minimizedAffinity>
-5.46577978

$$$$

 OpenBabel03262522043D

 41 45  0  0  1  0  0  0  0  0999 V2000
   38.4070   26.7600   32.9410 C   0  0  2  0  0  0  0  0  0  0  0  0
   38.5880   27.3530   31.5840 C   0  0  0  0  0  0  0  0  0  0  0  0
   37.5700   28.3730   31.3780 N   0  0  0  0  0  0  0  0  0  0  0  0
   36.8740   29.5970   31.1000 C   0  0  0  0  0  0  0  0  0  0  0  0
   37.1410   30.7130   30.6100 O   0  0  0  0  0  0  0  0  0  0  0  0
   35.5990   29.1080   31.6190 C   0  0  1  0  0  0  0  0  0  0  0  0
   36.2840   27.7660   31.6160 C   0  0  2  0  0  0  0  0  0  0  0  0
   36.6260   27.0700   33.2640 S   0  0  0  0  0  0  0  0  0  0  0  0
   39.5830   27.8450   31.4960 H   0  0  0  0  0  0  0  0  0  0  0  0
   38.4610   26.5720   30.8190 H   0  0  0  0  0  0  0  0  0  0  0  0
   34.7400   29.0900   30.9240 H   0  0  0  0  0  0  0  0  0  0  0  0
   35.9400   27.0430   30.8690 H   0  0  0  0  0  0  0  0  0  0  0  0
   39.3020   27.2930   34.0110 C   0  0  0  0  0  0  0  0  0  0  0  0
   39.1230   26.7300   34.9260 H   0  0  0  0  0  0  0  0  0  0  0  0
   39.0380   28.3810   34.1230 H   0  0  0  0  0  0  0  0  0  0  0  0
   40.3220   27.2890   33.6160 H   0  0  0  0  0  0  0  0  0  0  0  0
   38.5080   25.2300   32.8320 C   0  0  0  0  0  0  0  0  0  0  0  0
   37.5480   24.8490   32.4340 H   0  0  0  0  0  0  0  0  0  0  0  0
   39.2640   24.9990   32.0470 H   0  0  0  0  0  0  0  0  0  0  0  0
   40.1510   24.1190   34.2710 C   0  0  0  0  0  3  0  0  0  0  0  0
   38.8510   24.6060   34.1320 C   0  0  0  0  0  0  0  0  0  0  0  0
   37.9840   24.4740   35.1970 C   0  0  0  0  0  0  0  0  0  0  0  0
   36.9970   24.8510   35.0750 H   0  0  0  0  0  0  0  0  0  0  0  0
   38.4470   23.8680   36.3470 C   0  0  0  0  0  0  0  0  0  0  0  0
   39.7240   23.3760   36.5210 C   0  0  0  0  0  0  0  0  0  0  0  0
   40.5760   23.5140   35.4510 C   0  0  0  0  0  3  0  0  0  0  0  0
   39.7610   22.8550   37.8150 O   0  0  0  0  0  0  0  0  0  0  0  0
   38.6860   23.4000   38.5890 C   0  0  0  0  0  3  0  0  0  0  0  0
   38.9290   24.4320   38.9610 H   0  0  0  0  0  0  0  0  0  0  0  0
   37.7410   23.6360   37.5360 O   0  0  0  0  0  0  0  0  0  0  0  0
   35.1880   29.6410   32.9300 C   0  0  0  0  0  0  0  0  0  0  0  0
   36.0840   30.3130   33.5180 O   0  0  0  0  0  0  0  0  0  0  0  0
   33.8800   29.4210   33.4920 C   0  0  0  0  0  0  0  0  0  0  0  0
   33.7190   29.6350   34.8510 C   0  0  0  0  0  0  0  0  0  0  0  0
   32.4400   29.4170   35.4090 C   0  0  0  0  0  0  0  0  0  0  0  0
   31.4400   29.0100   34.5720 N   0  0  0  0  0  0  0  0  0  0  0  0
   31.6320   28.8160   33.2690 C   0  0  0  0  0  0  0  0  0  0  0  0
   32.8500   29.0200   32.7260 N   0  0  0  0  0  0  0  0  0  0  0  0
   34.4720   29.9520   35.5440 H   0  0  0  0  0  0  0  0  0  0  0  0
   32.2590   29.5660   36.4490 H   0  0  0  0  0  0  0  0  0  0  0  0
   30.8530   28.4930   32.5840 H   0  0  0  0  0  0  0  0  0  0  0  0
  1 17  1  6  0  0  0
  1  8  1  0  0  0  0
  1 13  1  0  0  0  0
  2  1  1  0  0  0  0
  3  2  1  0  0  0  0
  3  7  1  0  0  0  0
  4  3  1  0  0  0  0
  4  6  1  0  0  0  0
  5  4  2  0  0  0  0
  6 11  1  6  0  0  0
  6 31  1  0  0  0  0
  7 12  1  6  0  0  0
  7  6  1  0  0  0  0
  7  8  1  0  0  0  0
  9  2  1  0  0  0  0
 10  2  1  0  0  0  0
 13 15  1  0  0  0  0
 13 14  1  0  0  0  0
 16 13  1  0  0  0  0
 17 21  1  0  0  0  0
 18 17  1  0  0  0  0
 19 17  1  0  0  0  0
 20 26  1  0  0  0  0
 21 20  2  0  0  0  0
 21 22  1  0  0  0  0
 22 24  2  0  0  0  0
 23 22  1  0  0  0  0
 24 25  1  0  0  0  0
 24 30  1  0  0  0  0
 25 27  1  0  0  0  0
 26 25  2  0  0  0  0
 27 28  1  0  0  0  0
 28 29  1  0  0  0  0
 30 28  1  0  0  0  0
 31 33  1  0  0  0  0
 31 32  2  0  0  0  0
 33 34  1  0  0  0  0
 34 35  2  0  0  0  0
 34 39  1  0  0  0  0
 35 40  1  0  0  0  0
 36 35  1  0  0  0  0
 37 36  2  0  0  0  0
 38 37  1  0  0  0  0
 38 33  2  0  0  0  0
 41 37  1  0  0  0  0
M  END
>  <minimizedAffinity>
-5.46574688

$$$$

 OpenBabel03262522043D

 41 45  0  0  1  0  0  0  0  0999 V2000
   37.1920   24.3980   31.9400 C   0  0  2  0  0  0  0  0  0  0  0  0
   37.0360   25.7120   32.6290 C   0  0  0  0  0  0  0  0  0  0  0  0
   38.0810   25.8430   33.6340 N   0  0  0  0  0  0  0  0  0  0  0  0
   39.1830   26.2980   34.4340 C   0  0  0  0  0  0  0  0  0  0  0  0
   39.8410   27.3480   34.5750 O   0  0  0  0  0  0  0  0  0  0  0  0
   39.3380   25.0220   35.1260 C   0  0  1  0  0  0  0  0  0  0  0  0
   38.0120   24.6880   34.4940 C   0  0  2  0  0  0  0  0  0  0  0  0
   38.0740   23.4010   33.2060 S   0  0  0  0  0  0  0  0  0  0  0  0
   37.1510   26.5540   31.9090 H   0  0  0  0  0  0  0  0  0  0  0  0
   36.0590   25.7520   33.1330 H   0  0  0  0  0  0  0  0  0  0  0  0
   39.2360   25.0240   36.2270 H   0  0  0  0  0  0  0  0  0  0  0  0
   37.1490   24.6310   35.1660 H   0  0  0  0  0  0  0  0  0  0  0  0
   37.8930   24.4310   30.6220 C   0  0  0  0  0  0  0  0  0  0  0  0
   37.8750   23.4300   30.1930 H   0  0  0  0  0  0  0  0  0  0  0  0
   38.9400   24.7830   30.8360 H   0  0  0  0  0  0  0  0  0  0  0  0
   37.4410   25.2340   30.0310 H   0  0  0  0  0  0  0  0  0  0  0  0
   35.8130   23.7290   31.8280 C   0  0  0  0  0  0  0  0  0  0  0  0
   35.2290   23.9910   32.7320 H   0  0  0  0  0  0  0  0  0  0  0  0
   35.2740   24.2120   30.9810 H   0  0  0  0  0  0  0  0  0  0  0  0
   35.1520   21.4670   32.4990 C   0  0  0  0  0  3  0  0  0  0  0  0
   35.9240   22.2620   31.6510 C   0  0  0  0  0  0  0  0  0  0  0  0
   36.7270   21.6390   30.7180 C   0  0  0  0  0  0  0  0  0  0  0  0
   37.3090   22.2590   30.0790 H   0  0  0  0  0  0  0  0  0  0  0  0
   36.7270   20.2600   30.6700 C   0  0  0  0  0  0  0  0  0  0  0  0
   35.9780   19.4420   31.4910 C   0  0  0  0  0  0  0  0  0  0  0  0
   35.1830   20.0770   32.4150 C   0  0  0  0  0  3  0  0  0  0  0  0
   36.2770   18.1340   31.1050 O   0  0  0  0  0  0  0  0  0  0  0  0
   36.8510   18.1340   29.7920 C   0  0  0  0  0  3  0  0  0  0  0  0
   36.0610   18.2240   28.9990 H   0  0  0  0  0  0  0  0  0  0  0  0
   37.4600   19.4330   29.8080 O   0  0  0  0  0  0  0  0  0  0  0  0
   40.4930   24.2020   34.7200 C   0  0  0  0  0  0  0  0  0  0  0  0
   40.9760   24.5150   33.5930 O   0  0  0  0  0  0  0  0  0  0  0  0
   41.0300   23.1420   35.5340 C   0  0  0  0  0  0  0  0  0  0  0  0
   40.3750   22.8480   36.7200 C   0  0  0  0  0  0  0  0  0  0  0  0
   40.9000   21.8120   37.5250 C   0  0  0  0  0  0  0  0  0  0  0  0
   42.0180   21.1640   37.0830 N   0  0  0  0  0  0  0  0  0  0  0  0
   42.6190   21.4750   35.9380 C   0  0  0  0  0  0  0  0  0  0  0  0
   42.1280   22.4630   35.1610 N   0  0  0  0  0  0  0  0  0  0  0  0
   39.4990   23.3270   37.1050 H   0  0  0  0  0  0  0  0  0  0  0  0
   40.4370   21.5430   38.4470 H   0  0  0  0  0  0  0  0  0  0  0  0
   43.5090   20.9750   35.5650 H   0  0  0  0  0  0  0  0  0  0  0  0
  1 13  1  6  0  0  0
  1  2  1  0  0  0  0
  1  8  1  0  0  0  0
  2 10  1  0  0  0  0
  2  3  1  0  0  0  0
  3  4  1  0  0  0  0
  3  7  1  0  0  0  0
  4  5  2  0  0  0  0
  4  6  1  0  0  0  0
  6 11  1  1  0  0  0
  7  6  1  0  0  0  0
  7 12  1  1  0  0  0
  8  7  1  0  0  0  0
  9  2  1  0  0  0  0
 13 15  1  0  0  0  0
 14 13  1  0  0  0  0
 16 13  1  0  0  0  0
 17  1  1  0  0  0  0
 17 18  1  0  0  0  0
 19 17  1  0  0  0  0
 21 17  1  0  0  0  0
 21 20  2  0  0  0  0
 22 21  1  0  0  0  0
 23 22  1  0  0  0  0
 24 22  2  0  0  0  0
 24 25  1  0  0  0  0
 25 26  2  0  0  0  0
 26 20  1  0  0  0  0
 27 25  1  0  0  0  0
 28 30  1  0  0  0  0
 28 27  1  0  0  0  0
 29 28  1  0  0  0  0
 30 24  1  0  0  0  0
 31  6  1  0  0  0  0
 31 33  1  0  0  0  0
 32 31  2  0  0  0  0
 33 34  1  0  0  0  0
 34 39  1  0  0  0  0
 34 35  2  0  0  0  0
 35 40  1  0  0  0  0
 36 35  1  0  0  0  0
 37 36  2  0  0  0  0
 38 33  2  0  0  0  0
 38 37  1  0  0  0  0
 41 37  1  0  0  0  0
M  END
>  <minimizedAffinity>
-5.45931101

$$$$

 OpenBabel03262522043D

 41 45  0  0  1  0  0  0  0  0999 V2000
   39.3660   25.4110   31.9260 C   0  0  2  0  0  0  0  0  0  0  0  0
   38.1220   24.6240   32.1630 C   0  0  0  0  0  0  0  0  0  0  0  0
   36.9710   25.4740   31.8920 N   0  0  0  0  0  0  0  0  0  0  0  0
   35.7430   26.0230   31.3890 C   0  0  0  0  0  0  0  0  0  0  0  0
   34.7650   25.6250   30.7260 O   0  0  0  0  0  0  0  0  0  0  0  0
   35.9920   27.3510   31.9430 C   0  0  1  0  0  0  0  0  0  0  0  0
   37.1050   26.6650   32.6930 C   0  0  2  0  0  0  0  0  0  0  0  0
   38.7870   27.1360   32.1800 S   0  0  0  0  0  0  0  0  0  0  0  0
   38.0670   23.7520   31.4730 H   0  0  0  0  0  0  0  0  0  0  0  0
   38.0800   24.3040   33.2140 H   0  0  0  0  0  0  0  0  0  0  0  0
   35.2520   27.7510   32.6590 H   0  0  0  0  0  0  0  0  0  0  0  0
   36.9660   26.5450   33.7730 H   0  0  0  0  0  0  0  0  0  0  0  0
   40.0320   25.2000   30.6060 C   0  0  0  0  0  0  0  0  0  0  0  0
   40.9600   25.7700   30.5890 H   0  0  0  0  0  0  0  0  0  0  0  0
   39.3000   25.5590   29.8290 H   0  0  0  0  0  0  0  0  0  0  0  0
   40.1070   24.1210   30.4460 H   0  0  0  0  0  0  0  0  0  0  0  0
   40.3380   25.1670   33.0910 C   0  0  0  0  0  0  0  0  0  0  0  0
   41.1700   24.5370   32.7190 H   0  0  0  0  0  0  0  0  0  0  0  0
   40.8050   26.1450   33.3500 H   0  0  0  0  0  0  0  0  0  0  0  0
   39.5210   23.1620   34.2400 C   0  0  0  0  0  3  0  0  0  0  0  0
   39.6600   24.5510   34.2560 C   0  0  0  0  0  0  0  0  0  0  0  0
   39.1650   25.2470   35.3390 C   0  0  0  0  0  0  0  0  0  0  0  0
   39.2800   26.3040   35.3370 H   0  0  0  0  0  0  0  0  0  0  0  0
   38.5560   24.5350   36.3530 C   0  0  0  0  0  0  0  0  0  0  0  0
   38.4010   23.1640   36.3720 C   0  0  0  0  0  0  0  0  0  0  0  0
   38.9000   22.4850   35.2850 C   0  0  0  0  0  3  0  0  0  0  0  0
   37.7420   22.8700   37.5660 O   0  0  0  0  0  0  0  0  0  0  0  0
   37.8760   23.9660   38.4780 C   0  0  0  0  0  3  0  0  0  0  0  0
   38.8770   23.9570   38.9880 H   0  0  0  0  0  0  0  0  0  0  0  0
   37.9910   25.0380   37.5320 O   0  0  0  0  0  0  0  0  0  0  0  0
   36.3860   28.3910   30.9770 C   0  0  0  0  0  0  0  0  0  0  0  0
   36.6990   27.9430   29.8360 O   0  0  0  0  0  0  0  0  0  0  0  0
   36.4080   29.7950   31.2990 C   0  0  0  0  0  0  0  0  0  0  0  0
   35.7990   30.1940   32.4780 C   0  0  0  0  0  0  0  0  0  0  0  0
   35.8130   31.5700   32.7970 C   0  0  0  0  0  0  0  0  0  0  0  0
   36.4290   32.4220   31.9250 N   0  0  0  0  0  0  0  0  0  0  0  0
   37.0050   32.0010   30.8010 C   0  0  0  0  0  0  0  0  0  0  0  0
   36.9960   30.6890   30.4850 N   0  0  0  0  0  0  0  0  0  0  0  0
   35.3050   29.5640   33.1900 H   0  0  0  0  0  0  0  0  0  0  0  0
   35.3600   31.9330   33.6910 H   0  0  0  0  0  0  0  0  0  0  0  0
   37.5000   32.6580   30.0910 H   0  0  0  0  0  0  0  0  0  0  0  0
  1 13  1  6  0  0  0
  1  2  1  0  0  0  0
  1  8  1  0  0  0  0
  1 17  1  0  0  0  0
  2 10  1  0  0  0  0
  3  2  1  0  0  0  0
  3  7  1  0  0  0  0
  4  3  1  0  0  0  0
  4  6  1  0  0  0  0
  5  4  2  0  0  0  0
  6 11  1  1  0  0  0
  6  7  1  0  0  0  0
  7 12  1  1  0  0  0
  8  7  1  0  0  0  0
  9  2  1  0  0  0  0
 14 13  1  0  0  0  0
 15 13  1  0  0  0  0
 16 13  1  0  0  0  0
 17 19  1  0  0  0  0
 17 21  1  0  0  0  0
 18 17  1  0  0  0  0
 20 21  2  0  0  0  0
 20 26  1  0  0  0  0
 21 22  1  0  0  0  0
 22 24  2  0  0  0  0
 23 22  1  0  0  0  0
 24 25  1  0  0  0  0
 24 30  1  0  0  0  0
 25 27  1  0  0  0  0
 26 25  2  0  0  0  0
 27 28  1  0  0  0  0
 28 29  1  0  0  0  0
 30 28  1  0  0  0  0
 31 33  1  0  0  0  0
 31  6  1  0  0  0  0
 32 31  2  0  0  0  0
 33 34  1  0  0  0  0
 34 35  2  0  0  0  0
 34 39  1  0  0  0  0
 35 40  1  0  0  0  0
 36 35  1  0  0  0  0
 37 36  2  0  0  0  0
 38 37  1  0  0  0  0
 38 33  2  0  0  0  0
 41 37  1  0  0  0  0
M  END
>  <minimizedAffinity>
-5.40244818

$$$$

 OpenBabel03262522043D

 41 45  0  0  1  0  0  0  0  0999 V2000
   38.2660   25.7730   34.0480 C   0  0  2  0  0  0  0  0  0  0  0  0
   37.7380   25.3780   35.3860 C   0  0  0  0  0  0  0  0  0  0  0  0
   38.4870   24.2240   35.8630 N   0  0  0  0  0  0  0  0  0  0  0  0
   39.2830   23.3140   36.6380 C   0  0  0  0  0  0  0  0  0  0  0  0
   39.7060   23.2350   37.8090 O   0  0  0  0  0  0  0  0  0  0  0  0
   39.4850   22.3870   35.5280 C   0  0  1  0  0  0  0  0  0  0  0  0
   38.4150   23.2020   34.8490 C   0  0  2  0  0  0  0  0  0  0  0  0
   38.9850   24.1990   33.4350 S   0  0  0  0  0  0  0  0  0  0  0  0
   37.8750   26.1990   36.1250 H   0  0  0  0  0  0  0  0  0  0  0  0
   36.6790   25.0940   35.2970 H   0  0  0  0  0  0  0  0  0  0  0  0
   39.1340   21.3480   35.6620 H   0  0  0  0  0  0  0  0  0  0  0  0
   37.4430   22.7170   34.7120 H   0  0  0  0  0  0  0  0  0  0  0  0
   39.2360   26.9090   34.0380 C   0  0  0  0  0  0  0  0  0  0  0  0
   39.4840   27.1450   33.0040 H   0  0  0  0  0  0  0  0  0  0  0  0
   40.1320   26.5560   34.6200 H   0  0  0  0  0  0  0  0  0  0  0  0
   38.8050   27.7120   34.6430 H   0  0  0  0  0  0  0  0  0  0  0  0
   37.0810   26.0370   33.1050 C   0  0  0  0  0  0  0  0  0  0  0  0
   37.3680   25.6990   32.0900 H   0  0  0  0  0  0  0  0  0  0  0  0
   36.2490   25.3620   33.4140 H   0  0  0  0  0  0  0  0  0  0  0  0
   36.7380   28.1430   31.9000 C   0  0  0  0  0  3  0  0  0  0  0  0
   36.6720   27.4610   33.1160 C   0  0  0  0  0  0  0  0  0  0  0  0
   36.2380   28.1480   34.2310 C   0  0  0  0  0  0  0  0  0  0  0  0
   36.1920   27.6140   35.1490 H   0  0  0  0  0  0  0  0  0  0  0  0
   35.8900   29.4760   34.0880 C   0  0  0  0  0  0  0  0  0  0  0  0
   35.9410   30.1820   32.9030 C   0  0  0  0  0  0  0  0  0  0  0  0
   36.3770   29.4840   31.8020 C   0  0  0  0  0  3  0  0  0  0  0  0
   35.5080   31.4730   33.2080 O   0  0  0  0  0  0  0  0  0  0  0  0
   34.7820   31.4630   34.4430 C   0  0  0  0  0  3  0  0  0  0  0  0
   33.7260   31.1060   34.2960 H   0  0  0  0  0  0  0  0  0  0  0  0
   35.4270   30.3510   35.0790 O   0  0  0  0  0  0  0  0  0  0  0  0
   40.8230   22.4000   34.9100 C   0  0  0  0  0  0  0  0  0  0  0  0
   40.9680   21.5570   33.9780 O   0  0  0  0  0  0  0  0  0  0  0  0
   41.8710   23.2960   35.3260 C   0  0  0  0  0  0  0  0  0  0  0  0
   42.7970   22.8220   36.2420 C   0  0  0  0  0  0  0  0  0  0  0  0
   43.8250   23.6980   36.6570 C   0  0  0  0  0  0  0  0  0  0  0  0
   43.8430   24.9570   36.1270 N   0  0  0  0  0  0  0  0  0  0  0  0
   42.9360   25.3760   35.2480 C   0  0  0  0  0  0  0  0  0  0  0  0
   41.9490   24.5490   34.8450 N   0  0  0  0  0  0  0  0  0  0  0  0
   42.8220   21.8470   36.6830 H   0  0  0  0  0  0  0  0  0  0  0  0
   44.5640   23.3870   37.3590 H   0  0  0  0  0  0  0  0  0  0  0  0
   42.9290   26.3720   34.8130 H   0  0  0  0  0  0  0  0  0  0  0  0
  1 17  1  6  0  0  0
  1  2  1  0  0  0  0
  2  3  1  0  0  0  0
  2  9  1  0  0  0  0
  3  4  1  0  0  0  0
  4  5  2  0  0  0  0
  6 11  1  1  0  0  0
  6  4  1  0  0  0  0
  7 12  1  6  0  0  0
  7  6  1  0  0  0  0
  7  3  1  0  0  0  0
  8  1  1  0  0  0  0
  8  7  1  0  0  0  0
 10  2  1  0  0  0  0
 13  1  1  0  0  0  0
 13 15  1  0  0  0  0
 13 16  1  0  0  0  0
 14 13  1  0  0  0  0
 17 21  1  0  0  0  0
 17 19  1  0  0  0  0
 18 17  1  0  0  0  0
 20 21  1  0  0  0  0
 21 22  2  0  0  0  0
 22 23  1  0  0  0  0
 24 22  1  0  0  0  0
 24 30  1  0  0  0  0
 25 27  1  0  0  0  0
 25 24  2  0  0  0  0
 26 20  2  0  0  0  0
 26 25  1  0  0  0  0
 27 28  1  0  0  0  0
 28 30  1  0  0  0  0
 29 28  1  0  0  0  0
 31 33  1  0  0  0  0
 31  6  1  0  0  0  0
 32 31  2  0  0  0  0
 33 34  1  0  0  0  0
 34 35  2  0  0  0  0
 34 39  1  0  0  0  0
 35 40  1  0  0  0  0
 36 35  1  0  0  0  0
 37 36  2  0  0  0  0
 38 37  1  0  0  0  0
 38 33  2  0  0  0  0
 41 37  1  0  0  0  0
M  END
>  <minimizedAffinity>
-5.38290977

$$$$

 OpenBabel03262522043D

 41 45  0  0  1  0  0  0  0  0999 V2000
   36.4790   27.6390   31.6000 C   0  0  2  0  0  0  0  0  0  0  0  0
   37.4530   27.6470   32.7290 C   0  0  0  0  0  0  0  0  0  0  0  0
   38.0820   26.3370   32.8160 N   0  0  0  0  0  0  0  0  0  0  0  0
   39.0230   25.2540   32.8760 C   0  0  0  0  0  0  0  0  0  0  0  0
   40.2530   25.1170   33.0330 O   0  0  0  0  0  0  0  0  0  0  0  0
   38.0060   24.2260   32.6770 C   0  0  1  0  0  0  0  0  0  0  0  0
   37.0340   25.3520   32.9170 C   0  0  2  0  0  0  0  0  0  0  0  0
   36.0620   25.8560   31.4620 S   0  0  0  0  0  0  0  0  0  0  0  0
   38.2570   28.3970   32.5530 H   0  0  0  0  0  0  0  0  0  0  0  0
   36.9250   27.8450   33.6730 H   0  0  0  0  0  0  0  0  0  0  0  0
   37.8940   23.4610   33.4670 H   0  0  0  0  0  0  0  0  0  0  0  0
   36.4780   25.3260   33.8600 H   0  0  0  0  0  0  0  0  0  0  0  0
   36.9600   28.2340   30.3170 C   0  0  0  0  0  0  0  0  0  0  0  0
   36.1370   28.2350   29.6040 H   0  0  0  0  0  0  0  0  0  0  0  0
   37.8160   27.5860   29.9770 H   0  0  0  0  0  0  0  0  0  0  0  0
   37.4140   29.2000   30.5550 H   0  0  0  0  0  0  0  0  0  0  0  0
   35.1700   28.2950   32.0680 C   0  0  0  0  0  0  0  0  0  0  0  0
   34.5350   28.4680   31.1780 H   0  0  0  0  0  0  0  0  0  0  0  0
   34.6180   27.5440   32.6800 H   0  0  0  0  0  0  0  0  0  0  0  0
   35.6640   30.6950   32.0640 C   0  0  0  0  0  3  0  0  0  0  0  0
   35.4180   29.5480   32.8200 C   0  0  0  0  0  0  0  0  0  0  0  0
   35.4220   29.6550   34.1950 C   0  0  0  0  0  0  0  0  0  0  0  0
   35.2320   28.7710   34.7560 H   0  0  0  0  0  0  0  0  0  0  0  0
   35.6700   30.8910   34.7550 C   0  0  0  0  0  0  0  0  0  0  0  0
   35.9160   32.0460   34.0410 C   0  0  0  0  0  0  0  0  0  0  0  0
   35.9090   31.9230   32.6720 C   0  0  0  0  0  3  0  0  0  0  0  0
   36.1100   33.0500   34.9920 O   0  0  0  0  0  0  0  0  0  0  0  0
   35.5630   32.6400   36.2500 C   0  0  0  0  0  3  0  0  0  0  0  0
   34.4480   32.7810   36.2780 H   0  0  0  0  0  0  0  0  0  0  0  0
   35.7180   31.2210   36.1170 O   0  0  0  0  0  0  0  0  0  0  0  0
   37.9760   23.5950   31.3460 C   0  0  0  0  0  0  0  0  0  0  0  0
   38.5290   24.2810   30.4380 O   0  0  0  0  0  0  0  0  0  0  0  0
   37.3760   22.3090   31.0990 C   0  0  0  0  0  0  0  0  0  0  0  0
   36.0970   22.0920   31.5860 C   0  0  0  0  0  0  0  0  0  0  0  0
   35.5040   20.8320   31.3500 C   0  0  0  0  0  0  0  0  0  0  0  0
   36.2290   19.9050   30.6560 N   0  0  0  0  0  0  0  0  0  0  0  0
   37.4560   20.1500   30.2040 C   0  0  0  0  0  0  0  0  0  0  0  0
   38.0330   21.3510   30.4230 N   0  0  0  0  0  0  0  0  0  0  0  0
   35.4920   22.7870   32.1340 H   0  0  0  0  0  0  0  0  0  0  0  0
   34.5220   20.6100   31.7020 H   0  0  0  0  0  0  0  0  0  0  0  0
   38.0530   19.4300   29.6500 H   0  0  0  0  0  0  0  0  0  0  0  0
  1 13  1  6  0  0  0
  1 17  1  0  0  0  0
  1  2  1  0  0  0  0
  2  3  1  0  0  0  0
  2 10  1  0  0  0  0
  3  4  1  0  0  0  0
  3  7  1  0  0  0  0
  4  5  2  0  0  0  0
  6  4  1  0  0  0  0
  6  7  1  0  0  0  0
  6 11  1  1  0  0  0
  7 12  1  1  0  0  0
  8  1  1  0  0  0  0
  8  7  1  0  0  0  0
  9  2  1  0  0  0  0
 13 16  1  0  0  0  0
 14 13  1  0  0  0  0
 15 13  1  0  0  0  0
 17 19  1  0  0  0  0
 17 21  1  0  0  0  0
 18 17  1  0  0  0  0
 20 26  2  0  0  0  0
 20 21  1  0  0  0  0
 21 22  2  0  0  0  0
 22 24  1  0  0  0  0
 22 23  1  0  0  0  0
 24 30  1  0  0  0  0
 25 24  2  0  0  0  0
 25 27  1  0  0  0  0
 26 25  1  0  0  0  0
 27 28  1  0  0  0  0
 28 29  1  0  0  0  0
 30 28  1  0  0  0  0
 31  6  1  0  0  0  0
 32 31  2  0  0  0  0
 33 31  1  0  0  0  0
 33 34  1  0  0  0  0
 34 39  1  0  0  0  0
 35 34  2  0  0  0  0
 35 40  1  0  0  0  0
 36 35  1  0  0  0  0
 37 38  1  0  0  0  0
 37 36  2  0  0  0  0
 38 33  2  0  0  0  0
 41 37  1  0  0  0  0
M  END
>  <minimizedAffinity>
-5.35045385

$$$$
