
 OpenBabel03272505083D

 31 34  0  0  0  0  0  0  0  0999 V2000
   36.3620   30.8560   45.8790 Cl  0  0  0  0  0  0  0  0  0  0  0  0
   36.7280   30.7680   47.5780 C   0  0  0  0  0  0  0  0  0  0  0  0
   38.0080   31.1080   47.9540 C   0  0  0  0  0  0  0  0  0  0  0  0
   38.3180   31.0420   49.3080 C   0  0  0  0  0  0  0  0  0  0  0  0
   37.3620   30.6500   50.2120 C   0  0  0  0  0  0  0  0  0  0  0  0
   36.1060   30.3250   49.7600 C   0  0  0  0  0  0  0  0  0  0  0  0
   35.7280   30.3670   48.4330 C   0  0  0  0  0  0  0  0  0  0  0  0
   39.3200   31.3060   49.6340 H   0  0  0  0  0  0  0  0  0  0  0  0
   37.6080   30.6000   51.2640 H   0  0  0  0  0  0  0  0  0  0  0  0
   35.3630   30.0150   50.4990 H   0  0  0  0  0  0  0  0  0  0  0  0
   40.1810   33.2990   46.0020 C   0  0  0  0  0  0  0  0  0  0  0  0
   40.8470   32.4240   45.1160 C   0  0  0  0  0  0  0  0  0  0  0  0
   40.5220   31.0680   45.2160 C   0  0  0  0  0  0  0  0  0  0  0  0
   39.6030   30.6730   46.1410 N   0  0  0  0  0  0  0  0  0  0  0  0
   38.9970   31.5220   46.9560 C   0  0  0  0  0  0  0  0  0  0  0  0
   39.3010   32.8320   46.8700 N   0  0  0  0  0  0  0  0  0  0  0  0
   40.4020   34.3560   45.9590 H   0  0  0  0  0  0  0  0  0  0  0  0
   41.5560   32.8330   44.4210 H   0  0  0  0  0  0  0  0  0  0  0  0
   41.0160   30.3760   44.5510 H   0  0  0  0  0  0  0  0  0  0  0  0
   34.1110   29.9490   47.8470 S   0  0  0  0  0  0  0  0  0  0  0  0
   33.9610   28.2710   45.8050 C   0  0  0  0  0  3  0  0  0  0  0  0
   34.0020   28.2930   47.2040 C   0  0  0  0  0  0  0  0  0  0  0  0
   33.9540   27.0980   47.8910 C   0  0  0  0  0  0  0  0  0  0  0  0
   33.9910   27.2260   48.9460 H   0  0  0  0  0  0  0  0  0  0  0  0
   33.8680   25.9220   47.1730 C   0  0  0  0  0  0  0  0  0  0  0  0
   33.8280   25.8750   45.7980 C   0  0  0  0  0  0  0  0  0  0  0  0
   33.8760   27.0720   45.1130 C   0  0  0  0  0  3  0  0  0  0  0  0
   33.7440   24.5340   45.4490 O   0  0  0  0  0  0  0  0  0  0  0  0
   33.4070   23.7780   46.5880 C   0  0  0  0  0  3  0  0  0  0  0  0
   32.3100   23.6230   46.6070 H   0  0  0  0  0  0  0  0  0  0  0  0
   33.8100   24.6290   47.6460 O   0  0  0  0  0  0  0  0  0  0  0  0
  1  2  1  0  0  0  0
  2  3  2  0  0  0  0
  2  7  1  0  0  0  0
  3  4  1  0  0  0  0
  4  8  1  0  0  0  0
  4  5  2  0  0  0  0
  5  9  1  0  0  0  0
  6  5  1  0  0  0  0
  6 10  1  0  0  0  0
  7  6  2  0  0  0  0
 11 16  1  0  0  0  0
 12 13  1  0  0  0  0
 12 11  2  0  0  0  0
 13 14  2  0  0  0  0
 14 15  1  0  0  0  0
 15  3  1  0  0  0  0
 16 15  2  0  0  0  0
 17 11  1  0  0  0  0
 18 12  1  0  0  0  0
 19 13  1  0  0  0  0
 20  7  1  0  0  0  0
 21 22  1  0  0  0  0
 22 20  1  0  0  0  0
 22 23  2  0  0  0  0
 23 24  1  0  0  0  0
 25 31  1  0  0  0  0
 25 23  1  0  0  0  0
 26 25  2  0  0  0  0
 27 26  1  0  0  0  0
 27 21  2  0  0  0  0
 28 26  1  0  0  0  0
 28 29  1  0  0  0  0
 29 30  1  0  0  0  0
 29 31  1  0  0  0  0
M  END
>  <minimizedAffinity>
-5.81613493

>  <minimizedRMSD>
1.36847496

$$$$
