
 OpenBabel03272505093D

 31 34  0  0  0  0  0  0  0  0999 V2000
   38.7610   23.6020   33.6830 Cl  0  0  0  0  0  0  0  0  0  0  0  0
   37.5170   22.3880   33.7800 C   0  0  0  0  0  0  0  0  0  0  0  0
   37.2300   21.8950   35.0330 C   0  0  0  0  0  0  0  0  0  0  0  0
   36.2400   20.9240   35.1280 C   0  0  0  0  0  0  0  0  0  0  0  0
   35.5890   20.4940   33.9980 C   0  0  0  0  0  0  0  0  0  0  0  0
   35.9320   21.0330   32.7820 C   0  0  0  0  0  0  0  0  0  0  0  0
   36.9040   21.9980   32.6120 C   0  0  0  0  0  0  0  0  0  0  0  0
   35.9910   20.5170   36.1040 H   0  0  0  0  0  0  0  0  0  0  0  0
   34.8190   19.7380   34.0770 H   0  0  0  0  0  0  0  0  0  0  0  0
   35.4020   20.6740   31.8970 H   0  0  0  0  0  0  0  0  0  0  0  0
   39.9830   22.4700   37.3620 C   0  0  0  0  0  0  0  0  0  0  0  0
   39.4080   23.2470   38.3910 C   0  0  0  0  0  0  0  0  0  0  0  0
   38.0520   23.5600   38.2530 C   0  0  0  0  0  0  0  0  0  0  0  0
   37.3760   23.1100   37.1590 N   0  0  0  0  0  0  0  0  0  0  0  0
   37.9480   22.3830   36.2130 C   0  0  0  0  0  0  0  0  0  0  0  0
   39.2540   22.0740   36.3340 N   0  0  0  0  0  0  0  0  0  0  0  0
   41.0290   22.2040   37.4290 H   0  0  0  0  0  0  0  0  0  0  0  0
   40.0250   23.5530   39.2140 H   0  0  0  0  0  0  0  0  0  0  0  0
   37.5860   24.1540   39.0250 H   0  0  0  0  0  0  0  0  0  0  0  0
   37.3490   22.6960   31.0470 S   0  0  0  0  0  0  0  0  0  0  0  0
   35.7080   24.7720   31.0710 C   0  0  0  0  0  3  0  0  0  0  0  0
   37.0640   24.4500   30.9520 C   0  0  0  0  0  0  0  0  0  0  0  0
   37.9780   25.4690   30.7820 C   0  0  0  0  0  0  0  0  0  0  0  0
   38.9780   25.1170   30.7010 H   0  0  0  0  0  0  0  0  0  0  0  0
   37.5210   26.7710   30.7360 C   0  0  0  0  0  0  0  0  0  0  0  0
   36.1930   27.1120   30.8520 C   0  0  0  0  0  0  0  0  0  0  0  0
   35.2810   26.0910   31.0230 C   0  0  0  0  0  3  0  0  0  0  0  0
   36.1290   28.4950   30.7600 O   0  0  0  0  0  0  0  0  0  0  0  0
   37.3540   28.9860   30.2660 C   0  0  0  0  0  3  0  0  0  0  0  0
   37.2730   29.1200   29.1700 H   0  0  0  0  0  0  0  0  0  0  0  0
   38.2480   27.9310   30.5760 O   0  0  0  0  0  0  0  0  0  0  0  0
  1  2  1  0  0  0  0
  2  3  1  0  0  0  0
  3  4  2  0  0  0  0
  3 15  1  0  0  0  0
  4  8  1  0  0  0  0
  5  9  1  0  0  0  0
  5  4  1  0  0  0  0
  6  5  2  0  0  0  0
  7  6  1  0  0  0  0
  7  2  2  0  0  0  0
 10  6  1  0  0  0  0
 11 17  1  0  0  0  0
 11 12  1  0  0  0  0
 12 18  1  0  0  0  0
 13 12  2  0  0  0  0
 13 19  1  0  0  0  0
 14 13  1  0  0  0  0
 15 16  1  0  0  0  0
 15 14  2  0  0  0  0
 16 11  2  0  0  0  0
 20  7  1  0  0  0  0
 22 20  1  0  0  0  0
 22 21  2  0  0  0  0
 23 22  1  0  0  0  0
 24 23  1  0  0  0  0
 25 23  2  0  0  0  0
 25 26  1  0  0  0  0
 26 27  2  0  0  0  0
 27 21  1  0  0  0  0
 28 26  1  0  0  0  0
 29 31  1  0  0  0  0
 29 28  1  0  0  0  0
 30 29  1  0  0  0  0
 31 25  1  0  0  0  0
M  END
>  <minimizedAffinity>
-5.88300133

$$$$

 OpenBabel03272505093D

 31 34  0  0  0  0  0  0  0  0999 V2000
   38.7080   26.6390   32.1920 Cl  0  0  0  0  0  0  0  0  0  0  0  0
   37.3240   25.6840   31.7380 C   0  0  0  0  0  0  0  0  0  0  0  0
   36.2170   26.3710   31.2930 C   0  0  0  0  0  0  0  0  0  0  0  0
   35.1040   25.6240   30.9270 C   0  0  0  0  0  0  0  0  0  0  0  0
   35.1360   24.2540   31.0170 C   0  0  0  0  0  0  0  0  0  0  0  0
   36.2780   23.6400   31.4720 C   0  0  0  0  0  0  0  0  0  0  0  0
   37.4200   24.3170   31.8520 C   0  0  0  0  0  0  0  0  0  0  0  0
   34.2160   26.1380   30.5710 H   0  0  0  0  0  0  0  0  0  0  0  0
   34.2670   23.6770   30.7320 H   0  0  0  0  0  0  0  0  0  0  0  0
   36.2790   22.5490   31.5370 H   0  0  0  0  0  0  0  0  0  0  0  0
   35.7550   29.8520   32.2950 C   0  0  0  0  0  0  0  0  0  0  0  0
   36.1950   30.5940   31.1780 C   0  0  0  0  0  0  0  0  0  0  0  0
   36.6500   29.8580   30.0800 C   0  0  0  0  0  0  0  0  0  0  0  0
   36.6460   28.4970   30.1460 N   0  0  0  0  0  0  0  0  0  0  0  0
   36.2260   27.8340   31.2110 C   0  0  0  0  0  0  0  0  0  0  0  0
   35.7840   28.5310   32.2760 N   0  0  0  0  0  0  0  0  0  0  0  0
   35.3950   30.3800   33.1670 H   0  0  0  0  0  0  0  0  0  0  0  0
   36.1590   31.6660   31.2230 H   0  0  0  0  0  0  0  0  0  0  0  0
   36.9930   30.4000   29.2110 H   0  0  0  0  0  0  0  0  0  0  0  0
   38.8920   23.5300   32.4390 S   0  0  0  0  0  0  0  0  0  0  0  0
   39.9100   22.4940   34.6520 C   0  0  0  0  0  3  0  0  0  0  0  0
   38.9900   23.4530   34.2140 C   0  0  0  0  0  0  0  0  0  0  0  0
   38.2990   24.1910   35.1530 C   0  0  0  0  0  0  0  0  0  0  0  0
   37.6270   24.8890   34.7160 H   0  0  0  0  0  0  0  0  0  0  0  0
   38.5400   23.9550   36.4920 C   0  0  0  0  0  0  0  0  0  0  0  0
   39.4400   23.0190   36.9460 C   0  0  0  0  0  0  0  0  0  0  0  0
   40.1300   22.2830   36.0050 C   0  0  0  0  0  3  0  0  0  0  0  0
   39.4060   23.0750   38.3330 O   0  0  0  0  0  0  0  0  0  0  0  0
   38.2690   23.8000   38.7400 C   0  0  0  0  0  3  0  0  0  0  0  0
   37.4480   23.0900   38.9590 H   0  0  0  0  0  0  0  0  0  0  0  0
   37.9720   24.5680   37.5880 O   0  0  0  0  0  0  0  0  0  0  0  0
  2  7  1  0  0  0  0
  2  1  1  0  0  0  0
  3  2  2  0  0  0  0
  4  5  2  0  0  0  0
  4  3  1  0  0  0  0
  5  6  1  0  0  0  0
  6 10  1  0  0  0  0
  6  7  2  0  0  0  0
  7 20  1  0  0  0  0
  8  4  1  0  0  0  0
  9  5  1  0  0  0  0
 11 17  1  0  0  0  0
 12 18  1  0  0  0  0
 12 11  2  0  0  0  0
 13 14  2  0  0  0  0
 13 12  1  0  0  0  0
 14 15  1  0  0  0  0
 15  3  1  0  0  0  0
 15 16  2  0  0  0  0
 16 11  1  0  0  0  0
 19 13  1  0  0  0  0
 20 22  1  0  0  0  0
 21 27  1  0  0  0  0
 22 21  2  0  0  0  0
 22 23  1  0  0  0  0
 23 25  2  0  0  0  0
 24 23  1  0  0  0  0
 25 26  1  0  0  0  0
 25 31  1  0  0  0  0
 26 28  1  0  0  0  0
 27 26  2  0  0  0  0
 28 29  1  0  0  0  0
 29 30  1  0  0  0  0
 31 29  1  0  0  0  0
M  END
>  <minimizedAffinity>
-5.67791224

$$$$

 OpenBabel03272505093D

 31 34  0  0  0  0  0  0  0  0999 V2000
   38.9810   26.4300   35.0290 Cl  0  0  0  0  0  0  0  0  0  0  0  0
   38.4150   25.1710   33.9680 C   0  0  0  0  0  0  0  0  0  0  0  0
   38.2400   23.9240   34.5260 C   0  0  0  0  0  0  0  0  0  0  0  0
   37.7880   22.9070   33.6920 C   0  0  0  0  0  0  0  0  0  0  0  0
   37.5360   23.1660   32.3680 C   0  0  0  0  0  0  0  0  0  0  0  0
   37.7350   24.4370   31.8840 C   0  0  0  0  0  0  0  0  0  0  0  0
   38.1810   25.4940   32.6520 C   0  0  0  0  0  0  0  0  0  0  0  0
   37.6400   21.9130   34.1040 H   0  0  0  0  0  0  0  0  0  0  0  0
   37.1850   22.3720   31.7230 H   0  0  0  0  0  0  0  0  0  0  0  0
   37.5280   24.6180   30.8270 H   0  0  0  0  0  0  0  0  0  0  0  0
   37.7760   23.9370   38.1470 C   0  0  0  0  0  0  0  0  0  0  0  0
   38.9370   23.3070   38.6460 C   0  0  0  0  0  0  0  0  0  0  0  0
   39.8730   22.8840   37.6980 C   0  0  0  0  0  0  0  0  0  0  0  0
   39.6210   23.0970   36.3760 N   0  0  0  0  0  0  0  0  0  0  0  0
   38.5210   23.6910   35.9440 C   0  0  0  0  0  0  0  0  0  0  0  0
   37.6100   24.1040   36.8470 N   0  0  0  0  0  0  0  0  0  0  0  0
   37.0250   24.2810   38.8450 H   0  0  0  0  0  0  0  0  0  0  0  0
   39.0440   23.1860   39.7070 H   0  0  0  0  0  0  0  0  0  0  0  0
   40.7710   22.3980   38.0510 H   0  0  0  0  0  0  0  0  0  0  0  0
   38.4400   27.1320   32.0330 S   0  0  0  0  0  0  0  0  0  0  0  0
   36.7640   28.9790   31.1460 C   0  0  0  0  0  3  0  0  0  0  0  0
   37.0420   28.2060   32.2780 C   0  0  0  0  0  0  0  0  0  0  0  0
   36.2480   28.3540   33.3970 C   0  0  0  0  0  0  0  0  0  0  0  0
   36.5440   27.7220   34.1990 H   0  0  0  0  0  0  0  0  0  0  0  0
   35.2070   29.2600   33.3580 C   0  0  0  0  0  0  0  0  0  0  0  0
   34.9140   30.0300   32.2560 C   0  0  0  0  0  0  0  0  0  0  0  0
   35.7090   29.8800   31.1380 C   0  0  0  0  0  3  0  0  0  0  0  0
   33.8150   30.8060   32.5950 O   0  0  0  0  0  0  0  0  0  0  0  0
   33.6270   30.7620   33.9900 C   0  0  0  0  0  3  0  0  0  0  0  0
   34.1220   31.6390   34.4490 H   0  0  0  0  0  0  0  0  0  0  0  0
   34.2980   29.5660   34.3470 O   0  0  0  0  0  0  0  0  0  0  0  0
  2  3  1  0  0  0  0
  2  1  1  0  0  0  0
  3 15  1  0  0  0  0
  4  8  1  0  0  0  0
  4  3  2  0  0  0  0
  5  4  1  0  0  0  0
  6  5  2  0  0  0  0
  6  7  1  0  0  0  0
  7  2  2  0  0  0  0
  9  5  1  0  0  0  0
 10  6  1  0  0  0  0
 11 12  1  0  0  0  0
 11 17  1  0  0  0  0
 12 18  1  0  0  0  0
 13 19  1  0  0  0  0
 13 12  2  0  0  0  0
 14 13  1  0  0  0  0
 15 14  2  0  0  0  0
 15 16  1  0  0  0  0
 16 11  2  0  0  0  0
 20 22  1  0  0  0  0
 20  7  1  0  0  0  0
 21 22  1  0  0  0  0
 22 23  2  0  0  0  0
 23 24  1  0  0  0  0
 25 23  1  0  0  0  0
 25 31  1  0  0  0  0
 26 28  1  0  0  0  0
 26 25  2  0  0  0  0
 27 21  2  0  0  0  0
 27 26  1  0  0  0  0
 28 29  1  0  0  0  0
 29 31  1  0  0  0  0
 29 30  1  0  0  0  0
M  END
>  <minimizedAffinity>
-5.45772886

$$$$

 OpenBabel03272505093D

 31 34  0  0  0  0  0  0  0  0999 V2000
   36.6490   27.5090   34.4830 Cl  0  0  0  0  0  0  0  0  0  0  0  0
   36.6660   28.2200   32.8940 C   0  0  0  0  0  0  0  0  0  0  0  0
   35.8770   29.3320   32.7040 C   0  0  0  0  0  0  0  0  0  0  0  0
   35.8790   29.9110   31.4410 C   0  0  0  0  0  0  0  0  0  0  0  0
   36.6490   29.3730   30.4400 C   0  0  0  0  0  0  0  0  0  0  0  0
   37.4100   28.2600   30.7060 C   0  0  0  0  0  0  0  0  0  0  0  0
   37.4570   27.6330   31.9340 C   0  0  0  0  0  0  0  0  0  0  0  0
   35.2670   30.7910   31.2620 H   0  0  0  0  0  0  0  0  0  0  0  0
   36.6470   29.8270   29.4580 H   0  0  0  0  0  0  0  0  0  0  0  0
   38.0130   27.8490   29.8930 H   0  0  0  0  0  0  0  0  0  0  0  0
   33.0080   29.8560   34.9020 C   0  0  0  0  0  0  0  0  0  0  0  0
   33.4560   30.8210   35.8290 C   0  0  0  0  0  0  0  0  0  0  0  0
   34.7670   31.2790   35.6700 C   0  0  0  0  0  0  0  0  0  0  0  0
   35.5240   30.7800   34.6530 N   0  0  0  0  0  0  0  0  0  0  0  0
   35.0710   29.8750   33.8010 C   0  0  0  0  0  0  0  0  0  0  0  0
   33.8090   29.4250   33.9430 N   0  0  0  0  0  0  0  0  0  0  0  0
   32.0000   29.4740   34.9870 H   0  0  0  0  0  0  0  0  0  0  0  0
   32.7820   31.1510   36.5970 H   0  0  0  0  0  0  0  0  0  0  0  0
   35.1370   32.0170   36.3660 H   0  0  0  0  0  0  0  0  0  0  0  0
   38.4360   26.1990   32.2810 S   0  0  0  0  0  0  0  0  0  0  0  0
   36.3800   24.7740   31.4180 C   0  0  0  0  0  3  0  0  0  0  0  0
   37.5030   24.6840   32.2470 C   0  0  0  0  0  0  0  0  0  0  0  0
   37.7490   23.5000   32.9110 C   0  0  0  0  0  0  0  0  0  0  0  0
   38.6240   23.5380   33.5130 H   0  0  0  0  0  0  0  0  0  0  0  0
   36.8770   22.4440   32.7310 C   0  0  0  0  0  0  0  0  0  0  0  0
   35.7670   22.5090   31.9200 C   0  0  0  0  0  0  0  0  0  0  0  0
   35.5240   23.6940   31.2580 C   0  0  0  0  0  3  0  0  0  0  0  0
   35.1490   21.2680   31.9950 O   0  0  0  0  0  0  0  0  0  0  0  0
   35.6770   20.5510   33.0870 C   0  0  0  0  0  3  0  0  0  0  0  0
   35.0200   20.6960   33.9660 H   0  0  0  0  0  0  0  0  0  0  0  0
   36.9280   21.1850   33.2870 O   0  0  0  0  0  0  0  0  0  0  0  0
  2  1  1  0  0  0  0
  3  2  1  0  0  0  0
  3 15  1  0  0  0  0
  4  3  2  0  0  0  0
  5  6  2  0  0  0  0
  5  4  1  0  0  0  0
  6  7  1  0  0  0  0
  7 20  1  0  0  0  0
  7  2  2  0  0  0  0
  8  4  1  0  0  0  0
  9  5  1  0  0  0  0
 10  6  1  0  0  0  0
 11 17  1  0  0  0  0
 11 12  1  0  0  0  0
 12 18  1  0  0  0  0
 13 12  2  0  0  0  0
 13 19  1  0  0  0  0
 14 13  1  0  0  0  0
 15 16  1  0  0  0  0
 15 14  2  0  0  0  0
 16 11  2  0  0  0  0
 21 22  1  0  0  0  0
 22 20  1  0  0  0  0
 22 23  2  0  0  0  0
 23 24  1  0  0  0  0
 25 23  1  0  0  0  0
 25 31  1  0  0  0  0
 26 28  1  0  0  0  0
 26 25  2  0  0  0  0
 27 21  2  0  0  0  0
 27 26  1  0  0  0  0
 28 29  1  0  0  0  0
 29 31  1  0  0  0  0
 29 30  1  0  0  0  0
M  END
>  <minimizedAffinity>
-5.43529654

$$$$

 OpenBabel03272505093D

 31 34  0  0  0  0  0  0  0  0999 V2000
   36.7370   25.6780   32.2240 Cl  0  0  0  0  0  0  0  0  0  0  0  0
   37.4290   26.1590   33.7480 C   0  0  0  0  0  0  0  0  0  0  0  0
   38.2220   25.2340   34.3870 C   0  0  0  0  0  0  0  0  0  0  0  0
   38.7820   25.6020   35.6050 C   0  0  0  0  0  0  0  0  0  0  0  0
   38.5350   26.8480   36.1250 C   0  0  0  0  0  0  0  0  0  0  0  0
   37.7310   27.7170   35.4280 C   0  0  0  0  0  0  0  0  0  0  0  0
   37.1420   27.4210   34.2160 C   0  0  0  0  0  0  0  0  0  0  0  0
   39.4140   24.8920   36.1320 H   0  0  0  0  0  0  0  0  0  0  0  0
   38.9730   27.1300   37.0730 H   0  0  0  0  0  0  0  0  0  0  0  0
   37.5490   28.7030   35.8630 H   0  0  0  0  0  0  0  0  0  0  0  0
   37.8290   21.6640   33.7260 C   0  0  0  0  0  0  0  0  0  0  0  0
   38.8120   21.3830   32.7530 C   0  0  0  0  0  0  0  0  0  0  0  0
   39.6060   22.4560   32.3400 C   0  0  0  0  0  0  0  0  0  0  0  0
   39.3930   23.6870   32.8850 N   0  0  0  0  0  0  0  0  0  0  0  0
   38.4600   23.9150   33.7960 C   0  0  0  0  0  0  0  0  0  0  0  0
   37.6880   22.8880   34.2030 N   0  0  0  0  0  0  0  0  0  0  0  0
   37.1920   20.8630   34.0750 H   0  0  0  0  0  0  0  0  0  0  0  0
   38.9030   20.3790   32.3860 H   0  0  0  0  0  0  0  0  0  0  0  0
   40.3670   22.2710   31.5970 H   0  0  0  0  0  0  0  0  0  0  0  0
   36.1060   28.5370   33.3150 S   0  0  0  0  0  0  0  0  0  0  0  0
   35.9170   30.5580   35.0140 C   0  0  0  0  0  3  0  0  0  0  0  0
   35.1350   29.5980   34.3630 C   0  0  0  0  0  0  0  0  0  0  0  0
   33.7740   29.5790   34.5920 C   0  0  0  0  0  0  0  0  0  0  0  0
   33.2750   28.8130   34.0500 H   0  0  0  0  0  0  0  0  0  0  0  0
   33.2340   30.5100   35.4570 C   0  0  0  0  0  0  0  0  0  0  0  0
   33.9830   31.4630   36.1080 C   0  0  0  0  0  0  0  0  0  0  0  0
   35.3430   31.4800   35.8770 C   0  0  0  0  0  3  0  0  0  0  0  0
   33.0970   32.2050   36.8780 O   0  0  0  0  0  0  0  0  0  0  0  0
   31.8690   31.5220   36.9620 C   0  0  0  0  0  3  0  0  0  0  0  0
   31.8500   30.9250   37.8950 H   0  0  0  0  0  0  0  0  0  0  0  0
   31.9170   30.6740   35.8280 O   0  0  0  0  0  0  0  0  0  0  0  0
  1  2  1  0  0  0  0
  2  7  2  0  0  0  0
  2  3  1  0  0  0  0
  3  4  2  0  0  0  0
  4  5  1  0  0  0  0
  4  8  1  0  0  0  0
  5  9  1  0  0  0  0
  6 10  1  0  0  0  0
  6  5  2  0  0  0  0
  7  6  1  0  0  0  0
 11 17  1  0  0  0  0
 11 16  1  0  0  0  0
 12 11  2  0  0  0  0
 13 12  1  0  0  0  0
 13 14  2  0  0  0  0
 14 15  1  0  0  0  0
 15 16  2  0  0  0  0
 15  3  1  0  0  0  0
 18 12  1  0  0  0  0
 19 13  1  0  0  0  0
 20  7  1  0  0  0  0
 20 22  1  0  0  0  0
 21 27  1  0  0  0  0
 22 23  1  0  0  0  0
 22 21  2  0  0  0  0
 23 25  2  0  0  0  0
 24 23  1  0  0  0  0
 25 31  1  0  0  0  0
 25 26  1  0  0  0  0
 26 28  1  0  0  0  0
 27 26  2  0  0  0  0
 28 29  1  0  0  0  0
 29 30  1  0  0  0  0
 31 29  1  0  0  0  0
M  END
>  <minimizedAffinity>
-5.35632896

$$$$

 OpenBabel03272505093D

 31 34  0  0  0  0  0  0  0  0999 V2000
   39.0490   26.5030   34.8610 Cl  0  0  0  0  0  0  0  0  0  0  0  0
   38.3200   25.3560   33.7730 C   0  0  0  0  0  0  0  0  0  0  0  0
   38.1680   24.0700   34.2390 C   0  0  0  0  0  0  0  0  0  0  0  0
   37.5870   23.1420   33.3820 C   0  0  0  0  0  0  0  0  0  0  0  0
   37.1910   23.5230   32.1240 C   0  0  0  0  0  0  0  0  0  0  0  0
   37.3770   24.8260   31.7300 C   0  0  0  0  0  0  0  0  0  0  0  0
   37.9460   25.8000   32.5250 C   0  0  0  0  0  0  0  0  0  0  0  0
   37.4530   22.1190   33.7230 H   0  0  0  0  0  0  0  0  0  0  0  0
   36.7400   22.7980   31.4610 H   0  0  0  0  0  0  0  0  0  0  0  0
   37.0550   25.1060   30.7230 H   0  0  0  0  0  0  0  0  0  0  0  0
   38.0620   23.6380   37.8630 C   0  0  0  0  0  0  0  0  0  0  0  0
   39.3110   23.0600   38.1780 C   0  0  0  0  0  0  0  0  0  0  0  0
   40.1800   22.8300   37.1080 C   0  0  0  0  0  0  0  0  0  0  0  0
   39.7830   23.1660   35.8480 N   0  0  0  0  0  0  0  0  0  0  0  0
   38.6040   23.7060   35.5890 C   0  0  0  0  0  0  0  0  0  0  0  0
   37.7570   23.9340   36.6120 N   0  0  0  0  0  0  0  0  0  0  0  0
   37.3590   23.8340   38.6610 H   0  0  0  0  0  0  0  0  0  0  0  0
   39.5310   22.8320   39.2040 H   0  0  0  0  0  0  0  0  0  0  0  0
   41.1420   22.3880   37.3190 H   0  0  0  0  0  0  0  0  0  0  0  0
   38.1870   27.4800   32.0220 S   0  0  0  0  0  0  0  0  0  0  0  0
   36.3140   28.4620   33.6130 C   0  0  0  0  0  3  0  0  0  0  0  0
   36.7590   28.5070   32.2870 C   0  0  0  0  0  0  0  0  0  0  0  0
   36.0790   29.2970   31.3830 C   0  0  0  0  0  0  0  0  0  0  0  0
   36.4980   29.2600   30.4060 H   0  0  0  0  0  0  0  0  0  0  0  0
   34.9840   30.0160   31.8200 C   0  0  0  0  0  0  0  0  0  0  0  0
   34.5290   29.9880   33.1190 C   0  0  0  0  0  0  0  0  0  0  0  0
   35.2110   29.1970   34.0210 C   0  0  0  0  0  3  0  0  0  0  0  0
   33.4250   30.8270   33.1700 O   0  0  0  0  0  0  0  0  0  0  0  0
   32.9990   31.1160   31.8590 C   0  0  0  0  0  3  0  0  0  0  0  0
   32.1890   30.4160   31.5790 H   0  0  0  0  0  0  0  0  0  0  0  0
   34.1670   30.8590   31.0990 O   0  0  0  0  0  0  0  0  0  0  0  0
  2  3  1  0  0  0  0
  2  1  1  0  0  0  0
  3 15  1  0  0  0  0
  4  8  1  0  0  0  0
  4  3  2  0  0  0  0
  5  4  1  0  0  0  0
  6  5  2  0  0  0  0
  6  7  1  0  0  0  0
  7  2  2  0  0  0  0
  9  5  1  0  0  0  0
 10  6  1  0  0  0  0
 11 12  1  0  0  0  0
 11 17  1  0  0  0  0
 12 18  1  0  0  0  0
 13 19  1  0  0  0  0
 13 12  2  0  0  0  0
 14 13  1  0  0  0  0
 15 14  2  0  0  0  0
 15 16  1  0  0  0  0
 16 11  2  0  0  0  0
 20 22  1  0  0  0  0
 20  7  1  0  0  0  0
 21 27  1  0  0  0  0
 22 21  2  0  0  0  0
 23 25  2  0  0  0  0
 23 22  1  0  0  0  0
 24 23  1  0  0  0  0
 25 26  1  0  0  0  0
 26 28  1  0  0  0  0
 26 27  2  0  0  0  0
 29 28  1  0  0  0  0
 30 29  1  0  0  0  0
 31 25  1  0  0  0  0
 31 29  1  0  0  0  0
M  END
>  <minimizedAffinity>
-5.3426013

$$$$

 OpenBabel03272505093D

 31 34  0  0  0  0  0  0  0  0999 V2000
   38.3340   24.1100   33.0020 Cl  0  0  0  0  0  0  0  0  0  0  0  0
   38.1180   25.5210   33.9980 C   0  0  0  0  0  0  0  0  0  0  0  0
   38.7740   25.5310   35.2080 C   0  0  0  0  0  0  0  0  0  0  0  0
   38.6120   26.6510   36.0160 C   0  0  0  0  0  0  0  0  0  0  0  0
   37.8210   27.6910   35.5960 C   0  0  0  0  0  0  0  0  0  0  0  0
   37.1970   27.6070   34.3740 C   0  0  0  0  0  0  0  0  0  0  0  0
   37.3120   26.5290   33.5210 C   0  0  0  0  0  0  0  0  0  0  0  0
   39.1180   26.6880   36.9760 H   0  0  0  0  0  0  0  0  0  0  0  0
   37.6970   28.5610   36.2280 H   0  0  0  0  0  0  0  0  0  0  0  0
   36.5720   28.4480   34.0620 H   0  0  0  0  0  0  0  0  0  0  0  0
   41.7390   23.4340   35.5850 C   0  0  0  0  0  0  0  0  0  0  0  0
   41.2840   22.3250   36.3310 C   0  0  0  0  0  0  0  0  0  0  0  0
   39.9340   22.3270   36.6930 C   0  0  0  0  0  0  0  0  0  0  0  0
   39.1490   23.3750   36.3170 N   0  0  0  0  0  0  0  0  0  0  0  0
   39.6090   24.4000   35.6170 C   0  0  0  0  0  0  0  0  0  0  0  0
   40.9090   24.4090   35.2610 N   0  0  0  0  0  0  0  0  0  0  0  0
   42.7760   23.4720   35.2830 H   0  0  0  0  0  0  0  0  0  0  0  0
   41.9820   21.5470   36.5780 H   0  0  0  0  0  0  0  0  0  0  0  0
   39.5590   21.4920   37.2650 H   0  0  0  0  0  0  0  0  0  0  0  0
   36.5110   26.4170   31.9470 S   0  0  0  0  0  0  0  0  0  0  0  0
   36.0460   28.9560   31.3620 C   0  0  0  0  0  3  0  0  0  0  0  0
   36.7730   27.8460   30.9190 C   0  0  0  0  0  0  0  0  0  0  0  0
   37.5680   27.9740   29.7990 C   0  0  0  0  0  0  0  0  0  0  0  0
   38.0760   27.0740   29.5480 H   0  0  0  0  0  0  0  0  0  0  0  0
   37.6170   29.1940   29.1550 C   0  0  0  0  0  0  0  0  0  0  0  0
   36.9110   30.2990   29.5720 C   0  0  0  0  0  0  0  0  0  0  0  0
   36.1180   30.1690   30.6930 C   0  0  0  0  0  3  0  0  0  0  0  0
   37.2140   31.3220   28.6840 O   0  0  0  0  0  0  0  0  0  0  0  0
   37.8380   30.7780   27.5440 C   0  0  0  0  0  3  0  0  0  0  0  0
   37.0740   30.6090   26.7600 H   0  0  0  0  0  0  0  0  0  0  0  0
   38.3350   29.5440   28.0320 O   0  0  0  0  0  0  0  0  0  0  0  0
  1  2  1  0  0  0  0
  2  3  1  0  0  0  0
  3 15  1  0  0  0  0
  3  4  2  0  0  0  0
  4  8  1  0  0  0  0
  5  4  1  0  0  0  0
  5  9  1  0  0  0  0
  6  5  2  0  0  0  0
  7  2  2  0  0  0  0
  7  6  1  0  0  0  0
 10  6  1  0  0  0  0
 11 12  1  0  0  0  0
 12 18  1  0  0  0  0
 12 13  2  0  0  0  0
 13 19  1  0  0  0  0
 14 13  1  0  0  0  0
 15 14  2  0  0  0  0
 16 11  2  0  0  0  0
 16 15  1  0  0  0  0
 17 11  1  0  0  0  0
 20  7  1  0  0  0  0
 22 21  1  0  0  0  0
 22 20  1  0  0  0  0
 23 22  2  0  0  0  0
 24 23  1  0  0  0  0
 25 26  2  0  0  0  0
 25 23  1  0  0  0  0
 26 27  1  0  0  0  0
 27 21  2  0  0  0  0
 28 26  1  0  0  0  0
 29 31  1  0  0  0  0
 29 28  1  0  0  0  0
 30 29  1  0  0  0  0
 31 25  1  0  0  0  0
M  END
>  <minimizedAffinity>
-5.31806803

$$$$

 OpenBabel03272505093D

 31 34  0  0  0  0  0  0  0  0999 V2000
   37.4700   25.0420   33.5060 Cl  0  0  0  0  0  0  0  0  0  0  0  0
   38.9990   25.8740   33.5530 C   0  0  0  0  0  0  0  0  0  0  0  0
   39.7580   25.7110   34.6900 C   0  0  0  0  0  0  0  0  0  0  0  0
   40.9810   26.3690   34.7430 C   0  0  0  0  0  0  0  0  0  0  0  0
   41.3900   27.1450   33.6870 C   0  0  0  0  0  0  0  0  0  0  0  0
   40.5760   27.2600   32.5860 C   0  0  0  0  0  0  0  0  0  0  0  0
   39.3510   26.6370   32.4630 C   0  0  0  0  0  0  0  0  0  0  0  0
   41.6020   26.2580   35.6280 H   0  0  0  0  0  0  0  0  0  0  0  0
   42.3430   27.6550   33.7340 H   0  0  0  0  0  0  0  0  0  0  0  0
   40.9230   27.8840   31.7590 H   0  0  0  0  0  0  0  0  0  0  0  0
   39.4720   22.8270   36.9110 C   0  0  0  0  0  0  0  0  0  0  0  0
   38.4740   23.2020   37.8370 C   0  0  0  0  0  0  0  0  0  0  0  0
   37.9110   24.4700   37.6670 C   0  0  0  0  0  0  0  0  0  0  0  0
   38.3450   25.2570   36.6430 N   0  0  0  0  0  0  0  0  0  0  0  0
   39.2830   24.8730   35.7930 C   0  0  0  0  0  0  0  0  0  0  0  0
   39.8340   23.6530   35.9450 N   0  0  0  0  0  0  0  0  0  0  0  0
   39.9340   21.8540   37.0040 H   0  0  0  0  0  0  0  0  0  0  0  0
   38.2000   22.5100   38.6100 H   0  0  0  0  0  0  0  0  0  0  0  0
   37.1460   24.7850   38.3620 H   0  0  0  0  0  0  0  0  0  0  0  0
   38.3000   26.7820   31.0470 S   0  0  0  0  0  0  0  0  0  0  0  0
   37.2650   29.1320   30.4020 C   0  0  0  0  0  3  0  0  0  0  0  0
   37.0400   28.0260   31.2300 C   0  0  0  0  0  0  0  0  0  0  0  0
   35.9310   28.0230   32.0500 C   0  0  0  0  0  0  0  0  0  0  0  0
   35.8540   27.1390   32.6360 H   0  0  0  0  0  0  0  0  0  0  0  0
   35.0820   29.1110   32.0250 C   0  0  0  0  0  0  0  0  0  0  0  0
   35.2820   30.2090   31.2190 C   0  0  0  0  0  0  0  0  0  0  0  0
   36.3920   30.2100   30.3990 C   0  0  0  0  0  3  0  0  0  0  0  0
   34.2330   31.0820   31.4700 O   0  0  0  0  0  0  0  0  0  0  0  0
   33.5690   30.6850   32.6470 C   0  0  0  0  0  3  0  0  0  0  0  0
   33.9740   31.2610   33.5010 H   0  0  0  0  0  0  0  0  0  0  0  0
   33.9290   29.3180   32.7500 O   0  0  0  0  0  0  0  0  0  0  0  0
  1  2  1  0  0  0  0
  2  3  1  0  0  0  0
  3  4  2  0  0  0  0
  3 15  1  0  0  0  0
  4  8  1  0  0  0  0
  5  9  1  0  0  0  0
  5  4  1  0  0  0  0
  6  5  2  0  0  0  0
  7  6  1  0  0  0  0
  7  2  2  0  0  0  0
 10  6  1  0  0  0  0
 11 17  1  0  0  0  0
 11 12  1  0  0  0  0
 12 18  1  0  0  0  0
 13 12  2  0  0  0  0
 13 19  1  0  0  0  0
 14 13  1  0  0  0  0
 15 16  1  0  0  0  0
 15 14  2  0  0  0  0
 16 11  2  0  0  0  0
 20 22  1  0  0  0  0
 20  7  1  0  0  0  0
 21 22  1  0  0  0  0
 22 23  2  0  0  0  0
 23 24  1  0  0  0  0
 25 23  1  0  0  0  0
 25 31  1  0  0  0  0
 26 28  1  0  0  0  0
 26 25  2  0  0  0  0
 27 21  2  0  0  0  0
 27 26  1  0  0  0  0
 28 29  1  0  0  0  0
 29 31  1  0  0  0  0
 29 30  1  0  0  0  0
M  END
>  <minimizedAffinity>
-5.2432723

$$$$

 OpenBabel03272505093D

 31 34  0  0  0  0  0  0  0  0999 V2000
   37.6700   24.4940   33.3900 Cl  0  0  0  0  0  0  0  0  0  0  0  0
   39.0060   25.6080   33.4720 C   0  0  0  0  0  0  0  0  0  0  0  0
   39.6920   25.6650   34.6640 C   0  0  0  0  0  0  0  0  0  0  0  0
   40.7610   26.5490   34.7460 C   0  0  0  0  0  0  0  0  0  0  0  0
   41.0960   27.3240   33.6630 C   0  0  0  0  0  0  0  0  0  0  0  0
   40.3620   27.2120   32.5080 C   0  0  0  0  0  0  0  0  0  0  0  0
   39.2900   26.3570   32.3530 C   0  0  0  0  0  0  0  0  0  0  0  0
   41.3230   26.6150   35.6740 H   0  0  0  0  0  0  0  0  0  0  0  0
   41.9290   28.0120   33.7320 H   0  0  0  0  0  0  0  0  0  0  0  0
   40.6470   27.8400   31.6590 H   0  0  0  0  0  0  0  0  0  0  0  0
   39.7240   22.8640   37.0060 C   0  0  0  0  0  0  0  0  0  0  0  0
   38.6630   23.1450   37.8950 C   0  0  0  0  0  0  0  0  0  0  0  0
   37.9460   24.3210   37.6580 C   0  0  0  0  0  0  0  0  0  0  0  0
   38.3010   25.1140   36.6080 N   0  0  0  0  0  0  0  0  0  0  0  0
   39.3020   24.8190   35.7940 C   0  0  0  0  0  0  0  0  0  0  0  0
   40.0010   23.6880   36.0110 N   0  0  0  0  0  0  0  0  0  0  0  0
   40.3050   21.9640   37.1520 H   0  0  0  0  0  0  0  0  0  0  0  0
   38.4610   22.4560   38.6920 H   0  0  0  0  0  0  0  0  0  0  0  0
   37.1290   24.5620   38.3220 H   0  0  0  0  0  0  0  0  0  0  0  0
   38.3410   26.2090   30.8660 S   0  0  0  0  0  0  0  0  0  0  0  0
   37.0940   28.5440   30.8270 C   0  0  0  0  0  3  0  0  0  0  0  0
   38.0010   27.7740   30.0900 C   0  0  0  0  0  0  0  0  0  0  0  0
   38.5030   28.2830   28.9100 C   0  0  0  0  0  0  0  0  0  0  0  0
   39.1810   27.6210   28.4300 H   0  0  0  0  0  0  0  0  0  0  0  0
   38.0910   29.5350   28.4990 C   0  0  0  0  0  0  0  0  0  0  0  0
   37.2010   30.3100   29.2070 C   0  0  0  0  0  0  0  0  0  0  0  0
   36.7020   29.7990   30.3870 C   0  0  0  0  0  3  0  0  0  0  0  0
   37.0370   31.4850   28.4860 O   0  0  0  0  0  0  0  0  0  0  0  0
   37.5580   31.3110   27.1890 C   0  0  0  0  0  3  0  0  0  0  0  0
   36.7360   31.0250   26.5040 H   0  0  0  0  0  0  0  0  0  0  0  0
   38.4580   30.2320   27.3680 O   0  0  0  0  0  0  0  0  0  0  0  0
  1  2  1  0  0  0  0
  2  3  1  0  0  0  0
  3  4  2  0  0  0  0
  3 15  1  0  0  0  0
  4  8  1  0  0  0  0
  5  9  1  0  0  0  0
  5  4  1  0  0  0  0
  6  5  2  0  0  0  0
  7  6  1  0  0  0  0
  7  2  2  0  0  0  0
 10  6  1  0  0  0  0
 11 17  1  0  0  0  0
 11 12  1  0  0  0  0
 12 18  1  0  0  0  0
 13 12  2  0  0  0  0
 13 19  1  0  0  0  0
 14 13  1  0  0  0  0
 15 16  1  0  0  0  0
 15 14  2  0  0  0  0
 16 11  2  0  0  0  0
 20  7  1  0  0  0  0
 22 21  2  0  0  0  0
 22 20  1  0  0  0  0
 23 22  1  0  0  0  0
 24 23  1  0  0  0  0
 25 23  2  0  0  0  0
 25 26  1  0  0  0  0
 26 27  2  0  0  0  0
 27 21  1  0  0  0  0
 28 26  1  0  0  0  0
 29 31  1  0  0  0  0
 29 28  1  0  0  0  0
 30 29  1  0  0  0  0
 31 25  1  0  0  0  0
M  END
>  <minimizedAffinity>
-5.21192932

$$$$
