
 OpenBabel03272505083D

 31 34  0  0  0  0  0  0  0  0999 V2000
   35.9100   30.6270   46.0240 Cl  0  0  0  0  0  0  0  0  0  0  0  0
   36.2860   30.2450   47.6800 C   0  0  0  0  0  0  0  0  0  0  0  0
   37.5670   30.5200   48.1040 C   0  0  0  0  0  0  0  0  0  0  0  0
   37.8830   30.2210   49.4240 C   0  0  0  0  0  0  0  0  0  0  0  0
   36.9330   29.6730   50.2500 C   0  0  0  0  0  0  0  0  0  0  0  0
   35.6760   29.4260   49.7540 C   0  0  0  0  0  0  0  0  0  0  0  0
   35.2910   29.6970   48.4570 C   0  0  0  0  0  0  0  0  0  0  0  0
   38.8860   30.4280   49.7870 H   0  0  0  0  0  0  0  0  0  0  0  0
   37.1840   29.4420   51.2770 H   0  0  0  0  0  0  0  0  0  0  0  0
   34.9370   28.9890   50.4310 H   0  0  0  0  0  0  0  0  0  0  0  0
   39.7350   33.0230   46.5650 C   0  0  0  0  0  0  0  0  0  0  0  0
   40.3880   32.3230   45.5280 C   0  0  0  0  0  0  0  0  0  0  0  0
   40.0550   30.9730   45.3800 C   0  0  0  0  0  0  0  0  0  0  0  0
   39.1420   30.4190   46.2260 N   0  0  0  0  0  0  0  0  0  0  0  0
   38.5490   31.1060   47.1890 C   0  0  0  0  0  0  0  0  0  0  0  0
   38.8600   32.4080   47.3410 N   0  0  0  0  0  0  0  0  0  0  0  0
   39.9610   34.0690   46.7140 H   0  0  0  0  0  0  0  0  0  0  0  0
   41.0920   32.8490   44.9130 H   0  0  0  0  0  0  0  0  0  0  0  0
   40.5400   30.4120   44.5950 H   0  0  0  0  0  0  0  0  0  0  0  0
   33.6730   29.3810   47.8130 S   0  0  0  0  0  0  0  0  0  0  0  0
   31.9870   27.3640   48.1220 C   0  0  0  0  0  3  0  0  0  0  0  0
   33.2890   27.6470   47.6950 C   0  0  0  0  0  0  0  0  0  0  0  0
   34.0850   26.6100   47.2540 C   0  0  0  0  0  0  0  0  0  0  0  0
   35.0530   26.9330   46.9530 H   0  0  0  0  0  0  0  0  0  0  0  0
   33.5690   25.3300   47.2500 C   0  0  0  0  0  0  0  0  0  0  0  0
   32.2920   25.0280   47.6660 C   0  0  0  0  0  0  0  0  0  0  0  0
   31.4980   26.0670   48.1070 C   0  0  0  0  0  3  0  0  0  0  0  0
   32.1420   23.6560   47.5170 O   0  0  0  0  0  0  0  0  0  0  0  0
   33.4060   23.0670   47.3240 C   0  0  0  0  0  3  0  0  0  0  0  0
   33.7880   22.7060   48.2980 H   0  0  0  0  0  0  0  0  0  0  0  0
   34.1790   24.1590   46.8570 O   0  0  0  0  0  0  0  0  0  0  0  0
  1  2  1  0  0  0  0
  2  3  2  0  0  0  0
  2  7  1  0  0  0  0
  3  4  1  0  0  0  0
  4  8  1  0  0  0  0
  4  5  2  0  0  0  0
  5  9  1  0  0  0  0
  6  5  1  0  0  0  0
  6 10  1  0  0  0  0
  7  6  2  0  0  0  0
 11 17  1  0  0  0  0
 11 16  1  0  0  0  0
 12 11  2  0  0  0  0
 13 12  1  0  0  0  0
 13 14  2  0  0  0  0
 14 15  1  0  0  0  0
 15 16  2  0  0  0  0
 15  3  1  0  0  0  0
 18 12  1  0  0  0  0
 19 13  1  0  0  0  0
 20  7  1  0  0  0  0
 22 20  1  0  0  0  0
 22 21  2  0  0  0  0
 23 22  1  0  0  0  0
 24 23  1  0  0  0  0
 25 23  2  0  0  0  0
 25 26  1  0  0  0  0
 26 27  2  0  0  0  0
 27 21  1  0  0  0  0
 28 26  1  0  0  0  0
 29 28  1  0  0  0  0
 29 30  1  0  0  0  0
 31 25  1  0  0  0  0
 31 29  1  0  0  0  0
M  END
>  <minimizedAffinity>
-5.66899109

>  <minimizedRMSD>
1.27546453

$$$$
