
 OpenBabel03272501563D

 33 36  0  0  0  0  0  0  0  0999 V2000
   32.9450   28.2650   47.8430 C   0  0  0  0  0  0  0  0  0  0  0  0
   32.0490   27.5500   48.6180 C   0  0  0  0  0  0  0  0  0  0  0  0
   30.7640   27.7430   48.1270 C   0  0  0  0  0  0  0  0  0  0  0  0
   30.9220   28.5780   47.0560 N   0  0  0  0  0  0  0  0  0  0  0  0
   32.2070   28.8720   46.9080 N   0  0  0  0  0  0  0  0  0  0  0  0
   32.3160   26.9420   49.4690 H   0  0  0  0  0  0  0  0  0  0  0  0
   29.8810   27.2910   48.5570 H   0  0  0  0  0  0  0  0  0  0  0  0
   28.6420   29.2530   47.1130 C   0  0  0  0  0  3  0  0  0  0  0  0
   29.7480   28.9540   46.3440 C   0  0  0  0  0  0  0  0  0  0  0  0
   29.6740   29.0280   44.9670 C   0  0  0  0  0  0  0  0  0  0  0  0
   30.5620   28.7860   44.3940 H   0  0  0  0  0  0  0  0  0  0  0  0
   28.4970   29.4010   44.3410 C   0  0  0  0  0  0  0  0  0  0  0  0
   27.3580   29.7120   45.0870 C   0  0  0  0  0  0  0  0  0  0  0  0
   27.4660   29.6270   46.4780 C   0  0  0  0  0  3  0  0  0  0  0  0
   26.3100   30.0560   44.2300 O   0  0  0  0  0  0  0  0  0  0  0  0
   26.9590   30.3340   42.9810 C   0  0  0  0  0  3  0  0  0  0  0  0
   26.2670   30.0620   42.1660 H   0  0  0  0  0  0  0  0  0  0  0  0
   28.1400   29.5580   43.0050 O   0  0  0  0  0  0  0  0  0  0  0  0
   34.4280   28.3510   48.0070 C   0  0  0  0  0  0  0  0  0  0  0  0
   34.9410   27.5380   47.4540 H   0  0  0  0  0  0  0  0  0  0  0  0
   34.7260   29.3510   47.6520 H   0  0  0  0  0  0  0  0  0  0  0  0
   34.6870   28.2870   49.4910 C   0  0  0  0  0  0  0  0  0  0  0  0
   34.8880   27.2490   49.8080 H   0  0  0  0  0  0  0  0  0  0  0  0
   33.8340   28.7360   50.0440 H   0  0  0  0  0  0  0  0  0  0  0  0
   37.2600   30.1690   51.3880 C   0  0  0  0  0  0  0  0  0  0  0  0
   38.0590   30.6960   50.3510 C   0  0  0  0  0  0  0  0  0  0  0  0
   37.7030   30.3980   49.0330 C   0  0  0  0  0  0  0  0  0  0  0  0
   36.6170   29.6240   48.8050 N   0  0  0  0  0  0  0  0  0  0  0  0
   35.8770   29.1390   49.8310 C   0  0  0  0  0  0  0  0  0  0  0  0
   36.1990   29.4110   51.0840 N   0  0  0  0  0  0  0  0  0  0  0  0
   37.4320   30.3300   52.4450 H   0  0  0  0  0  0  0  0  0  0  0  0
   38.9050   31.3020   50.6460 H   0  0  0  0  0  0  0  0  0  0  0  0
   38.3210   30.8060   48.2440 H   0  0  0  0  0  0  0  0  0  0  0  0
  1 19  1  0  0  0  0
  1  2  1  0  0  0  0
  2  6  1  0  0  0  0
  3  7  1  0  0  0  0
  3  2  2  0  0  0  0
  4  3  1  0  0  0  0
  5  4  1  0  0  0  0
  5  1  2  0  0  0  0
  9  4  1  0  0  0  0
  9  8  2  0  0  0  0
 10  9  1  0  0  0  0
 11 10  1  0  0  0  0
 12 10  2  0  0  0  0
 12 13  1  0  0  0  0
 13 14  2  0  0  0  0
 14  8  1  0  0  0  0
 15 13  1  0  0  0  0
 16 18  1  0  0  0  0
 16 15  1  0  0  0  0
 17 16  1  0  0  0  0
 18 12  1  0  0  0  0
 19 22  1  0  0  0  0
 20 19  1  0  0  0  0
 21 19  1  0  0  0  0
 22 23  1  0  0  0  0
 22 29  1  0  0  0  0
 22 24  1  0  0  0  0
 25 31  1  0  0  0  0
 26 32  1  0  0  0  0
 26 25  2  0  0  0  0
 27 26  1  0  0  0  0
 28 27  2  0  0  0  0
 28 29  1  0  0  0  0
 29 30  2  0  0  0  0
 30 25  1  0  0  0  0
 33 27  1  0  0  0  0
M  END
>  <minimizedAffinity>
-5.22895336

>  <minimizedRMSD>
0.301585168

$$$$
