
 OpenBabel03272508033D

 30 33  0  0  0  0  0  0  0  0999 V2000
   37.4220   26.3860   34.2710 C   0  0  0  0  0  0  0  0  0  0  0  0
   37.4310   26.7040   32.9420 C   0  0  0  0  0  0  0  0  0  0  0  0
   36.7810   27.9330   32.7450 C   0  0  0  0  0  0  0  0  0  0  0  0
   36.3980   28.3080   34.0090 N   0  0  0  0  0  0  0  0  0  0  0  0
   36.7770   27.4000   34.8780 N   0  0  0  0  0  0  0  0  0  0  0  0
   37.8880   26.0700   32.1730 H   0  0  0  0  0  0  0  0  0  0  0  0
   36.6770   28.3640   31.7810 H   0  0  0  0  0  0  0  0  0  0  0  0
   34.8100   30.0740   33.2260 C   0  0  0  0  0  3  0  0  0  0  0  0
   35.6990   29.5400   34.1510 C   0  0  0  0  0  0  0  0  0  0  0  0
   35.9730   30.2180   35.3430 C   0  0  0  0  0  0  0  0  0  0  0  0
   36.6550   29.8470   36.0950 H   0  0  0  0  0  0  0  0  0  0  0  0
   35.3430   31.4320   35.5820 C   0  0  0  0  0  0  0  0  0  0  0  0
   34.4510   31.9590   34.6430 C   0  0  0  0  0  0  0  0  0  0  0  0
   34.1860   31.2830   33.4700 C   0  0  0  0  0  3  0  0  0  0  0  0
   34.0180   33.1660   35.2070 O   0  0  0  0  0  0  0  0  0  0  0  0
   35.0090   33.6080   36.1450 C   0  0  0  0  0  3  0  0  0  0  0  0
   34.5990   34.2740   36.9030 H   0  0  0  0  0  0  0  0  0  0  0  0
   35.4110   32.3300   36.6590 O   0  0  0  0  0  0  0  0  0  0  0  0
   37.9890   25.1970   34.9180 C   0  0  0  0  0  0  0  0  0  0  0  0
   37.8500   25.0900   36.3210 C   0  0  0  0  0  0  0  0  0  0  0  0
   38.3890   23.9550   36.9440 C   0  0  0  0  0  0  0  0  0  0  0  0
   39.0080   23.0420   36.1540 N   0  0  0  0  0  0  0  0  0  0  0  0
   39.1220   23.1740   34.8220 C   0  0  0  0  0  0  0  0  0  0  0  0
   38.6070   24.2590   34.2220 N   0  0  0  0  0  0  0  0  0  0  0  0
   37.3490   25.8430   36.9160 H   0  0  0  0  0  0  0  0  0  0  0  0
   39.6380   22.3800   34.2880 H   0  0  0  0  0  0  0  0  0  0  0  0
   38.2560   23.8210   38.4120 C   0  0  0  0  0  0  0  0  0  0  0  0
   39.4830   23.3970   38.8710 F   0  0  0  0  0  0  0  0  0  0  0  0
   37.9510   25.0310   39.0260 F   0  0  0  0  0  0  0  0  0  0  0  0
   37.3200   22.8710   38.7690 F   0  0  0  0  0  0  0  0  0  0  0  0
  1  5  2  0  0  0  0
  1 19  1  0  0  0  0
  2  1  1  0  0  0  0
  3  2  2  0  0  0  0
  3  4  1  0  0  0  0
  4  9  1  0  0  0  0
  4  5  1  0  0  0  0
  6  2  1  0  0  0  0
  7  3  1  0  0  0  0
  8 14  2  0  0  0  0
  8  9  1  0  0  0  0
  9 10  2  0  0  0  0
 10 12  1  0  0  0  0
 10 11  1  0  0  0  0
 12 18  1  0  0  0  0
 13 15  1  0  0  0  0
 13 12  2  0  0  0  0
 14 13  1  0  0  0  0
 15 16  1  0  0  0  0
 16 18  1  0  0  0  0
 16 17  1  0  0  0  0
 19 20  1  0  0  0  0
 20 25  1  0  0  0  0
 20 21  2  0  0  0  0
 21 27  1  0  0  0  0
 22 21  1  0  0  0  0
 23 22  2  0  0  0  0
 24 23  1  0  0  0  0
 24 19  2  0  0  0  0
 26 23  1  0  0  0  0
 27 30  1  0  0  0  0
 27 28  1  0  0  0  0
 27 29  1  0  0  0  0
M  END
>  <minimizedAffinity>
-6.27135372

$$$$

 OpenBabel03272508033D

 30 33  0  0  0  0  0  0  0  0999 V2000
   37.6180   26.1570   34.2030 C   0  0  0  0  0  0  0  0  0  0  0  0
   37.8210   26.4900   32.8930 C   0  0  0  0  0  0  0  0  0  0  0  0
   37.1130   27.6630   32.5880 C   0  0  0  0  0  0  0  0  0  0  0  0
   36.4950   27.9910   33.7690 N   0  0  0  0  0  0  0  0  0  0  0  0
   36.8000   27.1070   34.6910 N   0  0  0  0  0  0  0  0  0  0  0  0
   38.4510   25.9040   32.2130 H   0  0  0  0  0  0  0  0  0  0  0  0
   37.1350   28.0950   31.6190 H   0  0  0  0  0  0  0  0  0  0  0  0
   35.6750   30.1180   34.7960 C   0  0  0  0  0  3  0  0  0  0  0  0
   35.6830   29.1600   33.7900 C   0  0  0  0  0  0  0  0  0  0  0  0
   34.8470   29.2940   32.6780 C   0  0  0  0  0  0  0  0  0  0  0  0
   34.8140   28.5780   31.8680 H   0  0  0  0  0  0  0  0  0  0  0  0
   34.0120   30.4010   32.5980 C   0  0  0  0  0  0  0  0  0  0  0  0
   34.0140   31.3580   33.6170 C   0  0  0  0  0  0  0  0  0  0  0  0
   34.8420   31.2180   34.7110 C   0  0  0  0  0  3  0  0  0  0  0  0
   33.0690   32.3090   33.2080 O   0  0  0  0  0  0  0  0  0  0  0  0
   32.1560   31.6780   32.2990 C   0  0  0  0  0  3  0  0  0  0  0  0
   31.6690   32.3910   31.6360 H   0  0  0  0  0  0  0  0  0  0  0  0
   33.0800   30.8070   31.6300 O   0  0  0  0  0  0  0  0  0  0  0  0
   38.1660   25.0110   34.9380 C   0  0  0  0  0  0  0  0  0  0  0  0
   37.9550   24.9720   36.3360 C   0  0  0  0  0  0  0  0  0  0  0  0
   38.4770   23.8790   37.0430 C   0  0  0  0  0  0  0  0  0  0  0  0
   39.1480   22.9370   36.3340 N   0  0  0  0  0  0  0  0  0  0  0  0
   39.3300   23.0050   35.0050 C   0  0  0  0  0  0  0  0  0  0  0  0
   38.8320   24.0490   34.3240 N   0  0  0  0  0  0  0  0  0  0  0  0
   37.4130   25.7460   36.8650 H   0  0  0  0  0  0  0  0  0  0  0  0
   39.8840   22.1930   34.5390 H   0  0  0  0  0  0  0  0  0  0  0  0
   38.2690   23.8170   38.5070 C   0  0  0  0  0  0  0  0  0  0  0  0
   39.4740   23.4340   39.0490 F   0  0  0  0  0  0  0  0  0  0  0  0
   37.9180   25.0520   39.0430 F   0  0  0  0  0  0  0  0  0  0  0  0
   37.3260   22.8740   38.8630 F   0  0  0  0  0  0  0  0  0  0  0  0
  1  5  2  0  0  0  0
  1 19  1  0  0  0  0
  2  1  1  0  0  0  0
  3  2  2  0  0  0  0
  3  4  1  0  0  0  0
  4  9  1  0  0  0  0
  4  5  1  0  0  0  0
  6  2  1  0  0  0  0
  7  3  1  0  0  0  0
  9  8  2  0  0  0  0
 10  9  1  0  0  0  0
 11 10  1  0  0  0  0
 12 10  2  0  0  0  0
 12 13  1  0  0  0  0
 13 14  2  0  0  0  0
 14  8  1  0  0  0  0
 15 13  1  0  0  0  0
 16 15  1  0  0  0  0
 17 16  1  0  0  0  0
 18 16  1  0  0  0  0
 18 12  1  0  0  0  0
 19 20  1  0  0  0  0
 20 25  1  0  0  0  0
 20 21  2  0  0  0  0
 21 27  1  0  0  0  0
 22 21  1  0  0  0  0
 23 22  2  0  0  0  0
 24 19  2  0  0  0  0
 24 23  1  0  0  0  0
 26 23  1  0  0  0  0
 27 30  1  0  0  0  0
 27 29  1  0  0  0  0
 27 28  1  0  0  0  0
M  END
>  <minimizedAffinity>
-6.21562195

$$$$

 OpenBabel03272508033D

 30 33  0  0  0  0  0  0  0  0999 V2000
   37.6780   25.9670   34.0590 C   0  0  0  0  0  0  0  0  0  0  0  0
   36.9720   27.0580   34.4830 C   0  0  0  0  0  0  0  0  0  0  0  0
   36.8720   27.9910   33.4390 C   0  0  0  0  0  0  0  0  0  0  0  0
   37.5460   27.3970   32.4020 N   0  0  0  0  0  0  0  0  0  0  0  0
   38.0060   26.2270   32.7800 N   0  0  0  0  0  0  0  0  0  0  0  0
   36.5600   27.1530   35.4950 H   0  0  0  0  0  0  0  0  0  0  0  0
   36.3600   28.9130   33.5590 H   0  0  0  0  0  0  0  0  0  0  0  0
   38.3130   27.6850   30.0390 C   0  0  0  0  0  3  0  0  0  0  0  0
   37.6260   28.1070   31.1700 C   0  0  0  0  0  0  0  0  0  0  0  0
   36.9330   29.3220   31.1650 C   0  0  0  0  0  0  0  0  0  0  0  0
   36.3830   29.6960   32.0170 H   0  0  0  0  0  0  0  0  0  0  0  0
   36.9460   30.0950   30.0120 C   0  0  0  0  0  0  0  0  0  0  0  0
   37.6420   29.6580   28.8800 C   0  0  0  0  0  0  0  0  0  0  0  0
   38.3230   28.4580   28.8940 C   0  0  0  0  0  3  0  0  0  0  0  0
   37.4390   30.6680   27.9310 O   0  0  0  0  0  0  0  0  0  0  0  0
   37.1280   31.8850   28.6240 C   0  0  0  0  0  3  0  0  0  0  0  0
   36.5700   32.5870   28.0060 H   0  0  0  0  0  0  0  0  0  0  0  0
   36.3600   31.3320   29.7030 O   0  0  0  0  0  0  0  0  0  0  0  0
   38.0180   24.7610   34.8220 C   0  0  0  0  0  0  0  0  0  0  0  0
   37.9920   24.8530   36.2330 C   0  0  0  0  0  0  0  0  0  0  0  0
   38.3150   23.7030   36.9670 C   0  0  0  0  0  0  0  0  0  0  0  0
   38.6310   22.5830   36.2690 N   0  0  0  0  0  0  0  0  0  0  0  0
   38.6460   22.5290   34.9270 C   0  0  0  0  0  0  0  0  0  0  0  0
   38.3370   23.6270   34.2210 N   0  0  0  0  0  0  0  0  0  0  0  0
   37.7340   25.7680   36.7510 H   0  0  0  0  0  0  0  0  0  0  0  0
   38.9150   21.5780   34.4730 H   0  0  0  0  0  0  0  0  0  0  0  0
   38.2950   23.7760   38.4460 C   0  0  0  0  0  0  0  0  0  0  0  0
   37.3820   22.8340   38.8630 F   0  0  0  0  0  0  0  0  0  0  0  0
   39.5300   23.4700   39.0060 F   0  0  0  0  0  0  0  0  0  0  0  0
   37.8710   25.0070   38.9040 F   0  0  0  0  0  0  0  0  0  0  0  0
  1  2  1  0  0  0  0
  1 19  1  0  0  0  0
  2  6  1  0  0  0  0
  3  7  1  0  0  0  0
  3  2  2  0  0  0  0
  4  5  1  0  0  0  0
  4  3  1  0  0  0  0
  5  1  2  0  0  0  0
  8  9  1  0  0  0  0
  9  4  1  0  0  0  0
 10  9  2  0  0  0  0
 10 11  1  0  0  0  0
 12 10  1  0  0  0  0
 13 14  1  0  0  0  0
 13 12  2  0  0  0  0
 14  8  2  0  0  0  0
 15 16  1  0  0  0  0
 15 13  1  0  0  0  0
 16 18  1  0  0  0  0
 17 16  1  0  0  0  0
 18 12  1  0  0  0  0
 19 20  1  0  0  0  0
 20 25  1  0  0  0  0
 20 21  2  0  0  0  0
 21 27  1  0  0  0  0
 22 21  1  0  0  0  0
 23 22  2  0  0  0  0
 24 19  2  0  0  0  0
 24 23  1  0  0  0  0
 26 23  1  0  0  0  0
 27 28  1  0  0  0  0
 27 30  1  0  0  0  0
 27 29  1  0  0  0  0
M  END
>  <minimizedAffinity>
-6.1599226

$$$$

 OpenBabel03272508033D

 30 33  0  0  0  0  0  0  0  0999 V2000
   37.8130   25.8770   34.0240 C   0  0  0  0  0  0  0  0  0  0  0  0
   37.0250   26.9320   34.3920 C   0  0  0  0  0  0  0  0  0  0  0  0
   36.9600   27.8620   33.3430 C   0  0  0  0  0  0  0  0  0  0  0  0
   37.7390   27.3040   32.3600 N   0  0  0  0  0  0  0  0  0  0  0  0
   38.2240   26.1560   32.7740 N   0  0  0  0  0  0  0  0  0  0  0  0
   36.5340   27.0050   35.3700 H   0  0  0  0  0  0  0  0  0  0  0  0
   36.3970   28.7580   33.4230 H   0  0  0  0  0  0  0  0  0  0  0  0
   36.9600   28.9300   30.6280 C   0  0  0  0  0  3  0  0  0  0  0  0
   37.8780   28.0200   31.1380 C   0  0  0  0  0  0  0  0  0  0  0  0
   39.0580   27.7400   30.4430 C   0  0  0  0  0  0  0  0  0  0  0  0
   39.8040   27.0420   30.7940 H   0  0  0  0  0  0  0  0  0  0  0  0
   39.2930   28.3860   29.2360 C   0  0  0  0  0  0  0  0  0  0  0  0
   38.3610   29.3000   28.7340 C   0  0  0  0  0  0  0  0  0  0  0  0
   37.1990   29.5710   29.4270 C   0  0  0  0  0  3  0  0  0  0  0  0
   38.9190   29.7440   27.5280 O   0  0  0  0  0  0  0  0  0  0  0  0
   39.8380   28.7470   27.0590 C   0  0  0  0  0  3  0  0  0  0  0  0
   40.5940   29.1570   26.3920 H   0  0  0  0  0  0  0  0  0  0  0  0
   40.3590   28.3180   28.3260 O   0  0  0  0  0  0  0  0  0  0  0  0
   38.1510   24.6860   34.8120 C   0  0  0  0  0  0  0  0  0  0  0  0
   38.0300   24.7790   36.2180 C   0  0  0  0  0  0  0  0  0  0  0  0
   38.3510   23.6430   36.9750 C   0  0  0  0  0  0  0  0  0  0  0  0
   38.7570   22.5360   36.3040 N   0  0  0  0  0  0  0  0  0  0  0  0
   38.8610   22.4820   34.9660 C   0  0  0  0  0  0  0  0  0  0  0  0
   38.5540   23.5660   34.2370 N   0  0  0  0  0  0  0  0  0  0  0  0
   37.7020   25.6830   36.7150 H   0  0  0  0  0  0  0  0  0  0  0  0
   39.1970   21.5420   34.5330 H   0  0  0  0  0  0  0  0  0  0  0  0
   38.2320   23.7170   38.4490 C   0  0  0  0  0  0  0  0  0  0  0  0
   39.4760   23.4100   38.9500 F   0  0  0  0  0  0  0  0  0  0  0  0
   37.8830   24.9900   38.8870 F   0  0  0  0  0  0  0  0  0  0  0  0
   37.3350   22.7930   38.9490 F   0  0  0  0  0  0  0  0  0  0  0  0
  1  2  1  0  0  0  0
  1 19  1  0  0  0  0
  2  6  1  0  0  0  0
  3  7  1  0  0  0  0
  3  2  2  0  0  0  0
  4  5  1  0  0  0  0
  4  3  1  0  0  0  0
  5  1  2  0  0  0  0
  8  9  1  0  0  0  0
  9  4  1  0  0  0  0
 10 11  1  0  0  0  0
 10  9  2  0  0  0  0
 12 10  1  0  0  0  0
 13 12  2  0  0  0  0
 13 14  1  0  0  0  0
 14  8  2  0  0  0  0
 15 13  1  0  0  0  0
 16 15  1  0  0  0  0
 16 18  1  0  0  0  0
 17 16  1  0  0  0  0
 18 12  1  0  0  0  0
 19 20  1  0  0  0  0
 20 25  1  0  0  0  0
 20 21  2  0  0  0  0
 21 27  1  0  0  0  0
 22 21  1  0  0  0  0
 23 22  2  0  0  0  0
 24 19  2  0  0  0  0
 24 23  1  0  0  0  0
 26 23  1  0  0  0  0
 27 29  1  0  0  0  0
 27 30  1  0  0  0  0
 27 28  1  0  0  0  0
M  END
>  <minimizedAffinity>
-6.02250004

$$$$

 OpenBabel03272508033D

 30 33  0  0  0  0  0  0  0  0999 V2000
   37.9410   25.2600   35.0710 C   0  0  0  0  0  0  0  0  0  0  0  0
   37.9680   24.9020   33.7520 C   0  0  0  0  0  0  0  0  0  0  0  0
   37.4250   25.9340   32.9710 C   0  0  0  0  0  0  0  0  0  0  0  0
   37.0830   26.8960   33.8880 N   0  0  0  0  0  0  0  0  0  0  0  0
   37.3890   26.4880   35.0980 N   0  0  0  0  0  0  0  0  0  0  0  0
   38.3640   23.9440   33.3960 H   0  0  0  0  0  0  0  0  0  0  0  0
   37.3520   25.8580   31.9150 H   0  0  0  0  0  0  0  0  0  0  0  0
   36.4280   28.4790   32.0670 C   0  0  0  0  0  3  0  0  0  0  0  0
   36.4940   28.0970   33.4010 C   0  0  0  0  0  0  0  0  0  0  0  0
   35.9530   28.9140   34.3980 C   0  0  0  0  0  0  0  0  0  0  0  0
   35.9770   28.6640   35.4500 H   0  0  0  0  0  0  0  0  0  0  0  0
   35.3530   30.1110   34.0310 C   0  0  0  0  0  0  0  0  0  0  0  0
   35.2940   30.4840   32.6850 C   0  0  0  0  0  0  0  0  0  0  0  0
   35.8290   29.6710   31.7070 C   0  0  0  0  0  3  0  0  0  0  0  0
   34.6340   31.7200   32.6910 O   0  0  0  0  0  0  0  0  0  0  0  0
   34.7970   32.3140   33.9860 C   0  0  0  0  0  3  0  0  0  0  0  0
   34.0150   33.0350   34.2160 H   0  0  0  0  0  0  0  0  0  0  0  0
   34.7350   31.1220   34.7830 O   0  0  0  0  0  0  0  0  0  0  0  0
   38.4070   24.4850   36.2260 C   0  0  0  0  0  0  0  0  0  0  0  0
   39.5740   23.7040   36.0580 C   0  0  0  0  0  0  0  0  0  0  0  0
   40.0240   22.9610   37.1590 C   0  0  0  0  0  0  0  0  0  0  0  0
   39.3060   23.0440   38.3070 N   0  0  0  0  0  0  0  0  0  0  0  0
   38.2010   23.7960   38.4330 C   0  0  0  0  0  0  0  0  0  0  0  0
   37.7670   24.5090   37.3820 N   0  0  0  0  0  0  0  0  0  0  0  0
   40.1190   23.6650   35.1230 H   0  0  0  0  0  0  0  0  0  0  0  0
   37.7030   23.7880   39.4000 H   0  0  0  0  0  0  0  0  0  0  0  0
   41.2450   22.1360   37.0060 C   0  0  0  0  0  0  0  0  0  0  0  0
   42.3040   23.0140   37.0170 F   0  0  0  0  0  0  0  0  0  0  0  0
   41.4070   21.2360   38.0540 F   0  0  0  0  0  0  0  0  0  0  0  0
   41.2710   21.4560   35.8050 F   0  0  0  0  0  0  0  0  0  0  0  0
  1  5  2  0  0  0  0
  1 19  1  0  0  0  0
  2  1  1  0  0  0  0
  3  2  2  0  0  0  0
  3  4  1  0  0  0  0
  4  5  1  0  0  0  0
  6  2  1  0  0  0  0
  7  3  1  0  0  0  0
  8  9  1  0  0  0  0
  9  4  1  0  0  0  0
  9 10  2  0  0  0  0
 10 11  1  0  0  0  0
 12 10  1  0  0  0  0
 12 18  1  0  0  0  0
 13 15  1  0  0  0  0
 13 12  2  0  0  0  0
 14  8  2  0  0  0  0
 14 13  1  0  0  0  0
 15 16  1  0  0  0  0
 16 17  1  0  0  0  0
 16 18  1  0  0  0  0
 19 24  1  0  0  0  0
 20 19  2  0  0  0  0
 20 21  1  0  0  0  0
 21 22  2  0  0  0  0
 22 23  1  0  0  0  0
 23 26  1  0  0  0  0
 24 23  2  0  0  0  0
 25 20  1  0  0  0  0
 27 28  1  0  0  0  0
 27 21  1  0  0  0  0
 27 29  1  0  0  0  0
 30 27  1  0  0  0  0
M  END
>  <minimizedAffinity>
-5.9932313

$$$$

 OpenBabel03272508033D

 30 33  0  0  0  0  0  0  0  0999 V2000
   36.7690   27.2210   33.6470 C   0  0  0  0  0  0  0  0  0  0  0  0
   37.1450   26.2900   32.7190 C   0  0  0  0  0  0  0  0  0  0  0  0
   37.7980   25.2230   33.3560 C   0  0  0  0  0  0  0  0  0  0  0  0
   37.7850   25.5760   34.6820 N   0  0  0  0  0  0  0  0  0  0  0  0
   37.1860   26.7340   34.8300 N   0  0  0  0  0  0  0  0  0  0  0  0
   36.9460   26.3950   31.6450 H   0  0  0  0  0  0  0  0  0  0  0  0
   38.1710   24.3910   32.8140 H   0  0  0  0  0  0  0  0  0  0  0  0
   38.0020   24.5160   36.9370 C   0  0  0  0  0  3  0  0  0  0  0  0
   38.3860   24.6800   35.6120 C   0  0  0  0  0  0  0  0  0  0  0  0
   39.4420   23.9320   35.0830 C   0  0  0  0  0  0  0  0  0  0  0  0
   39.7810   24.0210   34.0600 H   0  0  0  0  0  0  0  0  0  0  0  0
   40.0990   23.0270   35.9070 C   0  0  0  0  0  0  0  0  0  0  0  0
   39.7020   22.8720   37.2380 C   0  0  0  0  0  0  0  0  0  0  0  0
   38.6580   23.6130   37.7520 C   0  0  0  0  0  3  0  0  0  0  0  0
   40.5680   21.8970   37.7520 O   0  0  0  0  0  0  0  0  0  0  0  0
   41.7610   21.8860   36.9550 C   0  0  0  0  0  3  0  0  0  0  0  0
   42.2870   20.9340   37.0050 H   0  0  0  0  0  0  0  0  0  0  0  0
   41.1710   22.1520   35.6740 O   0  0  0  0  0  0  0  0  0  0  0  0
   36.0630   28.4870   33.4200 C   0  0  0  0  0  0  0  0  0  0  0  0
   35.9080   29.3540   34.5260 C   0  0  0  0  0  0  0  0  0  0  0  0
   35.2340   30.5650   34.3140 C   0  0  0  0  0  0  0  0  0  0  0  0
   34.7770   30.8170   33.0620 N   0  0  0  0  0  0  0  0  0  0  0  0
   34.9420   29.9710   32.0320 C   0  0  0  0  0  0  0  0  0  0  0  0
   35.5870   28.8110   32.2300 N   0  0  0  0  0  0  0  0  0  0  0  0
   36.2880   29.1140   35.5110 H   0  0  0  0  0  0  0  0  0  0  0  0
   34.5350   30.2750   31.0700 H   0  0  0  0  0  0  0  0  0  0  0  0
   35.0590   31.4890   35.4580 C   0  0  0  0  0  0  0  0  0  0  0  0
   34.0020   30.9980   36.1890 F   0  0  0  0  0  0  0  0  0  0  0  0
   36.1810   31.5290   36.2790 F   0  0  0  0  0  0  0  0  0  0  0  0
   34.7350   32.7690   35.0530 F   0  0  0  0  0  0  0  0  0  0  0  0
  1  5  2  0  0  0  0
  2  3  2  0  0  0  0
  2  1  1  0  0  0  0
  3  4  1  0  0  0  0
  4  5  1  0  0  0  0
  4  9  1  0  0  0  0
  6  2  1  0  0  0  0
  7  3  1  0  0  0  0
  8 14  1  0  0  0  0
  9  8  2  0  0  0  0
 10  9  1  0  0  0  0
 10 12  2  0  0  0  0
 11 10  1  0  0  0  0
 12 13  1  0  0  0  0
 13 15  1  0  0  0  0
 13 14  2  0  0  0  0
 16 17  1  0  0  0  0
 16 15  1  0  0  0  0
 18 12  1  0  0  0  0
 18 16  1  0  0  0  0
 19  1  1  0  0  0  0
 19 20  1  0  0  0  0
 20 25  1  0  0  0  0
 21 20  2  0  0  0  0
 21 27  1  0  0  0  0
 22 21  1  0  0  0  0
 23 24  1  0  0  0  0
 23 22  2  0  0  0  0
 24 19  2  0  0  0  0
 26 23  1  0  0  0  0
 27 28  1  0  0  0  0
 27 29  1  0  0  0  0
 30 27  1  0  0  0  0
M  END
>  <minimizedAffinity>
-5.95816517

$$$$

 OpenBabel03272508033D

 30 33  0  0  0  0  0  0  0  0999 V2000
   38.0030   24.8250   34.5040 C   0  0  0  0  0  0  0  0  0  0  0  0
   37.7590   24.2000   33.3130 C   0  0  0  0  0  0  0  0  0  0  0  0
   37.3600   25.1460   32.3560 C   0  0  0  0  0  0  0  0  0  0  0  0
   37.3830   26.3360   33.0400 N   0  0  0  0  0  0  0  0  0  0  0  0
   37.7570   26.1300   34.2810 N   0  0  0  0  0  0  0  0  0  0  0  0
   37.8700   23.1200   33.1660 H   0  0  0  0  0  0  0  0  0  0  0  0
   37.1220   24.8690   31.3590 H   0  0  0  0  0  0  0  0  0  0  0  0
   35.8950   28.2910   32.5770 C   0  0  0  0  0  3  0  0  0  0  0  0
   37.0210   27.5160   32.3300 C   0  0  0  0  0  0  0  0  0  0  0  0
   37.9140   27.8680   31.3140 C   0  0  0  0  0  0  0  0  0  0  0  0
   38.8040   27.3000   31.0800 H   0  0  0  0  0  0  0  0  0  0  0  0
   37.6540   29.0040   30.5590 C   0  0  0  0  0  0  0  0  0  0  0  0
   36.5170   29.7760   30.8180 C   0  0  0  0  0  0  0  0  0  0  0  0
   35.6410   29.4210   31.8230 C   0  0  0  0  0  3  0  0  0  0  0  0
   36.5790   30.8180   29.8840 O   0  0  0  0  0  0  0  0  0  0  0  0
   37.3810   30.3860   28.7750 C   0  0  0  0  0  3  0  0  0  0  0  0
   37.8160   31.2180   28.2250 H   0  0  0  0  0  0  0  0  0  0  0  0
   38.3450   29.6040   29.4950 O   0  0  0  0  0  0  0  0  0  0  0  0
   38.4400   24.2200   35.7670 C   0  0  0  0  0  0  0  0  0  0  0  0
   39.6420   23.4750   35.7510 C   0  0  0  0  0  0  0  0  0  0  0  0
   40.0640   22.8950   36.9560 C   0  0  0  0  0  0  0  0  0  0  0  0
   39.2870   23.0880   38.0510 N   0  0  0  0  0  0  0  0  0  0  0  0
   38.1500   23.8030   38.0320 C   0  0  0  0  0  0  0  0  0  0  0  0
   37.7430   24.3600   36.8810 N   0  0  0  0  0  0  0  0  0  0  0  0
   40.2340   23.3440   34.8540 H   0  0  0  0  0  0  0  0  0  0  0  0
   37.6060   23.8930   38.9690 H   0  0  0  0  0  0  0  0  0  0  0  0
   41.3200   22.1100   36.9630 C   0  0  0  0  0  0  0  0  0  0  0  0
   42.3440   23.0270   37.0390 F   0  0  0  0  0  0  0  0  0  0  0  0
   41.4060   21.2630   38.0630 F   0  0  0  0  0  0  0  0  0  0  0  0
   41.4900   21.3810   35.8030 F   0  0  0  0  0  0  0  0  0  0  0  0
  1 19  1  0  0  0  0
  2  1  1  0  0  0  0
  3  4  1  0  0  0  0
  3  2  2  0  0  0  0
  4  5  1  0  0  0  0
  5  1  2  0  0  0  0
  6  2  1  0  0  0  0
  7  3  1  0  0  0  0
  9  8  1  0  0  0  0
  9  4  1  0  0  0  0
 10  9  2  0  0  0  0
 11 10  1  0  0  0  0
 12 13  2  0  0  0  0
 12 10  1  0  0  0  0
 13 14  1  0  0  0  0
 14  8  2  0  0  0  0
 15 13  1  0  0  0  0
 16 18  1  0  0  0  0
 16 15  1  0  0  0  0
 17 16  1  0  0  0  0
 18 12  1  0  0  0  0
 19 24  1  0  0  0  0
 20 19  2  0  0  0  0
 20 21  1  0  0  0  0
 21 27  1  0  0  0  0
 21 22  2  0  0  0  0
 23 22  1  0  0  0  0
 23 26  1  0  0  0  0
 24 23  2  0  0  0  0
 25 20  1  0  0  0  0
 27 28  1  0  0  0  0
 27 29  1  0  0  0  0
 30 27  1  0  0  0  0
M  END
>  <minimizedAffinity>
-5.75206041

$$$$

 OpenBabel03272508033D

 30 33  0  0  0  0  0  0  0  0999 V2000
   35.6150   28.9550   31.9440 C   0  0  0  0  0  0  0  0  0  0  0  0
   36.2910   29.1230   30.7670 C   0  0  0  0  0  0  0  0  0  0  0  0
   36.8010   27.8890   30.3340 C   0  0  0  0  0  0  0  0  0  0  0  0
   36.3950   27.0070   31.3040 N   0  0  0  0  0  0  0  0  0  0  0  0
   35.7110   27.6420   32.2260 N   0  0  0  0  0  0  0  0  0  0  0  0
   36.3970   30.0930   30.2670 H   0  0  0  0  0  0  0  0  0  0  0  0
   37.3600   27.7980   29.4360 H   0  0  0  0  0  0  0  0  0  0  0  0
   37.9560   25.1810   30.6100 C   0  0  0  0  0  3  0  0  0  0  0  0
   36.7620   25.6400   31.1510 C   0  0  0  0  0  0  0  0  0  0  0  0
   35.7970   24.7350   31.6040 C   0  0  0  0  0  0  0  0  0  0  0  0
   34.8520   25.0390   32.0330 H   0  0  0  0  0  0  0  0  0  0  0  0
   36.0540   23.3750   31.5020 C   0  0  0  0  0  0  0  0  0  0  0  0
   37.2600   22.9260   30.9550 C   0  0  0  0  0  0  0  0  0  0  0  0
   38.2070   23.8260   30.5110 C   0  0  0  0  0  3  0  0  0  0  0  0
   37.1740   21.5290   31.0110 O   0  0  0  0  0  0  0  0  0  0  0  0
   35.7880   21.1630   31.0550 C   0  0  0  0  0  3  0  0  0  0  0  0
   35.6300   20.1820   31.5010 H   0  0  0  0  0  0  0  0  0  0  0  0
   35.3010   22.2460   31.8600 O   0  0  0  0  0  0  0  0  0  0  0  0
   34.9280   29.9750   32.7430 C   0  0  0  0  0  0  0  0  0  0  0  0
   35.5530   30.3970   33.9390 C   0  0  0  0  0  0  0  0  0  0  0  0
   34.9000   31.3720   34.7060 C   0  0  0  0  0  0  0  0  0  0  0  0
   33.7130   31.8400   34.2460 N   0  0  0  0  0  0  0  0  0  0  0  0
   33.1460   31.4180   33.1040 C   0  0  0  0  0  0  0  0  0  0  0  0
   33.7680   30.4850   32.3660 N   0  0  0  0  0  0  0  0  0  0  0  0
   36.5030   29.9970   34.2710 H   0  0  0  0  0  0  0  0  0  0  0  0
   32.1910   31.8620   32.8300 H   0  0  0  0  0  0  0  0  0  0  0  0
   35.5360   31.8300   35.9630 C   0  0  0  0  0  0  0  0  0  0  0  0
   36.6040   30.9890   36.1790 F   0  0  0  0  0  0  0  0  0  0  0  0
   36.0130   33.1320   35.8680 F   0  0  0  0  0  0  0  0  0  0  0  0
   34.6890   31.7240   37.0470 F   0  0  0  0  0  0  0  0  0  0  0  0
  1  5  2  0  0  0  0
  1 19  1  0  0  0  0
  2  1  1  0  0  0  0
  3  2  2  0  0  0  0
  3  4  1  0  0  0  0
  4  5  1  0  0  0  0
  6  2  1  0  0  0  0
  7  3  1  0  0  0  0
  8  9  1  0  0  0  0
  9  4  1  0  0  0  0
  9 10  2  0  0  0  0
 10 11  1  0  0  0  0
 12 10  1  0  0  0  0
 12 18  1  0  0  0  0
 13 15  1  0  0  0  0
 13 12  2  0  0  0  0
 14  8  2  0  0  0  0
 14 13  1  0  0  0  0
 15 16  1  0  0  0  0
 16 17  1  0  0  0  0
 16 18  1  0  0  0  0
 19 20  1  0  0  0  0
 20 25  1  0  0  0  0
 20 21  2  0  0  0  0
 21 27  1  0  0  0  0
 22 21  1  0  0  0  0
 23 22  2  0  0  0  0
 24 19  2  0  0  0  0
 24 23  1  0  0  0  0
 26 23  1  0  0  0  0
 27 28  1  0  0  0  0
 27 30  1  0  0  0  0
 29 27  1  0  0  0  0
M  END
>  <minimizedAffinity>
-5.65204096

$$$$

 OpenBabel03272508033D

 30 33  0  0  0  0  0  0  0  0999 V2000
   35.7010   29.1310   33.5670 C   0  0  0  0  0  0  0  0  0  0  0  0
   36.1890   28.8050   32.3320 C   0  0  0  0  0  0  0  0  0  0  0  0
   37.1200   27.7610   32.4510 C   0  0  0  0  0  0  0  0  0  0  0  0
   37.1500   27.5000   33.7980 N   0  0  0  0  0  0  0  0  0  0  0  0
   36.3230   28.3030   34.4270 N   0  0  0  0  0  0  0  0  0  0  0  0
   35.8750   29.3070   31.4080 H   0  0  0  0  0  0  0  0  0  0  0  0
   37.6200   27.3570   31.6070 H   0  0  0  0  0  0  0  0  0  0  0  0
   39.1120   25.9690   33.5590 C   0  0  0  0  0  3  0  0  0  0  0  0
   38.0180   26.4680   34.2540 C   0  0  0  0  0  0  0  0  0  0  0  0
   37.6870   25.9580   35.5130 C   0  0  0  0  0  0  0  0  0  0  0  0
   36.8470   26.3100   36.0960 H   0  0  0  0  0  0  0  0  0  0  0  0
   38.4710   24.9460   36.0520 C   0  0  0  0  0  0  0  0  0  0  0  0
   39.5690   24.4530   35.3420 C   0  0  0  0  0  0  0  0  0  0  0  0
   39.8890   24.9630   34.1000 C   0  0  0  0  0  3  0  0  0  0  0  0
   40.1110   23.4640   36.1730 O   0  0  0  0  0  0  0  0  0  0  0  0
   39.0800   23.0010   37.0570 C   0  0  0  0  0  3  0  0  0  0  0  0
   39.4790   22.5630   37.9700 H   0  0  0  0  0  0  0  0  0  0  0  0
   38.3960   24.2450   37.2660 O   0  0  0  0  0  0  0  0  0  0  0  0
   34.7120   30.1600   33.9020 C   0  0  0  0  0  0  0  0  0  0  0  0
   34.6390   30.5790   35.2510 C   0  0  0  0  0  0  0  0  0  0  0  0
   33.6950   31.5640   35.5770 C   0  0  0  0  0  0  0  0  0  0  0  0
   32.9170   32.0430   34.5740 N   0  0  0  0  0  0  0  0  0  0  0  0
   33.0120   31.6220   33.3020 C   0  0  0  0  0  0  0  0  0  0  0  0
   33.9150   30.6810   32.9850 N   0  0  0  0  0  0  0  0  0  0  0  0
   35.2790   30.1710   36.0230 H   0  0  0  0  0  0  0  0  0  0  0  0
   32.3380   32.0760   32.5790 H   0  0  0  0  0  0  0  0  0  0  0  0
   33.6010   32.0180   36.9830 C   0  0  0  0  0  0  0  0  0  0  0  0
   34.8960   32.1740   37.4220 F   0  0  0  0  0  0  0  0  0  0  0  0
   32.9460   33.2400   37.1000 F   0  0  0  0  0  0  0  0  0  0  0  0
   32.9880   31.0850   37.7960 F   0  0  0  0  0  0  0  0  0  0  0  0
  1 19  1  0  0  0  0
  1  5  2  0  0  0  0
  2  3  2  0  0  0  0
  2  1  1  0  0  0  0
  3  4  1  0  0  0  0
  4  9  1  0  0  0  0
  4  5  1  0  0  0  0
  6  2  1  0  0  0  0
  7  3  1  0  0  0  0
  8 14  2  0  0  0  0
  8  9  1  0  0  0  0
  9 10  2  0  0  0  0
 10 12  1  0  0  0  0
 10 11  1  0  0  0  0
 12 18  1  0  0  0  0
 13 12  2  0  0  0  0
 13 15  1  0  0  0  0
 14 13  1  0  0  0  0
 15 16  1  0  0  0  0
 16 18  1  0  0  0  0
 16 17  1  0  0  0  0
 19 20  1  0  0  0  0
 20 21  2  0  0  0  0
 20 25  1  0  0  0  0
 21 27  1  0  0  0  0
 22 21  1  0  0  0  0
 23 22  2  0  0  0  0
 24 23  1  0  0  0  0
 24 19  2  0  0  0  0
 26 23  1  0  0  0  0
 27 29  1  0  0  0  0
 27 28  1  0  0  0  0
 27 30  1  0  0  0  0
M  END
>  <minimizedAffinity>
-5.59784937

$$$$
