
 OpenBabel03272501563D

 33 36  0  0  0  0  0  0  0  0999 V2000
   32.9280   28.2700   47.8790 C   0  0  0  0  0  0  0  0  0  0  0  0
   32.0670   27.5790   48.7120 C   0  0  0  0  0  0  0  0  0  0  0  0
   30.7690   27.7000   48.2310 C   0  0  0  0  0  0  0  0  0  0  0  0
   30.8850   28.4700   47.1070 N   0  0  0  0  0  0  0  0  0  0  0  0
   32.1580   28.7930   46.9200 N   0  0  0  0  0  0  0  0  0  0  0  0
   32.3650   27.0340   49.5960 H   0  0  0  0  0  0  0  0  0  0  0  0
   29.9070   27.2500   48.7030 H   0  0  0  0  0  0  0  0  0  0  0  0
   28.6540   29.2930   47.1340 C   0  0  0  0  0  3  0  0  0  0  0  0
   29.6890   28.7630   46.3920 C   0  0  0  0  0  0  0  0  0  0  0  0
   29.5310   28.5470   45.0380 C   0  0  0  0  0  0  0  0  0  0  0  0
   30.3640   28.1290   44.4850 H   0  0  0  0  0  0  0  0  0  0  0  0
   28.3380   28.8560   44.4070 C   0  0  0  0  0  0  0  0  0  0  0  0
   27.2680   29.3940   45.1260 C   0  0  0  0  0  0  0  0  0  0  0  0
   27.4610   29.6010   46.4950 C   0  0  0  0  0  3  0  0  0  0  0  0
   26.1870   29.6170   44.2700 O   0  0  0  0  0  0  0  0  0  0  0  0
   26.7670   29.5790   42.9580 C   0  0  0  0  0  3  0  0  0  0  0  0
   26.0090   29.1860   42.2600 H   0  0  0  0  0  0  0  0  0  0  0  0
   27.9030   28.7480   43.0890 O   0  0  0  0  0  0  0  0  0  0  0  0
   34.4100   28.4110   48.0120 C   0  0  0  0  0  0  0  0  0  0  0  0
   34.9430   27.6510   47.4070 H   0  0  0  0  0  0  0  0  0  0  0  0
   34.6570   29.4410   47.7030 H   0  0  0  0  0  0  0  0  0  0  0  0
   34.7080   28.2850   49.4860 C   0  0  0  0  0  0  0  0  0  0  0  0
   34.9350   27.2370   49.7490 H   0  0  0  0  0  0  0  0  0  0  0  0
   33.8640   28.6930   50.0800 H   0  0  0  0  0  0  0  0  0  0  0  0
   37.2650   30.1720   51.4000 C   0  0  0  0  0  0  0  0  0  0  0  0
   38.0670   30.7040   50.3680 C   0  0  0  0  0  0  0  0  0  0  0  0
   37.7200   30.4080   49.0480 C   0  0  0  0  0  0  0  0  0  0  0  0
   36.6370   29.6300   48.8120 N   0  0  0  0  0  0  0  0  0  0  0  0
   35.8940   29.1400   49.8330 C   0  0  0  0  0  0  0  0  0  0  0  0
   36.2080   29.4110   51.0880 N   0  0  0  0  0  0  0  0  0  0  0  0
   37.4310   30.3310   52.4580 H   0  0  0  0  0  0  0  0  0  0  0  0
   38.9090   31.3130   50.6690 H   0  0  0  0  0  0  0  0  0  0  0  0
   38.3410   30.8200   48.2630 H   0  0  0  0  0  0  0  0  0  0  0  0
  1 19  1  0  0  0  0
  1  2  1  0  0  0  0
  2  6  1  0  0  0  0
  3  7  1  0  0  0  0
  3  2  2  0  0  0  0
  4  3  1  0  0  0  0
  5  4  1  0  0  0  0
  5  1  2  0  0  0  0
  9  4  1  0  0  0  0
  9  8  2  0  0  0  0
 10  9  1  0  0  0  0
 11 10  1  0  0  0  0
 12 10  2  0  0  0  0
 12 13  1  0  0  0  0
 13 14  2  0  0  0  0
 14  8  1  0  0  0  0
 15 13  1  0  0  0  0
 16 18  1  0  0  0  0
 16 15  1  0  0  0  0
 17 16  1  0  0  0  0
 18 12  1  0  0  0  0
 19 22  1  0  0  0  0
 20 19  1  0  0  0  0
 21 19  1  0  0  0  0
 22 23  1  0  0  0  0
 22 29  1  0  0  0  0
 22 24  1  0  0  0  0
 25 31  1  0  0  0  0
 26 32  1  0  0  0  0
 26 25  2  0  0  0  0
 27 26  1  0  0  0  0
 28 27  2  0  0  0  0
 28 29  1  0  0  0  0
 29 30  2  0  0  0  0
 30 25  1  0  0  0  0
 33 27  1  0  0  0  0
M  END
>  <minimizedAffinity>
-5.20837927

>  <minimizedRMSD>
0.436436474

$$$$
