
 OpenBabel03272508013D

 30 33  0  0  0  0  0  0  0  0999 V2000
   38.6290   30.6210   45.5700 C   0  0  0  0  0  0  0  0  0  0  0  0
   39.7570   31.3930   45.5290 C   0  0  0  0  0  0  0  0  0  0  0  0
   40.4990   31.0850   44.3770 C   0  0  0  0  0  0  0  0  0  0  0  0
   39.7580   30.1090   43.7610 N   0  0  0  0  0  0  0  0  0  0  0  0
   38.6800   29.8540   44.4650 N   0  0  0  0  0  0  0  0  0  0  0  0
   40.0090   32.1330   46.2980 H   0  0  0  0  0  0  0  0  0  0  0  0
   41.4140   31.5740   44.1540 H   0  0  0  0  0  0  0  0  0  0  0  0
   40.1850   28.2400   42.1550 C   0  0  0  0  0  3  0  0  0  0  0  0
   40.2540   29.5740   42.5380 C   0  0  0  0  0  0  0  0  0  0  0  0
   40.8470   30.5210   41.6990 C   0  0  0  0  0  0  0  0  0  0  0  0
   40.9270   31.5710   41.9480 H   0  0  0  0  0  0  0  0  0  0  0  0
   41.3650   30.1050   40.4800 C   0  0  0  0  0  0  0  0  0  0  0  0
   41.2900   28.7610   40.1060 C   0  0  0  0  0  0  0  0  0  0  0  0
   40.7030   27.8310   40.9400 C   0  0  0  0  0  3  0  0  0  0  0  0
   41.8990   28.7100   38.8450 O   0  0  0  0  0  0  0  0  0  0  0  0
   42.7840   29.8330   38.7250 C   0  0  0  0  0  3  0  0  0  0  0  0
   42.9740   30.1060   37.6880 H   0  0  0  0  0  0  0  0  0  0  0  0
   42.0070   30.8010   39.4440 O   0  0  0  0  0  0  0  0  0  0  0  0
   37.5770   30.6160   46.5920 C   0  0  0  0  0  0  0  0  0  0  0  0
   37.9510   30.9500   47.9140 C   0  0  0  0  0  0  0  0  0  0  0  0
   36.9490   30.9470   48.8950 C   0  0  0  0  0  0  0  0  0  0  0  0
   35.6910   30.6220   48.5050 N   0  0  0  0  0  0  0  0  0  0  0  0
   35.3690   30.3100   47.2390 C   0  0  0  0  0  0  0  0  0  0  0  0
   36.3250   30.3120   46.2970 N   0  0  0  0  0  0  0  0  0  0  0  0
   38.9680   31.2040   48.1850 H   0  0  0  0  0  0  0  0  0  0  0  0
   34.3280   30.0650   47.0380 H   0  0  0  0  0  0  0  0  0  0  0  0
   37.3180   31.2930   50.2870 C   0  0  0  0  0  0  0  0  0  0  0  0
   36.8070   32.5510   50.5170 F   0  0  0  0  0  0  0  0  0  0  0  0
   36.7630   30.4170   51.2130 F   0  0  0  0  0  0  0  0  0  0  0  0
   38.6850   31.3530   50.4670 F   0  0  0  0  0  0  0  0  0  0  0  0
  1 19  1  0  0  0  0
  2  1  1  0  0  0  0
  2  6  1  0  0  0  0
  3  2  2  0  0  0  0
  4  3  1  0  0  0  0
  4  5  1  0  0  0  0
  5  1  2  0  0  0  0
  7  3  1  0  0  0  0
  8  9  1  0  0  0  0
  9  4  1  0  0  0  0
 10 11  1  0  0  0  0
 10  9  2  0  0  0  0
 12 10  1  0  0  0  0
 13 12  2  0  0  0  0
 13 14  1  0  0  0  0
 14  8  2  0  0  0  0
 15 13  1  0  0  0  0
 16 15  1  0  0  0  0
 16 18  1  0  0  0  0
 17 16  1  0  0  0  0
 18 12  1  0  0  0  0
 19 20  1  0  0  0  0
 20 25  1  0  0  0  0
 20 21  2  0  0  0  0
 21 27  1  0  0  0  0
 22 21  1  0  0  0  0
 23 22  2  0  0  0  0
 24 19  2  0  0  0  0
 24 23  1  0  0  0  0
 26 23  1  0  0  0  0
 27 30  1  0  0  0  0
 27 28  1  0  0  0  0
 27 29  1  0  0  0  0
M  END
>  <minimizedAffinity>
-6.21938038

>  <minimizedRMSD>
1.53150356

$$$$
