
 OpenBabel03272501563D

 33 36  0  0  0  0  0  0  0  0999 V2000
   32.9660   28.2770   47.8570 C   0  0  0  0  0  0  0  0  0  0  0  0
   32.0720   27.6090   48.6740 C   0  0  0  0  0  0  0  0  0  0  0  0
   30.7870   27.7560   48.1650 C   0  0  0  0  0  0  0  0  0  0  0  0
   30.9450   28.5170   47.0390 N   0  0  0  0  0  0  0  0  0  0  0  0
   32.2280   28.8110   46.8780 N   0  0  0  0  0  0  0  0  0  0  0  0
   32.3390   27.0630   49.5670 H   0  0  0  0  0  0  0  0  0  0  0  0
   29.9060   27.3270   48.6190 H   0  0  0  0  0  0  0  0  0  0  0  0
   29.8080   30.0090   45.5770 C   0  0  0  0  0  3  0  0  0  0  0  0
   29.7720   28.8320   46.2960 C   0  0  0  0  0  0  0  0  0  0  0  0
   28.6430   28.0380   46.2670 C   0  0  0  0  0  0  0  0  0  0  0  0
   28.6480   27.1200   46.8440 H   0  0  0  0  0  0  0  0  0  0  0  0
   27.5360   28.4080   45.5210 C   0  0  0  0  0  0  0  0  0  0  0  0
   27.5380   29.5920   44.7810 C   0  0  0  0  0  0  0  0  0  0  0  0
   28.6950   30.3720   44.8310 C   0  0  0  0  0  3  0  0  0  0  0  0
   26.3160   29.7380   44.1210 O   0  0  0  0  0  0  0  0  0  0  0  0
   25.7390   28.4250   44.1590 C   0  0  0  0  0  3  0  0  0  0  0  0
   24.6420   28.5320   44.1990 H   0  0  0  0  0  0  0  0  0  0  0  0
   26.2930   27.8200   45.3100 O   0  0  0  0  0  0  0  0  0  0  0  0
   34.4470   28.3870   48.0220 C   0  0  0  0  0  0  0  0  0  0  0  0
   34.9750   27.5940   47.4560 H   0  0  0  0  0  0  0  0  0  0  0  0
   34.7260   29.3990   47.6840 H   0  0  0  0  0  0  0  0  0  0  0  0
   34.7070   28.3030   49.5050 C   0  0  0  0  0  0  0  0  0  0  0  0
   34.9090   27.2610   49.8070 H   0  0  0  0  0  0  0  0  0  0  0  0
   33.8550   28.7430   50.0650 H   0  0  0  0  0  0  0  0  0  0  0  0
   37.2740   30.1700   51.4260 C   0  0  0  0  0  0  0  0  0  0  0  0
   38.0800   30.7000   50.3950 C   0  0  0  0  0  0  0  0  0  0  0  0
   37.7310   30.4090   49.0740 C   0  0  0  0  0  0  0  0  0  0  0  0
   36.6440   29.6380   48.8360 N   0  0  0  0  0  0  0  0  0  0  0  0
   35.8980   29.1500   49.8550 C   0  0  0  0  0  0  0  0  0  0  0  0
   36.2130   29.4160   51.1110 N   0  0  0  0  0  0  0  0  0  0  0  0
   37.4410   30.3250   52.4840 H   0  0  0  0  0  0  0  0  0  0  0  0
   38.9250   31.3030   50.6970 H   0  0  0  0  0  0  0  0  0  0  0  0
   38.3550   30.8190   48.2900 H   0  0  0  0  0  0  0  0  0  0  0  0
  1 19  1  0  0  0  0
  1  2  1  0  0  0  0
  2  6  1  0  0  0  0
  3  7  1  0  0  0  0
  3  2  2  0  0  0  0
  4  3  1  0  0  0  0
  5  4  1  0  0  0  0
  5  1  2  0  0  0  0
  8  9  1  0  0  0  0
  9  4  1  0  0  0  0
 10  9  2  0  0  0  0
 10 11  1  0  0  0  0
 12 10  1  0  0  0  0
 13 14  1  0  0  0  0
 13 12  2  0  0  0  0
 14  8  2  0  0  0  0
 15 16  1  0  0  0  0
 15 13  1  0  0  0  0
 16 17  1  0  0  0  0
 16 18  1  0  0  0  0
 18 12  1  0  0  0  0
 19 22  1  0  0  0  0
 20 19  1  0  0  0  0
 21 19  1  0  0  0  0
 22 23  1  0  0  0  0
 22 29  1  0  0  0  0
 22 24  1  0  0  0  0
 25 31  1  0  0  0  0
 26 32  1  0  0  0  0
 26 25  2  0  0  0  0
 27 26  1  0  0  0  0
 28 27  2  0  0  0  0
 28 29  1  0  0  0  0
 29 30  2  0  0  0  0
 30 25  1  0  0  0  0
 33 27  1  0  0  0  0
M  END
>  <minimizedAffinity>
-5.29724407

>  <minimizedRMSD>
0.429239661

$$$$
