
 OpenBabel03272508013D

 30 33  0  0  0  0  0  0  0  0999 V2000
   37.7560   31.0570   45.2600 C   0  0  0  0  0  0  0  0  0  0  0  0
   38.1080   32.2520   44.6970 C   0  0  0  0  0  0  0  0  0  0  0  0
   38.8880   32.0240   43.5520 C   0  0  0  0  0  0  0  0  0  0  0  0
   38.9720   30.6560   43.4790 N   0  0  0  0  0  0  0  0  0  0  0  0
   38.3110   30.1150   44.4750 N   0  0  0  0  0  0  0  0  0  0  0  0
   37.8060   33.2230   45.1070 H   0  0  0  0  0  0  0  0  0  0  0  0
   39.2660   32.8230   42.9640 H   0  0  0  0  0  0  0  0  0  0  0  0
   40.5520   30.7980   41.5460 C   0  0  0  0  0  3  0  0  0  0  0  0
   39.7140   30.0950   42.4010 C   0  0  0  0  0  0  0  0  0  0  0  0
   39.5420   28.7160   42.2480 C   0  0  0  0  0  0  0  0  0  0  0  0
   38.9030   28.1210   42.8850 H   0  0  0  0  0  0  0  0  0  0  0  0
   40.2220   28.0660   41.2260 C   0  0  0  0  0  0  0  0  0  0  0  0
   41.0620   28.7870   40.3720 C   0  0  0  0  0  0  0  0  0  0  0  0
   41.2260   30.1480   40.5310 C   0  0  0  0  0  3  0  0  0  0  0  0
   41.5680   27.8280   39.4830 O   0  0  0  0  0  0  0  0  0  0  0  0
   40.6570   26.7200   39.4470 C   0  0  0  0  0  3  0  0  0  0  0  0
   41.1380   25.7960   39.1330 H   0  0  0  0  0  0  0  0  0  0  0  0
   40.2550   26.7220   40.8240 O   0  0  0  0  0  0  0  0  0  0  0  0
   36.9470   30.8300   46.4620 C   0  0  0  0  0  0  0  0  0  0  0  0
   37.4670   31.2910   47.6940 C   0  0  0  0  0  0  0  0  0  0  0  0
   36.6970   31.0770   48.8470 C   0  0  0  0  0  0  0  0  0  0  0  0
   35.5080   30.4410   48.6970 N   0  0  0  0  0  0  0  0  0  0  0  0
   35.0430   30.0160   47.5110 C   0  0  0  0  0  0  0  0  0  0  0  0
   35.7760   30.2190   46.4050 N   0  0  0  0  0  0  0  0  0  0  0  0
   38.4220   31.7940   47.7700 H   0  0  0  0  0  0  0  0  0  0  0  0
   34.0760   29.5180   47.5070 H   0  0  0  0  0  0  0  0  0  0  0  0
   37.2220   31.5510   50.1480 C   0  0  0  0  0  0  0  0  0  0  0  0
   36.6300   32.7720   50.3770 F   0  0  0  0  0  0  0  0  0  0  0  0
   36.8890   30.6960   51.1930 F   0  0  0  0  0  0  0  0  0  0  0  0
   38.5890   31.7420   50.1230 F   0  0  0  0  0  0  0  0  0  0  0  0
  1 19  1  0  0  0  0
  2  6  1  0  0  0  0
  2  1  1  0  0  0  0
  3  2  2  0  0  0  0
  4  3  1  0  0  0  0
  4  5  1  0  0  0  0
  5  1  2  0  0  0  0
  7  3  1  0  0  0  0
  8  9  1  0  0  0  0
  9  4  1  0  0  0  0
 10  9  2  0  0  0  0
 10 11  1  0  0  0  0
 12 10  1  0  0  0  0
 13 14  1  0  0  0  0
 13 12  2  0  0  0  0
 14  8  2  0  0  0  0
 15 13  1  0  0  0  0
 16 15  1  0  0  0  0
 16 18  1  0  0  0  0
 17 16  1  0  0  0  0
 18 12  1  0  0  0  0
 19 20  1  0  0  0  0
 20 25  1  0  0  0  0
 20 21  2  0  0  0  0
 21 27  1  0  0  0  0
 22 21  1  0  0  0  0
 23 22  2  0  0  0  0
 24 19  2  0  0  0  0
 24 23  1  0  0  0  0
 26 23  1  0  0  0  0
 27 28  1  0  0  0  0
 27 29  1  0  0  0  0
 30 27  1  0  0  0  0
M  END
>  <minimizedAffinity>
-6.02502632

>  <minimizedRMSD>
1.68453717

$$$$
