
 OpenBabel03272508013D

 30 33  0  0  0  0  0  0  0  0999 V2000
   37.8480   30.8230   45.2840 C   0  0  0  0  0  0  0  0  0  0  0  0
   38.3300   31.9530   44.6850 C   0  0  0  0  0  0  0  0  0  0  0  0
   39.1200   31.6020   43.5790 C   0  0  0  0  0  0  0  0  0  0  0  0
   39.0750   30.2300   43.5660 N   0  0  0  0  0  0  0  0  0  0  0  0
   38.3340   29.7990   44.5600 N   0  0  0  0  0  0  0  0  0  0  0  0
   38.1100   32.9660   45.0430 H   0  0  0  0  0  0  0  0  0  0  0  0
   39.5920   32.3330   42.9720 H   0  0  0  0  0  0  0  0  0  0  0  0
   41.1550   29.6740   42.2950 C   0  0  0  0  0  3  0  0  0  0  0  0
   39.7930   29.5530   42.5390 C   0  0  0  0  0  0  0  0  0  0  0  0
   39.0050   28.7120   41.7500 C   0  0  0  0  0  0  0  0  0  0  0  0
   37.9410   28.5800   41.8970 H   0  0  0  0  0  0  0  0  0  0  0  0
   39.6070   28.0030   40.7190 C   0  0  0  0  0  0  0  0  0  0  0  0
   40.9780   28.1340   40.4820 C   0  0  0  0  0  0  0  0  0  0  0  0
   41.7490   28.9670   41.2670 C   0  0  0  0  0  3  0  0  0  0  0  0
   41.2310   27.2930   39.3910 O   0  0  0  0  0  0  0  0  0  0  0  0
   40.0050   27.1130   38.6660 C   0  0  0  0  0  3  0  0  0  0  0  0
   39.9970   26.1940   38.0820 H   0  0  0  0  0  0  0  0  0  0  0  0
   39.0950   27.1000   39.7740 O   0  0  0  0  0  0  0  0  0  0  0  0
   36.9840   30.7280   46.4660 C   0  0  0  0  0  0  0  0  0  0  0  0
   37.4940   31.2250   47.6880 C   0  0  0  0  0  0  0  0  0  0  0  0
   36.6720   31.1370   48.8200 C   0  0  0  0  0  0  0  0  0  0  0  0
   35.4450   30.5790   48.6620 N   0  0  0  0  0  0  0  0  0  0  0  0
   34.9910   30.1170   47.4860 C   0  0  0  0  0  0  0  0  0  0  0  0
   35.7750   30.2000   46.4000 N   0  0  0  0  0  0  0  0  0  0  0  0
   38.4810   31.6630   47.7710 H   0  0  0  0  0  0  0  0  0  0  0  0
   33.9910   29.6890   47.4750 H   0  0  0  0  0  0  0  0  0  0  0  0
   37.1850   31.6510   50.1110 C   0  0  0  0  0  0  0  0  0  0  0  0
   36.8070   30.7340   51.0650 F   0  0  0  0  0  0  0  0  0  0  0  0
   38.5720   31.7530   50.1240 F   0  0  0  0  0  0  0  0  0  0  0  0
   36.6280   32.8670   50.4490 F   0  0  0  0  0  0  0  0  0  0  0  0
  1 19  1  0  0  0  0
  2  6  1  0  0  0  0
  2  1  1  0  0  0  0
  3  2  2  0  0  0  0
  4  3  1  0  0  0  0
  4  5  1  0  0  0  0
  5  1  2  0  0  0  0
  7  3  1  0  0  0  0
  8  9  1  0  0  0  0
  9  4  1  0  0  0  0
 10 11  1  0  0  0  0
 10  9  2  0  0  0  0
 12 10  1  0  0  0  0
 13 12  2  0  0  0  0
 13 14  1  0  0  0  0
 14  8  2  0  0  0  0
 15 13  1  0  0  0  0
 16 15  1  0  0  0  0
 16 18  1  0  0  0  0
 17 16  1  0  0  0  0
 18 12  1  0  0  0  0
 19 20  1  0  0  0  0
 20 25  1  0  0  0  0
 20 21  2  0  0  0  0
 21 27  1  0  0  0  0
 22 21  1  0  0  0  0
 23 22  2  0  0  0  0
 24 19  2  0  0  0  0
 24 23  1  0  0  0  0
 26 23  1  0  0  0  0
 27 29  1  0  0  0  0
 27 30  1  0  0  0  0
 27 28  1  0  0  0  0
M  END
>  <minimizedAffinity>
-5.8288517

>  <minimizedRMSD>
2.31670094

$$$$
