
 OpenBabel03262522143D

 47 51  0  0  1  0  0  0  0  0999 V2000
   39.5570   32.9160   43.7920 C   0  0  0  0  0  0  0  0  0  0  0  0
   38.4790   32.9100   44.0400 H   0  0  0  0  0  0  0  0  0  0  0  0
   39.7030   33.8120   43.1440 H   0  0  0  0  0  0  0  0  0  0  0  0
   38.8480   29.7490   42.3520 C   0  0  1  0  0  0  0  0  0  0  0  0
   38.8730   31.2490   42.0810 C   0  0  0  0  0  0  0  0  0  0  0  0
   39.9760   31.7000   42.9910 C   0  0  2  0  0  0  0  0  0  0  0  0
   40.3370   30.6460   43.7870 O   0  0  0  0  0  0  0  0  0  0  0  0
   39.2960   29.7370   43.8080 C   0  0  0  0  0  0  0  0  0  0  0  0
   39.5670   29.2610   41.6910 H   0  0  0  0  0  0  0  0  0  0  0  0
   39.1910   31.4710   41.0350 H   0  0  0  0  0  0  0  0  0  0  0  0
   37.9030   31.7210   42.3020 H   0  0  0  0  0  0  0  0  0  0  0  0
   40.8880   32.0180   42.4300 H   0  0  0  0  0  0  0  0  0  0  0  0
   38.4190   30.0580   44.3990 H   0  0  0  0  0  0  0  0  0  0  0  0
   39.6610   28.7230   44.0900 H   0  0  0  0  0  0  0  0  0  0  0  0
   37.5900   29.2230   42.1860 O   0  0  0  0  0  0  0  0  0  0  0  0
   37.8860   27.1640   40.9160 C   0  0  0  0  0  3  0  0  0  0  0  0
   37.1470   28.2540   41.3320 C   0  0  0  0  0  0  0  0  0  0  0  0
   35.8630   28.3490   40.8300 C   0  0  0  0  0  0  0  0  0  0  0  0
   35.1780   29.1420   41.0670 H   0  0  0  0  0  0  0  0  0  0  0  0
   35.3810   27.3750   39.9540 C   0  0  0  0  0  0  0  0  0  0  0  0
   36.1420   26.2810   39.5450 C   0  0  0  0  0  0  0  0  0  0  0  0
   37.4210   26.1940   40.0520 C   0  0  0  0  0  3  0  0  0  0  0  0
   35.3800   25.5060   38.6820 O   0  0  0  0  0  0  0  0  0  0  0  0
   34.0290   25.8300   38.9590 C   0  0  0  0  0  3  0  0  0  0  0  0
   33.3600   25.6600   38.1050 H   0  0  0  0  0  0  0  0  0  0  0  0
   34.1540   27.2000   39.2930 O   0  0  0  0  0  0  0  0  0  0  0  0
   40.6460   33.0350   45.2260 S   0  0  0  0  0  0  0  0  0  0  0  0
   37.7790   31.7660   47.6590 C   0  0  0  0  0  0  0  0  0  0  0  0
   37.9430   32.5440   48.8160 C   0  0  0  0  0  0  0  0  0  0  0  0
   38.9360   33.4860   48.8980 C   0  0  0  0  0  0  0  0  0  0  0  0
   39.7460   33.6180   47.7940 C   0  0  0  0  0  0  0  0  0  0  0  0
   39.5720   32.8540   46.6800 C   0  0  0  0  0  0  0  0  0  0  0  0
   38.5920   31.9200   46.5920 N   0  0  0  0  0  0  0  0  0  0  0  0
   37.2870   32.4150   49.6690 H   0  0  0  0  0  0  0  0  0  0  0  0
   39.1150   34.1160   49.7590 H   0  0  0  0  0  0  0  0  0  0  0  0
   40.5660   34.3320   47.7430 H   0  0  0  0  0  0  0  0  0  0  0  0
   36.7160   30.8000   47.6490 C   0  0  0  0  0  0  0  0  0  0  0  0
   36.2230   30.3910   46.5930 O   0  0  0  0  0  0  0  0  0  0  0  0
   37.0290   29.6330   49.8060 C   0  0  0  0  0  0  0  0  0  0  0  0
   36.1450   30.2350   48.8920 C   0  0  0  0  0  0  0  0  0  0  0  0
   34.7780   30.2800   49.1780 C   0  0  0  0  0  0  0  0  0  0  0  0
   34.3430   29.7310   50.3550 N   0  0  0  0  0  0  0  0  0  0  0  0
   35.2140   29.1570   51.2180 C   0  0  0  0  0  0  0  0  0  0  0  0
   36.5310   29.1120   50.9450 N   0  0  0  0  0  0  0  0  0  0  0  0
   38.0900   29.5800   49.6210 H   0  0  0  0  0  0  0  0  0  0  0  0
   34.1370   30.7420   48.4670 H   0  0  0  0  0  0  0  0  0  0  0  0
   34.9510   28.7100   52.1490 H   0  0  0  0  0  0  0  0  0  0  0  0
  1  2  1  0  0  0  0
  1 27  1  0  0  0  0
  3  1  1  0  0  0  0
  4  9  1  6  0  0  0
  4  8  1  0  0  0  0
  5 11  1  0  0  0  0
  5  4  1  0  0  0  0
  5  6  1  0  0  0  0
  6 12  1  6  0  0  0
  6  7  1  0  0  0  0
  6  1  1  0  0  0  0
  7  8  1  0  0  0  0
  8 14  1  0  0  0  0
  8 13  1  0  0  0  0
 10  5  1  0  0  0  0
 15  4  1  0  0  0  0
 16 17  1  0  0  0  0
 17 15  1  0  0  0  0
 18 19  1  0  0  0  0
 18 17  2  0  0  0  0
 20 18  1  0  0  0  0
 21 20  2  0  0  0  0
 21 22  1  0  0  0  0
 22 16  2  0  0  0  0
 23 24  1  0  0  0  0
 23 21  1  0  0  0  0
 24 26  1  0  0  0  0
 25 24  1  0  0  0  0
 26 20  1  0  0  0  0
 27 32  1  0  0  0  0
 28 29  1  0  0  0  0
 29 30  2  0  0  0  0
 29 34  1  0  0  0  0
 30 35  1  0  0  0  0
 31 30  1  0  0  0  0
 32 31  2  0  0  0  0
 33 32  1  0  0  0  0
 33 28  2  0  0  0  0
 36 31  1  0  0  0  0
 37 28  1  0  0  0  0
 37 40  1  0  0  0  0
 38 37  2  0  0  0  0
 39 44  1  0  0  0  0
 40 41  1  0  0  0  0
 40 39  2  0  0  0  0
 41 42  2  0  0  0  0
 42 43  1  0  0  0  0
 43 47  1  0  0  0  0
 44 43  2  0  0  0  0
 45 39  1  0  0  0  0
 46 41  1  0  0  0  0
M  END
>  <minimizedAffinity>
-5.02202511

>  <minimizedRMSD>
0.132916242

$$$$
