
 OpenBabel03262522143D

 47 51  0  0  1  0  0  0  0  0999 V2000
   39.4120   33.0300   43.9300 C   0  0  0  0  0  0  0  0  0  0  0  0
   38.3440   32.8920   44.1830 H   0  0  0  0  0  0  0  0  0  0  0  0
   39.4300   33.8690   43.1940 H   0  0  0  0  0  0  0  0  0  0  0  0
   39.1360   29.7170   42.6840 C   0  0  1  0  0  0  0  0  0  0  0  0
   39.0310   31.1890   42.3040 C   0  0  0  0  0  0  0  0  0  0  0  0
   40.0110   31.8150   43.2520 C   0  0  2  0  0  0  0  0  0  0  0  0
   40.4140   30.8600   44.1480 O   0  0  0  0  0  0  0  0  0  0  0  0
   39.4710   29.8500   44.1640 C   0  0  0  0  0  0  0  0  0  0  0  0
   39.9490   29.2650   42.1130 H   0  0  0  0  0  0  0  0  0  0  0  0
   39.4040   31.3740   41.2690 H   0  0  0  0  0  0  0  0  0  0  0  0
   38.0050   31.5700   42.4230 H   0  0  0  0  0  0  0  0  0  0  0  0
   40.9260   32.1890   42.7330 H   0  0  0  0  0  0  0  0  0  0  0  0
   38.5240   30.1150   44.6680 H   0  0  0  0  0  0  0  0  0  0  0  0
   39.9140   28.9020   44.5460 H   0  0  0  0  0  0  0  0  0  0  0  0
   37.9540   29.0510   42.4710 O   0  0  0  0  0  0  0  0  0  0  0  0
   36.3300   27.2750   42.8600 C   0  0  0  0  0  3  0  0  0  0  0  0
   37.6190   27.7510   42.7230 C   0  0  0  0  0  0  0  0  0  0  0  0
   38.6330   26.8200   42.8560 C   0  0  0  0  0  0  0  0  0  0  0  0
   39.6780   27.0490   42.7750 H   0  0  0  0  0  0  0  0  0  0  0  0
   38.3240   25.4840   43.1140 C   0  0  0  0  0  0  0  0  0  0  0  0
   37.0160   25.0210   43.2480 C   0  0  0  0  0  0  0  0  0  0  0  0
   36.0120   25.9560   43.1140 C   0  0  0  0  0  3  0  0  0  0  0  0
   37.0490   23.6570   43.4980 O   0  0  0  0  0  0  0  0  0  0  0  0
   38.3040   23.2050   43.0190 C   0  0  0  0  0  3  0  0  0  0  0  0
   38.6570   22.2950   43.5230 H   0  0  0  0  0  0  0  0  0  0  0  0
   39.1100   24.3350   43.2960 O   0  0  0  0  0  0  0  0  0  0  0  0
   40.4600   33.4510   45.3370 S   0  0  0  0  0  0  0  0  0  0  0  0
   37.7700   31.8540   47.7800 C   0  0  0  0  0  0  0  0  0  0  0  0
   37.9550   32.5420   48.9890 C   0  0  0  0  0  0  0  0  0  0  0  0
   38.9080   33.5210   49.1050 C   0  0  0  0  0  0  0  0  0  0  0  0
   39.6580   33.7810   47.9810 C   0  0  0  0  0  0  0  0  0  0  0  0
   39.4650   33.1020   46.8160 C   0  0  0  0  0  0  0  0  0  0  0  0
   38.5240   32.1320   46.6950 N   0  0  0  0  0  0  0  0  0  0  0  0
   37.3460   32.3130   49.8570 H   0  0  0  0  0  0  0  0  0  0  0  0
   39.1000   34.0870   50.0070 H   0  0  0  0  0  0  0  0  0  0  0  0
   40.4420   34.5350   47.9540 H   0  0  0  0  0  0  0  0  0  0  0  0
   36.7520   30.8420   47.7360 C   0  0  0  0  0  0  0  0  0  0  0  0
   36.3210   30.4030   46.6650 O   0  0  0  0  0  0  0  0  0  0  0  0
   37.0200   29.6310   49.8750 C   0  0  0  0  0  0  0  0  0  0  0  0
   36.1570   30.2610   48.9600 C   0  0  0  0  0  0  0  0  0  0  0  0
   34.7860   30.3190   49.2290 C   0  0  0  0  0  0  0  0  0  0  0  0
   34.3280   29.7540   50.3890 N   0  0  0  0  0  0  0  0  0  0  0  0
   35.1790   29.1530   51.2530 C   0  0  0  0  0  0  0  0  0  0  0  0
   36.5000   29.0950   50.9970 N   0  0  0  0  0  0  0  0  0  0  0  0
   38.0830   29.5660   49.7040 H   0  0  0  0  0  0  0  0  0  0  0  0
   34.1620   30.8020   48.5180 H   0  0  0  0  0  0  0  0  0  0  0  0
   34.8980   28.6920   52.1720 H   0  0  0  0  0  0  0  0  0  0  0  0
  1  2  1  0  0  0  0
  1 27  1  0  0  0  0
  3  1  1  0  0  0  0
  4  9  1  6  0  0  0
  4  8  1  0  0  0  0
  5 11  1  0  0  0  0
  5  4  1  0  0  0  0
  5  6  1  0  0  0  0
  6 12  1  6  0  0  0
  6  1  1  0  0  0  0
  6  7  1  0  0  0  0
  7  8  1  0  0  0  0
  8 14  1  0  0  0  0
  8 13  1  0  0  0  0
 10  5  1  0  0  0  0
 15  4  1  0  0  0  0
 15 17  1  0  0  0  0
 16 22  1  0  0  0  0
 17 18  1  0  0  0  0
 17 16  2  0  0  0  0
 18 20  2  0  0  0  0
 19 18  1  0  0  0  0
 20 21  1  0  0  0  0
 20 26  1  0  0  0  0
 21 23  1  0  0  0  0
 22 21  2  0  0  0  0
 24 26  1  0  0  0  0
 24 23  1  0  0  0  0
 24 25  1  0  0  0  0
 27 32  1  0  0  0  0
 28 29  1  0  0  0  0
 29 30  2  0  0  0  0
 29 34  1  0  0  0  0
 30 35  1  0  0  0  0
 31 30  1  0  0  0  0
 32 31  2  0  0  0  0
 33 32  1  0  0  0  0
 33 28  2  0  0  0  0
 36 31  1  0  0  0  0
 37 28  1  0  0  0  0
 37 40  1  0  0  0  0
 38 37  2  0  0  0  0
 39 44  1  0  0  0  0
 40 41  1  0  0  0  0
 40 39  2  0  0  0  0
 41 42  2  0  0  0  0
 42 43  1  0  0  0  0
 43 47  1  0  0  0  0
 44 43  2  0  0  0  0
 45 39  1  0  0  0  0
 46 41  1  0  0  0  0
M  END
>  <minimizedAffinity>
-5.5999012

>  <minimizedRMSD>
1.87252724

$$$$
