
 OpenBabel03262522143D

 47 51  0  0  1  0  0  0  0  0999 V2000
   39.5070   32.9430   43.7810 C   0  0  0  0  0  0  0  0  0  0  0  0
   38.4330   32.8930   44.0380 H   0  0  0  0  0  0  0  0  0  0  0  0
   39.6060   33.8320   43.1130 H   0  0  0  0  0  0  0  0  0  0  0  0
   38.9610   29.6860   42.4770 C   0  0  1  0  0  0  0  0  0  0  0  0
   38.8680   31.1730   42.1570 C   0  0  0  0  0  0  0  0  0  0  0  0
   39.9750   31.7310   43.0010 C   0  0  2  0  0  0  0  0  0  0  0  0
   40.4440   30.7330   43.8140 O   0  0  0  0  0  0  0  0  0  0  0  0
   39.4700   29.7560   43.9110 C   0  0  0  0  0  0  0  0  0  0  0  0
   39.6830   29.2260   41.8010 H   0  0  0  0  0  0  0  0  0  0  0  0
   39.1250   31.3800   41.0910 H   0  0  0  0  0  0  0  0  0  0  0  0
   37.8780   31.5850   42.4070 H   0  0  0  0  0  0  0  0  0  0  0  0
   40.8370   32.0910   42.3890 H   0  0  0  0  0  0  0  0  0  0  0  0
   38.6000   30.0370   44.5310 H   0  0  0  0  0  0  0  0  0  0  0  0
   39.9180   28.7810   44.2090 H   0  0  0  0  0  0  0  0  0  0  0  0
   37.7370   29.0690   42.3860 O   0  0  0  0  0  0  0  0  0  0  0  0
   36.7810   27.5410   40.7450 C   0  0  0  0  0  3  0  0  0  0  0  0
   37.4130   27.8190   41.9410 C   0  0  0  0  0  0  0  0  0  0  0  0
   37.7320   26.7310   42.7310 C   0  0  0  0  0  0  0  0  0  0  0  0
   38.2210   26.7990   43.6850 H   0  0  0  0  0  0  0  0  0  0  0  0
   37.4150   25.4400   42.3050 C   0  0  0  0  0  0  0  0  0  0  0  0
   36.7770   25.1790   41.0940 C   0  0  0  0  0  0  0  0  0  0  0  0
   36.4630   26.2700   40.3110 C   0  0  0  0  0  3  0  0  0  0  0  0
   36.6060   23.8080   40.9670 O   0  0  0  0  0  0  0  0  0  0  0  0
   37.5660   23.2170   41.8240 C   0  0  0  0  0  3  0  0  0  0  0  0
   37.2780   22.2150   42.1700 H   0  0  0  0  0  0  0  0  0  0  0  0
   37.6030   24.1690   42.8700 O   0  0  0  0  0  0  0  0  0  0  0  0
   40.6010   33.1430   45.2020 S   0  0  0  0  0  0  0  0  0  0  0  0
   37.7890   31.7860   47.6520 C   0  0  0  0  0  0  0  0  0  0  0  0
   37.9630   32.5400   48.8230 C   0  0  0  0  0  0  0  0  0  0  0  0
   38.9460   33.4920   48.9100 C   0  0  0  0  0  0  0  0  0  0  0  0
   39.7360   33.6590   47.7960 C   0  0  0  0  0  0  0  0  0  0  0  0
   39.5520   32.9170   46.6680 C   0  0  0  0  0  0  0  0  0  0  0  0
   38.5820   31.9730   46.5760 N   0  0  0  0  0  0  0  0  0  0  0  0
   37.3220   32.3850   49.6840 H   0  0  0  0  0  0  0  0  0  0  0  0
   39.1300   34.1060   49.7820 H   0  0  0  0  0  0  0  0  0  0  0  0
   40.5460   34.3840   47.7480 H   0  0  0  0  0  0  0  0  0  0  0  0
   36.7380   30.8070   47.6380 C   0  0  0  0  0  0  0  0  0  0  0  0
   36.2590   30.3870   46.5800 O   0  0  0  0  0  0  0  0  0  0  0  0
   37.0440   29.6410   49.7960 C   0  0  0  0  0  0  0  0  0  0  0  0
   36.1630   30.2420   48.8790 C   0  0  0  0  0  0  0  0  0  0  0  0
   34.7940   30.2850   49.1600 C   0  0  0  0  0  0  0  0  0  0  0  0
   34.3550   29.7350   50.3350 N   0  0  0  0  0  0  0  0  0  0  0  0
   35.2240   29.1630   51.2020 C   0  0  0  0  0  0  0  0  0  0  0  0
   36.5420   29.1200   50.9330 N   0  0  0  0  0  0  0  0  0  0  0  0
   38.1060   29.5890   49.6160 H   0  0  0  0  0  0  0  0  0  0  0  0
   34.1560   30.7460   48.4460 H   0  0  0  0  0  0  0  0  0  0  0  0
   34.9580   28.7160   52.1310 H   0  0  0  0  0  0  0  0  0  0  0  0
  1  2  1  0  0  0  0
  1 27  1  0  0  0  0
  3  1  1  0  0  0  0
  4  9  1  6  0  0  0
  4  8  1  0  0  0  0
  5 11  1  0  0  0  0
  5  4  1  0  0  0  0
  5  6  1  0  0  0  0
  6 12  1  6  0  0  0
  6  1  1  0  0  0  0
  6  7  1  0  0  0  0
  7  8  1  0  0  0  0
  8 14  1  0  0  0  0
  8 13  1  0  0  0  0
 10  5  1  0  0  0  0
 15  4  1  0  0  0  0
 16 17  1  0  0  0  0
 17 15  1  0  0  0  0
 17 18  2  0  0  0  0
 18 19  1  0  0  0  0
 20 18  1  0  0  0  0
 20 26  1  0  0  0  0
 21 20  2  0  0  0  0
 22 16  2  0  0  0  0
 22 21  1  0  0  0  0
 23 21  1  0  0  0  0
 23 24  1  0  0  0  0
 24 25  1  0  0  0  0
 24 26  1  0  0  0  0
 27 32  1  0  0  0  0
 28 29  1  0  0  0  0
 29 30  2  0  0  0  0
 29 34  1  0  0  0  0
 30 35  1  0  0  0  0
 31 30  1  0  0  0  0
 32 31  2  0  0  0  0
 33 32  1  0  0  0  0
 33 28  2  0  0  0  0
 36 31  1  0  0  0  0
 37 28  1  0  0  0  0
 37 40  1  0  0  0  0
 38 37  2  0  0  0  0
 39 44  1  0  0  0  0
 40 41  1  0  0  0  0
 40 39  2  0  0  0  0
 41 42  2  0  0  0  0
 42 43  1  0  0  0  0
 43 47  1  0  0  0  0
 44 43  2  0  0  0  0
 45 39  1  0  0  0  0
 46 41  1  0  0  0  0
M  END
>  <minimizedAffinity>
-5.29730129

>  <minimizedRMSD>
0.970275402

$$$$
