
 OpenBabel03262522143D

 47 51  0  0  1  0  0  0  0  0999 V2000
   39.3700   32.8570   43.7070 C   0  0  0  0  0  0  0  0  0  0  0  0
   38.3150   32.6530   43.9660 H   0  0  0  0  0  0  0  0  0  0  0  0
   39.3280   33.6160   42.8900 H   0  0  0  0  0  0  0  0  0  0  0  0
   39.3600   29.4660   42.6580 C   0  0  1  0  0  0  0  0  0  0  0  0
   39.2170   30.9050   42.1770 C   0  0  0  0  0  0  0  0  0  0  0  0
   40.0820   31.6370   43.1610 C   0  0  2  0  0  0  0  0  0  0  0  0
   40.4520   30.7600   44.1460 O   0  0  0  0  0  0  0  0  0  0  0  0
   39.5590   29.7040   44.1500 C   0  0  0  0  0  0  0  0  0  0  0  0
   40.2390   29.0230   42.1860 H   0  0  0  0  0  0  0  0  0  0  0  0
   39.6680   31.0460   41.1670 H   0  0  0  0  0  0  0  0  0  0  0  0
   38.1680   31.2370   42.1860 H   0  0  0  0  0  0  0  0  0  0  0  0
   41.0190   32.0270   42.6960 H   0  0  0  0  0  0  0  0  0  0  0  0
   38.5620   29.9490   44.5560 H   0  0  0  0  0  0  0  0  0  0  0  0
   40.0130   28.8050   44.6260 H   0  0  0  0  0  0  0  0  0  0  0  0
   38.2330   28.7260   42.3920 O   0  0  0  0  0  0  0  0  0  0  0  0
   36.6520   26.9040   42.7420 C   0  0  0  0  0  3  0  0  0  0  0  0
   37.9250   27.4400   42.7290 C   0  0  0  0  0  0  0  0  0  0  0  0
   38.9510   26.5860   43.0890 C   0  0  0  0  0  0  0  0  0  0  0  0
   39.9870   26.8660   43.1230 H   0  0  0  0  0  0  0  0  0  0  0  0
   38.6710   25.2640   43.4380 C   0  0  0  0  0  0  0  0  0  0  0  0
   37.3780   24.7410   43.4450 C   0  0  0  0  0  0  0  0  0  0  0  0
   36.3620   25.6000   43.0850 C   0  0  0  0  0  3  0  0  0  0  0  0
   37.4380   23.4100   43.8350 O   0  0  0  0  0  0  0  0  0  0  0  0
   38.7660   22.9890   43.5740 C   0  0  0  0  0  3  0  0  0  0  0  0
   39.0870   22.1540   44.2110 H   0  0  0  0  0  0  0  0  0  0  0  0
   39.4750   24.1860   43.8390 O   0  0  0  0  0  0  0  0  0  0  0  0
   40.3560   33.5070   45.0730 S   0  0  0  0  0  0  0  0  0  0  0  0
   37.7740   31.8350   47.5810 C   0  0  0  0  0  0  0  0  0  0  0  0
   38.0220   32.4770   48.8050 C   0  0  0  0  0  0  0  0  0  0  0  0
   38.9880   33.4450   48.9110 C   0  0  0  0  0  0  0  0  0  0  0  0
   39.6850   33.7420   47.7630 C   0  0  0  0  0  0  0  0  0  0  0  0
   39.4300   33.1080   46.5840 C   0  0  0  0  0  0  0  0  0  0  0  0
   38.4770   32.1500   46.4720 N   0  0  0  0  0  0  0  0  0  0  0  0
   37.4540   32.2190   49.6910 H   0  0  0  0  0  0  0  0  0  0  0  0
   39.2260   33.9750   49.8230 H   0  0  0  0  0  0  0  0  0  0  0  0
   40.4730   34.4920   47.7260 H   0  0  0  0  0  0  0  0  0  0  0  0
   36.7470   30.8320   47.5490 C   0  0  0  0  0  0  0  0  0  0  0  0
   36.3000   30.3970   46.4830 O   0  0  0  0  0  0  0  0  0  0  0  0
   37.0240   29.5890   49.6680 C   0  0  0  0  0  0  0  0  0  0  0  0
   36.1610   30.2560   48.7800 C   0  0  0  0  0  0  0  0  0  0  0  0
   34.7990   30.3530   49.0790 C   0  0  0  0  0  0  0  0  0  0  0  0
   34.3490   29.7890   50.2440 N   0  0  0  0  0  0  0  0  0  0  0  0
   35.2000   29.1520   51.0820 C   0  0  0  0  0  0  0  0  0  0  0  0
   36.5120   29.0570   50.7950 N   0  0  0  0  0  0  0  0  0  0  0  0
   38.0810   29.4940   49.4720 H   0  0  0  0  0  0  0  0  0  0  0  0
   34.1740   30.8640   48.3880 H   0  0  0  0  0  0  0  0  0  0  0  0
   34.9250   28.6900   52.0010 H   0  0  0  0  0  0  0  0  0  0  0  0
  1  2  1  0  0  0  0
  1 27  1  0  0  0  0
  3  1  1  0  0  0  0
  4  9  1  6  0  0  0
  4  8  1  0  0  0  0
  5 11  1  0  0  0  0
  5  4  1  0  0  0  0
  5  6  1  0  0  0  0
  6 12  1  6  0  0  0
  6  1  1  0  0  0  0
  6  7  1  0  0  0  0
  7  8  1  0  0  0  0
  8 13  1  0  0  0  0
  8 14  1  0  0  0  0
 10  5  1  0  0  0  0
 15  4  1  0  0  0  0
 15 17  1  0  0  0  0
 16 22  1  0  0  0  0
 17 16  2  0  0  0  0
 17 18  1  0  0  0  0
 18 19  1  0  0  0  0
 18 20  2  0  0  0  0
 20 21  1  0  0  0  0
 20 26  1  0  0  0  0
 21 23  1  0  0  0  0
 22 21  2  0  0  0  0
 24 23  1  0  0  0  0
 24 26  1  0  0  0  0
 24 25  1  0  0  0  0
 27 32  1  0  0  0  0
 28 29  1  0  0  0  0
 29 30  2  0  0  0  0
 29 34  1  0  0  0  0
 30 35  1  0  0  0  0
 31 30  1  0  0  0  0
 32 31  2  0  0  0  0
 33 32  1  0  0  0  0
 33 28  2  0  0  0  0
 36 31  1  0  0  0  0
 37 28  1  0  0  0  0
 37 40  1  0  0  0  0
 38 37  2  0  0  0  0
 39 44  1  0  0  0  0
 40 41  1  0  0  0  0
 40 39  2  0  0  0  0
 41 42  2  0  0  0  0
 42 43  1  0  0  0  0
 43 47  1  0  0  0  0
 44 43  2  0  0  0  0
 45 39  1  0  0  0  0
 46 41  1  0  0  0  0
M  END
>  <minimizedAffinity>
-5.68826866

>  <minimizedRMSD>
2.06741476

$$$$
