
 OpenBabel03262522143D

 47 51  0  0  1  0  0  0  0  0999 V2000
   39.4200   32.9070   43.8570 C   0  0  0  0  0  0  0  0  0  0  0  0
   38.3610   32.7020   44.0990 H   0  0  0  0  0  0  0  0  0  0  0  0
   39.3900   33.6520   43.0260 H   0  0  0  0  0  0  0  0  0  0  0  0
   39.4290   29.5230   42.7830 C   0  0  1  0  0  0  0  0  0  0  0  0
   39.3350   30.9670   42.3060 C   0  0  0  0  0  0  0  0  0  0  0  0
   40.1480   31.6810   43.3450 C   0  0  2  0  0  0  0  0  0  0  0  0
   40.4460   30.7920   44.3440 O   0  0  0  0  0  0  0  0  0  0  0  0
   39.5410   29.7490   44.2860 C   0  0  0  0  0  0  0  0  0  0  0  0
   40.3290   29.0720   42.3620 H   0  0  0  0  0  0  0  0  0  0  0  0
   39.8480   31.1100   41.3260 H   0  0  0  0  0  0  0  0  0  0  0  0
   38.2910   31.3140   42.2530 H   0  0  0  0  0  0  0  0  0  0  0  0
   41.1160   32.0610   42.9410 H   0  0  0  0  0  0  0  0  0  0  0  0
   38.5240   30.0050   44.6320 H   0  0  0  0  0  0  0  0  0  0  0  0
   39.9520   28.8410   44.7820 H   0  0  0  0  0  0  0  0  0  0  0  0
   38.3100   28.8010   42.4440 O   0  0  0  0  0  0  0  0  0  0  0  0
   36.6840   27.0090   42.7340 C   0  0  0  0  0  3  0  0  0  0  0  0
   37.9690   27.5140   42.7460 C   0  0  0  0  0  0  0  0  0  0  0  0
   38.9720   26.6280   43.0960 C   0  0  0  0  0  0  0  0  0  0  0  0
   40.0120   26.8830   43.1470 H   0  0  0  0  0  0  0  0  0  0  0  0
   38.6560   25.3050   43.4110 C   0  0  0  0  0  0  0  0  0  0  0  0
   37.3510   24.8140   43.3930 C   0  0  0  0  0  0  0  0  0  0  0  0
   36.3590   25.7040   43.0430 C   0  0  0  0  0  3  0  0  0  0  0  0
   37.3760   23.4730   43.7510 O   0  0  0  0  0  0  0  0  0  0  0  0
   38.6960   23.0260   43.4930 C   0  0  0  0  0  3  0  0  0  0  0  0
   38.9900   22.1680   44.1120 H   0  0  0  0  0  0  0  0  0  0  0  0
   39.4290   24.1990   43.7930 O   0  0  0  0  0  0  0  0  0  0  0  0
   40.3770   33.5850   45.2280 S   0  0  0  0  0  0  0  0  0  0  0  0
   37.7980   31.8830   47.7180 C   0  0  0  0  0  0  0  0  0  0  0  0
   38.0230   32.5340   48.9410 C   0  0  0  0  0  0  0  0  0  0  0  0
   38.9700   33.5180   49.0520 C   0  0  0  0  0  0  0  0  0  0  0  0
   39.6740   33.8220   47.9100 C   0  0  0  0  0  0  0  0  0  0  0  0
   39.4430   33.1790   46.7320 C   0  0  0  0  0  0  0  0  0  0  0  0
   38.5070   32.2040   46.6140 N   0  0  0  0  0  0  0  0  0  0  0  0
   37.4490   32.2710   49.8230 H   0  0  0  0  0  0  0  0  0  0  0  0
   39.1910   34.0570   49.9650 H   0  0  0  0  0  0  0  0  0  0  0  0
   40.4500   34.5850   47.8780 H   0  0  0  0  0  0  0  0  0  0  0  0
   36.7880   30.8620   47.6800 C   0  0  0  0  0  0  0  0  0  0  0  0
   36.3560   30.4190   46.6120 O   0  0  0  0  0  0  0  0  0  0  0  0
   37.0740   29.6420   49.8120 C   0  0  0  0  0  0  0  0  0  0  0  0
   36.2030   30.2780   48.9080 C   0  0  0  0  0  0  0  0  0  0  0  0
   34.8350   30.3380   49.1900 C   0  0  0  0  0  0  0  0  0  0  0  0
   34.3870   29.7690   50.3520 N   0  0  0  0  0  0  0  0  0  0  0  0
   35.2450   29.1630   51.2060 C   0  0  0  0  0  0  0  0  0  0  0  0
   36.5630   29.1040   50.9360 N   0  0  0  0  0  0  0  0  0  0  0  0
   38.1350   29.5760   49.6300 H   0  0  0  0  0  0  0  0  0  0  0  0
   34.2050   30.8260   48.4860 H   0  0  0  0  0  0  0  0  0  0  0  0
   34.9710   28.7000   52.1250 H   0  0  0  0  0  0  0  0  0  0  0  0
  1  2  1  0  0  0  0
  1 27  1  0  0  0  0
  3  1  1  0  0  0  0
  4  9  1  6  0  0  0
  4  8  1  0  0  0  0
  5  4  1  0  0  0  0
  5  6  1  0  0  0  0
  6 12  1  6  0  0  0
  6  1  1  0  0  0  0
  6  7  1  0  0  0  0
  8  7  1  0  0  0  0
  8 13  1  0  0  0  0
  8 14  1  0  0  0  0
 10  5  1  0  0  0  0
 11  5  1  0  0  0  0
 15 17  1  0  0  0  0
 15  4  1  0  0  0  0
 16 17  2  0  0  0  0
 16 22  1  0  0  0  0
 17 18  1  0  0  0  0
 18 19  1  0  0  0  0
 18 20  2  0  0  0  0
 20 26  1  0  0  0  0
 21 20  1  0  0  0  0
 21 23  1  0  0  0  0
 22 21  2  0  0  0  0
 24 23  1  0  0  0  0
 24 26  1  0  0  0  0
 24 25  1  0  0  0  0
 27 32  1  0  0  0  0
 28 29  1  0  0  0  0
 29 30  2  0  0  0  0
 29 34  1  0  0  0  0
 30 35  1  0  0  0  0
 31 30  1  0  0  0  0
 32 31  2  0  0  0  0
 33 32  1  0  0  0  0
 33 28  2  0  0  0  0
 36 31  1  0  0  0  0
 37 28  1  0  0  0  0
 37 40  1  0  0  0  0
 38 37  2  0  0  0  0
 39 44  1  0  0  0  0
 40 41  1  0  0  0  0
 40 39  2  0  0  0  0
 41 42  2  0  0  0  0
 42 43  1  0  0  0  0
 43 47  1  0  0  0  0
 44 43  2  0  0  0  0
 45 39  1  0  0  0  0
 46 41  1  0  0  0  0
M  END
>  <minimizedAffinity>
-5.72614002

>  <minimizedRMSD>
2.22986579

$$$$
