
 OpenBabel03262522143D

 47 51  0  0  1  0  0  0  0  0999 V2000
   39.5400   32.8160   43.7810 C   0  0  0  0  0  0  0  0  0  0  0  0
   38.4610   32.7810   44.0190 H   0  0  0  0  0  0  0  0  0  0  0  0
   39.6500   33.6540   43.0520 H   0  0  0  0  0  0  0  0  0  0  0  0
   38.9490   29.5780   42.4520 C   0  0  1  0  0  0  0  0  0  0  0  0
   39.0260   31.0590   42.1010 C   0  0  0  0  0  0  0  0  0  0  0  0
   40.0280   31.5530   43.1030 C   0  0  2  0  0  0  0  0  0  0  0  0
   40.2810   30.5430   43.9940 O   0  0  0  0  0  0  0  0  0  0  0  0
   39.2300   29.6460   43.9480 C   0  0  0  0  0  0  0  0  0  0  0  0
   39.7300   29.0460   41.9060 H   0  0  0  0  0  0  0  0  0  0  0  0
   39.4640   31.2170   41.0870 H   0  0  0  0  0  0  0  0  0  0  0  0
   38.0460   31.5510   42.1840 H   0  0  0  0  0  0  0  0  0  0  0  0
   41.0010   31.8290   42.6310 H   0  0  0  0  0  0  0  0  0  0  0  0
   38.2980   30.0090   44.4170 H   0  0  0  0  0  0  0  0  0  0  0  0
   39.5460   28.6480   44.3270 H   0  0  0  0  0  0  0  0  0  0  0  0
   37.7100   29.0530   42.1760 O   0  0  0  0  0  0  0  0  0  0  0  0
   35.8660   27.7410   43.0800 C   0  0  0  0  0  3  0  0  0  0  0  0
   37.1430   27.8770   42.5740 C   0  0  0  0  0  0  0  0  0  0  0  0
   37.8870   26.7160   42.4730 C   0  0  0  0  0  0  0  0  0  0  0  0
   38.8920   26.6730   42.0980 H   0  0  0  0  0  0  0  0  0  0  0  0
   37.3380   25.4970   42.8710 C   0  0  0  0  0  0  0  0  0  0  0  0
   36.0450   25.3800   43.3810 C   0  0  0  0  0  0  0  0  0  0  0  0
   35.3110   26.5420   43.4790 C   0  0  0  0  0  3  0  0  0  0  0  0
   35.8030   24.0460   43.6810 O   0  0  0  0  0  0  0  0  0  0  0  0
   36.7210   23.3000   42.9010 C   0  0  0  0  0  3  0  0  0  0  0  0
   36.9610   22.3200   43.3350 H   0  0  0  0  0  0  0  0  0  0  0  0
   37.8290   24.1820   42.8900 O   0  0  0  0  0  0  0  0  0  0  0  0
   40.6040   33.1250   45.2060 S   0  0  0  0  0  0  0  0  0  0  0  0
   37.7780   31.7780   47.6450 C   0  0  0  0  0  0  0  0  0  0  0  0
   37.9500   32.5310   48.8170 C   0  0  0  0  0  0  0  0  0  0  0  0
   38.9360   33.4800   48.9070 C   0  0  0  0  0  0  0  0  0  0  0  0
   39.7310   33.6440   47.7970 C   0  0  0  0  0  0  0  0  0  0  0  0
   39.5490   32.9030   46.6680 C   0  0  0  0  0  0  0  0  0  0  0  0
   38.5760   31.9630   46.5720 N   0  0  0  0  0  0  0  0  0  0  0  0
   37.3050   32.3780   49.6750 H   0  0  0  0  0  0  0  0  0  0  0  0
   39.1190   34.0930   49.7800 H   0  0  0  0  0  0  0  0  0  0  0  0
   40.5440   34.3660   47.7510 H   0  0  0  0  0  0  0  0  0  0  0  0
   36.7240   30.8030   47.6270 C   0  0  0  0  0  0  0  0  0  0  0  0
   36.2440   30.3890   46.5670 O   0  0  0  0  0  0  0  0  0  0  0  0
   37.0230   29.6090   49.7710 C   0  0  0  0  0  0  0  0  0  0  0  0
   36.1460   30.2340   48.8650 C   0  0  0  0  0  0  0  0  0  0  0  0
   34.7800   30.2980   49.1550 C   0  0  0  0  0  0  0  0  0  0  0  0
   34.3390   29.7440   50.3270 N   0  0  0  0  0  0  0  0  0  0  0  0
   35.2030   29.1470   51.1830 C   0  0  0  0  0  0  0  0  0  0  0  0
   36.5190   29.0850   50.9060 N   0  0  0  0  0  0  0  0  0  0  0  0
   38.0820   29.5400   49.5830 H   0  0  0  0  0  0  0  0  0  0  0  0
   34.1460   30.7770   48.4500 H   0  0  0  0  0  0  0  0  0  0  0  0
   34.9350   28.6960   52.1090 H   0  0  0  0  0  0  0  0  0  0  0  0
  1  2  1  0  0  0  0
  1 27  1  0  0  0  0
  3  1  1  0  0  0  0
  4  9  1  6  0  0  0
  4  8  1  0  0  0  0
  5 11  1  0  0  0  0
  5  4  1  0  0  0  0
  5  6  1  0  0  0  0
  6 12  1  6  0  0  0
  6  1  1  0  0  0  0
  6  7  1  0  0  0  0
  8  7  1  0  0  0  0
  8 14  1  0  0  0  0
  8 13  1  0  0  0  0
 10  5  1  0  0  0  0
 15  4  1  0  0  0  0
 15 17  1  0  0  0  0
 16 22  1  0  0  0  0
 17 16  2  0  0  0  0
 18 17  1  0  0  0  0
 18 20  2  0  0  0  0
 19 18  1  0  0  0  0
 20 26  1  0  0  0  0
 20 21  1  0  0  0  0
 21 22  2  0  0  0  0
 21 23  1  0  0  0  0
 24 25  1  0  0  0  0
 24 23  1  0  0  0  0
 26 24  1  0  0  0  0
 27 32  1  0  0  0  0
 28 29  1  0  0  0  0
 29 30  2  0  0  0  0
 29 34  1  0  0  0  0
 30 35  1  0  0  0  0
 31 30  1  0  0  0  0
 32 31  2  0  0  0  0
 33 32  1  0  0  0  0
 33 28  2  0  0  0  0
 36 31  1  0  0  0  0
 37 28  1  0  0  0  0
 37 40  1  0  0  0  0
 38 37  2  0  0  0  0
 39 44  1  0  0  0  0
 40 41  1  0  0  0  0
 40 39  2  0  0  0  0
 41 42  2  0  0  0  0
 42 43  1  0  0  0  0
 43 47  1  0  0  0  0
 44 43  2  0  0  0  0
 45 39  1  0  0  0  0
 46 41  1  0  0  0  0
M  END
>  <minimizedAffinity>
-5.45996666

>  <minimizedRMSD>
2.37094498

$$$$
