
 OpenBabel03262522143D

 47 51  0  0  1  0  0  0  0  0999 V2000
   39.4200   32.9050   43.8550 C   0  0  0  0  0  0  0  0  0  0  0  0
   38.3610   32.6990   44.0980 H   0  0  0  0  0  0  0  0  0  0  0  0
   39.3890   33.6500   43.0240 H   0  0  0  0  0  0  0  0  0  0  0  0
   39.4290   29.5210   42.7800 C   0  0  1  0  0  0  0  0  0  0  0  0
   39.3340   30.9660   42.3030 C   0  0  0  0  0  0  0  0  0  0  0  0
   40.1470   31.6790   43.3420 C   0  0  2  0  0  0  0  0  0  0  0  0
   40.4460   30.7900   44.3410 O   0  0  0  0  0  0  0  0  0  0  0  0
   39.5420   29.7460   44.2830 C   0  0  0  0  0  0  0  0  0  0  0  0
   40.3300   29.0710   42.3580 H   0  0  0  0  0  0  0  0  0  0  0  0
   39.8480   31.1090   41.3230 H   0  0  0  0  0  0  0  0  0  0  0  0
   38.2910   31.3120   42.2510 H   0  0  0  0  0  0  0  0  0  0  0  0
   41.1160   32.0600   42.9380 H   0  0  0  0  0  0  0  0  0  0  0  0
   38.5250   30.0020   44.6300 H   0  0  0  0  0  0  0  0  0  0  0  0
   39.9540   28.8380   44.7780 H   0  0  0  0  0  0  0  0  0  0  0  0
   38.3110   28.7990   42.4410 O   0  0  0  0  0  0  0  0  0  0  0  0
   36.6840   27.0080   42.7340 C   0  0  0  0  0  3  0  0  0  0  0  0
   37.9690   27.5130   42.7450 C   0  0  0  0  0  0  0  0  0  0  0  0
   38.9710   26.6270   43.0940 C   0  0  0  0  0  0  0  0  0  0  0  0
   40.0130   26.8800   43.1450 H   0  0  0  0  0  0  0  0  0  0  0  0
   38.6550   25.3040   43.4120 C   0  0  0  0  0  0  0  0  0  0  0  0
   37.3510   24.8130   43.3940 C   0  0  0  0  0  0  0  0  0  0  0  0
   36.3590   25.7030   43.0440 C   0  0  0  0  0  3  0  0  0  0  0  0
   37.3740   23.4720   43.7550 O   0  0  0  0  0  0  0  0  0  0  0  0
   38.6930   23.0250   43.4970 C   0  0  0  0  0  3  0  0  0  0  0  0
   38.9880   22.1680   44.1160 H   0  0  0  0  0  0  0  0  0  0  0  0
   39.4290   24.1970   43.7940 O   0  0  0  0  0  0  0  0  0  0  0  0
   40.3770   33.5830   45.2260 S   0  0  0  0  0  0  0  0  0  0  0  0
   37.7970   31.8820   47.7160 C   0  0  0  0  0  0  0  0  0  0  0  0
   38.0220   32.5330   48.9400 C   0  0  0  0  0  0  0  0  0  0  0  0
   38.9700   33.5180   49.0510 C   0  0  0  0  0  0  0  0  0  0  0  0
   39.6740   33.8210   47.9080 C   0  0  0  0  0  0  0  0  0  0  0  0
   39.4420   33.1770   46.7300 C   0  0  0  0  0  0  0  0  0  0  0  0
   38.5060   32.2020   46.6130 N   0  0  0  0  0  0  0  0  0  0  0  0
   37.4490   32.2710   49.8220 H   0  0  0  0  0  0  0  0  0  0  0  0
   39.1910   34.0570   49.9630 H   0  0  0  0  0  0  0  0  0  0  0  0
   40.4500   34.5830   47.8750 H   0  0  0  0  0  0  0  0  0  0  0  0
   36.7870   30.8620   47.6800 C   0  0  0  0  0  0  0  0  0  0  0  0
   36.3540   30.4190   46.6110 O   0  0  0  0  0  0  0  0  0  0  0  0
   37.0740   29.6430   49.8110 C   0  0  0  0  0  0  0  0  0  0  0  0
   36.2020   30.2780   48.9070 C   0  0  0  0  0  0  0  0  0  0  0  0
   34.8350   30.3360   49.1890 C   0  0  0  0  0  0  0  0  0  0  0  0
   34.3870   29.7670   50.3510 N   0  0  0  0  0  0  0  0  0  0  0  0
   35.2460   29.1620   51.2050 C   0  0  0  0  0  0  0  0  0  0  0  0
   36.5640   29.1050   50.9370 N   0  0  0  0  0  0  0  0  0  0  0  0
   38.1350   29.5790   49.6300 H   0  0  0  0  0  0  0  0  0  0  0  0
   34.2040   30.8220   48.4850 H   0  0  0  0  0  0  0  0  0  0  0  0
   34.9730   28.6990   52.1250 H   0  0  0  0  0  0  0  0  0  0  0  0
  1  2  1  0  0  0  0
  1 27  1  0  0  0  0
  3  1  1  0  0  0  0
  4  9  1  6  0  0  0
  4  8  1  0  0  0  0
  5  4  1  0  0  0  0
  5  6  1  0  0  0  0
  6 12  1  6  0  0  0
  6  1  1  0  0  0  0
  6  7  1  0  0  0  0
  8  7  1  0  0  0  0
  8 13  1  0  0  0  0
  8 14  1  0  0  0  0
 10  5  1  0  0  0  0
 11  5  1  0  0  0  0
 15 17  1  0  0  0  0
 15  4  1  0  0  0  0
 16 17  2  0  0  0  0
 16 22  1  0  0  0  0
 17 18  1  0  0  0  0
 18 19  1  0  0  0  0
 18 20  2  0  0  0  0
 20 26  1  0  0  0  0
 21 20  1  0  0  0  0
 21 23  1  0  0  0  0
 22 21  2  0  0  0  0
 24 23  1  0  0  0  0
 24 26  1  0  0  0  0
 24 25  1  0  0  0  0
 27 32  1  0  0  0  0
 28 29  1  0  0  0  0
 29 30  2  0  0  0  0
 29 34  1  0  0  0  0
 30 35  1  0  0  0  0
 31 30  1  0  0  0  0
 32 31  2  0  0  0  0
 33 32  1  0  0  0  0
 33 28  2  0  0  0  0
 36 31  1  0  0  0  0
 37 28  1  0  0  0  0
 37 40  1  0  0  0  0
 38 37  2  0  0  0  0
 39 44  1  0  0  0  0
 40 41  1  0  0  0  0
 40 39  2  0  0  0  0
 41 42  2  0  0  0  0
 42 43  1  0  0  0  0
 43 47  1  0  0  0  0
 44 43  2  0  0  0  0
 45 39  1  0  0  0  0
 46 41  1  0  0  0  0
M  END
>  <minimizedAffinity>
-5.72736263

>  <minimizedRMSD>
2.14510441

$$$$
