
 OpenBabel03272508263D

 40 44  0  0  1  0  0  0  0  0999 V2000
   33.8860   28.9790   47.2790 C   0  0  2  0  0  0  0  0  0  0  0  0
   34.6150   28.1880   48.3540 C   0  0  2  0  0  0  0  0  0  0  0  0
   33.7200   28.0150   49.3630 O   0  0  0  0  0  0  0  0  0  0  0  0
   32.4400   28.1070   48.8920 C   0  0  0  0  0  0  0  0  0  0  0  0
   32.5040   28.3250   47.3940 C   0  0  1  0  0  0  0  0  0  0  0  0
   33.8120   30.0410   47.5220 H   0  0  0  0  0  0  0  0  0  0  0  0
   34.8860   27.2090   47.9120 H   0  0  0  0  0  0  0  0  0  0  0  0
   31.8270   27.1980   49.1270 H   0  0  0  0  0  0  0  0  0  0  0  0
   31.9130   28.9670   49.3400 H   0  0  0  0  0  0  0  0  0  0  0  0
   32.6140   27.3210   46.9140 H   0  0  0  0  0  0  0  0  0  0  0  0
   35.7120   30.4240   49.0500 C   0  0  1  0  0  0  0  0  0  0  0  0
   35.7900   29.0060   48.7830 C   0  0  1  0  0  0  0  0  0  0  0  0
   35.9650   29.4390   50.2030 C   0  0  0  0  0  0  0  0  0  0  0  0
   34.7940   31.0210   49.2750 H   0  0  0  0  0  0  0  0  0  0  0  0
   36.7220   28.6910   48.2250 H   0  0  0  0  0  0  0  0  0  0  0  0
   35.1510   29.2170   50.9070 H   0  0  0  0  0  0  0  0  0  0  0  0
   37.0030   29.3600   50.6090 H   0  0  0  0  0  0  0  0  0  0  0  0
   36.9060   31.3370   48.8180 C   0  0  0  0  0  0  0  0  0  0  0  0
   37.0900   32.3920   49.7110 C   0  0  0  0  0  0  0  0  0  0  0  0
   38.1800   33.2080   49.4320 C   0  0  0  0  0  0  0  0  0  0  0  0
   38.9900   32.9700   48.3590 N   0  0  0  0  0  0  0  0  0  0  0  0
   38.7700   31.9250   47.5150 C   0  0  0  0  0  0  0  0  0  0  0  0
   37.7110   31.0980   47.7500 N   0  0  0  0  0  0  0  0  0  0  0  0
   36.4510   32.5680   50.5420 H   0  0  0  0  0  0  0  0  0  0  0  0
   38.4270   34.0500   50.0420 H   0  0  0  0  0  0  0  0  0  0  0  0
   39.4370   31.7760   46.6790 H   0  0  0  0  0  0  0  0  0  0  0  0
   34.4200   28.8170   46.0160 O   0  0  0  0  0  0  0  0  0  0  0  0
   34.3450   29.6150   45.4540 H   0  0  0  0  0  0  0  0  0  0  0  0
   31.5170   29.1210   46.8840 O   0  0  0  0  0  0  0  0  0  0  0  0
   30.7020   28.1590   44.7320 C   0  0  0  0  0  3  0  0  0  0  0  0
   30.5400   28.7430   45.9720 C   0  0  0  0  0  0  0  0  0  0  0  0
   29.2570   29.0220   46.4410 C   0  0  0  0  0  0  0  0  0  0  0  0
   29.0300   29.4830   47.4100 H   0  0  0  0  0  0  0  0  0  0  0  0
   28.1450   28.7260   45.6910 C   0  0  0  0  0  0  0  0  0  0  0  0
   28.3310   28.1400   44.4480 C   0  0  0  0  0  0  0  0  0  0  0  0
   29.6030   27.8530   43.9610 C   0  0  0  0  0  3  0  0  0  0  0  0
   27.0730   27.9400   43.8910 O   0  0  0  0  0  0  0  0  0  0  0  0
   26.0780   28.1070   44.8890 C   0  0  0  0  0  3  0  0  0  0  0  0
   25.1990   28.7070   44.5110 H   0  0  0  0  0  0  0  0  0  0  0  0
   26.7770   28.8750   45.8720 O   0  0  0  0  0  0  0  0  0  0  0  0
  1  5  1  0  0  0  0
  1  6  1  1  0  0  0
  1  2  1  0  0  0  0
  2  7  1  6  0  0  0
  2 12  1  0  0  0  0
  2  3  1  0  0  0  0
  4  8  1  0  0  0  0
  4  9  1  0  0  0  0
  4  3  1  0  0  0  0
  5 10  1  6  0  0  0
  5  4  1  0  0  0  0
 11 14  1  6  0  0  0
 11 13  1  0  0  0  0
 12 15  1  6  0  0  0
 12 11  1  0  0  0  0
 12 13  1  0  0  0  0
 13 17  1  0  0  0  0
 13 16  1  0  0  0  0
 18 11  1  0  0  0  0
 18 19  1  0  0  0  0
 19 24  1  0  0  0  0
 20 19  2  0  0  0  0
 20 25  1  0  0  0  0
 21 20  1  0  0  0  0
 22 23  1  0  0  0  0
 22 21  2  0  0  0  0
 23 18  2  0  0  0  0
 26 22  1  0  0  0  0
 27  1  1  0  0  0  0
 28 27  1  0  0  0  0
 29  5  1  0  0  0  0
 30 31  1  0  0  0  0
 31 32  2  0  0  0  0
 31 29  1  0  0  0  0
 32 33  1  0  0  0  0
 34 40  1  0  0  0  0
 34 32  1  0  0  0  0
 35 34  2  0  0  0  0
 36 35  1  0  0  0  0
 36 30  2  0  0  0  0
 37 35  1  0  0  0  0
 37 38  1  0  0  0  0
 38 40  1  0  0  0  0
 39 38  1  0  0  0  0
M  END
>  <minimizedAffinity>
-5.421103

>  <minimizedRMSD>
0.291242629

$$$$
