
 OpenBabel03272508263D

 40 44  0  0  1  0  0  0  0  0999 V2000
   33.6650   28.9360   47.1320 C   0  0  2  0  0  0  0  0  0  0  0  0
   34.3310   28.0990   48.2130 C   0  0  2  0  0  0  0  0  0  0  0  0
   33.4040   27.9510   49.1960 O   0  0  0  0  0  0  0  0  0  0  0  0
   32.1410   28.1050   48.6960 C   0  0  0  0  0  0  0  0  0  0  0  0
   32.2540   28.3420   47.2030 C   0  0  1  0  0  0  0  0  0  0  0  0
   33.6310   29.9970   47.3900 H   0  0  0  0  0  0  0  0  0  0  0  0
   34.5710   27.1160   47.7630 H   0  0  0  0  0  0  0  0  0  0  0  0
   31.4840   27.2210   48.9010 H   0  0  0  0  0  0  0  0  0  0  0  0
   31.6410   28.9810   49.1430 H   0  0  0  0  0  0  0  0  0  0  0  0
   32.3310   27.3410   46.7110 H   0  0  0  0  0  0  0  0  0  0  0  0
   35.5020   30.2710   48.9860 C   0  0  1  0  0  0  0  0  0  0  0  0
   35.5290   28.8590   48.6830 C   0  0  1  0  0  0  0  0  0  0  0  0
   35.6950   29.2480   50.1160 C   0  0  0  0  0  0  0  0  0  0  0  0
   34.6040   30.8990   49.2100 H   0  0  0  0  0  0  0  0  0  0  0  0
   36.4580   28.5210   48.1340 H   0  0  0  0  0  0  0  0  0  0  0  0
   34.8600   29.0410   50.8010 H   0  0  0  0  0  0  0  0  0  0  0  0
   36.7220   29.1180   50.5390 H   0  0  0  0  0  0  0  0  0  0  0  0
   36.7340   31.1420   48.7980 C   0  0  0  0  0  0  0  0  0  0  0  0
   36.9570   32.1490   49.7360 C   0  0  0  0  0  0  0  0  0  0  0  0
   38.0830   32.9290   49.4980 C   0  0  0  0  0  0  0  0  0  0  0  0
   38.8890   32.7030   48.4190 N   0  0  0  0  0  0  0  0  0  0  0  0
   38.6300   31.7060   47.5290 C   0  0  0  0  0  0  0  0  0  0  0  0
   37.5350   30.9150   47.7250 N   0  0  0  0  0  0  0  0  0  0  0  0
   36.3220   32.3170   50.5720 H   0  0  0  0  0  0  0  0  0  0  0  0
   38.3620   33.7330   50.1440 H   0  0  0  0  0  0  0  0  0  0  0  0
   39.2950   31.5650   46.6910 H   0  0  0  0  0  0  0  0  0  0  0  0
   34.2230   28.7690   45.8800 O   0  0  0  0  0  0  0  0  0  0  0  0
   34.1970   29.5770   45.3290 H   0  0  0  0  0  0  0  0  0  0  0  0
   31.3150   29.1870   46.6810 O   0  0  0  0  0  0  0  0  0  0  0  0
   28.9370   29.1630   47.4300 C   0  0  0  0  0  3  0  0  0  0  0  0
   29.9580   28.9260   46.5340 C   0  0  0  0  0  0  0  0  0  0  0  0
   29.6720   28.3510   45.2960 C   0  0  0  0  0  0  0  0  0  0  0  0
   30.4160   28.1260   44.5220 H   0  0  0  0  0  0  0  0  0  0  0  0
   28.3860   28.0140   44.9500 C   0  0  0  0  0  0  0  0  0  0  0  0
   27.3750   28.2610   45.8640 C   0  0  0  0  0  0  0  0  0  0  0  0
   27.6390   28.8340   47.1060 C   0  0  0  0  0  3  0  0  0  0  0  0
   26.1810   27.8390   45.2890 O   0  0  0  0  0  0  0  0  0  0  0  0
   26.3770   27.6120   43.9010 C   0  0  0  0  0  3  0  0  0  0  0  0
   25.8760   26.6610   43.5560 H   0  0  0  0  0  0  0  0  0  0  0  0
   27.7940   27.4450   43.8290 O   0  0  0  0  0  0  0  0  0  0  0  0
  1  5  1  0  0  0  0
  1  6  1  1  0  0  0
  1  2  1  0  0  0  0
  2  7  1  6  0  0  0
  2 12  1  0  0  0  0
  2  3  1  0  0  0  0
  4  8  1  0  0  0  0
  4  9  1  0  0  0  0
  4  3  1  0  0  0  0
  5 10  1  6  0  0  0
  5  4  1  0  0  0  0
 11 14  1  6  0  0  0
 11 13  1  0  0  0  0
 12 15  1  6  0  0  0
 12 11  1  0  0  0  0
 12 13  1  0  0  0  0
 13 17  1  0  0  0  0
 13 16  1  0  0  0  0
 18 11  1  0  0  0  0
 18 19  1  0  0  0  0
 19 24  1  0  0  0  0
 20 19  2  0  0  0  0
 20 25  1  0  0  0  0
 21 20  1  0  0  0  0
 22 23  1  0  0  0  0
 22 21  2  0  0  0  0
 23 18  2  0  0  0  0
 26 22  1  0  0  0  0
 27  1  1  0  0  0  0
 28 27  1  0  0  0  0
 29  5  1  0  0  0  0
 31 29  1  0  0  0  0
 31 30  2  0  0  0  0
 32 31  1  0  0  0  0
 33 32  1  0  0  0  0
 34 32  2  0  0  0  0
 34 35  1  0  0  0  0
 35 36  2  0  0  0  0
 36 30  1  0  0  0  0
 37 35  1  0  0  0  0
 38 37  1  0  0  0  0
 39 38  1  0  0  0  0
 40 38  1  0  0  0  0
 40 34  1  0  0  0  0
M  END
>  <minimizedAffinity>
-5.64008331

>  <minimizedRMSD>
1.75425851

$$$$
