
 OpenBabel03272508263D

 40 44  0  0  1  0  0  0  0  0999 V2000
   33.7320   28.9290   47.2060 C   0  0  2  0  0  0  0  0  0  0  0  0
   34.4560   28.1240   48.2740 C   0  0  2  0  0  0  0  0  0  0  0  0
   33.5660   27.9620   49.2890 O   0  0  0  0  0  0  0  0  0  0  0  0
   32.2840   28.0750   48.8280 C   0  0  0  0  0  0  0  0  0  0  0  0
   32.3410   28.2960   47.3300 C   0  0  1  0  0  0  0  0  0  0  0  0
   33.6770   29.9910   47.4530 H   0  0  0  0  0  0  0  0  0  0  0  0
   34.7080   27.1420   47.8280 H   0  0  0  0  0  0  0  0  0  0  0  0
   31.6580   27.1760   49.0650 H   0  0  0  0  0  0  0  0  0  0  0  0
   31.7740   28.9420   49.2820 H   0  0  0  0  0  0  0  0  0  0  0  0
   32.4310   27.2920   46.8470 H   0  0  0  0  0  0  0  0  0  0  0  0
   35.5860   30.3320   49.0030 C   0  0  1  0  0  0  0  0  0  0  0  0
   35.6470   28.9220   48.6970 C   0  0  1  0  0  0  0  0  0  0  0  0
   35.8590   29.3150   50.1220 C   0  0  0  0  0  0  0  0  0  0  0  0
   34.6780   30.9300   49.2660 H   0  0  0  0  0  0  0  0  0  0  0  0
   36.5630   28.6150   48.1080 H   0  0  0  0  0  0  0  0  0  0  0  0
   35.0600   29.0800   50.8400 H   0  0  0  0  0  0  0  0  0  0  0  0
   36.9060   29.2180   50.5020 H   0  0  0  0  0  0  0  0  0  0  0  0
   36.7800   31.2440   48.7670 C   0  0  0  0  0  0  0  0  0  0  0  0
   37.0320   32.2310   49.7180 C   0  0  0  0  0  0  0  0  0  0  0  0
   38.1190   33.0500   49.4350 C   0  0  0  0  0  0  0  0  0  0  0  0
   38.8640   32.8770   48.3040 N   0  0  0  0  0  0  0  0  0  0  0  0
   38.5790   31.8970   47.4030 C   0  0  0  0  0  0  0  0  0  0  0  0
   37.5200   31.0690   47.6410 N   0  0  0  0  0  0  0  0  0  0  0  0
   36.4450   32.3570   50.5950 H   0  0  0  0  0  0  0  0  0  0  0  0
   38.4150   33.8430   50.0860 H   0  0  0  0  0  0  0  0  0  0  0  0
   39.1950   31.7980   46.5220 H   0  0  0  0  0  0  0  0  0  0  0  0
   34.2530   28.7620   45.9390 O   0  0  0  0  0  0  0  0  0  0  0  0
   34.1870   29.5620   45.3800 H   0  0  0  0  0  0  0  0  0  0  0  0
   31.3620   29.1080   46.8290 O   0  0  0  0  0  0  0  0  0  0  0  0
   29.2270   27.8840   47.2240 C   0  0  0  0  0  3  0  0  0  0  0  0
   30.0560   28.7420   46.5330 C   0  0  0  0  0  0  0  0  0  0  0  0
   29.5940   29.3630   45.3720 C   0  0  0  0  0  0  0  0  0  0  0  0
   30.1790   30.0580   44.7570 H   0  0  0  0  0  0  0  0  0  0  0  0
   28.3240   29.1360   44.9020 C   0  0  0  0  0  0  0  0  0  0  0  0
   27.5070   28.2710   45.6130 C   0  0  0  0  0  0  0  0  0  0  0  0
   27.9480   27.6400   46.7750 C   0  0  0  0  0  3  0  0  0  0  0  0
   26.2880   28.2060   44.9460 O   0  0  0  0  0  0  0  0  0  0  0  0
   26.2110   29.2560   43.9940 C   0  0  0  0  0  3  0  0  0  0  0  0
   25.7860   28.9020   43.0090 H   0  0  0  0  0  0  0  0  0  0  0  0
   27.5910   29.5870   43.8130 O   0  0  0  0  0  0  0  0  0  0  0  0
  1  5  1  0  0  0  0
  1  6  1  1  0  0  0
  1  2  1  0  0  0  0
  2  7  1  6  0  0  0
  2 12  1  0  0  0  0
  2  3  1  0  0  0  0
  4  8  1  0  0  0  0
  4  9  1  0  0  0  0
  4  3  1  0  0  0  0
  5 10  1  6  0  0  0
  5  4  1  0  0  0  0
 11 14  1  6  0  0  0
 11 13  1  0  0  0  0
 12 15  1  6  0  0  0
 12 11  1  0  0  0  0
 12 13  1  0  0  0  0
 13 17  1  0  0  0  0
 13 16  1  0  0  0  0
 18 11  1  0  0  0  0
 18 19  1  0  0  0  0
 19 24  1  0  0  0  0
 20 19  2  0  0  0  0
 20 25  1  0  0  0  0
 21 20  1  0  0  0  0
 22 23  1  0  0  0  0
 22 21  2  0  0  0  0
 23 18  2  0  0  0  0
 26 22  1  0  0  0  0
 27  1  1  0  0  0  0
 28 27  1  0  0  0  0
 29  5  1  0  0  0  0
 31 29  1  0  0  0  0
 31 30  2  0  0  0  0
 32 31  1  0  0  0  0
 33 32  1  0  0  0  0
 34 32  2  0  0  0  0
 34 35  1  0  0  0  0
 35 36  2  0  0  0  0
 36 30  1  0  0  0  0
 37 35  1  0  0  0  0
 38 37  1  0  0  0  0
 39 38  1  0  0  0  0
 40 38  1  0  0  0  0
 40 34  1  0  0  0  0
M  END
>  <minimizedAffinity>
-5.60251093

>  <minimizedRMSD>
1.30534136

$$$$
