
 OpenBabel03272508263D

 40 44  0  0  1  0  0  0  0  0999 V2000
   33.6290   29.0140   47.1730 C   0  0  2  0  0  0  0  0  0  0  0  0
   34.3790   28.1110   48.1400 C   0  0  2  0  0  0  0  0  0  0  0  0
   33.5100   27.8410   49.1500 O   0  0  0  0  0  0  0  0  0  0  0  0
   32.2180   27.9900   48.7280 C   0  0  0  0  0  0  0  0  0  0  0  0
   32.2450   28.3620   47.2580 C   0  0  1  0  0  0  0  0  0  0  0  0
   33.5730   30.0460   47.5260 H   0  0  0  0  0  0  0  0  0  0  0  0
   34.6280   27.1810   47.5920 H   0  0  0  0  0  0  0  0  0  0  0  0
   31.6020   27.0670   48.8850 H   0  0  0  0  0  0  0  0  0  0  0  0
   31.7130   28.8040   49.2760 H   0  0  0  0  0  0  0  0  0  0  0  0
   32.3300   27.4110   46.6750 H   0  0  0  0  0  0  0  0  0  0  0  0
   35.5360   30.2780   48.9450 C   0  0  1  0  0  0  0  0  0  0  0  0
   35.5730   28.8720   48.6180 C   0  0  1  0  0  0  0  0  0  0  0  0
   35.7430   29.2370   50.0570 C   0  0  0  0  0  0  0  0  0  0  0  0
   34.6350   30.8940   49.1850 H   0  0  0  0  0  0  0  0  0  0  0  0
   36.5020   28.5510   48.0580 H   0  0  0  0  0  0  0  0  0  0  0  0
   34.9130   29.0110   50.7420 H   0  0  0  0  0  0  0  0  0  0  0  0
   36.7730   29.1070   50.4710 H   0  0  0  0  0  0  0  0  0  0  0  0
   36.7610   31.1620   48.7670 C   0  0  0  0  0  0  0  0  0  0  0  0
   36.9680   32.1700   49.7080 C   0  0  0  0  0  0  0  0  0  0  0  0
   38.0870   32.9610   49.4780 C   0  0  0  0  0  0  0  0  0  0  0  0
   38.9020   32.7450   48.4040 N   0  0  0  0  0  0  0  0  0  0  0  0
   38.6590   31.7470   47.5110 C   0  0  0  0  0  0  0  0  0  0  0  0
   37.5710   30.9450   47.6980 N   0  0  0  0  0  0  0  0  0  0  0  0
   36.3260   32.3290   50.5400 H   0  0  0  0  0  0  0  0  0  0  0  0
   38.3540   33.7660   50.1270 H   0  0  0  0  0  0  0  0  0  0  0  0
   39.3310   31.6140   46.6760 H   0  0  0  0  0  0  0  0  0  0  0  0
   34.1270   28.9790   45.8850 O   0  0  0  0  0  0  0  0  0  0  0  0
   34.0450   29.8310   45.4100 H   0  0  0  0  0  0  0  0  0  0  0  0
   31.2520   29.2130   46.8610 O   0  0  0  0  0  0  0  0  0  0  0  0
   30.4820   28.7990   44.5250 C   0  0  0  0  0  3  0  0  0  0  0  0
   30.2970   28.9690   45.8820 C   0  0  0  0  0  0  0  0  0  0  0  0
   29.0110   28.9000   46.4180 C   0  0  0  0  0  0  0  0  0  0  0  0
   28.7670   29.0210   47.4800 H   0  0  0  0  0  0  0  0  0  0  0  0
   27.9190   28.6670   45.6170 C   0  0  0  0  0  0  0  0  0  0  0  0
   28.1280   28.4990   44.2580 C   0  0  0  0  0  0  0  0  0  0  0  0
   29.4040   28.5630   43.7020 C   0  0  0  0  0  3  0  0  0  0  0  0
   26.8860   28.2780   43.6700 O   0  0  0  0  0  0  0  0  0  0  0  0
   25.9270   27.9950   44.6780 C   0  0  0  0  0  3  0  0  0  0  0  0
   24.9530   28.5360   44.4950 H   0  0  0  0  0  0  0  0  0  0  0  0
   26.5540   28.5450   45.8400 O   0  0  0  0  0  0  0  0  0  0  0  0
  1  5  1  0  0  0  0
  1  6  1  1  0  0  0
  1  2  1  0  0  0  0
  2  7  1  6  0  0  0
  2 12  1  0  0  0  0
  2  3  1  0  0  0  0
  4  8  1  0  0  0  0
  4  3  1  0  0  0  0
  4  9  1  0  0  0  0
  5 10  1  6  0  0  0
  5  4  1  0  0  0  0
 11 14  1  6  0  0  0
 11 13  1  0  0  0  0
 12 15  1  6  0  0  0
 12 11  1  0  0  0  0
 12 13  1  0  0  0  0
 13 17  1  0  0  0  0
 13 16  1  0  0  0  0
 18 11  1  0  0  0  0
 18 19  1  0  0  0  0
 19 24  1  0  0  0  0
 20 19  2  0  0  0  0
 20 25  1  0  0  0  0
 21 20  1  0  0  0  0
 22 23  1  0  0  0  0
 22 21  2  0  0  0  0
 23 18  2  0  0  0  0
 26 22  1  0  0  0  0
 27  1  1  0  0  0  0
 28 27  1  0  0  0  0
 29  5  1  0  0  0  0
 30 31  1  0  0  0  0
 31 32  2  0  0  0  0
 31 29  1  0  0  0  0
 32 33  1  0  0  0  0
 34 40  1  0  0  0  0
 34 32  1  0  0  0  0
 35 34  2  0  0  0  0
 36 35  1  0  0  0  0
 36 30  2  0  0  0  0
 37 35  1  0  0  0  0
 37 38  1  0  0  0  0
 38 40  1  0  0  0  0
 39 38  1  0  0  0  0
M  END
>  <minimizedAffinity>
-5.40210104

>  <minimizedRMSD>
0.697655201

$$$$
