
 OpenBabel03272508263D

 40 44  0  0  1  0  0  0  0  0999 V2000
   33.8520   28.9520   47.2490 C   0  0  2  0  0  0  0  0  0  0  0  0
   34.5690   28.1630   48.3330 C   0  0  2  0  0  0  0  0  0  0  0  0
   33.6650   27.9980   49.3360 O   0  0  0  0  0  0  0  0  0  0  0  0
   32.3890   28.0930   48.8540 C   0  0  0  0  0  0  0  0  0  0  0  0
   32.4670   28.3040   47.3560 C   0  0  1  0  0  0  0  0  0  0  0  0
   33.7800   30.0160   47.4870 H   0  0  0  0  0  0  0  0  0  0  0  0
   34.8400   27.1810   47.8980 H   0  0  0  0  0  0  0  0  0  0  0  0
   31.7710   27.1870   49.0880 H   0  0  0  0  0  0  0  0  0  0  0  0
   31.8620   28.9570   49.2940 H   0  0  0  0  0  0  0  0  0  0  0  0
   32.5760   27.2970   46.8810 H   0  0  0  0  0  0  0  0  0  0  0  0
   35.6650   30.3940   49.0460 C   0  0  1  0  0  0  0  0  0  0  0  0
   35.7430   28.9790   48.7680 C   0  0  1  0  0  0  0  0  0  0  0  0
   35.9190   29.4010   50.1910 C   0  0  0  0  0  0  0  0  0  0  0  0
   34.7470   30.9900   49.2750 H   0  0  0  0  0  0  0  0  0  0  0  0
   36.6750   28.6680   48.2080 H   0  0  0  0  0  0  0  0  0  0  0  0
   35.1040   29.1740   50.8940 H   0  0  0  0  0  0  0  0  0  0  0  0
   36.9570   29.3190   50.5970 H   0  0  0  0  0  0  0  0  0  0  0  0
   36.8580   31.3100   48.8200 C   0  0  0  0  0  0  0  0  0  0  0  0
   37.0550   32.3440   49.7340 C   0  0  0  0  0  0  0  0  0  0  0  0
   38.1440   33.1630   49.4610 C   0  0  0  0  0  0  0  0  0  0  0  0
   38.9410   32.9480   48.3730 N   0  0  0  0  0  0  0  0  0  0  0  0
   38.7080   31.9240   47.5080 C   0  0  0  0  0  0  0  0  0  0  0  0
   37.6500   31.0940   47.7370 N   0  0  0  0  0  0  0  0  0  0  0  0
   36.4280   32.5020   50.5770 H   0  0  0  0  0  0  0  0  0  0  0  0
   38.4010   33.9900   50.0870 H   0  0  0  0  0  0  0  0  0  0  0  0
   39.3640   31.7920   46.6610 H   0  0  0  0  0  0  0  0  0  0  0  0
   34.3950   28.7820   45.9910 O   0  0  0  0  0  0  0  0  0  0  0  0
   34.3280   29.5780   45.4250 H   0  0  0  0  0  0  0  0  0  0  0  0
   31.4860   29.1010   46.8340 O   0  0  0  0  0  0  0  0  0  0  0  0
   30.3910   29.4150   44.6160 C   0  0  0  0  0  3  0  0  0  0  0  0
   30.6040   28.7660   45.8150 C   0  0  0  0  0  0  0  0  0  0  0  0
   29.8770   27.6140   46.1170 C   0  0  0  0  0  0  0  0  0  0  0  0
   29.9770   27.0340   47.0410 H   0  0  0  0  0  0  0  0  0  0  0  0
   28.9470   27.1120   45.2390 C   0  0  0  0  0  0  0  0  0  0  0  0
   28.7480   27.7790   44.0410 C   0  0  0  0  0  0  0  0  0  0  0  0
   29.4640   28.9300   43.7200 C   0  0  0  0  0  3  0  0  0  0  0  0
   27.7710   27.0840   43.3360 O   0  0  0  0  0  0  0  0  0  0  0  0
   27.5670   25.8120   43.9320 C   0  0  0  0  0  3  0  0  0  0  0  0
   26.4710   25.5540   44.0080 H   0  0  0  0  0  0  0  0  0  0  0  0
   28.0880   26.0210   45.2470 O   0  0  0  0  0  0  0  0  0  0  0  0
  1  5  1  0  0  0  0
  1  6  1  1  0  0  0
  1  2  1  0  0  0  0
  2  7  1  6  0  0  0
  2 12  1  0  0  0  0
  2  3  1  0  0  0  0
  4  8  1  0  0  0  0
  4  9  1  0  0  0  0
  4  3  1  0  0  0  0
  5 10  1  6  0  0  0
  5  4  1  0  0  0  0
 11 14  1  6  0  0  0
 11 13  1  0  0  0  0
 12 15  1  6  0  0  0
 12 11  1  0  0  0  0
 12 13  1  0  0  0  0
 13 17  1  0  0  0  0
 13 16  1  0  0  0  0
 18 11  1  0  0  0  0
 18 19  1  0  0  0  0
 19 24  1  0  0  0  0
 20 19  2  0  0  0  0
 20 25  1  0  0  0  0
 21 20  1  0  0  0  0
 22 23  1  0  0  0  0
 22 21  2  0  0  0  0
 23 18  2  0  0  0  0
 26 22  1  0  0  0  0
 27  1  1  0  0  0  0
 28 27  1  0  0  0  0
 29  5  1  0  0  0  0
 30 31  1  0  0  0  0
 31 32  2  0  0  0  0
 31 29  1  0  0  0  0
 32 33  1  0  0  0  0
 34 40  1  0  0  0  0
 34 32  1  0  0  0  0
 35 34  2  0  0  0  0
 36 35  1  0  0  0  0
 36 30  2  0  0  0  0
 37 38  1  0  0  0  0
 37 35  1  0  0  0  0
 38 39  1  0  0  0  0
 38 40  1  0  0  0  0
M  END
>  <minimizedAffinity>
-5.15824461

>  <minimizedRMSD>
0.227371633

$$$$
