
 OpenBabel03272508263D

 40 44  0  0  1  0  0  0  0  0999 V2000
   33.9640   29.0260   47.3310 C   0  0  2  0  0  0  0  0  0  0  0  0
   34.7180   28.2440   48.3960 C   0  0  2  0  0  0  0  0  0  0  0  0
   33.8350   28.0450   49.4100 O   0  0  0  0  0  0  0  0  0  0  0  0
   32.5490   28.1120   48.9490 C   0  0  0  0  0  0  0  0  0  0  0  0
   32.5980   28.3410   47.4520 C   0  0  1  0  0  0  0  0  0  0  0  0
   33.8690   30.0850   47.5820 H   0  0  0  0  0  0  0  0  0  0  0  0
   35.0070   27.2740   47.9460 H   0  0  0  0  0  0  0  0  0  0  0  0
   31.9570   27.1890   49.1830 H   0  0  0  0  0  0  0  0  0  0  0  0
   32.0070   28.9580   49.4070 H   0  0  0  0  0  0  0  0  0  0  0  0
   32.7250   27.3430   46.9650 H   0  0  0  0  0  0  0  0  0  0  0  0
   35.7850   30.5100   49.0380 C   0  0  1  0  0  0  0  0  0  0  0  0
   35.8780   29.0850   48.8220 C   0  0  1  0  0  0  0  0  0  0  0  0
   36.0190   29.5670   50.2290 C   0  0  0  0  0  0  0  0  0  0  0  0
   34.8590   31.1080   49.2220 H   0  0  0  0  0  0  0  0  0  0  0  0
   36.8240   28.7570   48.2950 H   0  0  0  0  0  0  0  0  0  0  0  0
   35.1910   29.3640   50.9230 H   0  0  0  0  0  0  0  0  0  0  0  0
   37.0490   29.5100   50.6600 H   0  0  0  0  0  0  0  0  0  0  0  0
   36.9780   31.4240   48.8010 C   0  0  0  0  0  0  0  0  0  0  0  0
   37.1680   32.4770   49.6940 C   0  0  0  0  0  0  0  0  0  0  0  0
   38.2570   33.2920   49.4110 C   0  0  0  0  0  0  0  0  0  0  0  0
   39.0600   33.0570   48.3320 N   0  0  0  0  0  0  0  0  0  0  0  0
   38.8340   32.0140   47.4860 C   0  0  0  0  0  0  0  0  0  0  0  0
   37.7760   31.1870   47.7270 N   0  0  0  0  0  0  0  0  0  0  0  0
   36.5350   32.6510   50.5300 H   0  0  0  0  0  0  0  0  0  0  0  0
   38.5080   34.1320   50.0210 H   0  0  0  0  0  0  0  0  0  0  0  0
   39.4950   31.8670   46.6460 H   0  0  0  0  0  0  0  0  0  0  0  0
   34.4920   28.8840   46.0630 O   0  0  0  0  0  0  0  0  0  0  0  0
   34.3960   29.6830   45.5070 H   0  0  0  0  0  0  0  0  0  0  0  0
   31.5900   29.1180   46.9540 O   0  0  0  0  0  0  0  0  0  0  0  0
   30.7780   28.1120   44.8230 C   0  0  0  0  0  3  0  0  0  0  0  0
   30.6140   28.7250   46.0470 C   0  0  0  0  0  0  0  0  0  0  0  0
   29.3310   29.0220   46.5060 C   0  0  0  0  0  0  0  0  0  0  0  0
   29.1020   29.5060   47.4620 H   0  0  0  0  0  0  0  0  0  0  0  0
   28.2210   28.7150   45.7570 C   0  0  0  0  0  0  0  0  0  0  0  0
   28.4070   28.0990   44.5290 C   0  0  0  0  0  0  0  0  0  0  0  0
   29.6810   27.7940   44.0530 C   0  0  0  0  0  3  0  0  0  0  0  0
   27.1500   27.8940   43.9720 O   0  0  0  0  0  0  0  0  0  0  0  0
   26.1520   28.0890   44.9620 C   0  0  0  0  0  3  0  0  0  0  0  0
   25.2780   28.6840   44.5670 H   0  0  0  0  0  0  0  0  0  0  0  0
   26.8520   28.8760   45.9290 O   0  0  0  0  0  0  0  0  0  0  0  0
  1  5  1  0  0  0  0
  1  6  1  1  0  0  0
  1  2  1  0  0  0  0
  2  7  1  6  0  0  0
  2 12  1  0  0  0  0
  2  3  1  0  0  0  0
  4  8  1  0  0  0  0
  4  9  1  0  0  0  0
  4  3  1  0  0  0  0
  5 10  1  6  0  0  0
  5  4  1  0  0  0  0
 11 14  1  6  0  0  0
 11 13  1  0  0  0  0
 12 15  1  6  0  0  0
 12 11  1  0  0  0  0
 12 13  1  0  0  0  0
 13 17  1  0  0  0  0
 13 16  1  0  0  0  0
 18 11  1  0  0  0  0
 18 19  1  0  0  0  0
 19 24  1  0  0  0  0
 20 19  2  0  0  0  0
 20 25  1  0  0  0  0
 21 20  1  0  0  0  0
 22 23  1  0  0  0  0
 22 21  2  0  0  0  0
 23 18  2  0  0  0  0
 26 22  1  0  0  0  0
 27  1  1  0  0  0  0
 28 27  1  0  0  0  0
 29  5  1  0  0  0  0
 30 31  1  0  0  0  0
 31 32  2  0  0  0  0
 31 29  1  0  0  0  0
 32 33  1  0  0  0  0
 34 40  1  0  0  0  0
 34 32  1  0  0  0  0
 35 34  2  0  0  0  0
 36 35  1  0  0  0  0
 36 30  2  0  0  0  0
 37 35  1  0  0  0  0
 37 38  1  0  0  0  0
 38 40  1  0  0  0  0
 39 38  1  0  0  0  0
M  END
>  <minimizedAffinity>
-5.4412632

>  <minimizedRMSD>
0.656763852

$$$$
