
 OpenBabel03272507123D

 43 48  0  0  1  0  0  0  0  0999 V2000
   37.2400   29.7600   50.1190 C   0  0  0  0  0  0  0  0  0  0  0  0
   37.8420   29.2000   51.0740 O   0  0  0  0  0  0  0  0  0  0  0  0
   37.8140   30.8100   49.3190 C   0  0  0  0  0  0  0  0  0  0  0  0
   37.6430   32.1130   49.7550 C   0  0  0  0  0  0  0  0  0  0  0  0
   38.1810   33.1610   49.0130 C   0  0  0  0  0  0  0  0  0  0  0  0
   38.8570   32.8210   47.8750 N   0  0  0  0  0  0  0  0  0  0  0  0
   39.0140   31.5610   47.4640 C   0  0  0  0  0  0  0  0  0  0  0  0
   38.4880   30.5670   48.1960 N   0  0  0  0  0  0  0  0  0  0  0  0
   37.0980   32.3420   50.6680 H   0  0  0  0  0  0  0  0  0  0  0  0
   38.0890   34.2010   49.2900 H   0  0  0  0  0  0  0  0  0  0  0  0
   39.7510   31.2260   46.2280 C   0  0  0  0  0  0  0  0  0  0  0  0
   39.1690   32.0410   45.0940 C   0  0  2  0  0  0  0  0  0  0  0  0
   37.6880   32.1310   45.2870 C   0  0  0  0  0  0  0  0  0  0  0  0
   37.0800   32.1770   43.9740 N   0  0  0  0  0  0  0  0  0  0  0  0
   36.2970   32.5800   42.8310 C   0  0  0  0  0  0  0  0  0  0  0  0
   35.2600   33.3040   42.6820 O   0  0  0  0  0  0  0  0  0  0  0  0
   37.1880   31.8080   41.9000 C   0  0  0  0  0  0  0  0  0  0  0  0
   38.0390   32.3850   41.4800 H   0  0  0  0  0  0  0  0  0  0  0  0
   37.5110   31.0530   43.1620 C   0  0  1  0  0  0  0  0  0  0  0  0
   39.2770   31.0290   43.5890 S   0  0  0  0  0  0  0  0  0  0  0  0
   39.8540   33.3560   44.9460 C   0  0  0  0  0  0  0  0  0  0  0  0
   39.3870   33.9650   44.1710 H   0  0  0  0  0  0  0  0  0  0  0  0
   35.8870   29.3310   49.7960 C   0  0  0  0  0  0  0  0  0  0  0  0
   34.7990   29.8420   50.4110 C   0  0  0  0  0  0  0  0  0  0  0  0
   33.6840   29.2100   49.8600 C   0  0  0  0  0  0  0  0  0  0  0  0
   34.1890   28.3190   48.9050 C   0  0  0  0  0  0  0  0  0  0  0  0
   35.4820   28.4430   48.9220 O   0  0  0  0  0  0  0  0  0  0  0  0
   34.7610   30.6000   51.1890 H   0  0  0  0  0  0  0  0  0  0  0  0
   32.6800   29.4350   50.1760 H   0  0  0  0  0  0  0  0  0  0  0  0
   33.8140   26.5420   47.2080 C   0  0  0  0  0  0  0  0  0  0  0  0
   33.3100   27.4700   48.1120 C   0  0  0  0  0  0  0  0  0  0  0  0
   31.9510   27.6190   48.2920 C   0  0  0  0  0  0  0  0  0  0  0  0
   31.1110   26.8220   47.5490 C   0  0  0  0  0  0  0  0  0  0  0  0
   29.7640   26.7640   47.5300 N   0  0  0  0  0  0  0  0  0  0  0  0
   29.4120   25.8320   46.6460 N   0  0  0  0  0  0  0  0  0  0  0  0
   30.5400   25.3080   46.1110 C   0  0  0  0  0  0  0  0  0  0  0  0
   31.6440   25.9110   46.6600 C   0  0  0  0  0  0  0  0  0  0  0  0
   32.9990   25.7490   46.4680 C   0  0  0  0  0  0  0  0  0  0  0  0
   34.9000   26.4490   47.0890 H   0  0  0  0  0  0  0  0  0  0  0  0
   31.4920   28.3330   48.9880 H   0  0  0  0  0  0  0  0  0  0  0  0
   29.0520   27.3070   48.0720 H   0  0  0  0  0  0  0  0  0  0  0  0
   30.5340   24.5270   45.3630 H   0  0  0  0  0  0  0  0  0  0  0  0
   33.3620   25.0260   45.7640 H   0  0  0  0  0  0  0  0  0  0  0  0
  1  2  2  0  0  0  0
  3  4  1  0  0  0  0
  3  1  1  0  0  0  0
  4  9  1  0  0  0  0
  5 10  1  0  0  0  0
  5  4  2  0  0  0  0
  6  5  1  0  0  0  0
  7  6  2  0  0  0  0
  7  8  1  0  0  0  0
  8  3  2  0  0  0  0
 11  7  1  0  0  0  0
 12 21  1  6  0  0  0
 12 13  1  0  0  0  0
 12 11  1  0  0  0  0
 14 13  1  0  0  0  0
 15 14  1  0  0  0  0
 16 15  2  0  0  0  0
 17 15  1  0  0  0  0
 18 17  1  0  0  0  0
 19 17  1  6  0  0  0
 19 20  1  0  0  0  0
 19 14  1  0  0  0  0
 20 12  1  0  0  0  0
 22 21  1  0  0  0  0
 23  1  1  0  0  0  0
 23 24  2  0  0  0  0
 24 28  1  0  0  0  0
 25 29  1  0  0  0  0
 25 24  1  0  0  0  0
 26 27  1  0  0  0  0
 26 25  2  0  0  0  0
 27 23  1  0  0  0  0
 30 31  1  0  0  0  0
 31 32  2  0  0  0  0
 31 26  1  0  0  0  0
 32 40  1  0  0  0  0
 33 32  1  0  0  0  0
 34 33  1  0  0  0  0
 34 41  1  0  0  0  0
 35 34  1  0  0  0  0
 36 35  2  0  0  0  0
 36 37  1  0  0  0  0
 37 33  2  0  0  0  0
 38 37  1  0  0  0  0
 38 30  2  0  0  0  0
 39 30  1  0  0  0  0
 42 36  1  0  0  0  0
 43 38  1  0  0  0  0
M  END
>  <minimizedAffinity>
-7.13482904

>  <minimizedRMSD>
0.864207327

$$$$
