
 OpenBabel03272503243D

 35 38  0  0  1  0  0  0  0  0999 V2000
   36.4710   29.9050   49.2390 N   0  0  0  0  0  0  0  0  0  0  0  0
   37.0790   31.1880   49.1550 C   0  0  1  0  0  0  0  0  0  0  0  0
   37.6870   31.4340   50.5060 C   0  0  0  0  0  0  0  0  0  0  0  0
   37.3320   30.1580   51.3140 C   0  0  0  0  0  0  0  0  0  0  0  0
   37.2370   29.1580   50.2020 C   0  0  0  0  0  0  0  0  0  0  0  0
   36.2100   31.9780   49.1020 H   0  0  0  0  0  0  0  0  0  0  0  0
   37.2950   32.3220   51.0340 H   0  0  0  0  0  0  0  0  0  0  0  0
   38.8000   31.4340   50.4540 H   0  0  0  0  0  0  0  0  0  0  0  0
   36.3570   30.2750   51.8000 H   0  0  0  0  0  0  0  0  0  0  0  0
   38.1590   29.9290   52.0300 H   0  0  0  0  0  0  0  0  0  0  0  0
   36.6330   28.3020   50.5980 H   0  0  0  0  0  0  0  0  0  0  0  0
   38.2300   28.8260   49.8500 H   0  0  0  0  0  0  0  0  0  0  0  0
   35.3280   29.4710   48.5200 C   0  0  0  0  0  0  0  0  0  0  0  0
   34.6270   30.4120   47.7490 C   0  0  0  0  0  0  0  0  0  0  0  0
   33.4960   30.0010   47.0330 C   0  0  0  0  0  0  0  0  0  0  0  0
   33.1470   28.6790   47.1390 N   0  0  0  0  0  0  0  0  0  0  0  0
   33.8440   27.7970   47.8900 C   0  0  0  0  0  0  0  0  0  0  0  0
   34.9550   28.1840   48.5970 N   0  0  0  0  0  0  0  0  0  0  0  0
   34.9060   31.4530   47.6700 H   0  0  0  0  0  0  0  0  0  0  0  0
   32.9400   30.7060   46.4340 H   0  0  0  0  0  0  0  0  0  0  0  0
   33.5530   26.7700   47.9550 H   0  0  0  0  0  0  0  0  0  0  0  0
   37.9390   31.4560   48.0150 C   0  0  0  0  0  0  0  0  0  0  0  0
   38.6690   32.4060   47.9820 O   0  0  0  0  0  0  0  0  0  0  0  0
   37.3840   30.7590   42.9460 C   0  0  0  0  0  0  0  0  0  0  0  0
   38.1680   31.9280   43.5570 C   0  0  0  0  0  2  0  0  0  0  0  0
   38.6540   31.4330   44.8610 N   0  0  0  0  0  0  0  0  0  0  0  0
   39.3130   30.9480   46.0610 C   0  0  0  0  0  0  0  0  0  0  0  0
   40.5930   30.9770   46.0170 O   0  0  0  0  0  0  0  0  0  0  0  0
   38.0490   30.6570   46.7490 C   0  0  2  0  0  3  0  0  0  0  0  0
   37.4120   31.3450   45.6070 C   0  0  2  0  0  3  0  0  0  0  0  0
   36.4810   30.2440   44.4650 S   0  0  0  0  0  0  0  0  0  0  0  0
   36.4480   31.2740   41.8980 C   0  0  0  0  0  2  0  0  0  0  0  0
   36.9250   32.1280   41.3940 H   0  0  0  0  0  0  0  0  0  0  0  0
   38.2840   29.6640   42.4690 C   0  0  0  0  0  2  0  0  0  0  0  0
   37.6640   28.7330   42.4210 H   0  0  0  0  0  0  0  0  0  0  0  0
  1  5  1  0  0  0  0
  2  6  1  6  0  0  0
  2  1  1  0  0  0  0
  2  3  1  0  0  0  0
  3  7  1  0  0  0  0
  3  4  1  0  0  0  0
  4  9  1  0  0  0  0
  4 10  1  0  0  0  0
  5 11  1  0  0  0  0
  5  4  1  0  0  0  0
  8  3  1  0  0  0  0
 12  5  1  0  0  0  0
 13 18  1  0  0  0  0
 13  1  1  0  0  0  0
 14 13  2  0  0  0  0
 15 16  2  0  0  0  0
 15 14  1  0  0  0  0
 16 17  1  0  0  0  0
 17 21  1  0  0  0  0
 17 18  2  0  0  0  0
 19 14  1  0  0  0  0
 20 15  1  0  0  0  0
 22  2  1  0  0  0  0
 23 22  2  0  0  0  0
 24 25  1  0  0  0  0
 24 31  1  0  0  0  0
 25 26  1  0  0  0  0
 26 30  1  0  0  0  0
 26 27  1  0  0  0  0
 27 29  1  0  0  0  0
 28 27  2  0  0  0  0
 29 22  1  1  0  0  0
 30 31  1  6  0  0  0
 30 29  1  0  0  0  0
 32 24  1  0  0  0  0
 33 32  1  0  0  0  0
 34 24  1  0  0  0  0
 35 34  1  0  0  0  0
M  END
>  <minimizedAffinity>
-5.7994051

>  <minimizedRMSD>
0.915198088

$$$$
