
 OpenBabel03262521183D

 32 34  0  0  1  0  0  0  0  0999 V2000
   38.7230   31.7380   46.6020 C   0  0  0  0  0  0  0  0  0  0  0  0
   39.7120   32.7160   46.4500 C   0  0  0  0  0  0  0  0  0  0  0  0
   40.5980   32.6120   45.3820 C   0  0  0  0  0  0  0  0  0  0  0  0
   40.4510   31.5500   44.5320 N   0  0  0  0  0  0  0  0  0  0  0  0
   39.4720   30.6130   44.7120 C   0  0  0  0  0  0  0  0  0  0  0  0
   38.6400   30.7260   45.7310 N   0  0  0  0  0  0  0  0  0  0  0  0
   39.8740   33.5730   47.0880 H   0  0  0  0  0  0  0  0  0  0  0  0
   41.3810   33.3440   45.2220 H   0  0  0  0  0  0  0  0  0  0  0  0
   37.9190   31.9750   47.7070 O   0  0  0  0  0  0  0  0  0  0  0  0
   37.0070   30.9940   48.0360 C   0  0  0  0  0  0  0  0  0  0  0  0
   36.0940   31.5170   48.4410 H   0  0  0  0  0  0  0  0  0  0  0  0
   36.6190   30.4060   47.1760 H   0  0  0  0  0  0  0  0  0  0  0  0
   37.7340   30.3140   48.9380 C   0  0  0  0  0  0  0  0  0  0  0  0
   37.2850   29.2920   49.1220 H   0  0  0  0  0  0  0  0  0  0  0  0
   38.7580   30.0080   48.5860 H   0  0  0  0  0  0  0  0  0  0  0  0
   37.9440   30.9360   50.2780 C   0  0  0  0  0  0  0  0  0  0  0  0
   37.3960   31.9050   50.2930 H   0  0  0  0  0  0  0  0  0  0  0  0
   38.9990   31.1990   50.4940 H   0  0  0  0  0  0  0  0  0  0  0  0
   37.2740   29.9390   51.6130 S   0  0  0  0  0  0  0  0  0  0  0  0
   36.9200   30.6920   52.7510 H   0  0  0  0  0  0  0  0  0  0  0  0
   39.3300   29.4660   43.7770 C   0  0  0  0  0  0  0  0  0  0  0  0
   38.8160   30.0170   42.4760 C   0  0  2  0  0  0  0  0  0  0  0  0
   38.3700   28.9610   41.4980 C   0  0  0  0  0  0  0  0  0  0  0  0
   39.5180   28.4120   40.8530 N   0  0  0  0  0  0  0  0  0  0  0  0
   40.4710   27.4690   40.3680 C   0  0  0  0  0  0  0  0  0  0  0  0
   40.5000   26.2530   40.0270 O   0  0  0  0  0  0  0  0  0  0  0  0
   41.4890   28.5510   40.4230 C   0  0  0  0  0  0  0  0  0  0  0  0
   41.9260   28.6030   41.4400 H   0  0  0  0  0  0  0  0  0  0  0  0
   40.3100   29.4490   40.2610 C   0  0  2  0  0  0  0  0  0  0  0  0
   40.1900   30.7560   41.5440 S   0  0  0  0  0  0  0  0  0  0  0  0
   37.7330   31.0200   42.7610 C   0  0  0  0  0  0  0  0  0  0  0  0
   36.7660   30.7920   42.2400 H   0  0  0  0  0  0  0  0  0  0  0  0
  1  9  1  0  0  0  0
  2  1  1  0  0  0  0
  2  7  1  0  0  0  0
  3  2  2  0  0  0  0
  4  5  2  0  0  0  0
  4  3  1  0  0  0  0
  5  6  1  0  0  0  0
  6  1  2  0  0  0  0
  8  3  1  0  0  0  0
  9 10  1  0  0  0  0
 10 11  1  0  0  0  0
 10 13  1  0  0  0  0
 12 10  1  0  0  0  0
 13 14  1  0  0  0  0
 13 16  1  0  0  0  0
 15 13  1  0  0  0  0
 16 17  1  0  0  0  0
 16 18  1  0  0  0  0
 16 19  1  0  0  0  0
 19 20  1  0  0  0  0
 21  5  1  0  0  0  0
 22 31  1  1  0  0  0
 22 21  1  0  0  0  0
 23 22  1  0  0  0  0
 24 23  1  0  0  0  0
 25 27  1  0  0  0  0
 25 24  1  0  0  0  0
 26 25  2  0  0  0  0
 27 28  1  0  0  0  0
 29 27  1  1  0  0  0
 29 24  1  0  0  0  0
 29 30  1  0  0  0  0
 30 22  1  0  0  0  0
 32 31  1  0  0  0  0
M  END
>  <minimizedAffinity>
-4.58267021

>  <minimizedRMSD>
3.1675334

$$$$
