
 OpenBabel03272507153D

 43 48  0  0  1  0  0  0  0  0999 V2000
   36.3860   27.2180   31.4700 C   0  0  0  0  0  0  0  0  0  0  0  0
   36.3680   27.8830   30.4000 O   0  0  0  0  0  0  0  0  0  0  0  0
   36.4920   25.7840   31.5190 C   0  0  0  0  0  0  0  0  0  0  0  0
   35.4110   25.0470   31.0630 C   0  0  0  0  0  0  0  0  0  0  0  0
   35.4690   23.6570   31.0900 C   0  0  0  0  0  0  0  0  0  0  0  0
   36.6180   23.1010   31.5800 N   0  0  0  0  0  0  0  0  0  0  0  0
   37.6530   23.8210   32.0170 C   0  0  0  0  0  0  0  0  0  0  0  0
   37.5750   25.1610   31.9800 N   0  0  0  0  0  0  0  0  0  0  0  0
   34.5140   25.5270   30.6800 H   0  0  0  0  0  0  0  0  0  0  0  0
   34.6680   23.0160   30.7520 H   0  0  0  0  0  0  0  0  0  0  0  0
   38.8820   23.1910   32.5400 C   0  0  0  0  0  2  0  0  0  0  0  0
   38.6110   22.7250   33.9530 C   0  0  2  0  0  0  0  0  0  0  0  0
   38.2190   23.9120   34.7760 C   0  0  0  0  0  2  0  0  0  0  0  0
   38.6980   23.6850   36.1230 N   0  0  0  0  0  0  0  0  0  0  0  0
   38.7600   23.5340   37.5570 C   0  0  0  0  0  0  0  0  0  0  0  0
   38.0420   23.9530   38.5210 O   0  0  0  0  0  0  0  0  0  0  0  0
   40.0010   22.6930   37.4530 C   0  0  0  0  0  3  0  0  0  0  0  0
   39.8210   21.6000   37.3780 H   0  0  0  0  0  0  0  0  0  0  0  0
   40.1210   23.3970   36.1270 C   0  0  1  0  0  3  0  0  0  0  0  0
   40.2090   22.2830   34.6940 S   0  0  0  0  0  0  0  0  0  0  0  0
   37.6350   21.6000   33.9900 C   0  0  0  0  0  2  0  0  0  0  0  0
   37.3950   21.3130   35.0140 H   0  0  0  0  0  0  0  0  0  0  0  0
   36.2950   27.9290   32.7380 C   0  0  0  0  0  0  0  0  0  0  0  0
   37.0520   27.6020   33.8080 C   0  0  0  0  0  0  0  0  0  0  0  0
   36.7060   28.4800   34.8360 C   0  0  0  0  0  0  0  0  0  0  0  0
   35.7200   29.3180   34.3000 C   0  0  0  0  0  0  0  0  0  0  0  0
   35.5300   28.9390   33.0720 O   0  0  0  0  0  0  0  0  0  0  0  0
   37.7950   26.8140   33.8890 H   0  0  0  0  0  0  0  0  0  0  0  0
   37.1640   28.4370   35.8080 H   0  0  0  0  0  0  0  0  0  0  0  0
   35.8750   31.3230   35.7610 C   0  0  0  0  0  0  0  0  0  0  0  0
   35.1080   30.3790   35.0900 C   0  0  0  0  0  0  0  0  0  0  0  0
   33.7300   30.4150   35.1450 C   0  0  0  0  0  0  0  0  0  0  0  0
   33.1410   31.4130   35.8860 C   0  0  0  0  0  0  0  0  0  0  0  0
   31.8370   31.6750   36.1050 N   0  0  0  0  0  0  0  0  0  0  0  0
   31.7660   32.7490   36.8890 N   0  0  0  0  0  0  0  0  0  0  0  0
   33.0280   33.1590   37.1620 C   0  0  0  0  0  0  0  0  0  0  0  0
   33.9330   32.3340   36.5410 C   0  0  0  0  0  0  0  0  0  0  0  0
   35.3100   32.3130   36.4960 C   0  0  0  0  0  0  0  0  0  0  0  0
   36.9680   31.2660   35.6950 H   0  0  0  0  0  0  0  0  0  0  0  0
   33.0710   29.7000   34.6380 H   0  0  0  0  0  0  0  0  0  0  0  0
   30.9780   31.1840   35.7640 H   0  0  0  0  0  0  0  0  0  0  0  0
   33.2520   34.0170   37.7810 H   0  0  0  0  0  0  0  0  0  0  0  0
   35.8790   33.0540   37.0240 H   0  0  0  0  0  0  0  0  0  0  0  0
  1  3  1  0  0  0  0
  1 23  1  0  0  0  0
  2  1  2  0  0  0  0
  3  8  1  0  0  0  0
  4  5  1  0  0  0  0
  4  3  2  0  0  0  0
  5  6  2  0  0  0  0
  6  7  1  0  0  0  0
  7 11  1  0  0  0  0
  8  7  2  0  0  0  0
  9  4  1  0  0  0  0
 10  5  1  0  0  0  0
 12 11  1  6  0  0  0
 12 21  1  0  0  0  0
 12 20  1  0  0  0  0
 12 13  1  0  0  0  0
 13 14  1  0  0  0  0
 14 19  1  0  0  0  0
 14 15  1  0  0  0  0
 15 16  2  0  0  0  0
 17 15  1  0  0  0  0
 18 17  1  0  0  0  0
 19 20  1  6  0  0  0
 19 17  1  0  0  0  0
 21 22  1  0  0  0  0
 23 27  1  0  0  0  0
 23 24  2  0  0  0  0
 24 28  1  0  0  0  0
 24 25  1  0  0  0  0
 25 29  1  0  0  0  0
 26 25  2  0  0  0  0
 26 31  1  0  0  0  0
 27 26  1  0  0  0  0
 30 38  1  0  0  0  0
 31 32  1  0  0  0  0
 31 30  2  0  0  0  0
 32 33  2  0  0  0  0
 33 34  1  0  0  0  0
 33 37  1  0  0  0  0
 34 35  1  0  0  0  0
 35 36  2  0  0  0  0
 36 42  1  0  0  0  0
 37 36  1  0  0  0  0
 38 37  2  0  0  0  0
 38 43  1  0  0  0  0
 39 30  1  0  0  0  0
 40 32  1  0  0  0  0
 41 34  1  0  0  0  0
M  END
>  <minimizedAffinity>
-7.16079998

$$$$

 OpenBabel03272507153D

 43 48  0  0  1  0  0  0  0  0999 V2000
   37.1120   27.5060   32.4030 C   0  0  0  0  0  0  0  0  0  0  0  0
   38.3350   27.5690   32.6980 O   0  0  0  0  0  0  0  0  0  0  0  0
   36.2110   28.6260   32.4860 C   0  0  0  0  0  0  0  0  0  0  0  0
   36.0720   29.4200   31.3590 C   0  0  0  0  0  0  0  0  0  0  0  0
   35.2110   30.5130   31.3930 C   0  0  0  0  0  0  0  0  0  0  0  0
   34.5460   30.7320   32.5670 N   0  0  0  0  0  0  0  0  0  0  0  0
   34.6880   29.9600   33.6460 C   0  0  0  0  0  0  0  0  0  0  0  0
   35.5240   28.9110   33.5900 N   0  0  0  0  0  0  0  0  0  0  0  0
   36.6190   29.2120   30.4440 H   0  0  0  0  0  0  0  0  0  0  0  0
   35.0510   31.1770   30.5570 H   0  0  0  0  0  0  0  0  0  0  0  0
   33.9550   30.2230   34.9010 C   0  0  0  0  0  2  0  0  0  0  0  0
   34.5840   31.4220   35.5760 C   0  0  2  0  0  0  0  0  0  0  0  0
   33.8650   31.6710   36.8640 C   0  0  0  0  0  2  0  0  0  0  0  0
   33.8800   33.0990   37.1010 N   0  0  0  0  0  0  0  0  0  0  0  0
   34.0670   34.3930   37.7120 C   0  0  0  0  0  0  0  0  0  0  0  0
   34.1750   34.7940   38.9150 O   0  0  0  0  0  0  0  0  0  0  0  0
   34.0780   35.0680   36.3690 C   0  0  0  0  0  3  0  0  0  0  0  0
   35.0830   35.1760   35.9080 H   0  0  0  0  0  0  0  0  0  0  0  0
   33.3380   33.8210   35.9630 C   0  0  1  0  0  3  0  0  0  0  0  0
   34.1240   32.8910   34.6130 S   0  0  0  0  0  0  0  0  0  0  0  0
   36.0610   31.2700   35.7130 C   0  0  0  0  0  2  0  0  0  0  0  0
   36.5000   32.1060   36.2580 H   0  0  0  0  0  0  0  0  0  0  0  0
   36.5650   26.2360   31.9500 C   0  0  0  0  0  0  0  0  0  0  0  0
   35.4150   26.1510   31.2460 C   0  0  0  0  0  0  0  0  0  0  0  0
   35.1960   24.7980   30.9840 C   0  0  0  0  0  0  0  0  0  0  0  0
   36.2720   24.1210   31.5700 C   0  0  0  0  0  0  0  0  0  0  0  0
   37.0310   25.0220   32.1170 O   0  0  0  0  0  0  0  0  0  0  0  0
   34.7620   26.9580   30.9280 H   0  0  0  0  0  0  0  0  0  0  0  0
   34.3390   24.4500   30.4330 H   0  0  0  0  0  0  0  0  0  0  0  0
   37.5170   22.0540   30.9720 C   0  0  0  0  0  0  0  0  0  0  0  0
   36.3900   22.6700   31.5020 C   0  0  0  0  0  0  0  0  0  0  0  0
   35.3360   21.9240   31.9890 C   0  0  0  0  0  0  0  0  0  0  0  0
   35.4370   20.5530   31.9310 C   0  0  0  0  0  0  0  0  0  0  0  0
   34.5680   19.6030   32.3300 N   0  0  0  0  0  0  0  0  0  0  0  0
   35.1150   18.4180   32.0670 N   0  0  0  0  0  0  0  0  0  0  0  0
   36.3280   18.6270   31.5020 C   0  0  0  0  0  0  0  0  0  0  0  0
   36.5710   19.9740   31.3980 C   0  0  0  0  0  0  0  0  0  0  0  0
   37.6320   20.7040   30.9090 C   0  0  0  0  0  0  0  0  0  0  0  0
   38.3370   22.6770   30.5950 H   0  0  0  0  0  0  0  0  0  0  0  0
   34.4210   22.3500   32.4180 H   0  0  0  0  0  0  0  0  0  0  0  0
   33.6230   19.6880   32.7720 H   0  0  0  0  0  0  0  0  0  0  0  0
   36.9830   17.8250   31.1910 H   0  0  0  0  0  0  0  0  0  0  0  0
   38.4900   20.2040   30.5040 H   0  0  0  0  0  0  0  0  0  0  0  0
  1  3  1  0  0  0  0
  1  2  2  0  0  0  0
  3  8  1  0  0  0  0
  4  5  1  0  0  0  0
  4  3  2  0  0  0  0
  5  6  2  0  0  0  0
  6  7  1  0  0  0  0
  7 11  1  0  0  0  0
  8  7  2  0  0  0  0
  9  4  1  0  0  0  0
 10  5  1  0  0  0  0
 12 11  1  6  0  0  0
 12 21  1  0  0  0  0
 12 13  1  0  0  0  0
 13 14  1  0  0  0  0
 14 15  1  0  0  0  0
 15 16  2  0  0  0  0
 17 15  1  0  0  0  0
 18 17  1  0  0  0  0
 19 20  1  6  0  0  0
 19 17  1  0  0  0  0
 19 14  1  0  0  0  0
 20 12  1  0  0  0  0
 21 22  1  0  0  0  0
 23 27  1  0  0  0  0
 23  1  1  0  0  0  0
 24 23  2  0  0  0  0
 25 24  1  0  0  0  0
 25 26  2  0  0  0  0
 26 27  1  0  0  0  0
 28 24  1  0  0  0  0
 29 25  1  0  0  0  0
 30 31  1  0  0  0  0
 31 26  1  0  0  0  0
 31 32  2  0  0  0  0
 32 40  1  0  0  0  0
 33 32  1  0  0  0  0
 33 34  1  0  0  0  0
 34 41  1  0  0  0  0
 35 34  1  0  0  0  0
 36 35  2  0  0  0  0
 37 36  1  0  0  0  0
 37 33  2  0  0  0  0
 38 30  2  0  0  0  0
 38 37  1  0  0  0  0
 39 30  1  0  0  0  0
 42 36  1  0  0  0  0
 43 38  1  0  0  0  0
M  END
>  <minimizedAffinity>
-6.90240383

$$$$

 OpenBabel03272507153D

 43 48  0  0  1  0  0  0  0  0999 V2000
   36.8320   27.5010   31.2830 C   0  0  0  0  0  0  0  0  0  0  0  0
   37.2890   28.2530   30.3810 O   0  0  0  0  0  0  0  0  0  0  0  0
   36.5380   26.1060   31.0880 C   0  0  0  0  0  0  0  0  0  0  0  0
   35.2050   25.7290   31.0690 C   0  0  0  0  0  0  0  0  0  0  0  0
   34.8730   24.3910   30.8830 C   0  0  0  0  0  0  0  0  0  0  0  0
   35.9140   23.5180   30.7290 N   0  0  0  0  0  0  0  0  0  0  0  0
   37.1950   23.8920   30.7490 C   0  0  0  0  0  0  0  0  0  0  0  0
   37.4910   25.1890   30.9300 N   0  0  0  0  0  0  0  0  0  0  0  0
   34.4060   26.4550   31.1950 H   0  0  0  0  0  0  0  0  0  0  0  0
   33.8580   24.0220   30.8560 H   0  0  0  0  0  0  0  0  0  0  0  0
   38.2970   22.9240   30.5790 C   0  0  0  0  0  2  0  0  0  0  0  0
   38.0780   21.7810   31.5460 C   0  0  2  0  0  0  0  0  0  0  0  0
   37.0040   20.8950   30.9960 C   0  0  0  0  0  2  0  0  0  0  0  0
   36.2820   20.3390   32.1200 N   0  0  0  0  0  0  0  0  0  0  0  0
   35.6630   19.4150   33.0400 C   0  0  0  0  0  0  0  0  0  0  0  0
   35.2370   18.2200   32.9390 O   0  0  0  0  0  0  0  0  0  0  0  0
   35.7230   20.4240   34.1520 C   0  0  0  0  0  3  0  0  0  0  0  0
   36.6420   20.3800   34.7750 H   0  0  0  0  0  0  0  0  0  0  0  0
   35.7990   21.3890   32.9990 C   0  0  1  0  0  3  0  0  0  0  0  0
   37.2640   22.4650   33.0190 S   0  0  0  0  0  0  0  0  0  0  0  0
   39.3510   21.0780   31.8730 C   0  0  0  0  0  2  0  0  0  0  0  0
   39.1770   20.2160   32.5170 H   0  0  0  0  0  0  0  0  0  0  0  0
   36.5820   28.0620   32.6030 C   0  0  0  0  0  0  0  0  0  0  0  0
   37.0950   27.5220   33.7300 C   0  0  0  0  0  0  0  0  0  0  0  0
   36.6570   28.3080   34.7960 C   0  0  0  0  0  0  0  0  0  0  0  0
   35.8720   29.3170   34.2240 C   0  0  0  0  0  0  0  0  0  0  0  0
   35.8730   29.1110   32.9410 O   0  0  0  0  0  0  0  0  0  0  0  0
   37.7300   26.6450   33.8250 H   0  0  0  0  0  0  0  0  0  0  0  0
   36.9240   28.0940   35.8160 H   0  0  0  0  0  0  0  0  0  0  0  0
   35.9790   31.2720   35.7540 C   0  0  0  0  0  0  0  0  0  0  0  0
   35.2340   30.3430   35.0380 C   0  0  0  0  0  0  0  0  0  0  0  0
   33.8560   30.3610   35.0700 C   0  0  0  0  0  0  0  0  0  0  0  0
   33.2420   31.3270   35.8350 C   0  0  0  0  0  0  0  0  0  0  0  0
   31.9320   31.5670   36.0390 N   0  0  0  0  0  0  0  0  0  0  0  0
   31.8340   32.6120   36.8580 N   0  0  0  0  0  0  0  0  0  0  0  0
   33.0860   33.0270   37.1660 C   0  0  0  0  0  0  0  0  0  0  0  0
   34.0120   32.2340   36.5340 C   0  0  0  0  0  0  0  0  0  0  0  0
   35.3890   32.2300   36.5120 C   0  0  0  0  0  0  0  0  0  0  0  0
   37.0730   31.2290   35.7060 H   0  0  0  0  0  0  0  0  0  0  0  0
   33.2130   29.6570   34.5280 H   0  0  0  0  0  0  0  0  0  0  0  0
   31.0840   31.0770   35.6670 H   0  0  0  0  0  0  0  0  0  0  0  0
   33.2890   33.8650   37.8190 H   0  0  0  0  0  0  0  0  0  0  0  0
   35.9400   32.9580   37.0750 H   0  0  0  0  0  0  0  0  0  0  0  0
  1 23  1  0  0  0  0
  2  1  2  0  0  0  0
  3  1  1  0  0  0  0
  4  3  1  0  0  0  0
  4  9  1  0  0  0  0
  5  4  2  0  0  0  0
  6  7  2  0  0  0  0
  6  5  1  0  0  0  0
  7  8  1  0  0  0  0
  8  3  2  0  0  0  0
 10  5  1  0  0  0  0
 11  7  1  0  0  0  0
 12 11  1  6  0  0  0
 12 21  1  0  0  0  0
 12 20  1  0  0  0  0
 13 12  1  0  0  0  0
 13 14  1  0  0  0  0
 14 19  1  0  0  0  0
 14 15  1  0  0  0  0
 15 17  1  0  0  0  0
 16 15  2  0  0  0  0
 17 18  1  0  0  0  0
 19 20  1  1  0  0  0
 19 17  1  0  0  0  0
 21 22  1  0  0  0  0
 23 27  1  0  0  0  0
 23 24  2  0  0  0  0
 24 28  1  0  0  0  0
 24 25  1  0  0  0  0
 25 29  1  0  0  0  0
 26 25  2  0  0  0  0
 26 31  1  0  0  0  0
 27 26  1  0  0  0  0
 30 38  1  0  0  0  0
 31 32  1  0  0  0  0
 31 30  2  0  0  0  0
 32 33  2  0  0  0  0
 33 34  1  0  0  0  0
 33 37  1  0  0  0  0
 34 35  1  0  0  0  0
 35 36  2  0  0  0  0
 36 42  1  0  0  0  0
 37 36  1  0  0  0  0
 38 37  2  0  0  0  0
 38 43  1  0  0  0  0
 39 30  1  0  0  0  0
 40 32  1  0  0  0  0
 41 34  1  0  0  0  0
M  END
>  <minimizedAffinity>
-6.80830097

$$$$

 OpenBabel03272507153D

 43 48  0  0  1  0  0  0  0  0999 V2000
   36.2020   27.0320   31.9670 C   0  0  0  0  0  0  0  0  0  0  0  0
   36.1080   26.1300   31.0910 O   0  0  0  0  0  0  0  0  0  0  0  0
   35.6880   28.3650   31.7990 C   0  0  0  0  0  0  0  0  0  0  0  0
   36.4230   29.2400   31.0140 C   0  0  0  0  0  0  0  0  0  0  0  0
   35.9650   30.5400   30.8240 C   0  0  0  0  0  0  0  0  0  0  0  0
   34.7910   30.8720   31.4410 N   0  0  0  0  0  0  0  0  0  0  0  0
   34.0920   30.0210   32.1950 C   0  0  0  0  0  0  0  0  0  0  0  0
   34.5530   28.7720   32.3640 N   0  0  0  0  0  0  0  0  0  0  0  0
   37.3530   28.9360   30.5400 H   0  0  0  0  0  0  0  0  0  0  0  0
   36.4820   31.2770   30.2270 H   0  0  0  0  0  0  0  0  0  0  0  0
   32.8260   30.4110   32.8480 C   0  0  0  0  0  2  0  0  0  0  0  0
   33.1060   30.6570   34.3140 C   0  0  2  0  0  0  0  0  0  0  0  0
   32.5030   31.9720   34.6960 C   0  0  0  0  0  2  0  0  0  0  0  0
   33.3440   32.5540   35.7210 N   0  0  0  0  0  0  0  0  0  0  0  0
   33.8050   33.1490   36.9520 C   0  0  0  0  0  0  0  0  0  0  0  0
   33.2380   33.8160   37.8770 O   0  0  0  0  0  0  0  0  0  0  0  0
   35.2070   32.6700   36.7040 C   0  0  0  0  0  3  0  0  0  0  0  0
   35.4450   31.6740   37.1340 H   0  0  0  0  0  0  0  0  0  0  0  0
   34.7240   32.6340   35.2780 C   0  0  1  0  0  3  0  0  0  0  0  0
   34.8800   31.0090   34.4770 S   0  0  0  0  0  0  0  0  0  0  0  0
   32.6730   29.5100   35.1620 C   0  0  0  0  0  2  0  0  0  0  0  0
   32.8160   29.7210   36.2230 H   0  0  0  0  0  0  0  0  0  0  0  0
   36.8650   26.7200   33.2250 C   0  0  0  0  0  0  0  0  0  0  0  0
   37.0050   27.6290   34.2140 C   0  0  0  0  0  0  0  0  0  0  0  0
   37.6800   26.9950   35.2580 C   0  0  0  0  0  0  0  0  0  0  0  0
   37.9160   25.6870   34.8160 C   0  0  0  0  0  0  0  0  0  0  0  0
   37.4140   25.5980   33.6210 O   0  0  0  0  0  0  0  0  0  0  0  0
   36.6700   28.6620   34.2300 H   0  0  0  0  0  0  0  0  0  0  0  0
   37.9230   27.4990   36.1770 H   0  0  0  0  0  0  0  0  0  0  0  0
   38.1250   24.3470   36.8980 C   0  0  0  0  0  0  0  0  0  0  0  0
   38.6090   24.7120   35.6480 C   0  0  0  0  0  0  0  0  0  0  0  0
   39.7680   24.1590   35.1460 C   0  0  0  0  0  0  0  0  0  0  0  0
   40.4300   23.2360   35.9230 C   0  0  0  0  0  0  0  0  0  0  0  0
   41.5660   22.5530   35.6770 N   0  0  0  0  0  0  0  0  0  0  0  0
   41.8070   21.7760   36.7310 N   0  0  0  0  0  0  0  0  0  0  0  0
   40.8200   21.9730   37.6370 C   0  0  0  0  0  0  0  0  0  0  0  0
   39.9230   22.8960   37.1600 C   0  0  0  0  0  0  0  0  0  0  0  0
   38.7660   23.4390   37.6760 C   0  0  0  0  0  0  0  0  0  0  0  0
   37.2000   24.8060   37.2670 H   0  0  0  0  0  0  0  0  0  0  0  0
   40.2000   24.4060   34.1680 H   0  0  0  0  0  0  0  0  0  0  0  0
   42.2030   22.5670   34.8460 H   0  0  0  0  0  0  0  0  0  0  0  0
   40.7770   21.4600   38.5880 H   0  0  0  0  0  0  0  0  0  0  0  0
   38.4150   23.1400   38.6440 H   0  0  0  0  0  0  0  0  0  0  0  0
  1 23  1  0  0  0  0
  2  1  2  0  0  0  0
  3  1  1  0  0  0  0
  3  8  1  0  0  0  0
  4  3  2  0  0  0  0
  5  4  1  0  0  0  0
  5  6  2  0  0  0  0
  6  7  1  0  0  0  0
  7  8  2  0  0  0  0
  7 11  1  0  0  0  0
  9  4  1  0  0  0  0
 10  5  1  0  0  0  0
 12 11  1  6  0  0  0
 12 20  1  0  0  0  0
 12 13  1  0  0  0  0
 12 21  1  0  0  0  0
 13 14  1  0  0  0  0
 14 15  1  0  0  0  0
 15 16  2  0  0  0  0
 17 15  1  0  0  0  0
 17 18  1  0  0  0  0
 19 20  1  1  0  0  0
 19 14  1  0  0  0  0
 19 17  1  0  0  0  0
 21 22  1  0  0  0  0
 23 27  1  0  0  0  0
 23 24  2  0  0  0  0
 24 28  1  0  0  0  0
 24 25  1  0  0  0  0
 25 29  1  0  0  0  0
 26 25  2  0  0  0  0
 26 31  1  0  0  0  0
 27 26  1  0  0  0  0
 30 39  1  0  0  0  0
 30 38  1  0  0  0  0
 31 30  2  0  0  0  0
 32 31  1  0  0  0  0
 32 33  2  0  0  0  0
 33 37  1  0  0  0  0
 34 33  1  0  0  0  0
 34 35  1  0  0  0  0
 35 36  2  0  0  0  0
 36 42  1  0  0  0  0
 37 36  1  0  0  0  0
 37 38  2  0  0  0  0
 38 43  1  0  0  0  0
 40 32  1  0  0  0  0
 41 34  1  0  0  0  0
M  END
>  <minimizedAffinity>
-6.74417686

$$$$

 OpenBabel03272507153D

 43 48  0  0  1  0  0  0  0  0999 V2000
   37.9540   27.6200   31.3280 C   0  0  0  0  0  0  0  0  0  0  0  0
   37.9300   28.4190   30.3540 O   0  0  0  0  0  0  0  0  0  0  0  0
   38.6400   26.3540   31.3070 C   0  0  0  0  0  0  0  0  0  0  0  0
   39.9410   26.3240   31.7810 C   0  0  0  0  0  0  0  0  0  0  0  0
   40.6430   25.1220   31.7800 C   0  0  0  0  0  0  0  0  0  0  0  0
   39.9810   24.0280   31.2990 N   0  0  0  0  0  0  0  0  0  0  0  0
   38.7270   24.0680   30.8450 C   0  0  0  0  0  0  0  0  0  0  0  0
   38.0690   25.2390   30.8560 N   0  0  0  0  0  0  0  0  0  0  0  0
   40.4320   27.2180   32.1550 H   0  0  0  0  0  0  0  0  0  0  0  0
   41.6590   25.0210   32.1320 H   0  0  0  0  0  0  0  0  0  0  0  0
   38.0400   22.8670   30.3320 C   0  0  0  0  0  2  0  0  0  0  0  0
   36.9010   22.5340   31.2710 C   0  0  2  0  0  0  0  0  0  0  0  0
   37.4620   22.3480   32.6460 C   0  0  0  0  0  2  0  0  0  0  0  0
   36.6520   21.3510   33.3150 N   0  0  0  0  0  0  0  0  0  0  0  0
   35.8140   20.6730   34.2740 C   0  0  0  0  0  0  0  0  0  0  0  0
   35.6050   20.8160   35.5210 O   0  0  0  0  0  0  0  0  0  0  0  0
   35.2950   19.7390   33.2170 C   0  0  0  0  0  3  0  0  0  0  0  0
   34.3730   20.0820   32.7020 H   0  0  0  0  0  0  0  0  0  0  0  0
   36.5750   20.1320   32.5290 C   0  0  1  0  0  3  0  0  0  0  0  0
   36.3460   20.8510   30.8750 S   0  0  0  0  0  0  0  0  0  0  0  0
   35.7990   23.5330   31.1840 C   0  0  0  0  0  2  0  0  0  0  0  0
   35.0120   23.3250   31.9090 H   0  0  0  0  0  0  0  0  0  0  0  0
   37.2520   27.9840   32.5500 C   0  0  0  0  0  0  0  0  0  0  0  0
   37.3730   27.2740   33.6930 C   0  0  0  0  0  0  0  0  0  0  0  0
   36.5710   27.9010   34.6490 C   0  0  0  0  0  0  0  0  0  0  0  0
   35.9910   28.9950   33.9960 C   0  0  0  0  0  0  0  0  0  0  0  0
   36.4330   28.9820   32.7740 O   0  0  0  0  0  0  0  0  0  0  0  0
   37.9690   26.3840   33.8720 H   0  0  0  0  0  0  0  0  0  0  0  0
   36.4850   27.5350   35.6570 H   0  0  0  0  0  0  0  0  0  0  0  0
   33.7190   29.9170   34.4000 C   0  0  0  0  0  0  0  0  0  0  0  0
   35.0790   29.9000   34.6830 C   0  0  0  0  0  0  0  0  0  0  0  0
   35.6170   30.7420   35.6340 C   0  0  0  0  0  0  0  0  0  0  0  0
   34.7640   31.5990   36.2910 C   0  0  0  0  0  0  0  0  0  0  0  0
   35.0230   32.5110   37.2490 N   0  0  0  0  0  0  0  0  0  0  0  0
   33.8700   33.0970   37.5720 N   0  0  0  0  0  0  0  0  0  0  0  0
   32.8910   32.5490   36.8140 C   0  0  0  0  0  0  0  0  0  0  0  0
   33.4190   31.5910   35.9850 C   0  0  0  0  0  0  0  0  0  0  0  0
   32.8660   30.7570   35.0390 C   0  0  0  0  0  0  0  0  0  0  0  0
   33.3240   29.2340   33.6390 H   0  0  0  0  0  0  0  0  0  0  0  0
   36.6800   30.7760   35.9020 H   0  0  0  0  0  0  0  0  0  0  0  0
   35.9240   32.7770   37.7110 H   0  0  0  0  0  0  0  0  0  0  0  0
   31.8530   32.8480   36.8800 H   0  0  0  0  0  0  0  0  0  0  0  0
   31.8120   30.7900   34.8390 H   0  0  0  0  0  0  0  0  0  0  0  0
  1 23  1  0  0  0  0
  2  1  2  0  0  0  0
  3  1  1  0  0  0  0
  3  4  1  0  0  0  0
  4  9  1  0  0  0  0
  5  4  2  0  0  0  0
  5 10  1  0  0  0  0
  6  5  1  0  0  0  0
  7  8  1  0  0  0  0
  7  6  2  0  0  0  0
  8  3  2  0  0  0  0
 11  7  1  0  0  0  0
 12 11  1  6  0  0  0
 12 13  1  0  0  0  0
 13 14  1  0  0  0  0
 14 15  1  0  0  0  0
 15 16  2  0  0  0  0
 17 15  1  0  0  0  0
 18 17  1  0  0  0  0
 19 20  1  6  0  0  0
 19 17  1  0  0  0  0
 19 14  1  0  0  0  0
 20 12  1  0  0  0  0
 21 12  1  0  0  0  0
 21 22  1  0  0  0  0
 23 27  1  0  0  0  0
 23 24  2  0  0  0  0
 24 28  1  0  0  0  0
 24 25  1  0  0  0  0
 25 29  1  0  0  0  0
 26 25  2  0  0  0  0
 26 31  1  0  0  0  0
 27 26  1  0  0  0  0
 30 31  2  0  0  0  0
 30 38  1  0  0  0  0
 31 32  1  0  0  0  0
 32 40  1  0  0  0  0
 32 33  2  0  0  0  0
 33 34  1  0  0  0  0
 34 35  1  0  0  0  0
 34 41  1  0  0  0  0
 36 42  1  0  0  0  0
 36 35  2  0  0  0  0
 37 33  1  0  0  0  0
 37 36  1  0  0  0  0
 38 37  2  0  0  0  0
 39 30  1  0  0  0  0
 43 38  1  0  0  0  0
M  END
>  <minimizedAffinity>
-6.70112562

$$$$

 OpenBabel03272507153D

 43 48  0  0  1  0  0  0  0  0999 V2000
   37.3340   27.6610   30.9580 C   0  0  0  0  0  0  0  0  0  0  0  0
   36.7350   28.1190   29.9490 O   0  0  0  0  0  0  0  0  0  0  0  0
   38.4590   26.7670   30.8830 C   0  0  0  0  0  0  0  0  0  0  0  0
   39.5540   27.1770   30.1400 C   0  0  0  0  0  0  0  0  0  0  0  0
   40.6650   26.3460   30.0390 C   0  0  0  0  0  0  0  0  0  0  0  0
   40.5960   25.1500   30.6980 N   0  0  0  0  0  0  0  0  0  0  0  0
   39.5360   24.7650   31.4110 C   0  0  0  0  0  0  0  0  0  0  0  0
   38.4760   25.5840   31.4940 N   0  0  0  0  0  0  0  0  0  0  0  0
   39.5690   28.1370   29.6300 H   0  0  0  0  0  0  0  0  0  0  0  0
   41.5540   26.5960   29.4780 H   0  0  0  0  0  0  0  0  0  0  0  0
   39.4930   23.4660   32.1120 C   0  0  0  0  0  2  0  0  0  0  0  0
   39.8860   23.6930   33.5550 C   0  0  2  0  0  0  0  0  0  0  0  0
   40.4560   22.4190   34.0960 C   0  0  0  0  0  2  0  0  0  0  0  0
   40.1170   22.3530   35.5020 N   0  0  0  0  0  0  0  0  0  0  0  0
   40.2070   22.2360   36.9370 C   0  0  0  0  0  0  0  0  0  0  0  0
   41.0590   21.7200   37.7300 O   0  0  0  0  0  0  0  0  0  0  0  0
   38.9030   22.9610   37.1160 C   0  0  0  0  0  3  0  0  0  0  0  0
   38.9910   24.0620   37.2320 H   0  0  0  0  0  0  0  0  0  0  0  0
   38.6860   22.5000   35.6990 C   0  0  1  0  0  3  0  0  0  0  0  0
   38.3530   23.8410   34.5180 S   0  0  0  0  0  0  0  0  0  0  0  0
   40.7730   24.8800   33.7100 C   0  0  0  0  0  2  0  0  0  0  0  0
   41.1060   24.9990   34.7410 H   0  0  0  0  0  0  0  0  0  0  0  0
   36.8720   28.0490   32.2830 C   0  0  0  0  0  0  0  0  0  0  0  0
   37.3360   27.4690   33.4110 C   0  0  0  0  0  0  0  0  0  0  0  0
   36.6830   28.0800   34.4830 C   0  0  0  0  0  0  0  0  0  0  0  0
   35.8290   29.0310   33.9110 C   0  0  0  0  0  0  0  0  0  0  0  0
   35.9920   28.9580   32.6250 O   0  0  0  0  0  0  0  0  0  0  0  0
   38.0730   26.6770   33.5050 H   0  0  0  0  0  0  0  0  0  0  0  0
   36.8690   27.8010   35.5050 H   0  0  0  0  0  0  0  0  0  0  0  0
   33.5910   29.7340   34.7330 C   0  0  0  0  0  0  0  0  0  0  0  0
   34.9730   29.8790   34.7300 C   0  0  0  0  0  0  0  0  0  0  0  0
   35.5870   30.8360   35.5110 C   0  0  0  0  0  0  0  0  0  0  0  0
   34.7880   31.6410   36.2900 C   0  0  0  0  0  0  0  0  0  0  0  0
   35.1240   32.6390   37.1320 N   0  0  0  0  0  0  0  0  0  0  0  0
   33.9990   33.1200   37.6590 N   0  0  0  0  0  0  0  0  0  0  0  0
   32.9580   32.4220   37.1440 C   0  0  0  0  0  0  0  0  0  0  0  0
   33.4190   31.4710   36.2680 C   0  0  0  0  0  0  0  0  0  0  0  0
   32.7900   30.5200   35.4950 C   0  0  0  0  0  0  0  0  0  0  0  0
   33.1350   28.9620   34.1010 H   0  0  0  0  0  0  0  0  0  0  0  0
   36.6710   31.0000   35.5530 H   0  0  0  0  0  0  0  0  0  0  0  0
   36.0620   33.0290   37.3860 H   0  0  0  0  0  0  0  0  0  0  0  0
   31.9270   32.6130   37.4090 H   0  0  0  0  0  0  0  0  0  0  0  0
   31.7210   30.4280   35.5150 H   0  0  0  0  0  0  0  0  0  0  0  0
  1 23  1  0  0  0  0
  2  1  2  0  0  0  0
  3  1  1  0  0  0  0
  3  8  1  0  0  0  0
  4  3  2  0  0  0  0
  5  4  1  0  0  0  0
  5  6  2  0  0  0  0
  6  7  1  0  0  0  0
  7  8  2  0  0  0  0
  7 11  1  0  0  0  0
  9  4  1  0  0  0  0
 10  5  1  0  0  0  0
 12 11  1  6  0  0  0
 12 21  1  0  0  0  0
 12 13  1  0  0  0  0
 12 20  1  0  0  0  0
 13 14  1  0  0  0  0
 14 19  1  0  0  0  0
 14 15  1  0  0  0  0
 15 17  1  0  0  0  0
 15 16  2  0  0  0  0
 17 18  1  0  0  0  0
 19 20  1  6  0  0  0
 19 17  1  0  0  0  0
 21 22  1  0  0  0  0
 23 27  1  0  0  0  0
 23 24  2  0  0  0  0
 24 28  1  0  0  0  0
 24 25  1  0  0  0  0
 25 29  1  0  0  0  0
 26 25  2  0  0  0  0
 26 31  1  0  0  0  0
 27 26  1  0  0  0  0
 30 38  1  0  0  0  0
 31 30  2  0  0  0  0
 31 32  1  0  0  0  0
 32 40  1  0  0  0  0
 32 33  2  0  0  0  0
 33 34  1  0  0  0  0
 34 41  1  0  0  0  0
 34 35  1  0  0  0  0
 36 42  1  0  0  0  0
 36 35  2  0  0  0  0
 37 33  1  0  0  0  0
 37 36  1  0  0  0  0
 38 43  1  0  0  0  0
 38 37  2  0  0  0  0
 39 30  1  0  0  0  0
M  END
>  <minimizedAffinity>
-6.49975491

$$$$

 OpenBabel03272507153D

 43 48  0  0  1  0  0  0  0  0999 V2000
   36.3380   26.9890   31.4540 C   0  0  0  0  0  0  0  0  0  0  0  0
   35.4870   26.3370   30.7920 O   0  0  0  0  0  0  0  0  0  0  0  0
   37.5520   26.4200   31.9760 C   0  0  0  0  0  0  0  0  0  0  0  0
   38.5810   27.2900   32.2950 C   0  0  0  0  0  0  0  0  0  0  0  0
   39.7740   26.7840   32.8040 C   0  0  0  0  0  0  0  0  0  0  0  0
   39.8470   25.4280   32.9570 N   0  0  0  0  0  0  0  0  0  0  0  0
   38.8490   24.5990   32.6460 C   0  0  0  0  0  0  0  0  0  0  0  0
   37.7080   25.1100   32.1570 N   0  0  0  0  0  0  0  0  0  0  0  0
   38.4830   28.3640   32.1590 H   0  0  0  0  0  0  0  0  0  0  0  0
   40.6190   27.3990   33.0750 H   0  0  0  0  0  0  0  0  0  0  0  0
   38.9600   23.1370   32.8230 C   0  0  0  0  0  2  0  0  0  0  0  0
   38.5320   22.7960   34.2330 C   0  0  2  0  0  0  0  0  0  0  0  0
   38.2120   24.0700   34.9510 C   0  0  0  0  0  2  0  0  0  0  0  0
   38.5570   23.8820   36.3440 N   0  0  0  0  0  0  0  0  0  0  0  0
   38.4920   23.8200   37.7840 C   0  0  0  0  0  0  0  0  0  0  0  0
   37.7530   24.3750   38.6600 O   0  0  0  0  0  0  0  0  0  0  0  0
   39.6370   22.8480   37.8320 C   0  0  0  0  0  3  0  0  0  0  0  0
   39.3430   21.7770   37.8050 H   0  0  0  0  0  0  0  0  0  0  0  0
   39.9360   23.4460   36.4840 C   0  0  1  0  0  3  0  0  0  0  0  0
   40.0100   22.2370   35.1280 S   0  0  0  0  0  0  0  0  0  0  0  0
   37.4380   21.7850   34.2530 C   0  0  0  0  0  2  0  0  0  0  0  0
   37.0890   21.5930   35.2670 H   0  0  0  0  0  0  0  0  0  0  0  0
   36.0920   28.4010   31.7130 C   0  0  0  0  0  0  0  0  0  0  0  0
   36.2710   29.3520   30.7720 C   0  0  0  0  0  0  0  0  0  0  0  0
   35.9450   30.5750   31.3600 C   0  0  0  0  0  0  0  0  0  0  0  0
   35.5740   30.2740   32.6760 C   0  0  0  0  0  0  0  0  0  0  0  0
   35.6840   28.9860   32.8130 O   0  0  0  0  0  0  0  0  0  0  0  0
   36.6020   29.2270   29.7450 H   0  0  0  0  0  0  0  0  0  0  0  0
   36.0020   31.5060   30.8230 H   0  0  0  0  0  0  0  0  0  0  0  0
   34.6100   32.5100   33.1730 C   0  0  0  0  0  0  0  0  0  0  0  0
   35.1630   31.3130   33.6110 C   0  0  0  0  0  0  0  0  0  0  0  0
   35.3390   31.0630   34.9560 C   0  0  0  0  0  0  0  0  0  0  0  0
   34.9530   32.0360   35.8480 C   0  0  0  0  0  0  0  0  0  0  0  0
   35.0120   32.0500   37.1950 N   0  0  0  0  0  0  0  0  0  0  0  0
   34.5170   33.2150   37.6100 N   0  0  0  0  0  0  0  0  0  0  0  0
   34.1480   33.9300   36.5210 C   0  0  0  0  0  0  0  0  0  0  0  0
   34.4090   33.2140   35.3790 C   0  0  0  0  0  0  0  0  0  0  0  0
   34.2250   33.4800   34.0400 C   0  0  0  0  0  0  0  0  0  0  0  0
   34.4840   32.6760   32.0970 H   0  0  0  0  0  0  0  0  0  0  0  0
   35.7690   30.1390   35.3640 H   0  0  0  0  0  0  0  0  0  0  0  0
   35.3640   31.3290   37.8680 H   0  0  0  0  0  0  0  0  0  0  0  0
   33.7120   34.9180   36.5810 H   0  0  0  0  0  0  0  0  0  0  0  0
   33.7970   34.4120   33.7280 H   0  0  0  0  0  0  0  0  0  0  0  0
  1 23  1  0  0  0  0
  1  3  1  0  0  0  0
  2  1  2  0  0  0  0
  3  8  2  0  0  0  0
  3  4  1  0  0  0  0
  4  5  2  0  0  0  0
  5  6  1  0  0  0  0
  5 10  1  0  0  0  0
  7 11  1  0  0  0  0
  7  6  2  0  0  0  0
  8  7  1  0  0  0  0
  9  4  1  0  0  0  0
 12 11  1  6  0  0  0
 12 21  1  0  0  0  0
 12 13  1  0  0  0  0
 12 20  1  0  0  0  0
 13 14  1  0  0  0  0
 14 19  1  0  0  0  0
 14 15  1  0  0  0  0
 15 17  1  0  0  0  0
 15 16  2  0  0  0  0
 18 17  1  0  0  0  0
 19 20  1  6  0  0  0
 19 17  1  0  0  0  0
 21 22  1  0  0  0  0
 23 27  1  0  0  0  0
 24 25  1  0  0  0  0
 24 23  2  0  0  0  0
 25 26  2  0  0  0  0
 26 27  1  0  0  0  0
 26 31  1  0  0  0  0
 28 24  1  0  0  0  0
 29 25  1  0  0  0  0
 30 31  2  0  0  0  0
 30 38  1  0  0  0  0
 31 32  1  0  0  0  0
 32 40  1  0  0  0  0
 32 33  2  0  0  0  0
 33 34  1  0  0  0  0
 34 35  1  0  0  0  0
 34 41  1  0  0  0  0
 36 42  1  0  0  0  0
 36 35  2  0  0  0  0
 37 33  1  0  0  0  0
 37 36  1  0  0  0  0
 38 37  2  0  0  0  0
 39 30  1  0  0  0  0
 43 38  1  0  0  0  0
M  END
>  <minimizedAffinity>
-6.4940958

$$$$

 OpenBabel03272507153D

 43 48  0  0  1  0  0  0  0  0999 V2000
   36.8710   27.1830   32.1060 C   0  0  0  0  0  0  0  0  0  0  0  0
   36.7300   28.1580   31.3200 O   0  0  0  0  0  0  0  0  0  0  0  0
   37.6010   27.2540   33.3450 C   0  0  0  0  0  0  0  0  0  0  0  0
   36.9690   27.8440   34.4270 C   0  0  0  0  0  0  0  0  0  0  0  0
   37.6370   27.9340   35.6450 C   0  0  0  0  0  0  0  0  0  0  0  0
   38.9030   27.4210   35.6880 N   0  0  0  0  0  0  0  0  0  0  0  0
   39.5020   26.8550   34.6390 C   0  0  0  0  0  0  0  0  0  0  0  0
   38.8380   26.7780   33.4740 N   0  0  0  0  0  0  0  0  0  0  0  0
   35.9600   28.2400   34.3510 H   0  0  0  0  0  0  0  0  0  0  0  0
   37.2100   28.3800   36.5320 H   0  0  0  0  0  0  0  0  0  0  0  0
   40.8710   26.3090   34.7180 C   0  0  0  0  0  2  0  0  0  0  0  0
   40.7780   24.8010   34.7900 C   0  0  2  0  0  0  0  0  0  0  0  0
   40.3590   24.2880   33.4470 C   0  0  0  0  0  2  0  0  0  0  0  0
   39.5590   23.1010   33.6650 N   0  0  0  0  0  0  0  0  0  0  0  0
   39.0540   21.7510   33.6110 C   0  0  0  0  0  0  0  0  0  0  0  0
   39.1590   20.8010   32.7690 O   0  0  0  0  0  0  0  0  0  0  0  0
   38.3600   21.9170   34.9340 C   0  0  0  0  0  3  0  0  0  0  0  0
   38.9630   21.6220   35.8190 H   0  0  0  0  0  0  0  0  0  0  0  0
   38.4590   23.3750   34.5720 C   0  0  1  0  0  3  0  0  0  0  0  0
   39.3260   24.3950   35.8020 S   0  0  0  0  0  0  0  0  0  0  0  0
   42.0300   24.1910   35.3190 C   0  0  0  0  0  2  0  0  0  0  0  0
   41.9800   23.1010   35.3070 H   0  0  0  0  0  0  0  0  0  0  0  0
   36.2670   25.9070   31.7550 C   0  0  0  0  0  0  0  0  0  0  0  0
   35.1670   25.8160   30.9760 C   0  0  0  0  0  0  0  0  0  0  0  0
   34.8680   24.4580   30.8470 C   0  0  0  0  0  0  0  0  0  0  0  0
   35.8480   23.7850   31.5880 C   0  0  0  0  0  0  0  0  0  0  0  0
   36.6300   24.6930   32.0900 O   0  0  0  0  0  0  0  0  0  0  0  0
   34.5980   26.6210   30.5200 H   0  0  0  0  0  0  0  0  0  0  0  0
   34.0300   24.1050   30.2720 H   0  0  0  0  0  0  0  0  0  0  0  0
   35.3400   21.6720   32.7950 C   0  0  0  0  0  0  0  0  0  0  0  0
   35.8640   22.3320   31.6890 C   0  0  0  0  0  0  0  0  0  0  0  0
   36.4200   21.6290   30.6410 C   0  0  0  0  0  0  0  0  0  0  0  0
   36.4400   20.2560   30.7250 C   0  0  0  0  0  0  0  0  0  0  0  0
   36.9150   19.3410   29.8560 N   0  0  0  0  0  0  0  0  0  0  0  0
   36.7060   18.1360   30.3820 N   0  0  0  0  0  0  0  0  0  0  0  0
   36.0990   18.2970   31.5810 C   0  0  0  0  0  0  0  0  0  0  0  0
   35.9110   19.6320   31.8370 C   0  0  0  0  0  0  0  0  0  0  0  0
   35.3520   20.3190   32.8920 C   0  0  0  0  0  0  0  0  0  0  0  0
   34.9050   22.2620   33.6100 H   0  0  0  0  0  0  0  0  0  0  0  0
   36.8490   22.0900   29.7430 H   0  0  0  0  0  0  0  0  0  0  0  0
   37.3760   19.4640   28.9230 H   0  0  0  0  0  0  0  0  0  0  0  0
   35.8160   17.4700   32.2180 H   0  0  0  0  0  0  0  0  0  0  0  0
   34.9550   19.7860   33.7340 H   0  0  0  0  0  0  0  0  0  0  0  0
  1  3  1  0  0  0  0
  2  1  2  0  0  0  0
  3  8  2  0  0  0  0
  3  4  1  0  0  0  0
  4  5  2  0  0  0  0
  5  6  1  0  0  0  0
  5 10  1  0  0  0  0
  7 11  1  0  0  0  0
  7  6  2  0  0  0  0
  8  7  1  0  0  0  0
  9  4  1  0  0  0  0
 12 11  1  6  0  0  0
 12 21  1  0  0  0  0
 12 20  1  0  0  0  0
 13 14  1  0  0  0  0
 13 12  1  0  0  0  0
 14 19  1  0  0  0  0
 15 14  1  0  0  0  0
 15 17  1  0  0  0  0
 16 15  2  0  0  0  0
 17 18  1  0  0  0  0
 19 17  1  1  0  0  0
 19 20  1  0  0  0  0
 22 21  1  0  0  0  0
 23 27  1  0  0  0  0
 23  1  1  0  0  0  0
 24 23  2  0  0  0  0
 25 24  1  0  0  0  0
 25 26  2  0  0  0  0
 26 31  1  0  0  0  0
 26 27  1  0  0  0  0
 28 24  1  0  0  0  0
 29 25  1  0  0  0  0
 30 38  1  0  0  0  0
 30 39  1  0  0  0  0
 31 30  2  0  0  0  0
 32 33  2  0  0  0  0
 32 31  1  0  0  0  0
 33 37  1  0  0  0  0
 34 35  1  0  0  0  0
 34 33  1  0  0  0  0
 35 36  2  0  0  0  0
 36 37  1  0  0  0  0
 36 42  1  0  0  0  0
 37 38  2  0  0  0  0
 38 43  1  0  0  0  0
 40 32  1  0  0  0  0
 41 34  1  0  0  0  0
M  END
>  <minimizedAffinity>
-6.45923185

$$$$

 OpenBabel03272507153D

 43 48  0  0  1  0  0  0  0  0999 V2000
   37.3460   29.1990   29.8440 C   0  0  0  0  0  0  0  0  0  0  0  0
   37.5660   29.0240   28.6150 O   0  0  0  0  0  0  0  0  0  0  0  0
   36.5470   30.2750   30.3680 C   0  0  0  0  0  0  0  0  0  0  0  0
   37.0490   31.5610   30.2520 C   0  0  0  0  0  0  0  0  0  0  0  0
   36.3100   32.6330   30.7440 C   0  0  0  0  0  0  0  0  0  0  0  0
   35.1090   32.3330   31.3230 N   0  0  0  0  0  0  0  0  0  0  0  0
   34.6350   31.0900   31.4290 C   0  0  0  0  0  0  0  0  0  0  0  0
   35.3650   30.0720   30.9470 N   0  0  0  0  0  0  0  0  0  0  0  0
   38.0110   31.7570   29.7840 H   0  0  0  0  0  0  0  0  0  0  0  0
   36.6360   33.6610   30.6910 H   0  0  0  0  0  0  0  0  0  0  0  0
   33.3320   30.8000   32.0610 C   0  0  0  0  0  2  0  0  0  0  0  0
   33.5560   30.6070   33.5440 C   0  0  2  0  0  0  0  0  0  0  0  0
   32.5410   29.6330   34.0540 C   0  0  0  0  0  2  0  0  0  0  0  0
   32.2270   30.0060   35.4170 N   0  0  0  0  0  0  0  0  0  0  0  0
   32.0220   29.9650   36.8450 C   0  0  0  0  0  0  0  0  0  0  0  0
   31.7880   29.0300   37.6770 O   0  0  0  0  0  0  0  0  0  0  0  0
   32.1930   31.4540   36.9510 C   0  0  0  0  0  3  0  0  0  0  0  0
   33.2330   31.7930   37.1420 H   0  0  0  0  0  0  0  0  0  0  0  0
   31.8150   31.3960   35.4950 C   0  0  1  0  0  3  0  0  0  0  0  0
   33.0390   32.1380   34.3740 S   0  0  0  0  0  0  0  0  0  0  0  0
   34.9690   30.2430   33.8500 C   0  0  0  0  0  2  0  0  0  0  0  0
   35.1080   30.0410   34.9130 H   0  0  0  0  0  0  0  0  0  0  0  0
   37.9290   28.2680   30.7990 C   0  0  0  0  0  0  0  0  0  0  0  0
   39.0190   27.5240   30.5120 C   0  0  0  0  0  0  0  0  0  0  0  0
   39.2970   26.7550   31.6430 C   0  0  0  0  0  0  0  0  0  0  0  0
   38.3160   27.0970   32.5830 C   0  0  0  0  0  0  0  0  0  0  0  0
   37.5520   27.9850   32.0220 O   0  0  0  0  0  0  0  0  0  0  0  0
   39.5940   27.5010   29.5910 H   0  0  0  0  0  0  0  0  0  0  0  0
   40.1230   26.0660   31.6830 H   0  0  0  0  0  0  0  0  0  0  0  0
   38.3390   27.2580   35.0630 C   0  0  0  0  0  0  0  0  0  0  0  0
   38.2810   26.4890   33.9060 C   0  0  0  0  0  0  0  0  0  0  0  0
   38.1850   25.1150   33.9720 C   0  0  0  0  0  0  0  0  0  0  0  0
   38.1490   24.5300   35.2170 C   0  0  0  0  0  0  0  0  0  0  0  0
   38.0600   23.2300   35.5610 N   0  0  0  0  0  0  0  0  0  0  0  0
   38.0600   23.1620   36.8910 N   0  0  0  0  0  0  0  0  0  0  0  0
   38.1500   24.4220   37.3790 C   0  0  0  0  0  0  0  0  0  0  0  0
   38.2100   25.3230   36.3450 C   0  0  0  0  0  0  0  0  0  0  0  0
   38.3050   26.6960   36.2970 C   0  0  0  0  0  0  0  0  0  0  0  0
   38.4140   28.3480   34.9750 H   0  0  0  0  0  0  0  0  0  0  0  0
   38.1360   24.4540   33.0970 H   0  0  0  0  0  0  0  0  0  0  0  0
   37.9970   22.3710   34.9650 H   0  0  0  0  0  0  0  0  0  0  0  0
   38.1700   24.6480   38.4360 H   0  0  0  0  0  0  0  0  0  0  0  0
   38.3480   27.2660   37.2050 H   0  0  0  0  0  0  0  0  0  0  0  0
  1  3  1  0  0  0  0
  1 23  1  0  0  0  0
  2  1  2  0  0  0  0
  3  8  1  0  0  0  0
  4  3  2  0  0  0  0
  4  5  1  0  0  0  0
  5  6  2  0  0  0  0
  6  7  1  0  0  0  0
  7 11  1  0  0  0  0
  8  7  2  0  0  0  0
  9  4  1  0  0  0  0
 10  5  1  0  0  0  0
 12 11  1  6  0  0  0
 12 21  1  0  0  0  0
 12 13  1  0  0  0  0
 12 20  1  0  0  0  0
 13 14  1  0  0  0  0
 14 19  1  0  0  0  0
 14 15  1  0  0  0  0
 15 17  1  0  0  0  0
 15 16  2  0  0  0  0
 17 18  1  0  0  0  0
 19 20  1  6  0  0  0
 19 17  1  0  0  0  0
 21 22  1  0  0  0  0
 23 27  1  0  0  0  0
 24 23  2  0  0  0  0
 24 25  1  0  0  0  0
 25 29  1  0  0  0  0
 25 26  2  0  0  0  0
 26 31  1  0  0  0  0
 27 26  1  0  0  0  0
 28 24  1  0  0  0  0
 30 38  1  0  0  0  0
 31 32  1  0  0  0  0
 31 30  2  0  0  0  0
 32 33  2  0  0  0  0
 33 34  1  0  0  0  0
 33 37  1  0  0  0  0
 34 35  1  0  0  0  0
 35 36  2  0  0  0  0
 36 42  1  0  0  0  0
 37 36  1  0  0  0  0
 38 37  2  0  0  0  0
 38 43  1  0  0  0  0
 39 30  1  0  0  0  0
 40 32  1  0  0  0  0
 41 34  1  0  0  0  0
M  END
>  <minimizedAffinity>
-6.43398285

$$$$
