
 OpenBabel03272500233D

 40 44  0  0  1  0  0  0  0  0999 V2000
   37.4820   27.1620   34.7990 C   0  0  0  0  0  0  0  0  0  0  0  0
   37.2940   27.0930   33.3880 C   0  0  0  0  0  0  0  0  0  0  0  0
   37.9010   26.0590   32.6720 C   0  0  0  0  0  0  0  0  0  0  0  0
   38.6450   25.1710   33.4000 N   0  0  0  0  0  0  0  0  0  0  0  0
   38.8160   25.2370   34.6920 C   0  0  0  0  0  0  0  0  0  0  0  0
   38.2450   26.2220   35.4110 N   0  0  0  0  0  0  0  0  0  0  0  0
   37.0190   27.9560   35.3700 H   0  0  0  0  0  0  0  0  0  0  0  0
   41.8080   25.7170   34.6340 Cl  0  0  0  0  0  0  0  0  0  0  0  0
   41.0290   24.3300   35.3960 C   0  0  0  0  0  0  0  0  0  0  0  0
   39.6460   24.2150   35.3600 C   0  0  0  0  0  0  0  0  0  0  0  0
   38.9720   23.1340   35.9490 C   0  0  0  0  0  0  0  0  0  0  0  0
   39.7830   22.1860   36.5710 C   0  0  0  0  0  0  0  0  0  0  0  0
   41.1490   22.2800   36.6180 C   0  0  0  0  0  0  0  0  0  0  0  0
   42.0380   21.0150   37.4330 Cl  0  0  0  0  0  0  0  0  0  0  0  0
   41.7740   23.3670   36.0220 C   0  0  0  0  0  0  0  0  0  0  0  0
   37.8930   23.0500   35.9190 H   0  0  0  0  0  0  0  0  0  0  0  0
   39.2770   21.3480   37.0300 H   0  0  0  0  0  0  0  0  0  0  0  0
   43.2490   23.4870   36.0610 C   0  0  0  0  0  0  0  0  0  0  0  0
   43.7490   23.6610   34.7600 F   0  0  0  0  0  0  0  0  0  0  0  0
   43.8380   22.4120   36.6440 F   0  0  0  0  0  0  0  0  0  0  0  0
   43.6050   24.6120   36.7670 F   0  0  0  0  0  0  0  0  0  0  0  0
   36.4480   28.1450   32.7390 C   0  0  0  0  0  0  0  0  0  0  0  0
   35.2670   27.6040   32.2460 F   0  0  0  0  0  0  0  0  0  0  0  0
   36.1000   29.0610   33.7150 F   0  0  0  0  0  0  0  0  0  0  0  0
   37.1040   28.8240   31.7440 F   0  0  0  0  0  0  0  0  0  0  0  0
   37.7120   25.9740   31.2280 C   0  0  0  0  0  0  0  0  0  0  0  0
   36.9140   26.7020   30.9470 H   0  0  0  0  0  0  0  0  0  0  0  0
   38.6380   26.1340   30.6350 H   0  0  0  0  0  0  0  0  0  0  0  0
   36.7760   21.0960   32.3430 C   0  0  0  0  0  0  0  0  0  0  0  0
   35.8060   21.7390   31.4420 C   0  0  0  0  0  2  0  0  0  0  0  0
   35.9870   23.1290   31.3540 N   0  0  2  0  0  0  0  0  0  0  0  0
   35.7610   24.4850   31.0010 C   0  0  2  0  0  0  0  0  0  0  0  0
   34.6770   25.1490   30.8910 O   0  0  0  0  0  1  0  0  0  0  0  0
   37.2680   24.5720   30.8810 C   0  0  2  0  0  3  0  0  0  0  0  0
   37.1540   23.6640   32.0410 C   0  0  2  0  0  0  0  0  0  0  0  0
   38.2270   22.2090   32.1060 S   0  0  0  0  0  0  0  0  0  0  0  0
   37.1340   19.6860   31.9520 C   0  0  0  0  0  2  0  0  0  0  0  0
   37.2790   19.6830   30.8580 H   0  0  0  0  0  0  0  0  0  0  0  0
   36.2930   21.2240   33.7690 C   0  0  0  0  0  2  0  0  0  0  0  0
   36.4550   22.3030   34.0540 H   0  0  0  0  0  0  0  0  0  0  0  0
  1  7  1  0  0  0  0
  1  6  1  0  0  0  0
  2  1  2  0  0  0  0
  3  2  1  0  0  0  0
  3  4  2  0  0  0  0
  4  5  1  0  0  0  0
  5 10  1  0  0  0  0
  5  6  2  0  0  0  0
  8  9  1  0  0  0  0
  9 15  1  0  0  0  0
 10  9  2  0  0  0  0
 10 11  1  0  0  0  0
 11 12  2  0  0  0  0
 12 13  1  0  0  0  0
 12 17  1  0  0  0  0
 13 14  1  0  0  0  0
 15 18  1  0  0  0  0
 15 13  2  0  0  0  0
 16 11  1  0  0  0  0
 18 20  1  0  0  0  0
 18 21  1  0  0  0  0
 19 18  1  0  0  0  0
 22  2  1  0  0  0  0
 22 24  1  0  0  0  0
 23 22  1  0  0  0  0
 25 22  1  0  0  0  0
 26  3  1  0  0  0  0
 27 26  1  0  0  0  0
 28 26  1  0  0  0  0
 29 39  1  0  0  0  0
 30 29  1  0  0  0  0
 31 30  1  6  0  0  0
 31 35  1  0  0  0  0
 32 33  1  1  0  0  0
 32 31  1  0  0  0  0
 32 35  1  0  0  0  0
 34 32  1  0  0  0  0
 34 26  1  1  0  0  0
 34 35  1  0  0  0  0
 35 36  1  1  0  0  0
 36 29  1  0  0  0  0
 37 29  1  0  0  0  0
 38 37  1  0  0  0  0
 39 40  1  0  0  0  0
M  END
>  <minimizedAffinity>
-6.90544415

$$$$

 OpenBabel03272500233D

 40 44  0  0  1  0  0  0  0  0999 V2000
   36.4770   29.3660   30.9550 C   0  0  0  0  0  0  0  0  0  0  0  0
   37.3950   28.4010   31.4610 C   0  0  0  0  0  0  0  0  0  0  0  0
   37.1920   27.8740   32.7390 C   0  0  0  0  0  0  0  0  0  0  0  0
   36.1000   28.3380   33.4190 N   0  0  0  0  0  0  0  0  0  0  0  0
   35.2600   29.2220   32.9540 C   0  0  0  0  0  0  0  0  0  0  0  0
   35.4290   29.7490   31.7270 N   0  0  0  0  0  0  0  0  0  0  0  0
   36.6190   29.7840   29.9670 H   0  0  0  0  0  0  0  0  0  0  0  0
   35.9510   30.8690   35.4030 Cl  0  0  0  0  0  0  0  0  0  0  0  0
   34.3160   30.3980   34.9390 C   0  0  0  0  0  0  0  0  0  0  0  0
   34.1190   29.6410   33.7920 C   0  0  0  0  0  0  0  0  0  0  0  0
   32.8420   29.2380   33.3740 C   0  0  0  0  0  0  0  0  0  0  0  0
   31.7860   29.6480   34.1860 C   0  0  0  0  0  0  0  0  0  0  0  0
   31.9560   30.3950   35.3210 C   0  0  0  0  0  0  0  0  0  0  0  0
   30.5390   30.8370   36.2430 Cl  0  0  0  0  0  0  0  0  0  0  0  0
   33.2390   30.7720   35.6980 C   0  0  0  0  0  0  0  0  0  0  0  0
   32.6950   28.6480   32.4780 H   0  0  0  0  0  0  0  0  0  0  0  0
   30.7950   29.3440   33.8760 H   0  0  0  0  0  0  0  0  0  0  0  0
   33.4450   31.5790   36.9220 C   0  0  0  0  0  0  0  0  0  0  0  0
   32.8350   32.8350   36.7750 F   0  0  0  0  0  0  0  0  0  0  0  0
   34.7610   31.7360   37.2190 F   0  0  0  0  0  0  0  0  0  0  0  0
   32.8290   30.9700   37.9890 F   0  0  0  0  0  0  0  0  0  0  0  0
   38.5440   27.9970   30.5880 C   0  0  0  0  0  0  0  0  0  0  0  0
   38.2940   26.7810   29.9630 F   0  0  0  0  0  0  0  0  0  0  0  0
   38.6650   28.9500   29.5920 F   0  0  0  0  0  0  0  0  0  0  0  0
   39.7380   27.9430   31.2610 F   0  0  0  0  0  0  0  0  0  0  0  0
   38.1220   26.8810   33.2650 C   0  0  0  0  0  0  0  0  0  0  0  0
   38.9730   26.7990   32.5490 H   0  0  0  0  0  0  0  0  0  0  0  0
   38.4750   27.0890   34.2980 H   0  0  0  0  0  0  0  0  0  0  0  0
   36.7480   22.3180   31.4740 C   0  0  0  0  0  0  0  0  0  0  0  0
   37.0710   22.3670   32.9090 C   0  0  0  0  0  2  0  0  0  0  0  0
   37.6560   23.5850   33.2920 N   0  0  2  0  0  0  0  0  0  0  0  0
   38.2860   24.5680   34.0990 C   0  0  2  0  0  0  0  0  0  0  0  0
   39.1830   24.4590   35.0000 O   0  0  0  0  0  1  0  0  0  0  0  0
   37.4060   25.5540   33.3600 C   0  0  2  0  0  3  0  0  0  0  0  0
   37.7150   24.6140   32.2640 C   0  0  2  0  0  0  0  0  0  0  0  0
   36.3730   24.0970   31.1660 S   0  0  0  0  0  0  0  0  0  0  0  0
   35.5460   21.4700   31.1460 C   0  0  0  0  0  2  0  0  0  0  0  0
   34.7740   21.7010   31.9000 H   0  0  0  0  0  0  0  0  0  0  0  0
   37.9860   21.9400   30.6960 C   0  0  0  0  0  2  0  0  0  0  0  0
   38.6500   22.8510   30.7100 H   0  0  0  0  0  0  0  0  0  0  0  0
  1  2  2  0  0  0  0
  1  6  1  0  0  0  0
  2  3  1  0  0  0  0
  3 26  1  0  0  0  0
  3  4  2  0  0  0  0
  5  4  1  0  0  0  0
  5 10  1  0  0  0  0
  6  5  2  0  0  0  0
  7  1  1  0  0  0  0
  9  8  1  0  0  0  0
  9 15  1  0  0  0  0
 10  9  2  0  0  0  0
 11 10  1  0  0  0  0
 11 12  2  0  0  0  0
 12 13  1  0  0  0  0
 13 15  2  0  0  0  0
 13 14  1  0  0  0  0
 15 18  1  0  0  0  0
 16 11  1  0  0  0  0
 17 12  1  0  0  0  0
 18 20  1  0  0  0  0
 18 21  1  0  0  0  0
 19 18  1  0  0  0  0
 22 25  1  0  0  0  0
 22  2  1  0  0  0  0
 23 22  1  0  0  0  0
 24 22  1  0  0  0  0
 26 28  1  0  0  0  0
 27 26  1  0  0  0  0
 29 30  1  0  0  0  0
 31 30  1  1  0  0  0
 31 32  1  0  0  0  0
 32 33  1  1  0  0  0
 34 26  1  6  0  0  0
 34 32  1  0  0  0  0
 35 36  1  6  0  0  0
 35 31  1  0  0  0  0
 35 34  1  0  0  0  0
 35 32  1  0  0  0  0
 36 29  1  0  0  0  0
 37 29  1  0  0  0  0
 37 38  1  0  0  0  0
 39 40  1  0  0  0  0
 39 29  1  0  0  0  0
M  END
>  <minimizedAffinity>
-6.85551834

$$$$

 OpenBabel03272500233D

 40 44  0  0  1  0  0  0  0  0999 V2000
   38.1730   26.0330   36.4070 C   0  0  0  0  0  0  0  0  0  0  0  0
   38.2050   24.6090   36.3480 C   0  0  0  0  0  0  0  0  0  0  0  0
   38.1670   23.9800   35.1020 C   0  0  0  0  0  0  0  0  0  0  0  0
   38.1030   24.8010   34.0090 N   0  0  0  0  0  0  0  0  0  0  0  0
   38.0740   26.1050   34.0660 C   0  0  0  0  0  0  0  0  0  0  0  0
   38.1080   26.7400   35.2520 N   0  0  0  0  0  0  0  0  0  0  0  0
   38.2020   26.5360   37.3650 H   0  0  0  0  0  0  0  0  0  0  0  0
   36.0420   28.3530   34.0090 Cl  0  0  0  0  0  0  0  0  0  0  0  0
   37.1080   27.9300   32.6700 C   0  0  0  0  0  0  0  0  0  0  0  0
   38.0030   26.8770   32.8110 C   0  0  0  0  0  0  0  0  0  0  0  0
   38.8740   26.4970   31.7790 C   0  0  0  0  0  0  0  0  0  0  0  0
   38.7820   27.2440   30.6070 C   0  0  0  0  0  0  0  0  0  0  0  0
   37.9080   28.2860   30.4450 C   0  0  0  0  0  0  0  0  0  0  0  0
   37.9030   29.1350   28.9180 Cl  0  0  0  0  0  0  0  0  0  0  0  0
   37.0630   28.6290   31.4930 C   0  0  0  0  0  0  0  0  0  0  0  0
   39.5700   25.6750   31.8950 H   0  0  0  0  0  0  0  0  0  0  0  0
   39.4490   26.9620   29.8030 H   0  0  0  0  0  0  0  0  0  0  0  0
   36.1100   29.7520   31.3400 C   0  0  0  0  0  0  0  0  0  0  0  0
   34.8270   29.3480   31.7470 F   0  0  0  0  0  0  0  0  0  0  0  0
   36.0650   30.2190   30.0660 F   0  0  0  0  0  0  0  0  0  0  0  0
   36.4730   30.7850   32.1690 F   0  0  0  0  0  0  0  0  0  0  0  0
   38.2760   23.8530   37.6400 C   0  0  0  0  0  0  0  0  0  0  0  0
   39.5120   23.2370   37.7920 F   0  0  0  0  0  0  0  0  0  0  0  0
   38.1470   24.7700   38.6670 F   0  0  0  0  0  0  0  0  0  0  0  0
   37.2710   22.9280   37.7770 F   0  0  0  0  0  0  0  0  0  0  0  0
   38.2050   22.5240   35.0280 C   0  0  0  0  0  0  0  0  0  0  0  0
   39.2550   22.2220   34.8070 H   0  0  0  0  0  0  0  0  0  0  0  0
   37.8130   22.0100   35.9320 H   0  0  0  0  0  0  0  0  0  0  0  0
   36.9720   19.5230   31.1040 C   0  0  0  0  0  0  0  0  0  0  0  0
   35.8610   19.8930   31.9950 C   0  0  0  0  0  2  0  0  0  0  0  0
   36.2970   20.5250   33.1720 N   0  0  2  0  0  0  0  0  0  0  0  0
   36.2590   21.1240   34.4580 C   0  0  2  0  0  0  0  0  0  0  0  0
   35.5730   20.8330   35.4940 O   0  0  0  0  0  1  0  0  0  0  0  0
   37.2980   22.0740   33.9050 C   0  0  2  0  0  3  0  0  0  0  0  0
   37.7200   20.8220   33.2460 C   0  0  2  0  0  0  0  0  0  0  0  0
   38.1630   20.8770   31.4920 S   0  0  0  0  0  0  0  0  0  0  0  0
   36.6180   19.5480   29.6400 C   0  0  0  0  0  2  0  0  0  0  0  0
   36.0260   20.4630   29.4680 H   0  0  0  0  0  0  0  0  0  0  0  0
   37.5640   18.2100   31.5610 C   0  0  0  0  0  2  0  0  0  0  0  0
   38.1420   18.4420   32.5010 H   0  0  0  0  0  0  0  0  0  0  0  0
  1  7  1  0  0  0  0
  2  1  1  0  0  0  0
  2 22  1  0  0  0  0
  3  2  2  0  0  0  0
  4  5  2  0  0  0  0
  4  3  1  0  0  0  0
  5  6  1  0  0  0  0
  6  1  2  0  0  0  0
  9 10  1  0  0  0  0
  9  8  1  0  0  0  0
 10  5  1  0  0  0  0
 11 16  1  0  0  0  0
 11 10  2  0  0  0  0
 12 11  1  0  0  0  0
 13 12  2  0  0  0  0
 13 15  1  0  0  0  0
 14 13  1  0  0  0  0
 15  9  2  0  0  0  0
 17 12  1  0  0  0  0
 18 15  1  0  0  0  0
 18 19  1  0  0  0  0
 18 21  1  0  0  0  0
 20 18  1  0  0  0  0
 22 25  1  0  0  0  0
 22 23  1  0  0  0  0
 22 24  1  0  0  0  0
 26  3  1  0  0  0  0
 26 28  1  0  0  0  0
 27 26  1  0  0  0  0
 29 36  1  0  0  0  0
 29 39  1  0  0  0  0
 29 30  1  0  0  0  0
 31 30  1  6  0  0  0
 31 35  1  0  0  0  0
 31 32  1  0  0  0  0
 32 33  1  1  0  0  0
 34 32  1  0  0  0  0
 34 26  1  1  0  0  0
 35 36  1  1  0  0  0
 35 34  1  0  0  0  0
 35 32  1  0  0  0  0
 37 29  1  0  0  0  0
 38 37  1  0  0  0  0
 39 40  1  0  0  0  0
M  END
>  <minimizedAffinity>
-6.84429407

$$$$

 OpenBabel03272500233D

 40 44  0  0  1  0  0  0  0  0999 V2000
   37.3950   27.7930   34.8490 C   0  0  0  0  0  0  0  0  0  0  0  0
   36.9870   27.6990   33.4870 C   0  0  0  0  0  0  0  0  0  0  0  0
   37.6540   26.8110   32.6390 C   0  0  0  0  0  0  0  0  0  0  0  0
   38.6700   26.0850   33.1970 N   0  0  0  0  0  0  0  0  0  0  0  0
   39.0410   26.1730   34.4460 C   0  0  0  0  0  0  0  0  0  0  0  0
   38.4190   27.0190   35.2880 N   0  0  0  0  0  0  0  0  0  0  0  0
   36.8890   28.4750   35.5200 H   0  0  0  0  0  0  0  0  0  0  0  0
   38.2710   23.8440   36.2260 Cl  0  0  0  0  0  0  0  0  0  0  0  0
   39.9220   24.2380   35.7480 C   0  0  0  0  0  0  0  0  0  0  0  0
   40.1550   25.3330   34.9250 C   0  0  0  0  0  0  0  0  0  0  0  0
   41.4470   25.6940   34.5130 C   0  0  0  0  0  0  0  0  0  0  0  0
   42.4780   24.8820   34.9830 C   0  0  0  0  0  0  0  0  0  0  0  0
   42.2710   23.7980   35.7940 C   0  0  0  0  0  0  0  0  0  0  0  0
   43.6600   22.8700   36.3070 Cl  0  0  0  0  0  0  0  0  0  0  0  0
   40.9760   23.4770   36.1780 C   0  0  0  0  0  0  0  0  0  0  0  0
   41.6230   26.5480   33.8710 H   0  0  0  0  0  0  0  0  0  0  0  0
   43.4790   25.1480   34.6720 H   0  0  0  0  0  0  0  0  0  0  0  0
   40.7300   22.3090   37.0550 C   0  0  0  0  0  0  0  0  0  0  0  0
   40.2300   22.7400   38.2950 F   0  0  0  0  0  0  0  0  0  0  0  0
   41.8470   21.5610   37.2420 F   0  0  0  0  0  0  0  0  0  0  0  0
   39.7590   21.5090   36.5020 F   0  0  0  0  0  0  0  0  0  0  0  0
   35.8540   28.5650   33.0300 C   0  0  0  0  0  0  0  0  0  0  0  0
   35.2450   29.2020   34.1050 F   0  0  0  0  0  0  0  0  0  0  0  0
   36.3850   29.5530   32.2200 F   0  0  0  0  0  0  0  0  0  0  0  0
   34.9180   27.8820   32.2960 F   0  0  0  0  0  0  0  0  0  0  0  0
   37.2420   26.7010   31.2440 C   0  0  0  0  0  0  0  0  0  0  0  0
   36.2730   27.2410   31.1320 H   0  0  0  0  0  0  0  0  0  0  0  0
   37.9980   27.0630   30.5140 H   0  0  0  0  0  0  0  0  0  0  0  0
   37.2550   21.7400   32.3860 C   0  0  0  0  0  0  0  0  0  0  0  0
   36.1560   22.1890   31.5160 C   0  0  0  0  0  2  0  0  0  0  0  0
   36.0760   23.5890   31.4230 N   0  0  2  0  0  0  0  0  0  0  0  0
   35.5930   24.8780   31.0780 C   0  0  2  0  0  0  0  0  0  0  0  0
   34.4020   25.3300   31.0020 O   0  0  0  0  0  1  0  0  0  0  0  0
   37.0530   25.2390   30.9110 C   0  0  2  0  0  3  0  0  0  0  0  0
   37.1450   24.3330   32.0730 C   0  0  2  0  0  0  0  0  0  0  0  0
   38.4680   23.0990   32.1040 S   0  0  0  0  0  0  0  0  0  0  0  0
   37.8540   20.4170   31.9830 C   0  0  0  0  0  2  0  0  0  0  0  0
   37.9630   20.4350   30.8860 H   0  0  0  0  0  0  0  0  0  0  0  0
   36.8010   21.7850   33.8270 C   0  0  0  0  0  2  0  0  0  0  0  0
   36.7710   22.8770   34.1070 H   0  0  0  0  0  0  0  0  0  0  0  0
  1  6  1  0  0  0  0
  1  7  1  0  0  0  0
  2  1  2  0  0  0  0
  3  4  2  0  0  0  0
  3  2  1  0  0  0  0
  4  5  1  0  0  0  0
  5 10  1  0  0  0  0
  5  6  2  0  0  0  0
  9 15  1  0  0  0  0
  9  8  1  0  0  0  0
 10  9  2  0  0  0  0
 11 10  1  0  0  0  0
 11 12  2  0  0  0  0
 12 13  1  0  0  0  0
 13 15  2  0  0  0  0
 13 14  1  0  0  0  0
 15 18  1  0  0  0  0
 16 11  1  0  0  0  0
 17 12  1  0  0  0  0
 18 20  1  0  0  0  0
 18 19  1  0  0  0  0
 21 18  1  0  0  0  0
 22  2  1  0  0  0  0
 22 23  1  0  0  0  0
 24 22  1  0  0  0  0
 25 22  1  0  0  0  0
 26  3  1  0  0  0  0
 27 26  1  0  0  0  0
 28 26  1  0  0  0  0
 29 39  1  0  0  0  0
 30 29  1  0  0  0  0
 31 30  1  6  0  0  0
 31 35  1  0  0  0  0
 32 33  1  1  0  0  0
 32 31  1  0  0  0  0
 32 35  1  0  0  0  0
 34 32  1  0  0  0  0
 34 26  1  1  0  0  0
 34 35  1  0  0  0  0
 35 36  1  1  0  0  0
 36 29  1  0  0  0  0
 37 29  1  0  0  0  0
 38 37  1  0  0  0  0
 39 40  1  0  0  0  0
M  END
>  <minimizedAffinity>
-6.78768396

$$$$

 OpenBabel03272500233D

 40 44  0  0  1  0  0  0  0  0999 V2000
   38.9030   27.5140   31.5520 C   0  0  0  0  0  0  0  0  0  0  0  0
   37.7200   28.2840   31.3540 C   0  0  0  0  0  0  0  0  0  0  0  0
   36.6880   28.1970   32.2930 C   0  0  0  0  0  0  0  0  0  0  0  0
   36.9020   27.3600   33.3540 N   0  0  0  0  0  0  0  0  0  0  0  0
   37.9860   26.6560   33.5320 C   0  0  0  0  0  0  0  0  0  0  0  0
   38.9970   26.7180   32.6460 N   0  0  0  0  0  0  0  0  0  0  0  0
   39.7110   27.5690   30.8350 H   0  0  0  0  0  0  0  0  0  0  0  0
   38.0570   23.6750   32.9910 Cl  0  0  0  0  0  0  0  0  0  0  0  0
   38.1320   24.4060   34.5950 C   0  0  0  0  0  0  0  0  0  0  0  0
   38.0920   25.7880   34.7210 C   0  0  0  0  0  0  0  0  0  0  0  0
   38.1480   26.4240   35.9700 C   0  0  0  0  0  0  0  0  0  0  0  0
   38.2460   25.5780   37.0730 C   0  0  0  0  0  0  0  0  0  0  0  0
   38.2870   24.2130   36.9720 C   0  0  0  0  0  0  0  0  0  0  0  0
   38.4120   23.2770   38.4430 Cl  0  0  0  0  0  0  0  0  0  0  0  0
   38.2290   23.6250   35.7150 C   0  0  0  0  0  0  0  0  0  0  0  0
   38.1170   27.5030   36.0630 H   0  0  0  0  0  0  0  0  0  0  0  0
   38.2910   26.0560   38.0430 H   0  0  0  0  0  0  0  0  0  0  0  0
   38.2710   22.1510   35.5840 C   0  0  0  0  0  0  0  0  0  0  0  0
   38.5130   21.7970   34.2460 F   0  0  0  0  0  0  0  0  0  0  0  0
   37.1280   21.5620   36.0190 F   0  0  0  0  0  0  0  0  0  0  0  0
   39.3220   21.6490   36.3130 F   0  0  0  0  0  0  0  0  0  0  0  0
   37.6420   29.1540   30.1380 C   0  0  0  0  0  0  0  0  0  0  0  0
   37.4510   30.4860   30.4860 F   0  0  0  0  0  0  0  0  0  0  0  0
   38.8600   29.0740   29.4890 F   0  0  0  0  0  0  0  0  0  0  0  0
   36.6710   28.7570   29.2540 F   0  0  0  0  0  0  0  0  0  0  0  0
   35.4750   28.9850   32.1050 C   0  0  0  0  0  0  0  0  0  0  0  0
   35.7570   29.9200   31.5660 H   0  0  0  0  0  0  0  0  0  0  0  0
   34.6550   28.4440   31.5850 H   0  0  0  0  0  0  0  0  0  0  0  0
   34.1530   32.2470   35.7830 C   0  0  0  0  0  0  0  0  0  0  0  0
   33.2260   31.1250   35.5650 C   0  0  0  0  0  2  0  0  0  0  0  0
   33.5210   30.3960   34.4010 N   0  0  2  0  0  0  0  0  0  0  0  0
   33.4030   29.4390   33.3600 C   0  0  2  0  0  0  0  0  0  0  0  0
   32.3770   29.0010   32.7410 O   0  0  0  0  0  1  0  0  0  0  0  0
   34.9100   29.3310   33.4630 C   0  0  2  0  0  3  0  0  0  0  0  0
   34.7400   30.7780   33.7020 C   0  0  2  0  0  0  0  0  0  0  0  0
   35.6880   31.5490   35.0370 S   0  0  0  0  0  0  0  0  0  0  0  0
   34.3850   32.5770   37.2350 C   0  0  0  0  0  2  0  0  0  0  0  0
   34.5120   31.6180   37.7660 H   0  0  0  0  0  0  0  0  0  0  0  0
   33.7060   33.4320   34.9580 C   0  0  0  0  0  2  0  0  0  0  0  0
   33.9630   33.1770   33.8900 H   0  0  0  0  0  0  0  0  0  0  0  0
  1  6  1  0  0  0  0
  2  1  2  0  0  0  0
  2  3  1  0  0  0  0
  3  4  2  0  0  0  0
  4  5  1  0  0  0  0
  5 10  1  0  0  0  0
  6  5  2  0  0  0  0
  7  1  1  0  0  0  0
  8  9  1  0  0  0  0
  9 10  2  0  0  0  0
  9 15  1  0  0  0  0
 10 11  1  0  0  0  0
 11 16  1  0  0  0  0
 11 12  2  0  0  0  0
 12 17  1  0  0  0  0
 13 12  1  0  0  0  0
 13 14  1  0  0  0  0
 15 13  2  0  0  0  0
 18 15  1  0  0  0  0
 18 20  1  0  0  0  0
 18 21  1  0  0  0  0
 19 18  1  0  0  0  0
 22 23  1  0  0  0  0
 22  2  1  0  0  0  0
 24 22  1  0  0  0  0
 25 22  1  0  0  0  0
 26  3  1  0  0  0  0
 27 26  1  0  0  0  0
 28 26  1  0  0  0  0
 29 37  1  0  0  0  0
 30 29  1  0  0  0  0
 31 30  1  1  0  0  0
 32 33  1  6  0  0  0
 32 34  1  0  0  0  0
 32 35  1  0  0  0  0
 32 31  1  0  0  0  0
 34 26  1  6  0  0  0
 34 35  1  0  0  0  0
 35 31  1  0  0  0  0
 35 36  1  6  0  0  0
 36 29  1  0  0  0  0
 37 38  1  0  0  0  0
 39 29  1  0  0  0  0
 40 39  1  0  0  0  0
M  END
>  <minimizedAffinity>
-6.71863317

$$$$

 OpenBabel03272500233D

 40 44  0  0  1  0  0  0  0  0999 V2000
   38.1360   26.0050   36.2660 C   0  0  0  0  0  0  0  0  0  0  0  0
   38.1700   24.5810   36.2190 C   0  0  0  0  0  0  0  0  0  0  0  0
   38.1050   23.9400   34.9800 C   0  0  0  0  0  0  0  0  0  0  0  0
   38.0130   24.7510   33.8820 N   0  0  0  0  0  0  0  0  0  0  0  0
   37.9820   26.0550   33.9270 C   0  0  0  0  0  0  0  0  0  0  0  0
   38.0410   26.7020   35.1060 N   0  0  0  0  0  0  0  0  0  0  0  0
   38.1850   26.5180   37.2180 H   0  0  0  0  0  0  0  0  0  0  0  0
   40.5900   26.5560   32.4660 Cl  0  0  0  0  0  0  0  0  0  0  0  0
   39.0080   27.1050   31.9120 C   0  0  0  0  0  0  0  0  0  0  0  0
   37.8780   26.8150   32.6660 C   0  0  0  0  0  0  0  0  0  0  0  0
   36.5950   27.2260   32.2750 C   0  0  0  0  0  0  0  0  0  0  0  0
   36.5310   27.9420   31.0810 C   0  0  0  0  0  0  0  0  0  0  0  0
   37.6310   28.2400   30.3220 C   0  0  0  0  0  0  0  0  0  0  0  0
   37.3990   29.1460   28.8460 Cl  0  0  0  0  0  0  0  0  0  0  0  0
   38.8820   27.8130   30.7470 C   0  0  0  0  0  0  0  0  0  0  0  0
   35.7180   26.9970   32.8660 H   0  0  0  0  0  0  0  0  0  0  0  0
   35.5470   28.2650   30.7670 H   0  0  0  0  0  0  0  0  0  0  0  0
   40.0850   28.1240   29.9410 C   0  0  0  0  0  0  0  0  0  0  0  0
   41.2370   27.6760   30.6090 F   0  0  0  0  0  0  0  0  0  0  0  0
   40.1950   29.4490   29.6700 F   0  0  0  0  0  0  0  0  0  0  0  0
   40.0360   27.4400   28.7510 F   0  0  0  0  0  0  0  0  0  0  0  0
   38.2740   23.8370   37.5160 C   0  0  0  0  0  0  0  0  0  0  0  0
   39.5170   23.2310   37.6470 F   0  0  0  0  0  0  0  0  0  0  0  0
   38.1610   24.7630   38.5370 F   0  0  0  0  0  0  0  0  0  0  0  0
   37.2780   22.9080   37.6830 F   0  0  0  0  0  0  0  0  0  0  0  0
   38.1460   22.4830   34.9190 C   0  0  0  0  0  0  0  0  0  0  0  0
   39.2000   22.1810   34.7160 H   0  0  0  0  0  0  0  0  0  0  0  0
   37.7410   21.9770   35.8210 H   0  0  0  0  0  0  0  0  0  0  0  0
   36.9870   19.4630   30.9870 C   0  0  0  0  0  0  0  0  0  0  0  0
   35.8620   19.8250   31.8640 C   0  0  0  0  0  2  0  0  0  0  0  0
   36.2780   20.4630   33.0450 N   0  0  2  0  0  0  0  0  0  0  0  0
   36.2190   21.0650   34.3290 C   0  0  2  0  0  0  0  0  0  0  0  0
   35.5240   20.7700   35.3580 O   0  0  0  0  0  1  0  0  0  0  0  0
   37.2570   22.0230   33.7860 C   0  0  2  0  0  3  0  0  0  0  0  0
   37.6970   20.7730   33.1350 C   0  0  2  0  0  0  0  0  0  0  0  0
   38.1600   20.8280   31.3870 S   0  0  0  0  0  0  0  0  0  0  0  0
   36.6490   19.4820   29.5190 C   0  0  0  0  0  2  0  0  0  0  0  0
   36.0510   20.3910   29.3380 H   0  0  0  0  0  0  0  0  0  0  0  0
   37.5840   18.1560   31.4550 C   0  0  0  0  0  2  0  0  0  0  0  0
   38.1490   18.3960   32.4000 H   0  0  0  0  0  0  0  0  0  0  0  0
  1  7  1  0  0  0  0
  2  1  1  0  0  0  0
  2 22  1  0  0  0  0
  3  2  2  0  0  0  0
  4  5  2  0  0  0  0
  4  3  1  0  0  0  0
  5  6  1  0  0  0  0
  6  1  2  0  0  0  0
  9  8  1  0  0  0  0
  9 10  1  0  0  0  0
 10  5  1  0  0  0  0
 11 10  2  0  0  0  0
 11 16  1  0  0  0  0
 12 11  1  0  0  0  0
 13 15  1  0  0  0  0
 13 12  2  0  0  0  0
 14 13  1  0  0  0  0
 15  9  2  0  0  0  0
 17 12  1  0  0  0  0
 18 19  1  0  0  0  0
 18 15  1  0  0  0  0
 20 18  1  0  0  0  0
 21 18  1  0  0  0  0
 22 23  1  0  0  0  0
 22 25  1  0  0  0  0
 22 24  1  0  0  0  0
 26  3  1  0  0  0  0
 26 28  1  0  0  0  0
 27 26  1  0  0  0  0
 29 36  1  0  0  0  0
 29 39  1  0  0  0  0
 29 30  1  0  0  0  0
 31 30  1  6  0  0  0
 31 35  1  0  0  0  0
 31 32  1  0  0  0  0
 32 33  1  1  0  0  0
 34 32  1  0  0  0  0
 34 26  1  1  0  0  0
 35 36  1  1  0  0  0
 35 34  1  0  0  0  0
 35 32  1  0  0  0  0
 37 29  1  0  0  0  0
 38 37  1  0  0  0  0
 39 40  1  0  0  0  0
M  END
>  <minimizedAffinity>
-6.51158714

$$$$

 OpenBabel03272500233D

 40 44  0  0  1  0  0  0  0  0999 V2000
   38.9330   27.9770   30.5420 C   0  0  0  0  0  0  0  0  0  0  0  0
   37.8420   28.8910   30.6080 C   0  0  0  0  0  0  0  0  0  0  0  0
   36.7990   28.6410   31.5030 C   0  0  0  0  0  0  0  0  0  0  0  0
   36.9110   27.5110   32.2650 N   0  0  0  0  0  0  0  0  0  0  0  0
   37.9120   26.6750   32.2030 C   0  0  0  0  0  0  0  0  0  0  0  0
   38.9310   26.8880   31.3500 N   0  0  0  0  0  0  0  0  0  0  0  0
   39.7490   28.1550   29.8540 H   0  0  0  0  0  0  0  0  0  0  0  0
   38.1890   27.2240   35.1710 Cl  0  0  0  0  0  0  0  0  0  0  0  0
   38.0340   25.6180   34.4580 C   0  0  0  0  0  0  0  0  0  0  0  0
   37.9130   25.4880   33.0810 C   0  0  0  0  0  0  0  0  0  0  0  0
   37.7870   24.2370   32.4590 C   0  0  0  0  0  0  0  0  0  0  0  0
   37.7920   23.1360   33.3140 C   0  0  0  0  0  0  0  0  0  0  0  0
   37.9110   23.2410   34.6740 C   0  0  0  0  0  0  0  0  0  0  0  0
   37.9010   21.7730   35.6220 Cl  0  0  0  0  0  0  0  0  0  0  0  0
   38.0330   24.5000   35.2480 C   0  0  0  0  0  0  0  0  0  0  0  0
   37.6920   24.1410   31.3840 H   0  0  0  0  0  0  0  0  0  0  0  0
   37.6950   22.1650   32.8480 H   0  0  0  0  0  0  0  0  0  0  0  0
   38.1630   24.6360   36.7170 C   0  0  0  0  0  0  0  0  0  0  0  0
   39.3300   23.9900   37.1550 F   0  0  0  0  0  0  0  0  0  0  0  0
   37.0840   24.1430   37.3770 F   0  0  0  0  0  0  0  0  0  0  0  0
   38.3060   25.9620   37.0490 F   0  0  0  0  0  0  0  0  0  0  0  0
   37.8680   30.0850   29.7030 C   0  0  0  0  0  0  0  0  0  0  0  0
   37.6240   31.2550   30.4120 F   0  0  0  0  0  0  0  0  0  0  0  0
   39.1460   30.1840   29.1810 F   0  0  0  0  0  0  0  0  0  0  0  0
   36.9940   29.9820   28.6510 F   0  0  0  0  0  0  0  0  0  0  0  0
   35.6790   29.5720   31.5840 C   0  0  0  0  0  0  0  0  0  0  0  0
   36.0230   30.5530   31.1800 H   0  0  0  0  0  0  0  0  0  0  0  0
   34.7560   29.2220   31.0750 H   0  0  0  0  0  0  0  0  0  0  0  0
   34.2820   32.3030   35.6480 C   0  0  0  0  0  0  0  0  0  0  0  0
   33.6140   31.0000   35.4970 C   0  0  0  0  0  2  0  0  0  0  0  0
   33.8680   30.4010   34.2510 N   0  0  2  0  0  0  0  0  0  0  0  0
   33.8000   29.4790   33.1750 C   0  0  2  0  0  0  0  0  0  0  0  0
   32.8120   28.8300   32.6940 O   0  0  0  0  0  1  0  0  0  0  0  0
   35.2860   29.7290   33.0350 C   0  0  2  0  0  3  0  0  0  0  0  0
   34.8320   31.0850   33.4010 C   0  0  2  0  0  0  0  0  0  0  0  0
   35.7880   32.0150   34.6230 S   0  0  0  0  0  0  0  0  0  0  0  0
   34.6730   32.6300   37.0650 C   0  0  0  0  0  2  0  0  0  0  0  0
   35.1030   31.7120   37.5000 H   0  0  0  0  0  0  0  0  0  0  0  0
   33.4430   33.3740   34.9890 C   0  0  0  0  0  2  0  0  0  0  0  0
   33.5680   33.2230   33.8780 H   0  0  0  0  0  0  0  0  0  0  0  0
  1  2  2  0  0  0  0
  1  6  1  0  0  0  0
  2  3  1  0  0  0  0
  3 26  1  0  0  0  0
  3  4  2  0  0  0  0
  5  4  1  0  0  0  0
  5 10  1  0  0  0  0
  6  5  2  0  0  0  0
  7  1  1  0  0  0  0
  9  8  1  0  0  0  0
  9 15  1  0  0  0  0
 10  9  2  0  0  0  0
 11 10  1  0  0  0  0
 11 12  2  0  0  0  0
 12 13  1  0  0  0  0
 13 15  2  0  0  0  0
 13 14  1  0  0  0  0
 15 18  1  0  0  0  0
 16 11  1  0  0  0  0
 17 12  1  0  0  0  0
 18 21  1  0  0  0  0
 18 19  1  0  0  0  0
 18 20  1  0  0  0  0
 22 23  1  0  0  0  0
 22  2  1  0  0  0  0
 24 22  1  0  0  0  0
 25 22  1  0  0  0  0
 27 26  1  0  0  0  0
 28 26  1  0  0  0  0
 29 37  1  0  0  0  0
 30 29  1  0  0  0  0
 31 30  1  1  0  0  0
 32 33  1  6  0  0  0
 32 35  1  0  0  0  0
 32 31  1  0  0  0  0
 34 26  1  6  0  0  0
 34 32  1  0  0  0  0
 34 35  1  0  0  0  0
 35 31  1  0  0  0  0
 35 36  1  6  0  0  0
 36 29  1  0  0  0  0
 37 38  1  0  0  0  0
 39 29  1  0  0  0  0
 40 39  1  0  0  0  0
M  END
>  <minimizedAffinity>
-6.29467201

$$$$

 OpenBabel03272500233D

 40 44  0  0  1  0  0  0  0  0999 V2000
   35.5070   25.0120   31.2080 C   0  0  0  0  0  0  0  0  0  0  0  0
   36.7970   24.4320   31.3810 C   0  0  0  0  0  0  0  0  0  0  0  0
   37.8690   25.2550   31.7360 C   0  0  0  0  0  0  0  0  0  0  0  0
   37.5880   26.5840   31.8940 N   0  0  0  0  0  0  0  0  0  0  0  0
   36.4050   27.1130   31.7350 C   0  0  0  0  0  0  0  0  0  0  0  0
   35.3520   26.3470   31.3930 N   0  0  0  0  0  0  0  0  0  0  0  0
   34.6650   24.3900   30.9340 H   0  0  0  0  0  0  0  0  0  0  0  0
   35.8880   28.0060   34.5850 Cl  0  0  0  0  0  0  0  0  0  0  0  0
   35.9920   29.0890   33.1970 C   0  0  0  0  0  0  0  0  0  0  0  0
   36.2350   28.5650   31.9340 C   0  0  0  0  0  0  0  0  0  0  0  0
   36.3280   29.3790   30.7950 C   0  0  0  0  0  0  0  0  0  0  0  0
   36.1620   30.7450   31.0150 C   0  0  0  0  0  0  0  0  0  0  0  0
   35.9220   31.2830   32.2510 C   0  0  0  0  0  0  0  0  0  0  0  0
   35.7340   33.0160   32.3780 Cl  0  0  0  0  0  0  0  0  0  0  0  0
   35.8380   30.4410   33.3520 C   0  0  0  0  0  0  0  0  0  0  0  0
   36.5180   28.9640   29.8120 H   0  0  0  0  0  0  0  0  0  0  0  0
   36.2310   31.3840   30.1450 H   0  0  0  0  0  0  0  0  0  0  0  0
   35.5790   31.0020   34.6980 C   0  0  0  0  0  0  0  0  0  0  0  0
   34.2780   30.6710   35.1120 F   0  0  0  0  0  0  0  0  0  0  0  0
   35.7470   32.3490   34.7350 F   0  0  0  0  0  0  0  0  0  0  0  0
   36.4340   30.4330   35.6110 F   0  0  0  0  0  0  0  0  0  0  0  0
   36.9390   22.9560   31.1710 C   0  0  0  0  0  0  0  0  0  0  0  0
   37.1920   22.3010   32.3700 F   0  0  0  0  0  0  0  0  0  0  0  0
   35.7280   22.4840   30.6960 F   0  0  0  0  0  0  0  0  0  0  0  0
   37.9020   22.6350   30.2480 F   0  0  0  0  0  0  0  0  0  0  0  0
   39.1930   24.6720   31.9210 C   0  0  0  0  0  0  0  0  0  0  0  0
   39.1480   23.6100   31.5830 H   0  0  0  0  0  0  0  0  0  0  0  0
   40.0120   25.2280   31.4160 H   0  0  0  0  0  0  0  0  0  0  0  0
   38.1820   23.9620   36.8600 C   0  0  0  0  0  0  0  0  0  0  0  0
   39.5540   23.6350   36.4390 C   0  0  0  0  0  2  0  0  0  0  0  0
   39.7060   23.6330   35.0420 N   0  0  2  0  0  0  0  0  0  0  0  0
   40.3020   23.4700   33.7650 C   0  0  2  0  0  0  0  0  0  0  0  0
   41.1060   22.5810   33.3260 O   0  0  0  0  0  1  0  0  0  0  0  0
   39.5410   24.7240   33.3920 C   0  0  2  0  0  3  0  0  0  0  0  0
   38.5510   24.0760   34.2750 C   0  0  2  0  0  0  0  0  0  0  0  0
   37.6850   25.0950   35.4940 S   0  0  0  0  0  0  0  0  0  0  0  0
   38.1020   24.6780   38.1840 C   0  0  0  0  0  2  0  0  0  0  0  0
   38.8990   25.4410   38.1850 H   0  0  0  0  0  0  0  0  0  0  0  0
   37.3290   22.7160   36.7940 C   0  0  0  0  0  2  0  0  0  0  0  0
   37.1500   22.5230   35.6970 H   0  0  0  0  0  0  0  0  0  0  0  0
  1  2  2  0  0  0  0
  1  6  1  0  0  0  0
  2  3  1  0  0  0  0
  3  4  2  0  0  0  0
  3 26  1  0  0  0  0
  5  4  1  0  0  0  0
  5 10  1  0  0  0  0
  6  5  2  0  0  0  0
  7  1  1  0  0  0  0
  9 15  1  0  0  0  0
  9  8  1  0  0  0  0
 10  9  2  0  0  0  0
 11 12  2  0  0  0  0
 11 10  1  0  0  0  0
 12 13  1  0  0  0  0
 13 14  1  0  0  0  0
 13 15  2  0  0  0  0
 15 18  1  0  0  0  0
 16 11  1  0  0  0  0
 17 12  1  0  0  0  0
 18 20  1  0  0  0  0
 18 19  1  0  0  0  0
 18 21  1  0  0  0  0
 22  2  1  0  0  0  0
 22 23  1  0  0  0  0
 24 22  1  0  0  0  0
 25 22  1  0  0  0  0
 27 26  1  0  0  0  0
 28 26  1  0  0  0  0
 29 37  1  0  0  0  0
 30 29  1  0  0  0  0
 31 30  1  1  0  0  0
 32 33  1  6  0  0  0
 32 35  1  0  0  0  0
 32 31  1  0  0  0  0
 34 26  1  6  0  0  0
 34 32  1  0  0  0  0
 34 35  1  0  0  0  0
 35 31  1  0  0  0  0
 35 36  1  6  0  0  0
 36 29  1  0  0  0  0
 37 38  1  0  0  0  0
 39 29  1  0  0  0  0
 40 39  1  0  0  0  0
M  END
>  <minimizedAffinity>
-6.24918222

$$$$

 OpenBabel03272500233D

 40 44  0  0  1  0  0  0  0  0999 V2000
   37.5200   28.4400   31.4380 C   0  0  0  0  0  0  0  0  0  0  0  0
   36.4700   29.3230   31.8230 C   0  0  0  0  0  0  0  0  0  0  0  0
   35.8620   29.1530   33.0690 C   0  0  0  0  0  0  0  0  0  0  0  0
   36.3370   28.1290   33.8420 N   0  0  0  0  0  0  0  0  0  0  0  0
   37.3000   27.3220   33.4870 C   0  0  0  0  0  0  0  0  0  0  0  0
   37.9040   27.4590   32.2920 N   0  0  0  0  0  0  0  0  0  0  0  0
   38.0020   28.5570   30.4760 H   0  0  0  0  0  0  0  0  0  0  0  0
   37.3560   24.5190   32.3350 Cl  0  0  0  0  0  0  0  0  0  0  0  0
   37.7820   24.9300   33.9970 C   0  0  0  0  0  0  0  0  0  0  0  0
   37.7190   26.2530   34.4140 C   0  0  0  0  0  0  0  0  0  0  0  0
   38.0460   26.6380   35.7230 C   0  0  0  0  0  0  0  0  0  0  0  0
   38.4380   25.6070   36.5740 C   0  0  0  0  0  0  0  0  0  0  0  0
   38.5070   24.2960   36.1850 C   0  0  0  0  0  0  0  0  0  0  0  0
   39.0150   23.1070   37.3610 Cl  0  0  0  0  0  0  0  0  0  0  0  0
   38.1750   23.9590   34.8790 C   0  0  0  0  0  0  0  0  0  0  0  0
   37.9960   27.6720   36.0430 H   0  0  0  0  0  0  0  0  0  0  0  0
   38.6930   25.8900   37.5860 H   0  0  0  0  0  0  0  0  0  0  0  0
   38.2420   22.5470   34.4370 C   0  0  0  0  0  0  0  0  0  0  0  0
   39.2600   22.3930   33.4830 F   0  0  0  0  0  0  0  0  0  0  0  0
   37.0610   22.1100   33.9280 F   0  0  0  0  0  0  0  0  0  0  0  0
   38.5800   21.7440   35.4990 F   0  0  0  0  0  0  0  0  0  0  0  0
   36.0650   30.3970   30.8600 C   0  0  0  0  0  0  0  0  0  0  0  0
   36.6280   31.6190   31.2080 F   0  0  0  0  0  0  0  0  0  0  0  0
   36.5690   30.0550   29.6180 F   0  0  0  0  0  0  0  0  0  0  0  0
   34.7040   30.5250   30.7380 F   0  0  0  0  0  0  0  0  0  0  0  0
   34.7890   30.0540   33.4770 C   0  0  0  0  0  0  0  0  0  0  0  0
   34.4720   30.6330   32.5780 H   0  0  0  0  0  0  0  0  0  0  0  0
   33.9280   29.5480   33.9630 H   0  0  0  0  0  0  0  0  0  0  0  0
   35.8710   34.6810   35.3060 C   0  0  0  0  0  0  0  0  0  0  0  0
   35.3520   33.7140   36.2880 C   0  0  0  0  0  2  0  0  0  0  0  0
   34.8630   32.5420   35.6880 N   0  0  2  0  0  0  0  0  0  0  0  0
   34.2420   31.2740   35.5470 C   0  0  2  0  0  0  0  0  0  0  0  0
   33.2180   30.7770   36.1240 O   0  0  0  0  0  1  0  0  0  0  0  0
   35.3260   30.9990   34.5280 C   0  0  2  0  0  3  0  0  0  0  0  0
   35.0710   32.4270   34.2510 C   0  0  2  0  0  0  0  0  0  0  0  0
   36.4880   33.5250   34.0090 S   0  0  0  0  0  0  0  0  0  0  0  0
   37.0010   35.5320   35.8240 C   0  0  0  0  0  2  0  0  0  0  0  0
   37.6780   34.8630   36.3820 H   0  0  0  0  0  0  0  0  0  0  0  0
   34.7210   35.4810   34.7370 C   0  0  0  0  0  2  0  0  0  0  0  0
   34.1720   34.7810   34.0440 H   0  0  0  0  0  0  0  0  0  0  0  0
  1  2  2  0  0  0  0
  1  6  1  0  0  0  0
  2  3  1  0  0  0  0
  3 26  1  0  0  0  0
  3  4  2  0  0  0  0
  5  4  1  0  0  0  0
  5 10  1  0  0  0  0
  6  5  2  0  0  0  0
  7  1  1  0  0  0  0
  8  9  1  0  0  0  0
  9 10  2  0  0  0  0
  9 15  1  0  0  0  0
 10 11  1  0  0  0  0
 11 16  1  0  0  0  0
 11 12  2  0  0  0  0
 12 17  1  0  0  0  0
 13 12  1  0  0  0  0
 13 14  1  0  0  0  0
 15 13  2  0  0  0  0
 18 15  1  0  0  0  0
 18 21  1  0  0  0  0
 19 18  1  0  0  0  0
 20 18  1  0  0  0  0
 22 23  1  0  0  0  0
 22  2  1  0  0  0  0
 24 22  1  0  0  0  0
 25 22  1  0  0  0  0
 26 28  1  0  0  0  0
 27 26  1  0  0  0  0
 29 37  1  0  0  0  0
 29 30  1  0  0  0  0
 31 30  1  1  0  0  0
 32 31  1  0  0  0  0
 32 33  1  1  0  0  0
 34 26  1  6  0  0  0
 34 32  1  0  0  0  0
 35 36  1  6  0  0  0
 35 34  1  0  0  0  0
 35 32  1  0  0  0  0
 35 31  1  0  0  0  0
 36 29  1  0  0  0  0
 37 38  1  0  0  0  0
 39 29  1  0  0  0  0
 40 39  1  0  0  0  0
M  END
>  <minimizedAffinity>
-6.20587444

$$$$
