
 OpenBabel03272507333D

 39 43  0  0  1  0  0  0  0  0999 V2000
   33.0290   27.5010   48.1200 C   0  0  0  0  0  0  0  0  0  0  0  0
   31.7840   27.4940   48.4000 O   0  0  0  0  0  0  0  0  0  0  0  0
   35.7690   29.1050   49.7680 C   0  0  0  0  0  0  0  0  0  0  0  0
   34.7420   29.5930   50.5440 C   0  0  0  0  0  0  0  0  0  0  0  0
   33.5470   29.0630   50.0390 C   0  0  0  0  0  0  0  0  0  0  0  0
   33.9280   28.2750   48.9740 C   0  0  0  0  0  0  0  0  0  0  0  0
   35.2360   28.3300   48.8540 O   0  0  0  0  0  0  0  0  0  0  0  0
   34.7570   30.2640   51.4010 H   0  0  0  0  0  0  0  0  0  0  0  0
   32.5300   29.1900   50.3490 H   0  0  0  0  0  0  0  0  0  0  0  0
   37.1600   29.4520   50.0110 C   0  0  0  0  0  0  0  0  0  0  0  0
   37.7930   28.8430   50.8850 O   0  0  0  0  0  0  0  0  0  0  0  0
   37.7210   30.4990   49.2030 C   0  0  0  0  0  0  0  0  0  0  0  0
   38.0630   31.6760   49.8470 C   0  0  0  0  0  0  0  0  0  0  0  0
   38.6100   32.7160   49.0910 C   0  0  0  0  0  0  0  0  0  0  0  0
   38.7800   32.5140   47.7390 N   0  0  0  0  0  0  0  0  0  0  0  0
   38.4370   31.3620   47.1530 C   0  0  0  0  0  0  0  0  0  0  0  0
   37.9120   30.3590   47.8720 N   0  0  0  0  0  0  0  0  0  0  0  0
   37.9080   31.7820   50.9160 H   0  0  0  0  0  0  0  0  0  0  0  0
   38.8660   33.6190   49.6190 H   0  0  0  0  0  0  0  0  0  0  0  0
   38.6130   31.3140   46.0900 H   0  0  0  0  0  0  0  0  0  0  0  0
   33.5640   26.7300   46.9510 C   0  0  1  0  0  0  0  0  0  0  0  0
   33.7760   25.2200   47.3540 C   0  0  0  0  0  0  0  0  0  0  0  0
   32.7960   25.6580   46.3300 C   0  0  1  0  0  0  0  0  0  0  0  0
   34.5440   27.1030   46.5930 H   0  0  0  0  0  0  0  0  0  0  0  0
   34.6950   24.7350   47.0390 H   0  0  0  0  0  0  0  0  0  0  0  0
   33.3760   24.8950   48.3110 H   0  0  0  0  0  0  0  0  0  0  0  0
   33.0930   25.4230   45.2660 H   0  0  0  0  0  0  0  0  0  0  0  0
   31.3540   25.4240   46.6010 C   0  0  0  0  0  2  0  0  0  0  0  0
   30.6440   24.8630   45.3820 C   0  0  2  0  0  0  0  0  0  0  0  0
   29.2350   24.5410   45.7920 C   0  0  0  0  0  2  0  0  0  0  0  0
   28.8640   23.2630   45.2630 N   0  0  0  0  0  0  0  0  0  0  0  0
   28.2160   22.1890   44.5870 C   0  0  0  0  0  0  0  0  0  0  0  0
   27.1150   22.0030   44.0040 O   0  0  0  0  0  0  0  0  0  0  0  0
   29.3380   21.2390   44.7940 C   0  0  0  0  0  3  0  0  0  0  0  0
   30.0010   21.0630   43.9360 H   0  0  0  0  0  0  0  0  0  0  0  0
   29.8530   22.2770   45.7270 C   0  0  1  0  0  3  0  0  0  0  0  0
   31.3470   23.1810   45.1530 S   0  0  0  0  0  0  0  0  0  0  0  0
   30.7760   25.6970   44.1620 C   0  0  0  0  0  2  0  0  0  0  0  0
   31.7200   25.5020   43.6240 H   0  0  0  0  0  0  0  0  0  0  0  0
  1  2  2  0  0  0  0
  1  6  1  0  0  0  0
  3 10  1  0  0  0  0
  3  4  2  0  0  0  0
  4  8  1  0  0  0  0
  5  9  1  0  0  0  0
  5  4  1  0  0  0  0
  6  5  2  0  0  0  0
  7  6  1  0  0  0  0
  7  3  1  0  0  0  0
 10 11  2  0  0  0  0
 12 13  1  0  0  0  0
 12 10  1  0  0  0  0
 13 18  1  0  0  0  0
 14 19  1  0  0  0  0
 14 13  2  0  0  0  0
 15 14  1  0  0  0  0
 16 15  2  0  0  0  0
 16 17  1  0  0  0  0
 17 12  2  0  0  0  0
 20 16  1  0  0  0  0
 21 24  1  6  0  0  0
 21 22  1  0  0  0  0
 21  1  1  0  0  0  0
 22 26  1  0  0  0  0
 23 27  1  6  0  0  0
 23 28  1  0  0  0  0
 23 21  1  0  0  0  0
 23 22  1  0  0  0  0
 25 22  1  0  0  0  0
 29 38  1  6  0  0  0
 29 30  1  0  0  0  0
 29 28  1  0  0  0  0
 31 36  1  0  0  0  0
 31 30  1  0  0  0  0
 32 34  1  0  0  0  0
 32 31  1  0  0  0  0
 33 32  2  0  0  0  0
 35 34  1  0  0  0  0
 36 34  1  6  0  0  0
 37 29  1  0  0  0  0
 37 36  1  0  0  0  0
 39 38  1  0  0  0  0
M  END
>  <minimizedAffinity>
-5.43943071

>  <minimizedRMSD>
0.508917868

$$$$
