
 OpenBabel03272507353D

 39 43  0  0  1  0  0  0  0  0999 V2000
   37.0640   26.6520   32.7150 C   0  0  0  0  0  0  0  0  0  0  0  0
   36.3450   25.7620   32.1480 O   0  0  0  0  0  0  0  0  0  0  0  0
   38.1080   25.2890   35.8520 C   0  0  0  0  0  0  0  0  0  0  0  0
   38.3800   26.6150   36.0990 C   0  0  0  0  0  0  0  0  0  0  0  0
   38.0290   27.3350   34.9480 C   0  0  0  0  0  0  0  0  0  0  0  0
   37.5580   26.3880   34.0640 C   0  0  0  0  0  0  0  0  0  0  0  0
   37.6230   25.2060   34.6370 O   0  0  0  0  0  0  0  0  0  0  0  0
   38.7890   27.1050   36.9800 H   0  0  0  0  0  0  0  0  0  0  0  0
   38.0820   28.3810   34.7250 H   0  0  0  0  0  0  0  0  0  0  0  0
   38.3520   24.2490   36.8390 C   0  0  0  0  0  0  0  0  0  0  0  0
   37.6180   24.1720   37.8340 O   0  0  0  0  0  0  0  0  0  0  0  0
   39.4510   23.3590   36.5890 C   0  0  0  0  0  0  0  0  0  0  0  0
   39.9930   22.7040   37.6810 C   0  0  0  0  0  0  0  0  0  0  0  0
   41.0650   21.8330   37.4740 C   0  0  0  0  0  0  0  0  0  0  0  0
   41.5290   21.6700   36.1870 N   0  0  0  0  0  0  0  0  0  0  0  0
   40.9790   22.3210   35.1560 C   0  0  0  0  0  0  0  0  0  0  0  0
   39.9490   23.1590   35.3470 N   0  0  0  0  0  0  0  0  0  0  0  0
   39.5890   22.8680   38.6760 H   0  0  0  0  0  0  0  0  0  0  0  0
   41.4650   21.3370   38.3440 H   0  0  0  0  0  0  0  0  0  0  0  0
   41.4210   22.1190   34.1930 H   0  0  0  0  0  0  0  0  0  0  0  0
   37.4030   27.9330   32.0140 C   0  0  1  0  0  0  0  0  0  0  0  0
   36.3760   28.1950   30.8450 C   0  0  0  0  0  0  0  0  0  0  0  0
   36.4980   29.0750   32.0340 C   0  0  1  0  0  0  0  0  0  0  0  0
   38.4110   27.9260   31.5540 H   0  0  0  0  0  0  0  0  0  0  0  0
   36.7700   28.5320   29.8910 H   0  0  0  0  0  0  0  0  0  0  0  0
   35.5000   27.5540   30.7940 H   0  0  0  0  0  0  0  0  0  0  0  0
   36.9930   30.0700   31.8320 H   0  0  0  0  0  0  0  0  0  0  0  0
   35.3300   29.1760   32.9470 C   0  0  0  0  0  2  0  0  0  0  0  0
   35.1820   30.5800   33.5050 C   0  0  2  0  0  0  0  0  0  0  0  0
   35.6890   30.5580   34.9180 C   0  0  0  0  0  2  0  0  0  0  0  0
   34.7890   31.2860   35.7610 N   0  0  0  0  0  0  0  0  0  0  0  0
   34.2030   32.2020   36.6810 C   0  0  0  0  0  0  0  0  0  0  0  0
   34.6110   33.0500   37.5180 O   0  0  0  0  0  0  0  0  0  0  0  0
   32.8090   31.8260   36.3320 C   0  0  0  0  0  3  0  0  0  0  0  0
   32.2630   32.5110   35.6700 H   0  0  0  0  0  0  0  0  0  0  0  0
   33.4490   30.6970   35.6060 C   0  0  1  0  0  3  0  0  0  0  0  0
   33.3780   30.7990   33.7720 S   0  0  0  0  0  0  0  0  0  0  0  0
   35.7550   31.6410   32.6410 C   0  0  0  0  0  2  0  0  0  0  0  0
   35.0560   31.9530   31.8440 H   0  0  0  0  0  0  0  0  0  0  0  0
  1  6  1  0  0  0  0
  2  1  2  0  0  0  0
  3  4  2  0  0  0  0
  3 10  1  0  0  0  0
  4  8  1  0  0  0  0
  5  4  1  0  0  0  0
  6  7  1  0  0  0  0
  6  5  2  0  0  0  0
  7  3  1  0  0  0  0
  9  5  1  0  0  0  0
 10 11  2  0  0  0  0
 12 10  1  0  0  0  0
 12 13  1  0  0  0  0
 13 18  1  0  0  0  0
 14 13  2  0  0  0  0
 14 19  1  0  0  0  0
 15 14  1  0  0  0  0
 16 17  1  0  0  0  0
 16 15  2  0  0  0  0
 17 12  2  0  0  0  0
 20 16  1  0  0  0  0
 21 24  1  6  0  0  0
 21 23  1  0  0  0  0
 21  1  1  0  0  0  0
 22 21  1  0  0  0  0
 22 23  1  0  0  0  0
 23 27  1  6  0  0  0
 23 28  1  0  0  0  0
 25 22  1  0  0  0  0
 26 22  1  0  0  0  0
 28 29  1  0  0  0  0
 29 38  1  6  0  0  0
 29 37  1  0  0  0  0
 29 30  1  0  0  0  0
 30 31  1  0  0  0  0
 31 32  1  0  0  0  0
 32 33  2  0  0  0  0
 34 32  1  0  0  0  0
 35 34  1  0  0  0  0
 36 37  1  6  0  0  0
 36 31  1  0  0  0  0
 36 34  1  0  0  0  0
 39 38  1  0  0  0  0
M  END
>  <minimizedAffinity>
-6.12613487

$$$$

 OpenBabel03272507353D

 39 43  0  0  1  0  0  0  0  0999 V2000
   37.5480   26.4330   33.6340 C   0  0  0  0  0  0  0  0  0  0  0  0
   36.7060   27.3390   33.9470 O   0  0  0  0  0  0  0  0  0  0  0  0
   37.1310   23.5260   31.5930 C   0  0  0  0  0  0  0  0  0  0  0  0
   36.0670   24.2640   31.1270 C   0  0  0  0  0  0  0  0  0  0  0  0
   36.0600   25.4770   31.8290 C   0  0  0  0  0  0  0  0  0  0  0  0
   37.1350   25.3990   32.6880 C   0  0  0  0  0  0  0  0  0  0  0  0
   37.7310   24.2400   32.5140 O   0  0  0  0  0  0  0  0  0  0  0  0
   35.3230   24.0350   30.3670 H   0  0  0  0  0  0  0  0  0  0  0  0
   35.4050   26.3230   31.7730 H   0  0  0  0  0  0  0  0  0  0  0  0
   37.4430   22.2010   31.0810 C   0  0  0  0  0  0  0  0  0  0  0  0
   38.3160   22.0770   30.2100 O   0  0  0  0  0  0  0  0  0  0  0  0
   36.7020   21.0990   31.6300 C   0  0  0  0  0  0  0  0  0  0  0  0
   36.6220   19.9500   30.8630 C   0  0  0  0  0  0  0  0  0  0  0  0
   35.9070   18.8600   31.3660 C   0  0  0  0  0  0  0  0  0  0  0  0
   35.3180   18.9870   32.6050 N   0  0  0  0  0  0  0  0  0  0  0  0
   35.4180   20.1150   33.3160 C   0  0  0  0  0  0  0  0  0  0  0  0
   36.1020   21.1660   32.8400 N   0  0  0  0  0  0  0  0  0  0  0  0
   37.1050   19.9020   29.8920 H   0  0  0  0  0  0  0  0  0  0  0  0
   35.8630   17.9790   30.7470 H   0  0  0  0  0  0  0  0  0  0  0  0
   34.9180   20.1050   34.2710 H   0  0  0  0  0  0  0  0  0  0  0  0
   38.9310   26.4280   34.2130 C   0  0  1  0  0  0  0  0  0  0  0  0
   38.9210   27.1140   35.6340 C   0  0  0  0  0  0  0  0  0  0  0  0
   39.2470   25.6820   35.4250 C   0  0  1  0  0  0  0  0  0  0  0  0
   39.6640   26.9860   33.5980 H   0  0  0  0  0  0  0  0  0  0  0  0
   39.7190   27.8140   35.8640 H   0  0  0  0  0  0  0  0  0  0  0  0
   37.9540   27.3400   36.0760 H   0  0  0  0  0  0  0  0  0  0  0  0
   40.3410   25.4270   35.5470 H   0  0  0  0  0  0  0  0  0  0  0  0
   38.3390   24.6670   36.0190 C   0  0  0  0  0  2  0  0  0  0  0  0
   38.9490   23.2780   35.9670 C   0  0  2  0  0  0  0  0  0  0  0  0
   39.5320   22.9920   37.3210 C   0  0  0  0  0  2  0  0  0  0  0  0
   40.8240   22.3950   37.1690 N   0  0  0  0  0  0  0  0  0  0  0  0
   41.9560   21.5310   37.2250 C   0  0  0  0  0  0  0  0  0  0  0  0
   42.2980   20.5070   37.8740 O   0  0  0  0  0  0  0  0  0  0  0  0
   42.7060   22.2700   36.1780 C   0  0  0  0  0  3  0  0  0  0  0  0
   42.7170   21.8280   35.1730 H   0  0  0  0  0  0  0  0  0  0  0  0
   41.6470   23.3000   36.3520 C   0  0  1  0  0  3  0  0  0  0  0  0
   40.4680   23.4610   34.9500 S   0  0  0  0  0  0  0  0  0  0  0  0
   38.0390   22.2340   35.4340 C   0  0  0  0  0  2  0  0  0  0  0  0
   38.0380   22.2050   34.3300 H   0  0  0  0  0  0  0  0  0  0  0  0
  1  2  2  0  0  0  0
  1 21  1  0  0  0  0
  3  7  1  0  0  0  0
  4  3  2  0  0  0  0
  4  5  1  0  0  0  0
  5  6  2  0  0  0  0
  6  1  1  0  0  0  0
  7  6  1  0  0  0  0
  8  4  1  0  0  0  0
  9  5  1  0  0  0  0
 10  3  1  0  0  0  0
 10 12  1  0  0  0  0
 11 10  2  0  0  0  0
 12 17  1  0  0  0  0
 13 14  1  0  0  0  0
 13 12  2  0  0  0  0
 14 15  2  0  0  0  0
 15 16  1  0  0  0  0
 16 20  1  0  0  0  0
 17 16  2  0  0  0  0
 18 13  1  0  0  0  0
 19 14  1  0  0  0  0
 21 24  1  6  0  0  0
 21 23  1  0  0  0  0
 21 22  1  0  0  0  0
 22 25  1  0  0  0  0
 22 26  1  0  0  0  0
 23 27  1  1  0  0  0
 23 22  1  0  0  0  0
 23 28  1  0  0  0  0
 29 38  1  6  0  0  0
 29 28  1  0  0  0  0
 29 30  1  0  0  0  0
 31 32  1  0  0  0  0
 31 30  1  0  0  0  0
 32 33  2  0  0  0  0
 34 36  1  0  0  0  0
 34 32  1  0  0  0  0
 35 34  1  0  0  0  0
 36 37  1  6  0  0  0
 36 31  1  0  0  0  0
 37 29  1  0  0  0  0
 39 38  1  0  0  0  0
M  END
>  <minimizedAffinity>
-5.97085142

$$$$

 OpenBabel03272507353D

 39 43  0  0  1  0  0  0  0  0999 V2000
   37.7990   26.3940   33.4160 C   0  0  0  0  0  0  0  0  0  0  0  0
   37.2530   25.2470   33.2950 O   0  0  0  0  0  0  0  0  0  0  0  0
   35.5380   29.1400   33.0390 C   0  0  0  0  0  0  0  0  0  0  0  0
   36.2920   29.3310   31.9030 C   0  0  0  0  0  0  0  0  0  0  0  0
   37.2650   28.3230   31.8720 C   0  0  0  0  0  0  0  0  0  0  0  0
   37.0380   27.5720   33.0050 C   0  0  0  0  0  0  0  0  0  0  0  0
   36.0180   28.0870   33.6560 O   0  0  0  0  0  0  0  0  0  0  0  0
   36.2230   30.0880   31.1240 H   0  0  0  0  0  0  0  0  0  0  0  0
   38.0440   28.1130   31.1670 H   0  0  0  0  0  0  0  0  0  0  0  0
   34.4280   30.0110   33.3920 C   0  0  0  0  0  0  0  0  0  0  0  0
   33.4690   30.1160   32.6150 O   0  0  0  0  0  0  0  0  0  0  0  0
   34.5190   30.7060   34.6450 C   0  0  0  0  0  0  0  0  0  0  0  0
   35.7220   31.3250   34.9370 C   0  0  0  0  0  0  0  0  0  0  0  0
   35.8450   32.0080   36.1490 C   0  0  0  0  0  0  0  0  0  0  0  0
   34.7570   32.0310   36.9940 N   0  0  0  0  0  0  0  0  0  0  0  0
   33.6100   31.4200   36.6770 C   0  0  0  0  0  0  0  0  0  0  0  0
   33.4840   30.7620   35.5150 N   0  0  0  0  0  0  0  0  0  0  0  0
   36.5490   31.2760   34.2360 H   0  0  0  0  0  0  0  0  0  0  0  0
   36.7930   32.4810   36.3480 H   0  0  0  0  0  0  0  0  0  0  0  0
   32.8250   31.5010   37.4110 H   0  0  0  0  0  0  0  0  0  0  0  0
   39.1840   26.5370   33.9720 C   0  0  1  0  0  0  0  0  0  0  0  0
   39.1180   27.1200   35.4370 C   0  0  0  0  0  0  0  0  0  0  0  0
   39.6270   25.7610   35.1240 C   0  0  1  0  0  0  0  0  0  0  0  0
   39.8210   27.2280   33.3850 H   0  0  0  0  0  0  0  0  0  0  0  0
   39.8210   27.9030   35.7030 H   0  0  0  0  0  0  0  0  0  0  0  0
   38.1400   27.1830   35.9080 H   0  0  0  0  0  0  0  0  0  0  0  0
   40.7470   25.6480   35.2110 H   0  0  0  0  0  0  0  0  0  0  0  0
   38.8760   24.5960   35.6600 C   0  0  0  0  0  2  0  0  0  0  0  0
   39.6210   23.2960   35.4160 C   0  0  2  0  0  0  0  0  0  0  0  0
   39.8330   22.6420   36.7510 C   0  0  0  0  0  2  0  0  0  0  0  0
   41.1720   22.1440   36.8310 N   0  0  0  0  0  0  0  0  0  0  0  0
   42.3300   21.3270   36.9840 C   0  0  0  0  0  0  0  0  0  0  0  0
   42.5860   20.1660   37.4020 O   0  0  0  0  0  0  0  0  0  0  0  0
   43.2570   22.3540   36.4470 C   0  0  0  0  0  3  0  0  0  0  0  0
   43.5940   22.2240   35.4100 H   0  0  0  0  0  0  0  0  0  0  0  0
   42.0880   23.2660   36.5720 C   0  0  1  0  0  3  0  0  0  0  0  0
   41.3330   23.8000   34.9840 S   0  0  0  0  0  0  0  0  0  0  0  0
   39.0100   22.4320   34.3750 C   0  0  0  0  0  2  0  0  0  0  0  0
   39.3180   22.7250   33.3560 H   0  0  0  0  0  0  0  0  0  0  0  0
  1 21  1  0  0  0  0
  2  1  2  0  0  0  0
  3 10  1  0  0  0  0
  3  7  1  0  0  0  0
  4  3  2  0  0  0  0
  5  4  1  0  0  0  0
  5  6  2  0  0  0  0
  6  1  1  0  0  0  0
  6  7  1  0  0  0  0
  8  4  1  0  0  0  0
  9  5  1  0  0  0  0
 10 12  1  0  0  0  0
 11 10  2  0  0  0  0
 12 13  2  0  0  0  0
 12 17  1  0  0  0  0
 13 14  1  0  0  0  0
 14 19  1  0  0  0  0
 14 15  2  0  0  0  0
 16 15  1  0  0  0  0
 16 20  1  0  0  0  0
 17 16  2  0  0  0  0
 18 13  1  0  0  0  0
 21 24  1  6  0  0  0
 21 23  1  0  0  0  0
 21 22  1  0  0  0  0
 22 25  1  0  0  0  0
 22 26  1  0  0  0  0
 23 27  1  1  0  0  0
 23 22  1  0  0  0  0
 23 28  1  0  0  0  0
 29 38  1  6  0  0  0
 29 28  1  0  0  0  0
 29 30  1  0  0  0  0
 30 31  1  0  0  0  0
 31 32  1  0  0  0  0
 32 33  2  0  0  0  0
 34 36  1  0  0  0  0
 34 32  1  0  0  0  0
 35 34  1  0  0  0  0
 36 37  1  6  0  0  0
 36 31  1  0  0  0  0
 37 29  1  0  0  0  0
 39 38  1  0  0  0  0
M  END
>  <minimizedAffinity>
-5.82144642

$$$$

 OpenBabel03272507353D

 39 43  0  0  1  0  0  0  0  0999 V2000
   36.4550   28.1050   31.1740 C   0  0  0  0  0  0  0  0  0  0  0  0
   36.6800   28.3250   29.9370 O   0  0  0  0  0  0  0  0  0  0  0  0
   35.6390   30.3650   33.8230 C   0  0  0  0  0  0  0  0  0  0  0  0
   35.7050   31.2700   32.7890 C   0  0  0  0  0  0  0  0  0  0  0  0
   36.0260   30.5550   31.6270 C   0  0  0  0  0  0  0  0  0  0  0  0
   36.1350   29.2430   32.0340 C   0  0  0  0  0  0  0  0  0  0  0  0
   35.9010   29.1800   33.3270 O   0  0  0  0  0  0  0  0  0  0  0  0
   35.5540   32.3480   32.7770 H   0  0  0  0  0  0  0  0  0  0  0  0
   36.1710   30.8760   30.6150 H   0  0  0  0  0  0  0  0  0  0  0  0
   35.3250   30.7630   35.1860 C   0  0  0  0  0  0  0  0  0  0  0  0
   36.2430   31.1030   35.9460 O   0  0  0  0  0  0  0  0  0  0  0  0
   33.9410   30.7370   35.5700 C   0  0  0  0  0  0  0  0  0  0  0  0
   33.5290   31.6670   36.5090 C   0  0  0  0  0  0  0  0  0  0  0  0
   32.1900   31.6670   36.9060 C   0  0  0  0  0  0  0  0  0  0  0  0
   31.3460   30.7370   36.3400 N   0  0  0  0  0  0  0  0  0  0  0  0
   31.7810   29.8540   35.4360 C   0  0  0  0  0  0  0  0  0  0  0  0
   33.0650   29.8470   35.0490 N   0  0  0  0  0  0  0  0  0  0  0  0
   34.2370   32.3780   36.9240 H   0  0  0  0  0  0  0  0  0  0  0  0
   31.8990   32.4040   37.6380 H   0  0  0  0  0  0  0  0  0  0  0  0
   31.0350   29.1720   35.0600 H   0  0  0  0  0  0  0  0  0  0  0  0
   36.5080   26.7160   31.7340 C   0  0  1  0  0  0  0  0  0  0  0  0
   37.6640   25.8980   31.0370 C   0  0  0  0  0  0  0  0  0  0  0  0
   37.6660   26.2390   32.4810 C   0  0  1  0  0  0  0  0  0  0  0  0
   35.5730   26.1430   31.5720 H   0  0  0  0  0  0  0  0  0  0  0  0
   37.4500   24.8790   30.7300 H   0  0  0  0  0  0  0  0  0  0  0  0
   38.3530   26.4470   30.4000 H   0  0  0  0  0  0  0  0  0  0  0  0
   37.4540   25.3680   33.1680 H   0  0  0  0  0  0  0  0  0  0  0  0
   38.7390   27.1350   32.9830 C   0  0  0  0  0  2  0  0  0  0  0  0
   39.4950   26.5030   34.1380 C   0  0  2  0  0  0  0  0  0  0  0  0
   39.2480   25.0230   34.0790 C   0  0  0  0  0  2  0  0  0  0  0  0
   38.9770   24.5310   35.3960 N   0  0  0  0  0  0  0  0  0  0  0  0
   38.9920   23.8150   36.6280 C   0  0  0  0  0  0  0  0  0  0  0  0
   39.5470   22.7790   37.0810 O   0  0  0  0  0  0  0  0  0  0  0  0
   38.0580   24.7490   37.3060 C   0  0  0  0  0  3  0  0  0  0  0  0
   38.5020   25.4780   37.9980 H   0  0  0  0  0  0  0  0  0  0  0  0
   37.8440   25.2960   35.9400 C   0  0  1  0  0  3  0  0  0  0  0  0
   38.5480   26.9680   35.6410 S   0  0  0  0  0  0  0  0  0  0  0  0
   40.9200   26.9060   34.2250 C   0  0  0  0  0  2  0  0  0  0  0  0
   41.0500   27.8680   34.7510 H   0  0  0  0  0  0  0  0  0  0  0  0
  1 21  1  0  0  0  0
  1  6  1  0  0  0  0
  2  1  2  0  0  0  0
  3 10  1  0  0  0  0
  4  3  2  0  0  0  0
  5  6  2  0  0  0  0
  5  4  1  0  0  0  0
  6  7  1  0  0  0  0
  7  3  1  0  0  0  0
  8  4  1  0  0  0  0
  9  5  1  0  0  0  0
 10 12  1  0  0  0  0
 10 11  2  0  0  0  0
 12 13  1  0  0  0  0
 13 14  2  0  0  0  0
 13 18  1  0  0  0  0
 14 19  1  0  0  0  0
 15 14  1  0  0  0  0
 16 15  2  0  0  0  0
 17 16  1  0  0  0  0
 17 12  2  0  0  0  0
 20 16  1  0  0  0  0
 21 24  1  1  0  0  0
 21 23  1  0  0  0  0
 22 21  1  0  0  0  0
 22 23  1  0  0  0  0
 23 28  1  0  0  0  0
 23 27  1  1  0  0  0
 25 22  1  0  0  0  0
 26 22  1  0  0  0  0
 29 28  1  6  0  0  0
 29 38  1  0  0  0  0
 29 37  1  0  0  0  0
 30 29  1  0  0  0  0
 30 31  1  0  0  0  0
 31 36  1  0  0  0  0
 31 32  1  0  0  0  0
 32 33  2  0  0  0  0
 32 34  1  0  0  0  0
 34 35  1  0  0  0  0
 36 37  1  1  0  0  0
 36 34  1  0  0  0  0
 38 39  1  0  0  0  0
M  END
>  <minimizedAffinity>
-5.79989815

$$$$

 OpenBabel03272507353D

 39 43  0  0  1  0  0  0  0  0999 V2000
   37.0870   27.0110   31.5500 C   0  0  0  0  0  0  0  0  0  0  0  0
   36.2520   26.4490   30.7660 O   0  0  0  0  0  0  0  0  0  0  0  0
   38.1700   24.5140   33.8700 C   0  0  0  0  0  0  0  0  0  0  0  0
   39.1760   25.4330   34.0660 C   0  0  0  0  0  0  0  0  0  0  0  0
   38.9220   26.5190   33.2160 C   0  0  0  0  0  0  0  0  0  0  0  0
   37.7630   26.1870   32.5500 C   0  0  0  0  0  0  0  0  0  0  0  0
   37.3590   25.0060   32.9650 O   0  0  0  0  0  0  0  0  0  0  0  0
   40.0410   25.4100   34.7260 H   0  0  0  0  0  0  0  0  0  0  0  0
   39.4560   27.4340   33.0590 H   0  0  0  0  0  0  0  0  0  0  0  0
   38.1160   23.2540   34.5950 C   0  0  0  0  0  0  0  0  0  0  0  0
   37.8290   22.2150   33.9850 O   0  0  0  0  0  0  0  0  0  0  0  0
   38.4040   23.2990   36.0010 C   0  0  0  0  0  0  0  0  0  0  0  0
   39.6010   22.7410   36.4170 C   0  0  0  0  0  0  0  0  0  0  0  0
   39.9130   22.7660   37.7790 C   0  0  0  0  0  0  0  0  0  0  0  0
   39.0080   23.3470   38.6400 N   0  0  0  0  0  0  0  0  0  0  0  0
   37.8610   23.8760   38.2000 C   0  0  0  0  0  0  0  0  0  0  0  0
   37.5550   23.8560   36.8950 N   0  0  0  0  0  0  0  0  0  0  0  0
   40.2790   22.2960   35.6960 H   0  0  0  0  0  0  0  0  0  0  0  0
   40.8510   22.3250   38.0720 H   0  0  0  0  0  0  0  0  0  0  0  0
   37.2270   24.3030   38.9610 H   0  0  0  0  0  0  0  0  0  0  0  0
   37.3790   28.4780   31.4470 C   0  0  1  0  0  0  0  0  0  0  0  0
   36.4680   29.1310   30.3350 C   0  0  0  0  0  0  0  0  0  0  0  0
   36.3720   29.4800   31.7750 C   0  0  1  0  0  0  0  0  0  0  0  0
   38.4280   28.6960   31.1640 H   0  0  0  0  0  0  0  0  0  0  0  0
   36.9310   29.8300   29.6470 H   0  0  0  0  0  0  0  0  0  0  0  0
   35.6680   28.5220   29.9220 H   0  0  0  0  0  0  0  0  0  0  0  0
   36.7890   30.4950   32.0390 H   0  0  0  0  0  0  0  0  0  0  0  0
   35.1060   29.1630   32.4840 C   0  0  0  0  0  2  0  0  0  0  0  0
   35.2010   29.4950   33.9630 C   0  0  2  0  0  0  0  0  0  0  0  0
   33.8080   29.4460   34.5240 C   0  0  0  0  0  2  0  0  0  0  0  0
   33.6000   30.5700   35.3840 N   0  0  0  0  0  0  0  0  0  0  0  0
   33.3080   31.4240   36.4880 C   0  0  0  0  0  0  0  0  0  0  0  0
   32.7880   31.3040   37.6280 O   0  0  0  0  0  0  0  0  0  0  0  0
   33.8560   32.6380   35.8320 C   0  0  0  0  0  3  0  0  0  0  0  0
   34.8550   32.9640   36.1510 H   0  0  0  0  0  0  0  0  0  0  0  0
   33.8800   31.7900   34.6100 C   0  0  1  0  0  3  0  0  0  0  0  0
   35.5520   31.2970   34.0260 S   0  0  0  0  0  0  0  0  0  0  0  0
   36.2120   28.7000   34.7010 C   0  0  0  0  0  2  0  0  0  0  0  0
   37.2270   29.1240   34.6070 H   0  0  0  0  0  0  0  0  0  0  0  0
  1  6  1  0  0  0  0
  2  1  2  0  0  0  0
  3  4  2  0  0  0  0
  3 10  1  0  0  0  0
  4  8  1  0  0  0  0
  5  4  1  0  0  0  0
  6  7  1  0  0  0  0
  6  5  2  0  0  0  0
  7  3  1  0  0  0  0
  9  5  1  0  0  0  0
 10 12  1  0  0  0  0
 11 10  2  0  0  0  0
 12 13  2  0  0  0  0
 12 17  1  0  0  0  0
 13 14  1  0  0  0  0
 14 19  1  0  0  0  0
 14 15  2  0  0  0  0
 16 15  1  0  0  0  0
 16 20  1  0  0  0  0
 17 16  2  0  0  0  0
 18 13  1  0  0  0  0
 21 24  1  1  0  0  0
 21  1  1  0  0  0  0
 21 23  1  0  0  0  0
 22 21  1  0  0  0  0
 22 23  1  0  0  0  0
 23 27  1  1  0  0  0
 23 28  1  0  0  0  0
 25 22  1  0  0  0  0
 26 22  1  0  0  0  0
 29 28  1  6  0  0  0
 29 37  1  0  0  0  0
 29 30  1  0  0  0  0
 29 38  1  0  0  0  0
 30 31  1  0  0  0  0
 31 32  1  0  0  0  0
 32 33  2  0  0  0  0
 34 35  1  0  0  0  0
 34 32  1  0  0  0  0
 36 37  1  1  0  0  0
 36 31  1  0  0  0  0
 36 34  1  0  0  0  0
 39 38  1  0  0  0  0
M  END
>  <minimizedAffinity>
-5.78038359

$$$$

 OpenBabel03272507353D

 39 43  0  0  1  0  0  0  0  0999 V2000
   36.1690   27.5640   31.6060 C   0  0  0  0  0  0  0  0  0  0  0  0
   36.3990   28.0500   30.4480 O   0  0  0  0  0  0  0  0  0  0  0  0
   33.9930   29.5210   33.6610 C   0  0  0  0  0  0  0  0  0  0  0  0
   35.1740   29.7530   34.3270 C   0  0  0  0  0  0  0  0  0  0  0  0
   36.1800   29.0470   33.6530 C   0  0  0  0  0  0  0  0  0  0  0  0
   35.5370   28.4220   32.6060 C   0  0  0  0  0  0  0  0  0  0  0  0
   34.2590   28.7290   32.6510 O   0  0  0  0  0  0  0  0  0  0  0  0
   35.3860   30.3510   35.2110 H   0  0  0  0  0  0  0  0  0  0  0  0
   37.2310   28.9580   33.8420 H   0  0  0  0  0  0  0  0  0  0  0  0
   32.7310   30.1040   34.0890 C   0  0  0  0  0  0  0  0  0  0  0  0
   32.4190   31.2350   33.6900 O   0  0  0  0  0  0  0  0  0  0  0  0
   31.9110   29.3140   34.9650 C   0  0  0  0  0  0  0  0  0  0  0  0
   32.0160   29.5640   36.3220 C   0  0  0  0  0  0  0  0  0  0  0  0
   31.2340   28.8120   37.2020 C   0  0  0  0  0  0  0  0  0  0  0  0
   30.3970   27.8560   36.6700 N   0  0  0  0  0  0  0  0  0  0  0  0
   30.3240   27.6430   35.3520 C   0  0  0  0  0  0  0  0  0  0  0  0
   31.0710   28.3610   34.5010 N   0  0  0  0  0  0  0  0  0  0  0  0
   32.6920   30.3300   36.6890 H   0  0  0  0  0  0  0  0  0  0  0  0
   31.3370   29.0300   38.2530 H   0  0  0  0  0  0  0  0  0  0  0  0
   29.6360   26.8710   35.0460 H   0  0  0  0  0  0  0  0  0  0  0  0
   36.5280   26.1460   31.9350 C   0  0  1  0  0  0  0  0  0  0  0  0
   37.7310   25.6720   31.0300 C   0  0  0  0  0  0  0  0  0  0  0  0
   37.8250   25.8010   32.5060 C   0  0  1  0  0  0  0  0  0  0  0  0
   35.6990   25.4330   31.7570 H   0  0  0  0  0  0  0  0  0  0  0  0
   37.6710   24.6840   30.5840 H   0  0  0  0  0  0  0  0  0  0  0  0
   38.2400   26.4270   30.4370 H   0  0  0  0  0  0  0  0  0  0  0  0
   37.8450   24.8180   33.0610 H   0  0  0  0  0  0  0  0  0  0  0  0
   38.7670   26.8070   33.0580 C   0  0  0  0  0  2  0  0  0  0  0  0
   39.5040   26.2700   34.2720 C   0  0  2  0  0  0  0  0  0  0  0  0
   39.3560   24.7760   34.2620 C   0  0  0  0  0  2  0  0  0  0  0  0
   39.0520   24.3170   35.5830 N   0  0  0  0  0  0  0  0  0  0  0  0
   39.0510   23.6500   36.8430 C   0  0  0  0  0  0  0  0  0  0  0  0
   39.6480   22.6710   37.3630 O   0  0  0  0  0  0  0  0  0  0  0  0
   38.0270   24.5460   37.4370 C   0  0  0  0  0  3  0  0  0  0  0  0
   38.3880   25.3270   38.1190 H   0  0  0  0  0  0  0  0  0  0  0  0
   37.8460   25.0260   36.0410 C   0  0  1  0  0  3  0  0  0  0  0  0
   38.4560   26.7280   35.7080 S   0  0  0  0  0  0  0  0  0  0  0  0
   40.8950   26.7700   34.4090 C   0  0  0  0  0  2  0  0  0  0  0  0
   40.9360   27.7570   34.9010 H   0  0  0  0  0  0  0  0  0  0  0  0
  1 21  1  0  0  0  0
  1  6  1  0  0  0  0
  2  1  2  0  0  0  0
  3 10  1  0  0  0  0
  3  4  2  0  0  0  0
  4  8  1  0  0  0  0
  5  9  1  0  0  0  0
  5  4  1  0  0  0  0
  6  7  1  0  0  0  0
  6  5  2  0  0  0  0
  7  3  1  0  0  0  0
 10 12  1  0  0  0  0
 11 10  2  0  0  0  0
 12 13  1  0  0  0  0
 13 18  1  0  0  0  0
 13 14  2  0  0  0  0
 14 19  1  0  0  0  0
 15 14  1  0  0  0  0
 16 15  2  0  0  0  0
 17 12  2  0  0  0  0
 17 16  1  0  0  0  0
 20 16  1  0  0  0  0
 21 24  1  1  0  0  0
 21 23  1  0  0  0  0
 22 21  1  0  0  0  0
 22 23  1  0  0  0  0
 23 28  1  0  0  0  0
 23 27  1  1  0  0  0
 25 22  1  0  0  0  0
 26 22  1  0  0  0  0
 29 28  1  6  0  0  0
 29 38  1  0  0  0  0
 29 37  1  0  0  0  0
 30 29  1  0  0  0  0
 30 31  1  0  0  0  0
 31 36  1  0  0  0  0
 31 32  1  0  0  0  0
 32 33  2  0  0  0  0
 32 34  1  0  0  0  0
 34 35  1  0  0  0  0
 36 37  1  1  0  0  0
 36 34  1  0  0  0  0
 38 39  1  0  0  0  0
M  END
>  <minimizedAffinity>
-5.76397896

$$$$

 OpenBabel03272507353D

 39 43  0  0  1  0  0  0  0  0999 V2000
   36.6140   27.8920   33.9720 C   0  0  0  0  0  0  0  0  0  0  0  0
   35.6620   28.6110   34.4260 O   0  0  0  0  0  0  0  0  0  0  0  0
   38.0340   25.4940   36.2140 C   0  0  0  0  0  0  0  0  0  0  0  0
   38.9890   26.4790   36.3280 C   0  0  0  0  0  0  0  0  0  0  0  0
   38.5990   27.5380   35.4960 C   0  0  0  0  0  0  0  0  0  0  0  0
   37.4170   27.1240   34.9220 C   0  0  0  0  0  0  0  0  0  0  0  0
   37.1260   25.9230   35.3710 O   0  0  0  0  0  0  0  0  0  0  0  0
   39.9010   26.5200   36.9210 H   0  0  0  0  0  0  0  0  0  0  0  0
   39.0570   28.4850   35.2940 H   0  0  0  0  0  0  0  0  0  0  0  0
   38.1190   24.2410   36.9470 C   0  0  0  0  0  0  0  0  0  0  0  0
   37.2550   23.9730   37.7930 O   0  0  0  0  0  0  0  0  0  0  0  0
   39.2230   23.3760   36.6340 C   0  0  0  0  0  0  0  0  0  0  0  0
   39.4670   23.1260   35.2950 C   0  0  0  0  0  0  0  0  0  0  0  0
   40.5320   22.2880   34.9540 C   0  0  0  0  0  0  0  0  0  0  0  0
   41.2860   21.7520   35.9750 N   0  0  0  0  0  0  0  0  0  0  0  0
   41.0190   22.0170   37.2590 C   0  0  0  0  0  0  0  0  0  0  0  0
   39.9980   22.8200   37.5930 N   0  0  0  0  0  0  0  0  0  0  0  0
   38.8420   23.5750   34.5290 H   0  0  0  0  0  0  0  0  0  0  0  0
   40.6980   22.1130   33.9040 H   0  0  0  0  0  0  0  0  0  0  0  0
   41.6720   21.5440   37.9740 H   0  0  0  0  0  0  0  0  0  0  0  0
   36.9000   27.8250   32.5020 C   0  0  1  0  0  0  0  0  0  0  0  0
   38.4130   27.4450   32.2650 C   0  0  0  0  0  0  0  0  0  0  0  0
   37.2820   26.5760   31.8560 C   0  0  1  0  0  0  0  0  0  0  0  0
   36.7310   28.7880   31.9800 H   0  0  0  0  0  0  0  0  0  0  0  0
   38.9620   27.9970   31.5090 H   0  0  0  0  0  0  0  0  0  0  0  0
   38.9920   27.1260   33.1290 H   0  0  0  0  0  0  0  0  0  0  0  0
   37.0930   26.5470   30.7430 H   0  0  0  0  0  0  0  0  0  0  0  0
   37.1540   25.2470   32.5080 C   0  0  0  0  0  2  0  0  0  0  0  0
   36.6060   24.2080   31.5460 C   0  0  2  0  0  0  0  0  0  0  0  0
   36.5340   22.9040   32.2880 C   0  0  0  0  0  2  0  0  0  0  0  0
   37.0280   21.8510   31.4530 N   0  0  0  0  0  0  0  0  0  0  0  0
   37.1850   20.6560   30.6930 C   0  0  0  0  0  0  0  0  0  0  0  0
   36.5710   19.5640   30.5620 O   0  0  0  0  0  0  0  0  0  0  0  0
   38.4250   21.1190   30.0210 C   0  0  0  0  0  3  0  0  0  0  0  0
   38.3240   21.4790   28.9880 H   0  0  0  0  0  0  0  0  0  0  0  0
   38.3900   22.2130   31.0280 C   0  0  1  0  0  3  0  0  0  0  0  0
   37.9760   23.8780   30.3680 S   0  0  0  0  0  0  0  0  0  0  0  0
   35.3580   24.6160   30.8560 C   0  0  0  0  0  2  0  0  0  0  0  0
   35.5580   25.2400   29.9670 H   0  0  0  0  0  0  0  0  0  0  0  0
  1  2  2  0  0  0  0
  1  6  1  0  0  0  0
  3  4  2  0  0  0  0
  3 10  1  0  0  0  0
  4  8  1  0  0  0  0
  5  4  1  0  0  0  0
  6  7  1  0  0  0  0
  6  5  2  0  0  0  0
  7  3  1  0  0  0  0
  9  5  1  0  0  0  0
 10 11  2  0  0  0  0
 12 10  1  0  0  0  0
 12 17  1  0  0  0  0
 13 12  2  0  0  0  0
 14 13  1  0  0  0  0
 14 15  2  0  0  0  0
 15 16  1  0  0  0  0
 16 17  2  0  0  0  0
 16 20  1  0  0  0  0
 18 13  1  0  0  0  0
 19 14  1  0  0  0  0
 21 24  1  6  0  0  0
 21  1  1  0  0  0  0
 22 21  1  0  0  0  0
 22 26  1  0  0  0  0
 23 27  1  6  0  0  0
 23 22  1  0  0  0  0
 23 21  1  0  0  0  0
 23 28  1  0  0  0  0
 25 22  1  0  0  0  0
 29 38  1  6  0  0  0
 29 30  1  0  0  0  0
 29 28  1  0  0  0  0
 31 30  1  0  0  0  0
 32 31  1  0  0  0  0
 33 32  2  0  0  0  0
 34 32  1  0  0  0  0
 35 34  1  0  0  0  0
 36 34  1  6  0  0  0
 36 31  1  0  0  0  0
 37 36  1  0  0  0  0
 37 29  1  0  0  0  0
 39 38  1  0  0  0  0
M  END
>  <minimizedAffinity>
-5.72101212

$$$$

 OpenBabel03272507353D

 39 43  0  0  1  0  0  0  0  0999 V2000
   37.7390   26.4080   33.5210 C   0  0  0  0  0  0  0  0  0  0  0  0
   37.2120   25.2840   33.2250 O   0  0  0  0  0  0  0  0  0  0  0  0
   35.5140   29.1850   33.8750 C   0  0  0  0  0  0  0  0  0  0  0  0
   35.9710   29.4440   32.6030 C   0  0  0  0  0  0  0  0  0  0  0  0
   36.8850   28.4340   32.2740 C   0  0  0  0  0  0  0  0  0  0  0  0
   36.9250   27.6140   33.3810 C   0  0  0  0  0  0  0  0  0  0  0  0
   36.1070   28.0930   34.2920 O   0  0  0  0  0  0  0  0  0  0  0  0
   35.7300   30.2490   31.9120 H   0  0  0  0  0  0  0  0  0  0  0  0
   37.4630   28.2640   31.3880 H   0  0  0  0  0  0  0  0  0  0  0  0
   34.5420   30.0390   34.5410 C   0  0  0  0  0  0  0  0  0  0  0  0
   34.9160   31.1120   35.0350 O   0  0  0  0  0  0  0  0  0  0  0  0
   33.1840   29.5730   34.5820 C   0  0  0  0  0  0  0  0  0  0  0  0
   32.4460   29.6790   33.4160 C   0  0  0  0  0  0  0  0  0  0  0  0
   31.1210   29.2360   33.4220 C   0  0  0  0  0  0  0  0  0  0  0  0
   30.6170   28.7150   34.5930 N   0  0  0  0  0  0  0  0  0  0  0  0
   31.3620   28.6290   35.7000 C   0  0  0  0  0  0  0  0  0  0  0  0
   32.6340   29.0520   35.7030 N   0  0  0  0  0  0  0  0  0  0  0  0
   32.8930   30.0980   32.5200 H   0  0  0  0  0  0  0  0  0  0  0  0
   30.5720   29.3310   32.4990 H   0  0  0  0  0  0  0  0  0  0  0  0
   30.8660   28.2060   36.5590 H   0  0  0  0  0  0  0  0  0  0  0  0
   39.1540   26.4950   34.0080 C   0  0  1  0  0  0  0  0  0  0  0  0
   39.1810   27.0610   35.4810 C   0  0  0  0  0  0  0  0  0  0  0  0
   39.6240   25.6890   35.1290 C   0  0  1  0  0  0  0  0  0  0  0  0
   39.7860   27.1700   33.3980 H   0  0  0  0  0  0  0  0  0  0  0  0
   39.9240   27.8150   35.7200 H   0  0  0  0  0  0  0  0  0  0  0  0
   38.2310   27.1530   36.0010 H   0  0  0  0  0  0  0  0  0  0  0  0
   40.7430   25.5360   35.1590 H   0  0  0  0  0  0  0  0  0  0  0  0
   38.8600   24.5450   35.6890 C   0  0  0  0  0  2  0  0  0  0  0  0
   39.5870   23.2310   35.4690 C   0  0  2  0  0  0  0  0  0  0  0  0
   39.8290   22.6200   36.8200 C   0  0  0  0  0  2  0  0  0  0  0  0
   41.1650   22.1110   36.8820 N   0  0  0  0  0  0  0  0  0  0  0  0
   42.3200   21.2890   37.0310 C   0  0  0  0  0  0  0  0  0  0  0  0
   42.5770   20.1410   37.4800 O   0  0  0  0  0  0  0  0  0  0  0  0
   43.2410   22.2900   36.4360 C   0  0  0  0  0  3  0  0  0  0  0  0
   43.5490   22.1220   35.3950 H   0  0  0  0  0  0  0  0  0  0  0  0
   42.0840   23.2150   36.5610 C   0  0  1  0  0  3  0  0  0  0  0  0
   41.2910   23.7040   34.9760 S   0  0  0  0  0  0  0  0  0  0  0  0
   38.9410   22.3380   34.4740 C   0  0  0  0  0  2  0  0  0  0  0  0
   39.2250   22.5950   33.4380 H   0  0  0  0  0  0  0  0  0  0  0  0
  1 21  1  0  0  0  0
  2  1  2  0  0  0  0
  3  7  1  0  0  0  0
  3 10  1  0  0  0  0
  4  3  2  0  0  0  0
  5  4  1  0  0  0  0
  5  6  2  0  0  0  0
  6  1  1  0  0  0  0
  6  7  1  0  0  0  0
  8  4  1  0  0  0  0
  9  5  1  0  0  0  0
 10 12  1  0  0  0  0
 10 11  2  0  0  0  0
 12 17  1  0  0  0  0
 13 14  1  0  0  0  0
 13 12  2  0  0  0  0
 14 15  2  0  0  0  0
 15 16  1  0  0  0  0
 16 17  2  0  0  0  0
 16 20  1  0  0  0  0
 18 13  1  0  0  0  0
 19 14  1  0  0  0  0
 21 24  1  6  0  0  0
 21 23  1  0  0  0  0
 21 22  1  0  0  0  0
 22 25  1  0  0  0  0
 22 26  1  0  0  0  0
 23 27  1  1  0  0  0
 23 22  1  0  0  0  0
 23 28  1  0  0  0  0
 29 38  1  6  0  0  0
 29 28  1  0  0  0  0
 29 30  1  0  0  0  0
 30 31  1  0  0  0  0
 31 32  1  0  0  0  0
 32 33  2  0  0  0  0
 34 36  1  0  0  0  0
 34 32  1  0  0  0  0
 35 34  1  0  0  0  0
 36 37  1  6  0  0  0
 36 31  1  0  0  0  0
 37 29  1  0  0  0  0
 39 38  1  0  0  0  0
M  END
>  <minimizedAffinity>
-5.6444912

$$$$

 OpenBabel03272507353D

 39 43  0  0  1  0  0  0  0  0999 V2000
   37.7490   26.3850   33.4930 C   0  0  0  0  0  0  0  0  0  0  0  0
   37.2130   25.2560   33.2340 O   0  0  0  0  0  0  0  0  0  0  0  0
   35.5530   29.1830   33.8670 C   0  0  0  0  0  0  0  0  0  0  0  0
   35.9430   29.3950   32.5650 C   0  0  0  0  0  0  0  0  0  0  0  0
   36.8360   28.3700   32.2230 C   0  0  0  0  0  0  0  0  0  0  0  0
   36.9320   27.5890   33.3540 C   0  0  0  0  0  0  0  0  0  0  0  0
   36.1640   28.1030   34.2900 O   0  0  0  0  0  0  0  0  0  0  0  0
   35.6680   30.1770   31.8590 H   0  0  0  0  0  0  0  0  0  0  0  0
   37.3660   28.1670   31.3150 H   0  0  0  0  0  0  0  0  0  0  0  0
   34.6200   30.0640   34.5530 C   0  0  0  0  0  0  0  0  0  0  0  0
   33.5780   29.5920   35.0270 O   0  0  0  0  0  0  0  0  0  0  0  0
   34.9780   31.4530   34.6370 C   0  0  0  0  0  0  0  0  0  0  0  0
   35.9680   31.7940   35.5420 C   0  0  0  0  0  0  0  0  0  0  0  0
   36.3390   33.1370   35.6510 C   0  0  0  0  0  0  0  0  0  0  0  0
   35.6960   34.0540   34.8490 N   0  0  0  0  0  0  0  0  0  0  0  0
   34.7430   33.6850   33.9860 C   0  0  0  0  0  0  0  0  0  0  0  0
   34.3820   32.3980   33.8760 N   0  0  0  0  0  0  0  0  0  0  0  0
   36.4430   31.0310   36.1510 H   0  0  0  0  0  0  0  0  0  0  0  0
   37.1130   33.3720   36.3630 H   0  0  0  0  0  0  0  0  0  0  0  0
   34.3070   34.4850   33.4090 H   0  0  0  0  0  0  0  0  0  0  0  0
   39.1770   26.4790   33.9390 C   0  0  1  0  0  0  0  0  0  0  0  0
   39.2490   27.0970   35.3890 C   0  0  0  0  0  0  0  0  0  0  0  0
   39.6740   25.7100   35.0730 C   0  0  1  0  0  0  0  0  0  0  0  0
   39.7960   27.1290   33.2880 H   0  0  0  0  0  0  0  0  0  0  0  0
   40.0020   27.8540   35.5810 H   0  0  0  0  0  0  0  0  0  0  0  0
   38.3140   27.2130   35.9310 H   0  0  0  0  0  0  0  0  0  0  0  0
   40.7920   25.5510   35.0780 H   0  0  0  0  0  0  0  0  0  0  0  0
   38.9190   24.5920   35.6950 C   0  0  0  0  0  2  0  0  0  0  0  0
   39.6170   23.2620   35.4750 C   0  0  2  0  0  0  0  0  0  0  0  0
   39.8910   22.6700   36.8280 C   0  0  0  0  0  2  0  0  0  0  0  0
   41.2200   22.1400   36.8570 N   0  0  0  0  0  0  0  0  0  0  0  0
   42.3660   21.3010   36.9850 C   0  0  0  0  0  0  0  0  0  0  0  0
   42.6180   20.1570   37.4460 O   0  0  0  0  0  0  0  0  0  0  0  0
   43.2840   22.2750   36.3430 C   0  0  0  0  0  3  0  0  0  0  0  0
   43.5560   22.0840   35.2970 H   0  0  0  0  0  0  0  0  0  0  0  0
   42.1470   23.2230   36.4880 C   0  0  1  0  0  3  0  0  0  0  0  0
   41.3120   23.6970   34.9200 S   0  0  0  0  0  0  0  0  0  0  0  0
   38.9260   22.3630   34.5170 C   0  0  0  0  0  2  0  0  0  0  0  0
   39.1800   22.5970   33.4690 H   0  0  0  0  0  0  0  0  0  0  0  0
  1 21  1  0  0  0  0
  2  1  2  0  0  0  0
  3  7  1  0  0  0  0
  3 10  1  0  0  0  0
  4  3  2  0  0  0  0
  5  4  1  0  0  0  0
  5  6  2  0  0  0  0
  6  1  1  0  0  0  0
  6  7  1  0  0  0  0
  8  4  1  0  0  0  0
  9  5  1  0  0  0  0
 10 12  1  0  0  0  0
 10 11  2  0  0  0  0
 12 13  1  0  0  0  0
 13 14  2  0  0  0  0
 13 18  1  0  0  0  0
 14 19  1  0  0  0  0
 15 14  1  0  0  0  0
 16 15  2  0  0  0  0
 17 16  1  0  0  0  0
 17 12  2  0  0  0  0
 20 16  1  0  0  0  0
 21 24  1  6  0  0  0
 21 23  1  0  0  0  0
 21 22  1  0  0  0  0
 22 25  1  0  0  0  0
 22 26  1  0  0  0  0
 23 27  1  6  0  0  0
 23 22  1  0  0  0  0
 23 28  1  0  0  0  0
 29 38  1  6  0  0  0
 29 28  1  0  0  0  0
 29 30  1  0  0  0  0
 30 31  1  0  0  0  0
 31 32  1  0  0  0  0
 32 33  2  0  0  0  0
 34 36  1  0  0  0  0
 34 32  1  0  0  0  0
 35 34  1  0  0  0  0
 36 37  1  6  0  0  0
 36 31  1  0  0  0  0
 37 29  1  0  0  0  0
 39 38  1  0  0  0  0
M  END
>  <minimizedAffinity>
-5.63542366

$$$$
