
 OpenBabel03262521183D

 32 34  0  0  1  0  0  0  0  0999 V2000
   38.4880   32.3450   46.5550 C   0  0  0  0  0  0  0  0  0  0  0  0
   39.8140   32.7830   46.4530 C   0  0  0  0  0  0  0  0  0  0  0  0
   40.3930   32.8750   45.1910 C   0  0  0  0  0  0  0  0  0  0  0  0
   39.6280   32.5290   44.1110 N   0  0  0  0  0  0  0  0  0  0  0  0
   38.3360   32.1050   44.2500 C   0  0  0  0  0  0  0  0  0  0  0  0
   37.8010   32.0240   45.4530 N   0  0  0  0  0  0  0  0  0  0  0  0
   40.4630   33.0680   47.2680 H   0  0  0  0  0  0  0  0  0  0  0  0
   41.4160   33.2080   45.0600 H   0  0  0  0  0  0  0  0  0  0  0  0
   38.0510   32.3050   47.8700 O   0  0  0  0  0  0  0  0  0  0  0  0
   37.1080   31.3490   48.1850 C   0  0  0  0  0  0  0  0  0  0  0  0
   36.2880   31.8720   48.7550 H   0  0  0  0  0  0  0  0  0  0  0  0
   36.5850   30.9000   47.3130 H   0  0  0  0  0  0  0  0  0  0  0  0
   37.8770   30.5170   48.9080 C   0  0  0  0  0  0  0  0  0  0  0  0
   37.4220   29.4810   48.9370 H   0  0  0  0  0  0  0  0  0  0  0  0
   38.8720   30.2720   48.4460 H   0  0  0  0  0  0  0  0  0  0  0  0
   38.1750   30.8920   50.3210 C   0  0  0  0  0  0  0  0  0  0  0  0
   37.8750   31.9540   50.4620 H   0  0  0  0  0  0  0  0  0  0  0  0
   39.2530   30.8610   50.5790 H   0  0  0  0  0  0  0  0  0  0  0  0
   37.2320   29.9240   51.5050 S   0  0  0  0  0  0  0  0  0  0  0  0
   37.0240   30.5870   52.7300 H   0  0  0  0  0  0  0  0  0  0  0  0
   37.5220   31.7340   43.0610 C   0  0  0  0  0  2  0  0  0  0  0  0
   37.2430   30.2600   43.1600 C   0  0  2  0  0  0  0  0  0  0  0  0
   38.3960   29.4550   43.7000 C   0  0  0  0  0  2  0  0  0  0  0  0
   39.3430   29.2410   42.6550 N   0  0  0  0  0  0  0  0  0  0  0  0
   40.5730   29.2170   41.9330 C   0  0  0  0  0  0  0  0  0  0  0  0
   41.8090   29.1640   42.1850 O   0  0  0  0  0  0  0  0  0  0  0  0
   39.7750   29.2840   40.6800 C   0  0  0  0  0  3  0  0  0  0  0  0
   39.5500   30.3420   40.4360 H   0  0  0  0  0  0  0  0  0  0  0  0
   38.7120   28.6510   41.5130 C   0  0  2  0  0  3  0  0  0  0  0  0
   37.1140   29.5540   41.4910 S   0  0  0  0  0  0  0  0  0  0  0  0
   35.9830   30.0500   43.9520 C   0  0  0  0  0  2  0  0  0  0  0  0
   36.1190   29.3710   44.8350 H   0  0  0  0  0  0  0  0  0  0  0  0
  1  9  1  0  0  0  0
  2  1  1  0  0  0  0
  2  7  1  0  0  0  0
  3  2  2  0  0  0  0
  4  5  2  0  0  0  0
  4  3  1  0  0  0  0
  5  6  1  0  0  0  0
  6  1  2  0  0  0  0
  8  3  1  0  0  0  0
  9 10  1  0  0  0  0
 10 11  1  0  0  0  0
 10 13  1  0  0  0  0
 12 10  1  0  0  0  0
 13 14  1  0  0  0  0
 13 16  1  0  0  0  0
 15 13  1  0  0  0  0
 16 17  1  0  0  0  0
 16 18  1  0  0  0  0
 16 19  1  0  0  0  0
 19 20  1  0  0  0  0
 21  5  1  0  0  0  0
 22 21  1  6  0  0  0
 22 23  1  0  0  0  0
 22 31  1  0  0  0  0
 24 23  1  0  0  0  0
 25 26  2  0  0  0  0
 25 24  1  0  0  0  0
 27 25  1  0  0  0  0
 28 27  1  0  0  0  0
 29 27  1  6  0  0  0
 29 24  1  0  0  0  0
 30 29  1  0  0  0  0
 30 22  1  0  0  0  0
 31 32  1  0  0  0  0
M  END
>  <minimizedAffinity>
-4.5601244

>  <minimizedRMSD>
4.25983524

$$$$
