
 OpenBabel03272500223D

 40 44  0  0  1  0  0  0  0  0999 V2000
   35.6520   31.2560   49.6540 C   0  0  0  0  0  0  0  0  0  0  0  0
   36.7940   31.3330   48.8040 C   0  0  0  0  0  0  0  0  0  0  0  0
   36.8280   30.5610   47.6400 C   0  0  0  0  0  0  0  0  0  0  0  0
   35.7340   29.7740   47.4020 N   0  0  0  0  0  0  0  0  0  0  0  0
   34.6900   29.7060   48.1820 C   0  0  0  0  0  0  0  0  0  0  0  0
   34.6280   30.4360   49.3100 N   0  0  0  0  0  0  0  0  0  0  0  0
   35.6090   31.8470   50.5590 H   0  0  0  0  0  0  0  0  0  0  0  0
   32.6880   30.8400   46.2090 Cl  0  0  0  0  0  0  0  0  0  0  0  0
   32.5960   29.2270   46.9160 C   0  0  0  0  0  0  0  0  0  0  0  0
   33.5740   28.8140   47.8110 C   0  0  0  0  0  0  0  0  0  0  0  0
   33.5520   27.5420   48.4040 C   0  0  0  0  0  0  0  0  0  0  0  0
   32.4860   26.7240   48.0350 C   0  0  0  0  0  0  0  0  0  0  0  0
   31.5110   27.1110   47.1550 C   0  0  0  0  0  0  0  0  0  0  0  0
   30.2320   25.9780   46.7840 Cl  0  0  0  0  0  0  0  0  0  0  0  0
   31.5720   28.3790   46.5910 C   0  0  0  0  0  0  0  0  0  0  0  0
   34.3180   27.2250   49.1010 H   0  0  0  0  0  0  0  0  0  0  0  0
   32.4570   25.7400   48.4840 H   0  0  0  0  0  0  0  0  0  0  0  0
   30.5270   28.8170   45.6370 C   0  0  0  0  0  0  0  0  0  0  0  0
   29.5530   27.8150   45.5010 F   0  0  0  0  0  0  0  0  0  0  0  0
   31.0410   29.1320   44.4210 F   0  0  0  0  0  0  0  0  0  0  0  0
   29.8800   29.9230   46.1340 F   0  0  0  0  0  0  0  0  0  0  0  0
   37.9110   32.2460   49.2080 C   0  0  0  0  0  0  0  0  0  0  0  0
   38.9480   31.5370   49.8000 F   0  0  0  0  0  0  0  0  0  0  0  0
   38.4160   32.8210   48.0550 F   0  0  0  0  0  0  0  0  0  0  0  0
   37.5030   33.2610   50.0360 F   0  0  0  0  0  0  0  0  0  0  0  0
   37.9880   30.6360   46.7590 C   0  0  0  0  0  0  0  0  0  0  0  0
   38.7900   31.1910   47.3010 H   0  0  0  0  0  0  0  0  0  0  0  0
   38.3470   29.6510   46.3930 H   0  0  0  0  0  0  0  0  0  0  0  0
   38.9470   32.6920   42.2020 C   0  0  0  0  0  0  0  0  0  0  0  0
   37.6380   32.0340   42.3390 C   0  0  0  0  0  2  0  0  0  0  0  0
   37.5240   31.2960   43.5300 N   0  0  2  0  0  0  0  0  0  0  0  0
   36.9880   30.4300   44.5170 C   0  0  2  0  0  0  0  0  0  0  0  0
   36.3130   29.3530   44.4040 O   0  0  0  0  0  1  0  0  0  0  0  0
   37.5970   31.3940   45.5110 C   0  0  2  0  0  3  0  0  0  0  0  0
   38.6360   31.4170   44.4610 C   0  0  2  0  0  0  0  0  0  0  0  0
   39.3370   33.0120   43.9750 S   0  0  0  0  0  0  0  0  0  0  0  0
   38.9020   33.9890   41.4370 C   0  0  0  0  0  2  0  0  0  0  0  0
   38.0160   34.5430   41.7950 H   0  0  0  0  0  0  0  0  0  0  0  0
   39.9500   31.7010   41.6540 C   0  0  0  0  0  2  0  0  0  0  0  0
   40.1800   30.9970   42.5040 H   0  0  0  0  0  0  0  0  0  0  0  0
  1  7  1  0  0  0  0
  2 22  1  0  0  0  0
  2  1  2  0  0  0  0
  3  2  1  0  0  0  0
  4  3  2  0  0  0  0
  4  5  1  0  0  0  0
  5  6  2  0  0  0  0
  6  1  1  0  0  0  0
  8  9  1  0  0  0  0
  9 10  1  0  0  0  0
 10  5  1  0  0  0  0
 10 11  2  0  0  0  0
 11 16  1  0  0  0  0
 12 11  1  0  0  0  0
 12 17  1  0  0  0  0
 13 12  2  0  0  0  0
 14 13  1  0  0  0  0
 15  9  2  0  0  0  0
 15 13  1  0  0  0  0
 18 21  1  0  0  0  0
 18 15  1  0  0  0  0
 19 18  1  0  0  0  0
 20 18  1  0  0  0  0
 22 23  1  0  0  0  0
 22 25  1  0  0  0  0
 24 22  1  0  0  0  0
 26 27  1  0  0  0  0
 26  3  1  0  0  0  0
 28 26  1  0  0  0  0
 29 30  1  0  0  0  0
 29 36  1  0  0  0  0
 31 30  1  1  0  0  0
 31 35  1  0  0  0  0
 31 32  1  0  0  0  0
 32 33  1  1  0  0  0
 32 34  1  0  0  0  0
 34 26  1  1  0  0  0
 35 36  1  6  0  0  0
 35 32  1  0  0  0  0
 35 34  1  0  0  0  0
 37 38  1  0  0  0  0
 37 29  1  0  0  0  0
 39 29  1  0  0  0  0
 39 40  1  0  0  0  0
M  END
>  <minimizedAffinity>
-6.4470768

>  <minimizedRMSD>
1.78680575

$$$$
