
 OpenBabel03272500223D

 40 44  0  0  1  0  0  0  0  0999 V2000
   35.4760   29.1230   50.3530 C   0  0  0  0  0  0  0  0  0  0  0  0
   36.3310   30.0940   49.7550 C   0  0  0  0  0  0  0  0  0  0  0  0
   36.2680   30.2950   48.3730 C   0  0  0  0  0  0  0  0  0  0  0  0
   35.3680   29.5260   47.6880 N   0  0  0  0  0  0  0  0  0  0  0  0
   34.5860   28.6370   48.2390 C   0  0  0  0  0  0  0  0  0  0  0  0
   34.6230   28.4200   49.5670 N   0  0  0  0  0  0  0  0  0  0  0  0
   35.5110   28.9550   51.4210 H   0  0  0  0  0  0  0  0  0  0  0  0
   32.7790   30.2770   46.4400 Cl  0  0  0  0  0  0  0  0  0  0  0  0
   32.7820   28.5150   46.5220 C   0  0  0  0  0  0  0  0  0  0  0  0
   33.6580   27.8700   47.3860 C   0  0  0  0  0  0  0  0  0  0  0  0
   33.7040   26.4720   47.4920 C   0  0  0  0  0  0  0  0  0  0  0  0
   32.8160   25.7760   46.6750 C   0  0  0  0  0  0  0  0  0  0  0  0
   31.9440   26.3910   45.8160 C   0  0  0  0  0  0  0  0  0  0  0  0
   30.8860   25.3890   44.8510 Cl  0  0  0  0  0  0  0  0  0  0  0  0
   31.9320   27.7780   45.7420 C   0  0  0  0  0  0  0  0  0  0  0  0
   34.3890   25.9740   48.1680 H   0  0  0  0  0  0  0  0  0  0  0  0
   32.8410   24.6970   46.7470 H   0  0  0  0  0  0  0  0  0  0  0  0
   30.9970   28.4630   44.8210 C   0  0  0  0  0  0  0  0  0  0  0  0
   30.1150   27.5300   44.2540 F   0  0  0  0  0  0  0  0  0  0  0  0
   31.6460   29.1420   43.8400 F   0  0  0  0  0  0  0  0  0  0  0  0
   30.2220   29.3530   45.5240 F   0  0  0  0  0  0  0  0  0  0  0  0
   37.2630   30.8550   50.6460 C   0  0  0  0  0  0  0  0  0  0  0  0
   38.5710   30.7850   50.1810 F   0  0  0  0  0  0  0  0  0  0  0  0
   36.8860   32.1860   50.6030 F   0  0  0  0  0  0  0  0  0  0  0  0
   37.2080   30.4480   51.9550 F   0  0  0  0  0  0  0  0  0  0  0  0
   37.1340   31.2900   47.7500 C   0  0  0  0  0  0  0  0  0  0  0  0
   36.4890   32.1280   47.3970 H   0  0  0  0  0  0  0  0  0  0  0  0
   37.9560   31.6530   48.4030 H   0  0  0  0  0  0  0  0  0  0  0  0
   37.7730   30.4160   42.7760 C   0  0  0  0  0  0  0  0  0  0  0  0
   39.0100   30.5690   43.5580 C   0  0  0  0  0  2  0  0  0  0  0  0
   38.7720   31.0300   44.8640 N   0  0  2  0  0  0  0  0  0  0  0  0
   39.0210   31.5000   46.1800 C   0  0  2  0  0  0  0  0  0  0  0  0
   39.9150   32.2930   46.6270 O   0  0  0  0  0  1  0  0  0  0  0  0
   37.8300   30.6510   46.5700 C   0  0  2  0  0  3  0  0  0  0  0  0
   37.3740   31.1420   45.2540 C   0  0  2  0  0  0  0  0  0  0  0  0
   36.5930   29.9690   44.1190 S   0  0  0  0  0  0  0  0  0  0  0  0
   37.8320   29.3150   41.7480 C   0  0  0  0  0  2  0  0  0  0  0  0
   38.3150   28.4480   42.2330 H   0  0  0  0  0  0  0  0  0  0  0  0
   37.3750   31.7570   42.2030 C   0  0  0  0  0  2  0  0  0  0  0  0
   36.9770   32.3550   43.0710 H   0  0  0  0  0  0  0  0  0  0  0  0
  1  7  1  0  0  0  0
  2  1  1  0  0  0  0
  2 22  1  0  0  0  0
  3  2  2  0  0  0  0
  4  5  2  0  0  0  0
  4  3  1  0  0  0  0
  5  6  1  0  0  0  0
  6  1  2  0  0  0  0
  8  9  1  0  0  0  0
  9 10  1  0  0  0  0
 10 11  2  0  0  0  0
 10  5  1  0  0  0  0
 11 16  1  0  0  0  0
 12 17  1  0  0  0  0
 12 11  1  0  0  0  0
 13 12  2  0  0  0  0
 14 13  1  0  0  0  0
 15 13  1  0  0  0  0
 15  9  2  0  0  0  0
 18 21  1  0  0  0  0
 18 15  1  0  0  0  0
 19 18  1  0  0  0  0
 20 18  1  0  0  0  0
 22 25  1  0  0  0  0
 23 22  1  0  0  0  0
 24 22  1  0  0  0  0
 26  3  1  0  0  0  0
 26 28  1  0  0  0  0
 27 26  1  0  0  0  0
 29 30  1  0  0  0  0
 29 36  1  0  0  0  0
 31 30  1  1  0  0  0
 31 35  1  0  0  0  0
 31 32  1  0  0  0  0
 32 34  1  0  0  0  0
 32 33  1  1  0  0  0
 34 26  1  1  0  0  0
 35 36  1  6  0  0  0
 35 32  1  0  0  0  0
 35 34  1  0  0  0  0
 37 38  1  0  0  0  0
 37 29  1  0  0  0  0
 39 29  1  0  0  0  0
 39 40  1  0  0  0  0
M  END
>  <minimizedAffinity>
-6.64112663

>  <minimizedRMSD>
1.61723757

$$$$
