
 OpenBabel03262521183D

 32 34  0  0  1  0  0  0  0  0999 V2000
   38.7570   32.3690   46.5000 C   0  0  0  0  0  0  0  0  0  0  0  0
   40.0420   32.8370   46.2020 C   0  0  0  0  0  0  0  0  0  0  0  0
   40.3420   33.1750   44.8850 C   0  0  0  0  0  0  0  0  0  0  0  0
   39.3560   33.0290   43.9480 N   0  0  0  0  0  0  0  0  0  0  0  0
   38.1120   32.5680   44.2770 C   0  0  0  0  0  0  0  0  0  0  0  0
   37.8440   32.2520   45.5300 N   0  0  0  0  0  0  0  0  0  0  0  0
   40.8570   32.9720   46.8980 H   0  0  0  0  0  0  0  0  0  0  0  0
   41.3230   33.5420   44.6040 H   0  0  0  0  0  0  0  0  0  0  0  0
   38.6080   32.0750   47.8470 O   0  0  0  0  0  0  0  0  0  0  0  0
   37.4070   31.5180   48.2340 C   0  0  0  0  0  0  0  0  0  0  0  0
   36.8300   32.3250   48.7710 H   0  0  0  0  0  0  0  0  0  0  0  0
   36.7370   31.2190   47.4000 H   0  0  0  0  0  0  0  0  0  0  0  0
   37.8690   30.5220   49.0090 C   0  0  0  0  0  0  0  0  0  0  0  0
   37.1410   29.6560   49.0190 H   0  0  0  0  0  0  0  0  0  0  0  0
   38.7800   29.9970   48.6110 H   0  0  0  0  0  0  0  0  0  0  0  0
   38.1820   30.8340   50.4350 C   0  0  0  0  0  0  0  0  0  0  0  0
   37.9220   31.9010   50.6140 H   0  0  0  0  0  0  0  0  0  0  0  0
   39.2570   30.7520   50.6900 H   0  0  0  0  0  0  0  0  0  0  0  0
   37.2020   29.8600   51.5830 S   0  0  0  0  0  0  0  0  0  0  0  0
   37.0180   30.4870   52.8320 H   0  0  0  0  0  0  0  0  0  0  0  0
   37.0550   32.4170   43.2430 C   0  0  0  0  0  2  0  0  0  0  0  0
   36.8610   30.9440   43.0210 C   0  0  2  0  0  0  0  0  0  0  0  0
   35.9490   30.6130   41.8660 C   0  0  0  0  0  2  0  0  0  0  0  0
   34.5940   30.7650   42.2860 N   0  0  0  0  0  0  0  0  0  0  0  0
   33.2350   31.1960   42.3290 C   0  0  0  0  0  0  0  0  0  0  0  0
   32.3520   31.5980   41.5210 O   0  0  0  0  0  0  0  0  0  0  0  0
   33.2670   30.9700   43.7980 C   0  0  0  0  0  3  0  0  0  0  0  0
   33.6610   31.8720   44.3070 H   0  0  0  0  0  0  0  0  0  0  0  0
   34.3400   29.9890   43.4630 C   0  0  2  0  0  3  0  0  0  0  0  0
   35.8990   30.2450   44.3960 S   0  0  0  0  0  0  0  0  0  0  0  0
   38.2050   30.2850   42.8900 C   0  0  0  0  0  2  0  0  0  0  0  0
   38.3240   29.6990   41.9400 H   0  0  0  0  0  0  0  0  0  0  0  0
  1  9  1  0  0  0  0
  2  1  1  0  0  0  0
  2  7  1  0  0  0  0
  3  2  2  0  0  0  0
  4  5  2  0  0  0  0
  4  3  1  0  0  0  0
  5  6  1  0  0  0  0
  6  1  2  0  0  0  0
  8  3  1  0  0  0  0
  9 10  1  0  0  0  0
 10 11  1  0  0  0  0
 10 13  1  0  0  0  0
 12 10  1  0  0  0  0
 13 14  1  0  0  0  0
 13 16  1  0  0  0  0
 15 13  1  0  0  0  0
 16 17  1  0  0  0  0
 16 18  1  0  0  0  0
 16 19  1  0  0  0  0
 19 20  1  0  0  0  0
 21  5  1  0  0  0  0
 22 31  1  6  0  0  0
 22 21  1  0  0  0  0
 22 30  1  0  0  0  0
 23 24  1  0  0  0  0
 23 22  1  0  0  0  0
 24 25  1  0  0  0  0
 24 29  1  0  0  0  0
 25 27  1  0  0  0  0
 26 25  2  0  0  0  0
 27 28  1  0  0  0  0
 29 27  1  1  0  0  0
 29 30  1  0  0  0  0
 32 31  1  0  0  0  0
M  END
>  <minimizedAffinity>
-4.30508041

>  <minimizedRMSD>
1.13984954

$$$$
