
 OpenBabel03272505163D

 45 50  0  0  1  0  0  0  0  0999 V2000
   38.1040   31.4760   43.6670 N   0  0  0  0  0  0  0  0  0  0  0  0
   38.5200   32.8620   43.5560 C   0  0  0  0  0  0  0  0  0  0  0  0
   39.3270   32.9550   42.2710 C   0  0  0  0  0  0  0  0  0  0  0  0
   38.5130   32.4210   41.2360 N   0  0  0  0  0  0  0  0  0  0  0  0
   38.3130   31.0150   41.3520 C   0  0  0  0  0  0  0  0  0  0  0  0
   38.6810   30.5190   42.7340 C   0  0  2  0  0  0  0  0  0  0  0  0
   39.1360   33.1760   44.4020 H   0  0  0  0  0  0  0  0  0  0  0  0
   37.6320   33.5160   43.4480 H   0  0  0  0  0  0  0  0  0  0  0  0
   39.4240   34.0500   42.0760 H   0  0  0  0  0  0  0  0  0  0  0  0
   40.3370   32.5640   42.3580 H   0  0  0  0  0  0  0  0  0  0  0  0
   38.8690   32.7560   40.3210 H   0  0  0  0  0  0  0  0  0  0  0  0
   37.2230   30.8330   41.2400 H   0  0  0  0  0  0  0  0  0  0  0  0
   38.9340   30.5500   40.5620 H   0  0  0  0  0  0  0  0  0  0  0  0
   39.7820   30.5890   42.8320 H   0  0  0  0  0  0  0  0  0  0  0  0
   39.0540   31.4680   46.4640 Cl  0  0  0  0  0  0  0  0  0  0  0  0
   37.4820   30.8990   45.9750 C   0  0  0  0  0  0  0  0  0  0  0  0
   36.6280   30.4220   46.9070 C   0  0  0  0  0  0  0  0  0  0  0  0
   35.3840   30.0160   46.4270 C   0  0  0  0  0  0  0  0  0  0  0  0
   34.9860   30.0670   45.1260 C   0  0  0  0  0  0  0  0  0  0  0  0
   35.8950   30.5610   44.2130 C   0  0  0  0  0  0  0  0  0  0  0  0
   37.1570   30.9820   44.6350 C   0  0  0  0  0  0  0  0  0  0  0  0
   34.6620   29.6240   47.1480 H   0  0  0  0  0  0  0  0  0  0  0  0
   34.0100   29.7420   44.7980 H   0  0  0  0  0  0  0  0  0  0  0  0
   35.6930   30.6490   43.1550 H   0  0  0  0  0  0  0  0  0  0  0  0
   38.1120   31.2920   50.2460 C   0  0  0  0  0  0  0  0  0  0  0  0
   37.7640   31.3790   48.8900 C   0  0  0  0  0  0  0  0  0  0  0  0
   37.0140   30.3550   48.2940 C   0  0  0  0  0  0  0  0  0  0  0  0
   36.6560   29.2970   49.0860 N   0  0  0  0  0  0  0  0  0  0  0  0
   37.0010   29.2290   50.3840 C   0  0  0  0  0  0  0  0  0  0  0  0
   37.7270   30.2190   50.9730 N   0  0  0  0  0  0  0  0  0  0  0  0
   38.6840   32.0280   50.7900 H   0  0  0  0  0  0  0  0  0  0  0  0
   38.1750   32.2700   48.4650 H   0  0  0  0  0  0  0  0  0  0  0  0
   36.6250   28.3200   50.8320 H   0  0  0  0  0  0  0  0  0  0  0  0
   38.2500   29.1450   43.0380 C   0  0  0  0  0  2  0  0  0  0  0  0
   39.0350   28.0180   42.4850 C   0  0  2  0  0  0  0  0  0  0  0  0
   40.5040   28.1930   42.3980 C   0  0  0  0  0  2  0  0  0  0  0  0
   40.8880   28.3860   41.0250 N   0  0  2  0  0  0  0  0  0  0  0  0
   41.4460   28.8690   39.8080 C   0  0  2  0  0  0  0  0  0  0  0  0
   42.3720   29.6940   39.5080 O   0  0  0  0  0  1  0  0  0  0  0  0
   40.5410   28.0470   38.9410 C   0  0  0  0  0  3  0  0  0  0  0  0
   39.6930   28.5860   38.5100 H   0  0  0  0  0  0  0  0  0  0  0  0
   40.2940   27.3300   40.2260 C   0  0  1  0  0  0  0  0  0  0  0  0
   38.5630   27.4740   40.8330 S   0  0  0  0  0  0  0  0  0  0  0  0
   38.7610   26.8320   43.3960 C   0  0  0  0  0  2  0  0  0  0  0  0
   39.1330   25.9060   42.9520 H   0  0  0  0  0  0  0  0  0  0  0  0
  1 21  1  0  0  0  0
  2  1  1  0  0  0  0
  2  7  1  0  0  0  0
  3 10  1  0  0  0  0
  3  2  1  0  0  0  0
  4  5  1  0  0  0  0
  4  3  1  0  0  0  0
  5  6  1  0  0  0  0
  6 14  1  1  0  0  0
  6 34  1  0  0  0  0
  6  1  1  0  0  0  0
  8  2  1  0  0  0  0
  9  3  1  0  0  0  0
 11  4  1  0  0  0  0
 12  5  1  0  0  0  0
 13  5  1  0  0  0  0
 16 15  1  0  0  0  0
 16 17  1  0  0  0  0
 17 27  1  0  0  0  0
 18 17  2  0  0  0  0
 18 22  1  0  0  0  0
 19 18  1  0  0  0  0
 20 21  1  0  0  0  0
 20 19  2  0  0  0  0
 21 16  2  0  0  0  0
 23 19  1  0  0  0  0
 24 20  1  0  0  0  0
 25 31  1  0  0  0  0
 25 30  1  0  0  0  0
 26 25  2  0  0  0  0
 27 26  1  0  0  0  0
 27 28  2  0  0  0  0
 28 29  1  0  0  0  0
 29 33  1  0  0  0  0
 29 30  2  0  0  0  0
 32 26  1  0  0  0  0
 35 34  1  1  0  0  0
 35 44  1  0  0  0  0
 36 35  1  0  0  0  0
 37 36  1  6  0  0  0
 38 39  1  6  0  0  0
 38 42  1  0  0  0  0
 38 37  1  0  0  0  0
 40 38  1  0  0  0  0
 41 40  1  0  0  0  0
 42 40  1  1  0  0  0
 42 43  1  0  0  0  0
 42 37  1  0  0  0  0
 43 35  1  0  0  0  0
 45 44  1  0  0  0  0
M  END
>  <minimizedAffinity>
-5.73360205

>  <minimizedRMSD>
1.62966645

$$$$
