
 OpenBabel03262521183D

 32 34  0  0  1  0  0  0  0  0999 V2000
   38.2540   32.1660   46.7610 C   0  0  0  0  0  0  0  0  0  0  0  0
   39.5340   32.6880   46.9810 C   0  0  0  0  0  0  0  0  0  0  0  0
   40.2570   33.1690   45.8940 C   0  0  0  0  0  0  0  0  0  0  0  0
   39.6700   33.1040   44.6590 N   0  0  0  0  0  0  0  0  0  0  0  0
   38.4180   32.5870   44.4820 C   0  0  0  0  0  0  0  0  0  0  0  0
   37.7450   32.1350   45.5240 N   0  0  0  0  0  0  0  0  0  0  0  0
   40.0440   32.7640   47.9300 H   0  0  0  0  0  0  0  0  0  0  0  0
   41.2520   33.5820   46.0130 H   0  0  0  0  0  0  0  0  0  0  0  0
   37.6590   31.7280   47.9340 O   0  0  0  0  0  0  0  0  0  0  0  0
   36.6600   30.7850   47.8130 C   0  0  0  0  0  0  0  0  0  0  0  0
   35.6850   31.3120   48.0210 H   0  0  0  0  0  0  0  0  0  0  0  0
   36.5280   30.3700   46.7900 H   0  0  0  0  0  0  0  0  0  0  0  0
   37.0640   29.9180   48.7560 C   0  0  0  0  0  0  0  0  0  0  0  0
   36.1760   29.3820   49.2090 H   0  0  0  0  0  0  0  0  0  0  0  0
   37.6400   29.0330   48.3700 H   0  0  0  0  0  0  0  0  0  0  0  0
   37.8680   30.4500   49.8960 C   0  0  0  0  0  0  0  0  0  0  0  0
   37.8010   31.5600   49.8700 H   0  0  0  0  0  0  0  0  0  0  0  0
   38.9510   30.2250   49.8280 H   0  0  0  0  0  0  0  0  0  0  0  0
   37.2300   29.9280   51.4920 S   0  0  0  0  0  0  0  0  0  0  0  0
   37.5440   30.8180   52.5380 H   0  0  0  0  0  0  0  0  0  0  0  0
   37.8000   32.5260   43.1310 C   0  0  0  0  0  2  0  0  0  0  0  0
   38.3190   31.2860   42.4620 C   0  0  2  0  0  0  0  0  0  0  0  0
   37.3670   30.6880   41.4580 C   0  0  0  0  0  2  0  0  0  0  0  0
   36.3710   29.9380   42.1540 N   0  0  0  0  0  0  0  0  0  0  0  0
   35.0980   29.4720   42.5970 C   0  0  0  0  0  0  0  0  0  0  0  0
   33.9160   29.4080   42.1570 O   0  0  0  0  0  0  0  0  0  0  0  0
   35.7520   29.0610   43.8670 C   0  0  0  0  0  3  0  0  0  0  0  0
   35.7800   29.9180   44.5670 H   0  0  0  0  0  0  0  0  0  0  0  0
   36.9780   28.9730   43.0210 C   0  0  2  0  0  3  0  0  0  0  0  0
   38.4010   29.9320   43.6730 S   0  0  0  0  0  0  0  0  0  0  0  0
   39.6660   31.5780   41.8630 C   0  0  0  0  0  2  0  0  0  0  0  0
   39.7250   31.3480   40.7650 H   0  0  0  0  0  0  0  0  0  0  0  0
  1  2  1  0  0  0  0
  1  9  1  0  0  0  0
  2  7  1  0  0  0  0
  3  8  1  0  0  0  0
  3  2  2  0  0  0  0
  4  3  1  0  0  0  0
  5  4  2  0  0  0  0
  5  6  1  0  0  0  0
  6  1  2  0  0  0  0
 10  9  1  0  0  0  0
 10 11  1  0  0  0  0
 10 13  1  0  0  0  0
 12 10  1  0  0  0  0
 13 14  1  0  0  0  0
 13 16  1  0  0  0  0
 15 13  1  0  0  0  0
 16 19  1  0  0  0  0
 17 16  1  0  0  0  0
 18 16  1  0  0  0  0
 19 20  1  0  0  0  0
 21  5  1  0  0  0  0
 22 31  1  6  0  0  0
 22 21  1  0  0  0  0
 22 30  1  0  0  0  0
 23 24  1  0  0  0  0
 23 22  1  0  0  0  0
 24 25  1  0  0  0  0
 24 29  1  0  0  0  0
 25 27  1  0  0  0  0
 26 25  2  0  0  0  0
 27 28  1  0  0  0  0
 29 30  1  1  0  0  0
 29 27  1  0  0  0  0
 32 31  1  0  0  0  0
M  END
>  <minimizedAffinity>
-4.38522768

>  <minimizedRMSD>
0.846645772

$$$$
