
 OpenBabel03272500223D

 40 44  0  0  1  0  0  0  0  0999 V2000
   35.4350   29.2930   50.4300 C   0  0  0  0  0  0  0  0  0  0  0  0
   36.3630   30.1520   49.7730 C   0  0  0  0  0  0  0  0  0  0  0  0
   36.3330   30.2450   48.3790 C   0  0  0  0  0  0  0  0  0  0  0  0
   35.3910   29.4860   47.7410 N   0  0  0  0  0  0  0  0  0  0  0  0
   34.5420   28.7000   48.3450 C   0  0  0  0  0  0  0  0  0  0  0  0
   34.5470   28.5880   49.6870 N   0  0  0  0  0  0  0  0  0  0  0  0
   35.4450   29.2090   51.5090 H   0  0  0  0  0  0  0  0  0  0  0  0
   32.8230   30.3180   46.4450 Cl  0  0  0  0  0  0  0  0  0  0  0  0
   32.7340   28.5670   46.6340 C   0  0  0  0  0  0  0  0  0  0  0  0
   33.5750   27.9310   47.5390 C   0  0  0  0  0  0  0  0  0  0  0  0
   33.5480   26.5420   47.7310 C   0  0  0  0  0  0  0  0  0  0  0  0
   32.6240   25.8440   46.9560 C   0  0  0  0  0  0  0  0  0  0  0  0
   31.7850   26.4500   46.0590 C   0  0  0  0  0  0  0  0  0  0  0  0
   30.6760   25.4470   45.1540 Cl  0  0  0  0  0  0  0  0  0  0  0  0
   31.8450   27.8280   45.9000 C   0  0  0  0  0  0  0  0  0  0  0  0
   34.2070   26.0510   48.4370 H   0  0  0  0  0  0  0  0  0  0  0  0
   32.5930   24.7710   47.0940 H   0  0  0  0  0  0  0  0  0  0  0  0
   30.9470   28.5040   44.9360 C   0  0  0  0  0  0  0  0  0  0  0  0
   30.0350   27.5780   44.4030 F   0  0  0  0  0  0  0  0  0  0  0  0
   31.6310   29.1090   43.9320 F   0  0  0  0  0  0  0  0  0  0  0  0
   30.1990   29.4550   45.5860 F   0  0  0  0  0  0  0  0  0  0  0  0
   37.3340   30.9180   50.6190 C   0  0  0  0  0  0  0  0  0  0  0  0
   38.6270   30.8100   50.1200 F   0  0  0  0  0  0  0  0  0  0  0  0
   36.9820   32.2540   50.5510 F   0  0  0  0  0  0  0  0  0  0  0  0
   37.3070   30.5460   51.9390 F   0  0  0  0  0  0  0  0  0  0  0  0
   37.2740   31.1250   47.6950 C   0  0  0  0  0  0  0  0  0  0  0  0
   36.7640   32.1020   47.5260 H   0  0  0  0  0  0  0  0  0  0  0  0
   38.2430   31.2550   48.2220 H   0  0  0  0  0  0  0  0  0  0  0  0
   37.2390   30.9210   42.6090 C   0  0  0  0  0  0  0  0  0  0  0  0
   38.5100   30.5490   43.2510 C   0  0  0  0  0  2  0  0  0  0  0  0
   38.5290   30.8410   44.6250 N   0  0  2  0  0  0  0  0  0  0  0  0
   39.0090   30.9870   45.9520 C   0  0  2  0  0  0  0  0  0  0  0  0
   40.1440   31.3750   46.3900 O   0  0  0  0  0  1  0  0  0  0  0  0
   37.6370   30.5030   46.3660 C   0  0  2  0  0  3  0  0  0  0  0  0
   37.2760   31.3200   45.1910 C   0  0  2  0  0  0  0  0  0  0  0  0
   36.0760   30.6540   44.0130 S   0  0  0  0  0  0  0  0  0  0  0  0
   36.8610   30.0430   41.4450 C   0  0  0  0  0  2  0  0  0  0  0  0
   37.0660   29.0010   41.7490 H   0  0  0  0  0  0  0  0  0  0  0  0
   37.2640   32.3950   42.2700 C   0  0  0  0  0  2  0  0  0  0  0  0
   37.1480   32.9370   43.2510 H   0  0  0  0  0  0  0  0  0  0  0  0
  1  7  1  0  0  0  0
  2  1  1  0  0  0  0
  2 22  1  0  0  0  0
  3  2  2  0  0  0  0
  4  5  2  0  0  0  0
  4  3  1  0  0  0  0
  5  6  1  0  0  0  0
  6  1  2  0  0  0  0
  8  9  1  0  0  0  0
  9 10  1  0  0  0  0
 10 11  2  0  0  0  0
 10  5  1  0  0  0  0
 11 16  1  0  0  0  0
 12 17  1  0  0  0  0
 12 11  1  0  0  0  0
 13 12  2  0  0  0  0
 14 13  1  0  0  0  0
 15 13  1  0  0  0  0
 15  9  2  0  0  0  0
 18 21  1  0  0  0  0
 18 15  1  0  0  0  0
 19 18  1  0  0  0  0
 20 18  1  0  0  0  0
 22 25  1  0  0  0  0
 23 22  1  0  0  0  0
 24 22  1  0  0  0  0
 26 28  1  0  0  0  0
 26  3  1  0  0  0  0
 27 26  1  0  0  0  0
 29 30  1  0  0  0  0
 29 36  1  0  0  0  0
 31 30  1  1  0  0  0
 31 35  1  0  0  0  0
 31 32  1  0  0  0  0
 32 34  1  0  0  0  0
 32 33  1  1  0  0  0
 34 26  1  1  0  0  0
 35 36  1  6  0  0  0
 35 32  1  0  0  0  0
 35 34  1  0  0  0  0
 37 38  1  0  0  0  0
 37 29  1  0  0  0  0
 39 29  1  0  0  0  0
 39 40  1  0  0  0  0
M  END
>  <minimizedAffinity>
-6.65559149

>  <minimizedRMSD>
0.967557609

$$$$
