
 OpenBabel03262521183D

 32 34  0  0  1  0  0  0  0  0999 V2000
   39.0270   32.4220   46.4210 C   0  0  0  0  0  0  0  0  0  0  0  0
   40.2420   32.8790   45.8960 C   0  0  0  0  0  0  0  0  0  0  0  0
   40.3200   33.1580   44.5350 C   0  0  0  0  0  0  0  0  0  0  0  0
   39.1950   32.9680   43.7790 N   0  0  0  0  0  0  0  0  0  0  0  0
   38.0260   32.5210   44.3270 C   0  0  0  0  0  0  0  0  0  0  0  0
   37.9690   32.2610   45.6190 N   0  0  0  0  0  0  0  0  0  0  0  0
   41.1580   33.0460   46.4440 H   0  0  0  0  0  0  0  0  0  0  0  0
   41.2380   33.5130   44.0810 H   0  0  0  0  0  0  0  0  0  0  0  0
   39.1030   32.1880   47.7860 O   0  0  0  0  0  0  0  0  0  0  0  0
   37.9140   32.1890   48.4850 C   0  0  0  0  0  0  0  0  0  0  0  0
   37.9680   33.0390   49.2230 H   0  0  0  0  0  0  0  0  0  0  0  0
   37.0120   32.4180   47.8770 H   0  0  0  0  0  0  0  0  0  0  0  0
   37.9730   30.9550   49.0150 C   0  0  0  0  0  0  0  0  0  0  0  0
   37.0300   30.3760   48.7800 H   0  0  0  0  0  0  0  0  0  0  0  0
   38.7340   30.2740   48.5430 H   0  0  0  0  0  0  0  0  0  0  0  0
   38.1920   30.8370   50.4860 C   0  0  0  0  0  0  0  0  0  0  0  0
   38.0200   31.8400   50.9370 H   0  0  0  0  0  0  0  0  0  0  0  0
   39.2290   30.5680   50.7680 H   0  0  0  0  0  0  0  0  0  0  0  0
   37.0310   29.7100   51.2660 S   0  0  0  0  0  0  0  0  0  0  0  0
   36.8020   29.9970   52.6270 H   0  0  0  0  0  0  0  0  0  0  0  0
   36.8160   32.3210   43.4860 C   0  0  0  0  0  2  0  0  0  0  0  0
   36.6480   30.8400   43.2970 C   0  0  2  0  0  0  0  0  0  0  0  0
   35.6290   30.4690   42.2500 C   0  0  0  0  0  2  0  0  0  0  0  0
   34.3230   30.5810   42.8130 N   0  0  0  0  0  0  0  0  0  0  0  0
   32.9630   30.9670   42.9990 C   0  0  0  0  0  0  0  0  0  0  0  0
   31.9840   31.3320   42.2890 O   0  0  0  0  0  0  0  0  0  0  0  0
   33.1610   30.7580   44.4580 C   0  0  0  0  0  3  0  0  0  0  0  0
   33.5770   31.6770   44.9150 H   0  0  0  0  0  0  0  0  0  0  0  0
   34.2230   29.8080   44.0150 C   0  0  2  0  0  3  0  0  0  0  0  0
   35.8650   30.1240   44.7730 S   0  0  0  0  0  0  0  0  0  0  0  0
   37.9910   30.2240   43.0250 C   0  0  0  0  0  2  0  0  0  0  0  0
   38.0260   29.6340   42.0720 H   0  0  0  0  0  0  0  0  0  0  0  0
  1  9  1  0  0  0  0
  2  1  1  0  0  0  0
  2  7  1  0  0  0  0
  3  2  2  0  0  0  0
  4  5  2  0  0  0  0
  4  3  1  0  0  0  0
  5  6  1  0  0  0  0
  6  1  2  0  0  0  0
  8  3  1  0  0  0  0
  9 10  1  0  0  0  0
 10 13  1  0  0  0  0
 10 11  1  0  0  0  0
 12 10  1  0  0  0  0
 13 16  1  0  0  0  0
 14 13  1  0  0  0  0
 15 13  1  0  0  0  0
 16 18  1  0  0  0  0
 16 17  1  0  0  0  0
 16 19  1  0  0  0  0
 19 20  1  0  0  0  0
 21  5  1  0  0  0  0
 22 31  1  6  0  0  0
 22 21  1  0  0  0  0
 22 30  1  0  0  0  0
 23 24  1  0  0  0  0
 23 22  1  0  0  0  0
 24 25  1  0  0  0  0
 24 29  1  0  0  0  0
 25 27  1  0  0  0  0
 26 25  2  0  0  0  0
 27 28  1  0  0  0  0
 29 27  1  1  0  0  0
 29 30  1  0  0  0  0
 32 31  1  0  0  0  0
M  END
>  <minimizedAffinity>
-4.34973907

>  <minimizedRMSD>
0.771408319

$$$$
