
 OpenBabel03272507123D

 43 48  0  0  1  0  0  0  0  0999 V2000
   37.1220   29.6320   50.1460 C   0  0  0  0  0  0  0  0  0  0  0  0
   37.7340   29.1200   51.1210 O   0  0  0  0  0  0  0  0  0  0  0  0
   37.6980   30.6180   49.2690 C   0  0  0  0  0  0  0  0  0  0  0  0
   37.7750   31.9210   49.7340 C   0  0  0  0  0  0  0  0  0  0  0  0
   38.3250   32.9070   48.9210 C   0  0  0  0  0  0  0  0  0  0  0  0
   38.7610   32.5110   47.6880 N   0  0  0  0  0  0  0  0  0  0  0  0
   38.6820   31.2530   47.2500 C   0  0  0  0  0  0  0  0  0  0  0  0
   38.1480   30.3170   48.0520 N   0  0  0  0  0  0  0  0  0  0  0  0
   37.4160   32.1950   50.7220 H   0  0  0  0  0  0  0  0  0  0  0  0
   38.4180   33.9430   49.2130 H   0  0  0  0  0  0  0  0  0  0  0  0
   39.1630   30.8560   45.9120 C   0  0  0  0  0  2  0  0  0  0  0  0
   38.0680   31.1440   44.9090 C   0  0  2  0  0  0  0  0  0  0  0  0
   36.7620   30.7150   45.4990 C   0  0  0  0  0  2  0  0  0  0  0  0
   35.9200   30.2610   44.4120 N   0  0  0  0  0  0  0  0  0  0  0  0
   34.8130   30.1000   43.5000 C   0  0  0  0  0  0  0  0  0  0  0  0
   33.5650   30.3400   43.5740 O   0  0  0  0  0  0  0  0  0  0  0  0
   35.7210   29.5420   42.4390 C   0  0  0  0  0  3  0  0  0  0  0  0
   36.1450   30.2940   41.7420 H   0  0  0  0  0  0  0  0  0  0  0  0
   36.5900   29.2370   43.6300 C   0  0  1  0  0  3  0  0  0  0  0  0
   38.2560   29.9600   43.5460 S   0  0  0  0  0  0  0  0  0  0  0  0
   38.0990   32.5600   44.4430 C   0  0  0  0  0  2  0  0  0  0  0  0
   37.2680   32.7780   43.7720 H   0  0  0  0  0  0  0  0  0  0  0  0
   35.7540   29.2130   49.8790 C   0  0  0  0  0  0  0  0  0  0  0  0
   34.7000   29.6890   50.5780 C   0  0  0  0  0  0  0  0  0  0  0  0
   33.5570   29.0790   50.0600 C   0  0  0  0  0  0  0  0  0  0  0  0
   34.0100   28.2370   49.0370 C   0  0  0  0  0  0  0  0  0  0  0  0
   35.3010   28.3660   48.9870 O   0  0  0  0  0  0  0  0  0  0  0  0
   34.7050   30.4070   51.3930 H   0  0  0  0  0  0  0  0  0  0  0  0
   32.5720   29.2830   50.4420 H   0  0  0  0  0  0  0  0  0  0  0  0
   33.5440   26.4370   47.3860 C   0  0  0  0  0  0  0  0  0  0  0  0
   33.0890   27.4230   48.2530 C   0  0  0  0  0  0  0  0  0  0  0  0
   31.7400   27.6660   48.4060 C   0  0  0  0  0  0  0  0  0  0  0  0
   30.8610   26.9030   47.6720 C   0  0  0  0  0  0  0  0  0  0  0  0
   29.5140   26.9320   47.6320 N   0  0  0  0  0  0  0  0  0  0  0  0
   29.1150   25.9990   46.7700 N   0  0  0  0  0  0  0  0  0  0  0  0
   30.2140   25.3860   46.2700 C   0  0  0  0  0  0  0  0  0  0  0  0
   31.3470   25.9330   46.8200 C   0  0  0  0  0  0  0  0  0  0  0  0
   32.6900   25.6770   46.6560 C   0  0  0  0  0  0  0  0  0  0  0  0
   34.6230   26.2700   47.2890 H   0  0  0  0  0  0  0  0  0  0  0  0
   31.3190   28.4290   49.0730 H   0  0  0  0  0  0  0  0  0  0  0  0
   28.8300   27.5370   48.1450 H   0  0  0  0  0  0  0  0  0  0  0  0
   30.1680   24.5850   45.5450 H   0  0  0  0  0  0  0  0  0  0  0  0
   33.0160   24.9100   45.9800 H   0  0  0  0  0  0  0  0  0  0  0  0
  1  2  2  0  0  0  0
  3  4  1  0  0  0  0
  3  1  1  0  0  0  0
  4  9  1  0  0  0  0
  5 10  1  0  0  0  0
  5  4  2  0  0  0  0
  6  5  1  0  0  0  0
  7  6  2  0  0  0  0
  7  8  1  0  0  0  0
  8  3  2  0  0  0  0
 11  7  1  0  0  0  0
 12 21  1  6  0  0  0
 12 13  1  0  0  0  0
 12 11  1  0  0  0  0
 14 13  1  0  0  0  0
 15 16  2  0  0  0  0
 15 14  1  0  0  0  0
 17 15  1  0  0  0  0
 18 17  1  0  0  0  0
 19 17  1  6  0  0  0
 19 14  1  0  0  0  0
 20 19  1  0  0  0  0
 20 12  1  0  0  0  0
 22 21  1  0  0  0  0
 23  1  1  0  0  0  0
 23 24  2  0  0  0  0
 24 28  1  0  0  0  0
 25 29  1  0  0  0  0
 25 24  1  0  0  0  0
 26 25  2  0  0  0  0
 27 26  1  0  0  0  0
 27 23  1  0  0  0  0
 30 31  1  0  0  0  0
 31 32  2  0  0  0  0
 31 26  1  0  0  0  0
 32 40  1  0  0  0  0
 33 32  1  0  0  0  0
 34 33  1  0  0  0  0
 34 41  1  0  0  0  0
 35 34  1  0  0  0  0
 36 35  2  0  0  0  0
 36 37  1  0  0  0  0
 37 33  2  0  0  0  0
 38 37  1  0  0  0  0
 38 30  2  0  0  0  0
 39 30  1  0  0  0  0
 42 36  1  0  0  0  0
 43 38  1  0  0  0  0
M  END
>  <minimizedAffinity>
-6.71160889

>  <minimizedRMSD>
0.846826315

$$$$
