
 OpenBabel03272501303D

 23 25  0  0  1  0  0  0  0  0999 V2000
   39.9060   31.8710   45.5200 C   0  0  0  0  0  0  0  0  0  0  0  0
   39.6900   32.8530   44.4210 C   0  0  0  0  0  0  0  0  0  0  0  0
   39.1940   32.1660   43.2690 N   0  0  0  0  0  0  0  0  0  0  0  0
   39.0580   31.7400   41.9220 C   0  0  0  0  0  0  0  0  0  0  0  0
   39.3810   32.1080   40.7400 O   0  0  0  0  0  0  0  0  0  0  0  0
   38.3010   30.5360   42.3560 C   0  0  2  0  0  0  0  0  0  0  0  0
   38.1010   31.3190   43.6060 C   0  0  1  0  0  0  0  0  0  0  0  0
   38.7500   30.5050   45.1170 S   0  0  0  0  0  0  0  0  0  0  0  0
   39.2750   29.3990   42.4270 C   0  0  0  0  0  0  0  0  0  0  0  0
   40.5020   29.6100   42.3420 O   0  0  0  0  0  0  0  0  0  0  0  0
   38.9240   25.7120   42.9810 C   0  0  0  0  0  0  0  0  0  0  0  0
   39.5230   26.9670   42.8210 C   0  0  0  0  0  0  0  0  0  0  0  0
   38.7010   28.0740   42.5990 C   0  0  0  0  0  0  0  0  0  0  0  0
   37.3490   27.8500   42.5530 N   0  0  0  0  0  0  0  0  0  0  0  0
   36.8180   26.6350   42.7100 C   0  0  0  0  0  0  0  0  0  0  0  0
   37.5880   25.5680   42.9220 N   0  0  0  0  0  0  0  0  0  0  0  0
   39.5160   24.8340   43.1530 H   0  0  0  0  0  0  0  0  0  0  0  0
   40.5980   27.0880   42.8670 H   0  0  0  0  0  0  0  0  0  0  0  0
   35.7500   26.4820   42.6690 H   0  0  0  0  0  0  0  0  0  0  0  0
   41.3040   31.4160   45.7340 C   0  0  0  0  0  0  0  0  0  0  0  0
   41.4560   31.2590   46.8400 H   0  0  0  0  0  0  0  0  0  0  0  0
   39.2950   32.5070   46.7760 C   0  0  0  0  0  0  0  0  0  0  0  0
   38.3750   33.0610   46.4440 H   0  0  0  0  0  0  0  0  0  0  0  0
  1 20  1  0  0  0  0
  1 22  1  0  0  0  0
  2  1  1  0  0  0  0
  3  7  1  0  0  0  0
  3  2  1  0  0  0  0
  4  6  1  0  0  0  0
  4  3  1  0  0  0  0
  5  4  2  0  0  0  0
  6  9  1  1  0  0  0
  6  7  1  0  0  0  0
  7  8  1  1  0  0  0
  8  1  1  0  0  0  0
  9 13  1  0  0  0  0
 10  9  2  0  0  0  0
 11 17  1  0  0  0  0
 12 18  1  0  0  0  0
 12 11  2  0  0  0  0
 13 12  1  0  0  0  0
 14 13  2  0  0  0  0
 14 15  1  0  0  0  0
 15 16  2  0  0  0  0
 16 11  1  0  0  0  0
 19 15  1  0  0  0  0
 20 21  1  0  0  0  0
 23 22  1  0  0  0  0
M  END
>  <minimizedAffinity>
-3.68049121

>  <minimizedRMSD>
5.73918343

$$$$
