
 OpenBabel03272503243D

 35 38  0  0  1  0  0  0  0  0999 V2000
   36.4730   29.9070   49.2420 N   0  0  0  0  0  0  0  0  0  0  0  0
   37.0800   31.1900   49.1570 C   0  0  1  0  0  0  0  0  0  0  0  0
   37.6900   31.4370   50.5070 C   0  0  0  0  0  0  0  0  0  0  0  0
   37.3360   30.1610   51.3160 C   0  0  0  0  0  0  0  0  0  0  0  0
   37.2410   29.1610   50.2040 C   0  0  0  0  0  0  0  0  0  0  0  0
   36.2100   31.9790   49.1050 H   0  0  0  0  0  0  0  0  0  0  0  0
   37.2970   32.3240   51.0350 H   0  0  0  0  0  0  0  0  0  0  0  0
   38.8030   31.4380   50.4530 H   0  0  0  0  0  0  0  0  0  0  0  0
   36.3620   30.2770   51.8020 H   0  0  0  0  0  0  0  0  0  0  0  0
   38.1640   29.9320   52.0300 H   0  0  0  0  0  0  0  0  0  0  0  0
   36.6380   28.3040   50.6010 H   0  0  0  0  0  0  0  0  0  0  0  0
   38.2340   28.8290   49.8500 H   0  0  0  0  0  0  0  0  0  0  0  0
   35.3300   29.4720   48.5240 C   0  0  0  0  0  0  0  0  0  0  0  0
   34.6300   30.4110   47.7490 C   0  0  0  0  0  0  0  0  0  0  0  0
   33.4990   29.9980   47.0350 C   0  0  0  0  0  0  0  0  0  0  0  0
   33.1480   28.6770   47.1460 N   0  0  0  0  0  0  0  0  0  0  0  0
   33.8430   27.7980   47.9000 C   0  0  0  0  0  0  0  0  0  0  0  0
   34.9540   28.1860   48.6070 N   0  0  0  0  0  0  0  0  0  0  0  0
   34.9110   31.4510   47.6660 H   0  0  0  0  0  0  0  0  0  0  0  0
   32.9450   30.7020   46.4320 H   0  0  0  0  0  0  0  0  0  0  0  0
   33.5510   26.7720   47.9700 H   0  0  0  0  0  0  0  0  0  0  0  0
   37.9380   31.4590   48.0160 C   0  0  0  0  0  0  0  0  0  0  0  0
   38.6670   32.4100   47.9810 O   0  0  0  0  0  0  0  0  0  0  0  0
   37.3850   30.7580   42.9460 C   0  0  0  0  0  0  0  0  0  0  0  0
   38.1690   31.9290   43.5580 C   0  0  0  0  0  2  0  0  0  0  0  0
   38.6540   31.4320   44.8630 N   0  0  0  0  0  0  0  0  0  0  0  0
   39.3130   30.9500   46.0620 C   0  0  0  0  0  0  0  0  0  0  0  0
   40.5940   30.9770   46.0190 O   0  0  0  0  0  0  0  0  0  0  0  0
   38.0490   30.6590   46.7500 C   0  0  2  0  0  3  0  0  0  0  0  0
   37.4130   31.3470   45.6070 C   0  0  2  0  0  3  0  0  0  0  0  0
   36.4820   30.2450   44.4670 S   0  0  0  0  0  0  0  0  0  0  0  0
   36.4510   31.2730   41.8980 C   0  0  0  0  0  2  0  0  0  0  0  0
   36.9280   32.1270   41.3940 H   0  0  0  0  0  0  0  0  0  0  0  0
   38.2860   29.6630   42.4710 C   0  0  0  0  0  2  0  0  0  0  0  0
   37.6650   28.7320   42.4230 H   0  0  0  0  0  0  0  0  0  0  0  0
  1  5  1  0  0  0  0
  2  6  1  6  0  0  0
  2  1  1  0  0  0  0
  2  3  1  0  0  0  0
  3  7  1  0  0  0  0
  3  4  1  0  0  0  0
  4  9  1  0  0  0  0
  4 10  1  0  0  0  0
  5 11  1  0  0  0  0
  5  4  1  0  0  0  0
  8  3  1  0  0  0  0
 12  5  1  0  0  0  0
 13 18  1  0  0  0  0
 13  1  1  0  0  0  0
 14 13  2  0  0  0  0
 15 16  2  0  0  0  0
 15 14  1  0  0  0  0
 16 17  1  0  0  0  0
 17 21  1  0  0  0  0
 17 18  2  0  0  0  0
 19 14  1  0  0  0  0
 20 15  1  0  0  0  0
 22  2  1  0  0  0  0
 23 22  2  0  0  0  0
 24 25  1  0  0  0  0
 24 31  1  0  0  0  0
 25 26  1  0  0  0  0
 26 30  1  0  0  0  0
 26 27  1  0  0  0  0
 27 29  1  0  0  0  0
 28 27  2  0  0  0  0
 29 22  1  1  0  0  0
 30 31  1  6  0  0  0
 30 29  1  0  0  0  0
 32 24  1  0  0  0  0
 33 32  1  0  0  0  0
 34 24  1  0  0  0  0
 35 34  1  0  0  0  0
M  END
>  <minimizedAffinity>
-5.80262709

>  <minimizedRMSD>
0.917265952

$$$$
