
 OpenBabel03262521173D

 32 34  0  0  1  0  0  0  0  0999 V2000
   38.7960   32.2740   46.4370 C   0  0  0  0  0  0  0  0  0  0  0  0
   40.1830   32.3260   46.2520 C   0  0  0  0  0  0  0  0  0  0  0  0
   40.6800   32.4740   44.9610 C   0  0  0  0  0  0  0  0  0  0  0  0
   39.7780   32.5600   43.9350 N   0  0  0  0  0  0  0  0  0  0  0  0
   38.4310   32.5050   44.1550 C   0  0  0  0  0  0  0  0  0  0  0  0
   37.9750   32.3650   45.3850 N   0  0  0  0  0  0  0  0  0  0  0  0
   40.9380   32.2630   47.0210 H   0  0  0  0  0  0  0  0  0  0  0  0
   41.7460   32.5190   44.7660 H   0  0  0  0  0  0  0  0  0  0  0  0
   38.4530   32.1260   47.7730 O   0  0  0  0  0  0  0  0  0  0  0  0
   37.3220   31.3850   48.0470 C   0  0  0  0  0  0  0  0  0  0  0  0
   36.5710   32.0900   48.5060 H   0  0  0  0  0  0  0  0  0  0  0  0
   36.7980   30.9800   47.1550 H   0  0  0  0  0  0  0  0  0  0  0  0
   37.8550   30.4790   48.8830 C   0  0  0  0  0  0  0  0  0  0  0  0
   37.1910   29.5650   48.9540 H   0  0  0  0  0  0  0  0  0  0  0  0
   38.8010   29.9940   48.5160 H   0  0  0  0  0  0  0  0  0  0  0  0
   38.1440   30.9050   50.2840 C   0  0  0  0  0  0  0  0  0  0  0  0
   37.8060   31.9590   50.3950 H   0  0  0  0  0  0  0  0  0  0  0  0
   39.2230   30.9210   50.5370 H   0  0  0  0  0  0  0  0  0  0  0  0
   37.2420   29.9390   51.4990 S   0  0  0  0  0  0  0  0  0  0  0  0
   37.0130   30.6300   52.7060 H   0  0  0  0  0  0  0  0  0  0  0  0
   37.4680   32.6010   43.0250 C   0  0  0  0  0  2  0  0  0  0  0  0
   37.3150   31.2190   42.4550 C   0  0  2  0  0  0  0  0  0  0  0  0
   35.9000   30.8650   42.0800 C   0  0  0  0  0  2  0  0  0  0  0  0
   35.1850   30.4970   43.2590 N   0  0  0  0  0  0  0  0  0  0  0  0
   34.1850   30.4620   44.2750 C   0  0  0  0  0  0  0  0  0  0  0  0
   32.9550   30.7240   44.3910 O   0  0  0  0  0  0  0  0  0  0  0  0
   35.2290   29.9610   45.2090 C   0  0  0  0  0  3  0  0  0  0  0  0
   35.7760   30.8170   45.6520 H   0  0  0  0  0  0  0  0  0  0  0  0
   35.8740   29.4560   43.9620 C   0  0  2  0  0  3  0  0  0  0  0  0
   37.6180   29.9890   43.7580 S   0  0  0  0  0  0  0  0  0  0  0  0
   38.2670   31.0560   41.3030 C   0  0  0  0  0  2  0  0  0  0  0  0
   37.7620   30.7450   40.3500 H   0  0  0  0  0  0  0  0  0  0  0  0
  1  9  1  0  0  0  0
  2  1  1  0  0  0  0
  2  7  1  0  0  0  0
  3  2  2  0  0  0  0
  4  5  2  0  0  0  0
  4  3  1  0  0  0  0
  5  6  1  0  0  0  0
  6  1  2  0  0  0  0
  8  3  1  0  0  0  0
  9 10  1  0  0  0  0
 10 11  1  0  0  0  0
 10 13  1  0  0  0  0
 12 10  1  0  0  0  0
 13 14  1  0  0  0  0
 13 16  1  0  0  0  0
 15 13  1  0  0  0  0
 16 17  1  0  0  0  0
 16 18  1  0  0  0  0
 16 19  1  0  0  0  0
 19 20  1  0  0  0  0
 21  5  1  0  0  0  0
 22 31  1  6  0  0  0
 22 21  1  0  0  0  0
 22 30  1  0  0  0  0
 23 22  1  0  0  0  0
 23 24  1  0  0  0  0
 24 29  1  0  0  0  0
 24 25  1  0  0  0  0
 25 26  2  0  0  0  0
 25 27  1  0  0  0  0
 27 28  1  0  0  0  0
 29 30  1  1  0  0  0
 29 27  1  0  0  0  0
 32 31  1  0  0  0  0
M  END
>  <minimizedAffinity>
-4.36806965

>  <minimizedRMSD>
1.14513123

$$$$
