
 OpenBabel03272505163D

 45 50  0  0  1  0  0  0  0  0999 V2000
   38.1830   31.5270   44.0160 N   0  0  0  0  0  0  0  0  0  0  0  0
   38.6570   32.8990   44.0350 C   0  0  0  0  0  0  0  0  0  0  0  0
   39.5280   33.0570   42.7990 C   0  0  0  0  0  0  0  0  0  0  0  0
   38.7450   32.6410   41.6890 N   0  0  0  0  0  0  0  0  0  0  0  0
   38.4860   31.2390   41.6840 C   0  0  0  0  0  0  0  0  0  0  0  0
   38.7670   30.6220   43.0370 C   0  0  2  0  0  0  0  0  0  0  0  0
   39.2430   33.1190   44.9300 H   0  0  0  0  0  0  0  0  0  0  0  0
   37.8010   33.5960   43.9400 H   0  0  0  0  0  0  0  0  0  0  0  0
   39.6760   34.1590   42.6970 H   0  0  0  0  0  0  0  0  0  0  0  0
   40.5160   32.6190   42.9000 H   0  0  0  0  0  0  0  0  0  0  0  0
   39.1570   33.0300   40.8210 H   0  0  0  0  0  0  0  0  0  0  0  0
   37.3960   31.1120   41.5080 H   0  0  0  0  0  0  0  0  0  0  0  0
   39.1250   30.8120   40.8880 H   0  0  0  0  0  0  0  0  0  0  0  0
   39.8640   30.6370   43.1890 H   0  0  0  0  0  0  0  0  0  0  0  0
   38.8840   31.5460   46.8850 Cl  0  0  0  0  0  0  0  0  0  0  0  0
   37.3810   30.9250   46.2610 C   0  0  0  0  0  0  0  0  0  0  0  0
   36.4650   30.4180   47.1150 C   0  0  0  0  0  0  0  0  0  0  0  0
   35.2830   29.9700   46.5290 C   0  0  0  0  0  0  0  0  0  0  0  0
   34.9990   30.0100   45.1980 C   0  0  0  0  0  0  0  0  0  0  0  0
   35.9670   30.5360   44.3680 C   0  0  0  0  0  0  0  0  0  0  0  0
   37.1720   30.9990   44.8980 C   0  0  0  0  0  0  0  0  0  0  0  0
   34.5140   29.5530   47.1840 H   0  0  0  0  0  0  0  0  0  0  0  0
   34.0670   29.6530   44.7860 H   0  0  0  0  0  0  0  0  0  0  0  0
   35.8560   30.6190   43.2950 H   0  0  0  0  0  0  0  0  0  0  0  0
   37.1450   31.4430   50.6650 C   0  0  0  0  0  0  0  0  0  0  0  0
   36.9030   31.5300   49.2860 C   0  0  0  0  0  0  0  0  0  0  0  0
   36.7310   30.3610   48.5310 C   0  0  0  0  0  0  0  0  0  0  0  0
   36.8140   29.1670   49.1960 N   0  0  0  0  0  0  0  0  0  0  0  0
   37.0490   29.1020   50.5180 C   0  0  0  0  0  0  0  0  0  0  0  0
   37.2160   30.2310   51.2610 N   0  0  0  0  0  0  0  0  0  0  0  0
   37.2890   32.2840   51.3250 H   0  0  0  0  0  0  0  0  0  0  0  0
   36.9120   32.5540   48.9780 H   0  0  0  0  0  0  0  0  0  0  0  0
   37.0790   28.0740   50.8520 H   0  0  0  0  0  0  0  0  0  0  0  0
   38.2690   29.2480   43.2100 C   0  0  0  0  0  2  0  0  0  0  0  0
   38.9980   28.1420   42.5480 C   0  0  2  0  0  0  0  0  0  0  0  0
   40.4680   28.2730   42.4320 C   0  0  0  0  0  2  0  0  0  0  0  0
   40.8230   28.5620   41.0680 N   0  0  1  0  0  0  0  0  0  0  0  0
   41.3670   29.1190   39.8770 C   0  0  2  0  0  0  0  0  0  0  0  0
   42.3130   29.9320   39.6150 O   0  0  0  0  0  1  0  0  0  0  0  0
   40.4090   28.3990   38.9750 C   0  0  0  0  0  3  0  0  0  0  0  0
   39.5700   28.9990   38.6120 H   0  0  0  0  0  0  0  0  0  0  0  0
   40.1710   27.5910   40.2060 C   0  0  1  0  0  0  0  0  0  0  0  0
   38.4630   27.7460   40.8740 S   0  0  0  0  0  0  0  0  0  0  0  0
   38.7050   26.8980   43.3720 C   0  0  0  0  0  2  0  0  0  0  0  0
   39.0320   25.9970   42.8460 H   0  0  0  0  0  0  0  0  0  0  0  0
  1  2  1  0  0  0  0
  1 21  1  0  0  0  0
  2  7  1  0  0  0  0
  3 10  1  0  0  0  0
  3  2  1  0  0  0  0
  4  3  1  0  0  0  0
  5  4  1  0  0  0  0
  5  6  1  0  0  0  0
  6 14  1  1  0  0  0
  6 34  1  0  0  0  0
  6  1  1  0  0  0  0
  8  2  1  0  0  0  0
  9  3  1  0  0  0  0
 11  4  1  0  0  0  0
 12  5  1  0  0  0  0
 13  5  1  0  0  0  0
 16 15  1  0  0  0  0
 16 17  1  0  0  0  0
 17 27  1  0  0  0  0
 18 17  2  0  0  0  0
 18 22  1  0  0  0  0
 19 18  1  0  0  0  0
 20 21  1  0  0  0  0
 20 19  2  0  0  0  0
 21 16  2  0  0  0  0
 23 19  1  0  0  0  0
 24 20  1  0  0  0  0
 25 30  1  0  0  0  0
 25 31  1  0  0  0  0
 26 25  2  0  0  0  0
 27 28  2  0  0  0  0
 27 26  1  0  0  0  0
 28 29  1  0  0  0  0
 29 33  1  0  0  0  0
 29 30  2  0  0  0  0
 32 26  1  0  0  0  0
 35 34  1  1  0  0  0
 35 44  1  0  0  0  0
 36 35  1  0  0  0  0
 37 36  1  1  0  0  0
 38 39  1  6  0  0  0
 38 42  1  0  0  0  0
 38 37  1  0  0  0  0
 40 38  1  0  0  0  0
 41 40  1  0  0  0  0
 42 40  1  6  0  0  0
 42 43  1  0  0  0  0
 42 37  1  0  0  0  0
 43 35  1  0  0  0  0
 45 44  1  0  0  0  0
M  END
>  <minimizedAffinity>
-5.6760335

>  <minimizedRMSD>
1.72617435

$$$$
