
 OpenBabel03272500593D

 38 41  0  0  1  0  0  0  0  0999 V2000
   36.7420   27.4310   32.8200 C   0  0  0  0  0  0  0  0  0  0  0  0
   36.3290   28.5500   32.1590 C   0  0  0  0  0  0  0  0  0  0  0  0
   35.8580   29.6860   32.8260 C   0  0  0  0  0  0  0  0  0  0  0  0
   35.8220   29.6400   34.2740 C   0  0  0  0  0  0  0  0  0  0  0  0
   36.2480   28.4980   34.8700 C   0  0  0  0  0  0  0  0  0  0  0  0
   36.6970   27.4100   34.2180 C   0  0  0  0  0  0  0  0  0  0  0  0
   36.3450   28.6150   31.0580 H   0  0  0  0  0  0  0  0  0  0  0  0
   35.5420   30.5470   32.2310 H   0  0  0  0  0  0  0  0  0  0  0  0
   35.4440   30.5660   34.6400 H   0  0  0  0  0  0  0  0  0  0  0  0
   36.1600   28.6970   35.9260 H   0  0  0  0  0  0  0  0  0  0  0  0
   36.2730   25.3920   31.5430 C   0  0  0  0  0  0  0  0  0  0  0  0
   37.2260   26.3500   31.9930 C   0  0  0  0  0  0  0  0  0  0  0  0
   38.5090   26.1170   31.5650 C   0  0  0  0  0  0  0  0  0  0  0  0
   38.7960   25.0620   30.7870 N   0  0  0  0  0  0  0  0  0  0  0  0
   37.9040   24.1880   30.3810 C   0  0  0  0  0  0  0  0  0  0  0  0
   36.6480   24.3590   30.7610 N   0  0  0  0  0  0  0  0  0  0  0  0
   35.2240   25.4900   31.8310 H   0  0  0  0  0  0  0  0  0  0  0  0
   39.2280   26.8390   31.9050 H   0  0  0  0  0  0  0  0  0  0  0  0
   38.1990   23.3580   29.7540 H   0  0  0  0  0  0  0  0  0  0  0  0
   38.4230   26.3840   35.4420 C   0  0  0  0  0  0  0  0  0  0  0  0
   39.0970   27.4650   35.2180 O   0  0  0  0  0  0  0  0  0  0  0  0
   37.0870   26.2800   34.8910 N   0  0  0  0  0  0  0  0  0  0  0  0
   36.5060   25.4430   34.9990 H   0  0  0  0  0  0  0  0  0  0  0  0
   38.9950   25.3850   36.1840 O   0  0  0  0  0  0  0  0  0  0  0  0
   38.3090   24.3140   36.7420 C   0  0  0  0  0  0  0  0  0  0  0  0
   37.6710   24.4210   37.8880 O   0  0  0  0  0  0  0  0  0  0  0  0
   41.9870   22.4730   36.0420 C   0  0  0  0  0  0  0  0  0  0  0  0
   41.1840   21.8170   34.9410 C   0  0  0  0  0  2  0  0  0  0  0  0
   39.8360   22.3340   35.0090 N   0  0  0  0  0  0  0  0  0  0  0  0
   38.5780   22.9450   34.7500 C   0  0  0  0  0  0  0  0  0  0  0  0
   37.9730   23.3560   33.7400 O   0  0  0  0  0  0  0  0  0  0  0  0
   38.1550   22.9470   36.1760 C   0  0  1  0  0  3  0  0  0  0  0  0
   39.3020   22.0280   36.3430 C   0  0  2  0  0  3  0  0  0  0  0  0
   40.6980   22.6100   37.3450 S   0  0  0  0  0  0  0  0  0  0  0  0
   42.5520   23.8020   35.6860 C   0  0  0  0  0  2  0  0  0  0  0  0
   42.1860   24.5430   36.4530 H   0  0  0  0  0  0  0  0  0  0  0  0
   43.0180   21.4630   36.4970 C   0  0  0  0  0  2  0  0  0  0  0  0
   43.7750   21.3540   35.7030 H   0  0  0  0  0  0  0  0  0  0  0  0
  1  6  1  0  0  0  0
  2  1  2  0  0  0  0
  2  3  1  0  0  0  0
  3  4  2  0  0  0  0
  4  9  1  0  0  0  0
  4  5  1  0  0  0  0
  5 10  1  0  0  0  0
  6  5  2  0  0  0  0
  6 22  1  0  0  0  0
  7  2  1  0  0  0  0
  8  3  1  0  0  0  0
 11 17  1  0  0  0  0
 11 12  1  0  0  0  0
 12  1  1  0  0  0  0
 13 18  1  0  0  0  0
 13 12  2  0  0  0  0
 14 13  1  0  0  0  0
 15 16  1  0  0  0  0
 15 14  2  0  0  0  0
 16 11  2  0  0  0  0
 19 15  1  0  0  0  0
 20 24  1  0  0  0  0
 21 20  2  0  0  0  0
 22 23  1  0  0  0  0
 22 20  1  0  0  0  0
 24 25  1  0  0  0  0
 25 26  2  0  0  0  0
 27 37  1  0  0  0  0
 27 34  1  0  0  0  0
 28 29  1  0  0  0  0
 28 27  1  0  0  0  0
 29 33  1  0  0  0  0
 30 29  1  0  0  0  0
 30 32  1  0  0  0  0
 31 30  2  0  0  0  0
 32 33  1  0  0  0  0
 32 25  1  1  0  0  0
 33 34  1  1  0  0  0
 35 27  1  0  0  0  0
 35 36  1  0  0  0  0
 38 37  1  0  0  0  0
M  END
>  <minimizedAffinity>
-5.70155764

$$$$

 OpenBabel03272500593D

 38 41  0  0  1  0  0  0  0  0999 V2000
   33.7240   30.5450   35.3860 C   0  0  0  0  0  0  0  0  0  0  0  0
   33.3270   31.7310   35.9290 C   0  0  0  0  0  0  0  0  0  0  0  0
   34.2300   32.7520   36.2480 C   0  0  0  0  0  0  0  0  0  0  0  0
   35.6320   32.5090   35.9780 C   0  0  0  0  0  0  0  0  0  0  0  0
   35.9610   31.3090   35.4360 C   0  0  0  0  0  0  0  0  0  0  0  0
   35.0840   30.3330   35.1350 C   0  0  0  0  0  0  0  0  0  0  0  0
   32.2670   31.9460   36.1450 H   0  0  0  0  0  0  0  0  0  0  0  0
   33.8390   33.6770   36.6820 H   0  0  0  0  0  0  0  0  0  0  0  0
   36.1940   33.3650   36.2680 H   0  0  0  0  0  0  0  0  0  0  0  0
   37.0290   31.3590   35.2980 H   0  0  0  0  0  0  0  0  0  0  0  0
   32.1680   28.8220   36.1670 C   0  0  0  0  0  0  0  0  0  0  0  0
   32.6730   29.6010   35.0890 C   0  0  0  0  0  0  0  0  0  0  0  0
   32.0740   29.3510   33.8800 C   0  0  0  0  0  0  0  0  0  0  0  0
   31.0960   28.4380   33.7690 N   0  0  0  0  0  0  0  0  0  0  0  0
   30.6410   27.7280   34.7760 C   0  0  0  0  0  0  0  0  0  0  0  0
   31.1800   27.9240   35.9690 N   0  0  0  0  0  0  0  0  0  0  0  0
   32.5800   28.9470   37.1710 H   0  0  0  0  0  0  0  0  0  0  0  0
   32.4560   29.9380   33.0650 H   0  0  0  0  0  0  0  0  0  0  0  0
   29.8500   27.0080   34.6220 H   0  0  0  0  0  0  0  0  0  0  0  0
   35.7220   29.1880   33.1830 C   0  0  0  0  0  0  0  0  0  0  0  0
   35.4810   30.2990   32.5650 O   0  0  0  0  0  0  0  0  0  0  0  0
   35.4980   29.1340   34.6130 N   0  0  0  0  0  0  0  0  0  0  0  0
   35.6350   28.2810   35.1640 H   0  0  0  0  0  0  0  0  0  0  0  0
   36.1740   28.1130   32.4640 O   0  0  0  0  0  0  0  0  0  0  0  0
   37.5060   27.8570   32.1680 C   0  0  0  0  0  0  0  0  0  0  0  0
   38.0890   28.3630   31.1020 O   0  0  0  0  0  0  0  0  0  0  0  0
   36.9850   23.7640   31.5480 C   0  0  0  0  0  0  0  0  0  0  0  0
   37.4870   23.7230   32.9740 C   0  0  0  0  0  2  0  0  0  0  0  0
   37.7350   25.0830   33.3950 N   0  0  0  0  0  0  0  0  0  0  0  0
   37.7470   26.3430   34.0560 C   0  0  0  0  0  0  0  0  0  0  0  0
   37.3330   26.7860   35.1460 O   0  0  0  0  0  0  0  0  0  0  0  0
   38.4670   27.0420   32.9590 C   0  0  1  0  0  3  0  0  0  0  0  0
   38.7220   25.6670   32.4770 C   0  0  2  0  0  3  0  0  0  0  0  0
   37.9630   25.1810   30.9020 S   0  0  0  0  0  0  0  0  0  0  0  0
   35.5220   24.0010   31.4150 C   0  0  0  0  0  2  0  0  0  0  0  0
   35.3840   24.9100   30.7640 H   0  0  0  0  0  0  0  0  0  0  0  0
   37.4730   22.5010   30.8720 C   0  0  0  0  0  2  0  0  0  0  0  0
   36.9120   21.6460   31.2820 H   0  0  0  0  0  0  0  0  0  0  0  0
  1  2  1  0  0  0  0
  2  7  1  0  0  0  0
  2  3  2  0  0  0  0
  3  8  1  0  0  0  0
  4  3  1  0  0  0  0
  4  9  1  0  0  0  0
  5  4  2  0  0  0  0
  6  1  2  0  0  0  0
  6  5  1  0  0  0  0
 10  5  1  0  0  0  0
 11 17  1  0  0  0  0
 12  1  1  0  0  0  0
 12 11  2  0  0  0  0
 13 12  1  0  0  0  0
 14 13  2  0  0  0  0
 14 15  1  0  0  0  0
 15 16  2  0  0  0  0
 16 11  1  0  0  0  0
 18 13  1  0  0  0  0
 19 15  1  0  0  0  0
 20 22  1  0  0  0  0
 21 20  2  0  0  0  0
 22  6  1  0  0  0  0
 22 23  1  0  0  0  0
 24 20  1  0  0  0  0
 25 24  1  0  0  0  0
 26 25  2  0  0  0  0
 27 28  1  0  0  0  0
 28 29  1  0  0  0  0
 29 30  1  0  0  0  0
 30 31  2  0  0  0  0
 32 25  1  6  0  0  0
 32 30  1  0  0  0  0
 33 34  1  6  0  0  0
 33 32  1  0  0  0  0
 33 29  1  0  0  0  0
 34 27  1  0  0  0  0
 35 27  1  0  0  0  0
 36 35  1  0  0  0  0
 37 38  1  0  0  0  0
 37 27  1  0  0  0  0
M  END
>  <minimizedAffinity>
-5.66614771

$$$$

 OpenBabel03272500593D

 38 41  0  0  1  0  0  0  0  0999 V2000
   38.5670   25.6100   35.1510 C   0  0  0  0  0  0  0  0  0  0  0  0
   38.5180   26.7590   35.8840 C   0  0  0  0  0  0  0  0  0  0  0  0
   37.7610   27.8690   35.4940 C   0  0  0  0  0  0  0  0  0  0  0  0
   37.0110   27.7620   34.2590 C   0  0  0  0  0  0  0  0  0  0  0  0
   37.1020   26.5920   33.5780 C   0  0  0  0  0  0  0  0  0  0  0  0
   37.8350   25.5310   33.9620 C   0  0  0  0  0  0  0  0  0  0  0  0
   39.0770   26.8710   36.8290 H   0  0  0  0  0  0  0  0  0  0  0  0
   37.7700   28.7570   36.1320 H   0  0  0  0  0  0  0  0  0  0  0  0
   36.4880   28.6730   34.0920 H   0  0  0  0  0  0  0  0  0  0  0  0
   36.4540   26.7260   32.7250 H   0  0  0  0  0  0  0  0  0  0  0  0
   38.7840   23.7260   36.7030 C   0  0  0  0  0  0  0  0  0  0  0  0
   39.3730   24.5430   35.6980 C   0  0  0  0  0  0  0  0  0  0  0  0
   40.6590   24.1970   35.3670 C   0  0  0  0  0  0  0  0  0  0  0  0
   41.2720   23.1650   35.9670 N   0  0  0  0  0  0  0  0  0  0  0  0
   40.7120   22.4200   36.8930 C   0  0  0  0  0  0  0  0  0  0  0  0
   39.4720   22.7050   37.2550 N   0  0  0  0  0  0  0  0  0  0  0  0
   37.7620   23.9220   37.0350 H   0  0  0  0  0  0  0  0  0  0  0  0
   41.1040   24.8150   34.6090 H   0  0  0  0  0  0  0  0  0  0  0  0
   41.2590   21.6010   37.3380 H   0  0  0  0  0  0  0  0  0  0  0  0
   38.9020   24.4570   32.1620 C   0  0  0  0  0  0  0  0  0  0  0  0
   39.5800   25.5520   32.0330 O   0  0  0  0  0  0  0  0  0  0  0  0
   37.8970   24.3900   33.2030 N   0  0  0  0  0  0  0  0  0  0  0  0
   37.3000   23.5690   33.3450 H   0  0  0  0  0  0  0  0  0  0  0  0
   39.1590   23.4130   31.3140 O   0  0  0  0  0  0  0  0  0  0  0  0
   39.2600   22.0830   31.6970 C   0  0  0  0  0  0  0  0  0  0  0  0
   39.5250   21.7370   32.9390 O   0  0  0  0  0  0  0  0  0  0  0  0
   35.6270   20.1680   32.4330 C   0  0  0  0  0  0  0  0  0  0  0  0
   36.4470   18.9640   32.0270 C   0  0  0  0  0  2  0  0  0  0  0  0
   37.7840   19.4230   31.7200 N   0  0  0  0  0  0  0  0  0  0  0  0
   39.1870   19.6520   31.6720 C   0  0  0  0  0  0  0  0  0  0  0  0
   40.2030   19.0870   32.1260 O   0  0  0  0  0  0  0  0  0  0  0  0
   39.0750   20.8800   30.8410 C   0  0  1  0  0  3  0  0  0  0  0  0
   37.6840   20.4160   30.6430 C   0  0  2  0  0  3  0  0  0  0  0  0
   36.3560   21.4440   31.3300 S   0  0  0  0  0  0  0  0  0  0  0  0
   35.7530   20.5440   33.8660 C   0  0  0  0  0  2  0  0  0  0  0  0
   36.0870   21.6200   33.9060 H   0  0  0  0  0  0  0  0  0  0  0  0
   34.2060   19.9050   31.9830 C   0  0  0  0  0  2  0  0  0  0  0  0
   33.7770   19.1160   32.6220 H   0  0  0  0  0  0  0  0  0  0  0  0
  1 12  1  0  0  0  0
  1  2  1  0  0  0  0
  2  7  1  0  0  0  0
  3  2  2  0  0  0  0
  3  8  1  0  0  0  0
  4  3  1  0  0  0  0
  5  6  1  0  0  0  0
  5  4  2  0  0  0  0
  6  1  2  0  0  0  0
  9  4  1  0  0  0  0
 10  5  1  0  0  0  0
 11 17  1  0  0  0  0
 11 16  1  0  0  0  0
 12 11  2  0  0  0  0
 13 12  1  0  0  0  0
 13 14  2  0  0  0  0
 14 15  1  0  0  0  0
 15 16  2  0  0  0  0
 15 19  1  0  0  0  0
 18 13  1  0  0  0  0
 20 22  1  0  0  0  0
 21 20  2  0  0  0  0
 22 23  1  0  0  0  0
 22  6  1  0  0  0  0
 24 25  1  0  0  0  0
 24 20  1  0  0  0  0
 25 26  2  0  0  0  0
 27 35  1  0  0  0  0
 28 27  1  0  0  0  0
 29 28  1  0  0  0  0
 30 29  1  0  0  0  0
 30 31  2  0  0  0  0
 32 30  1  0  0  0  0
 32 25  1  1  0  0  0
 33 32  1  0  0  0  0
 33 34  1  1  0  0  0
 33 29  1  0  0  0  0
 34 27  1  0  0  0  0
 35 36  1  0  0  0  0
 37 27  1  0  0  0  0
 37 38  1  0  0  0  0
M  END
>  <minimizedAffinity>
-5.50779915

$$$$

 OpenBabel03272500593D

 38 41  0  0  1  0  0  0  0  0999 V2000
   37.1680   28.6140   31.6740 C   0  0  0  0  0  0  0  0  0  0  0  0
   36.2690   29.6370   31.6020 C   0  0  0  0  0  0  0  0  0  0  0  0
   35.4150   29.9640   32.6610 C   0  0  0  0  0  0  0  0  0  0  0  0
   35.5150   29.1670   33.8670 C   0  0  0  0  0  0  0  0  0  0  0  0
   36.4300   28.1650   33.8740 C   0  0  0  0  0  0  0  0  0  0  0  0
   37.2450   27.8580   32.8490 C   0  0  0  0  0  0  0  0  0  0  0  0
   36.1700   30.2620   30.6980 H   0  0  0  0  0  0  0  0  0  0  0  0
   34.7180   30.7970   32.5310 H   0  0  0  0  0  0  0  0  0  0  0  0
   34.8110   29.5280   34.5790 H   0  0  0  0  0  0  0  0  0  0  0  0
   36.3500   27.7350   34.8600 H   0  0  0  0  0  0  0  0  0  0  0  0
   37.4350   28.7360   29.2420 C   0  0  0  0  0  0  0  0  0  0  0  0
   37.9980   28.4160   30.5090 C   0  0  0  0  0  0  0  0  0  0  0  0
   39.2890   27.9560   30.4550 C   0  0  0  0  0  0  0  0  0  0  0  0
   39.9310   27.8350   29.2820 N   0  0  0  0  0  0  0  0  0  0  0  0
   39.3950   28.1360   28.1220 C   0  0  0  0  0  0  0  0  0  0  0  0
   38.1510   28.5850   28.1080 N   0  0  0  0  0  0  0  0  0  0  0  0
   36.4100   29.1100   29.1790 H   0  0  0  0  0  0  0  0  0  0  0  0
   39.7150   27.7140   31.4120 H   0  0  0  0  0  0  0  0  0  0  0  0
   39.9660   28.0160   27.2110 H   0  0  0  0  0  0  0  0  0  0  0  0
   37.5370   25.5460   32.5390 C   0  0  0  0  0  0  0  0  0  0  0  0
   36.2840   25.5260   32.2190 O   0  0  0  0  0  0  0  0  0  0  0  0
   38.1280   26.8110   32.9240 N   0  0  0  0  0  0  0  0  0  0  0  0
   39.1050   26.8990   33.2210 H   0  0  0  0  0  0  0  0  0  0  0  0
   38.2510   24.3770   32.5040 O   0  0  0  0  0  0  0  0  0  0  0  0
   38.2920   23.4380   33.5260 C   0  0  0  0  0  0  0  0  0  0  0  0
   38.5570   22.1710   33.2930 O   0  0  0  0  0  0  0  0  0  0  0  0
   41.6930   22.5470   35.7730 C   0  0  0  0  0  0  0  0  0  0  0  0
   40.6380   22.2200   36.8060 C   0  0  0  0  0  2  0  0  0  0  0  0
   39.3440   22.4680   36.2100 N   0  0  0  0  0  0  0  0  0  0  0  0
   38.0210   22.3750   35.6970 C   0  0  0  0  0  0  0  0  0  0  0  0
   37.0880   21.5500   35.7690 O   0  0  0  0  0  0  0  0  0  0  0  0
   38.0830   23.6760   34.9800 C   0  0  1  0  0  3  0  0  0  0  0  0
   39.2990   23.8770   35.7990 C   0  0  2  0  0  3  0  0  0  0  0  0
   40.8880   23.9660   34.9250 S   0  0  0  0  0  0  0  0  0  0  0  0
   41.9920   21.4400   34.8250 C   0  0  0  0  0  2  0  0  0  0  0  0
   41.8310   21.8340   33.7820 H   0  0  0  0  0  0  0  0  0  0  0  0
   42.9010   23.0640   36.5240 C   0  0  0  0  0  2  0  0  0  0  0  0
   43.3660   22.2210   37.0600 H   0  0  0  0  0  0  0  0  0  0  0  0
  1  6  1  0  0  0  0
  2  1  2  0  0  0  0
  2  3  1  0  0  0  0
  3  4  2  0  0  0  0
  4  5  1  0  0  0  0
  4  9  1  0  0  0  0
  5 10  1  0  0  0  0
  6 22  1  0  0  0  0
  6  5  2  0  0  0  0
  7  2  1  0  0  0  0
  8  3  1  0  0  0  0
 11 12  1  0  0  0  0
 12  1  1  0  0  0  0
 13 12  2  0  0  0  0
 13 18  1  0  0  0  0
 14 13  1  0  0  0  0
 15 14  2  0  0  0  0
 16 15  1  0  0  0  0
 16 11  2  0  0  0  0
 17 11  1  0  0  0  0
 19 15  1  0  0  0  0
 20 22  1  0  0  0  0
 21 20  2  0  0  0  0
 22 23  1  0  0  0  0
 24 20  1  0  0  0  0
 24 25  1  0  0  0  0
 26 25  2  0  0  0  0
 27 37  1  0  0  0  0
 27 28  1  0  0  0  0
 29 28  1  0  0  0  0
 30 31  2  0  0  0  0
 30 29  1  0  0  0  0
 32 25  1  6  0  0  0
 32 30  1  0  0  0  0
 32 33  1  0  0  0  0
 33 34  1  6  0  0  0
 33 29  1  0  0  0  0
 34 27  1  0  0  0  0
 35 27  1  0  0  0  0
 36 35  1  0  0  0  0
 37 38  1  0  0  0  0
M  END
>  <minimizedAffinity>
-5.4643755

$$$$

 OpenBabel03272500593D

 38 41  0  0  1  0  0  0  0  0999 V2000
   37.5540   27.6940   31.8190 C   0  0  0  0  0  0  0  0  0  0  0  0
   38.6250   27.8980   31.0010 C   0  0  0  0  0  0  0  0  0  0  0  0
   38.5810   28.7690   29.9070 C   0  0  0  0  0  0  0  0  0  0  0  0
   37.3350   29.4670   29.6620 C   0  0  0  0  0  0  0  0  0  0  0  0
   36.3080   29.2200   30.5130 C   0  0  0  0  0  0  0  0  0  0  0  0
   36.3610   28.3780   31.5620 C   0  0  0  0  0  0  0  0  0  0  0  0
   39.5870   27.3820   31.1620 H   0  0  0  0  0  0  0  0  0  0  0  0
   39.4800   28.8820   29.2940 H   0  0  0  0  0  0  0  0  0  0  0  0
   37.4500   30.0880   28.8060 H   0  0  0  0  0  0  0  0  0  0  0  0
   35.5100   29.8550   30.1630 H   0  0  0  0  0  0  0  0  0  0  0  0
   37.6350   25.3920   32.6550 C   0  0  0  0  0  0  0  0  0  0  0  0
   37.7620   26.7840   32.9210 C   0  0  0  0  0  0  0  0  0  0  0  0
   38.0810   27.0850   34.2220 C   0  0  0  0  0  0  0  0  0  0  0  0
   38.2500   26.1140   35.1330 N   0  0  0  0  0  0  0  0  0  0  0  0
   38.1290   24.8340   34.8690 C   0  0  0  0  0  0  0  0  0  0  0  0
   37.8230   24.4800   33.6310 N   0  0  0  0  0  0  0  0  0  0  0  0
   37.3830   25.0500   31.6480 H   0  0  0  0  0  0  0  0  0  0  0  0
   38.1760   28.1360   34.4240 H   0  0  0  0  0  0  0  0  0  0  0  0
   38.2790   24.1000   35.6490 H   0  0  0  0  0  0  0  0  0  0  0  0
   35.0920   29.1900   33.3670 C   0  0  0  0  0  0  0  0  0  0  0  0
   35.9650   30.1430   33.4300 O   0  0  0  0  0  0  0  0  0  0  0  0
   35.2690   28.1610   32.3630 N   0  0  0  0  0  0  0  0  0  0  0  0
   34.6380   27.3590   32.2740 H   0  0  0  0  0  0  0  0  0  0  0  0
   34.0430   29.1900   34.2480 O   0  0  0  0  0  0  0  0  0  0  0  0
   32.7240   29.4680   33.9150 C   0  0  0  0  0  0  0  0  0  0  0  0
   32.2780   29.3360   32.6840 O   0  0  0  0  0  0  0  0  0  0  0  0
   33.9650   32.5050   36.4920 C   0  0  0  0  0  0  0  0  0  0  0  0
   32.9360   31.8480   37.3840 C   0  0  0  0  0  2  0  0  0  0  0  0
   32.3680   30.7350   36.6580 N   0  0  0  0  0  0  0  0  0  0  0  0
   31.9290   29.4570   36.2140 C   0  0  0  0  0  0  0  0  0  0  0  0
   31.8030   28.3250   36.7250 O   0  0  0  0  0  0  0  0  0  0  0  0
   31.6360   29.9100   34.8280 C   0  0  1  0  0  3  0  0  0  0  0  0
   31.7760   31.2590   35.4200 C   0  0  2  0  0  3  0  0  0  0  0  0
   33.1660   32.2780   34.8530 S   0  0  0  0  0  0  0  0  0  0  0  0
   35.3120   31.8750   36.5380 C   0  0  0  0  0  2  0  0  0  0  0  0
   35.5880   31.5890   35.4830 H   0  0  0  0  0  0  0  0  0  0  0  0
   33.9590   33.9810   36.8260 C   0  0  0  0  0  2  0  0  0  0  0  0
   34.4080   34.1170   37.8230 H   0  0  0  0  0  0  0  0  0  0  0  0
  1 12  1  0  0  0  0
  2  7  1  0  0  0  0
  2  1  2  0  0  0  0
  3  2  1  0  0  0  0
  4  3  2  0  0  0  0
  4  5  1  0  0  0  0
  5  6  2  0  0  0  0
  6  1  1  0  0  0  0
  6 22  1  0  0  0  0
  8  3  1  0  0  0  0
  9  4  1  0  0  0  0
 10  5  1  0  0  0  0
 11 12  2  0  0  0  0
 11 16  1  0  0  0  0
 12 13  1  0  0  0  0
 13 18  1  0  0  0  0
 13 14  2  0  0  0  0
 15 14  1  0  0  0  0
 15 19  1  0  0  0  0
 16 15  2  0  0  0  0
 17 11  1  0  0  0  0
 20 21  2  0  0  0  0
 20 24  1  0  0  0  0
 22 20  1  0  0  0  0
 23 22  1  0  0  0  0
 25 24  1  0  0  0  0
 26 25  2  0  0  0  0
 27 35  1  0  0  0  0
 27 37  1  0  0  0  0
 27 28  1  0  0  0  0
 29 28  1  0  0  0  0
 30 29  1  0  0  0  0
 30 31  2  0  0  0  0
 32 25  1  6  0  0  0
 32 33  1  0  0  0  0
 32 30  1  0  0  0  0
 33 34  1  6  0  0  0
 33 29  1  0  0  0  0
 34 27  1  0  0  0  0
 36 35  1  0  0  0  0
 37 38  1  0  0  0  0
M  END
>  <minimizedAffinity>
-5.38924837

$$$$

 OpenBabel03272500593D

 38 41  0  0  1  0  0  0  0  0999 V2000
   36.4020   29.5850   31.5140 C   0  0  0  0  0  0  0  0  0  0  0  0
   36.3730   30.6040   30.6080 C   0  0  0  0  0  0  0  0  0  0  0  0
   37.2040   30.6330   29.4820 C   0  0  0  0  0  0  0  0  0  0  0  0
   38.1170   29.5230   29.3010 C   0  0  0  0  0  0  0  0  0  0  0  0
   38.0950   28.5410   30.2380 C   0  0  0  0  0  0  0  0  0  0  0  0
   37.2930   28.5250   31.3180 C   0  0  0  0  0  0  0  0  0  0  0  0
   35.6890   31.4620   30.7190 H   0  0  0  0  0  0  0  0  0  0  0  0
   37.1260   31.4830   28.7980 H   0  0  0  0  0  0  0  0  0  0  0  0
   38.6790   29.6800   28.4110 H   0  0  0  0  0  0  0  0  0  0  0  0
   38.8200   27.8220   29.8910 H   0  0  0  0  0  0  0  0  0  0  0  0
   34.1370   29.2360   32.3810 C   0  0  0  0  0  0  0  0  0  0  0  0
   35.4670   29.6860   32.6110 C   0  0  0  0  0  0  0  0  0  0  0  0
   35.6930   30.1630   33.8770 C   0  0  0  0  0  0  0  0  0  0  0  0
   34.7110   30.1830   34.7930 N   0  0  0  0  0  0  0  0  0  0  0  0
   33.4890   29.7620   34.5630 C   0  0  0  0  0  0  0  0  0  0  0  0
   33.2090   29.2910   33.3590 N   0  0  0  0  0  0  0  0  0  0  0  0
   33.8570   28.8380   31.4020 H   0  0  0  0  0  0  0  0  0  0  0  0
   36.6970   30.5040   34.0510 H   0  0  0  0  0  0  0  0  0  0  0  0
   32.7420   29.8040   35.3440 H   0  0  0  0  0  0  0  0  0  0  0  0
   36.5350   26.3680   31.8670 C   0  0  0  0  0  0  0  0  0  0  0  0
   35.8390   26.4380   30.7790 O   0  0  0  0  0  0  0  0  0  0  0  0
   37.3480   27.5080   32.2370 N   0  0  0  0  0  0  0  0  0  0  0  0
   37.9000   27.5390   33.1000 H   0  0  0  0  0  0  0  0  0  0  0  0
   36.4740   25.2270   32.6220 O   0  0  0  0  0  0  0  0  0  0  0  0
   37.4920   24.2890   32.7310 C   0  0  0  0  0  0  0  0  0  0  0  0
   38.0810   24.0360   33.8800 O   0  0  0  0  0  0  0  0  0  0  0  0
   35.7900   20.4800   32.6940 C   0  0  0  0  0  0  0  0  0  0  0  0
   37.1610   20.1280   32.1610 C   0  0  0  0  0  2  0  0  0  0  0  0
   37.9350   21.3470   32.0940 N   0  0  0  0  0  0  0  0  0  0  0  0
   38.9090   22.3740   32.2430 C   0  0  0  0  0  0  0  0  0  0  0  0
   40.0710   22.4470   32.6910 O   0  0  0  0  0  0  0  0  0  0  0  0
   38.0520   23.4340   31.6500 C   0  0  1  0  0  3  0  0  0  0  0  0
   37.2230   22.2870   31.2170 C   0  0  2  0  0  3  0  0  0  0  0  0
   35.5630   22.1390   31.9360 S   0  0  0  0  0  0  0  0  0  0  0  0
   35.7010   20.5370   34.1780 C   0  0  0  0  0  2  0  0  0  0  0  0
   35.3150   21.5590   34.4550 H   0  0  0  0  0  0  0  0  0  0  0  0
   34.8090   19.5240   32.0500 C   0  0  0  0  0  2  0  0  0  0  0  0
   34.9650   18.5200   32.4790 H   0  0  0  0  0  0  0  0  0  0  0  0
  1 12  1  0  0  0  0
  2  7  1  0  0  0  0
  2  1  2  0  0  0  0
  3  2  1  0  0  0  0
  4  3  2  0  0  0  0
  4  5  1  0  0  0  0
  5  6  2  0  0  0  0
  6  1  1  0  0  0  0
  6 22  1  0  0  0  0
  8  3  1  0  0  0  0
  9  4  1  0  0  0  0
 10  5  1  0  0  0  0
 11 12  2  0  0  0  0
 11 16  1  0  0  0  0
 12 13  1  0  0  0  0
 13 18  1  0  0  0  0
 13 14  2  0  0  0  0
 15 14  1  0  0  0  0
 15 19  1  0  0  0  0
 16 15  2  0  0  0  0
 17 11  1  0  0  0  0
 20 22  1  0  0  0  0
 20 24  1  0  0  0  0
 21 20  2  0  0  0  0
 22 23  1  0  0  0  0
 24 25  1  0  0  0  0
 25 26  2  0  0  0  0
 27 35  1  0  0  0  0
 28 27  1  0  0  0  0
 29 28  1  0  0  0  0
 29 30  1  0  0  0  0
 30 31  2  0  0  0  0
 32 30  1  0  0  0  0
 32 25  1  1  0  0  0
 33 32  1  0  0  0  0
 33 34  1  1  0  0  0
 33 29  1  0  0  0  0
 34 27  1  0  0  0  0
 35 36  1  0  0  0  0
 37 38  1  0  0  0  0
 37 27  1  0  0  0  0
M  END
>  <minimizedAffinity>
-5.33283806

$$$$

 OpenBabel03272500593D

 38 41  0  0  1  0  0  0  0  0999 V2000
   38.6600   24.8700   36.2830 C   0  0  0  0  0  0  0  0  0  0  0  0
   38.0600   25.4220   37.3760 C   0  0  0  0  0  0  0  0  0  0  0  0
   38.0080   24.7720   38.6140 C   0  0  0  0  0  0  0  0  0  0  0  0
   38.6250   23.4640   38.7050 C   0  0  0  0  0  0  0  0  0  0  0  0
   39.2050   22.9720   37.5820 C   0  0  0  0  0  0  0  0  0  0  0  0
   39.2480   23.6060   36.3950 C   0  0  0  0  0  0  0  0  0  0  0  0
   37.5830   26.4160   37.3380 H   0  0  0  0  0  0  0  0  0  0  0  0
   37.5090   25.2760   39.4470 H   0  0  0  0  0  0  0  0  0  0  0  0
   38.5080   23.0960   39.6960 H   0  0  0  0  0  0  0  0  0  0  0  0
   39.6150   22.0210   37.8850 H   0  0  0  0  0  0  0  0  0  0  0  0
   37.5020   25.6030   34.2510 C   0  0  0  0  0  0  0  0  0  0  0  0
   38.6550   25.6740   35.0830 C   0  0  0  0  0  0  0  0  0  0  0  0
   39.6300   26.5250   34.6280 C   0  0  0  0  0  0  0  0  0  0  0  0
   39.4690   27.2140   33.4870 N   0  0  0  0  0  0  0  0  0  0  0  0
   38.3970   27.1360   32.7320 C   0  0  0  0  0  0  0  0  0  0  0  0
   37.4210   26.3310   33.1190 N   0  0  0  0  0  0  0  0  0  0  0  0
   36.6690   24.9530   34.5280 H   0  0  0  0  0  0  0  0  0  0  0  0
   40.5010   26.5790   35.2550 H   0  0  0  0  0  0  0  0  0  0  0  0
   38.3270   27.7180   31.8230 H   0  0  0  0  0  0  0  0  0  0  0  0
   38.9540   22.1010   34.6120 C   0  0  0  0  0  0  0  0  0  0  0  0
   37.7790   21.8880   35.1080 O   0  0  0  0  0  0  0  0  0  0  0  0
   39.8310   23.0300   35.2960 N   0  0  0  0  0  0  0  0  0  0  0  0
   40.7870   23.2240   34.9810 H   0  0  0  0  0  0  0  0  0  0  0  0
   39.3220   21.4440   33.4680 O   0  0  0  0  0  0  0  0  0  0  0  0
   39.2640   21.9790   32.1880 C   0  0  0  0  0  0  0  0  0  0  0  0
   39.4840   23.2570   31.9610 O   0  0  0  0  0  0  0  0  0  0  0  0
   35.5550   20.0690   32.2350 C   0  0  0  0  0  0  0  0  0  0  0  0
   36.2960   19.1190   31.3210 C   0  0  0  0  0  2  0  0  0  0  0  0
   37.6460   19.6140   31.1690 N   0  0  0  0  0  0  0  0  0  0  0  0
   39.0570   19.7900   31.1510 C   0  0  0  0  0  0  0  0  0  0  0  0
   40.0540   19.0490   31.2750 O   0  0  0  0  0  0  0  0  0  0  0  0
   38.9880   21.2560   30.9180 C   0  0  1  0  0  3  0  0  0  0  0  0
   37.5690   20.9710   30.6130 C   0  0  2  0  0  3  0  0  0  0  0  0
   36.3200   21.6630   31.7330 S   0  0  0  0  0  0  0  0  0  0  0  0
   35.7440   19.8020   33.6860 C   0  0  0  0  0  2  0  0  0  0  0  0
   36.1380   20.7480   34.1560 H   0  0  0  0  0  0  0  0  0  0  0  0
   34.1090   20.0730   31.7880 C   0  0  0  0  0  2  0  0  0  0  0  0
   33.6570   19.1040   32.0590 H   0  0  0  0  0  0  0  0  0  0  0  0
  1  6  2  0  0  0  0
  1  2  1  0  0  0  0
  2  3  2  0  0  0  0
  3  4  1  0  0  0  0
  3  8  1  0  0  0  0
  4  9  1  0  0  0  0
  5 10  1  0  0  0  0
  5  4  2  0  0  0  0
  6  5  1  0  0  0  0
  7  2  1  0  0  0  0
 11 17  1  0  0  0  0
 11 12  1  0  0  0  0
 12  1  1  0  0  0  0
 13 12  2  0  0  0  0
 13 18  1  0  0  0  0
 14 13  1  0  0  0  0
 15 16  1  0  0  0  0
 15 14  2  0  0  0  0
 16 11  2  0  0  0  0
 19 15  1  0  0  0  0
 20 21  2  0  0  0  0
 20 22  1  0  0  0  0
 22  6  1  0  0  0  0
 23 22  1  0  0  0  0
 24 20  1  0  0  0  0
 25 24  1  0  0  0  0
 26 25  2  0  0  0  0
 27 35  1  0  0  0  0
 28 27  1  0  0  0  0
 29 28  1  0  0  0  0
 30 29  1  0  0  0  0
 30 31  2  0  0  0  0
 32 30  1  0  0  0  0
 32 25  1  1  0  0  0
 33 32  1  0  0  0  0
 33 29  1  0  0  0  0
 33 34  1  1  0  0  0
 34 27  1  0  0  0  0
 35 36  1  0  0  0  0
 37 38  1  0  0  0  0
 37 27  1  0  0  0  0
M  END
>  <minimizedAffinity>
-5.29143953

$$$$

 OpenBabel03272500593D

 38 41  0  0  1  0  0  0  0  0999 V2000
   41.0700   23.4310   35.9830 C   0  0  0  0  0  0  0  0  0  0  0  0
   41.9520   22.7010   36.7250 C   0  0  0  0  0  0  0  0  0  0  0  0
   43.3370   22.8770   36.6320 C   0  0  0  0  0  0  0  0  0  0  0  0
   43.8200   23.8800   35.7050 C   0  0  0  0  0  0  0  0  0  0  0  0
   42.8910   24.5710   34.9980 C   0  0  0  0  0  0  0  0  0  0  0  0
   41.5600   24.3920   35.0940 C   0  0  0  0  0  0  0  0  0  0  0  0
   41.6150   21.9320   37.4390 H   0  0  0  0  0  0  0  0  0  0  0  0
   43.9840   22.2550   37.2570 H   0  0  0  0  0  0  0  0  0  0  0  0
   44.8840   23.9010   35.7420 H   0  0  0  0  0  0  0  0  0  0  0  0
   43.4650   25.2660   34.4060 H   0  0  0  0  0  0  0  0  0  0  0  0
   39.0550   22.1720   35.3800 C   0  0  0  0  0  0  0  0  0  0  0  0
   39.6700   23.1520   36.2090 C   0  0  0  0  0  0  0  0  0  0  0  0
   38.8340   23.7120   37.1410 C   0  0  0  0  0  0  0  0  0  0  0  0
   37.5480   23.3360   37.2290 N   0  0  0  0  0  0  0  0  0  0  0  0
   36.9970   22.4290   36.4560 C   0  0  0  0  0  0  0  0  0  0  0  0
   37.7540   21.8520   35.5360 N   0  0  0  0  0  0  0  0  0  0  0  0
   39.6390   21.6680   34.6060 H   0  0  0  0  0  0  0  0  0  0  0  0
   39.2980   24.4530   37.7670 H   0  0  0  0  0  0  0  0  0  0  0  0
   35.9540   22.1690   36.5780 H   0  0  0  0  0  0  0  0  0  0  0  0
   40.5390   24.5830   32.9840 C   0  0  0  0  0  0  0  0  0  0  0  0
   41.2500   23.5540   32.6510 O   0  0  0  0  0  0  0  0  0  0  0  0
   40.6830   25.1130   34.3240 N   0  0  0  0  0  0  0  0  0  0  0  0
   40.1780   25.9440   34.6490 H   0  0  0  0  0  0  0  0  0  0  0  0
   39.6850   25.1260   32.0620 O   0  0  0  0  0  0  0  0  0  0  0  0
   38.3030   24.9940   32.0820 C   0  0  0  0  0  0  0  0  0  0  0  0
   37.6590   24.6140   33.1650 O   0  0  0  0  0  0  0  0  0  0  0  0
   36.2850   28.6130   32.5760 C   0  0  0  0  0  0  0  0  0  0  0  0
   35.2160   27.8500   31.8250 C   0  0  0  0  0  2  0  0  0  0  0  0
   35.7300   26.5270   31.5480 N   0  0  0  0  0  0  0  0  0  0  0  0
   35.9560   25.1260   31.4580 C   0  0  0  0  0  0  0  0  0  0  0  0
   35.2900   24.0950   31.6830 O   0  0  0  0  0  0  0  0  0  0  0  0
   37.3530   25.2650   30.9690 C   0  0  1  0  0  3  0  0  0  0  0  0
   36.9610   26.6770   30.7620 C   0  0  2  0  0  3  0  0  0  0  0  0
   37.7930   27.9310   31.7760 S   0  0  0  0  0  0  0  0  0  0  0  0
   36.2900   28.3810   34.0450 C   0  0  0  0  0  2  0  0  0  0  0  0
   37.3200   28.0200   34.3280 H   0  0  0  0  0  0  0  0  0  0  0  0
   36.1500   30.0670   32.1770 C   0  0  0  0  0  2  0  0  0  0  0  0
   35.2290   30.4690   32.6290 H   0  0  0  0  0  0  0  0  0  0  0  0
  1 12  1  0  0  0  0
  1  2  1  0  0  0  0
  2  7  1  0  0  0  0
  3  2  2  0  0  0  0
  3  8  1  0  0  0  0
  4  9  1  0  0  0  0
  4  3  1  0  0  0  0
  5  6  1  0  0  0  0
  5  4  2  0  0  0  0
  6  1  2  0  0  0  0
 10  5  1  0  0  0  0
 11 16  2  0  0  0  0
 11 12  1  0  0  0  0
 12 13  2  0  0  0  0
 13 14  1  0  0  0  0
 13 18  1  0  0  0  0
 15 19  1  0  0  0  0
 15 14  2  0  0  0  0
 16 15  1  0  0  0  0
 17 11  1  0  0  0  0
 20 22  1  0  0  0  0
 21 20  2  0  0  0  0
 22 23  1  0  0  0  0
 22  6  1  0  0  0  0
 24 25  1  0  0  0  0
 24 20  1  0  0  0  0
 25 26  2  0  0  0  0
 27 35  1  0  0  0  0
 28 27  1  0  0  0  0
 29 28  1  0  0  0  0
 30 29  1  0  0  0  0
 30 31  2  0  0  0  0
 32 30  1  0  0  0  0
 32 25  1  1  0  0  0
 33 32  1  0  0  0  0
 33 29  1  0  0  0  0
 33 34  1  1  0  0  0
 34 27  1  0  0  0  0
 35 36  1  0  0  0  0
 37 27  1  0  0  0  0
 37 38  1  0  0  0  0
M  END
>  <minimizedAffinity>
-5.28632355

$$$$

 OpenBabel03272500593D

 38 41  0  0  1  0  0  0  0  0999 V2000
   41.3620   22.3290   36.6050 C   0  0  0  0  0  0  0  0  0  0  0  0
   41.7730   21.1040   37.0400 C   0  0  0  0  0  0  0  0  0  0  0  0
   43.0760   20.6340   36.8420 C   0  0  0  0  0  0  0  0  0  0  0  0
   43.9990   21.5060   36.1450 C   0  0  0  0  0  0  0  0  0  0  0  0
   43.5270   22.7110   35.7390 C   0  0  0  0  0  0  0  0  0  0  0  0
   42.2710   23.1530   35.9330 C   0  0  0  0  0  0  0  0  0  0  0  0
   41.0940   20.4180   37.5740 H   0  0  0  0  0  0  0  0  0  0  0  0
   43.3350   19.6400   37.2180 H   0  0  0  0  0  0  0  0  0  0  0  0
   44.9430   21.0200   36.0680 H   0  0  0  0  0  0  0  0  0  0  0  0
   44.3760   23.1920   35.2780 H   0  0  0  0  0  0  0  0  0  0  0  0
   39.7170   23.1680   38.2160 C   0  0  0  0  0  0  0  0  0  0  0  0
   39.9940   22.6820   36.9070 C   0  0  0  0  0  0  0  0  0  0  0  0
   38.9000   22.6190   36.0820 C   0  0  0  0  0  0  0  0  0  0  0  0
   37.6860   22.9940   36.5150 N   0  0  0  0  0  0  0  0  0  0  0  0
   37.4480   23.4410   37.7270 C   0  0  0  0  0  0  0  0  0  0  0  0
   38.4650   23.5250   38.5700 N   0  0  0  0  0  0  0  0  0  0  0  0
   40.5230   23.2550   38.9480 H   0  0  0  0  0  0  0  0  0  0  0  0
   39.1090   22.2510   35.0940 H   0  0  0  0  0  0  0  0  0  0  0  0
   36.4460   23.7290   38.0150 H   0  0  0  0  0  0  0  0  0  0  0  0
   41.4700   24.3490   34.0740 C   0  0  0  0  0  0  0  0  0  0  0  0
   41.5820   23.2340   33.4270 O   0  0  0  0  0  0  0  0  0  0  0  0
   41.8610   24.3760   35.4680 N   0  0  0  0  0  0  0  0  0  0  0  0
   41.8310   25.2290   36.0360 H   0  0  0  0  0  0  0  0  0  0  0  0
   40.9920   25.4520   33.4180 O   0  0  0  0  0  0  0  0  0  0  0  0
   39.9920   26.2890   33.8930 C   0  0  0  0  0  0  0  0  0  0  0  0
   39.7990   26.4770   35.1820 O   0  0  0  0  0  0  0  0  0  0  0  0
   37.5210   23.9040   31.5230 C   0  0  0  0  0  0  0  0  0  0  0  0
   37.5760   25.1320   30.6420 C   0  0  0  0  0  2  0  0  0  0  0  0
   38.4100   26.1120   31.3010 N   0  0  0  0  0  0  0  0  0  0  0  0
   39.4170   27.0520   31.6570 C   0  0  0  0  0  0  0  0  0  0  0  0
   40.3240   27.6630   31.0560 O   0  0  0  0  0  0  0  0  0  0  0  0
   39.0320   27.0960   33.0920 C   0  0  1  0  0  3  0  0  0  0  0  0
   37.8180   26.3980   32.6150 C   0  0  2  0  0  3  0  0  0  0  0  0
   37.5570   24.6950   33.1820 S   0  0  0  0  0  0  0  0  0  0  0  0
   38.6570   22.9620   31.3390 C   0  0  0  0  0  2  0  0  0  0  0  0
   39.1440   22.8180   32.3450 H   0  0  0  0  0  0  0  0  0  0  0  0
   36.1570   23.2790   31.3230 C   0  0  0  0  0  2  0  0  0  0  0  0
   36.1220   22.8330   30.3160 H   0  0  0  0  0  0  0  0  0  0  0  0
  1 12  1  0  0  0  0
  1  2  1  0  0  0  0
  2  7  1  0  0  0  0
  3  2  2  0  0  0  0
  3  8  1  0  0  0  0
  4  3  1  0  0  0  0
  5  6  1  0  0  0  0
  5  4  2  0  0  0  0
  6  1  2  0  0  0  0
  9  4  1  0  0  0  0
 10  5  1  0  0  0  0
 11 16  1  0  0  0  0
 11 17  1  0  0  0  0
 12 11  2  0  0  0  0
 13 14  2  0  0  0  0
 13 12  1  0  0  0  0
 14 15  1  0  0  0  0
 15 19  1  0  0  0  0
 15 16  2  0  0  0  0
 18 13  1  0  0  0  0
 20 22  1  0  0  0  0
 21 20  2  0  0  0  0
 22  6  1  0  0  0  0
 22 23  1  0  0  0  0
 24 25  1  0  0  0  0
 24 20  1  0  0  0  0
 25 26  2  0  0  0  0
 27 34  1  0  0  0  0
 28 29  1  0  0  0  0
 28 27  1  0  0  0  0
 29 30  1  0  0  0  0
 29 33  1  0  0  0  0
 30 32  1  0  0  0  0
 31 30  2  0  0  0  0
 32 25  1  1  0  0  0
 33 32  1  0  0  0  0
 33 34  1  1  0  0  0
 35 27  1  0  0  0  0
 35 36  1  0  0  0  0
 37 27  1  0  0  0  0
 38 37  1  0  0  0  0
M  END
>  <minimizedAffinity>
-5.2728281

$$$$
