
 OpenBabel03272500223D

 40 44  0  0  1  0  0  0  0  0999 V2000
   35.4320   29.2990   50.4270 C   0  0  0  0  0  0  0  0  0  0  0  0
   36.3650   30.1550   49.7720 C   0  0  0  0  0  0  0  0  0  0  0  0
   36.3400   30.2480   48.3780 C   0  0  0  0  0  0  0  0  0  0  0  0
   35.3970   29.4910   47.7370 N   0  0  0  0  0  0  0  0  0  0  0  0
   34.5440   28.7080   48.3390 C   0  0  0  0  0  0  0  0  0  0  0  0
   34.5440   28.5970   49.6800 N   0  0  0  0  0  0  0  0  0  0  0  0
   35.4380   29.2160   51.5050 H   0  0  0  0  0  0  0  0  0  0  0  0
   32.8350   30.3320   46.4330 Cl  0  0  0  0  0  0  0  0  0  0  0  0
   32.7400   28.5810   46.6230 C   0  0  0  0  0  0  0  0  0  0  0  0
   33.5760   27.9420   47.5290 C   0  0  0  0  0  0  0  0  0  0  0  0
   33.5450   26.5530   47.7210 C   0  0  0  0  0  0  0  0  0  0  0  0
   32.6210   25.8580   46.9430 C   0  0  0  0  0  0  0  0  0  0  0  0
   31.7870   26.4670   46.0440 C   0  0  0  0  0  0  0  0  0  0  0  0
   30.6770   25.4680   45.1360 Cl  0  0  0  0  0  0  0  0  0  0  0  0
   31.8510   27.8450   45.8850 C   0  0  0  0  0  0  0  0  0  0  0  0
   34.2000   26.0600   48.4290 H   0  0  0  0  0  0  0  0  0  0  0  0
   32.5870   24.7860   47.0810 H   0  0  0  0  0  0  0  0  0  0  0  0
   30.9580   28.5230   44.9180 C   0  0  0  0  0  0  0  0  0  0  0  0
   30.0860   27.5890   44.3370 F   0  0  0  0  0  0  0  0  0  0  0  0
   31.6490   29.1760   43.9500 F   0  0  0  0  0  0  0  0  0  0  0  0
   30.1680   29.4350   45.5770 F   0  0  0  0  0  0  0  0  0  0  0  0
   37.3350   30.9180   50.6210 C   0  0  0  0  0  0  0  0  0  0  0  0
   38.6290   30.8080   50.1250 F   0  0  0  0  0  0  0  0  0  0  0  0
   36.9850   32.2540   50.5540 F   0  0  0  0  0  0  0  0  0  0  0  0
   37.3050   30.5440   51.9400 F   0  0  0  0  0  0  0  0  0  0  0  0
   37.2850   31.1250   47.6970 C   0  0  0  0  0  0  0  0  0  0  0  0
   36.7800   32.1050   47.5300 H   0  0  0  0  0  0  0  0  0  0  0  0
   38.2550   31.2490   48.2250 H   0  0  0  0  0  0  0  0  0  0  0  0
   37.2450   30.9290   42.6110 C   0  0  0  0  0  0  0  0  0  0  0  0
   38.5150   30.5520   43.2510 C   0  0  0  0  0  2  0  0  0  0  0  0
   38.5370   30.8420   44.6250 N   0  0  2  0  0  0  0  0  0  0  0  0
   39.0190   30.9850   45.9520 C   0  0  2  0  0  0  0  0  0  0  0  0
   40.1540   31.3700   46.3890 O   0  0  0  0  0  1  0  0  0  0  0  0
   37.6460   30.5040   46.3670 C   0  0  2  0  0  3  0  0  0  0  0  0
   37.2850   31.3240   45.1930 C   0  0  2  0  0  0  0  0  0  0  0  0
   36.0820   30.6620   44.0150 S   0  0  0  0  0  0  0  0  0  0  0  0
   36.8630   30.0520   41.4460 C   0  0  0  0  0  2  0  0  0  0  0  0
   37.0660   29.0100   41.7490 H   0  0  0  0  0  0  0  0  0  0  0  0
   37.2720   32.4030   42.2740 C   0  0  0  0  0  2  0  0  0  0  0  0
   37.1580   32.9440   43.2560 H   0  0  0  0  0  0  0  0  0  0  0  0
  1  7  1  0  0  0  0
  2  1  1  0  0  0  0
  2 22  1  0  0  0  0
  3  2  2  0  0  0  0
  4  5  2  0  0  0  0
  4  3  1  0  0  0  0
  5  6  1  0  0  0  0
  6  1  2  0  0  0  0
  8  9  1  0  0  0  0
  9 10  1  0  0  0  0
 10 11  2  0  0  0  0
 10  5  1  0  0  0  0
 11 16  1  0  0  0  0
 12 17  1  0  0  0  0
 12 11  1  0  0  0  0
 13 12  2  0  0  0  0
 14 13  1  0  0  0  0
 15 13  1  0  0  0  0
 15  9  2  0  0  0  0
 18 21  1  0  0  0  0
 18 15  1  0  0  0  0
 19 18  1  0  0  0  0
 20 18  1  0  0  0  0
 22 25  1  0  0  0  0
 23 22  1  0  0  0  0
 24 22  1  0  0  0  0
 26 28  1  0  0  0  0
 26  3  1  0  0  0  0
 27 26  1  0  0  0  0
 29 30  1  0  0  0  0
 29 36  1  0  0  0  0
 31 30  1  1  0  0  0
 31 35  1  0  0  0  0
 31 32  1  0  0  0  0
 32 34  1  0  0  0  0
 32 33  1  1  0  0  0
 34 26  1  1  0  0  0
 35 36  1  6  0  0  0
 35 32  1  0  0  0  0
 35 34  1  0  0  0  0
 37 38  1  0  0  0  0
 37 29  1  0  0  0  0
 39 29  1  0  0  0  0
 39 40  1  0  0  0  0
M  END
>  <minimizedAffinity>
-6.65549135

>  <minimizedRMSD>
1.46332383

$$$$
