
 OpenBabel03262521183D

 32 34  0  0  1  0  0  0  0  0999 V2000
   38.7010   32.3210   46.4370 C   0  0  0  0  0  0  0  0  0  0  0  0
   40.0910   32.3800   46.2870 C   0  0  0  0  0  0  0  0  0  0  0  0
   40.6200   32.5150   45.0070 C   0  0  0  0  0  0  0  0  0  0  0  0
   39.7440   32.5830   43.9580 N   0  0  0  0  0  0  0  0  0  0  0  0
   38.3920   32.5220   44.1440 C   0  0  0  0  0  0  0  0  0  0  0  0
   37.9060   32.3930   45.3640 N   0  0  0  0  0  0  0  0  0  0  0  0
   40.8280   32.3310   47.0760 H   0  0  0  0  0  0  0  0  0  0  0  0
   41.6900   32.5650   44.8380 H   0  0  0  0  0  0  0  0  0  0  0  0
   38.3250   32.1860   47.7650 O   0  0  0  0  0  0  0  0  0  0  0  0
   37.2640   31.3460   48.0310 C   0  0  0  0  0  0  0  0  0  0  0  0
   36.4550   31.9760   48.5000 H   0  0  0  0  0  0  0  0  0  0  0  0
   36.7770   30.9070   47.1340 H   0  0  0  0  0  0  0  0  0  0  0  0
   37.8750   30.4790   48.8560 C   0  0  0  0  0  0  0  0  0  0  0  0
   37.2850   29.5160   48.9290 H   0  0  0  0  0  0  0  0  0  0  0  0
   38.8510   30.0710   48.4740 H   0  0  0  0  0  0  0  0  0  0  0  0
   38.1490   30.9200   50.2550 C   0  0  0  0  0  0  0  0  0  0  0  0
   37.7990   31.9720   50.3540 H   0  0  0  0  0  0  0  0  0  0  0  0
   39.2250   30.9480   50.5170 H   0  0  0  0  0  0  0  0  0  0  0  0
   37.2450   29.9550   51.4710 S   0  0  0  0  0  0  0  0  0  0  0  0
   36.9990   30.6550   52.6690 H   0  0  0  0  0  0  0  0  0  0  0  0
   37.4570   32.5980   42.9890 C   0  0  0  0  0  2  0  0  0  0  0  0
   37.3200   31.2060   42.4390 C   0  0  2  0  0  0  0  0  0  0  0  0
   35.9100   30.8370   42.0570 C   0  0  0  0  0  2  0  0  0  0  0  0
   35.1870   30.4820   43.2340 N   0  0  0  0  0  0  0  0  0  0  0  0
   34.1770   30.4560   44.2410 C   0  0  0  0  0  0  0  0  0  0  0  0
   32.9440   30.7110   44.3420 O   0  0  0  0  0  0  0  0  0  0  0  0
   35.2150   29.9780   45.1920 C   0  0  0  0  0  3  0  0  0  0  0  0
   35.7520   30.8430   45.6270 H   0  0  0  0  0  0  0  0  0  0  0  0
   35.8750   29.4560   43.9600 C   0  0  2  0  0  3  0  0  0  0  0  0
   37.6170   29.9980   43.7650 S   0  0  0  0  0  0  0  0  0  0  0  0
   38.2820   31.0300   41.2990 C   0  0  0  0  0  2  0  0  0  0  0  0
   37.7890   30.7010   40.3460 H   0  0  0  0  0  0  0  0  0  0  0  0
  1  9  1  0  0  0  0
  2  1  1  0  0  0  0
  2  7  1  0  0  0  0
  3  2  2  0  0  0  0
  4  5  2  0  0  0  0
  4  3  1  0  0  0  0
  5  6  1  0  0  0  0
  6  1  2  0  0  0  0
  8  3  1  0  0  0  0
  9 10  1  0  0  0  0
 10 11  1  0  0  0  0
 10 13  1  0  0  0  0
 12 10  1  0  0  0  0
 13 14  1  0  0  0  0
 13 16  1  0  0  0  0
 15 13  1  0  0  0  0
 16 17  1  0  0  0  0
 16 18  1  0  0  0  0
 16 19  1  0  0  0  0
 19 20  1  0  0  0  0
 21  5  1  0  0  0  0
 22 31  1  6  0  0  0
 22 21  1  0  0  0  0
 22 30  1  0  0  0  0
 23 22  1  0  0  0  0
 23 24  1  0  0  0  0
 24 29  1  0  0  0  0
 24 25  1  0  0  0  0
 25 26  2  0  0  0  0
 25 27  1  0  0  0  0
 27 28  1  0  0  0  0
 29 30  1  1  0  0  0
 29 27  1  0  0  0  0
 32 31  1  0  0  0  0
M  END
>  <minimizedAffinity>
-4.37644958

>  <minimizedRMSD>
1.95281744

$$$$
