
 OpenBabel03272507333D

 39 43  0  0  1  0  0  0  0  0999 V2000
   32.9710   27.6570   48.1630 C   0  0  0  0  0  0  0  0  0  0  0  0
   31.7270   27.7300   48.4370 O   0  0  0  0  0  0  0  0  0  0  0  0
   35.7950   29.1410   49.7790 C   0  0  0  0  0  0  0  0  0  0  0  0
   34.8070   29.6050   50.6160 C   0  0  0  0  0  0  0  0  0  0  0  0
   33.5850   29.1170   50.1330 C   0  0  0  0  0  0  0  0  0  0  0  0
   33.9130   28.3760   49.0180 C   0  0  0  0  0  0  0  0  0  0  0  0
   35.2170   28.4190   48.8500 O   0  0  0  0  0  0  0  0  0  0  0  0
   34.8640   30.2340   51.5030 H   0  0  0  0  0  0  0  0  0  0  0  0
   32.5830   29.2430   50.4870 H   0  0  0  0  0  0  0  0  0  0  0  0
   37.2000   29.4570   49.9840 C   0  0  0  0  0  0  0  0  0  0  0  0
   37.8500   28.8160   50.8220 O   0  0  0  0  0  0  0  0  0  0  0  0
   37.7550   30.5140   49.1840 C   0  0  0  0  0  0  0  0  0  0  0  0
   38.0940   31.6860   49.8370 C   0  0  0  0  0  0  0  0  0  0  0  0
   38.6340   32.7350   49.0890 C   0  0  0  0  0  0  0  0  0  0  0  0
   38.8000   32.5460   47.7340 N   0  0  0  0  0  0  0  0  0  0  0  0
   38.4590   31.3980   47.1390 C   0  0  0  0  0  0  0  0  0  0  0  0
   37.9410   30.3860   47.8500 N   0  0  0  0  0  0  0  0  0  0  0  0
   37.9420   31.7820   50.9070 H   0  0  0  0  0  0  0  0  0  0  0  0
   38.8890   33.6350   49.6240 H   0  0  0  0  0  0  0  0  0  0  0  0
   38.6320   31.3590   46.0750 H   0  0  0  0  0  0  0  0  0  0  0  0
   33.4610   26.8480   46.9990 C   0  0  1  0  0  0  0  0  0  0  0  0
   33.6970   25.3530   47.4450 C   0  0  0  0  0  0  0  0  0  0  0  0
   32.6730   25.7520   46.4470 C   0  0  1  0  0  0  0  0  0  0  0  0
   34.4240   27.2120   46.5890 H   0  0  0  0  0  0  0  0  0  0  0  0
   34.6040   24.8610   47.1090 H   0  0  0  0  0  0  0  0  0  0  0  0
   33.3380   25.0600   48.4290 H   0  0  0  0  0  0  0  0  0  0  0  0
   32.9280   25.4820   45.3810 H   0  0  0  0  0  0  0  0  0  0  0  0
   31.2450   25.5230   46.7860 C   0  0  0  0  0  2  0  0  0  0  0  0
   30.3480   25.7370   45.5810 C   0  0  2  0  0  0  0  0  0  0  0  0
   29.0030   25.1550   45.9120 C   0  0  0  0  0  2  0  0  0  0  0  0
   28.5170   24.4070   44.7930 N   0  0  0  0  0  0  0  0  0  0  0  0
   27.7410   23.8930   43.7140 C   0  0  0  0  0  0  0  0  0  0  0  0
   26.5630   24.0190   43.2890 O   0  0  0  0  0  0  0  0  0  0  0  0
   28.8500   23.0690   43.1690 C   0  0  0  0  0  3  0  0  0  0  0  0
   29.3760   23.4650   42.2900 H   0  0  0  0  0  0  0  0  0  0  0  0
   29.5290   23.3940   44.4510 C   0  0  1  0  0  3  0  0  0  0  0  0
   30.9530   24.5500   44.3170 S   0  0  0  0  0  0  0  0  0  0  0  0
   30.3280   27.1330   45.0760 C   0  0  0  0  0  2  0  0  0  0  0  0
   31.1770   27.3430   44.4020 H   0  0  0  0  0  0  0  0  0  0  0  0
  1  2  2  0  0  0  0
  1  6  1  0  0  0  0
  3 10  1  0  0  0  0
  3  4  2  0  0  0  0
  4  8  1  0  0  0  0
  5  9  1  0  0  0  0
  5  4  1  0  0  0  0
  6  5  2  0  0  0  0
  7  6  1  0  0  0  0
  7  3  1  0  0  0  0
 10 11  2  0  0  0  0
 12 13  1  0  0  0  0
 12 10  1  0  0  0  0
 13 18  1  0  0  0  0
 14 19  1  0  0  0  0
 14 13  2  0  0  0  0
 15 14  1  0  0  0  0
 16 15  2  0  0  0  0
 16 17  1  0  0  0  0
 17 12  2  0  0  0  0
 20 16  1  0  0  0  0
 21 24  1  6  0  0  0
 21 22  1  0  0  0  0
 21  1  1  0  0  0  0
 22 26  1  0  0  0  0
 23 27  1  6  0  0  0
 23 28  1  0  0  0  0
 23 21  1  0  0  0  0
 23 22  1  0  0  0  0
 25 22  1  0  0  0  0
 29 38  1  6  0  0  0
 29 30  1  0  0  0  0
 29 28  1  0  0  0  0
 31 30  1  0  0  0  0
 32 31  1  0  0  0  0
 33 32  2  0  0  0  0
 34 32  1  0  0  0  0
 35 34  1  0  0  0  0
 36 34  1  6  0  0  0
 36 31  1  0  0  0  0
 37 36  1  0  0  0  0
 37 29  1  0  0  0  0
 39 38  1  0  0  0  0
M  END
>  <minimizedAffinity>
-5.34614658

>  <minimizedRMSD>
0.152452111

$$$$
