
 OpenBabel03272507333D

 39 43  0  0  1  0  0  0  0  0999 V2000
   33.0340   27.4900   48.1090 C   0  0  0  0  0  0  0  0  0  0  0  0
   31.7900   27.4690   48.3930 O   0  0  0  0  0  0  0  0  0  0  0  0
   35.7650   29.1000   49.7620 C   0  0  0  0  0  0  0  0  0  0  0  0
   34.7350   29.5910   50.5320 C   0  0  0  0  0  0  0  0  0  0  0  0
   33.5430   29.0580   50.0240 C   0  0  0  0  0  0  0  0  0  0  0  0
   33.9280   28.2670   48.9630 C   0  0  0  0  0  0  0  0  0  0  0  0
   35.2370   28.3220   48.8480 O   0  0  0  0  0  0  0  0  0  0  0  0
   34.7460   30.2650   51.3870 H   0  0  0  0  0  0  0  0  0  0  0  0
   32.5240   29.1860   50.3290 H   0  0  0  0  0  0  0  0  0  0  0  0
   37.1560   29.4490   50.0090 C   0  0  0  0  0  0  0  0  0  0  0  0
   37.7860   28.8410   50.8850 O   0  0  0  0  0  0  0  0  0  0  0  0
   37.7180   30.4970   49.2040 C   0  0  0  0  0  0  0  0  0  0  0  0
   38.0570   31.6740   49.8490 C   0  0  0  0  0  0  0  0  0  0  0  0
   38.6050   32.7150   49.0960 C   0  0  0  0  0  0  0  0  0  0  0  0
   38.7780   32.5150   47.7440 N   0  0  0  0  0  0  0  0  0  0  0  0
   38.4370   31.3630   47.1560 C   0  0  0  0  0  0  0  0  0  0  0  0
   37.9110   30.3590   47.8730 N   0  0  0  0  0  0  0  0  0  0  0  0
   37.9000   31.7790   50.9180 H   0  0  0  0  0  0  0  0  0  0  0  0
   38.8600   33.6180   49.6260 H   0  0  0  0  0  0  0  0  0  0  0  0
   38.6160   31.3160   46.0940 H   0  0  0  0  0  0  0  0  0  0  0  0
   33.5710   26.7310   46.9320 C   0  0  1  0  0  0  0  0  0  0  0  0
   33.8090   25.2220   47.3290 C   0  0  0  0  0  0  0  0  0  0  0  0
   32.8140   25.6490   46.3140 C   0  0  1  0  0  0  0  0  0  0  0  0
   34.5420   27.1200   46.5680 H   0  0  0  0  0  0  0  0  0  0  0  0
   34.7330   24.7530   47.0050 H   0  0  0  0  0  0  0  0  0  0  0  0
   33.4220   24.8880   48.2880 H   0  0  0  0  0  0  0  0  0  0  0  0
   33.1070   25.4220   45.2470 H   0  0  0  0  0  0  0  0  0  0  0  0
   31.3780   25.3920   46.5950 C   0  0  0  0  0  2  0  0  0  0  0  0
   30.6760   24.7930   45.3920 C   0  0  2  0  0  0  0  0  0  0  0  0
   29.2630   24.4850   45.8020 C   0  0  0  0  0  2  0  0  0  0  0  0
   28.8950   23.1920   45.3110 N   0  0  0  0  0  0  0  0  0  0  0  0
   28.2490   22.0970   44.6650 C   0  0  0  0  0  0  0  0  0  0  0  0
   27.1520   21.8960   44.0810 O   0  0  0  0  0  0  0  0  0  0  0  0
   29.3700   21.1540   44.9070 C   0  0  0  0  0  3  0  0  0  0  0  0
   30.0380   20.9520   44.0590 H   0  0  0  0  0  0  0  0  0  0  0  0
   29.8800   22.2200   45.8110 C   0  0  1  0  0  3  0  0  0  0  0  0
   31.3780   23.1050   45.2170 S   0  0  0  0  0  0  0  0  0  0  0  0
   30.8140   25.5890   44.1460 C   0  0  0  0  0  2  0  0  0  0  0  0
   31.7610   25.3770   43.6190 H   0  0  0  0  0  0  0  0  0  0  0  0
  1  2  2  0  0  0  0
  1  6  1  0  0  0  0
  3 10  1  0  0  0  0
  3  4  2  0  0  0  0
  4  8  1  0  0  0  0
  5  9  1  0  0  0  0
  5  4  1  0  0  0  0
  6  5  2  0  0  0  0
  7  6  1  0  0  0  0
  7  3  1  0  0  0  0
 10 11  2  0  0  0  0
 12 13  1  0  0  0  0
 12 10  1  0  0  0  0
 13 18  1  0  0  0  0
 14 19  1  0  0  0  0
 14 13  2  0  0  0  0
 15 14  1  0  0  0  0
 16 15  2  0  0  0  0
 16 17  1  0  0  0  0
 17 12  2  0  0  0  0
 20 16  1  0  0  0  0
 21 24  1  6  0  0  0
 21 22  1  0  0  0  0
 21  1  1  0  0  0  0
 22 26  1  0  0  0  0
 23 27  1  6  0  0  0
 23 28  1  0  0  0  0
 23 21  1  0  0  0  0
 23 22  1  0  0  0  0
 25 22  1  0  0  0  0
 29 38  1  6  0  0  0
 29 30  1  0  0  0  0
 29 28  1  0  0  0  0
 31 30  1  0  0  0  0
 31 36  1  0  0  0  0
 32 34  1  0  0  0  0
 32 31  1  0  0  0  0
 33 32  2  0  0  0  0
 35 34  1  0  0  0  0
 36 34  1  6  0  0  0
 37 29  1  0  0  0  0
 37 36  1  0  0  0  0
 39 38  1  0  0  0  0
M  END
>  <minimizedAffinity>
-5.44313383

>  <minimizedRMSD>
1.72528553

$$$$
