
 OpenBabel03262521183D

 32 34  0  0  1  0  0  0  0  0999 V2000
   38.3070   31.3750   46.5610 C   0  0  0  0  0  0  0  0  0  0  0  0
   39.4320   32.1310   46.9100 C   0  0  0  0  0  0  0  0  0  0  0  0
   39.9170   33.0680   46.0020 C   0  0  0  0  0  0  0  0  0  0  0  0
   39.2600   33.1990   44.8080 N   0  0  0  0  0  0  0  0  0  0  0  0
   38.1640   32.4430   44.5030 C   0  0  0  0  0  0  0  0  0  0  0  0
   37.7170   31.5590   45.3750 N   0  0  0  0  0  0  0  0  0  0  0  0
   39.9880   32.0700   47.8340 H   0  0  0  0  0  0  0  0  0  0  0  0
   40.7850   33.6770   46.2250 H   0  0  0  0  0  0  0  0  0  0  0  0
   37.9430   30.4870   47.5620 O   0  0  0  0  0  0  0  0  0  0  0  0
   36.6040   30.4310   47.8890 C   0  0  0  0  0  0  0  0  0  0  0  0
   36.2480   31.4950   48.0010 H   0  0  0  0  0  0  0  0  0  0  0  0
   35.9460   30.0090   47.0990 H   0  0  0  0  0  0  0  0  0  0  0  0
   36.6890   29.7240   49.0280 C   0  0  0  0  0  0  0  0  0  0  0  0
   35.7260   29.8030   49.6170 H   0  0  0  0  0  0  0  0  0  0  0  0
   36.7330   28.6090   48.8910 H   0  0  0  0  0  0  0  0  0  0  0  0
   37.7960   30.0530   49.9740 C   0  0  0  0  0  0  0  0  0  0  0  0
   38.0810   31.1150   49.8060 H   0  0  0  0  0  0  0  0  0  0  0  0
   38.7250   29.4740   49.8000 H   0  0  0  0  0  0  0  0  0  0  0  0
   37.2970   29.9130   51.6940 S   0  0  0  0  0  0  0  0  0  0  0  0
   38.0450   30.7330   52.5620 H   0  0  0  0  0  0  0  0  0  0  0  0
   37.4650   32.6010   43.1990 C   0  0  0  0  0  2  0  0  0  0  0  0
   38.4120   32.1320   42.1310 C   0  0  2  0  0  0  0  0  0  0  0  0
   37.8870   30.9810   41.3120 C   0  0  0  0  0  2  0  0  0  0  0  0
   38.0600   29.7700   42.0480 N   0  0  0  0  0  0  0  0  0  0  0  0
   37.7740   28.5310   42.6950 C   0  0  0  0  0  0  0  0  0  0  0  0
   36.9370   27.5910   42.5940 O   0  0  0  0  0  0  0  0  0  0  0  0
   38.9250   28.7990   43.5970 C   0  0  0  0  0  3  0  0  0  0  0  0
   38.5930   29.4230   44.4510 H   0  0  0  0  0  0  0  0  0  0  0  0
   39.4260   29.6160   42.4530 C   0  0  2  0  0  3  0  0  0  0  0  0
   39.8550   31.3420   42.9040 S   0  0  0  0  0  0  0  0  0  0  0  0
   38.8090   33.3010   41.2760 C   0  0  0  0  0  2  0  0  0  0  0  0
   38.6070   33.1430   40.1830 H   0  0  0  0  0  0  0  0  0  0  0  0
  1  2  1  0  0  0  0
  1  9  1  0  0  0  0
  2  7  1  0  0  0  0
  3  8  1  0  0  0  0
  3  2  2  0  0  0  0
  4  3  1  0  0  0  0
  5  4  2  0  0  0  0
  5  6  1  0  0  0  0
  6  1  2  0  0  0  0
  9 10  1  0  0  0  0
 10 11  1  0  0  0  0
 10 13  1  0  0  0  0
 12 10  1  0  0  0  0
 13 14  1  0  0  0  0
 13 16  1  0  0  0  0
 15 13  1  0  0  0  0
 16 19  1  0  0  0  0
 17 16  1  0  0  0  0
 18 16  1  0  0  0  0
 19 20  1  0  0  0  0
 21  5  1  0  0  0  0
 22 31  1  6  0  0  0
 22 30  1  0  0  0  0
 22 21  1  0  0  0  0
 23 24  1  0  0  0  0
 23 22  1  0  0  0  0
 24 29  1  0  0  0  0
 24 25  1  0  0  0  0
 25 27  1  0  0  0  0
 26 25  2  0  0  0  0
 27 28  1  0  0  0  0
 29 30  1  1  0  0  0
 29 27  1  0  0  0  0
 32 31  1  0  0  0  0
M  END
>  <minimizedAffinity>
-4.53175926

>  <minimizedRMSD>
2.44019318

$$$$
