
 OpenBabel03262521533D

 42 45  0  0  1  0  0  0  0  0999 V2000
   32.8250   26.9620   48.0340 C   0  0  1  0  0  0  0  0  0  0  0  0
   33.2650   28.3530   48.4390 C   0  0  2  0  0  0  0  0  0  0  0  0
   33.2440   29.2080   47.2180 C   0  0  0  0  0  0  0  0  0  0  0  0
   32.8550   28.5310   46.0810 O   0  0  0  0  0  0  0  0  0  0  0  0
   31.5790   27.9780   46.2110 C   0  0  0  0  0  0  0  0  0  0  0  0
   31.4480   27.1110   47.4170 C   0  0  2  0  0  0  0  0  0  0  0  0
   32.7210   26.3040   48.9090 H   0  0  0  0  0  0  0  0  0  0  0  0
   32.4670   28.7370   49.1290 H   0  0  0  0  0  0  0  0  0  0  0  0
   34.2260   29.6830   46.9970 H   0  0  0  0  0  0  0  0  0  0  0  0
   32.5340   30.0800   47.3080 H   0  0  0  0  0  0  0  0  0  0  0  0
   31.4600   27.3150   45.3090 H   0  0  0  0  0  0  0  0  0  0  0  0
   30.8060   28.7520   46.0970 H   0  0  0  0  0  0  0  0  0  0  0  0
   30.9960   26.1360   47.1950 H   0  0  0  0  0  0  0  0  0  0  0  0
   33.6550   26.4300   47.0540 O   0  0  0  0  0  0  0  0  0  0  0  0
   33.7980   25.4870   47.2540 H   0  0  0  0  0  0  0  0  0  0  0  0
   34.9060   28.3410   49.2100 S   0  0  0  0  0  0  0  0  0  0  0  0
   35.1690   29.8640   50.1440 C   0  0  0  0  0  0  0  0  0  0  0  0
   34.8680   30.7070   49.4610 H   0  0  0  0  0  0  0  0  0  0  0  0
   34.4620   29.8990   50.9780 H   0  0  0  0  0  0  0  0  0  0  0  0
   36.8700   30.1530   50.6030 S   0  0  0  0  0  0  0  0  0  0  0  0
   37.7080   30.9450   49.2330 C   0  0  0  0  0  0  0  0  0  0  0  0
   38.1690   32.2180   49.5040 C   0  0  0  0  0  0  0  0  0  0  0  0
   38.8390   32.9120   48.4850 C   0  0  0  0  0  0  0  0  0  0  0  0
   38.9910   32.2800   47.2820 N   0  0  0  0  0  0  0  0  0  0  0  0
   38.5150   31.0320   47.0850 C   0  0  0  0  0  0  0  0  0  0  0  0
   37.8870   30.3750   48.0320 N   0  0  0  0  0  0  0  0  0  0  0  0
   38.0460   32.7190   50.4630 H   0  0  0  0  0  0  0  0  0  0  0  0
   39.2100   33.9120   48.6740 H   0  0  0  0  0  0  0  0  0  0  0  0
   38.6400   30.5370   46.1250 H   0  0  0  0  0  0  0  0  0  0  0  0
   30.6650   27.7580   48.3970 O   0  0  0  0  0  0  0  0  0  0  0  0
   30.0640   26.8650   49.2450 C   0  0  0  0  0  2  0  0  0  0  0  0
   28.7220   27.4670   49.6840 C   0  0  1  0  0  0  0  0  0  0  0  0
   28.7270   28.9010   49.2340 C   0  0  0  0  0  2  0  0  0  0  0  0
   27.3860   29.2780   48.9200 N   0  0  0  0  0  0  0  0  0  0  0  0
   26.1270   29.9780   48.8810 C   0  0  0  0  0  0  0  0  0  0  0  0
   25.8040   31.1740   49.1290 O   0  0  0  0  0  0  0  0  0  0  0  0
   25.4040   28.7420   48.4420 C   0  0  0  0  0  3  0  0  0  0  0  0
   25.0370   28.1320   49.2900 H   0  0  0  0  0  0  0  0  0  0  0  0
   26.7840   28.3540   47.9730 C   0  0  2  0  0  3  0  0  0  0  0  0
   27.3870   26.7780   48.6580 S   0  0  0  0  0  0  0  0  0  0  0  0
   28.4970   27.2640   51.1410 C   0  0  0  0  0  2  0  0  0  0  0  0
   29.0530   26.3420   51.4320 H   0  0  0  0  0  0  0  0  0  0  0  0
  1  2  1  0  0  0  0
  1  7  1  1  0  0  0
  2  8  1  1  0  0  0
  2 16  1  0  0  0  0
  3 10  1  0  0  0  0
  3  2  1  0  0  0  0
  4  5  1  0  0  0  0
  4  3  1  0  0  0  0
  5  6  1  0  0  0  0
  6 13  1  6  0  0  0
  6  1  1  0  0  0  0
  6 30  1  0  0  0  0
  9  3  1  0  0  0  0
 11  5  1  0  0  0  0
 12  5  1  0  0  0  0
 14 15  1  0  0  0  0
 14  1  1  0  0  0  0
 16 17  1  0  0  0  0
 17 20  1  0  0  0  0
 17 19  1  0  0  0  0
 18 17  1  0  0  0  0
 21 22  1  0  0  0  0
 21 20  1  0  0  0  0
 22 27  1  0  0  0  0
 23 28  1  0  0  0  0
 23 22  2  0  0  0  0
 24 23  1  0  0  0  0
 25 24  2  0  0  0  0
 25 26  1  0  0  0  0
 26 21  2  0  0  0  0
 29 25  1  0  0  0  0
 30 31  1  0  0  0  0
 32 31  1  6  0  0  0
 32 41  1  0  0  0  0
 33 32  1  0  0  0  0
 34 33  1  0  0  0  0
 35 34  1  0  0  0  0
 35 36  2  0  0  0  0
 37 35  1  0  0  0  0
 37 38  1  0  0  0  0
 39 37  1  1  0  0  0
 39 40  1  0  0  0  0
 39 34  1  0  0  0  0
 40 32  1  0  0  0  0
 41 42  1  0  0  0  0
M  END
>  <minimizedAffinity>
-6.03244257

>  <minimizedRMSD>
1.6828748

$$$$
