
 OpenBabel03262521543D

 42 45  0  0  1  0  0  0  0  0999 V2000
   33.0700   27.1330   48.1530 C   0  0  1  0  0  0  0  0  0  0  0  0
   33.6840   28.5140   48.2430 C   0  0  2  0  0  0  0  0  0  0  0  0
   34.1010   28.9140   46.8690 C   0  0  0  0  0  0  0  0  0  0  0  0
   33.8380   27.9550   45.9140 O   0  0  0  0  0  0  0  0  0  0  0  0
   32.4790   27.6380   45.8500 C   0  0  0  0  0  0  0  0  0  0  0  0
   31.9180   27.2400   47.1720 C   0  0  2  0  0  0  0  0  0  0  0  0
   32.6480   26.8180   49.1190 H   0  0  0  0  0  0  0  0  0  0  0  0
   32.8520   29.2000   48.5520 H   0  0  0  0  0  0  0  0  0  0  0  0
   35.1840   29.1640   46.7940 H   0  0  0  0  0  0  0  0  0  0  0  0
   33.5810   29.8490   46.5100 H   0  0  0  0  0  0  0  0  0  0  0  0
   32.4270   26.7350   45.1790 H   0  0  0  0  0  0  0  0  0  0  0  0
   31.9230   28.4210   45.3140 H   0  0  0  0  0  0  0  0  0  0  0  0
   31.3360   26.3110   47.1270 H   0  0  0  0  0  0  0  0  0  0  0  0
   33.9660   26.2090   47.6290 O   0  0  0  0  0  0  0  0  0  0  0  0
   33.8690   25.3740   48.1220 H   0  0  0  0  0  0  0  0  0  0  0  0
   35.0830   28.5530   49.3960 S   0  0  0  0  0  0  0  0  0  0  0  0
   35.3200   30.2260   50.0350 C   0  0  0  0  0  0  0  0  0  0  0  0
   35.0940   30.9220   49.1800 H   0  0  0  0  0  0  0  0  0  0  0  0
   34.5550   30.4320   50.7890 H   0  0  0  0  0  0  0  0  0  0  0  0
   36.9910   30.5750   50.5600 S   0  0  0  0  0  0  0  0  0  0  0  0
   37.8750   31.3270   49.1960 C   0  0  0  0  0  0  0  0  0  0  0  0
   38.3230   32.6090   49.4440 C   0  0  0  0  0  0  0  0  0  0  0  0
   39.0280   33.2730   48.4280 C   0  0  0  0  0  0  0  0  0  0  0  0
   39.2260   32.6040   47.2520 N   0  0  0  0  0  0  0  0  0  0  0  0
   38.7600   31.3490   47.0780 C   0  0  0  0  0  0  0  0  0  0  0  0
   38.1000   30.7200   48.0220 N   0  0  0  0  0  0  0  0  0  0  0  0
   38.1640   33.1400   50.3810 H   0  0  0  0  0  0  0  0  0  0  0  0
   39.3890   34.2800   48.5990 H   0  0  0  0  0  0  0  0  0  0  0  0
   38.9220   30.8240   46.1390 H   0  0  0  0  0  0  0  0  0  0  0  0
   31.0900   28.2660   47.6760 O   0  0  0  0  0  0  0  0  0  0  0  0
   30.1460   27.7830   48.5450 C   0  0  0  0  0  2  0  0  0  0  0  0
   28.7770   28.2970   48.0800 C   0  0  1  0  0  0  0  0  0  0  0  0
   29.0390   29.2750   46.9700 C   0  0  0  0  0  2  0  0  0  0  0  0
   27.9480   29.2130   46.0500 N   0  0  0  0  0  0  0  0  0  0  0  0
   26.8450   29.5760   45.1970 C   0  0  0  0  0  0  0  0  0  0  0  0
   26.5210   30.6590   44.6320 O   0  0  0  0  0  0  0  0  0  0  0  0
   26.2790   28.1920   45.2640 C   0  0  0  0  0  3  0  0  0  0  0  0
   25.5760   28.0540   46.1100 H   0  0  0  0  0  0  0  0  0  0  0  0
   27.7080   27.8490   45.6050 C   0  0  2  0  0  3  0  0  0  0  0  0
   27.9060   26.9720   47.1880 S   0  0  0  0  0  0  0  0  0  0  0  0
   27.9930   28.8370   49.2250 C   0  0  0  0  0  2  0  0  0  0  0  0
   28.3390   28.2990   50.1390 H   0  0  0  0  0  0  0  0  0  0  0  0
  1  2  1  0  0  0  0
  1  7  1  1  0  0  0
  2  8  1  1  0  0  0
  2 16  1  0  0  0  0
  3  2  1  0  0  0  0
  4  3  1  0  0  0  0
  5  4  1  0  0  0  0
  5  6  1  0  0  0  0
  6 13  1  6  0  0  0
  6 30  1  0  0  0  0
  6  1  1  0  0  0  0
  9  3  1  0  0  0  0
 10  3  1  0  0  0  0
 11  5  1  0  0  0  0
 12  5  1  0  0  0  0
 14 15  1  0  0  0  0
 14  1  1  0  0  0  0
 16 17  1  0  0  0  0
 17 20  1  0  0  0  0
 17 19  1  0  0  0  0
 18 17  1  0  0  0  0
 21 22  1  0  0  0  0
 21 20  1  0  0  0  0
 22 27  1  0  0  0  0
 23 28  1  0  0  0  0
 23 22  2  0  0  0  0
 24 23  1  0  0  0  0
 25 24  2  0  0  0  0
 25 26  1  0  0  0  0
 26 21  2  0  0  0  0
 29 25  1  0  0  0  0
 30 31  1  0  0  0  0
 32 31  1  1  0  0  0
 32 41  1  0  0  0  0
 33 32  1  0  0  0  0
 34 33  1  0  0  0  0
 35 37  1  0  0  0  0
 35 34  1  0  0  0  0
 36 35  2  0  0  0  0
 37 38  1  0  0  0  0
 39 37  1  1  0  0  0
 39 34  1  0  0  0  0
 39 40  1  0  0  0  0
 40 32  1  0  0  0  0
 41 42  1  0  0  0  0
M  END
>  <minimizedAffinity>
-5.26657534

>  <minimizedRMSD>
1.10525608

$$$$
