
 OpenBabel03262521543D

 42 45  0  0  1  0  0  0  0  0999 V2000
   33.0550   27.0680   47.7850 C   0  0  1  0  0  0  0  0  0  0  0  0
   33.4070   28.4300   48.3460 C   0  0  2  0  0  0  0  0  0  0  0  0
   33.7040   29.3300   47.1960 C   0  0  0  0  0  0  0  0  0  0  0  0
   33.5940   28.7090   45.9700 O   0  0  0  0  0  0  0  0  0  0  0  0
   32.3160   28.1870   45.7590 C   0  0  0  0  0  0  0  0  0  0  0  0
   31.8760   27.2800   46.8560 C   0  0  2  0  0  0  0  0  0  0  0  0
   32.7270   26.3800   48.5790 H   0  0  0  0  0  0  0  0  0  0  0  0
   32.4720   28.8100   48.8360 H   0  0  0  0  0  0  0  0  0  0  0  0
   34.7190   29.7850   47.2440 H   0  0  0  0  0  0  0  0  0  0  0  0
   33.0100   30.2190   47.1480 H   0  0  0  0  0  0  0  0  0  0  0  0
   32.4110   27.5630   44.8270 H   0  0  0  0  0  0  0  0  0  0  0  0
   31.6100   28.9880   45.4920 H   0  0  0  0  0  0  0  0  0  0  0  0
   31.4740   26.3280   46.4870 H   0  0  0  0  0  0  0  0  0  0  0  0
   34.0910   26.5500   47.0170 O   0  0  0  0  0  0  0  0  0  0  0  0
   34.1630   25.5960   47.2040 H   0  0  0  0  0  0  0  0  0  0  0  0
   34.8070   28.3410   49.4950 S   0  0  0  0  0  0  0  0  0  0  0  0
   35.2110   29.9880   50.1170 C   0  0  0  0  0  0  0  0  0  0  0  0
   35.0000   30.7020   49.2720 H   0  0  0  0  0  0  0  0  0  0  0  0
   34.5040   30.2550   50.9080 H   0  0  0  0  0  0  0  0  0  0  0  0
   36.9290   30.2000   50.5560 S   0  0  0  0  0  0  0  0  0  0  0  0
   37.7710   31.0170   49.2030 C   0  0  0  0  0  0  0  0  0  0  0  0
   38.2130   32.2920   49.4920 C   0  0  0  0  0  0  0  0  0  0  0  0
   38.8850   33.0050   48.4870 C   0  0  0  0  0  0  0  0  0  0  0  0
   39.0590   32.3870   47.2800 N   0  0  0  0  0  0  0  0  0  0  0  0
   38.6000   31.1360   47.0650 C   0  0  0  0  0  0  0  0  0  0  0  0
   37.9710   30.4610   47.9990 N   0  0  0  0  0  0  0  0  0  0  0  0
   38.0740   32.7820   50.4550 H   0  0  0  0  0  0  0  0  0  0  0  0
   39.2420   34.0080   48.6910 H   0  0  0  0  0  0  0  0  0  0  0  0
   38.7420   30.6520   46.1020 H   0  0  0  0  0  0  0  0  0  0  0  0
   30.8880   27.9120   47.6410 O   0  0  0  0  0  0  0  0  0  0  0  0
   29.7550   27.1480   47.7530 C   0  0  0  0  0  2  0  0  0  0  0  0
   28.7780   27.8910   48.6740 C   0  0  1  0  0  0  0  0  0  0  0  0
   28.4230   29.1760   47.9780 C   0  0  0  0  0  2  0  0  0  0  0  0
   27.0830   29.5210   48.3300 N   0  0  0  0  0  0  0  0  0  0  0  0
   25.9240   30.2420   48.7930 C   0  0  0  0  0  0  0  0  0  0  0  0
   25.6690   31.4750   48.8970 O   0  0  0  0  0  0  0  0  0  0  0  0
   25.1930   28.9670   49.0810 C   0  0  0  0  0  3  0  0  0  0  0  0
   25.3680   28.5920   50.1090 H   0  0  0  0  0  0  0  0  0  0  0  0
   26.1680   28.4230   48.0670 C   0  0  2  0  0  3  0  0  0  0  0  0
   27.1740   27.0330   48.6740 S   0  0  0  0  0  0  0  0  0  0  0  0
   29.3500   28.0510   50.0390 C   0  0  0  0  0  2  0  0  0  0  0  0
   30.0560   27.2020   50.1980 H   0  0  0  0  0  0  0  0  0  0  0  0
  1  2  1  0  0  0  0
  1  7  1  1  0  0  0
  2  8  1  1  0  0  0
  2 16  1  0  0  0  0
  3  9  1  0  0  0  0
  3  2  1  0  0  0  0
  4  3  1  0  0  0  0
  5  4  1  0  0  0  0
  5  6  1  0  0  0  0
  6 13  1  6  0  0  0
  6 30  1  0  0  0  0
  6  1  1  0  0  0  0
 10  3  1  0  0  0  0
 11  5  1  0  0  0  0
 12  5  1  0  0  0  0
 14 15  1  0  0  0  0
 14  1  1  0  0  0  0
 16 17  1  0  0  0  0
 17 20  1  0  0  0  0
 17 19  1  0  0  0  0
 18 17  1  0  0  0  0
 21 22  1  0  0  0  0
 21 20  1  0  0  0  0
 22 27  1  0  0  0  0
 23 28  1  0  0  0  0
 23 22  2  0  0  0  0
 24 23  1  0  0  0  0
 25 24  2  0  0  0  0
 25 26  1  0  0  0  0
 26 21  2  0  0  0  0
 29 25  1  0  0  0  0
 30 31  1  0  0  0  0
 32 31  1  6  0  0  0
 32 41  1  0  0  0  0
 33 34  1  0  0  0  0
 33 32  1  0  0  0  0
 34 35  1  0  0  0  0
 35 36  2  0  0  0  0
 35 37  1  0  0  0  0
 37 38  1  0  0  0  0
 39 34  1  0  0  0  0
 39 40  1  1  0  0  0
 39 37  1  0  0  0  0
 40 32  1  0  0  0  0
 41 42  1  0  0  0  0
M  END
>  <minimizedAffinity>
-6.13073015

>  <minimizedRMSD>
1.36298621

$$$$
