
 OpenBabel03262521543D

 42 45  0  0  1  0  0  0  0  0999 V2000
   33.0070   27.0830   47.6090 C   0  0  1  0  0  0  0  0  0  0  0  0
   33.4260   28.4560   48.0900 C   0  0  2  0  0  0  0  0  0  0  0  0
   34.0330   29.1750   46.9330 C   0  0  0  0  0  0  0  0  0  0  0  0
   34.0630   28.4260   45.7760 O   0  0  0  0  0  0  0  0  0  0  0  0
   32.7860   28.0240   45.3780 C   0  0  0  0  0  0  0  0  0  0  0  0
   32.0470   27.3080   46.4560 C   0  0  2  0  0  0  0  0  0  0  0  0
   32.4580   26.5350   48.3890 H   0  0  0  0  0  0  0  0  0  0  0  0
   32.4750   28.9910   48.3530 H   0  0  0  0  0  0  0  0  0  0  0  0
   35.0730   29.5200   47.1280 H   0  0  0  0  0  0  0  0  0  0  0  0
   33.4780   30.1200   46.6680 H   0  0  0  0  0  0  0  0  0  0  0  0
   32.9630   27.2850   44.5480 H   0  0  0  0  0  0  0  0  0  0  0  0
   32.2460   28.8570   44.9050 H   0  0  0  0  0  0  0  0  0  0  0  0
   31.5980   26.3660   46.1140 H   0  0  0  0  0  0  0  0  0  0  0  0
   34.0870   26.3680   47.1050 O   0  0  0  0  0  0  0  0  0  0  0  0
   34.0020   25.4410   47.3950 H   0  0  0  0  0  0  0  0  0  0  0  0
   34.5780   28.3560   49.4860 S   0  0  0  0  0  0  0  0  0  0  0  0
   35.0830   30.0130   50.0000 C   0  0  0  0  0  0  0  0  0  0  0  0
   34.9400   30.6760   49.1010 H   0  0  0  0  0  0  0  0  0  0  0  0
   34.3800   30.3840   50.7510 H   0  0  0  0  0  0  0  0  0  0  0  0
   36.8020   30.1380   50.4660 S   0  0  0  0  0  0  0  0  0  0  0  0
   37.6960   30.9620   49.1510 C   0  0  0  0  0  0  0  0  0  0  0  0
   38.1410   32.2290   49.4710 C   0  0  0  0  0  0  0  0  0  0  0  0
   38.8530   32.9470   48.4970 C   0  0  0  0  0  0  0  0  0  0  0  0
   39.0590   32.3420   47.2890 N   0  0  0  0  0  0  0  0  0  0  0  0
   38.5940   31.0990   47.0430 C   0  0  0  0  0  0  0  0  0  0  0  0
   37.9280   30.4190   47.9480 N   0  0  0  0  0  0  0  0  0  0  0  0
   37.9760   32.7090   50.4350 H   0  0  0  0  0  0  0  0  0  0  0  0
   39.2130   33.9430   48.7240 H   0  0  0  0  0  0  0  0  0  0  0  0
   38.7620   30.6250   46.0790 H   0  0  0  0  0  0  0  0  0  0  0  0
   31.0250   28.1310   46.9740 O   0  0  0  0  0  0  0  0  0  0  0  0
   29.7920   27.5360   46.8900 C   0  0  0  0  0  2  0  0  0  0  0  0
   28.9230   28.3890   45.9580 C   0  0  1  0  0  0  0  0  0  0  0  0
   29.0090   27.7610   44.5950 C   0  0  0  0  0  2  0  0  0  0  0  0
   27.7670   27.9750   43.9220 N   0  0  0  0  0  0  0  0  0  0  0  0
   26.7800   28.3510   42.9430 C   0  0  0  0  0  0  0  0  0  0  0  0
   26.8380   28.5230   41.6920 O   0  0  0  0  0  0  0  0  0  0  0  0
   25.7140   28.4460   43.9890 C   0  0  0  0  0  3  0  0  0  0  0  0
   25.6440   29.4540   44.4440 H   0  0  0  0  0  0  0  0  0  0  0  0
   26.6460   27.5150   44.7250 C   0  0  2  0  0  3  0  0  0  0  0  0
   27.1680   28.1270   46.3590 S   0  0  0  0  0  0  0  0  0  0  0  0
   29.3230   29.8210   46.0190 C   0  0  0  0  0  2  0  0  0  0  0  0
   29.7590   29.9960   47.0310 H   0  0  0  0  0  0  0  0  0  0  0  0
  1  2  1  0  0  0  0
  1  7  1  1  0  0  0
  2  8  1  1  0  0  0
  2 16  1  0  0  0  0
  3  9  1  0  0  0  0
  3  2  1  0  0  0  0
  4  3  1  0  0  0  0
  5  4  1  0  0  0  0
  5  6  1  0  0  0  0
  6 13  1  6  0  0  0
  6 30  1  0  0  0  0
  6  1  1  0  0  0  0
 10  3  1  0  0  0  0
 11  5  1  0  0  0  0
 12  5  1  0  0  0  0
 14 15  1  0  0  0  0
 14  1  1  0  0  0  0
 16 17  1  0  0  0  0
 17 20  1  0  0  0  0
 17 19  1  0  0  0  0
 18 17  1  0  0  0  0
 21 22  1  0  0  0  0
 21 20  1  0  0  0  0
 22 27  1  0  0  0  0
 23 28  1  0  0  0  0
 23 22  2  0  0  0  0
 24 23  1  0  0  0  0
 25 24  2  0  0  0  0
 25 26  1  0  0  0  0
 26 21  2  0  0  0  0
 29 25  1  0  0  0  0
 31 30  1  0  0  0  0
 32 41  1  1  0  0  0
 32 40  1  0  0  0  0
 32 31  1  0  0  0  0
 33 32  1  0  0  0  0
 34 33  1  0  0  0  0
 34 39  1  0  0  0  0
 35 34  1  0  0  0  0
 35 37  1  0  0  0  0
 36 35  2  0  0  0  0
 37 38  1  0  0  0  0
 39 37  1  6  0  0  0
 39 40  1  0  0  0  0
 41 42  1  0  0  0  0
M  END
>  <minimizedAffinity>
-4.60082436

>  <minimizedRMSD>
1.70785463

$$$$
