
 OpenBabel03262521543D

 42 45  0  0  1  0  0  0  0  0999 V2000
   33.0710   27.1330   48.1510 C   0  0  1  0  0  0  0  0  0  0  0  0
   33.6860   28.5140   48.2420 C   0  0  2  0  0  0  0  0  0  0  0  0
   34.1040   28.9140   46.8680 C   0  0  0  0  0  0  0  0  0  0  0  0
   33.8410   27.9550   45.9130 O   0  0  0  0  0  0  0  0  0  0  0  0
   32.4820   27.6390   45.8480 C   0  0  0  0  0  0  0  0  0  0  0  0
   31.9200   27.2410   47.1700 C   0  0  2  0  0  0  0  0  0  0  0  0
   32.6490   26.8180   49.1170 H   0  0  0  0  0  0  0  0  0  0  0  0
   32.8530   29.2000   48.5510 H   0  0  0  0  0  0  0  0  0  0  0  0
   35.1860   29.1640   46.7940 H   0  0  0  0  0  0  0  0  0  0  0  0
   33.5840   29.8490   46.5100 H   0  0  0  0  0  0  0  0  0  0  0  0
   32.4300   26.7360   45.1780 H   0  0  0  0  0  0  0  0  0  0  0  0
   31.9260   28.4220   45.3120 H   0  0  0  0  0  0  0  0  0  0  0  0
   31.3380   26.3120   47.1240 H   0  0  0  0  0  0  0  0  0  0  0  0
   33.9680   26.2100   47.6280 O   0  0  0  0  0  0  0  0  0  0  0  0
   33.8700   25.3750   48.1210 H   0  0  0  0  0  0  0  0  0  0  0  0
   35.0840   28.5530   49.3960 S   0  0  0  0  0  0  0  0  0  0  0  0
   35.3200   30.2250   50.0370 C   0  0  0  0  0  0  0  0  0  0  0  0
   35.0930   30.9220   49.1820 H   0  0  0  0  0  0  0  0  0  0  0  0
   34.5550   30.4300   50.7910 H   0  0  0  0  0  0  0  0  0  0  0  0
   36.9910   30.5750   50.5600 S   0  0  0  0  0  0  0  0  0  0  0  0
   37.8750   31.3260   49.1960 C   0  0  0  0  0  0  0  0  0  0  0  0
   38.3230   32.6080   49.4430 C   0  0  0  0  0  0  0  0  0  0  0  0
   39.0280   33.2720   48.4270 C   0  0  0  0  0  0  0  0  0  0  0  0
   39.2250   32.6020   47.2510 N   0  0  0  0  0  0  0  0  0  0  0  0
   38.7580   31.3480   47.0770 C   0  0  0  0  0  0  0  0  0  0  0  0
   38.0990   30.7190   48.0220 N   0  0  0  0  0  0  0  0  0  0  0  0
   38.1650   33.1400   50.3810 H   0  0  0  0  0  0  0  0  0  0  0  0
   39.3900   34.2790   48.5970 H   0  0  0  0  0  0  0  0  0  0  0  0
   38.9190   30.8220   46.1390 H   0  0  0  0  0  0  0  0  0  0  0  0
   31.0920   28.2670   47.6740 O   0  0  0  0  0  0  0  0  0  0  0  0
   30.1480   27.7840   48.5430 C   0  0  0  0  0  2  0  0  0  0  0  0
   28.7790   28.2970   48.0790 C   0  0  1  0  0  0  0  0  0  0  0  0
   29.0400   29.2760   46.9680 C   0  0  0  0  0  2  0  0  0  0  0  0
   27.9490   29.2130   46.0490 N   0  0  0  0  0  0  0  0  0  0  0  0
   26.8450   29.5770   45.1960 C   0  0  0  0  0  0  0  0  0  0  0  0
   26.5210   30.6590   44.6310 O   0  0  0  0  0  0  0  0  0  0  0  0
   26.2790   28.1920   45.2650 C   0  0  0  0  0  3  0  0  0  0  0  0
   25.5770   28.0540   46.1110 H   0  0  0  0  0  0  0  0  0  0  0  0
   27.7090   27.8500   45.6040 C   0  0  2  0  0  3  0  0  0  0  0  0
   27.9060   26.9720   47.1870 S   0  0  0  0  0  0  0  0  0  0  0  0
   27.9950   28.8370   49.2230 C   0  0  0  0  0  2  0  0  0  0  0  0
   28.3420   28.2990   50.1380 H   0  0  0  0  0  0  0  0  0  0  0  0
  1  2  1  0  0  0  0
  1  7  1  1  0  0  0
  2  8  1  1  0  0  0
  2 16  1  0  0  0  0
  3  2  1  0  0  0  0
  4  3  1  0  0  0  0
  5  4  1  0  0  0  0
  5  6  1  0  0  0  0
  6 13  1  6  0  0  0
  6 30  1  0  0  0  0
  6  1  1  0  0  0  0
  9  3  1  0  0  0  0
 10  3  1  0  0  0  0
 11  5  1  0  0  0  0
 12  5  1  0  0  0  0
 14 15  1  0  0  0  0
 14  1  1  0  0  0  0
 16 17  1  0  0  0  0
 17 20  1  0  0  0  0
 17 19  1  0  0  0  0
 18 17  1  0  0  0  0
 21 22  1  0  0  0  0
 21 20  1  0  0  0  0
 22 27  1  0  0  0  0
 23 28  1  0  0  0  0
 23 22  2  0  0  0  0
 24 23  1  0  0  0  0
 25 24  2  0  0  0  0
 25 26  1  0  0  0  0
 26 21  2  0  0  0  0
 29 25  1  0  0  0  0
 30 31  1  0  0  0  0
 32 31  1  1  0  0  0
 32 41  1  0  0  0  0
 33 32  1  0  0  0  0
 34 33  1  0  0  0  0
 35 37  1  0  0  0  0
 35 34  1  0  0  0  0
 36 35  2  0  0  0  0
 37 38  1  0  0  0  0
 39 37  1  1  0  0  0
 39 34  1  0  0  0  0
 39 40  1  0  0  0  0
 40 32  1  0  0  0  0
 41 42  1  0  0  0  0
M  END
>  <minimizedAffinity>
-5.26643229

>  <minimizedRMSD>
0.85204953

$$$$
