
 OpenBabel03262521573D

 42 45  0  0  1  0  0  0  0  0999 V2000
   35.8930   27.5900   31.5510 C   0  0  1  0  0  0  0  0  0  0  0  0
   37.1220   27.3240   32.3950 C   0  0  2  0  0  0  0  0  0  0  0  0
   38.3160   27.6960   31.5860 C   0  0  0  0  0  0  0  0  0  0  0  0
   38.0030   28.1580   30.3250 O   0  0  0  0  0  0  0  0  0  0  0  0
   37.1760   29.2830   30.3690 C   0  0  0  0  0  0  0  0  0  0  0  0
   35.9430   29.0590   31.1750 C   0  0  2  0  0  0  0  0  0  0  0  0
   34.9690   27.4310   32.1260 H   0  0  0  0  0  0  0  0  0  0  0  0
   37.0630   28.0420   33.2550 H   0  0  0  0  0  0  0  0  0  0  0  0
   39.0390   26.8590   31.4580 H   0  0  0  0  0  0  0  0  0  0  0  0
   38.9290   28.5140   32.0640 H   0  0  0  0  0  0  0  0  0  0  0  0
   36.8530   29.4440   29.3030 H   0  0  0  0  0  0  0  0  0  0  0  0
   37.7560   30.1810   30.6280 H   0  0  0  0  0  0  0  0  0  0  0  0
   35.0290   29.3750   30.6550 H   0  0  0  0  0  0  0  0  0  0  0  0
   35.9220   26.8650   30.3660 O   0  0  0  0  0  0  0  0  0  0  0  0
   35.0230   26.5360   30.1860 H   0  0  0  0  0  0  0  0  0  0  0  0
   37.2020   25.5950   32.9370 S   0  0  0  0  0  0  0  0  0  0  0  0
   38.8870   25.1730   33.4330 C   0  0  0  0  0  0  0  0  0  0  0  0
   39.5210   25.2830   32.5090 H   0  0  0  0  0  0  0  0  0  0  0  0
   39.2540   25.9300   34.1310 H   0  0  0  0  0  0  0  0  0  0  0  0
   39.0800   23.4890   33.9950 S   0  0  0  0  0  0  0  0  0  0  0  0
   38.9460   23.4610   35.7810 C   0  0  0  0  0  0  0  0  0  0  0  0
   39.9890   22.8240   36.4220 C   0  0  0  0  0  0  0  0  0  0  0  0
   39.9640   22.7570   37.8230 C   0  0  0  0  0  0  0  0  0  0  0  0
   38.9020   23.3300   38.4660 N   0  0  0  0  0  0  0  0  0  0  0  0
   37.9140   23.9370   37.7760 C   0  0  0  0  0  0  0  0  0  0  0  0
   37.9290   24.0060   36.4650 N   0  0  0  0  0  0  0  0  0  0  0  0
   40.8340   22.3690   35.9080 H   0  0  0  0  0  0  0  0  0  0  0  0
   40.7720   22.2630   38.3490 H   0  0  0  0  0  0  0  0  0  0  0  0
   37.0720   24.3900   38.2950 H   0  0  0  0  0  0  0  0  0  0  0  0
   36.0290   29.7570   32.3990 O   0  0  0  0  0  0  0  0  0  0  0  0
   34.8400   30.3520   32.7350 C   0  0  0  0  0  2  0  0  0  0  0  0
   34.8020   30.4900   34.2630 C   0  0  1  0  0  0  0  0  0  0  0  0
   34.6230   31.9530   34.5590 C   0  0  0  0  0  2  0  0  0  0  0  0
   33.8690   32.0780   35.7650 N   0  0  0  0  0  0  0  0  0  0  0  0
   33.4470   32.4520   37.0920 C   0  0  0  0  0  0  0  0  0  0  0  0
   33.7340   33.4320   37.8360 O   0  0  0  0  0  0  0  0  0  0  0  0
   32.5690   31.2440   37.2000 C   0  0  0  0  0  3  0  0  0  0  0  0
   33.0960   30.3630   37.6180 H   0  0  0  0  0  0  0  0  0  0  0  0
   32.6290   31.3230   35.6950 C   0  0  2  0  0  3  0  0  0  0  0  0
   33.2380   29.8070   34.8940 S   0  0  0  0  0  0  0  0  0  0  0  0
   36.0010   29.8640   34.8860 C   0  0  0  0  0  2  0  0  0  0  0  0
   36.3370   29.0520   34.1990 H   0  0  0  0  0  0  0  0  0  0  0  0
  1  7  1  1  0  0  0
  1  2  1  0  0  0  0
  2 16  1  0  0  0  0
  2  8  1  1  0  0  0
  3 10  1  0  0  0  0
  3  2  1  0  0  0  0
  4  5  1  0  0  0  0
  4  3  1  0  0  0  0
  5 12  1  0  0  0  0
  5  6  1  0  0  0  0
  6 13  1  6  0  0  0
  6  1  1  0  0  0  0
  6 30  1  0  0  0  0
  9  3  1  0  0  0  0
 11  5  1  0  0  0  0
 14  1  1  0  0  0  0
 15 14  1  0  0  0  0
 16 17  1  0  0  0  0
 17 20  1  0  0  0  0
 17 19  1  0  0  0  0
 18 17  1  0  0  0  0
 20 21  1  0  0  0  0
 21 22  2  0  0  0  0
 21 26  1  0  0  0  0
 22 23  1  0  0  0  0
 23 28  1  0  0  0  0
 23 24  2  0  0  0  0
 25 29  1  0  0  0  0
 25 24  1  0  0  0  0
 26 25  2  0  0  0  0
 27 22  1  0  0  0  0
 30 31  1  0  0  0  0
 32 31  1  6  0  0  0
 32 33  1  0  0  0  0
 32 41  1  0  0  0  0
 32 40  1  0  0  0  0
 33 34  1  0  0  0  0
 34 35  1  0  0  0  0
 35 37  1  0  0  0  0
 35 36  2  0  0  0  0
 37 38  1  0  0  0  0
 39 40  1  6  0  0  0
 39 34  1  0  0  0  0
 39 37  1  0  0  0  0
 42 41  1  0  0  0  0
M  END
>  <minimizedAffinity>
-5.34947824

$$$$

 OpenBabel03262521573D

 42 45  0  0  1  0  0  0  0  0999 V2000
   37.4360   27.9730   30.6920 C   0  0  1  0  0  0  0  0  0  0  0  0
   36.7390   28.6690   31.8420 C   0  0  2  0  0  0  0  0  0  0  0  0
   35.5240   27.8740   32.1810 C   0  0  0  0  0  0  0  0  0  0  0  0
   35.3550   26.7620   31.3840 O   0  0  0  0  0  0  0  0  0  0  0  0
   36.4450   25.8910   31.4610 C   0  0  0  0  0  0  0  0  0  0  0  0
   37.7410   26.5650   31.1660 C   0  0  2  0  0  0  0  0  0  0  0  0
   38.3980   28.4540   30.4570 H   0  0  0  0  0  0  0  0  0  0  0  0
   37.4400   28.5970   32.7150 H   0  0  0  0  0  0  0  0  0  0  0  0
   34.5820   28.4650   32.1250 H   0  0  0  0  0  0  0  0  0  0  0  0
   35.5390   27.4880   33.2410 H   0  0  0  0  0  0  0  0  0  0  0  0
   36.2670   25.1370   30.6450 H   0  0  0  0  0  0  0  0  0  0  0  0
   36.4130   25.3110   32.3950 H   0  0  0  0  0  0  0  0  0  0  0  0
   38.3520   26.0160   30.4380 H   0  0  0  0  0  0  0  0  0  0  0  0
   36.6050   27.8590   29.5850 O   0  0  0  0  0  0  0  0  0  0  0  0
   37.1340   28.0320   28.7850 H   0  0  0  0  0  0  0  0  0  0  0  0
   36.3140   30.3830   31.4300 S   0  0  0  0  0  0  0  0  0  0  0  0
   34.9710   30.9660   32.4880 C   0  0  0  0  0  0  0  0  0  0  0  0
   34.6530   31.9620   32.0700 H   0  0  0  0  0  0  0  0  0  0  0  0
   34.1060   30.3080   32.3630 H   0  0  0  0  0  0  0  0  0  0  0  0
   35.4490   31.2450   34.1850 S   0  0  0  0  0  0  0  0  0  0  0  0
   34.0820   30.7940   35.2500 C   0  0  0  0  0  0  0  0  0  0  0  0
   33.9510   31.5800   36.3760 C   0  0  0  0  0  0  0  0  0  0  0  0
   32.9030   31.2960   37.2660 C   0  0  0  0  0  0  0  0  0  0  0  0
   32.0760   30.2510   36.9580 N   0  0  0  0  0  0  0  0  0  0  0  0
   32.2630   29.5220   35.8370 C   0  0  0  0  0  0  0  0  0  0  0  0
   33.2390   29.7810   34.9990 N   0  0  0  0  0  0  0  0  0  0  0  0
   34.6100   32.4120   36.6190 H   0  0  0  0  0  0  0  0  0  0  0  0
   32.7800   31.9000   38.1570 H   0  0  0  0  0  0  0  0  0  0  0  0
   31.6000   28.6930   35.5990 H   0  0  0  0  0  0  0  0  0  0  0  0
   38.4880   26.7220   32.3530 O   0  0  0  0  0  0  0  0  0  0  0  0
   39.2850   25.6360   32.6060 C   0  0  0  0  0  2  0  0  0  0  0  0
   39.4130   25.4930   34.1280 C   0  0  1  0  0  0  0  0  0  0  0  0
   38.1630   24.8060   34.6030 C   0  0  0  0  0  2  0  0  0  0  0  0
   38.4930   24.0100   35.7410 N   0  0  0  0  0  0  0  0  0  0  0  0
   38.5000   23.4330   37.0630 C   0  0  0  0  0  0  0  0  0  0  0  0
   37.6120   23.3330   37.9570 O   0  0  0  0  0  0  0  0  0  0  0  0
   39.9340   23.0250   36.9250 C   0  0  0  0  0  3  0  0  0  0  0  0
   40.6400   23.8090   37.2650 H   0  0  0  0  0  0  0  0  0  0  0  0
   39.6000   23.1130   35.4570 C   0  0  2  0  0  3  0  0  0  0  0  0
   40.6750   24.2400   34.5150 S   0  0  0  0  0  0  0  0  0  0  0  0
   39.6900   26.8090   34.7660 C   0  0  0  0  0  2  0  0  0  0  0  0
   40.2210   27.4330   34.0090 H   0  0  0  0  0  0  0  0  0  0  0  0
  1  7  1  6  0  0  0
  1  6  1  0  0  0  0
  1  2  1  0  0  0  0
  2  3  1  0  0  0  0
  2  8  1  1  0  0  0
  3 10  1  0  0  0  0
  4  5  1  0  0  0  0
  4  3  1  0  0  0  0
  5 12  1  0  0  0  0
  6 13  1  6  0  0  0
  6  5  1  0  0  0  0
  6 30  1  0  0  0  0
  9  3  1  0  0  0  0
 11  5  1  0  0  0  0
 14  1  1  0  0  0  0
 15 14  1  0  0  0  0
 16  2  1  0  0  0  0
 16 17  1  0  0  0  0
 17 20  1  0  0  0  0
 18 17  1  0  0  0  0
 19 17  1  0  0  0  0
 20 21  1  0  0  0  0
 21 22  1  0  0  0  0
 22 27  1  0  0  0  0
 22 23  2  0  0  0  0
 23 28  1  0  0  0  0
 24 23  1  0  0  0  0
 25 24  2  0  0  0  0
 26 21  2  0  0  0  0
 26 25  1  0  0  0  0
 29 25  1  0  0  0  0
 30 31  1  0  0  0  0
 32 31  1  6  0  0  0
 32 40  1  0  0  0  0
 32 33  1  0  0  0  0
 32 41  1  0  0  0  0
 33 34  1  0  0  0  0
 34 35  1  0  0  0  0
 35 36  2  0  0  0  0
 37 35  1  0  0  0  0
 37 38  1  0  0  0  0
 39 40  1  6  0  0  0
 39 34  1  0  0  0  0
 39 37  1  0  0  0  0
 42 41  1  0  0  0  0
M  END
>  <minimizedAffinity>
-5.33611107

$$$$

 OpenBabel03262521573D

 42 45  0  0  1  0  0  0  0  0999 V2000
   37.4130   28.1950   30.7960 C   0  0  1  0  0  0  0  0  0  0  0  0
   36.6310   29.0930   31.7330 C   0  0  2  0  0  0  0  0  0  0  0  0
   35.4060   28.3540   32.1490 C   0  0  0  0  0  0  0  0  0  0  0  0
   35.3030   27.0990   31.5870 O   0  0  0  0  0  0  0  0  0  0  0  0
   36.3950   26.2890   31.9090 C   0  0  0  0  0  0  0  0  0  0  0  0
   37.7000   26.9210   31.5660 C   0  0  2  0  0  0  0  0  0  0  0  0
   38.3820   28.6420   30.5300 H   0  0  0  0  0  0  0  0  0  0  0  0
   37.2730   29.2170   32.6450 H   0  0  0  0  0  0  0  0  0  0  0  0
   34.4630   28.8980   31.9130 H   0  0  0  0  0  0  0  0  0  0  0  0
   35.3530   28.1910   33.2650 H   0  0  0  0  0  0  0  0  0  0  0  0
   36.2800   25.3810   31.2540 H   0  0  0  0  0  0  0  0  0  0  0  0
   36.3060   25.9100   32.9370 H   0  0  0  0  0  0  0  0  0  0  0  0
   38.3650   26.2500   31.0060 H   0  0  0  0  0  0  0  0  0  0  0  0
   36.6590   27.8380   29.6850 O   0  0  0  0  0  0  0  0  0  0  0  0
   37.2390   27.8580   28.9020 H   0  0  0  0  0  0  0  0  0  0  0  0
   36.2160   30.6770   30.9540 S   0  0  0  0  0  0  0  0  0  0  0  0
   34.4800   31.0810   31.2440 C   0  0  0  0  0  0  0  0  0  0  0  0
   34.0360   31.2970   30.2320 H   0  0  0  0  0  0  0  0  0  0  0  0
   33.9610   30.1880   31.6050 H   0  0  0  0  0  0  0  0  0  0  0  0
   34.2280   32.5390   32.2420 S   0  0  0  0  0  0  0  0  0  0  0  0
   34.5990   32.1390   33.9480 C   0  0  0  0  0  0  0  0  0  0  0  0
   35.8680   32.4960   34.3550 C   0  0  0  0  0  0  0  0  0  0  0  0
   36.2420   32.2200   35.6790 C   0  0  0  0  0  0  0  0  0  0  0  0
   35.3200   31.6100   36.4840 N   0  0  0  0  0  0  0  0  0  0  0  0
   34.0940   31.2880   36.0190 C   0  0  0  0  0  0  0  0  0  0  0  0
   33.7350   31.5430   34.7830 N   0  0  0  0  0  0  0  0  0  0  0  0
   36.6010   32.9820   33.7120 H   0  0  0  0  0  0  0  0  0  0  0  0
   37.2330   32.4910   36.0230 H   0  0  0  0  0  0  0  0  0  0  0  0
   33.3660   30.8040   36.6660 H   0  0  0  0  0  0  0  0  0  0  0  0
   38.3630   27.3340   32.7420 O   0  0  0  0  0  0  0  0  0  0  0  0
   39.6810   26.9530   32.7490 C   0  0  0  0  0  2  0  0  0  0  0  0
   39.9210   26.1230   34.0160 C   0  0  1  0  0  0  0  0  0  0  0  0
   38.8390   26.5000   34.9900 C   0  0  0  0  0  2  0  0  0  0  0  0
   38.5340   25.3570   35.7880 N   0  0  0  0  0  0  0  0  0  0  0  0
   38.3040   24.4850   36.9130 C   0  0  0  0  0  0  0  0  0  0  0  0
   37.9810   24.7060   38.1150 O   0  0  0  0  0  0  0  0  0  0  0  0
   38.5960   23.2710   36.0870 C   0  0  0  0  0  3  0  0  0  0  0  0
   39.6690   22.9920   36.0940 H   0  0  0  0  0  0  0  0  0  0  0  0
   38.2230   24.2020   34.9620 C   0  0  2  0  0  3  0  0  0  0  0  0
   39.5090   24.3820   33.6870 S   0  0  0  0  0  0  0  0  0  0  0  0
   41.3110   26.3050   34.5180 C   0  0  0  0  0  2  0  0  0  0  0  0
   41.9460   26.5540   33.6350 H   0  0  0  0  0  0  0  0  0  0  0  0
  1  7  1  6  0  0  0
  1  6  1  0  0  0  0
  1  2  1  0  0  0  0
  2  3  1  0  0  0  0
  2  8  1  1  0  0  0
  3 10  1  0  0  0  0
  4  5  1  0  0  0  0
  4  3  1  0  0  0  0
  5 12  1  0  0  0  0
  6 13  1  6  0  0  0
  6  5  1  0  0  0  0
  6 30  1  0  0  0  0
  9  3  1  0  0  0  0
 11  5  1  0  0  0  0
 14  1  1  0  0  0  0
 15 14  1  0  0  0  0
 16 17  1  0  0  0  0
 16  2  1  0  0  0  0
 17 19  1  0  0  0  0
 17 20  1  0  0  0  0
 18 17  1  0  0  0  0
 20 21  1  0  0  0  0
 21 22  2  0  0  0  0
 21 26  1  0  0  0  0
 22 23  1  0  0  0  0
 23 28  1  0  0  0  0
 23 24  2  0  0  0  0
 25 24  1  0  0  0  0
 25 29  1  0  0  0  0
 26 25  2  0  0  0  0
 27 22  1  0  0  0  0
 30 31  1  0  0  0  0
 32 31  1  6  0  0  0
 32 41  1  0  0  0  0
 32 33  1  0  0  0  0
 33 34  1  0  0  0  0
 34 35  1  0  0  0  0
 35 36  2  0  0  0  0
 37 38  1  0  0  0  0
 37 35  1  0  0  0  0
 39 40  1  6  0  0  0
 39 34  1  0  0  0  0
 39 37  1  0  0  0  0
 40 32  1  0  0  0  0
 42 41  1  0  0  0  0
M  END
>  <minimizedAffinity>
-5.14829636

$$$$

 OpenBabel03262521573D

 42 45  0  0  1  0  0  0  0  0999 V2000
   37.8160   27.3930   30.9350 C   0  0  1  0  0  0  0  0  0  0  0  0
   36.7000   27.9590   31.7870 C   0  0  2  0  0  0  0  0  0  0  0  0
   35.5110   27.0760   31.6210 C   0  0  0  0  0  0  0  0  0  0  0  0
   35.7270   26.0210   30.7600 O   0  0  0  0  0  0  0  0  0  0  0  0
   36.7810   25.2070   31.1820 C   0  0  0  0  0  0  0  0  0  0  0  0
   38.0400   25.9710   31.4130 C   0  0  2  0  0  0  0  0  0  0  0  0
   38.7570   27.9420   31.0900 H   0  0  0  0  0  0  0  0  0  0  0  0
   37.0450   27.8590   32.8500 H   0  0  0  0  0  0  0  0  0  0  0  0
   34.6090   27.6180   31.2570 H   0  0  0  0  0  0  0  0  0  0  0  0
   35.1750   26.6100   32.5920 H   0  0  0  0  0  0  0  0  0  0  0  0
   36.9670   24.5100   30.3180 H   0  0  0  0  0  0  0  0  0  0  0  0
   36.4620   24.5560   32.0080 H   0  0  0  0  0  0  0  0  0  0  0  0
   38.9120   25.5130   30.9290 H   0  0  0  0  0  0  0  0  0  0  0  0
   37.4480   27.3190   29.5960 O   0  0  0  0  0  0  0  0  0  0  0  0
   38.2140   27.5810   29.0540 H   0  0  0  0  0  0  0  0  0  0  0  0
   36.3180   29.6740   31.3390 S   0  0  0  0  0  0  0  0  0  0  0  0
   35.8150   30.6060   32.8030 C   0  0  0  0  0  0  0  0  0  0  0  0
   36.7140   31.2080   33.1140 H   0  0  0  0  0  0  0  0  0  0  0  0
   35.0570   31.3400   32.5160 H   0  0  0  0  0  0  0  0  0  0  0  0
   35.3690   29.5850   34.1980 S   0  0  0  0  0  0  0  0  0  0  0  0
   33.5830   29.5040   34.3020 C   0  0  0  0  0  0  0  0  0  0  0  0
   32.9400   29.4760   33.0810 C   0  0  0  0  0  0  0  0  0  0  0  0
   31.5380   29.4110   33.0710 C   0  0  0  0  0  0  0  0  0  0  0  0
   30.8960   29.3810   34.2770 N   0  0  0  0  0  0  0  0  0  0  0  0
   31.5890   29.4120   35.4360 C   0  0  0  0  0  0  0  0  0  0  0  0
   32.9000   29.4720   35.4560 N   0  0  0  0  0  0  0  0  0  0  0  0
   33.4540   29.5000   32.1210 H   0  0  0  0  0  0  0  0  0  0  0  0
   31.0110   29.3880   32.1240 H   0  0  0  0  0  0  0  0  0  0  0  0
   31.0700   29.3880   36.3920 H   0  0  0  0  0  0  0  0  0  0  0  0
   38.2960   26.0770   32.7970 O   0  0  0  0  0  0  0  0  0  0  0  0
   39.4690   25.4610   33.1500 C   0  0  0  0  0  2  0  0  0  0  0  0
   39.5010   25.3590   34.6810 C   0  0  1  0  0  0  0  0  0  0  0  0
   38.2570   24.6200   35.0890 C   0  0  0  0  0  2  0  0  0  0  0  0
   38.5480   23.8670   36.2660 N   0  0  0  0  0  0  0  0  0  0  0  0
   38.4940   23.3200   37.5990 C   0  0  0  0  0  0  0  0  0  0  0  0
   37.5540   23.1960   38.4350 O   0  0  0  0  0  0  0  0  0  0  0  0
   39.9520   22.9830   37.5670 C   0  0  0  0  0  3  0  0  0  0  0  0
   40.5940   23.8080   37.9340 H   0  0  0  0  0  0  0  0  0  0  0  0
   39.7140   23.0210   36.0790 C   0  0  2  0  0  3  0  0  0  0  0  0
   40.7930   24.1800   35.1820 S   0  0  0  0  0  0  0  0  0  0  0  0
   39.6690   26.7010   35.3020 C   0  0  0  0  0  2  0  0  0  0  0  0
   40.2190   27.3340   34.5660 H   0  0  0  0  0  0  0  0  0  0  0  0
  1  7  1  1  0  0  0
  1  6  1  0  0  0  0
  1  2  1  0  0  0  0
  2  8  1  1  0  0  0
  3  2  1  0  0  0  0
  3 10  1  0  0  0  0
  4  5  1  0  0  0  0
  4  3  1  0  0  0  0
  5  6  1  0  0  0  0
  5 12  1  0  0  0  0
  6 13  1  6  0  0  0
  6 30  1  0  0  0  0
  9  3  1  0  0  0  0
 11  5  1  0  0  0  0
 14  1  1  0  0  0  0
 15 14  1  0  0  0  0
 16  2  1  0  0  0  0
 16 17  1  0  0  0  0
 17 18  1  0  0  0  0
 17 20  1  0  0  0  0
 19 17  1  0  0  0  0
 20 21  1  0  0  0  0
 21 26  1  0  0  0  0
 22 21  2  0  0  0  0
 23 22  1  0  0  0  0
 23 24  2  0  0  0  0
 24 25  1  0  0  0  0
 25 26  2  0  0  0  0
 25 29  1  0  0  0  0
 27 22  1  0  0  0  0
 28 23  1  0  0  0  0
 30 31  1  0  0  0  0
 32 31  1  6  0  0  0
 32 33  1  0  0  0  0
 32 40  1  0  0  0  0
 32 41  1  0  0  0  0
 33 34  1  0  0  0  0
 34 35  1  0  0  0  0
 35 36  2  0  0  0  0
 37 35  1  0  0  0  0
 37 38  1  0  0  0  0
 39 40  1  6  0  0  0
 39 34  1  0  0  0  0
 39 37  1  0  0  0  0
 42 41  1  0  0  0  0
M  END
>  <minimizedAffinity>
-5.09947586

$$$$

 OpenBabel03262521573D

 42 45  0  0  1  0  0  0  0  0999 V2000
   37.1210   26.5050   31.5250 C   0  0  1  0  0  0  0  0  0  0  0  0
   38.3220   27.3410   31.1360 C   0  0  2  0  0  0  0  0  0  0  0  0
   37.8200   28.6630   30.6640 C   0  0  0  0  0  0  0  0  0  0  0  0
   36.4450   28.7700   30.6950 O   0  0  0  0  0  0  0  0  0  0  0  0
   35.9330   28.5760   31.9790 C   0  0  0  0  0  0  0  0  0  0  0  0
   36.3790   27.2910   32.5890 C   0  0  2  0  0  0  0  0  0  0  0  0
   37.4270   25.5500   31.9780 H   0  0  0  0  0  0  0  0  0  0  0  0
   38.8920   27.5200   32.0860 H   0  0  0  0  0  0  0  0  0  0  0  0
   38.1460   28.9130   29.6290 H   0  0  0  0  0  0  0  0  0  0  0  0
   38.2040   29.5220   31.2860 H   0  0  0  0  0  0  0  0  0  0  0  0
   34.8180   28.5080   31.8360 H   0  0  0  0  0  0  0  0  0  0  0  0
   36.0840   29.4730   32.5980 H   0  0  0  0  0  0  0  0  0  0  0  0
   35.5520   26.7110   33.0170 H   0  0  0  0  0  0  0  0  0  0  0  0
   36.2480   26.3400   30.4570 O   0  0  0  0  0  0  0  0  0  0  0  0
   35.9170   25.4230   30.4710 H   0  0  0  0  0  0  0  0  0  0  0  0
   39.3270   26.5240   29.8670 S   0  0  0  0  0  0  0  0  0  0  0  0
   39.8200   24.8780   30.4240 C   0  0  0  0  0  0  0  0  0  0  0  0
   40.9120   24.7760   30.1690 H   0  0  0  0  0  0  0  0  0  0  0  0
   39.7710   24.8410   31.5160 H   0  0  0  0  0  0  0  0  0  0  0  0
   38.9690   23.5440   29.5970 S   0  0  0  0  0  0  0  0  0  0  0  0
   37.8410   22.7760   30.7570 C   0  0  0  0  0  0  0  0  0  0  0  0
   38.3800   21.7180   31.4620 C   0  0  0  0  0  0  0  0  0  0  0  0
   37.5640   21.0590   32.3940 C   0  0  0  0  0  0  0  0  0  0  0  0
   36.2810   21.5080   32.5430 N   0  0  0  0  0  0  0  0  0  0  0  0
   35.8190   22.5490   31.8190 C   0  0  0  0  0  0  0  0  0  0  0  0
   36.5750   23.1730   30.9450 N   0  0  0  0  0  0  0  0  0  0  0  0
   39.4020   21.3620   31.3420 H   0  0  0  0  0  0  0  0  0  0  0  0
   37.9640   20.2260   32.9600 H   0  0  0  0  0  0  0  0  0  0  0  0
   34.7970   22.9000   31.9440 H   0  0  0  0  0  0  0  0  0  0  0  0
   37.3290   27.5390   33.6030 O   0  0  0  0  0  0  0  0  0  0  0  0
   37.0710   26.8110   34.7360 C   0  0  0  0  0  2  0  0  0  0  0  0
   38.3290   25.9960   35.0650 C   0  0  1  0  0  0  0  0  0  0  0  0
   38.1240   25.4240   36.4400 C   0  0  0  0  0  2  0  0  0  0  0  0
   38.7920   24.1640   36.5060 N   0  0  0  0  0  0  0  0  0  0  0  0
   39.6460   23.0780   36.9190 C   0  0  0  0  0  0  0  0  0  0  0  0
   40.1580   22.7690   38.0320 O   0  0  0  0  0  0  0  0  0  0  0  0
   39.6610   22.5060   35.5360 C   0  0  0  0  0  3  0  0  0  0  0  0
   40.4820   22.9100   34.9110 H   0  0  0  0  0  0  0  0  0  0  0  0
   38.3770   23.2880   35.4230 C   0  0  2  0  0  3  0  0  0  0  0  0
   38.3520   24.4850   34.0520 S   0  0  0  0  0  0  0  0  0  0  0  0
   39.5570   26.8220   34.9030 C   0  0  0  0  0  2  0  0  0  0  0  0
   39.3280   27.6000   34.1360 H   0  0  0  0  0  0  0  0  0  0  0  0
  1  7  1  1  0  0  0
  1  6  1  0  0  0  0
  2  1  1  0  0  0  0
  2  8  1  1  0  0  0
  3  4  1  0  0  0  0
  3  2  1  0  0  0  0
  3 10  1  0  0  0  0
  4  5  1  0  0  0  0
  5  6  1  0  0  0  0
  5 12  1  0  0  0  0
  6 13  1  1  0  0  0
  6 30  1  0  0  0  0
  9  3  1  0  0  0  0
 11  5  1  0  0  0  0
 14 15  1  0  0  0  0
 14  1  1  0  0  0  0
 16 17  1  0  0  0  0
 16  2  1  0  0  0  0
 17 19  1  0  0  0  0
 18 17  1  0  0  0  0
 20 17  1  0  0  0  0
 20 21  1  0  0  0  0
 21 26  2  0  0  0  0
 21 22  1  0  0  0  0
 22 23  2  0  0  0  0
 23 24  1  0  0  0  0
 23 28  1  0  0  0  0
 25 29  1  0  0  0  0
 25 24  2  0  0  0  0
 26 25  1  0  0  0  0
 27 22  1  0  0  0  0
 30 31  1  0  0  0  0
 32 31  1  6  0  0  0
 32 33  1  0  0  0  0
 33 34  1  0  0  0  0
 34 35  1  0  0  0  0
 35 36  2  0  0  0  0
 37 35  1  0  0  0  0
 38 37  1  0  0  0  0
 39 40  1  6  0  0  0
 39 37  1  0  0  0  0
 39 34  1  0  0  0  0
 40 32  1  0  0  0  0
 41 32  1  0  0  0  0
 42 41  1  0  0  0  0
M  END
>  <minimizedAffinity>
-5.09525251

$$$$

 OpenBabel03262521573D

 42 45  0  0  1  0  0  0  0  0999 V2000
   37.0400   22.1770   32.7210 C   0  0  1  0  0  0  0  0  0  0  0  0
   38.1980   21.8650   31.7960 C   0  0  2  0  0  0  0  0  0  0  0  0
   37.7260   20.8580   30.8040 C   0  0  0  0  0  0  0  0  0  0  0  0
   36.4120   20.4800   30.9870 O   0  0  0  0  0  0  0  0  0  0  0  0
   35.5390   21.5680   30.9090 C   0  0  0  0  0  0  0  0  0  0  0  0
   35.9100   22.6720   31.8390 C   0  0  2  0  0  0  0  0  0  0  0  0
   37.2910   22.9910   33.4170 H   0  0  0  0  0  0  0  0  0  0  0  0
   38.4060   22.8150   31.2350 H   0  0  0  0  0  0  0  0  0  0  0  0
   38.3370   19.9270   30.7990 H   0  0  0  0  0  0  0  0  0  0  0  0
   37.7880   21.2310   29.7410 H   0  0  0  0  0  0  0  0  0  0  0  0
   34.5460   21.1620   31.2500 H   0  0  0  0  0  0  0  0  0  0  0  0
   35.3790   21.8620   29.8610 H   0  0  0  0  0  0  0  0  0  0  0  0
   35.0610   23.0330   32.4330 H   0  0  0  0  0  0  0  0  0  0  0  0
   36.5820   21.0360   33.3680 O   0  0  0  0  0  0  0  0  0  0  0  0
   36.3730   21.2700   34.2900 H   0  0  0  0  0  0  0  0  0  0  0  0
   39.6450   21.2660   32.7110 S   0  0  0  0  0  0  0  0  0  0  0  0
   40.3880   22.6130   33.6570 C   0  0  0  0  0  0  0  0  0  0  0  0
   41.3780   22.8300   33.1660 H   0  0  0  0  0  0  0  0  0  0  0  0
   39.7900   23.5190   33.5190 H   0  0  0  0  0  0  0  0  0  0  0  0
   40.7320   22.2040   35.3600 S   0  0  0  0  0  0  0  0  0  0  0  0
   39.5730   23.0800   36.4070 C   0  0  0  0  0  0  0  0  0  0  0  0
   39.6940   22.7990   37.7530 C   0  0  0  0  0  0  0  0  0  0  0  0
   38.8250   23.4440   38.6460 C   0  0  0  0  0  0  0  0  0  0  0  0
   37.9080   24.3130   38.1220 N   0  0  0  0  0  0  0  0  0  0  0  0
   37.8450   24.5410   36.7930 C   0  0  0  0  0  0  0  0  0  0  0  0
   38.6550   23.9430   35.9500 N   0  0  0  0  0  0  0  0  0  0  0  0
   40.4250   22.1060   38.1680 H   0  0  0  0  0  0  0  0  0  0  0  0
   38.9000   23.2400   39.7070 H   0  0  0  0  0  0  0  0  0  0  0  0
   37.1130   25.2340   36.3840 H   0  0  0  0  0  0  0  0  0  0  0  0
   36.4470   23.7570   31.1140 O   0  0  0  0  0  0  0  0  0  0  0  0
   35.6920   24.8930   31.2560 C   0  0  0  0  0  2  0  0  0  0  0  0
   36.6260   26.0220   31.7110 C   0  0  1  0  0  0  0  0  0  0  0  0
   37.0270   25.7050   33.1260 C   0  0  0  0  0  2  0  0  0  0  0  0
   38.3500   26.1970   33.3380 N   0  0  0  0  0  0  0  0  0  0  0  0
   39.4900   26.8870   33.8880 C   0  0  0  0  0  0  0  0  0  0  0  0
   39.7500   27.3240   35.0450 O   0  0  0  0  0  0  0  0  0  0  0  0
   40.1950   26.8640   32.5670 C   0  0  0  0  0  3  0  0  0  0  0  0
   39.9650   27.7490   31.9400 H   0  0  0  0  0  0  0  0  0  0  0  0
   39.2680   25.6990   32.3280 C   0  0  2  0  0  3  0  0  0  0  0  0
   38.2210   25.8710   30.8490 S   0  0  0  0  0  0  0  0  0  0  0  0
   35.9880   27.3530   31.5200 C   0  0  0  0  0  2  0  0  0  0  0  0
   35.2670   27.2500   30.6740 H   0  0  0  0  0  0  0  0  0  0  0  0
  1 14  1  0  0  0  0
  1  7  1  1  0  0  0
  2  8  1  6  0  0  0
  2 16  1  0  0  0  0
  2  1  1  0  0  0  0
  3  4  1  0  0  0  0
  3  2  1  0  0  0  0
  5  4  1  0  0  0  0
  5 11  1  0  0  0  0
  5  6  1  0  0  0  0
  6 13  1  1  0  0  0
  6  1  1  0  0  0  0
  9  3  1  0  0  0  0
 10  3  1  0  0  0  0
 12  5  1  0  0  0  0
 14 15  1  0  0  0  0
 16 17  1  0  0  0  0
 17 20  1  0  0  0  0
 18 17  1  0  0  0  0
 19 17  1  0  0  0  0
 20 21  1  0  0  0  0
 21 22  1  0  0  0  0
 22 27  1  0  0  0  0
 22 23  2  0  0  0  0
 23 28  1  0  0  0  0
 24 23  1  0  0  0  0
 25 24  2  0  0  0  0
 26 21  2  0  0  0  0
 26 25  1  0  0  0  0
 29 25  1  0  0  0  0
 30 31  1  0  0  0  0
 30  6  1  0  0  0  0
 32 31  1  6  0  0  0
 32 33  1  0  0  0  0
 33 34  1  0  0  0  0
 34 35  1  0  0  0  0
 35 36  2  0  0  0  0
 37 35  1  0  0  0  0
 38 37  1  0  0  0  0
 39 40  1  6  0  0  0
 39 37  1  0  0  0  0
 39 34  1  0  0  0  0
 40 32  1  0  0  0  0
 41 32  1  0  0  0  0
 42 41  1  0  0  0  0
M  END
>  <minimizedAffinity>
-5.06411219

$$$$

 OpenBabel03262521573D

 42 45  0  0  1  0  0  0  0  0999 V2000
   35.8870   27.5560   31.4900 C   0  0  1  0  0  0  0  0  0  0  0  0
   37.2000   27.4100   32.2310 C   0  0  2  0  0  0  0  0  0  0  0  0
   38.2880   27.8550   31.3150 C   0  0  0  0  0  0  0  0  0  0  0  0
   37.8340   28.2580   30.0770 O   0  0  0  0  0  0  0  0  0  0  0  0
   36.9240   29.3150   30.1710 C   0  0  0  0  0  0  0  0  0  0  0  0
   35.7850   29.0140   31.0840 C   0  0  2  0  0  0  0  0  0  0  0  0
   35.0310   27.3390   32.1450 H   0  0  0  0  0  0  0  0  0  0  0  0
   37.1550   28.1440   33.0790 H   0  0  0  0  0  0  0  0  0  0  0  0
   39.0630   27.0750   31.1420 H   0  0  0  0  0  0  0  0  0  0  0  0
   38.8700   28.7310   31.7240 H   0  0  0  0  0  0  0  0  0  0  0  0
   36.5020   29.4220   29.1330 H   0  0  0  0  0  0  0  0  0  0  0  0
   37.4490   30.2620   30.3620 H   0  0  0  0  0  0  0  0  0  0  0  0
   34.8090   29.2430   30.6380 H   0  0  0  0  0  0  0  0  0  0  0  0
   35.8760   26.8050   30.3200 O   0  0  0  0  0  0  0  0  0  0  0  0
   34.9940   26.4010   30.2250 H   0  0  0  0  0  0  0  0  0  0  0  0
   37.4660   25.7080   32.7960 S   0  0  0  0  0  0  0  0  0  0  0  0
   38.5620   24.8340   31.6570 C   0  0  0  0  0  0  0  0  0  0  0  0
   38.9100   25.6010   30.9090 H   0  0  0  0  0  0  0  0  0  0  0  0
   39.4610   24.5220   32.1950 H   0  0  0  0  0  0  0  0  0  0  0  0
   37.7630   23.5340   30.7310 S   0  0  0  0  0  0  0  0  0  0  0  0
   36.9200   22.4470   31.8770 C   0  0  0  0  0  0  0  0  0  0  0  0
   35.6770   22.0230   31.4530 C   0  0  0  0  0  0  0  0  0  0  0  0
   34.9460   21.1660   32.2910 C   0  0  0  0  0  0  0  0  0  0  0  0
   35.5160   20.8060   33.4810 N   0  0  0  0  0  0  0  0  0  0  0  0
   36.7380   21.2590   33.8340 C   0  0  0  0  0  0  0  0  0  0  0  0
   37.4290   22.0600   33.0560 N   0  0  0  0  0  0  0  0  0  0  0  0
   35.2250   22.3110   30.5050 H   0  0  0  0  0  0  0  0  0  0  0  0
   33.9680   20.8200   31.9800 H   0  0  0  0  0  0  0  0  0  0  0  0
   37.1840   20.9680   34.7820 H   0  0  0  0  0  0  0  0  0  0  0  0
   35.9170   29.7470   32.2820 O   0  0  0  0  0  0  0  0  0  0  0  0
   34.7470   30.3700   32.6340 C   0  0  0  0  0  2  0  0  0  0  0  0
   34.7210   30.4890   34.1630 C   0  0  1  0  0  0  0  0  0  0  0  0
   34.4600   31.9360   34.4780 C   0  0  0  0  0  2  0  0  0  0  0  0
   33.7170   32.0030   35.6950 N   0  0  0  0  0  0  0  0  0  0  0  0
   33.2920   32.3370   37.0320 C   0  0  0  0  0  0  0  0  0  0  0  0
   33.5310   33.3240   37.7840 O   0  0  0  0  0  0  0  0  0  0  0  0
   32.4880   31.0790   37.1370 C   0  0  0  0  0  3  0  0  0  0  0  0
   33.0710   30.2260   37.5380 H   0  0  0  0  0  0  0  0  0  0  0  0
   32.5230   31.1780   35.6330 C   0  0  2  0  0  3  0  0  0  0  0  0
   33.2090   29.7080   34.8060 S   0  0  0  0  0  0  0  0  0  0  0  0
   35.9630   29.9280   34.7630 C   0  0  0  0  0  2  0  0  0  0  0  0
   36.3370   29.1440   34.0620 H   0  0  0  0  0  0  0  0  0  0  0  0
  1  7  1  1  0  0  0
  1  2  1  0  0  0  0
  2 16  1  0  0  0  0
  2  8  1  1  0  0  0
  3 10  1  0  0  0  0
  3  2  1  0  0  0  0
  4  5  1  0  0  0  0
  4  3  1  0  0  0  0
  5 12  1  0  0  0  0
  5  6  1  0  0  0  0
  6 13  1  6  0  0  0
  6  1  1  0  0  0  0
  6 30  1  0  0  0  0
  9  3  1  0  0  0  0
 11  5  1  0  0  0  0
 14  1  1  0  0  0  0
 15 14  1  0  0  0  0
 17 19  1  0  0  0  0
 17 16  1  0  0  0  0
 18 17  1  0  0  0  0
 20 17  1  0  0  0  0
 20 21  1  0  0  0  0
 21 26  1  0  0  0  0
 22 21  2  0  0  0  0
 22 23  1  0  0  0  0
 23 24  2  0  0  0  0
 24 25  1  0  0  0  0
 25 29  1  0  0  0  0
 26 25  2  0  0  0  0
 27 22  1  0  0  0  0
 28 23  1  0  0  0  0
 30 31  1  0  0  0  0
 32 31  1  6  0  0  0
 32 33  1  0  0  0  0
 32 41  1  0  0  0  0
 32 40  1  0  0  0  0
 33 34  1  0  0  0  0
 34 35  1  0  0  0  0
 35 37  1  0  0  0  0
 35 36  2  0  0  0  0
 37 38  1  0  0  0  0
 39 40  1  6  0  0  0
 39 34  1  0  0  0  0
 39 37  1  0  0  0  0
 42 41  1  0  0  0  0
M  END
>  <minimizedAffinity>
-5.04333782

$$$$

 OpenBabel03262521573D

 42 45  0  0  1  0  0  0  0  0999 V2000
   38.1180   26.4480   35.6270 C   0  0  1  0  0  0  0  0  0  0  0  0
   37.6770   26.7470   34.2090 C   0  0  2  0  0  0  0  0  0  0  0  0
   38.8900   27.1130   33.4260 C   0  0  0  0  0  0  0  0  0  0  0  0
   40.0510   27.0940   34.1700 O   0  0  0  0  0  0  0  0  0  0  0  0
   40.2930   25.8370   34.7310 C   0  0  0  0  0  0  0  0  0  0  0  0
   39.1410   25.3330   35.5290 C   0  0  2  0  0  0  0  0  0  0  0  0
   37.2820   26.0720   36.2360 H   0  0  0  0  0  0  0  0  0  0  0  0
   37.2920   25.7770   33.7970 H   0  0  0  0  0  0  0  0  0  0  0  0
   38.8210   28.1180   32.9520 H   0  0  0  0  0  0  0  0  0  0  0  0
   39.0750   26.4150   32.5580 H   0  0  0  0  0  0  0  0  0  0  0  0
   41.1480   26.0030   35.4450 H   0  0  0  0  0  0  0  0  0  0  0  0
   40.6870   25.1440   33.9740 H   0  0  0  0  0  0  0  0  0  0  0  0
   39.4370   24.9660   36.5210 H   0  0  0  0  0  0  0  0  0  0  0  0
   38.7580   27.5390   36.2020 O   0  0  0  0  0  0  0  0  0  0  0  0
   38.4700   27.6070   37.1310 H   0  0  0  0  0  0  0  0  0  0  0  0
   36.4330   28.0660   34.1580 S   0  0  0  0  0  0  0  0  0  0  0  0
   35.8760   28.3340   32.4610 C   0  0  0  0  0  0  0  0  0  0  0  0
   36.8070   28.4680   31.8430 H   0  0  0  0  0  0  0  0  0  0  0  0
   35.4090   27.4170   32.0890 H   0  0  0  0  0  0  0  0  0  0  0  0
   34.8920   29.8070   32.2410 S   0  0  0  0  0  0  0  0  0  0  0  0
   33.5190   29.7580   33.3900 C   0  0  0  0  0  0  0  0  0  0  0  0
   32.4240   29.0470   32.9420 C   0  0  0  0  0  0  0  0  0  0  0  0
   31.3030   28.9560   33.7810 C   0  0  0  0  0  0  0  0  0  0  0  0
   31.3680   29.5830   34.9940 N   0  0  0  0  0  0  0  0  0  0  0  0
   32.4720   30.2620   35.3700 C   0  0  0  0  0  0  0  0  0  0  0  0
   33.5250   30.3520   34.5920 N   0  0  0  0  0  0  0  0  0  0  0  0
   32.3750   28.5480   31.9750 H   0  0  0  0  0  0  0  0  0  0  0  0
   30.4320   28.4030   33.4510 H   0  0  0  0  0  0  0  0  0  0  0  0
   32.5150   30.7580   36.3370 H   0  0  0  0  0  0  0  0  0  0  0  0
   38.4920   24.2870   34.8380 O   0  0  0  0  0  0  0  0  0  0  0  0
   39.3640   23.2940   34.4730 C   0  0  0  0  0  2  0  0  0  0  0  0
   38.6750   22.4370   33.4030 C   0  0  1  0  0  0  0  0  0  0  0  0
   37.4030   21.9210   34.0180 C   0  0  0  0  0  2  0  0  0  0  0  0
   36.4260   21.7920   32.9860 N   0  0  0  0  0  0  0  0  0  0  0  0
   35.4170   21.2600   32.1040 C   0  0  0  0  0  0  0  0  0  0  0  0
   34.6000   20.3030   32.2190 O   0  0  0  0  0  0  0  0  0  0  0  0
   35.7380   22.2770   31.0530 C   0  0  0  0  0  3  0  0  0  0  0  0
   36.5260   21.9380   30.3510 H   0  0  0  0  0  0  0  0  0  0  0  0
   36.2740   23.0320   32.2420 C   0  0  2  0  0  3  0  0  0  0  0  0
   38.0230   23.5150   32.0910 S   0  0  0  0  0  0  0  0  0  0  0  0
   39.5960   21.3870   32.8860 C   0  0  0  0  0  2  0  0  0  0  0  0
   40.6340   21.7790   33.0010 H   0  0  0  0  0  0  0  0  0  0  0  0
  1 14  1  0  0  0  0
  1  7  1  1  0  0  0
  2  8  1  6  0  0  0
  2  1  1  0  0  0  0
  3  4  1  0  0  0  0
  3  2  1  0  0  0  0
  4  5  1  0  0  0  0
  5 11  1  0  0  0  0
  5  6  1  0  0  0  0
  6  1  1  0  0  0  0
  6 13  1  1  0  0  0
  9  3  1  0  0  0  0
 10  3  1  0  0  0  0
 12  5  1  0  0  0  0
 14 15  1  0  0  0  0
 16  2  1  0  0  0  0
 17 16  1  0  0  0  0
 18 17  1  0  0  0  0
 19 17  1  0  0  0  0
 20 17  1  0  0  0  0
 20 21  1  0  0  0  0
 21 26  1  0  0  0  0
 22 21  2  0  0  0  0
 22 23  1  0  0  0  0
 23 24  2  0  0  0  0
 24 25  1  0  0  0  0
 25 29  1  0  0  0  0
 26 25  2  0  0  0  0
 27 22  1  0  0  0  0
 28 23  1  0  0  0  0
 30  6  1  0  0  0  0
 31 30  1  0  0  0  0
 32 41  1  6  0  0  0
 32 33  1  0  0  0  0
 32 31  1  0  0  0  0
 34 33  1  0  0  0  0
 35 36  2  0  0  0  0
 35 34  1  0  0  0  0
 37 35  1  0  0  0  0
 38 37  1  0  0  0  0
 39 37  1  6  0  0  0
 39 34  1  0  0  0  0
 40 39  1  0  0  0  0
 40 32  1  0  0  0  0
 41 42  1  0  0  0  0
M  END
>  <minimizedAffinity>
-4.98062229

$$$$

 OpenBabel03262521573D

 42 45  0  0  1  0  0  0  0  0999 V2000
   38.5920   26.4160   31.8730 C   0  0  1  0  0  0  0  0  0  0  0  0
   37.9560   26.4320   33.2470 C   0  0  2  0  0  0  0  0  0  0  0  0
   36.7820   27.3490   33.1910 C   0  0  0  0  0  0  0  0  0  0  0  0
   36.5960   27.9280   31.9530 O   0  0  0  0  0  0  0  0  0  0  0  0
   36.4140   26.9720   30.9500 C   0  0  0  0  0  0  0  0  0  0  0  0
   37.5130   25.9670   30.9070 C   0  0  2  0  0  0  0  0  0  0  0  0
   39.4070   25.6790   31.8170 H   0  0  0  0  0  0  0  0  0  0  0  0
   37.5630   25.3950   33.4140 H   0  0  0  0  0  0  0  0  0  0  0  0
   36.8340   28.1750   33.9350 H   0  0  0  0  0  0  0  0  0  0  0  0
   35.8110   26.8280   33.4300 H   0  0  0  0  0  0  0  0  0  0  0  0
   36.4570   27.5560   29.9880 H   0  0  0  0  0  0  0  0  0  0  0  0
   35.3940   26.5610   30.9860 H   0  0  0  0  0  0  0  0  0  0  0  0
   37.9120   25.8130   29.8960 H   0  0  0  0  0  0  0  0  0  0  0  0
   38.9880   27.6890   31.4790 O   0  0  0  0  0  0  0  0  0  0  0  0
   39.8480   27.6160   31.0270 H   0  0  0  0  0  0  0  0  0  0  0  0
   39.1350   26.9440   34.5260 S   0  0  0  0  0  0  0  0  0  0  0  0
   38.6060   26.3370   36.1430 C   0  0  0  0  0  0  0  0  0  0  0  0
   39.5240   26.3430   36.7950 H   0  0  0  0  0  0  0  0  0  0  0  0
   37.9240   27.0660   36.5920 H   0  0  0  0  0  0  0  0  0  0  0  0
   37.9930   24.6600   36.1270 S   0  0  0  0  0  0  0  0  0  0  0  0
   39.3770   23.5410   36.3180 C   0  0  0  0  0  0  0  0  0  0  0  0
   40.1440   23.3810   35.1820 C   0  0  0  0  0  0  0  0  0  0  0  0
   41.2510   22.5210   35.2440 C   0  0  0  0  0  0  0  0  0  0  0  0
   41.4990   21.8930   36.4320 N   0  0  0  0  0  0  0  0  0  0  0  0
   40.7070   22.0950   37.5060 C   0  0  0  0  0  0  0  0  0  0  0  0
   39.6700   22.8980   37.4580 N   0  0  0  0  0  0  0  0  0  0  0  0
   39.9450   23.8830   34.2360 H   0  0  0  0  0  0  0  0  0  0  0  0
   41.8680   22.3790   34.3650 H   0  0  0  0  0  0  0  0  0  0  0  0
   40.9110   21.5910   38.4480 H   0  0  0  0  0  0  0  0  0  0  0  0
   37.0560   24.7270   31.4040 O   0  0  0  0  0  0  0  0  0  0  0  0
   37.5940   23.6690   30.7170 C   0  0  0  0  0  2  0  0  0  0  0  0
   37.6080   22.4590   31.6590 C   0  0  1  0  0  0  0  0  0  0  0  0
   36.8070   22.8460   32.8710 C   0  0  0  0  0  2  0  0  0  0  0  0
   36.1680   21.6760   33.3810 N   0  0  0  0  0  0  0  0  0  0  0  0
   35.7200   20.6240   34.2590 C   0  0  0  0  0  0  0  0  0  0  0  0
   35.5850   20.5570   35.5130 O   0  0  0  0  0  0  0  0  0  0  0  0
   35.4960   19.6960   33.1050 C   0  0  0  0  0  3  0  0  0  0  0  0
   36.3940   19.0990   32.8510 H   0  0  0  0  0  0  0  0  0  0  0  0
   35.4040   20.9970   32.3470 C   0  0  2  0  0  3  0  0  0  0  0  0
   36.5750   21.1350   30.9600 S   0  0  0  0  0  0  0  0  0  0  0  0
   39.0020   22.0180   31.9410 C   0  0  0  0  0  2  0  0  0  0  0  0
   39.6200   22.3080   31.0580 H   0  0  0  0  0  0  0  0  0  0  0  0
  1  7  1  6  0  0  0
  1  2  1  0  0  0  0
  2  8  1  1  0  0  0
  2 16  1  0  0  0  0
  3  2  1  0  0  0  0
  3 10  1  0  0  0  0
  3  9  1  0  0  0  0
  4  3  1  0  0  0  0
  5 12  1  0  0  0  0
  5  4  1  0  0  0  0
  6 13  1  6  0  0  0
  6  5  1  0  0  0  0
  6 30  1  0  0  0  0
  6  1  1  0  0  0  0
 11  5  1  0  0  0  0
 14  1  1  0  0  0  0
 15 14  1  0  0  0  0
 16 17  1  0  0  0  0
 17 19  1  0  0  0  0
 17 18  1  0  0  0  0
 20 17  1  0  0  0  0
 20 21  1  0  0  0  0
 21 26  1  0  0  0  0
 22 23  1  0  0  0  0
 22 21  2  0  0  0  0
 23 24  2  0  0  0  0
 24 25  1  0  0  0  0
 25 29  1  0  0  0  0
 26 25  2  0  0  0  0
 27 22  1  0  0  0  0
 28 23  1  0  0  0  0
 31 30  1  0  0  0  0
 32 31  1  6  0  0  0
 32 41  1  0  0  0  0
 32 33  1  0  0  0  0
 33 34  1  0  0  0  0
 34 35  1  0  0  0  0
 35 36  2  0  0  0  0
 37 35  1  0  0  0  0
 38 37  1  0  0  0  0
 39 40  1  6  0  0  0
 39 37  1  0  0  0  0
 39 34  1  0  0  0  0
 40 32  1  0  0  0  0
 42 41  1  0  0  0  0
M  END
>  <minimizedAffinity>
-4.88070869

$$$$
