
 OpenBabel03262521543D

 42 45  0  0  1  0  0  0  0  0999 V2000
   32.9500   27.0820   47.7130 C   0  0  1  0  0  0  0  0  0  0  0  0
   33.3070   28.4380   48.2850 C   0  0  2  0  0  0  0  0  0  0  0  0
   33.6290   29.3400   47.1430 C   0  0  0  0  0  0  0  0  0  0  0  0
   33.5310   28.7250   45.9120 O   0  0  0  0  0  0  0  0  0  0  0  0
   32.2510   28.2170   45.6800 C   0  0  0  0  0  0  0  0  0  0  0  0
   31.7860   27.3100   46.7670 C   0  0  2  0  0  0  0  0  0  0  0  0
   32.6040   26.3940   48.4980 H   0  0  0  0  0  0  0  0  0  0  0  0
   32.3690   28.8260   48.7630 H   0  0  0  0  0  0  0  0  0  0  0  0
   34.6480   29.7840   47.2070 H   0  0  0  0  0  0  0  0  0  0  0  0
   32.9450   30.2360   47.0880 H   0  0  0  0  0  0  0  0  0  0  0  0
   32.3540   27.5960   44.7480 H   0  0  0  0  0  0  0  0  0  0  0  0
   31.5560   29.0250   45.4070 H   0  0  0  0  0  0  0  0  0  0  0  0
   31.3810   26.3630   46.3890 H   0  0  0  0  0  0  0  0  0  0  0  0
   33.9920   26.5570   46.9570 O   0  0  0  0  0  0  0  0  0  0  0  0
   34.0520   25.6020   47.1410 H   0  0  0  0  0  0  0  0  0  0  0  0
   34.6900   28.3310   49.4530 S   0  0  0  0  0  0  0  0  0  0  0  0
   35.1370   29.9780   50.0450 C   0  0  0  0  0  0  0  0  0  0  0  0
   34.9590   30.6790   49.1830 H   0  0  0  0  0  0  0  0  0  0  0  0
   34.4290   30.2830   50.8210 H   0  0  0  0  0  0  0  0  0  0  0  0
   36.8550   30.1460   50.5030 S   0  0  0  0  0  0  0  0  0  0  0  0
   37.7250   30.9720   49.1730 C   0  0  0  0  0  0  0  0  0  0  0  0
   38.1680   32.2420   49.4830 C   0  0  0  0  0  0  0  0  0  0  0  0
   38.8610   32.9610   48.4980 C   0  0  0  0  0  0  0  0  0  0  0  0
   39.0540   32.3540   47.2880 N   0  0  0  0  0  0  0  0  0  0  0  0
   38.5930   31.1070   47.0520 C   0  0  0  0  0  0  0  0  0  0  0  0
   37.9440   30.4270   47.9680 N   0  0  0  0  0  0  0  0  0  0  0  0
   38.0140   32.7230   50.4480 H   0  0  0  0  0  0  0  0  0  0  0  0
   39.2190   33.9600   48.7170 H   0  0  0  0  0  0  0  0  0  0  0  0
   38.7500   30.6320   46.0870 H   0  0  0  0  0  0  0  0  0  0  0  0
   30.7940   27.9480   47.5410 O   0  0  0  0  0  0  0  0  0  0  0  0
   29.7220   27.1260   47.7800 C   0  0  0  0  0  2  0  0  0  0  0  0
   28.7490   27.8810   48.6960 C   0  0  1  0  0  0  0  0  0  0  0  0
   28.4040   29.1650   47.9920 C   0  0  0  0  0  2  0  0  0  0  0  0
   27.0660   29.5210   48.3380 N   0  0  0  0  0  0  0  0  0  0  0  0
   25.9110   30.2520   48.7950 C   0  0  0  0  0  0  0  0  0  0  0  0
   25.6630   31.4880   48.8920 O   0  0  0  0  0  0  0  0  0  0  0  0
   25.1700   28.9840   49.0880 C   0  0  0  0  0  3  0  0  0  0  0  0
   25.3390   28.6140   50.1180 H   0  0  0  0  0  0  0  0  0  0  0  0
   26.1430   28.4280   48.0790 C   0  0  2  0  0  3  0  0  0  0  0  0
   27.1380   27.0340   48.6950 S   0  0  0  0  0  0  0  0  0  0  0  0
   29.3180   28.0430   50.0610 C   0  0  0  0  0  2  0  0  0  0  0  0
   30.0180   27.1910   50.2260 H   0  0  0  0  0  0  0  0  0  0  0  0
  1  2  1  0  0  0  0
  1  7  1  1  0  0  0
  2  8  1  1  0  0  0
  2 16  1  0  0  0  0
  3  9  1  0  0  0  0
  3  2  1  0  0  0  0
  4  3  1  0  0  0  0
  5  4  1  0  0  0  0
  5  6  1  0  0  0  0
  6 13  1  6  0  0  0
  6 30  1  0  0  0  0
  6  1  1  0  0  0  0
 10  3  1  0  0  0  0
 11  5  1  0  0  0  0
 12  5  1  0  0  0  0
 14 15  1  0  0  0  0
 14  1  1  0  0  0  0
 16 17  1  0  0  0  0
 17 20  1  0  0  0  0
 17 19  1  0  0  0  0
 18 17  1  0  0  0  0
 21 22  1  0  0  0  0
 21 20  1  0  0  0  0
 22 27  1  0  0  0  0
 23 28  1  0  0  0  0
 23 22  2  0  0  0  0
 24 23  1  0  0  0  0
 25 24  2  0  0  0  0
 25 26  1  0  0  0  0
 26 21  2  0  0  0  0
 29 25  1  0  0  0  0
 30 31  1  0  0  0  0
 32 31  1  6  0  0  0
 32 41  1  0  0  0  0
 33 34  1  0  0  0  0
 33 32  1  0  0  0  0
 34 35  1  0  0  0  0
 35 36  2  0  0  0  0
 35 37  1  0  0  0  0
 37 38  1  0  0  0  0
 39 34  1  0  0  0  0
 39 40  1  1  0  0  0
 39 37  1  0  0  0  0
 40 32  1  0  0  0  0
 41 42  1  0  0  0  0
M  END
>  <minimizedAffinity>
-6.11545134

>  <minimizedRMSD>
2.08444738

$$$$
