
 OpenBabel03272509263D

 28 31  0  0  1  0  0  0  0  0999 V2000
   36.3540   28.4610   34.3640 C   0  0  0  0  0  0  0  0  0  0  0  0
   35.5760   27.7320   34.7560 H   0  0  0  0  0  0  0  0  0  0  0  0
   36.9720   28.6910   35.2220 H   0  0  0  0  0  0  0  0  0  0  0  0
   35.5300   29.5990   33.8050 C   0  0  0  0  0  0  0  0  0  0  0  0
   36.2350   30.1850   33.1580 H   0  0  0  0  0  0  0  0  0  0  0  0
   34.7530   29.1570   33.1560 H   0  0  0  0  0  0  0  0  0  0  0  0
   35.1750   32.0290   36.6710 C   0  0  0  0  0  0  0  0  0  0  0  0
   35.7710   31.2900   35.6490 C   0  0  0  0  0  0  0  0  0  0  0  0
   35.0030   30.4370   34.8960 C   0  0  0  0  0  0  0  0  0  0  0  0
   33.6770   30.3590   35.1970 N   0  0  0  0  0  0  0  0  0  0  0  0
   33.1230   31.0780   36.1860 C   0  0  0  0  0  0  0  0  0  0  0  0
   33.8790   31.9200   36.9260 N   0  0  0  0  0  0  0  0  0  0  0  0
   35.8370   32.6890   37.2370 H   0  0  0  0  0  0  0  0  0  0  0  0
   36.8250   31.3920   35.4610 H   0  0  0  0  0  0  0  0  0  0  0  0
   32.0690   31.0180   36.4200 H   0  0  0  0  0  0  0  0  0  0  0  0
   37.2000   27.6000   33.0080 S   0  0  0  0  0  0  0  0  0  0  0  0
   37.3500   25.8710   33.4970 C   0  0  0  0  0  2  0  0  0  0  0  0
   38.4060   25.6030   34.5380 C   0  0  1  0  0  0  0  0  0  0  0  0
   37.7990   25.4580   35.8650 C   0  0  0  0  0  2  0  0  0  0  0  0
   38.2940   24.2670   36.5020 N   0  0  2  0  0  0  0  0  0  0  0  0
   38.7790   23.4230   37.5390 C   0  0  2  0  0  0  0  0  0  0  0  0
   38.7370   23.2060   38.7870 O   0  0  0  0  0  1  0  0  0  0  0  0
   39.5460   22.6670   36.5410 C   0  0  0  0  0  3  0  0  0  0  0  0
   40.4930   23.1870   36.2640 H   0  0  0  0  0  0  0  0  0  0  0  0
   38.4320   23.1430   35.6300 C   0  0  1  0  0  0  0  0  0  0  0  0
   39.0440   23.9240   34.1140 S   0  0  0  0  0  0  0  0  0  0  0  0
   39.5290   26.6080   34.4240 C   0  0  0  0  0  2  0  0  0  0  0  0
   39.6330   26.8200   33.3220 H   0  0  0  0  0  0  0  0  0  0  0  0
  1  2  1  0  0  0  0
  1  3  1  0  0  0  0
  4  1  1  0  0  0  0
  4  9  1  0  0  0  0
  5  4  1  0  0  0  0
  6  4  1  0  0  0  0
  7 12  1  0  0  0  0
  7 13  1  0  0  0  0
  8  7  2  0  0  0  0
  9 10  2  0  0  0  0
  9  8  1  0  0  0  0
 10 11  1  0  0  0  0
 11 15  1  0  0  0  0
 11 12  2  0  0  0  0
 14  8  1  0  0  0  0
 16 17  1  0  0  0  0
 16  1  1  0  0  0  0
 18 17  1  6  0  0  0
 18 19  1  0  0  0  0
 20 19  1  6  0  0  0
 20 21  1  0  0  0  0
 21 22  1  1  0  0  0
 23 21  1  0  0  0  0
 24 23  1  0  0  0  0
 25 26  1  1  0  0  0
 25 20  1  0  0  0  0
 25 23  1  0  0  0  0
 25 21  1  0  0  0  0
 26 18  1  0  0  0  0
 27 18  1  0  0  0  0
 28 27  1  0  0  0  0
M  END
>  <minimizedAffinity>
-4.64418173

$$$$

 OpenBabel03272509263D

 28 31  0  0  1  0  0  0  0  0999 V2000
   36.4500   24.8290   31.3340 C   0  0  0  0  0  0  0  0  0  0  0  0
   35.4170   24.4630   31.6320 H   0  0  0  0  0  0  0  0  0  0  0  0
   36.2960   25.3520   30.3990 H   0  0  0  0  0  0  0  0  0  0  0  0
   37.2740   23.5620   31.2660 C   0  0  0  0  0  0  0  0  0  0  0  0
   37.3910   23.3440   30.1720 H   0  0  0  0  0  0  0  0  0  0  0  0
   38.2720   23.7950   31.6790 H   0  0  0  0  0  0  0  0  0  0  0  0
   34.9350   20.7330   32.1410 C   0  0  0  0  0  0  0  0  0  0  0  0
   35.5350   21.7520   31.4020 C   0  0  0  0  0  0  0  0  0  0  0  0
   36.5780   22.4590   31.9490 C   0  0  0  0  0  0  0  0  0  0  0  0
   36.9730   22.1180   33.2070 N   0  0  0  0  0  0  0  0  0  0  0  0
   36.3800   21.1340   33.9020 C   0  0  0  0  0  0  0  0  0  0  0  0
   35.3550   20.4360   33.3620 N   0  0  0  0  0  0  0  0  0  0  0  0
   34.1090   20.2080   31.6540 H   0  0  0  0  0  0  0  0  0  0  0  0
   35.1770   21.9780   30.4130 H   0  0  0  0  0  0  0  0  0  0  0  0
   36.6990   20.8610   34.8990 H   0  0  0  0  0  0  0  0  0  0  0  0
   37.0290   25.8580   32.7130 S   0  0  0  0  0  0  0  0  0  0  0  0
   38.7300   25.3640   33.0570 C   0  0  0  0  0  2  0  0  0  0  0  0
   39.1230   25.4390   34.5100 C   0  0  1  0  0  0  0  0  0  0  0  0
   37.9720   25.1490   35.3720 C   0  0  0  0  0  2  0  0  0  0  0  0
   38.3370   24.1690   36.3590 N   0  0  2  0  0  0  0  0  0  0  0  0
   38.4030   23.5250   37.6270 C   0  0  2  0  0  0  0  0  0  0  0  0
   37.7740   23.3310   38.7100 O   0  0  0  0  0  1  0  0  0  0  0  0
   39.7310   23.0090   37.2750 C   0  0  0  0  0  3  0  0  0  0  0  0
   40.5260   23.7780   37.4150 H   0  0  0  0  0  0  0  0  0  0  0  0
   39.1740   23.1180   35.8710 C   0  0  1  0  0  0  0  0  0  0  0  0
   40.2720   24.0140   34.7420 S   0  0  0  0  0  0  0  0  0  0  0  0
   39.8610   26.7270   34.7920 C   0  0  0  0  0  2  0  0  0  0  0  0
   40.4650   26.9390   33.8660 H   0  0  0  0  0  0  0  0  0  0  0  0
  1  2  1  0  0  0  0
  1 16  1  0  0  0  0
  3  1  1  0  0  0  0
  4  1  1  0  0  0  0
  4  6  1  0  0  0  0
  4  9  1  0  0  0  0
  5  4  1  0  0  0  0
  7 12  1  0  0  0  0
  8  9  1  0  0  0  0
  8  7  2  0  0  0  0
  9 10  2  0  0  0  0
 10 11  1  0  0  0  0
 11 15  1  0  0  0  0
 12 11  2  0  0  0  0
 13  7  1  0  0  0  0
 14  8  1  0  0  0  0
 16 17  1  0  0  0  0
 18 17  1  6  0  0  0
 18 26  1  0  0  0  0
 18 27  1  0  0  0  0
 18 19  1  0  0  0  0
 20 19  1  1  0  0  0
 20 21  1  0  0  0  0
 21 22  1  1  0  0  0
 23 24  1  0  0  0  0
 23 21  1  0  0  0  0
 25 26  1  1  0  0  0
 25 20  1  0  0  0  0
 25 23  1  0  0  0  0
 25 21  1  0  0  0  0
 28 27  1  0  0  0  0
M  END
>  <minimizedAffinity>
-4.45112944

$$$$

 OpenBabel03272509263D

 28 31  0  0  1  0  0  0  0  0999 V2000
   38.9820   26.6050   34.8480 C   0  0  0  0  0  0  0  0  0  0  0  0
   39.7800   25.8020   34.7410 H   0  0  0  0  0  0  0  0  0  0  0  0
   39.4920   27.4370   35.3150 H   0  0  0  0  0  0  0  0  0  0  0  0
   37.9040   25.9320   35.6680 C   0  0  0  0  0  0  0  0  0  0  0  0
   37.5090   26.7310   36.3500 H   0  0  0  0  0  0  0  0  0  0  0  0
   37.0960   25.6410   34.9740 H   0  0  0  0  0  0  0  0  0  0  0  0
   38.6280   23.3620   38.3350 C   0  0  0  0  0  0  0  0  0  0  0  0
   38.0110   24.4270   37.6780 C   0  0  0  0  0  0  0  0  0  0  0  0
   38.4690   24.8140   36.4430 C   0  0  0  0  0  0  0  0  0  0  0  0
   39.5200   24.1240   35.9210 N   0  0  0  0  0  0  0  0  0  0  0  0
   40.1000   23.1020   36.5700 C   0  0  0  0  0  0  0  0  0  0  0  0
   39.6480   22.7190   37.7860 N   0  0  0  0  0  0  0  0  0  0  0  0
   38.2210   23.1010   39.3150 H   0  0  0  0  0  0  0  0  0  0  0  0
   37.1860   24.9360   38.1430 H   0  0  0  0  0  0  0  0  0  0  0  0
   40.9320   22.5520   36.1510 H   0  0  0  0  0  0  0  0  0  0  0  0
   38.3650   26.9160   33.1690 S   0  0  0  0  0  0  0  0  0  0  0  0
   36.9970   25.7730   32.8940 C   0  0  0  0  0  2  0  0  0  0  0  0
   37.3340   24.5910   32.0220 C   0  0  1  0  0  0  0  0  0  0  0  0
   37.6640   23.4210   32.8420 C   0  0  0  0  0  2  0  0  0  0  0  0
   36.9230   22.2770   32.3820 N   0  0  2  0  0  0  0  0  0  0  0  0
   36.6580   20.9250   32.0270 C   0  0  2  0  0  0  0  0  0  0  0  0
   36.9710   19.7220   32.2740 O   0  0  0  0  0  1  0  0  0  0  0  0
   35.6760   21.3950   31.0430 C   0  0  0  0  0  3  0  0  0  0  0  0
   36.1640   21.7430   30.1020 H   0  0  0  0  0  0  0  0  0  0  0  0
   35.5720   22.5560   32.0090 C   0  0  1  0  0  0  0  0  0  0  0  0
   35.7380   24.1680   31.1970 S   0  0  0  0  0  0  0  0  0  0  0  0
   38.3500   24.9800   30.9730 C   0  0  0  0  0  2  0  0  0  0  0  0
   38.1030   26.0420   30.6910 H   0  0  0  0  0  0  0  0  0  0  0  0
  1  3  1  0  0  0  0
  1  4  1  0  0  0  0
  2  1  1  0  0  0  0
  4  5  1  0  0  0  0
  4  9  1  0  0  0  0
  6  4  1  0  0  0  0
  7 13  1  0  0  0  0
  8 14  1  0  0  0  0
  8  7  2  0  0  0  0
  9  8  1  0  0  0  0
 10  9  2  0  0  0  0
 10 11  1  0  0  0  0
 11 12  2  0  0  0  0
 12  7  1  0  0  0  0
 15 11  1  0  0  0  0
 16  1  1  0  0  0  0
 17 16  1  0  0  0  0
 18 27  1  6  0  0  0
 18 19  1  0  0  0  0
 18 17  1  0  0  0  0
 20 19  1  6  0  0  0
 21 22  1  1  0  0  0
 21 20  1  0  0  0  0
 23 21  1  0  0  0  0
 24 23  1  0  0  0  0
 25 23  1  1  0  0  0
 25 21  1  0  0  0  0
 25 20  1  0  0  0  0
 26 25  1  0  0  0  0
 26 18  1  0  0  0  0
 28 27  1  0  0  0  0
M  END
>  <minimizedAffinity>
-4.41488075

$$$$

 OpenBabel03272509263D

 28 31  0  0  1  0  0  0  0  0999 V2000
   37.9670   25.8540   34.3170 C   0  0  0  0  0  0  0  0  0  0  0  0
   38.3460   26.9080   34.1230 H   0  0  0  0  0  0  0  0  0  0  0  0
   37.2080   25.9720   35.0790 H   0  0  0  0  0  0  0  0  0  0  0  0
   39.2110   25.0940   34.7190 C   0  0  0  0  0  0  0  0  0  0  0  0
   39.3530   24.3150   33.9230 H   0  0  0  0  0  0  0  0  0  0  0  0
   40.0600   25.7980   34.6660 H   0  0  0  0  0  0  0  0  0  0  0  0
   37.9830   24.1950   38.1730 C   0  0  0  0  0  0  0  0  0  0  0  0
   38.0650   24.8470   36.9420 C   0  0  0  0  0  0  0  0  0  0  0  0
   39.0260   24.4660   36.0390 C   0  0  0  0  0  0  0  0  0  0  0  0
   39.8620   23.4560   36.4040 N   0  0  0  0  0  0  0  0  0  0  0  0
   39.7680   22.8420   37.5940 C   0  0  0  0  0  0  0  0  0  0  0  0
   38.8190   23.2160   38.4830 N   0  0  0  0  0  0  0  0  0  0  0  0
   37.2000   24.5430   38.8510 H   0  0  0  0  0  0  0  0  0  0  0  0
   37.3770   25.6410   36.7110 H   0  0  0  0  0  0  0  0  0  0  0  0
   40.4300   22.0360   37.8800 H   0  0  0  0  0  0  0  0  0  0  0  0
   37.3700   25.2400   32.7160 S   0  0  0  0  0  0  0  0  0  0  0  0
   37.6790   23.4630   32.6890 C   0  0  0  0  0  2  0  0  0  0  0  0
   36.6940   22.6680   31.8700 C   0  0  1  0  0  0  0  0  0  0  0  0
   37.3820   21.9480   30.7920 C   0  0  0  0  0  2  0  0  0  0  0  0
   36.9710   20.5700   30.7870 N   0  0  2  0  0  0  0  0  0  0  0  0
   36.5800   19.3060   30.2640 C   0  0  2  0  0  0  0  0  0  0  0  0
   36.7010   18.5250   29.2720 O   0  0  0  0  0  1  0  0  0  0  0  0
   35.7890   19.0690   31.4780 C   0  0  0  0  0  3  0  0  0  0  0  0
   34.8070   19.5980   31.4440 H   0  0  0  0  0  0  0  0  0  0  0  0
   36.8290   19.9880   32.0850 C   0  0  1  0  0  0  0  0  0  0  0  0
   36.1010   21.3560   33.0250 S   0  0  0  0  0  0  0  0  0  0  0  0
   35.5280   23.5340   31.4570 C   0  0  0  0  0  2  0  0  0  0  0  0
   35.3530   24.2370   32.3190 H   0  0  0  0  0  0  0  0  0  0  0  0
  1  4  1  0  0  0  0
  1  3  1  0  0  0  0
  2  1  1  0  0  0  0
  4  9  1  0  0  0  0
  5  4  1  0  0  0  0
  6  4  1  0  0  0  0
  7 12  1  0  0  0  0
  7 13  1  0  0  0  0
  8  7  2  0  0  0  0
  9 10  2  0  0  0  0
  9  8  1  0  0  0  0
 10 11  1  0  0  0  0
 11 15  1  0  0  0  0
 11 12  2  0  0  0  0
 14  8  1  0  0  0  0
 16  1  1  0  0  0  0
 17 16  1  0  0  0  0
 18 27  1  6  0  0  0
 18 17  1  0  0  0  0
 18 26  1  0  0  0  0
 19 18  1  0  0  0  0
 20 19  1  1  0  0  0
 20 25  1  0  0  0  0
 21 22  1  6  0  0  0
 21 20  1  0  0  0  0
 21 23  1  0  0  0  0
 21 25  1  0  0  0  0
 24 23  1  0  0  0  0
 25 23  1  1  0  0  0
 25 26  1  0  0  0  0
 27 28  1  0  0  0  0
M  END
>  <minimizedAffinity>
-4.38225031

$$$$

 OpenBabel03272509263D

 28 31  0  0  1  0  0  0  0  0999 V2000
   36.6770   21.9810   32.8340 C   0  0  0  0  0  0  0  0  0  0  0  0
   36.2120   20.9480   32.7420 H   0  0  0  0  0  0  0  0  0  0  0  0
   35.9840   22.5390   33.4490 H   0  0  0  0  0  0  0  0  0  0  0  0
   36.8210   22.4380   31.3990 C   0  0  0  0  0  0  0  0  0  0  0  0
   37.8670   22.1600   31.1040 H   0  0  0  0  0  0  0  0  0  0  0  0
   36.1200   21.8400   30.7900 H   0  0  0  0  0  0  0  0  0  0  0  0
   35.3110   25.8780   31.0290 C   0  0  0  0  0  0  0  0  0  0  0  0
   35.3930   24.4880   31.1240 C   0  0  0  0  0  0  0  0  0  0  0  0
   36.6180   23.8940   31.3010 C   0  0  0  0  0  0  0  0  0  0  0  0
   37.7050   24.7110   31.3740 N   0  0  0  0  0  0  0  0  0  0  0  0
   37.6050   26.0460   31.2790 C   0  0  0  0  0  0  0  0  0  0  0  0
   36.3980   26.6320   31.1070 N   0  0  0  0  0  0  0  0  0  0  0  0
   34.3110   26.2930   30.8860 H   0  0  0  0  0  0  0  0  0  0  0  0
   34.4980   23.8950   31.0560 H   0  0  0  0  0  0  0  0  0  0  0  0
   38.4690   26.6940   31.3430 H   0  0  0  0  0  0  0  0  0  0  0  0
   38.3220   21.7210   33.5570 S   0  0  0  0  0  0  0  0  0  0  0  0
   38.2090   22.1860   35.2960 C   0  0  0  0  0  2  0  0  0  0  0  0
   39.1270   23.3090   35.7060 C   0  0  1  0  0  0  0  0  0  0  0  0
   39.8100   23.8710   34.5360 C   0  0  0  0  0  2  0  0  0  0  0  0
   39.6920   25.3040   34.5430 N   0  0  2  0  0  0  0  0  0  0  0  0
   40.0750   26.6660   34.3920 C   0  0  2  0  0  0  0  0  0  0  0  0
   40.8320   27.4520   33.7470 O   0  0  0  0  0  1  0  0  0  0  0  0
   39.1260   27.0320   35.4510 C   0  0  0  0  0  3  0  0  0  0  0  0
   39.5400   26.8330   36.4670 H   0  0  0  0  0  0  0  0  0  0  0  0
   38.4120   25.7930   34.9530 C   0  0  1  0  0  0  0  0  0  0  0  0
   37.9850   24.6390   36.2830 S   0  0  0  0  0  0  0  0  0  0  0  0
   40.0120   22.8780   36.8520 C   0  0  0  0  0  2  0  0  0  0  0  0
   39.3770   22.1930   37.4830 H   0  0  0  0  0  0  0  0  0  0  0  0
  1  3  1  0  0  0  0
  1 16  1  0  0  0  0
  2  1  1  0  0  0  0
  4  1  1  0  0  0  0
  5  4  1  0  0  0  0
  6  4  1  0  0  0  0
  7 12  2  0  0  0  0
  7  8  1  0  0  0  0
  8  9  2  0  0  0  0
  9 10  1  0  0  0  0
  9  4  1  0  0  0  0
 11 15  1  0  0  0  0
 11 10  2  0  0  0  0
 12 11  1  0  0  0  0
 13  7  1  0  0  0  0
 14  8  1  0  0  0  0
 16 17  1  0  0  0  0
 18 17  1  6  0  0  0
 18 26  1  0  0  0  0
 18 27  1  0  0  0  0
 19 18  1  0  0  0  0
 20 19  1  1  0  0  0
 20 25  1  0  0  0  0
 21 22  1  6  0  0  0
 21 20  1  0  0  0  0
 21 25  1  0  0  0  0
 21 23  1  0  0  0  0
 23 24  1  0  0  0  0
 25 23  1  6  0  0  0
 25 26  1  0  0  0  0
 27 28  1  0  0  0  0
M  END
>  <minimizedAffinity>
-4.2911191

$$$$

 OpenBabel03272509263D

 28 31  0  0  1  0  0  0  0  0999 V2000
   38.7640   26.8880   35.4200 C   0  0  0  0  0  0  0  0  0  0  0  0
   39.7030   26.5880   35.9840 H   0  0  0  0  0  0  0  0  0  0  0  0
   38.5000   27.8570   35.8220 H   0  0  0  0  0  0  0  0  0  0  0  0
   37.7980   25.7580   35.7030 C   0  0  0  0  0  0  0  0  0  0  0  0
   36.9660   26.2220   36.2950 H   0  0  0  0  0  0  0  0  0  0  0  0
   37.3870   25.4250   34.7340 H   0  0  0  0  0  0  0  0  0  0  0  0
   40.0470   22.9350   36.8080 C   0  0  0  0  0  0  0  0  0  0  0  0
   39.4950   23.9270   35.9970 C   0  0  0  0  0  0  0  0  0  0  0  0
   38.4630   24.6960   36.4770 C   0  0  0  0  0  0  0  0  0  0  0  0
   38.0280   24.4390   37.7410 N   0  0  0  0  0  0  0  0  0  0  0  0
   38.5710   23.4790   38.5050 C   0  0  0  0  0  0  0  0  0  0  0  0
   39.5900   22.7230   38.0330 N   0  0  0  0  0  0  0  0  0  0  0  0
   40.8630   22.3550   36.3710 H   0  0  0  0  0  0  0  0  0  0  0  0
   39.8800   24.0810   35.0040 H   0  0  0  0  0  0  0  0  0  0  0  0
   38.2270   23.2800   39.5110 H   0  0  0  0  0  0  0  0  0  0  0  0
   39.2160   26.8750   33.6620 S   0  0  0  0  0  0  0  0  0  0  0  0
   38.1610   25.6520   32.8580 C   0  0  0  0  0  2  0  0  0  0  0  0
   37.1730   26.2250   31.8760 C   0  0  1  0  0  0  0  0  0  0  0  0
   36.4600   27.3630   32.4660 C   0  0  0  0  0  2  0  0  0  0  0  0
   36.4870   28.4790   31.5570 N   0  0  2  0  0  0  0  0  0  0  0  0
   36.0190   29.6150   30.8400 C   0  0  2  0  0  0  0  0  0  0  0  0
   35.2160   30.5940   30.8840 O   0  0  0  0  0  1  0  0  0  0  0  0
   36.9390   29.2790   29.7460 C   0  0  0  0  0  3  0  0  0  0  0  0
   36.5340   28.4680   29.0960 H   0  0  0  0  0  0  0  0  0  0  0  0
   37.7310   28.6620   30.8790 C   0  0  1  0  0  0  0  0  0  0  0  0
   38.2250   26.9500   30.5450 S   0  0  0  0  0  0  0  0  0  0  0  0
   36.3120   25.1290   31.2910 C   0  0  0  0  0  2  0  0  0  0  0  0
   36.9860   24.2310   31.2010 H   0  0  0  0  0  0  0  0  0  0  0  0
  1  4  1  0  0  0  0
  1  3  1  0  0  0  0
  1  2  1  0  0  0  0
  4  5  1  0  0  0  0
  4  9  1  0  0  0  0
  6  4  1  0  0  0  0
  7 12  1  0  0  0  0
  8  9  1  0  0  0  0
  8  7  2  0  0  0  0
  9 10  2  0  0  0  0
 10 11  1  0  0  0  0
 11 15  1  0  0  0  0
 12 11  2  0  0  0  0
 13  7  1  0  0  0  0
 14  8  1  0  0  0  0
 16  1  1  0  0  0  0
 17 16  1  0  0  0  0
 18 27  1  6  0  0  0
 18 19  1  0  0  0  0
 18 17  1  0  0  0  0
 20 19  1  6  0  0  0
 21 25  1  0  0  0  0
 21 22  1  1  0  0  0
 21 20  1  0  0  0  0
 23 21  1  0  0  0  0
 24 23  1  0  0  0  0
 25 23  1  1  0  0  0
 25 20  1  0  0  0  0
 26 25  1  0  0  0  0
 26 18  1  0  0  0  0
 28 27  1  0  0  0  0
M  END
>  <minimizedAffinity>
-4.2878952

$$$$

 OpenBabel03272509263D

 28 31  0  0  1  0  0  0  0  0999 V2000
   36.8420   25.0230   31.8300 C   0  0  0  0  0  0  0  0  0  0  0  0
   36.8000   24.6200   30.7680 H   0  0  0  0  0  0  0  0  0  0  0  0
   35.8120   25.0330   32.1600 H   0  0  0  0  0  0  0  0  0  0  0  0
   37.5120   26.3700   31.6770 C   0  0  0  0  0  0  0  0  0  0  0  0
   38.5310   26.2480   32.1300 H   0  0  0  0  0  0  0  0  0  0  0  0
   37.6360   26.5560   30.5950 H   0  0  0  0  0  0  0  0  0  0  0  0
   36.0570   28.6480   34.3120 C   0  0  0  0  0  0  0  0  0  0  0  0
   36.8400   27.6470   33.7350 C   0  0  0  0  0  0  0  0  0  0  0  0
   36.7450   27.4090   32.3860 C   0  0  0  0  0  0  0  0  0  0  0  0
   35.8760   28.1780   31.6750 N   0  0  0  0  0  0  0  0  0  0  0  0
   35.1300   29.1350   32.2490 C   0  0  0  0  0  0  0  0  0  0  0  0
   35.2250   29.3710   33.5780 N   0  0  0  0  0  0  0  0  0  0  0  0
   36.1740   28.7890   35.3890 H   0  0  0  0  0  0  0  0  0  0  0  0
   37.5070   27.0700   34.3500 H   0  0  0  0  0  0  0  0  0  0  0  0
   34.4430   29.7480   31.6810 H   0  0  0  0  0  0  0  0  0  0  0  0
   37.9380   23.8990   32.7430 S   0  0  0  0  0  0  0  0  0  0  0  0
   39.4120   24.8440   33.1780 C   0  0  0  0  0  2  0  0  0  0  0  0
   39.6100   25.0530   34.6570 C   0  0  1  0  0  0  0  0  0  0  0  0
   38.3830   24.7290   35.3920 C   0  0  0  0  0  2  0  0  0  0  0  0
   38.6890   23.8540   36.4920 N   0  0  2  0  0  0  0  0  0  0  0  0
   38.6400   23.3080   37.8050 C   0  0  2  0  0  0  0  0  0  0  0  0
   37.8930   23.1380   38.8160 O   0  0  0  0  0  1  0  0  0  0  0  0
   40.0360   22.8810   37.6610 C   0  0  0  0  0  3  0  0  0  0  0  0
   40.7480   23.7220   37.8350 H   0  0  0  0  0  0  0  0  0  0  0  0
   39.6570   22.8440   36.1950 C   0  0  1  0  0  0  0  0  0  0  0  0
   40.8210   23.7480   35.1410 S   0  0  0  0  0  0  0  0  0  0  0  0
   40.2080   26.4140   34.9240 C   0  0  0  0  0  2  0  0  0  0  0  0
   40.9090   26.6100   34.0640 H   0  0  0  0  0  0  0  0  0  0  0  0
  1  3  1  0  0  0  0
  1 16  1  0  0  0  0
  2  1  1  0  0  0  0
  4  1  1  0  0  0  0
  4  5  1  0  0  0  0
  4  9  1  0  0  0  0
  6  4  1  0  0  0  0
  7 13  1  0  0  0  0
  8  7  1  0  0  0  0
  8 14  1  0  0  0  0
  9  8  2  0  0  0  0
 10 11  2  0  0  0  0
 10  9  1  0  0  0  0
 11 12  1  0  0  0  0
 12  7  2  0  0  0  0
 15 11  1  0  0  0  0
 16 17  1  0  0  0  0
 18 17  1  6  0  0  0
 18 27  1  0  0  0  0
 18 26  1  0  0  0  0
 18 19  1  0  0  0  0
 20 19  1  1  0  0  0
 20 21  1  0  0  0  0
 21 22  1  1  0  0  0
 23 21  1  0  0  0  0
 23 24  1  0  0  0  0
 25 26  1  1  0  0  0
 25 20  1  0  0  0  0
 25 23  1  0  0  0  0
 25 21  1  0  0  0  0
 28 27  1  0  0  0  0
M  END
>  <minimizedAffinity>
-4.19210291

$$$$

 OpenBabel03272509263D

 28 31  0  0  1  0  0  0  0  0999 V2000
   38.8970   22.2310   35.1470 C   0  0  0  0  0  0  0  0  0  0  0  0
   38.9440   22.4470   34.0330 H   0  0  0  0  0  0  0  0  0  0  0  0
   39.6230   21.4440   35.3050 H   0  0  0  0  0  0  0  0  0  0  0  0
   37.4480   21.8650   35.3810 C   0  0  0  0  0  0  0  0  0  0  0  0
   37.4750   20.9510   36.0320 H   0  0  0  0  0  0  0  0  0  0  0  0
   36.9880   22.6860   35.9590 H   0  0  0  0  0  0  0  0  0  0  0  0
   35.1880   20.4720   32.6980 C   0  0  0  0  0  0  0  0  0  0  0  0
   35.7450   20.6820   33.9600 C   0  0  0  0  0  0  0  0  0  0  0  0
   36.7780   21.5760   34.1010 C   0  0  0  0  0  0  0  0  0  0  0  0
   37.2080   22.2170   32.9800 N   0  0  0  0  0  0  0  0  0  0  0  0
   36.6600   21.9990   31.7750 C   0  0  0  0  0  0  0  0  0  0  0  0
   35.6410   21.1200   31.6350 N   0  0  0  0  0  0  0  0  0  0  0  0
   34.3710   19.7480   32.6470 H   0  0  0  0  0  0  0  0  0  0  0  0
   35.3630   20.1430   34.8090 H   0  0  0  0  0  0  0  0  0  0  0  0
   37.0000   22.5130   30.8860 H   0  0  0  0  0  0  0  0  0  0  0  0
   39.2660   23.8050   35.9730 S   0  0  0  0  0  0  0  0  0  0  0  0
   37.9940   24.9760   35.4610 C   0  0  0  0  0  2  0  0  0  0  0  0
   38.4930   26.1090   34.6010 C   0  0  1  0  0  0  0  0  0  0  0  0
   38.6750   25.6630   33.2150 C   0  0  0  0  0  2  0  0  0  0  0  0
   38.0390   26.5900   32.3170 N   0  0  2  0  0  0  0  0  0  0  0  0
   37.8530   27.4010   31.1630 C   0  0  2  0  0  0  0  0  0  0  0  0
   38.1230   27.5030   29.9290 O   0  0  0  0  0  1  0  0  0  0  0  0
   37.0660   28.3390   31.9720 C   0  0  0  0  0  3  0  0  0  0  0  0
   37.7160   29.0160   32.5740 H   0  0  0  0  0  0  0  0  0  0  0  0
   36.7770   27.0850   32.7710 C   0  0  1  0  0  0  0  0  0  0  0  0
   37.0790   27.2930   34.5460 S   0  0  0  0  0  0  0  0  0  0  0  0
   39.6820   26.7800   35.2470 C   0  0  0  0  0  2  0  0  0  0  0  0
   39.4840   26.7450   36.3560 H   0  0  0  0  0  0  0  0  0  0  0  0
  1  3  1  0  0  0  0
  1  4  1  0  0  0  0
  1 16  1  0  0  0  0
  2  1  1  0  0  0  0
  4  6  1  0  0  0  0
  4  5  1  0  0  0  0
  7  8  1  0  0  0  0
  8  9  2  0  0  0  0
  8 14  1  0  0  0  0
  9  4  1  0  0  0  0
 10  9  1  0  0  0  0
 11 10  2  0  0  0  0
 12 11  1  0  0  0  0
 12  7  2  0  0  0  0
 13  7  1  0  0  0  0
 15 11  1  0  0  0  0
 17 16  1  0  0  0  0
 18 27  1  1  0  0  0
 18 17  1  0  0  0  0
 19 18  1  0  0  0  0
 20 25  1  0  0  0  0
 20 19  1  1  0  0  0
 21 22  1  6  0  0  0
 21 23  1  0  0  0  0
 21 20  1  0  0  0  0
 21 25  1  0  0  0  0
 23 24  1  0  0  0  0
 25 23  1  6  0  0  0
 25 26  1  0  0  0  0
 26 18  1  0  0  0  0
 27 28  1  0  0  0  0
M  END
>  <minimizedAffinity>
-4.08897495

$$$$

 OpenBabel03272509263D

 28 31  0  0  1  0  0  0  0  0999 V2000
   38.6210   24.6280   33.9190 C   0  0  0  0  0  0  0  0  0  0  0  0
   39.5460   24.3220   33.3350 H   0  0  0  0  0  0  0  0  0  0  0  0
   38.9650   25.4050   34.5900 H   0  0  0  0  0  0  0  0  0  0  0  0
   38.1600   23.3400   34.5640 C   0  0  0  0  0  0  0  0  0  0  0  0
   37.0490   23.3140   34.4130 H   0  0  0  0  0  0  0  0  0  0  0  0
   38.6050   22.5070   33.9910 H   0  0  0  0  0  0  0  0  0  0  0  0
   39.8490   22.8100   37.8970 C   0  0  0  0  0  0  0  0  0  0  0  0
   39.6340   22.7730   36.5190 C   0  0  0  0  0  0  0  0  0  0  0  0
   38.4940   23.3340   35.9980 C   0  0  0  0  0  0  0  0  0  0  0  0
   37.6210   23.9030   36.8740 N   0  0  0  0  0  0  0  0  0  0  0  0
   37.8460   23.9270   38.1970 C   0  0  0  0  0  0  0  0  0  0  0  0
   38.9700   23.3760   38.7110 N   0  0  0  0  0  0  0  0  0  0  0  0
   40.7730   22.3460   38.2530 H   0  0  0  0  0  0  0  0  0  0  0  0
   40.3600   22.3060   35.8770 H   0  0  0  0  0  0  0  0  0  0  0  0
   37.1530   24.3840   38.8910 H   0  0  0  0  0  0  0  0  0  0  0  0
   37.4050   25.1570   32.6790 S   0  0  0  0  0  0  0  0  0  0  0  0
   38.3270   25.5700   31.1850 C   0  0  0  0  0  2  0  0  0  0  0  0
   38.6700   27.0310   31.0440 C   0  0  1  0  0  0  0  0  0  0  0  0
   38.5640   27.4530   29.6430 C   0  0  0  0  0  2  0  0  0  0  0  0
   37.7840   28.6580   29.5540 N   0  0  2  0  0  0  0  0  0  0  0  0
   37.3910   29.9530   29.1140 C   0  0  2  0  0  0  0  0  0  0  0  0
   37.4140   30.7510   28.1290 O   0  0  0  0  0  1  0  0  0  0  0  0
   36.7990   30.2010   30.4340 C   0  0  0  0  0  3  0  0  0  0  0  0
   37.5690   30.4850   31.1890 H   0  0  0  0  0  0  0  0  0  0  0  0
   36.6470   28.6940   30.4200 C   0  0  1  0  0  0  0  0  0  0  0  0
   37.2980   27.9050   31.9160 S   0  0  0  0  0  0  0  0  0  0  0  0
   39.9770   27.3370   31.7370 C   0  0  0  0  0  2  0  0  0  0  0  0
   40.0010   26.6710   32.6450 H   0  0  0  0  0  0  0  0  0  0  0  0
  1  4  1  0  0  0  0
  1  3  1  0  0  0  0
  2  1  1  0  0  0  0
  4  9  1  0  0  0  0
  5  4  1  0  0  0  0
  6  4  1  0  0  0  0
  7 13  1  0  0  0  0
  7 12  1  0  0  0  0
  8  7  2  0  0  0  0
  9  8  1  0  0  0  0
  9 10  2  0  0  0  0
 10 11  1  0  0  0  0
 11 12  2  0  0  0  0
 11 15  1  0  0  0  0
 14  8  1  0  0  0  0
 16  1  1  0  0  0  0
 17 16  1  0  0  0  0
 18 17  1  1  0  0  0
 18 27  1  0  0  0  0
 18 26  1  0  0  0  0
 19 18  1  0  0  0  0
 20 19  1  1  0  0  0
 20 25  1  0  0  0  0
 21 22  1  6  0  0  0
 21 20  1  0  0  0  0
 21 25  1  0  0  0  0
 21 23  1  0  0  0  0
 23 24  1  0  0  0  0
 25 23  1  6  0  0  0
 25 26  1  0  0  0  0
 27 28  1  0  0  0  0
M  END
>  <minimizedAffinity>
-4.08713722

$$$$
