
 OpenBabel03272509263D

 28 31  0  0  1  0  0  0  0  0999 V2000
   38.4270   32.4430   48.0220 C   0  0  0  0  0  0  0  0  0  0  0  0
   39.1240   32.5120   48.9170 H   0  0  0  0  0  0  0  0  0  0  0  0
   37.5820   33.0650   48.2840 H   0  0  0  0  0  0  0  0  0  0  0  0
   38.1550   30.9610   47.8920 C   0  0  0  0  0  0  0  0  0  0  0  0
   37.4630   30.8630   47.0150 H   0  0  0  0  0  0  0  0  0  0  0  0
   39.1110   30.4710   47.6330 H   0  0  0  0  0  0  0  0  0  0  0  0
   37.3020   30.1770   51.4840 C   0  0  0  0  0  0  0  0  0  0  0  0
   37.9640   30.7290   50.3880 C   0  0  0  0  0  0  0  0  0  0  0  0
   37.5240   30.4450   49.1190 C   0  0  0  0  0  0  0  0  0  0  0  0
   36.4450   29.6230   49.0010 N   0  0  0  0  0  0  0  0  0  0  0  0
   35.8220   29.1000   50.0690 C   0  0  0  0  0  0  0  0  0  0  0  0
   36.2550   29.3820   51.3190 N   0  0  0  0  0  0  0  0  0  0  0  0
   37.6990   30.4370   52.4680 H   0  0  0  0  0  0  0  0  0  0  0  0
   38.8140   31.3700   50.5440 H   0  0  0  0  0  0  0  0  0  0  0  0
   34.9620   28.4500   49.9730 H   0  0  0  0  0  0  0  0  0  0  0  0
   39.3950   33.0110   46.5950 S   0  0  0  0  0  0  0  0  0  0  0  0
   38.8080   32.0860   45.1620 C   0  0  0  0  0  2  0  0  0  0  0  0
   39.8060   31.1110   44.5920 C   0  0  1  0  0  0  0  0  0  0  0  0
   39.2570   29.7520   44.5910 C   0  0  0  0  0  2  0  0  0  0  0  0
   39.4400   29.1520   43.2960 N   0  0  2  0  0  0  0  0  0  0  0  0
   39.7310   28.1500   42.3290 C   0  0  2  0  0  0  0  0  0  0  0  0
   39.7000   26.9030   42.1060 O   0  0  0  0  0  1  0  0  0  0  0  0
   40.2040   29.1960   41.4140 C   0  0  0  0  0  3  0  0  0  0  0  0
   41.2400   29.5260   41.6600 H   0  0  0  0  0  0  0  0  0  0  0  0
   39.2150   30.0360   42.1960 C   0  0  1  0  0  0  0  0  0  0  0  0
   39.9330   31.5820   42.8120 S   0  0  0  0  0  0  0  0  0  0  0  0
   41.1540   31.2870   45.2530 C   0  0  0  0  0  2  0  0  0  0  0  0
   41.2510   32.3910   45.4520 H   0  0  0  0  0  0  0  0  0  0  0  0
  1  3  1  0  0  0  0
  1  2  1  0  0  0  0
  4  1  1  0  0  0  0
  4  9  1  0  0  0  0
  5  4  1  0  0  0  0
  6  4  1  0  0  0  0
  7 13  1  0  0  0  0
  8 14  1  0  0  0  0
  8  7  2  0  0  0  0
  9  8  1  0  0  0  0
 10  9  2  0  0  0  0
 10 11  1  0  0  0  0
 11 12  2  0  0  0  0
 12  7  1  0  0  0  0
 15 11  1  0  0  0  0
 16  1  1  0  0  0  0
 17 16  1  0  0  0  0
 18 17  1  1  0  0  0
 18 27  1  0  0  0  0
 19 18  1  0  0  0  0
 20 19  1  1  0  0  0
 21 22  1  6  0  0  0
 21 20  1  0  0  0  0
 23 24  1  0  0  0  0
 23 21  1  0  0  0  0
 25 23  1  6  0  0  0
 25 21  1  0  0  0  0
 25 26  1  0  0  0  0
 25 20  1  0  0  0  0
 26 18  1  0  0  0  0
 27 28  1  0  0  0  0
M  END
>  <minimizedAffinity>
-4.8844347

>  <minimizedRMSD>
4.3602562

$$$$
