
 OpenBabel03262522273D

 49 53  0  0  1  0  0  0  0  0999 V2000
   34.7830   30.5120   49.7960 C   0  0  0  0  0  0  0  0  0  0  0  0
   34.1050   30.1140   50.5990 H   0  0  0  0  0  0  0  0  0  0  0  0
   34.6340   31.6020   49.7120 H   0  0  0  0  0  0  0  0  0  0  0  0
   34.4480   27.7810   49.9130 F   0  0  0  0  0  0  0  0  0  0  0  0
   34.3230   28.4220   48.7070 C   0  0  0  0  0  0  0  0  0  0  0  0
   34.4710   29.7990   48.5290 C   0  0  0  0  0  0  0  0  0  0  0  0
   34.3340   30.3740   47.3010 C   0  0  0  0  0  0  0  0  0  0  0  0
   34.0380   29.5920   46.1790 C   0  0  0  0  0  0  0  0  0  0  0  0
   33.8870   28.2330   46.3250 C   0  0  0  0  0  0  0  0  0  0  0  0
   34.0310   27.6650   47.5880 C   0  0  0  0  0  0  0  0  0  0  0  0
   34.4610   31.4340   47.2330 H   0  0  0  0  0  0  0  0  0  0  0  0
   33.9300   30.0530   45.2010 H   0  0  0  0  0  0  0  0  0  0  0  0
   33.6580   27.6420   45.4470 H   0  0  0  0  0  0  0  0  0  0  0  0
   33.8660   26.2810   47.6780 O   0  0  0  0  0  0  0  0  0  0  0  0
   33.6900   25.4660   46.5380 C   0  0  0  0  0  2  0  0  0  0  0  0
   32.4010   24.6740   46.7970 C   0  0  2  0  0  0  0  0  0  0  0  0
   32.6710   23.6960   47.8920 C   0  0  0  0  0  2  0  0  0  0  0  0
   32.1800   22.4090   47.5230 N   0  0  0  0  0  0  0  0  0  0  0  0
   31.5160   21.1490   47.4870 C   0  0  0  0  0  0  0  0  0  0  0  0
   30.9350   20.4570   48.3680 O   0  0  0  0  0  0  0  0  0  0  0  0
   31.7410   20.9180   46.0440 C   0  0  0  0  0  3  0  0  0  0  0  0
   32.2450   19.9590   45.7810 H   0  0  0  0  0  0  0  0  0  0  0  0
   32.7220   22.0440   46.2090 C   0  0  1  0  0  3  0  0  0  0  0  0
   32.2230   23.5820   45.3320 S   0  0  0  0  0  0  0  0  0  0  0  0
   31.2320   25.5700   46.9990 C   0  0  0  0  0  2  0  0  0  0  0  0
   31.5400   26.5870   46.6360 H   0  0  0  0  0  0  0  0  0  0  0  0
   36.4890   30.0850   50.2400 S   0  0  0  0  0  0  0  0  0  0  0  0
   38.7240   32.8560   48.3450 C   0  0  0  0  0  0  0  0  0  0  0  0
   39.0380   32.1900   47.1480 C   0  0  0  0  0  0  0  0  0  0  0  0
   38.5430   30.9300   46.9980 C   0  0  0  0  0  0  0  0  0  0  0  0
   37.7830   30.3900   47.9970 N   0  0  0  0  0  0  0  0  0  0  0  0
   37.5130   31.0380   49.0930 C   0  0  0  0  0  0  0  0  0  0  0  0
   37.9770   32.3170   49.3200 N   0  0  0  0  0  0  0  0  0  0  0  0
   39.0790   33.8600   48.5420 H   0  0  0  0  0  0  0  0  0  0  0  0
   38.7700   30.3960   46.0840 H   0  0  0  0  0  0  0  0  0  0  0  0
   39.8020   32.8340   46.2350 O   0  0  0  0  0  0  0  0  0  0  0  0
   39.9530   32.2970   44.9690 C   0  0  0  0  0  0  0  0  0  0  0  0
   40.6520   31.1680   44.6100 C   0  0  0  0  0  0  0  0  0  0  0  0
   40.6990   30.7820   43.3270 C   0  0  0  0  0  0  0  0  0  0  0  0
   40.0450   31.5250   42.3910 C   0  0  0  0  0  0  0  0  0  0  0  0
   39.3340   32.6740   42.7650 C   0  0  0  0  0  0  0  0  0  0  0  0
   39.2970   33.0520   44.0760 N   0  0  0  0  0  0  0  0  0  0  0  0
   41.1290   30.6650   45.4550 H   0  0  0  0  0  0  0  0  0  0  0  0
   41.2440   29.9060   43.0630 H   0  0  0  0  0  0  0  0  0  0  0  0
   40.0390   31.2720   41.3350 H   0  0  0  0  0  0  0  0  0  0  0  0
   38.6010   33.5060   41.7140 C   0  0  0  0  0  0  0  0  0  0  0  0
   38.2740   32.8760   40.8870 H   0  0  0  0  0  0  0  0  0  0  0  0
   37.8210   34.0340   42.2690 H   0  0  0  0  0  0  0  0  0  0  0  0
   39.3440   34.2750   41.4040 H   0  0  0  0  0  0  0  0  0  0  0  0
  1 27  1  0  0  0  0
  1  2  1  0  0  0  0
  3  1  1  0  0  0  0
  5  4  1  0  0  0  0
  6  5  1  0  0  0  0
  6  1  1  0  0  0  0
  7  6  2  0  0  0  0
  8  9  2  0  0  0  0
  8  7  1  0  0  0  0
  9 10  1  0  0  0  0
 10 14  1  0  0  0  0
 10  5  2  0  0  0  0
 11  7  1  0  0  0  0
 12  8  1  0  0  0  0
 13  9  1  0  0  0  0
 15 14  1  0  0  0  0
 16 15  1  6  0  0  0
 16 25  1  0  0  0  0
 16 17  1  0  0  0  0
 18 17  1  0  0  0  0
 19 18  1  0  0  0  0
 19 20  2  0  0  0  0
 21 23  1  0  0  0  0
 21 19  1  0  0  0  0
 22 21  1  0  0  0  0
 23 24  1  6  0  0  0
 23 18  1  0  0  0  0
 24 16  1  0  0  0  0
 26 25  1  0  0  0  0
 28 34  1  0  0  0  0
 28 33  1  0  0  0  0
 29 28  2  0  0  0  0
 30 29  1  0  0  0  0
 30 31  2  0  0  0  0
 31 32  1  0  0  0  0
 32 33  2  0  0  0  0
 32 27  1  0  0  0  0
 35 30  1  0  0  0  0
 36 29  1  0  0  0  0
 37 36  1  0  0  0  0
 38 37  1  0  0  0  0
 38 43  1  0  0  0  0
 39 38  2  0  0  0  0
 40 41  2  0  0  0  0
 40 39  1  0  0  0  0
 41 42  1  0  0  0  0
 42 37  2  0  0  0  0
 44 39  1  0  0  0  0
 45 40  1  0  0  0  0
 46 48  1  0  0  0  0
 46 41  1  0  0  0  0
 47 46  1  0  0  0  0
 49 46  1  0  0  0  0
M  END
>  <minimizedAffinity>
-6.2142458

>  <minimizedRMSD>
0.231281579

$$$$
