
 OpenBabel03262522273D

 49 53  0  0  1  0  0  0  0  0999 V2000
   34.7820   30.5200   49.7900 C   0  0  0  0  0  0  0  0  0  0  0  0
   34.1020   30.1250   50.5930 H   0  0  0  0  0  0  0  0  0  0  0  0
   34.6340   31.6100   49.7020 H   0  0  0  0  0  0  0  0  0  0  0  0
   34.4430   27.7900   49.9160 F   0  0  0  0  0  0  0  0  0  0  0  0
   34.3210   28.4260   48.7070 C   0  0  0  0  0  0  0  0  0  0  0  0
   34.4720   29.8030   48.5240 C   0  0  0  0  0  0  0  0  0  0  0  0
   34.3380   30.3740   47.2940 C   0  0  0  0  0  0  0  0  0  0  0  0
   34.0440   29.5880   46.1740 C   0  0  0  0  0  0  0  0  0  0  0  0
   33.8910   28.2300   46.3250 C   0  0  0  0  0  0  0  0  0  0  0  0
   34.0310   27.6660   47.5900 C   0  0  0  0  0  0  0  0  0  0  0  0
   34.4670   31.4330   47.2230 H   0  0  0  0  0  0  0  0  0  0  0  0
   33.9390   30.0450   45.1940 H   0  0  0  0  0  0  0  0  0  0  0  0
   33.6630   27.6360   45.4490 H   0  0  0  0  0  0  0  0  0  0  0  0
   33.8640   26.2830   47.6850 O   0  0  0  0  0  0  0  0  0  0  0  0
   33.6950   25.4630   46.5470 C   0  0  0  0  0  2  0  0  0  0  0  0
   32.4040   24.6730   46.8000 C   0  0  2  0  0  0  0  0  0  0  0  0
   32.6690   23.6920   47.8950 C   0  0  0  0  0  2  0  0  0  0  0  0
   32.1760   22.4070   47.5210 N   0  0  0  0  0  0  0  0  0  0  0  0
   31.5100   21.1480   47.4800 C   0  0  0  0  0  0  0  0  0  0  0  0
   30.9260   20.4560   48.3580 O   0  0  0  0  0  0  0  0  0  0  0  0
   31.7370   20.9200   46.0370 C   0  0  0  0  0  3  0  0  0  0  0  0
   32.2410   19.9610   45.7730 H   0  0  0  0  0  0  0  0  0  0  0  0
   32.7210   22.0440   46.2070 C   0  0  1  0  0  3  0  0  0  0  0  0
   32.2260   23.5840   45.3340 S   0  0  0  0  0  0  0  0  0  0  0  0
   31.2340   25.5700   47.0030 C   0  0  0  0  0  2  0  0  0  0  0  0
   31.5450   26.5880   46.6420 H   0  0  0  0  0  0  0  0  0  0  0  0
   36.4860   30.0940   50.2380 S   0  0  0  0  0  0  0  0  0  0  0  0
   38.7280   32.8590   48.3430 C   0  0  0  0  0  0  0  0  0  0  0  0
   39.0430   32.1910   47.1460 C   0  0  0  0  0  0  0  0  0  0  0  0
   38.5450   30.9310   46.9980 C   0  0  0  0  0  0  0  0  0  0  0  0
   37.7840   30.3940   47.9960 N   0  0  0  0  0  0  0  0  0  0  0  0
   37.5140   31.0440   49.0910 C   0  0  0  0  0  0  0  0  0  0  0  0
   37.9800   32.3220   49.3170 N   0  0  0  0  0  0  0  0  0  0  0  0
   39.0860   33.8620   48.5400 H   0  0  0  0  0  0  0  0  0  0  0  0
   38.7730   30.3960   46.0850 H   0  0  0  0  0  0  0  0  0  0  0  0
   39.8080   32.8330   46.2340 O   0  0  0  0  0  0  0  0  0  0  0  0
   39.9570   32.2960   44.9670 C   0  0  0  0  0  0  0  0  0  0  0  0
   40.6550   31.1670   44.6070 C   0  0  0  0  0  0  0  0  0  0  0  0
   40.6990   30.7810   43.3240 C   0  0  0  0  0  0  0  0  0  0  0  0
   40.0440   31.5240   42.3900 C   0  0  0  0  0  0  0  0  0  0  0  0
   39.3350   32.6740   42.7650 C   0  0  0  0  0  0  0  0  0  0  0  0
   39.3000   33.0520   44.0760 N   0  0  0  0  0  0  0  0  0  0  0  0
   41.1340   30.6630   45.4510 H   0  0  0  0  0  0  0  0  0  0  0  0
   41.2430   29.9050   43.0590 H   0  0  0  0  0  0  0  0  0  0  0  0
   40.0370   31.2720   41.3330 H   0  0  0  0  0  0  0  0  0  0  0  0
   38.6010   33.5070   41.7150 C   0  0  0  0  0  0  0  0  0  0  0  0
   38.2710   32.8770   40.8890 H   0  0  0  0  0  0  0  0  0  0  0  0
   37.8210   34.0350   42.2710 H   0  0  0  0  0  0  0  0  0  0  0  0
   39.3440   34.2760   41.4040 H   0  0  0  0  0  0  0  0  0  0  0  0
  1 27  1  0  0  0  0
  1  2  1  0  0  0  0
  3  1  1  0  0  0  0
  5  4  1  0  0  0  0
  6  5  1  0  0  0  0
  6  1  1  0  0  0  0
  7  6  2  0  0  0  0
  8  9  2  0  0  0  0
  8  7  1  0  0  0  0
  9 10  1  0  0  0  0
 10 14  1  0  0  0  0
 10  5  2  0  0  0  0
 11  7  1  0  0  0  0
 12  8  1  0  0  0  0
 13  9  1  0  0  0  0
 15 14  1  0  0  0  0
 16 15  1  6  0  0  0
 16 25  1  0  0  0  0
 16 17  1  0  0  0  0
 18 17  1  0  0  0  0
 19 18  1  0  0  0  0
 19 20  2  0  0  0  0
 21 23  1  0  0  0  0
 21 19  1  0  0  0  0
 22 21  1  0  0  0  0
 23 24  1  6  0  0  0
 23 18  1  0  0  0  0
 24 16  1  0  0  0  0
 26 25  1  0  0  0  0
 28 34  1  0  0  0  0
 28 33  1  0  0  0  0
 29 28  2  0  0  0  0
 30 29  1  0  0  0  0
 30 31  2  0  0  0  0
 31 32  1  0  0  0  0
 32 33  2  0  0  0  0
 32 27  1  0  0  0  0
 35 30  1  0  0  0  0
 36 29  1  0  0  0  0
 37 36  1  0  0  0  0
 38 37  1  0  0  0  0
 38 43  1  0  0  0  0
 39 38  2  0  0  0  0
 40 41  2  0  0  0  0
 40 39  1  0  0  0  0
 41 42  1  0  0  0  0
 42 37  2  0  0  0  0
 44 39  1  0  0  0  0
 45 40  1  0  0  0  0
 46 48  1  0  0  0  0
 46 41  1  0  0  0  0
 47 46  1  0  0  0  0
 49 46  1  0  0  0  0
M  END
>  <minimizedAffinity>
-6.21442986

>  <minimizedRMSD>
1.05374801

$$$$
