
 OpenBabel03262522273D

 49 53  0  0  1  0  0  0  0  0999 V2000
   34.9010   30.5510   49.7310 C   0  0  0  0  0  0  0  0  0  0  0  0
   34.2350   30.1880   50.5610 H   0  0  0  0  0  0  0  0  0  0  0  0
   34.7710   31.6410   49.6210 H   0  0  0  0  0  0  0  0  0  0  0  0
   34.5430   27.8270   49.9250 F   0  0  0  0  0  0  0  0  0  0  0  0
   34.3870   28.4400   48.7080 C   0  0  0  0  0  0  0  0  0  0  0  0
   34.5440   29.8110   48.4910 C   0  0  0  0  0  0  0  0  0  0  0  0
   34.3750   30.3580   47.2550 C   0  0  0  0  0  0  0  0  0  0  0  0
   34.0380   29.5530   46.1610 C   0  0  0  0  0  0  0  0  0  0  0  0
   33.8780   28.1990   46.3450 C   0  0  0  0  0  0  0  0  0  0  0  0
   34.0550   27.6600   47.6160 C   0  0  0  0  0  0  0  0  0  0  0  0
   34.5110   31.4150   47.1570 H   0  0  0  0  0  0  0  0  0  0  0  0
   33.9050   29.9910   45.1760 H   0  0  0  0  0  0  0  0  0  0  0  0
   33.6170   27.5900   45.4890 H   0  0  0  0  0  0  0  0  0  0  0  0
   33.8790   26.2810   47.7450 O   0  0  0  0  0  0  0  0  0  0  0  0
   33.0420   25.5420   46.8790 C   0  0  0  0  0  2  0  0  0  0  0  0
   33.8100   24.2490   46.5710 C   0  0  2  0  0  0  0  0  0  0  0  0
   34.9410   24.5900   45.6570 C   0  0  0  0  0  2  0  0  0  0  0  0
   34.9780   23.6650   44.5700 N   0  0  0  0  0  0  0  0  0  0  0  0
   35.3740   22.7060   43.5950 C   0  0  0  0  0  0  0  0  0  0  0  0
   36.4980   22.2870   43.2060 O   0  0  0  0  0  0  0  0  0  0  0  0
   33.9970   22.3580   43.1810 C   0  0  0  0  0  3  0  0  0  0  0  0
   33.7810   22.4550   42.0910 H   0  0  0  0  0  0  0  0  0  0  0  0
   33.6540   23.6090   43.9390 C   0  0  1  0  0  3  0  0  0  0  0  0
   32.6940   23.2920   45.4750 S   0  0  0  0  0  0  0  0  0  0  0  0
   34.1780   23.5140   47.8110 C   0  0  0  0  0  2  0  0  0  0  0  0
   33.5580   23.9520   48.6390 H   0  0  0  0  0  0  0  0  0  0  0  0
   36.6080   30.1030   50.1440 S   0  0  0  0  0  0  0  0  0  0  0  0
   38.8360   32.8580   48.2180 C   0  0  0  0  0  0  0  0  0  0  0  0
   39.1330   32.1870   47.0180 C   0  0  0  0  0  0  0  0  0  0  0  0
   38.6290   30.9290   46.8780 C   0  0  0  0  0  0  0  0  0  0  0  0
   37.8790   30.3950   47.8860 N   0  0  0  0  0  0  0  0  0  0  0  0
   37.6250   31.0480   48.9830 C   0  0  0  0  0  0  0  0  0  0  0  0
   38.0980   32.3250   49.2020 N   0  0  0  0  0  0  0  0  0  0  0  0
   39.1990   33.8590   48.4080 H   0  0  0  0  0  0  0  0  0  0  0  0
   38.8440   30.3920   45.9620 H   0  0  0  0  0  0  0  0  0  0  0  0
   39.8900   32.8250   46.0950 O   0  0  0  0  0  0  0  0  0  0  0  0
   39.9960   32.3020   44.8180 C   0  0  0  0  0  0  0  0  0  0  0  0
   40.6390   31.1500   44.4310 C   0  0  0  0  0  0  0  0  0  0  0  0
   40.6470   30.7830   43.1410 C   0  0  0  0  0  0  0  0  0  0  0  0
   40.0110   31.5680   42.2290 C   0  0  0  0  0  0  0  0  0  0  0  0
   39.3570   32.7410   42.6320 C   0  0  0  0  0  0  0  0  0  0  0  0
   39.3580   33.0990   43.9500 N   0  0  0  0  0  0  0  0  0  0  0  0
   41.1090   30.6140   45.2590 H   0  0  0  0  0  0  0  0  0  0  0  0
   41.1490   29.8890   42.8540 H   0  0  0  0  0  0  0  0  0  0  0  0
   39.9770   31.3330   41.1690 H   0  0  0  0  0  0  0  0  0  0  0  0
   38.6430   33.6210   41.6070 C   0  0  0  0  0  0  0  0  0  0  0  0
   38.2750   33.0190   40.7770 H   0  0  0  0  0  0  0  0  0  0  0  0
   37.8960   34.1730   42.1830 H   0  0  0  0  0  0  0  0  0  0  0  0
   39.4140   34.3620   41.2960 H   0  0  0  0  0  0  0  0  0  0  0  0
  1 27  1  0  0  0  0
  1  2  1  0  0  0  0
  3  1  1  0  0  0  0
  5  4  1  0  0  0  0
  6  5  1  0  0  0  0
  6  1  1  0  0  0  0
  7  6  2  0  0  0  0
  8  9  2  0  0  0  0
  8  7  1  0  0  0  0
  9 10  1  0  0  0  0
 10 14  1  0  0  0  0
 10  5  2  0  0  0  0
 11  7  1  0  0  0  0
 12  8  1  0  0  0  0
 13  9  1  0  0  0  0
 15 14  1  0  0  0  0
 16 15  1  1  0  0  0
 16 25  1  0  0  0  0
 17 16  1  0  0  0  0
 18 17  1  0  0  0  0
 19 18  1  0  0  0  0
 20 19  2  0  0  0  0
 21 19  1  0  0  0  0
 22 21  1  0  0  0  0
 23 21  1  6  0  0  0
 23 18  1  0  0  0  0
 23 24  1  0  0  0  0
 24 16  1  0  0  0  0
 25 26  1  0  0  0  0
 28 34  1  0  0  0  0
 28 33  1  0  0  0  0
 29 28  2  0  0  0  0
 30 29  1  0  0  0  0
 30 31  2  0  0  0  0
 31 32  1  0  0  0  0
 32 33  2  0  0  0  0
 32 27  1  0  0  0  0
 35 30  1  0  0  0  0
 36 29  1  0  0  0  0
 37 36  1  0  0  0  0
 38 37  1  0  0  0  0
 38 43  1  0  0  0  0
 39 38  2  0  0  0  0
 40 41  2  0  0  0  0
 40 39  1  0  0  0  0
 41 42  1  0  0  0  0
 42 37  2  0  0  0  0
 44 39  1  0  0  0  0
 45 40  1  0  0  0  0
 46 48  1  0  0  0  0
 46 41  1  0  0  0  0
 47 46  1  0  0  0  0
 49 46  1  0  0  0  0
M  END
>  <minimizedAffinity>
-5.85099697

>  <minimizedRMSD>
1.01239133

$$$$
