
 OpenBabel03262522273D

 49 53  0  0  1  0  0  0  0  0999 V2000
   34.8240   30.4960   49.8580 C   0  0  0  0  0  0  0  0  0  0  0  0
   34.1510   30.1060   50.6690 H   0  0  0  0  0  0  0  0  0  0  0  0
   34.6880   31.5880   49.7760 H   0  0  0  0  0  0  0  0  0  0  0  0
   34.3750   27.7820   49.9920 F   0  0  0  0  0  0  0  0  0  0  0  0
   34.2800   28.4190   48.7810 C   0  0  0  0  0  0  0  0  0  0  0  0
   34.4860   29.7880   48.5940 C   0  0  0  0  0  0  0  0  0  0  0  0
   34.3760   30.3600   47.3620 C   0  0  0  0  0  0  0  0  0  0  0  0
   34.0510   29.5840   46.2440 C   0  0  0  0  0  0  0  0  0  0  0  0
   33.8430   28.2340   46.3990 C   0  0  0  0  0  0  0  0  0  0  0  0
   33.9600   27.6680   47.6660 C   0  0  0  0  0  0  0  0  0  0  0  0
   34.5480   31.4140   47.2880 H   0  0  0  0  0  0  0  0  0  0  0  0
   33.9650   30.0420   45.2630 H   0  0  0  0  0  0  0  0  0  0  0  0
   33.5920   27.6470   45.5240 H   0  0  0  0  0  0  0  0  0  0  0  0
   33.7370   26.2930   47.7650 O   0  0  0  0  0  0  0  0  0  0  0  0
   33.9040   25.4200   46.6670 C   0  0  0  0  0  2  0  0  0  0  0  0
   32.7680   24.3960   46.7810 C   0  0  2  0  0  0  0  0  0  0  0  0
   33.0230   23.5540   47.9880 C   0  0  0  0  0  2  0  0  0  0  0  0
   32.8620   22.1750   47.6570 N   0  0  0  0  0  0  0  0  0  0  0  0
   32.4700   20.8060   47.6230 C   0  0  0  0  0  0  0  0  0  0  0  0
   31.8870   20.0570   48.4550 O   0  0  0  0  0  0  0  0  0  0  0  0
   32.9860   20.5500   46.2610 C   0  0  0  0  0  3  0  0  0  0  0  0
   33.7040   19.7020   46.1680 H   0  0  0  0  0  0  0  0  0  0  0  0
   33.6870   21.8600   46.4850 C   0  0  1  0  0  3  0  0  0  0  0  0
   33.0620   23.2140   45.4090 S   0  0  0  0  0  0  0  0  0  0  0  0
   31.4300   25.0420   46.7140 C   0  0  0  0  0  2  0  0  0  0  0  0
   31.5940   26.0810   46.3170 H   0  0  0  0  0  0  0  0  0  0  0  0
   36.5300   30.0460   50.2790 S   0  0  0  0  0  0  0  0  0  0  0  0
   38.7370   32.8350   48.3770 C   0  0  0  0  0  0  0  0  0  0  0  0
   39.0840   32.1570   47.1950 C   0  0  0  0  0  0  0  0  0  0  0  0
   38.6170   30.8850   47.0570 C   0  0  0  0  0  0  0  0  0  0  0  0
   37.8530   30.3440   48.0520 N   0  0  0  0  0  0  0  0  0  0  0  0
   37.5520   31.0040   49.1330 C   0  0  0  0  0  0  0  0  0  0  0  0
   37.9860   32.2950   49.3480 N   0  0  0  0  0  0  0  0  0  0  0  0
   39.0680   33.8480   48.5640 H   0  0  0  0  0  0  0  0  0  0  0  0
   38.8700   30.3420   46.1550 H   0  0  0  0  0  0  0  0  0  0  0  0
   39.8480   32.8040   46.2850 O   0  0  0  0  0  0  0  0  0  0  0  0
   39.9690   32.2910   45.0050 C   0  0  0  0  0  0  0  0  0  0  0  0
   40.6550   31.1670   44.6090 C   0  0  0  0  0  0  0  0  0  0  0  0
   40.6700   30.8060   43.3180 C   0  0  0  0  0  0  0  0  0  0  0  0
   39.9990   31.5690   42.4120 C   0  0  0  0  0  0  0  0  0  0  0  0
   39.3020   32.7130   42.8240 C   0  0  0  0  0  0  0  0  0  0  0  0
   39.2960   33.0660   44.1430 N   0  0  0  0  0  0  0  0  0  0  0  0
   41.1490   30.6450   45.4330 H   0  0  0  0  0  0  0  0  0  0  0  0
   41.2060   29.9330   43.0250 H   0  0  0  0  0  0  0  0  0  0  0  0
   39.9680   31.3360   41.3510 H   0  0  0  0  0  0  0  0  0  0  0  0
   38.5490   33.5680   41.8060 C   0  0  0  0  0  0  0  0  0  0  0  0
   38.2000   32.9560   40.9750 H   0  0  0  0  0  0  0  0  0  0  0  0
   37.7830   34.0880   42.3880 H   0  0  0  0  0  0  0  0  0  0  0  0
   39.2870   34.3400   41.4940 H   0  0  0  0  0  0  0  0  0  0  0  0
  1 27  1  0  0  0  0
  1  2  1  0  0  0  0
  3  1  1  0  0  0  0
  5  4  1  0  0  0  0
  6  5  1  0  0  0  0
  6  1  1  0  0  0  0
  7  6  2  0  0  0  0
  8  9  2  0  0  0  0
  8  7  1  0  0  0  0
  9 10  1  0  0  0  0
 10 14  1  0  0  0  0
 10  5  2  0  0  0  0
 11  7  1  0  0  0  0
 12  8  1  0  0  0  0
 13  9  1  0  0  0  0
 15 14  1  0  0  0  0
 16 15  1  6  0  0  0
 16 17  1  0  0  0  0
 18 17  1  0  0  0  0
 19 18  1  0  0  0  0
 19 20  2  0  0  0  0
 21 23  1  0  0  0  0
 21 19  1  0  0  0  0
 22 21  1  0  0  0  0
 23 24  1  6  0  0  0
 23 18  1  0  0  0  0
 24 16  1  0  0  0  0
 25 16  1  0  0  0  0
 26 25  1  0  0  0  0
 28 34  1  0  0  0  0
 28 33  1  0  0  0  0
 29 28  2  0  0  0  0
 30 29  1  0  0  0  0
 30 31  2  0  0  0  0
 31 32  1  0  0  0  0
 32 33  2  0  0  0  0
 32 27  1  0  0  0  0
 35 30  1  0  0  0  0
 36 29  1  0  0  0  0
 37 36  1  0  0  0  0
 38 37  1  0  0  0  0
 38 43  1  0  0  0  0
 39 38  2  0  0  0  0
 40 41  2  0  0  0  0
 40 39  1  0  0  0  0
 41 42  1  0  0  0  0
 42 37  2  0  0  0  0
 44 39  1  0  0  0  0
 45 40  1  0  0  0  0
 46 48  1  0  0  0  0
 46 41  1  0  0  0  0
 47 46  1  0  0  0  0
 49 46  1  0  0  0  0
M  END
>  <minimizedAffinity>
-5.8920269

>  <minimizedRMSD>
0.425588012

$$$$
