
 OpenBabel03262522273D

 49 53  0  0  1  0  0  0  0  0999 V2000
   34.7820   30.5150   49.7910 C   0  0  0  0  0  0  0  0  0  0  0  0
   34.1030   30.1180   50.5940 H   0  0  0  0  0  0  0  0  0  0  0  0
   34.6340   31.6050   49.7050 H   0  0  0  0  0  0  0  0  0  0  0  0
   34.4460   27.7840   49.9120 F   0  0  0  0  0  0  0  0  0  0  0  0
   34.3230   28.4230   48.7040 C   0  0  0  0  0  0  0  0  0  0  0  0
   34.4720   29.8000   48.5240 C   0  0  0  0  0  0  0  0  0  0  0  0
   34.3360   30.3730   47.2950 C   0  0  0  0  0  0  0  0  0  0  0  0
   34.0420   29.5900   46.1740 C   0  0  0  0  0  0  0  0  0  0  0  0
   33.8900   28.2310   46.3220 C   0  0  0  0  0  0  0  0  0  0  0  0
   34.0320   27.6650   47.5860 C   0  0  0  0  0  0  0  0  0  0  0  0
   34.4640   31.4330   47.2260 H   0  0  0  0  0  0  0  0  0  0  0  0
   33.9350   30.0490   45.1950 H   0  0  0  0  0  0  0  0  0  0  0  0
   33.6620   27.6390   45.4450 H   0  0  0  0  0  0  0  0  0  0  0  0
   33.8670   26.2820   47.6780 O   0  0  0  0  0  0  0  0  0  0  0  0
   33.6910   25.4650   46.5390 C   0  0  0  0  0  2  0  0  0  0  0  0
   32.4010   24.6730   46.7980 C   0  0  2  0  0  0  0  0  0  0  0  0
   32.6730   23.6950   47.8940 C   0  0  0  0  0  2  0  0  0  0  0  0
   32.1800   22.4070   47.5250 N   0  0  0  0  0  0  0  0  0  0  0  0
   31.5160   21.1480   47.4890 C   0  0  0  0  0  0  0  0  0  0  0  0
   30.9350   20.4570   48.3700 O   0  0  0  0  0  0  0  0  0  0  0  0
   31.7400   20.9180   46.0460 C   0  0  0  0  0  3  0  0  0  0  0  0
   32.2440   19.9580   45.7810 H   0  0  0  0  0  0  0  0  0  0  0  0
   32.7220   22.0440   46.2100 C   0  0  1  0  0  3  0  0  0  0  0  0
   32.2210   23.5810   45.3350 S   0  0  0  0  0  0  0  0  0  0  0  0
   31.2320   25.5680   47.0020 C   0  0  0  0  0  2  0  0  0  0  0  0
   31.5400   26.5860   46.6380 H   0  0  0  0  0  0  0  0  0  0  0  0
   36.4880   30.0890   50.2370 S   0  0  0  0  0  0  0  0  0  0  0  0
   38.7290   32.8560   48.3440 C   0  0  0  0  0  0  0  0  0  0  0  0
   39.0400   32.1900   47.1450 C   0  0  0  0  0  0  0  0  0  0  0  0
   38.5400   30.9320   46.9950 C   0  0  0  0  0  0  0  0  0  0  0  0
   37.7800   30.3930   47.9930 N   0  0  0  0  0  0  0  0  0  0  0  0
   37.5140   31.0400   49.0900 C   0  0  0  0  0  0  0  0  0  0  0  0
   37.9820   32.3180   49.3190 N   0  0  0  0  0  0  0  0  0  0  0  0
   39.0870   33.8580   48.5420 H   0  0  0  0  0  0  0  0  0  0  0  0
   38.7650   30.3990   46.0790 H   0  0  0  0  0  0  0  0  0  0  0  0
   39.8040   32.8340   46.2330 O   0  0  0  0  0  0  0  0  0  0  0  0
   39.9540   32.2970   44.9660 C   0  0  0  0  0  0  0  0  0  0  0  0
   40.6540   31.1680   44.6070 C   0  0  0  0  0  0  0  0  0  0  0  0
   40.7000   30.7830   43.3240 C   0  0  0  0  0  0  0  0  0  0  0  0
   40.0450   31.5250   42.3890 C   0  0  0  0  0  0  0  0  0  0  0  0
   39.3340   32.6730   42.7630 C   0  0  0  0  0  0  0  0  0  0  0  0
   39.2980   33.0520   44.0740 N   0  0  0  0  0  0  0  0  0  0  0  0
   41.1320   30.6650   45.4520 H   0  0  0  0  0  0  0  0  0  0  0  0
   41.2450   29.9070   43.0600 H   0  0  0  0  0  0  0  0  0  0  0  0
   40.0390   31.2720   41.3320 H   0  0  0  0  0  0  0  0  0  0  0  0
   38.6000   33.5060   41.7120 C   0  0  0  0  0  0  0  0  0  0  0  0
   38.2720   32.8750   40.8860 H   0  0  0  0  0  0  0  0  0  0  0  0
   37.8200   34.0330   42.2680 H   0  0  0  0  0  0  0  0  0  0  0  0
   39.3420   34.2750   41.4020 H   0  0  0  0  0  0  0  0  0  0  0  0
  1 27  1  0  0  0  0
  1  2  1  0  0  0  0
  3  1  1  0  0  0  0
  5  4  1  0  0  0  0
  6  5  1  0  0  0  0
  6  1  1  0  0  0  0
  7  6  2  0  0  0  0
  8  9  2  0  0  0  0
  8  7  1  0  0  0  0
  9 10  1  0  0  0  0
 10 14  1  0  0  0  0
 10  5  2  0  0  0  0
 11  7  1  0  0  0  0
 12  8  1  0  0  0  0
 13  9  1  0  0  0  0
 15 14  1  0  0  0  0
 16 15  1  6  0  0  0
 16 25  1  0  0  0  0
 16 17  1  0  0  0  0
 18 17  1  0  0  0  0
 19 18  1  0  0  0  0
 19 20  2  0  0  0  0
 21 23  1  0  0  0  0
 21 19  1  0  0  0  0
 22 21  1  0  0  0  0
 23 24  1  6  0  0  0
 23 18  1  0  0  0  0
 24 16  1  0  0  0  0
 26 25  1  0  0  0  0
 28 34  1  0  0  0  0
 28 33  1  0  0  0  0
 29 28  2  0  0  0  0
 30 29  1  0  0  0  0
 30 31  2  0  0  0  0
 31 32  1  0  0  0  0
 32 33  2  0  0  0  0
 32 27  1  0  0  0  0
 35 30  1  0  0  0  0
 36 29  1  0  0  0  0
 37 36  1  0  0  0  0
 38 37  1  0  0  0  0
 38 43  1  0  0  0  0
 39 38  2  0  0  0  0
 40 41  2  0  0  0  0
 40 39  1  0  0  0  0
 41 42  1  0  0  0  0
 42 37  2  0  0  0  0
 44 39  1  0  0  0  0
 45 40  1  0  0  0  0
 46 48  1  0  0  0  0
 46 41  1  0  0  0  0
 47 46  1  0  0  0  0
 49 46  1  0  0  0  0
M  END
>  <minimizedAffinity>
-6.21816158

>  <minimizedRMSD>
0.6323843

$$$$
