
 OpenBabel03262522273D

 49 53  0  0  1  0  0  0  0  0999 V2000
   34.7780   30.4990   49.7910 C   0  0  0  0  0  0  0  0  0  0  0  0
   34.1010   30.0990   50.5930 H   0  0  0  0  0  0  0  0  0  0  0  0
   34.6300   31.5890   49.7100 H   0  0  0  0  0  0  0  0  0  0  0  0
   34.4300   27.7690   49.9020 F   0  0  0  0  0  0  0  0  0  0  0  0
   34.3090   28.4130   48.6970 C   0  0  0  0  0  0  0  0  0  0  0  0
   34.4640   29.7900   48.5220 C   0  0  0  0  0  0  0  0  0  0  0  0
   34.3290   30.3680   47.2950 C   0  0  0  0  0  0  0  0  0  0  0  0
   34.0310   29.5900   46.1710 C   0  0  0  0  0  0  0  0  0  0  0  0
   33.8730   28.2310   46.3150 C   0  0  0  0  0  0  0  0  0  0  0  0
   34.0140   27.6590   47.5760 C   0  0  0  0  0  0  0  0  0  0  0  0
   34.4620   31.4280   47.2290 H   0  0  0  0  0  0  0  0  0  0  0  0
   33.9250   30.0530   45.1940 H   0  0  0  0  0  0  0  0  0  0  0  0
   33.6420   27.6430   45.4350 H   0  0  0  0  0  0  0  0  0  0  0  0
   33.8420   26.2770   47.6640 O   0  0  0  0  0  0  0  0  0  0  0  0
   33.7160   25.4580   46.5200 C   0  0  0  0  0  2  0  0  0  0  0  0
   32.4340   24.6410   46.7410 C   0  0  2  0  0  0  0  0  0  0  0  0
   32.6630   23.7290   47.9010 C   0  0  0  0  0  2  0  0  0  0  0  0
   32.2300   22.4090   47.5710 N   0  0  0  0  0  0  0  0  0  0  0  0
   31.6050   21.1300   47.5610 C   0  0  0  0  0  0  0  0  0  0  0  0
   30.9890   20.4670   48.4390 O   0  0  0  0  0  0  0  0  0  0  0  0
   31.9240   20.8340   46.1470 C   0  0  0  0  0  3  0  0  0  0  0  0
   32.4690   19.8780   45.9660 H   0  0  0  0  0  0  0  0  0  0  0  0
   32.8620   21.9970   46.3120 C   0  0  1  0  0  3  0  0  0  0  0  0
   32.3760   23.4720   45.3280 S   0  0  0  0  0  0  0  0  0  0  0  0
   31.2300   25.5100   46.8260 C   0  0  0  0  0  2  0  0  0  0  0  0
   31.5320   26.5160   46.4280 H   0  0  0  0  0  0  0  0  0  0  0  0
   36.4840   30.0690   50.2300 S   0  0  0  0  0  0  0  0  0  0  0  0
   38.7180   32.8460   48.3440 C   0  0  0  0  0  0  0  0  0  0  0  0
   39.0320   32.1830   47.1440 C   0  0  0  0  0  0  0  0  0  0  0  0
   38.5360   30.9240   46.9910 C   0  0  0  0  0  0  0  0  0  0  0  0
   37.7770   30.3800   47.9880 N   0  0  0  0  0  0  0  0  0  0  0  0
   37.5080   31.0260   49.0860 C   0  0  0  0  0  0  0  0  0  0  0  0
   37.9720   32.3040   49.3170 N   0  0  0  0  0  0  0  0  0  0  0  0
   39.0740   33.8480   48.5440 H   0  0  0  0  0  0  0  0  0  0  0  0
   38.7630   30.3930   46.0750 H   0  0  0  0  0  0  0  0  0  0  0  0
   39.7950   32.8300   46.2330 O   0  0  0  0  0  0  0  0  0  0  0  0
   39.9490   32.2960   44.9660 C   0  0  0  0  0  0  0  0  0  0  0  0
   40.6510   31.1690   44.6070 C   0  0  0  0  0  0  0  0  0  0  0  0
   40.6990   30.7850   43.3230 C   0  0  0  0  0  0  0  0  0  0  0  0
   40.0450   31.5270   42.3880 C   0  0  0  0  0  0  0  0  0  0  0  0
   39.3320   32.6740   42.7620 C   0  0  0  0  0  0  0  0  0  0  0  0
   39.2920   33.0510   44.0740 N   0  0  0  0  0  0  0  0  0  0  0  0
   41.1280   30.6660   45.4510 H   0  0  0  0  0  0  0  0  0  0  0  0
   41.2470   29.9100   43.0590 H   0  0  0  0  0  0  0  0  0  0  0  0
   40.0410   31.2750   41.3310 H   0  0  0  0  0  0  0  0  0  0  0  0
   38.5980   33.5060   41.7110 C   0  0  0  0  0  0  0  0  0  0  0  0
   38.2730   32.8760   40.8840 H   0  0  0  0  0  0  0  0  0  0  0  0
   37.8150   34.0310   42.2660 H   0  0  0  0  0  0  0  0  0  0  0  0
   39.3390   34.2770   41.4030 H   0  0  0  0  0  0  0  0  0  0  0  0
  1 27  1  0  0  0  0
  1  2  1  0  0  0  0
  3  1  1  0  0  0  0
  5  4  1  0  0  0  0
  6  5  1  0  0  0  0
  6  1  1  0  0  0  0
  7  6  2  0  0  0  0
  8  9  2  0  0  0  0
  8  7  1  0  0  0  0
  9 10  1  0  0  0  0
 10 14  1  0  0  0  0
 10  5  2  0  0  0  0
 11  7  1  0  0  0  0
 12  8  1  0  0  0  0
 13  9  1  0  0  0  0
 15 14  1  0  0  0  0
 16 15  1  6  0  0  0
 16 25  1  0  0  0  0
 16 17  1  0  0  0  0
 18 17  1  0  0  0  0
 19 18  1  0  0  0  0
 19 20  2  0  0  0  0
 21 23  1  0  0  0  0
 21 19  1  0  0  0  0
 22 21  1  0  0  0  0
 23 24  1  6  0  0  0
 23 18  1  0  0  0  0
 24 16  1  0  0  0  0
 26 25  1  0  0  0  0
 28 34  1  0  0  0  0
 28 33  1  0  0  0  0
 29 28  2  0  0  0  0
 30 29  1  0  0  0  0
 30 31  2  0  0  0  0
 31 32  1  0  0  0  0
 32 33  2  0  0  0  0
 32 27  1  0  0  0  0
 35 30  1  0  0  0  0
 36 29  1  0  0  0  0
 37 36  1  0  0  0  0
 38 37  1  0  0  0  0
 38 43  1  0  0  0  0
 39 38  2  0  0  0  0
 40 41  2  0  0  0  0
 40 39  1  0  0  0  0
 41 42  1  0  0  0  0
 42 37  2  0  0  0  0
 44 39  1  0  0  0  0
 45 40  1  0  0  0  0
 46 48  1  0  0  0  0
 46 41  1  0  0  0  0
 47 46  1  0  0  0  0
 49 46  1  0  0  0  0
M  END
>  <minimizedAffinity>
-6.19513512

>  <minimizedRMSD>
1.50310493

$$$$
