
 OpenBabel03262522143D

 48 53  0  0  1  0  0  0  0  0999 V2000
   39.5070   33.1200   44.0530 C   0  0  0  0  0  0  0  0  0  0  0  0
   38.4590   32.9450   44.2920 H   0  0  0  0  0  0  0  0  0  0  0  0
   39.6370   34.0490   43.4420 H   0  0  0  0  0  0  0  0  0  0  0  0
   39.1280   29.9940   42.4510 C   0  0  1  0  0  0  0  0  0  0  0  0
   39.1330   31.4840   42.2210 C   0  0  0  0  0  0  0  0  0  0  0  0
   40.0850   31.9500   43.2840 C   0  0  2  0  0  0  0  0  0  0  0  0
   40.3870   30.8800   44.0780 O   0  0  0  0  0  0  0  0  0  0  0  0
   39.3800   29.9300   43.9330 C   0  0  0  0  0  0  0  0  0  0  0  0
   39.9730   29.5350   41.9220 H   0  0  0  0  0  0  0  0  0  0  0  0
   39.5240   31.7280   41.2150 H   0  0  0  0  0  0  0  0  0  0  0  0
   38.1130   31.8730   42.4040 H   0  0  0  0  0  0  0  0  0  0  0  0
   41.0280   32.3100   42.8000 H   0  0  0  0  0  0  0  0  0  0  0  0
   38.4590   30.1830   44.4770 H   0  0  0  0  0  0  0  0  0  0  0  0
   39.8110   28.9740   44.2800 H   0  0  0  0  0  0  0  0  0  0  0  0
   37.9010   29.4210   42.1040 O   0  0  0  0  0  0  0  0  0  0  0  0
   37.4840   28.4850   43.0070 C   0  0  0  0  0  2  0  0  0  0  0  0
   37.4710   27.1200   42.3070 C   0  0  1  0  0  0  0  0  0  0  0  0
   37.3110   27.2100   40.8600 C   0  0  0  0  0  2  0  0  0  0  0  0
   38.2210   26.4320   40.1510 N   0  0  1  0  0  0  0  0  0  0  0  0
   38.9270   25.9510   39.0380 C   0  0  1  0  0  0  0  0  0  0  0  0
   38.7900   25.7120   37.8130 O   0  0  0  0  0  1  0  0  0  0  0  0
   40.1030   25.7930   39.9660 C   0  0  0  0  0  3  0  0  0  0  0  0
   40.7680   24.9490   39.6930 H   0  0  0  0  0  0  0  0  0  0  0  0
   38.9890   25.4820   40.9130 C   0  0  1  0  0  0  0  0  0  0  0  0
   39.0600   26.2790   42.5380 S   0  0  0  0  0  0  0  0  0  0  0  0
   36.3580   26.2970   42.9450 C   0  0  0  0  0  2  0  0  0  0  0  0
   36.3560   25.2770   42.5260 H   0  0  0  0  0  0  0  0  0  0  0  0
   40.5670   33.3570   45.5170 S   0  0  0  0  0  0  0  0  0  0  0  0
   37.7450   31.8310   47.8500 C   0  0  0  0  0  0  0  0  0  0  0  0
   37.8660   32.5490   49.0450 C   0  0  0  0  0  0  0  0  0  0  0  0
   38.8190   33.5330   49.1880 C   0  0  0  0  0  0  0  0  0  0  0  0
   39.6300   33.7600   48.0990 C   0  0  0  0  0  0  0  0  0  0  0  0
   39.4920   33.0500   46.9500 C   0  0  0  0  0  0  0  0  0  0  0  0
   38.5580   32.0780   46.7960 N   0  0  0  0  0  0  0  0  0  0  0  0
   37.2200   32.3620   49.8990 H   0  0  0  0  0  0  0  0  0  0  0  0
   38.9470   34.1160   50.1010 H   0  0  0  0  0  0  0  0  0  0  0  0
   40.4020   34.5230   48.1470 H   0  0  0  0  0  0  0  0  0  0  0  0
   36.7230   30.8180   47.7790 C   0  0  0  0  0  0  0  0  0  0  0  0
   36.3200   30.3940   46.6990 O   0  0  0  0  0  0  0  0  0  0  0  0
   36.9510   29.5980   49.9100 C   0  0  0  0  0  0  0  0  0  0  0  0
   36.1090   30.2380   48.9900 C   0  0  0  0  0  0  0  0  0  0  0  0
   34.7410   30.3060   49.2410 C   0  0  0  0  0  0  0  0  0  0  0  0
   34.2530   29.7440   50.3860 N   0  0  0  0  0  0  0  0  0  0  0  0
   35.0870   29.1310   51.2590 C   0  0  0  0  0  0  0  0  0  0  0  0
   36.3900   29.0660   51.0210 N   0  0  0  0  0  0  0  0  0  0  0  0
   38.0270   29.5180   49.7590 H   0  0  0  0  0  0  0  0  0  0  0  0
   34.1100   30.7950   48.5340 H   0  0  0  0  0  0  0  0  0  0  0  0
   34.7990   28.6620   52.1820 H   0  0  0  0  0  0  0  0  0  0  0  0
  1  2  1  0  0  0  0
  1 28  1  0  0  0  0
  3  1  1  0  0  0  0
  4  9  1  6  0  0  0
  4  8  1  0  0  0  0
  5 11  1  0  0  0  0
  5  4  1  0  0  0  0
  5  6  1  0  0  0  0
  6 12  1  6  0  0  0
  6  1  1  0  0  0  0
  6  7  1  0  0  0  0
  8  7  1  0  0  0  0
  8 14  1  0  0  0  0
  8 13  1  0  0  0  0
 10  5  1  0  0  0  0
 15  4  1  0  0  0  0
 15 16  1  0  0  0  0
 17 25  1  0  0  0  0
 17 26  1  1  0  0  0
 17 16  1  0  0  0  0
 18 17  1  0  0  0  0
 19 18  1  1  0  0  0
 19 24  1  0  0  0  0
 20 21  1  6  0  0  0
 20 22  1  0  0  0  0
 20 19  1  0  0  0  0
 20 24  1  0  0  0  0
 23 22  1  0  0  0  0
 24 22  1  6  0  0  0
 24 25  1  0  0  0  0
 27 26  1  0  0  0  0
 28 33  1  0  0  0  0
 29 30  1  0  0  0  0
 30 31  2  0  0  0  0
 30 35  1  0  0  0  0
 31 36  1  0  0  0  0
 32 37  1  0  0  0  0
 32 31  1  0  0  0  0
 33 32  2  0  0  0  0
 34 33  1  0  0  0  0
 34 29  2  0  0  0  0
 38 29  1  0  0  0  0
 38 41  1  0  0  0  0
 39 38  2  0  0  0  0
 40 45  1  0  0  0  0
 41 42  1  0  0  0  0
 41 40  2  0  0  0  0
 42 43  2  0  0  0  0
 43 44  1  0  0  0  0
 44 48  1  0  0  0  0
 45 44  2  0  0  0  0
 46 40  1  0  0  0  0
 47 42  1  0  0  0  0
M  END
>  <minimizedAffinity>
-5.37032938

>  <minimizedRMSD>
2.39302826

$$$$
