
 OpenBabel03262522143D

 48 53  0  0  1  0  0  0  0  0999 V2000
   39.5270   32.9790   43.7520 C   0  0  0  0  0  0  0  0  0  0  0  0
   38.5210   33.2940   44.0250 H   0  0  0  0  0  0  0  0  0  0  0  0
   40.0340   33.7460   43.1120 H   0  0  0  0  0  0  0  0  0  0  0  0
   38.1020   29.8020   43.1570 C   0  0  1  0  0  0  0  0  0  0  0  0
   38.0800   31.2450   42.7180 C   0  0  0  0  0  0  0  0  0  0  0  0
   39.4930   31.6660   42.9980 C   0  0  2  0  0  0  0  0  0  0  0  0
   40.1130   30.6470   43.6640 O   0  0  0  0  0  0  0  0  0  0  0  0
   39.1350   29.8480   44.2500 C   0  0  0  0  0  0  0  0  0  0  0  0
   38.4720   29.1720   42.3380 H   0  0  0  0  0  0  0  0  0  0  0  0
   37.8570   31.3270   41.6370 H   0  0  0  0  0  0  0  0  0  0  0  0
   37.3670   31.7980   43.3590 H   0  0  0  0  0  0  0  0  0  0  0  0
   40.0270   31.8310   42.0280 H   0  0  0  0  0  0  0  0  0  0  0  0
   38.6960   30.2890   45.1560 H   0  0  0  0  0  0  0  0  0  0  0  0
   39.6190   28.8780   44.4600 H   0  0  0  0  0  0  0  0  0  0  0  0
   36.8550   29.3870   43.6330 O   0  0  0  0  0  0  0  0  0  0  0  0
   36.2900   28.4200   42.8510 C   0  0  0  0  0  0  0  0  0  0  0  0
   34.7790   28.4120   43.1220 C   0  0  1  0  0  0  0  0  0  0  0  0
   34.4190   27.8130   44.4020 C   0  0  0  0  0  0  0  0  0  0  0  0
   33.5250   28.5780   45.1430 N   0  0  1  0  0  0  0  0  0  0  0  0
   32.7800   28.9820   46.2600 C   0  0  1  0  0  0  0  0  0  0  0  0
   32.1760   28.5230   47.2600 O   0  0  0  0  0  0  0  0  0  0  0  0
   32.9830   30.3930   45.7710 C   0  0  0  0  0  0  0  0  0  0  0  0
   32.1410   31.0700   46.0180 H   0  0  0  0  0  0  0  0  0  0  0  0
   32.9000   29.6810   44.4600 C   0  0  1  0  0  0  0  0  0  0  0  0
   34.1490   30.1090   43.2230 S   0  0  0  0  0  0  0  0  0  0  0  0
   34.1150   27.6890   41.9550 C   0  0  0  0  0  0  0  0  0  0  0  0
   33.0190   27.7220   42.0650 H   0  0  0  0  0  0  0  0  0  0  0  0
   40.6360   32.7350   45.1770 S   0  0  0  0  0  0  0  0  0  0  0  0
   37.7200   31.6720   47.6480 C   0  0  0  0  0  0  0  0  0  0  0  0
   37.9010   32.4990   48.7630 C   0  0  0  0  0  0  0  0  0  0  0  0
   38.9260   33.4180   48.8060 C   0  0  0  0  0  0  0  0  0  0  0  0
   39.7460   33.4700   47.7020 C   0  0  0  0  0  0  0  0  0  0  0  0
   39.5490   32.6580   46.6310 C   0  0  0  0  0  0  0  0  0  0  0  0
   38.5440   31.7480   46.5760 N   0  0  0  0  0  0  0  0  0  0  0  0
   37.2470   32.4490   49.6300 H   0  0  0  0  0  0  0  0  0  0  0  0
   39.1020   34.0800   49.6550 H   0  0  0  0  0  0  0  0  0  0  0  0
   40.5730   34.1740   47.6730 H   0  0  0  0  0  0  0  0  0  0  0  0
   36.6250   30.7370   47.6790 C   0  0  0  0  0  0  0  0  0  0  0  0
   36.0980   30.3380   46.6430 O   0  0  0  0  0  0  0  0  0  0  0  0
   36.9820   29.6540   49.8650 C   0  0  0  0  0  0  0  0  0  0  0  0
   36.0810   30.2090   48.9450 C   0  0  0  0  0  0  0  0  0  0  0  0
   34.7220   30.2460   49.2490 C   0  0  0  0  0  0  0  0  0  0  0  0
   34.3010   29.7360   50.4440 N   0  0  0  0  0  0  0  0  0  0  0  0
   35.1900   29.2040   51.3150 C   0  0  0  0  0  0  0  0  0  0  0  0
   36.4840   29.1690   51.0270 N   0  0  0  0  0  0  0  0  0  0  0  0
   38.0530   29.6010   49.6740 H   0  0  0  0  0  0  0  0  0  0  0  0
   34.0470   30.6700   48.5420 H   0  0  0  0  0  0  0  0  0  0  0  0
   34.9560   28.7820   52.2750 H   0  0  0  0  0  0  0  0  0  0  0  0
  1  2  1  0  0  0  0
  1 28  1  0  0  0  0
  3  1  1  0  0  0  0
  4  9  1  6  0  0  0
  4 15  1  0  0  0  0
  4  8  1  0  0  0  0
  5  6  1  0  0  0  0
  5  4  1  0  0  0  0
  5 11  1  0  0  0  0
  6 12  1  6  0  0  0
  6  7  1  0  0  0  0
  6  1  1  0  0  0  0
  7  8  1  0  0  0  0
  8 14  1  0  0  0  0
  8 13  1  0  0  0  0
 10  5  1  0  0  0  0
 16 17  1  0  0  0  0
 16 15  1  0  0  0  0
 17 26  1  6  0  0  0
 17 25  1  0  0  0  0
 17 18  1  0  0  0  0
 19 18  1  1  0  0  0
 19 20  1  0  0  0  0
 20 21  1  1  0  0  0
 22 23  1  0  0  0  0
 22 20  1  0  0  0  0
 24 25  1  6  0  0  0
 24 19  1  0  0  0  0
 24 22  1  0  0  0  0
 24 20  1  0  0  0  0
 26 27  1  0  0  0  0
 28 33  1  0  0  0  0
 29 38  1  0  0  0  0
 29 30  1  0  0  0  0
 30 31  2  0  0  0  0
 30 35  1  0  0  0  0
 31 36  1  0  0  0  0
 32 31  1  0  0  0  0
 33 32  2  0  0  0  0
 34 33  1  0  0  0  0
 34 29  2  0  0  0  0
 37 32  1  0  0  0  0
 38 41  1  0  0  0  0
 39 38  2  0  0  0  0
 40 45  1  0  0  0  0
 41 42  1  0  0  0  0
 41 40  2  0  0  0  0
 42 43  2  0  0  0  0
 43 44  1  0  0  0  0
 44 48  1  0  0  0  0
 45 44  2  0  0  0  0
 46 40  1  0  0  0  0
 47 42  1  0  0  0  0
M  END
>  <minimizedAffinity>
-5.4683466

>  <minimizedRMSD>
2.20385885

$$$$
