
 OpenBabel03272507263D

 40 43  0  0  1  0  0  0  0  0999 V2000
   37.2920   30.4190   49.3560 C   0  0  0  0  0  0  0  0  0  0  0  0
   37.6670   30.7530   48.0430 C   0  0  0  0  0  0  0  0  0  0  0  0
   36.7030   30.6580   47.0390 C   0  0  0  0  0  0  0  0  0  0  0  0
   35.4560   30.2480   47.3770 N   0  0  0  0  0  0  0  0  0  0  0  0
   35.1270   29.9340   48.6510 C   0  0  0  0  0  0  0  0  0  0  0  0
   36.0360   30.0190   49.6270 N   0  0  0  0  0  0  0  0  0  0  0  0
   37.0140   30.9790   45.6990 N   0  0  0  0  0  0  0  0  0  0  0  0
   38.0310   31.9440   45.2960 C   0  0  0  0  0  0  0  0  0  0  0  0
   37.8390   32.1630   43.8270 C   0  0  0  0  0  0  0  0  0  0  0  0
   36.4690   31.6710   43.5890 C   0  0  0  0  0  0  0  0  0  0  0  0
   36.4370   30.4610   44.5100 C   0  0  2  0  0  0  0  0  0  0  0  0
   38.0500   30.4990   50.1180 H   0  0  0  0  0  0  0  0  0  0  0  0
   38.6760   31.0750   47.8290 H   0  0  0  0  0  0  0  0  0  0  0  0
   34.1330   29.6110   48.9050 H   0  0  0  0  0  0  0  0  0  0  0  0
   39.0330   31.6220   45.5930 H   0  0  0  0  0  0  0  0  0  0  0  0
   37.8030   32.8590   45.9080 H   0  0  0  0  0  0  0  0  0  0  0  0
   38.6380   31.8040   43.1750 H   0  0  0  0  0  0  0  0  0  0  0  0
   37.8200   33.2680   43.6870 H   0  0  0  0  0  0  0  0  0  0  0  0
   36.3040   31.2790   42.5670 H   0  0  0  0  0  0  0  0  0  0  0  0
   35.7000   32.4040   43.8520 H   0  0  0  0  0  0  0  0  0  0  0  0
   35.0880   29.8490   44.5750 C   0  0  0  0  0  0  0  0  0  0  0  0
   34.2930   30.7150   45.3180 F   0  0  0  0  0  0  0  0  0  0  0  0
   35.0220   28.6460   45.1950 F   0  0  0  0  0  0  0  0  0  0  0  0
   34.5670   29.8680   43.3040 F   0  0  0  0  0  0  0  0  0  0  0  0
   37.3720   29.4220   43.9990 C   0  0  0  0  0  0  0  0  0  0  0  0
   37.3960   28.5460   44.7140 H   0  0  0  0  0  0  0  0  0  0  0  0
   38.4040   29.8320   44.0740 H   0  0  0  0  0  0  0  0  0  0  0  0
   36.9890   29.0880   42.8740 O   0  0  0  0  0  0  0  0  0  0  0  0
   37.0090   27.7320   42.6060 C   0  0  0  0  0  2  0  0  0  0  0  0
   37.9650   27.4760   41.4770 C   0  0  1  0  0  0  0  0  0  0  0  0
   38.2320   28.6320   40.5850 C   0  0  0  0  0  2  0  0  0  0  0  0
   39.3940   29.3390   41.0510 N   0  0  0  0  0  0  0  0  0  0  0  0
   40.2880   30.3550   41.4940 C   0  0  0  0  0  0  0  0  0  0  0  0
   40.3510   31.6280   41.4050 O   0  0  0  0  0  0  0  0  0  0  0  0
   41.1980   29.3780   42.1480 C   0  0  0  0  0  3  0  0  0  0  0  0
   42.2730   29.5200   42.0020 H   0  0  0  0  0  0  0  0  0  0  0  0
   40.5110   28.4170   41.2090 C   0  0  1  0  0  3  0  0  0  0  0  0
   39.6280   27.0650   42.0770 S   0  0  0  0  0  0  0  0  0  0  0  0
   37.4970   26.2940   40.6670 C   0  0  0  0  0  2  0  0  0  0  0  0
   38.1260   26.3180   39.7300 H   0  0  0  0  0  0  0  0  0  0  0  0
  1  6  1  0  0  0  0
  1 12  1  0  0  0  0
  2  1  2  0  0  0  0
  3  4  2  0  0  0  0
  3  2  1  0  0  0  0
  4  5  1  0  0  0  0
  5 14  1  0  0  0  0
  5  6  2  0  0  0  0
  7  3  1  0  0  0  0
  8 15  1  0  0  0  0
  8  7  1  0  0  0  0
  8 16  1  0  0  0  0
  9  8  1  0  0  0  0
 10  9  1  0  0  0  0
 10 20  1  0  0  0  0
 10 11  1  0  0  0  0
 11 25  1  6  0  0  0
 11 21  1  0  0  0  0
 11  7  1  0  0  0  0
 13  2  1  0  0  0  0
 17  9  1  0  0  0  0
 18  9  1  0  0  0  0
 19 10  1  0  0  0  0
 21 23  1  0  0  0  0
 21 22  1  0  0  0  0
 24 21  1  0  0  0  0
 25 27  1  0  0  0  0
 25 26  1  0  0  0  0
 28 25  1  0  0  0  0
 29 28  1  0  0  0  0
 30 39  1  6  0  0  0
 30 38  1  0  0  0  0
 30 29  1  0  0  0  0
 31 32  1  0  0  0  0
 31 30  1  0  0  0  0
 32 37  1  0  0  0  0
 32 33  1  0  0  0  0
 33 35  1  0  0  0  0
 34 33  2  0  0  0  0
 36 35  1  0  0  0  0
 37 38  1  1  0  0  0
 37 35  1  0  0  0  0
 40 39  1  0  0  0  0
M  END
>  <minimizedAffinity>
-4.32363415

>  <minimizedRMSD>
2.69006753

$$$$
