
 OpenBabel03262520343D

 32 34  0  0  1  0  0  0  0  0999 V2000
   37.8720   27.3180   31.3240 O   0  0  0  0  0  0  0  0  0  0  0  0
   36.7830   26.2740   31.6410 P   0  0  2  0  0  0  0  0  0  0  0  0
   36.6670   25.1320   30.4200 O   0  0  0  0  0  0  0  0  0  0  0  0
   37.1100   25.3900   29.5870 H   0  0  0  0  0  0  0  0  0  0  0  0
   35.3500   27.2100   31.6560 O   0  0  0  0  0  0  0  0  0  0  0  0
   35.7230   28.5600   31.7170 C   0  0  0  0  0  0  0  0  0  0  0  0
   36.8310   28.6050   31.8860 H   0  0  0  0  0  0  0  0  0  0  0  0
   35.5040   29.1250   30.8010 H   0  0  0  0  0  0  0  0  0  0  0  0
   35.7860   29.9090   33.7930 C   0  0  0  0  0  3  0  0  0  0  0  0
   35.1240   29.2380   32.8890 C   0  0  0  0  0  3  0  0  0  0  0  0
   33.0450   30.8040   36.0610 C   0  0  0  0  0  0  0  0  0  0  0  0
   33.6680   31.6870   36.9450 C   0  0  0  0  0  0  0  0  0  0  0  0
   35.0160   31.9650   36.7520 C   0  0  0  0  0  0  0  0  0  0  0  0
   35.6500   31.3440   35.6950 N   0  0  0  0  0  0  0  0  0  0  0  0
   35.0170   30.5100   34.8800 C   0  0  0  0  0  0  0  0  0  0  0  0
   33.7180   30.2480   35.0710 N   0  0  0  0  0  0  0  0  0  0  0  0
   31.9780   30.6070   36.2440 H   0  0  0  0  0  0  0  0  0  0  0  0
   33.2100   32.1840   37.7720 H   0  0  0  0  0  0  0  0  0  0  0  0
   35.5750   32.6420   37.3960 H   0  0  0  0  0  0  0  0  0  0  0  0
   37.0660   25.5920   33.1490 O   0  0  0  0  0  0  0  0  0  0  0  0
   37.3370   26.5270   34.1430 C   0  0  0  0  0  2  0  0  0  0  0  0
   38.4710   25.9260   34.9630 C   0  0  1  0  0  0  0  0  0  0  0  0
   37.9960   25.6120   36.3090 C   0  0  0  0  0  2  0  0  0  0  0  0
   38.4190   24.3430   36.7440 N   0  0  0  0  0  0  0  0  0  0  0  0
   38.9290   23.3230   37.5530 C   0  0  0  0  0  0  0  0  0  0  0  0
   39.0990   23.1010   38.7850 O   0  0  0  0  0  0  0  0  0  0  0  0
   39.2380   22.4990   36.3550 C   0  0  0  0  0  3  0  0  0  0  0  0
   40.2810   22.6560   36.0560 H   0  0  0  0  0  0  0  0  0  0  0  0
   38.2390   23.3950   35.7080 C   0  0  2  0  0  3  0  0  0  0  0  0
   38.8750   24.3050   34.2510 S   0  0  0  0  0  0  0  0  0  0  0  0
   39.6470   26.8690   34.9080 C   0  0  0  0  0  2  0  0  0  0  0  0
   39.5900   27.4210   33.9420 H   0  0  0  0  0  0  0  0  0  0  0  0
  2  1  2  6  0  0  0
  2  5  1  0  0  0  0
  2 20  1  0  0  0  0
  3  2  1  0  0  0  0
  4  3  1  0  0  0  0
  5  6  1  0  0  0  0
  6  7  1  0  0  0  0
  6 10  1  0  0  0  0
  8  6  1  0  0  0  0
  9 15  1  0  0  0  0
 10  9  2  0  0  0  0
 11 17  1  0  0  0  0
 11 12  1  0  0  0  0
 12 18  1  0  0  0  0
 13 12  2  0  0  0  0
 13 19  1  0  0  0  0
 14 13  1  0  0  0  0
 15 16  1  0  0  0  0
 15 14  2  0  0  0  0
 16 11  2  0  0  0  0
 20 21  1  0  0  0  0
 22 21  1  6  0  0  0
 22 23  1  0  0  0  0
 23 24  1  0  0  0  0
 24 25  1  0  0  0  0
 25 26  2  0  0  0  0
 27 25  1  0  0  0  0
 28 27  1  0  0  0  0
 29 30  1  6  0  0  0
 29 27  1  0  0  0  0
 29 24  1  0  0  0  0
 30 22  1  0  0  0  0
 31 22  1  0  0  0  0
 32 31  1  0  0  0  0
M  END
>  <minimizedAffinity>
-5.2437005

$$$$

 OpenBabel03262520343D

 32 34  0  0  1  0  0  0  0  0999 V2000
   37.8450   26.9770   30.8830 O   0  0  0  0  0  0  0  0  0  0  0  0
   36.6050   26.3900   31.5860 P   0  0  2  0  0  0  0  0  0  0  0  0
   35.5960   25.6210   30.4900 O   0  0  0  0  0  0  0  0  0  0  0  0
   35.7830   25.8370   29.5550 H   0  0  0  0  0  0  0  0  0  0  0  0
   35.8090   27.7830   32.1830 O   0  0  0  0  0  0  0  0  0  0  0  0
   36.5980   28.3180   33.2100 C   0  0  0  0  0  0  0  0  0  0  0  0
   37.0670   27.4640   33.7670 H   0  0  0  0  0  0  0  0  0  0  0  0
   37.4100   28.9670   32.8560 H   0  0  0  0  0  0  0  0  0  0  0  0
   35.5690   30.3200   34.2420 C   0  0  0  0  0  3  0  0  0  0  0  0
   35.7760   29.0310   34.2140 C   0  0  0  0  0  3  0  0  0  0  0  0
   34.3640   32.2340   37.1300 C   0  0  0  0  0  0  0  0  0  0  0  0
   33.0660   31.7470   37.2880 C   0  0  0  0  0  0  0  0  0  0  0  0
   32.6210   30.7700   36.4050 C   0  0  0  0  0  0  0  0  0  0  0  0
   33.4980   30.3480   35.4270 N   0  0  0  0  0  0  0  0  0  0  0  0
   34.7240   30.8410   35.3140 C   0  0  0  0  0  0  0  0  0  0  0  0
   35.1470   31.7810   36.1680 N   0  0  0  0  0  0  0  0  0  0  0  0
   34.6830   33.0070   37.8460 H   0  0  0  0  0  0  0  0  0  0  0  0
   32.3610   32.0510   38.0310 H   0  0  0  0  0  0  0  0  0  0  0  0
   31.6220   30.3390   36.4600 H   0  0  0  0  0  0  0  0  0  0  0  0
   37.0830   25.3890   32.8470 O   0  0  0  0  0  0  0  0  0  0  0  0
   38.4260   25.0310   32.7980 C   0  0  0  0  0  2  0  0  0  0  0  0
   38.9570   25.2630   34.2060 C   0  0  1  0  0  0  0  0  0  0  0  0
   37.8480   25.2700   35.1580 C   0  0  0  0  0  2  0  0  0  0  0  0
   38.1290   24.5150   36.3120 N   0  0  0  0  0  0  0  0  0  0  0  0
   38.2260   24.1360   37.6540 C   0  0  0  0  0  0  0  0  0  0  0  0
   37.6870   24.4410   38.7560 O   0  0  0  0  0  0  0  0  0  0  0  0
   39.2850   23.1490   37.3200 C   0  0  0  0  0  3  0  0  0  0  0  0
   40.2730   23.6000   37.4720 H   0  0  0  0  0  0  0  0  0  0  0  0
   38.7200   23.2810   35.9470 C   0  0  2  0  0  3  0  0  0  0  0  0
   39.9330   23.8060   34.6800 S   0  0  0  0  0  0  0  0  0  0  0  0
   39.7950   26.5180   34.1980 C   0  0  0  0  0  2  0  0  0  0  0  0
   40.2220   26.6300   33.1750 H   0  0  0  0  0  0  0  0  0  0  0  0
  2  1  2  6  0  0  0
  2  5  1  0  0  0  0
  2 20  1  0  0  0  0
  3  2  1  0  0  0  0
  4  3  1  0  0  0  0
  5  6  1  0  0  0  0
  6  7  1  0  0  0  0
  6 10  1  0  0  0  0
  8  6  1  0  0  0  0
  9 15  1  0  0  0  0
 10  9  2  0  0  0  0
 11 12  1  0  0  0  0
 11 17  1  0  0  0  0
 12 18  1  0  0  0  0
 13 19  1  0  0  0  0
 13 12  2  0  0  0  0
 14 13  1  0  0  0  0
 15 14  2  0  0  0  0
 15 16  1  0  0  0  0
 16 11  2  0  0  0  0
 21 20  1  0  0  0  0
 22 21  1  6  0  0  0
 22 30  1  0  0  0  0
 22 23  1  0  0  0  0
 23 24  1  0  0  0  0
 24 25  1  0  0  0  0
 25 26  2  0  0  0  0
 27 28  1  0  0  0  0
 27 25  1  0  0  0  0
 29 30  1  6  0  0  0
 29 24  1  0  0  0  0
 29 27  1  0  0  0  0
 31 22  1  0  0  0  0
 32 31  1  0  0  0  0
M  END
>  <minimizedAffinity>
-5.22427607

$$$$

 OpenBabel03262520343D

 32 34  0  0  1  0  0  0  0  0999 V2000
   36.8880   28.2290   32.1000 O   0  0  0  0  0  0  0  0  0  0  0  0
   37.5080   26.8510   31.7940 P   0  0  2  0  0  0  0  0  0  0  0  0
   37.7410   26.6470   30.1460 O   0  0  0  0  0  0  0  0  0  0  0  0
   37.2590   27.2900   29.5900 H   0  0  0  0  0  0  0  0  0  0  0  0
   36.2960   25.7620   32.3160 O   0  0  0  0  0  0  0  0  0  0  0  0
   35.7250   25.1800   31.1750 C   0  0  0  0  0  0  0  0  0  0  0  0
   34.6680   25.5470   31.0910 H   0  0  0  0  0  0  0  0  0  0  0  0
   36.2400   25.4370   30.2390 H   0  0  0  0  0  0  0  0  0  0  0  0
   36.4090   22.9570   32.0240 C   0  0  0  0  0  3  0  0  0  0  0  0
   35.6160   23.7100   31.3100 C   0  0  0  0  0  3  0  0  0  0  0  0
   35.4410   19.5850   33.0980 C   0  0  0  0  0  0  0  0  0  0  0  0
   35.6730   18.8290   31.9480 C   0  0  0  0  0  0  0  0  0  0  0  0
   36.1590   19.4830   30.8210 C   0  0  0  0  0  0  0  0  0  0  0  0
   36.3770   20.8420   30.9180 N   0  0  0  0  0  0  0  0  0  0  0  0
   36.1410   21.5200   32.0340 C   0  0  0  0  0  0  0  0  0  0  0  0
   35.6750   20.8840   33.1150 N   0  0  0  0  0  0  0  0  0  0  0  0
   35.0570   19.0350   33.9710 H   0  0  0  0  0  0  0  0  0  0  0  0
   35.5150   17.7790   31.8370 H   0  0  0  0  0  0  0  0  0  0  0  0
   36.3650   18.9670   29.8850 H   0  0  0  0  0  0  0  0  0  0  0  0
   38.9180   26.6480   32.6840 O   0  0  0  0  0  0  0  0  0  0  0  0
   39.1470   25.3330   33.0720 C   0  0  0  0  0  2  0  0  0  0  0  0
   39.4030   25.3940   34.5720 C   0  0  1  0  0  0  0  0  0  0  0  0
   38.2250   24.9210   35.2960 C   0  0  0  0  0  2  0  0  0  0  0  0
   38.5560   24.0410   36.3420 N   0  0  0  0  0  0  0  0  0  0  0  0
   38.5830   23.4290   37.5980 C   0  0  0  0  0  0  0  0  0  0  0  0
   37.8420   23.3520   38.6190 O   0  0  0  0  0  0  0  0  0  0  0  0
   39.9130   22.8350   37.3050 C   0  0  0  0  0  3  0  0  0  0  0  0
   40.7030   23.4820   37.7050 H   0  0  0  0  0  0  0  0  0  0  0  0
   39.5160   23.1010   35.8930 C   0  0  2  0  0  3  0  0  0  0  0  0
   40.6830   24.1690   34.9700 S   0  0  0  0  0  0  0  0  0  0  0  0
   39.8430   26.7940   34.9220 C   0  0  0  0  0  2  0  0  0  0  0  0
   40.3500   27.2210   34.0250 H   0  0  0  0  0  0  0  0  0  0  0  0
  2  1  2  1  0  0  0
  2  5  1  0  0  0  0
  2 20  1  0  0  0  0
  3  2  1  0  0  0  0
  4  3  1  0  0  0  0
  6 10  1  0  0  0  0
  6  5  1  0  0  0  0
  7  6  1  0  0  0  0
  8  6  1  0  0  0  0
  9 15  1  0  0  0  0
 10  9  2  0  0  0  0
 11 16  1  0  0  0  0
 11 17  1  0  0  0  0
 12 11  2  0  0  0  0
 13 14  2  0  0  0  0
 13 12  1  0  0  0  0
 14 15  1  0  0  0  0
 15 16  2  0  0  0  0
 18 12  1  0  0  0  0
 19 13  1  0  0  0  0
 20 21  1  0  0  0  0
 22 21  1  6  0  0  0
 22 31  1  0  0  0  0
 22 30  1  0  0  0  0
 22 23  1  0  0  0  0
 23 24  1  0  0  0  0
 24 25  1  0  0  0  0
 25 26  2  0  0  0  0
 27 25  1  0  0  0  0
 27 28  1  0  0  0  0
 29 30  1  6  0  0  0
 29 24  1  0  0  0  0
 29 27  1  0  0  0  0
 32 31  1  0  0  0  0
M  END
>  <minimizedAffinity>
-5.21988869

$$$$

 OpenBabel03262520343D

 32 34  0  0  1  0  0  0  0  0999 V2000
   36.8550   19.9650   32.4500 O   0  0  0  0  0  0  0  0  0  0  0  0
   36.2040   20.9790   33.4120 P   0  0  2  0  0  0  0  0  0  0  0  0
   35.4190   20.1980   34.6710 O   0  0  0  0  0  0  0  0  0  0  0  0
   35.2700   19.2440   34.5200 H   0  0  0  0  0  0  0  0  0  0  0  0
   35.0330   21.7430   32.4240 O   0  0  0  0  0  0  0  0  0  0  0  0
   35.6900   22.2380   31.2890 C   0  0  0  0  0  0  0  0  0  0  0  0
   36.6900   21.7330   31.2210 H   0  0  0  0  0  0  0  0  0  0  0  0
   35.1580   22.0470   30.3470 H   0  0  0  0  0  0  0  0  0  0  0  0
   37.1110   24.2530   31.0650 C   0  0  0  0  0  3  0  0  0  0  0  0
   35.9930   23.6810   31.4210 C   0  0  0  0  0  3  0  0  0  0  0  0
   38.2090   27.7470   30.8390 C   0  0  0  0  0  0  0  0  0  0  0  0
   37.3510   28.3860   31.7360 C   0  0  0  0  0  0  0  0  0  0  0  0
   36.4090   27.6130   32.4050 C   0  0  0  0  0  0  0  0  0  0  0  0
   36.3870   26.2600   32.1350 N   0  0  0  0  0  0  0  0  0  0  0  0
   37.2230   25.6950   31.2730 C   0  0  0  0  0  0  0  0  0  0  0  0
   38.1280   26.4450   30.6330 N   0  0  0  0  0  0  0  0  0  0  0  0
   38.9420   28.3890   30.3270 H   0  0  0  0  0  0  0  0  0  0  0  0
   37.3400   29.4280   31.9680 H   0  0  0  0  0  0  0  0  0  0  0  0
   35.7040   28.0340   33.1190 H   0  0  0  0  0  0  0  0  0  0  0  0
   37.3520   22.0830   33.9420 O   0  0  0  0  0  0  0  0  0  0  0  0
   37.5700   22.0450   35.3150 C   0  0  0  0  0  2  0  0  0  0  0  0
   38.6170   23.1180   35.5860 C   0  0  1  0  0  0  0  0  0  0  0  0
   38.8920   23.8630   34.3600 C   0  0  0  0  0  2  0  0  0  0  0  0
   38.9400   25.2530   34.5770 N   0  0  0  0  0  0  0  0  0  0  0  0
   39.3570   26.5860   34.5290 C   0  0  0  0  0  0  0  0  0  0  0  0
   40.0770   27.3160   33.7900 O   0  0  0  0  0  0  0  0  0  0  0  0
   38.5920   26.8920   35.7650 C   0  0  0  0  0  3  0  0  0  0  0  0
   39.2520   26.8130   36.6380 H   0  0  0  0  0  0  0  0  0  0  0  0
   37.8570   25.6480   35.3980 C   0  0  2  0  0  3  0  0  0  0  0  0
   37.8750   24.3520   36.6920 S   0  0  0  0  0  0  0  0  0  0  0  0
   39.8210   22.4590   36.2130 C   0  0  0  0  0  2  0  0  0  0  0  0
   39.4620   21.5610   36.7660 H   0  0  0  0  0  0  0  0  0  0  0  0
  2  1  2  6  0  0  0
  2 20  1  0  0  0  0
  2  3  1  0  0  0  0
  4  3  1  0  0  0  0
  5  2  1  0  0  0  0
  6 10  1  0  0  0  0
  6  5  1  0  0  0  0
  7  6  1  0  0  0  0
  8  6  1  0  0  0  0
  9 15  1  0  0  0  0
  9 10  2  0  0  0  0
 11 12  1  0  0  0  0
 12 18  1  0  0  0  0
 12 13  2  0  0  0  0
 13 19  1  0  0  0  0
 14 13  1  0  0  0  0
 15 14  2  0  0  0  0
 16 11  2  0  0  0  0
 16 15  1  0  0  0  0
 17 11  1  0  0  0  0
 20 21  1  0  0  0  0
 22 21  1  6  0  0  0
 22 31  1  0  0  0  0
 22 30  1  0  0  0  0
 23 24  1  0  0  0  0
 23 22  1  0  0  0  0
 24 29  1  0  0  0  0
 25 24  1  0  0  0  0
 25 27  1  0  0  0  0
 26 25  2  0  0  0  0
 27 28  1  0  0  0  0
 29 27  1  1  0  0  0
 29 30  1  0  0  0  0
 31 32  1  0  0  0  0
M  END
>  <minimizedAffinity>
-5.15868998

$$$$

 OpenBabel03262520343D

 32 34  0  0  1  0  0  0  0  0999 V2000
   38.8110   26.1340   30.4180 O   0  0  0  0  0  0  0  0  0  0  0  0
   37.6420   26.3990   31.3870 P   0  0  2  0  0  0  0  0  0  0  0  0
   36.1670   26.0930   30.6520 O   0  0  0  0  0  0  0  0  0  0  0  0
   36.2110   26.0220   29.6780 H   0  0  0  0  0  0  0  0  0  0  0  0
   37.7680   28.0800   31.6870 O   0  0  0  0  0  0  0  0  0  0  0  0
   36.4950   28.6400   31.5120 C   0  0  0  0  0  0  0  0  0  0  0  0
   36.5490   29.3610   30.6540 H   0  0  0  0  0  0  0  0  0  0  0  0
   35.7130   27.9050   31.2790 H   0  0  0  0  0  0  0  0  0  0  0  0
   35.1490   29.1510   33.5280 C   0  0  0  0  0  3  0  0  0  0  0  0
   36.0950   29.4570   32.6800 C   0  0  0  0  0  3  0  0  0  0  0  0
   35.6220   31.6520   36.1690 C   0  0  0  0  0  0  0  0  0  0  0  0
   34.3270   31.8080   36.6650 C   0  0  0  0  0  0  0  0  0  0  0  0
   33.3100   31.0550   36.0890 C   0  0  0  0  0  0  0  0  0  0  0  0
   33.6530   30.2020   35.0610 N   0  0  0  0  0  0  0  0  0  0  0  0
   34.8990   30.0860   34.6220 C   0  0  0  0  0  0  0  0  0  0  0  0
   35.8740   30.8140   35.1810 N   0  0  0  0  0  0  0  0  0  0  0  0
   36.4020   32.2640   36.6480 H   0  0  0  0  0  0  0  0  0  0  0  0
   34.0260   32.4580   37.4570 H   0  0  0  0  0  0  0  0  0  0  0  0
   32.2740   31.1190   36.4180 H   0  0  0  0  0  0  0  0  0  0  0  0
   37.8620   25.5210   32.8010 O   0  0  0  0  0  0  0  0  0  0  0  0
   37.3620   26.1550   33.9340 C   0  0  0  0  0  2  0  0  0  0  0  0
   38.4200   25.9470   35.0110 C   0  0  1  0  0  0  0  0  0  0  0  0
   38.0600   24.8020   35.8440 C   0  0  0  0  0  2  0  0  0  0  0  0
   39.1560   23.9540   36.0900 N   0  0  0  0  0  0  0  0  0  0  0  0
   40.0700   23.1330   36.7570 C   0  0  0  0  0  0  0  0  0  0  0  0
   40.1180   22.4540   37.8210 O   0  0  0  0  0  0  0  0  0  0  0  0
   41.0750   23.3450   35.6830 C   0  0  0  0  0  3  0  0  0  0  0  0
   41.7490   24.1650   35.9620 H   0  0  0  0  0  0  0  0  0  0  0  0
   39.8760   23.7380   34.8910 C   0  0  2  0  0  3  0  0  0  0  0  0
   39.9550   25.4280   34.1910 S   0  0  0  0  0  0  0  0  0  0  0  0
   38.5980   27.2460   35.7580 C   0  0  0  0  0  2  0  0  0  0  0  0
   38.3510   28.0740   35.0550 H   0  0  0  0  0  0  0  0  0  0  0  0
  2  1  2  6  0  0  0
  2  5  1  0  0  0  0
  2 20  1  0  0  0  0
  3  2  1  0  0  0  0
  4  3  1  0  0  0  0
  6  5  1  0  0  0  0
  6 10  1  0  0  0  0
  7  6  1  0  0  0  0
  8  6  1  0  0  0  0
  9 15  1  0  0  0  0
 10  9  2  0  0  0  0
 11 17  1  0  0  0  0
 11 12  1  0  0  0  0
 12 18  1  0  0  0  0
 13 19  1  0  0  0  0
 13 12  2  0  0  0  0
 14 13  1  0  0  0  0
 15 14  2  0  0  0  0
 15 16  1  0  0  0  0
 16 11  2  0  0  0  0
 20 21  1  0  0  0  0
 22 21  1  6  0  0  0
 22 31  1  0  0  0  0
 22 23  1  0  0  0  0
 23 24  1  0  0  0  0
 24 25  1  0  0  0  0
 25 26  2  0  0  0  0
 27 28  1  0  0  0  0
 27 25  1  0  0  0  0
 29 30  1  1  0  0  0
 29 27  1  0  0  0  0
 29 24  1  0  0  0  0
 30 22  1  0  0  0  0
 32 31  1  0  0  0  0
M  END
>  <minimizedAffinity>
-5.01637506

$$$$

 OpenBabel03262520343D

 32 34  0  0  1  0  0  0  0  0999 V2000
   37.0000   20.0950   32.4050 O   0  0  0  0  0  0  0  0  0  0  0  0
   36.2380   20.9600   33.4280 P   0  0  2  0  0  0  0  0  0  0  0  0
   35.4060   20.0060   34.5260 O   0  0  0  0  0  0  0  0  0  0  0  0
   35.3130   19.0710   34.2550 H   0  0  0  0  0  0  0  0  0  0  0  0
   35.1030   21.7920   32.4530 O   0  0  0  0  0  0  0  0  0  0  0  0
   35.6810   21.9800   31.1910 C   0  0  0  0  0  0  0  0  0  0  0  0
   36.5440   21.2680   31.0960 H   0  0  0  0  0  0  0  0  0  0  0  0
   34.9980   21.7840   30.3530 H   0  0  0  0  0  0  0  0  0  0  0  0
   35.7240   24.4390   31.4710 C   0  0  0  0  0  3  0  0  0  0  0  0
   36.2750   23.3290   31.0590 C   0  0  0  0  0  3  0  0  0  0  0  0
   36.5530   27.9520   30.8100 C   0  0  0  0  0  0  0  0  0  0  0  0
   37.9480   27.9410   30.8540 C   0  0  0  0  0  0  0  0  0  0  0  0
   38.5860   26.7320   31.1090 C   0  0  0  0  0  0  0  0  0  0  0  0
   37.7910   25.6210   31.3030 N   0  0  0  0  0  0  0  0  0  0  0  0
   36.4670   25.6790   31.2520 C   0  0  0  0  0  0  0  0  0  0  0  0
   35.8590   26.8460   31.0050 N   0  0  0  0  0  0  0  0  0  0  0  0
   36.0820   28.9250   30.6060 H   0  0  0  0  0  0  0  0  0  0  0  0
   38.5930   28.7790   30.7100 H   0  0  0  0  0  0  0  0  0  0  0  0
   39.6700   26.6390   31.1610 H   0  0  0  0  0  0  0  0  0  0  0  0
   37.2940   22.0370   34.1660 O   0  0  0  0  0  0  0  0  0  0  0  0
   37.3830   21.8760   35.5440 C   0  0  0  0  0  2  0  0  0  0  0  0
   38.3530   22.9520   36.0150 C   0  0  1  0  0  0  0  0  0  0  0  0
   39.6340   22.3430   36.3670 C   0  0  0  0  0  2  0  0  0  0  0  0
   40.7280   23.0660   35.8580 N   0  0  0  0  0  0  0  0  0  0  0  0
   41.9670   23.7090   35.7760 C   0  0  0  0  0  0  0  0  0  0  0  0
   43.0760   23.6860   36.3800 O   0  0  0  0  0  0  0  0  0  0  0  0
   41.4970   24.5110   34.6170 C   0  0  0  0  0  3  0  0  0  0  0  0
   41.1220   25.4810   34.9650 H   0  0  0  0  0  0  0  0  0  0  0  0
   40.4810   23.4260   34.5110 C   0  0  2  0  0  3  0  0  0  0  0  0
   38.7460   24.0070   34.5900 S   0  0  0  0  0  0  0  0  0  0  0  0
   37.6940   23.7330   37.1240 C   0  0  0  0  0  2  0  0  0  0  0  0
   36.5930   23.6950   36.9540 H   0  0  0  0  0  0  0  0  0  0  0  0
  2  1  2  6  0  0  0
  2 20  1  0  0  0  0
  2  3  1  0  0  0  0
  4  3  1  0  0  0  0
  5  2  1  0  0  0  0
  6  5  1  0  0  0  0
  7  6  1  0  0  0  0
  8  6  1  0  0  0  0
 10  6  1  0  0  0  0
 10  9  2  0  0  0  0
 11 12  2  0  0  0  0
 11 16  1  0  0  0  0
 12 13  1  0  0  0  0
 13 19  1  0  0  0  0
 13 14  2  0  0  0  0
 15 14  1  0  0  0  0
 15  9  1  0  0  0  0
 16 15  2  0  0  0  0
 17 11  1  0  0  0  0
 18 12  1  0  0  0  0
 20 21  1  0  0  0  0
 22 21  1  6  0  0  0
 22 23  1  0  0  0  0
 22 31  1  0  0  0  0
 24 23  1  0  0  0  0
 25 24  1  0  0  0  0
 25 26  2  0  0  0  0
 27 28  1  0  0  0  0
 27 25  1  0  0  0  0
 29 30  1  1  0  0  0
 29 27  1  0  0  0  0
 29 24  1  0  0  0  0
 30 22  1  0  0  0  0
 32 31  1  0  0  0  0
M  END
>  <minimizedAffinity>
-4.92527723

$$$$

 OpenBabel03262520343D

 32 34  0  0  1  0  0  0  0  0999 V2000
   35.3850   28.0100   32.1430 O   0  0  0  0  0  0  0  0  0  0  0  0
   36.8820   27.6930   31.9600 P   0  0  2  0  0  0  0  0  0  0  0  0
   37.6270   28.8360   30.9850 O   0  0  0  0  0  0  0  0  0  0  0  0
   37.0060   29.3990   30.4810 H   0  0  0  0  0  0  0  0  0  0  0  0
   36.8560   26.1970   31.1280 O   0  0  0  0  0  0  0  0  0  0  0  0
   35.5190   25.7910   31.0220 C   0  0  0  0  0  0  0  0  0  0  0  0
   34.9510   26.2450   31.8780 H   0  0  0  0  0  0  0  0  0  0  0  0
   35.0280   26.1120   30.0930 H   0  0  0  0  0  0  0  0  0  0  0  0
   36.3590   23.4660   31.1620 C   0  0  0  0  0  3  0  0  0  0  0  0
   35.3780   24.3280   31.1950 C   0  0  0  0  0  3  0  0  0  0  0  0
   34.7420   20.3810   32.3140 C   0  0  0  0  0  0  0  0  0  0  0  0
   35.4710   19.3970   31.6460 C   0  0  0  0  0  0  0  0  0  0  0  0
   36.5060   19.8020   30.8110 C   0  0  0  0  0  0  0  0  0  0  0  0
   36.7410   21.1560   30.6990 N   0  0  0  0  0  0  0  0  0  0  0  0
   36.0210   22.0580   31.3540 C   0  0  0  0  0  0  0  0  0  0  0  0
   35.0260   21.6610   32.1570 N   0  0  0  0  0  0  0  0  0  0  0  0
   33.9300   20.0250   32.9670 H   0  0  0  0  0  0  0  0  0  0  0  0
   35.3160   18.3420   31.7080 H   0  0  0  0  0  0  0  0  0  0  0  0
   37.1210   19.0970   30.2540 H   0  0  0  0  0  0  0  0  0  0  0  0
   37.6210   27.5310   33.4590 O   0  0  0  0  0  0  0  0  0  0  0  0
   37.3490   26.3210   34.0870 C   0  0  0  0  0  2  0  0  0  0  0  0
   38.4990   26.1050   35.0620 C   0  0  1  0  0  0  0  0  0  0  0  0
   38.4910   24.7240   35.5400 C   0  0  0  0  0  2  0  0  0  0  0  0
   39.7750   24.1480   35.5380 N   0  0  0  0  0  0  0  0  0  0  0  0
   40.9070   23.4380   35.9470 C   0  0  0  0  0  0  0  0  0  0  0  0
   41.1940   22.5310   36.7780 O   0  0  0  0  0  0  0  0  0  0  0  0
   41.7500   24.1810   34.9750 C   0  0  0  0  0  3  0  0  0  0  0  0
   42.2220   25.0380   35.4730 H   0  0  0  0  0  0  0  0  0  0  0  0
   40.4370   24.4560   34.3260 C   0  0  2  0  0  3  0  0  0  0  0  0
   40.0510   26.2350   34.1280 S   0  0  0  0  0  0  0  0  0  0  0  0
   38.4080   27.1520   36.1430 C   0  0  0  0  0  2  0  0  0  0  0  0
   37.9180   28.0500   35.7010 H   0  0  0  0  0  0  0  0  0  0  0  0
  2  1  2  1  0  0  0
  2 20  1  0  0  0  0
  3  2  1  0  0  0  0
  4  3  1  0  0  0  0
  5  2  1  0  0  0  0
  6  5  1  0  0  0  0
  6 10  1  0  0  0  0
  6  7  1  0  0  0  0
  8  6  1  0  0  0  0
  9 10  2  0  0  0  0
  9 15  1  0  0  0  0
 11 17  1  0  0  0  0
 12 18  1  0  0  0  0
 12 11  2  0  0  0  0
 13 12  1  0  0  0  0
 14 13  2  0  0  0  0
 14 15  1  0  0  0  0
 15 16  2  0  0  0  0
 16 11  1  0  0  0  0
 19 13  1  0  0  0  0
 20 21  1  0  0  0  0
 22 21  1  6  0  0  0
 22 23  1  0  0  0  0
 22 31  1  0  0  0  0
 24 23  1  0  0  0  0
 24 25  1  0  0  0  0
 25 26  2  0  0  0  0
 27 28  1  0  0  0  0
 27 25  1  0  0  0  0
 29 30  1  1  0  0  0
 29 27  1  0  0  0  0
 29 24  1  0  0  0  0
 30 22  1  0  0  0  0
 32 31  1  0  0  0  0
M  END
>  <minimizedAffinity>
-4.89923191

$$$$

 OpenBabel03262520343D

 32 34  0  0  1  0  0  0  0  0999 V2000
   37.3800   20.4800   32.0110 O   0  0  0  0  0  0  0  0  0  0  0  0
   36.8620   21.3940   33.1380 P   0  0  2  0  0  0  0  0  0  0  0  0
   35.7730   20.5830   34.1210 O   0  0  0  0  0  0  0  0  0  0  0  0
   35.4330   19.7490   33.7400 H   0  0  0  0  0  0  0  0  0  0  0  0
   36.0220   22.6170   32.2820 O   0  0  0  0  0  0  0  0  0  0  0  0
   36.8090   22.9840   31.1820 C   0  0  0  0  0  0  0  0  0  0  0  0
   37.8690   22.6880   31.4020 H   0  0  0  0  0  0  0  0  0  0  0  0
   36.5170   22.4960   30.2420 H   0  0  0  0  0  0  0  0  0  0  0  0
   36.2380   25.3210   31.7690 C   0  0  0  0  0  3  0  0  0  0  0  0
   36.8450   24.4530   31.0050 C   0  0  0  0  0  3  0  0  0  0  0  0
   35.7280   28.9490   31.5870 C   0  0  0  0  0  0  0  0  0  0  0  0
   36.7650   29.3530   30.7440 C   0  0  0  0  0  0  0  0  0  0  0  0
   37.6250   28.3780   30.2500 C   0  0  0  0  0  0  0  0  0  0  0  0
   37.3910   27.0720   30.6290 N   0  0  0  0  0  0  0  0  0  0  0  0
   36.3920   26.7350   31.4340 C   0  0  0  0  0  0  0  0  0  0  0  0
   35.5680   27.6780   31.9050 N   0  0  0  0  0  0  0  0  0  0  0  0
   35.0670   29.7470   31.9590 H   0  0  0  0  0  0  0  0  0  0  0  0
   36.9750   30.3520   30.4310 H   0  0  0  0  0  0  0  0  0  0  0  0
   38.4580   28.6090   29.5890 H   0  0  0  0  0  0  0  0  0  0  0  0
   38.1550   22.0420   33.9900 O   0  0  0  0  0  0  0  0  0  0  0  0
   37.9120   22.1800   35.3530 C   0  0  0  0  0  2  0  0  0  0  0  0
   38.8840   23.2530   35.8280 C   0  0  1  0  0  0  0  0  0  0  0  0
   39.5340   23.8770   34.6780 C   0  0  0  0  0  2  0  0  0  0  0  0
   39.5800   25.2790   34.7850 N   0  0  0  0  0  0  0  0  0  0  0  0
   40.0540   26.5940   34.7510 C   0  0  0  0  0  0  0  0  0  0  0  0
   40.9880   27.2400   34.1980 O   0  0  0  0  0  0  0  0  0  0  0  0
   38.9790   27.0270   35.6810 C   0  0  0  0  0  3  0  0  0  0  0  0
   39.3540   27.0160   36.7120 H   0  0  0  0  0  0  0  0  0  0  0  0
   38.3250   25.7690   35.2200 C   0  0  2  0  0  3  0  0  0  0  0  0
   37.9100   24.5980   36.5640 S   0  0  0  0  0  0  0  0  0  0  0  0
   39.8240   22.6310   36.8310 C   0  0  0  0  0  2  0  0  0  0  0  0
   39.2810   21.7940   37.3270 H   0  0  0  0  0  0  0  0  0  0  0  0
  2  1  2  6  0  0  0
  2 20  1  0  0  0  0
  2  3  1  0  0  0  0
  4  3  1  0  0  0  0
  5  2  1  0  0  0  0
  6  7  1  0  0  0  0
  6  5  1  0  0  0  0
  8  6  1  0  0  0  0
 10  6  1  0  0  0  0
 10  9  2  0  0  0  0
 11 16  1  0  0  0  0
 11 17  1  0  0  0  0
 12 11  2  0  0  0  0
 13 14  2  0  0  0  0
 13 12  1  0  0  0  0
 14 15  1  0  0  0  0
 15  9  1  0  0  0  0
 15 16  2  0  0  0  0
 18 12  1  0  0  0  0
 19 13  1  0  0  0  0
 20 21  1  0  0  0  0
 22 21  1  6  0  0  0
 22 30  1  0  0  0  0
 22 31  1  0  0  0  0
 23 24  1  0  0  0  0
 23 22  1  0  0  0  0
 24 29  1  0  0  0  0
 25 24  1  0  0  0  0
 25 27  1  0  0  0  0
 26 25  2  0  0  0  0
 27 28  1  0  0  0  0
 29 27  1  1  0  0  0
 29 30  1  0  0  0  0
 31 32  1  0  0  0  0
M  END
>  <minimizedAffinity>
-4.86713552

$$$$

 OpenBabel03262520343D

 32 34  0  0  1  0  0  0  0  0999 V2000
   38.5150   26.6950   30.7210 O   0  0  0  0  0  0  0  0  0  0  0  0
   37.1240   26.2300   31.1930 P   0  0  2  0  0  0  0  0  0  0  0  0
   35.9090   26.9270   30.2720 O   0  0  0  0  0  0  0  0  0  0  0  0
   36.2010   27.6900   29.7340 H   0  0  0  0  0  0  0  0  0  0  0  0
   37.0320   26.8540   32.7850 O   0  0  0  0  0  0  0  0  0  0  0  0
   38.3430   27.0520   33.2400 C   0  0  0  0  0  0  0  0  0  0  0  0
   39.0440   26.7740   32.4090 H   0  0  0  0  0  0  0  0  0  0  0  0
   38.5630   28.0900   33.5260 H   0  0  0  0  0  0  0  0  0  0  0  0
   37.8120   25.5790   35.1580 C   0  0  0  0  0  3  0  0  0  0  0  0
   38.6770   26.1350   34.3530 C   0  0  0  0  0  3  0  0  0  0  0  0
   38.2970   23.8410   38.3530 C   0  0  0  0  0  0  0  0  0  0  0  0
   39.3900   23.0180   38.0800 C   0  0  0  0  0  0  0  0  0  0  0  0
   39.9470   23.0680   36.8070 C   0  0  0  0  0  0  0  0  0  0  0  0
   39.3760   23.9330   35.8960 N   0  0  0  0  0  0  0  0  0  0  0  0
   38.3360   24.6980   36.2000 C   0  0  0  0  0  0  0  0  0  0  0  0
   37.8050   24.6450   37.4280 N   0  0  0  0  0  0  0  0  0  0  0  0
   37.8820   23.7750   39.3700 H   0  0  0  0  0  0  0  0  0  0  0  0
   39.8560   22.3370   38.7580 H   0  0  0  0  0  0  0  0  0  0  0  0
   40.8000   22.4580   36.5130 H   0  0  0  0  0  0  0  0  0  0  0  0
   37.0540   24.5520   31.2040 O   0  0  0  0  0  0  0  0  0  0  0  0
   38.2860   23.9410   30.9970 C   0  0  0  0  0  2  0  0  0  0  0  0
   38.2250   22.6370   31.7800 C   0  0  1  0  0  0  0  0  0  0  0  0
   37.4550   22.8310   33.0070 C   0  0  0  0  0  2  0  0  0  0  0  0
   36.5420   21.7850   33.2370 N   0  0  0  0  0  0  0  0  0  0  0  0
   35.8080   20.7880   33.8850 C   0  0  0  0  0  0  0  0  0  0  0  0
   35.4740   20.4880   35.0670 O   0  0  0  0  0  0  0  0  0  0  0  0
   35.5190   20.1270   32.5860 C   0  0  0  0  0  3  0  0  0  0  0  0
   36.2550   19.3350   32.4010 H   0  0  0  0  0  0  0  0  0  0  0  0
   35.8620   21.4690   32.0360 C   0  0  2  0  0  3  0  0  0  0  0  0
   37.2320   21.4570   30.8210 S   0  0  0  0  0  0  0  0  0  0  0  0
   39.6350   22.1410   31.9870 C   0  0  0  0  0  2  0  0  0  0  0  0
   40.2500   22.5120   31.1350 H   0  0  0  0  0  0  0  0  0  0  0  0
  2  1  2  6  0  0  0
  2 20  1  0  0  0  0
  2  5  1  0  0  0  0
  3  2  1  0  0  0  0
  4  3  1  0  0  0  0
  5  6  1  0  0  0  0
  6  8  1  0  0  0  0
  6 10  1  0  0  0  0
  7  6  1  0  0  0  0
  9 15  1  0  0  0  0
 10  9  2  0  0  0  0
 11 17  1  0  0  0  0
 12 11  1  0  0  0  0
 12 18  1  0  0  0  0
 13 12  2  0  0  0  0
 14 15  2  0  0  0  0
 14 13  1  0  0  0  0
 15 16  1  0  0  0  0
 16 11  2  0  0  0  0
 19 13  1  0  0  0  0
 21 20  1  0  0  0  0
 22 21  1  6  0  0  0
 22 31  1  0  0  0  0
 22 23  1  0  0  0  0
 23 24  1  0  0  0  0
 24 25  1  0  0  0  0
 25 26  2  0  0  0  0
 27 25  1  0  0  0  0
 28 27  1  0  0  0  0
 29 30  1  6  0  0  0
 29 27  1  0  0  0  0
 29 24  1  0  0  0  0
 30 22  1  0  0  0  0
 32 31  1  0  0  0  0
M  END
>  <minimizedAffinity>
-4.81201124

$$$$
