
 OpenBabel03262520333D

 32 34  0  0  1  0  0  0  0  0999 V2000
   31.3160   26.6050   46.5500 O   0  0  0  0  0  0  0  0  0  0  0  0
   30.8390   27.5020   47.7100 P   0  0  2  0  0  0  0  0  0  0  0  0
   30.5940   29.0780   47.1940 O   0  0  0  0  0  0  0  0  0  0  0  0
   30.9920   29.2820   46.3240 H   0  0  0  0  0  0  0  0  0  0  0  0
   32.1730   27.4770   48.7830 O   0  0  0  0  0  0  0  0  0  0  0  0
   33.3240   27.2160   48.0270 C   0  0  0  0  0  0  0  0  0  0  0  0
   33.6270   26.1520   48.2140 H   0  0  0  0  0  0  0  0  0  0  0  0
   33.1820   27.3350   46.9440 H   0  0  0  0  0  0  0  0  0  0  0  0
   34.7030   28.3860   49.7180 C   0  0  0  0  0  0  0  0  0  0  0  0
   34.4710   28.0330   48.4830 C   0  0  0  0  0  0  0  0  0  0  0  0
   37.3740   30.2430   51.4150 C   0  0  0  0  0  0  0  0  0  0  0  0
   38.1310   30.7190   50.3430 C   0  0  0  0  0  0  0  0  0  0  0  0
   37.7180   30.3980   49.0550 C   0  0  0  0  0  0  0  0  0  0  0  0
   36.5810   29.6270   48.9250 N   0  0  0  0  0  0  0  0  0  0  0  0
   35.8920   29.1960   49.9740 C   0  0  0  0  0  0  0  0  0  0  0  0
   36.2950   29.5090   51.2110 N   0  0  0  0  0  0  0  0  0  0  0  0
   37.7300   30.5160   52.4200 H   0  0  0  0  0  0  0  0  0  0  0  0
   39.0140   31.3160   50.4070 H   0  0  0  0  0  0  0  0  0  0  0  0
   38.2530   30.7290   48.1660 H   0  0  0  0  0  0  0  0  0  0  0  0
   29.4800   26.8310   48.4310 O   0  0  0  0  0  0  0  0  0  0  0  0
   29.4420   26.9940   49.8110 C   0  0  0  0  0  0  0  0  0  0  0  0
   28.1860   27.8100   50.0860 C   0  0  1  0  0  0  0  0  0  0  0  0
   28.5020   29.2360   50.0430 C   0  0  0  0  0  0  0  0  0  0  0  0
   27.5490   29.9740   49.3160 N   0  0  0  0  0  0  0  0  0  0  0  0
   26.6490   30.9810   48.9570 C   0  0  0  0  0  0  0  0  0  0  0  0
   26.4350   32.1930   49.2440 O   0  0  0  0  0  0  0  0  0  0  0  0
   25.9530   30.0560   48.0250 C   0  0  0  0  0  0  0  0  0  0  0  0
   25.0950   29.5970   48.5310 H   0  0  0  0  0  0  0  0  0  0  0  0
   27.2340   29.2990   48.1130 C   0  0  2  0  0  0  0  0  0  0  0  0
   27.0500   27.5700   48.6900 S   0  0  0  0  0  0  0  0  0  0  0  0
   27.5830   27.3320   51.3840 C   0  0  0  0  0  0  0  0  0  0  0  0
   27.8610   26.2600   51.5080 H   0  0  0  0  0  0  0  0  0  0  0  0
  2  1  2  6  0  0  0
  2 20  1  0  0  0  0
  2  5  1  0  0  0  0
  3  2  1  0  0  0  0
  4  3  1  0  0  0  0
  6  7  1  0  0  0  0
  6 10  1  0  0  0  0
  6  5  1  0  0  0  0
  8  6  1  0  0  0  0
  9 15  1  0  0  0  0
 10  9  2  0  0  0  0
 11 17  1  0  0  0  0
 12 18  1  0  0  0  0
 12 11  2  0  0  0  0
 13 12  1  0  0  0  0
 14 13  2  0  0  0  0
 14 15  1  0  0  0  0
 15 16  2  0  0  0  0
 16 11  1  0  0  0  0
 19 13  1  0  0  0  0
 20 21  1  0  0  0  0
 22 21  1  6  0  0  0
 22 31  1  0  0  0  0
 23 22  1  0  0  0  0
 24 23  1  0  0  0  0
 25 26  2  0  0  0  0
 25 24  1  0  0  0  0
 27 28  1  0  0  0  0
 27 25  1  0  0  0  0
 29 27  1  1  0  0  0
 29 30  1  0  0  0  0
 29 24  1  0  0  0  0
 30 22  1  0  0  0  0
 31 32  1  0  0  0  0
M  END
>  <minimizedAffinity>
-6.29066324

>  <minimizedRMSD>
2.18965816

$$$$
