
 OpenBabel03272507423D

 44 48  0  0  0  0  0  0  0  0999 V2000
   36.8030   31.1900   50.1230 C   0  0  0  0  0  0  0  0  0  0  0  0
   35.7650   30.2880   49.9070 C   0  0  0  0  0  0  0  0  0  0  0  0
   35.5950   29.1630   50.6840 C   0  0  0  0  0  0  0  0  0  0  0  0
   36.4970   28.9680   51.6850 N   0  0  0  0  0  0  0  0  0  0  0  0
   37.5140   29.8560   51.8940 C   0  0  0  0  0  0  0  0  0  0  0  0
   37.6450   30.9270   51.1260 N   0  0  0  0  0  0  0  0  0  0  0  0
   34.8340   28.4330   50.5840 H   0  0  0  0  0  0  0  0  0  0  0  0
   38.2130   29.6670   52.7020 H   0  0  0  0  0  0  0  0  0  0  0  0
   34.3330   29.2580   48.1820 C   0  0  0  0  0  0  0  0  0  0  0  0
   34.7480   28.0390   48.1600 O   0  0  0  0  0  0  0  0  0  0  0  0
   34.7860   30.3890   48.8990 N   0  0  0  0  0  0  0  0  0  0  0  0
   34.4630   31.3630   48.7620 H   0  0  0  0  0  0  0  0  0  0  0  0
   33.0710   30.4810   46.4140 C   0  0  0  0  0  3  0  0  0  0  0  0
   33.1910   29.4150   47.2810 C   0  0  0  0  0  0  0  0  0  0  0  0
   32.1400   28.5280   47.2060 C   0  0  0  0  0  0  0  0  0  0  0  0
   32.1180   27.6510   47.8350 H   0  0  0  0  0  0  0  0  0  0  0  0
   31.0490   28.6380   46.3730 C   0  0  0  0  0  0  0  0  0  0  0  0
   29.9460   27.9010   46.1530 N   0  0  0  0  0  0  0  0  0  0  0  0
   29.6880   27.0150   46.6240 H   0  0  0  0  0  0  0  0  0  0  0  0
   29.2250   28.4940   45.2200 N   0  0  0  0  0  0  0  0  0  0  0  0
   29.8170   29.6220   44.8000 C   0  0  0  0  0  0  0  0  0  0  0  0
   29.5080   30.3340   44.0630 H   0  0  0  0  0  0  0  0  0  0  0  0
   30.9830   29.7260   45.5280 C   0  0  0  0  0  0  0  0  0  0  0  0
   31.9950   30.6620   45.5380 C   0  0  0  0  0  3  0  0  0  0  0  0
   36.7960   32.2260   49.2570 O   0  0  0  0  0  0  0  0  0  0  0  0
   38.2470   32.2290   47.2610 C   0  0  0  0  0  0  0  0  0  0  0  0
   37.8850   32.6540   48.5320 C   0  0  0  0  0  0  0  0  0  0  0  0
   38.6540   33.5970   49.1850 C   0  0  0  0  0  0  0  0  0  0  0  0
   39.7850   34.1190   48.5710 C   0  0  0  0  0  0  0  0  0  0  0  0
   40.1380   33.6880   47.3040 C   0  0  0  0  0  0  0  0  0  0  0  0
   39.3550   32.7520   46.6830 C   0  0  0  0  0  0  0  0  0  0  0  0
   38.4340   33.9740   50.1730 H   0  0  0  0  0  0  0  0  0  0  0  0
   40.4020   34.8620   49.0710 H   0  0  0  0  0  0  0  0  0  0  0  0
   41.0120   34.0680   46.7860 H   0  0  0  0  0  0  0  0  0  0  0  0
   39.7440   32.2980   45.3250 C   0  0  0  0  0  0  0  0  0  0  0  0
   40.5810   31.2690   44.9490 C   0  0  0  0  0  0  0  0  0  0  0  0
   40.6180   31.2550   43.5580 C   0  0  0  0  0  0  0  0  0  0  0  0
   39.7880   32.2920   43.1670 C   0  0  0  0  0  0  0  0  0  0  0  0
   39.2830   32.8950   44.2310 O   0  0  0  0  0  0  0  0  0  0  0  0
   41.0900   30.6210   45.6650 H   0  0  0  0  0  0  0  0  0  0  0  0
   41.1800   30.5710   42.9610 H   0  0  0  0  0  0  0  0  0  0  0  0
   39.5700   32.5860   42.1500 H   0  0  0  0  0  0  0  0  0  0  0  0
   36.7360   30.4700   46.1350 N   0  0  0  0  0  0  0  0  0  0  0  0
   37.4060   31.2510   46.6480 C   0  0  0  0  0  0  0  0  0  0  0  0
  1  6  1  0  0  0  0
  2  1  2  0  0  0  0
  2  3  1  0  0  0  0
  3  4  2  0  0  0  0
  4  5  1  0  0  0  0
  5  8  1  0  0  0  0
  6  5  2  0  0  0  0
  7  3  1  0  0  0  0
  9 11  1  0  0  0  0
 10  9  2  0  0  0  0
 11  2  1  0  0  0  0
 12 11  1  0  0  0  0
 13 14  1  0  0  0  0
 14  9  1  0  0  0  0
 15 14  2  0  0  0  0
 15 16  1  0  0  0  0
 17 15  1  0  0  0  0
 18 17  1  0  0  0  0
 18 19  1  0  0  0  0
 20 18  1  0  0  0  0
 21 20  2  0  0  0  0
 21 23  1  0  0  0  0
 22 21  1  0  0  0  0
 23 24  1  0  0  0  0
 23 17  2  0  0  0  0
 24 13  2  0  0  0  0
 25  1  1  0  0  0  0
 26 27  1  0  0  0  0
 27 28  2  0  0  0  0
 27 25  1  0  0  0  0
 28 32  1  0  0  0  0
 29 33  1  0  0  0  0
 29 28  1  0  0  0  0
 30 29  2  0  0  0  0
 31 26  2  0  0  0  0
 31 30  1  0  0  0  0
 34 30  1  0  0  0  0
 35 31  1  0  0  0  0
 36 35  2  0  0  0  0
 36 40  1  0  0  0  0
 37 36  1  0  0  0  0
 38 37  2  0  0  0  0
 38 39  1  0  0  0  0
 39 35  1  0  0  0  0
 41 37  1  0  0  0  0
 42 38  1  0  0  0  0
 43 44  3  0  0  0  0
 44 26  1  0  0  0  0
M  END
>  <minimizedAffinity>
-6.35753822

>  <minimizedRMSD>
0.834527493

$$$$
