
 OpenBabel03272501093D

 43 47  0  0  1  0  0  0  0  0999 V2000
   36.6390   27.3240   34.8740 Cl  0  0  0  0  0  0  0  0  0  0  0  0
   36.6510   28.0000   33.2580 C   0  0  0  0  0  0  0  0  0  0  0  0
   37.4810   27.3260   32.3750 C   0  0  0  0  0  0  0  0  0  0  0  0
   37.4990   27.8490   31.0890 C   0  0  0  0  0  0  0  0  0  0  0  0
   36.7440   28.9530   30.7310 C   0  0  0  0  0  0  0  0  0  0  0  0
   35.9480   29.5690   31.6510 C   0  0  0  0  0  0  0  0  0  0  0  0
   35.8980   29.0900   32.9280 C   0  0  0  0  0  0  0  0  0  0  0  0
   38.0830   27.4620   30.2650 H   0  0  0  0  0  0  0  0  0  0  0  0
   36.7380   29.3830   29.7370 H   0  0  0  0  0  0  0  0  0  0  0  0
   35.3500   30.4330   31.3930 H   0  0  0  0  0  0  0  0  0  0  0  0
   33.7470   29.4820   34.2930 C   0  0  0  0  0  3  0  0  0  0  0  0
   35.0660   29.7040   33.9540 C   0  0  0  0  0  0  0  0  0  0  0  0
   35.8000   30.6620   34.6660 C   0  0  0  0  0  0  0  0  0  0  0  0
   36.8400   30.9390   34.5080 H   0  0  0  0  0  0  0  0  0  0  0  0
   35.2270   31.3900   35.7010 C   0  0  0  0  0  0  0  0  0  0  0  0
   35.6350   32.3470   36.5550 N   0  0  0  0  0  0  0  0  0  0  0  0
   36.6060   32.7490   36.5620 H   0  0  0  0  0  0  0  0  0  0  0  0
   34.6330   32.6950   37.3690 N   0  0  0  0  0  0  0  0  0  0  0  0
   33.5360   31.9730   37.0700 C   0  0  0  0  0  0  0  0  0  0  0  0
   32.5570   32.0240   37.5550 H   0  0  0  0  0  0  0  0  0  0  0  0
   33.9080   31.1530   36.0240 C   0  0  0  0  0  0  0  0  0  0  0  0
   33.1870   30.2090   35.3220 C   0  0  0  0  0  3  0  0  0  0  0  0
   38.2880   26.2550   32.4970 O   0  0  0  0  0  0  0  0  0  0  0  0
   39.5290   25.9950   32.9760 C   0  0  2  0  0  0  0  0  0  0  0  0
   39.5440   25.8650   34.5350 C   0  0  2  0  0  0  0  0  0  0  0  0
   40.9220   26.2440   34.8150 C   0  0  0  0  0  0  0  0  0  0  0  0
   41.2780   27.2550   33.9330 O   0  0  0  0  0  0  0  0  0  0  0  0
   40.3640   27.3020   32.9350 C   0  0  0  0  0  0  0  0  0  0  0  0
   40.1420   25.2320   32.5050 H   0  0  0  0  0  0  0  0  0  0  0  0
   38.8430   26.6710   34.8410 H   0  0  0  0  0  0  0  0  0  0  0  0
   41.0420   26.6270   35.8640 H   0  0  0  0  0  0  0  0  0  0  0  0
   41.6820   25.4610   34.6940 H   0  0  0  0  0  0  0  0  0  0  0  0
   39.6420   28.1450   32.9800 H   0  0  0  0  0  0  0  0  0  0  0  0
   40.8390   27.3080   31.9250 H   0  0  0  0  0  0  0  0  0  0  0  0
   37.9720   23.1940   36.6610 C   0  0  0  0  0  0  0  0  0  0  0  0
   38.4240   24.4820   36.2580 C   0  0  0  0  0  0  0  0  0  0  0  0
   39.0600   24.5920   34.9850 C   0  0  0  0  0  0  0  0  0  0  0  0
   39.2090   23.4620   34.2050 N   0  0  0  0  0  0  0  0  0  0  0  0
   38.7630   22.2740   34.6380 C   0  0  0  0  0  0  0  0  0  0  0  0
   38.1510   22.1240   35.8440 N   0  0  0  0  0  0  0  0  0  0  0  0
   37.4900   23.0240   37.5910 H   0  0  0  0  0  0  0  0  0  0  0  0
   38.2830   25.3110   36.8990 H   0  0  0  0  0  0  0  0  0  0  0  0
   38.9110   21.4320   33.9790 H   0  0  0  0  0  0  0  0  0  0  0  0
  2  1  1  0  0  0  0
  3 23  1  0  0  0  0
  3  2  2  0  0  0  0
  4  3  1  0  0  0  0
  5  4  2  0  0  0  0
  5  6  1  0  0  0  0
  6  7  2  0  0  0  0
  7  2  1  0  0  0  0
  7 12  1  0  0  0  0
  8  4  1  0  0  0  0
  9  5  1  0  0  0  0
 10  6  1  0  0  0  0
 11 22  1  0  0  0  0
 12 11  2  0  0  0  0
 12 13  1  0  0  0  0
 13 15  2  0  0  0  0
 14 13  1  0  0  0  0
 15 21  1  0  0  0  0
 15 16  1  0  0  0  0
 16 17  1  0  0  0  0
 16 18  1  0  0  0  0
 19 18  2  0  0  0  0
 19 20  1  0  0  0  0
 21 19  1  0  0  0  0
 22 21  2  0  0  0  0
 23 24  1  0  0  0  0
 24 29  1  6  0  0  0
 24 25  1  0  0  0  0
 25 26  1  0  0  0  0
 25 30  1  1  0  0  0
 25 37  1  0  0  0  0
 26 31  1  0  0  0  0
 27 26  1  0  0  0  0
 28 24  1  0  0  0  0
 28 33  1  0  0  0  0
 28 27  1  0  0  0  0
 32 26  1  0  0  0  0
 34 28  1  0  0  0  0
 35 41  1  0  0  0  0
 36 35  1  0  0  0  0
 36 42  1  0  0  0  0
 37 36  2  0  0  0  0
 38 39  2  0  0  0  0
 38 37  1  0  0  0  0
 39 40  1  0  0  0  0
 40 35  2  0  0  0  0
 43 39  1  0  0  0  0
M  END
>  <minimizedAffinity>
-6.45151377

$$$$

 OpenBabel03272501093D

 43 47  0  0  1  0  0  0  0  0999 V2000
   36.8450   27.7020   35.1930 Cl  0  0  0  0  0  0  0  0  0  0  0  0
   36.6340   28.2970   33.5590 C   0  0  0  0  0  0  0  0  0  0  0  0
   37.2150   27.4910   32.5910 C   0  0  0  0  0  0  0  0  0  0  0  0
   37.0550   27.9480   31.2900 C   0  0  0  0  0  0  0  0  0  0  0  0
   36.3680   29.1140   30.9960 C   0  0  0  0  0  0  0  0  0  0  0  0
   35.8210   29.8610   31.9990 C   0  0  0  0  0  0  0  0  0  0  0  0
   35.9540   29.4500   33.2940 C   0  0  0  0  0  0  0  0  0  0  0  0
   37.4350   27.4580   30.4040 H   0  0  0  0  0  0  0  0  0  0  0  0
   36.2270   29.4960   29.9930 H   0  0  0  0  0  0  0  0  0  0  0  0
   35.2820   30.7750   31.7930 H   0  0  0  0  0  0  0  0  0  0  0  0
   35.9920   31.0680   35.3000 C   0  0  0  0  0  3  0  0  0  0  0  0
   35.3920   30.2040   34.4060 C   0  0  0  0  0  0  0  0  0  0  0  0
   34.0170   29.9560   34.5170 C   0  0  0  0  0  0  0  0  0  0  0  0
   33.4180   29.3030   33.8860 H   0  0  0  0  0  0  0  0  0  0  0  0
   33.2510   30.5600   35.5050 C   0  0  0  0  0  0  0  0  0  0  0  0
   31.9570   30.5400   35.8750 N   0  0  0  0  0  0  0  0  0  0  0  0
   31.2180   29.9700   35.3910 H   0  0  0  0  0  0  0  0  0  0  0  0
   31.7680   31.3400   36.9310 N   0  0  0  0  0  0  0  0  0  0  0  0
   32.9370   31.9080   37.2820 C   0  0  0  0  0  0  0  0  0  0  0  0
   33.1120   32.6100   38.1020 H   0  0  0  0  0  0  0  0  0  0  0  0
   33.8690   31.4200   36.3880 C   0  0  0  0  0  0  0  0  0  0  0  0
   35.2220   31.6630   36.2770 C   0  0  0  0  0  3  0  0  0  0  0  0
   37.9130   26.3400   32.6400 O   0  0  0  0  0  0  0  0  0  0  0  0
   39.1590   25.9490   33.0020 C   0  0  2  0  0  0  0  0  0  0  0  0
   39.2950   25.7710   34.5500 C   0  0  2  0  0  0  0  0  0  0  0  0
   40.7230   26.0080   34.7150 C   0  0  0  0  0  0  0  0  0  0  0  0
   41.0990   27.0060   33.8280 O   0  0  0  0  0  0  0  0  0  0  0  0
   40.1110   27.1720   32.9160 C   0  0  0  0  0  0  0  0  0  0  0  0
   39.6520   25.1460   32.4620 H   0  0  0  0  0  0  0  0  0  0  0  0
   38.7060   26.6300   34.9350 H   0  0  0  0  0  0  0  0  0  0  0  0
   40.9700   26.3450   35.7570 H   0  0  0  0  0  0  0  0  0  0  0  0
   41.3890   25.1600   34.5100 H   0  0  0  0  0  0  0  0  0  0  0  0
   39.4820   28.0770   33.0430 H   0  0  0  0  0  0  0  0  0  0  0  0
   40.4960   27.1630   31.8680 H   0  0  0  0  0  0  0  0  0  0  0  0
   37.6630   23.1970   36.7490 C   0  0  0  0  0  0  0  0  0  0  0  0
   38.2030   24.4470   36.3360 C   0  0  0  0  0  0  0  0  0  0  0  0
   38.7300   24.5370   35.0130 C   0  0  0  0  0  0  0  0  0  0  0  0
   38.6970   23.4230   34.1960 N   0  0  0  0  0  0  0  0  0  0  0  0
   38.1760   22.2710   34.6400 C   0  0  0  0  0  0  0  0  0  0  0  0
   37.6620   22.1410   35.8940 N   0  0  0  0  0  0  0  0  0  0  0  0
   37.2510   23.0440   37.7150 H   0  0  0  0  0  0  0  0  0  0  0  0
   38.2010   25.2660   37.0060 H   0  0  0  0  0  0  0  0  0  0  0  0
   38.1800   21.4390   33.9520 H   0  0  0  0  0  0  0  0  0  0  0  0
  2  1  1  0  0  0  0
  3 23  1  0  0  0  0
  3  2  2  0  0  0  0
  4  3  1  0  0  0  0
  5  4  2  0  0  0  0
  5  6  1  0  0  0  0
  6  7  2  0  0  0  0
  7  2  1  0  0  0  0
  7 12  1  0  0  0  0
  8  4  1  0  0  0  0
  9  5  1  0  0  0  0
 10  6  1  0  0  0  0
 11 22  1  0  0  0  0
 12 13  1  0  0  0  0
 12 11  2  0  0  0  0
 13 15  2  0  0  0  0
 14 13  1  0  0  0  0
 15 16  1  0  0  0  0
 15 21  1  0  0  0  0
 16 18  1  0  0  0  0
 17 16  1  0  0  0  0
 18 19  2  0  0  0  0
 19 20  1  0  0  0  0
 21 19  1  0  0  0  0
 22 21  2  0  0  0  0
 23 24  1  0  0  0  0
 24 29  1  6  0  0  0
 24 25  1  0  0  0  0
 25 26  1  0  0  0  0
 25 30  1  1  0  0  0
 25 37  1  0  0  0  0
 26 31  1  0  0  0  0
 27 26  1  0  0  0  0
 28 24  1  0  0  0  0
 28 33  1  0  0  0  0
 28 27  1  0  0  0  0
 32 26  1  0  0  0  0
 34 28  1  0  0  0  0
 35 41  1  0  0  0  0
 36 35  1  0  0  0  0
 36 42  1  0  0  0  0
 37 36  2  0  0  0  0
 38 39  2  0  0  0  0
 38 37  1  0  0  0  0
 39 40  1  0  0  0  0
 40 35  2  0  0  0  0
 43 39  1  0  0  0  0
M  END
>  <minimizedAffinity>
-6.4186511

$$$$

 OpenBabel03272501093D

 43 47  0  0  1  0  0  0  0  0999 V2000
   36.6180   27.4680   34.9170 Cl  0  0  0  0  0  0  0  0  0  0  0  0
   36.4610   28.1690   33.3190 C   0  0  0  0  0  0  0  0  0  0  0  0
   36.9650   27.3680   32.3050 C   0  0  0  0  0  0  0  0  0  0  0  0
   36.8460   27.9080   31.0320 C   0  0  0  0  0  0  0  0  0  0  0  0
   36.2670   29.1470   30.8070 C   0  0  0  0  0  0  0  0  0  0  0  0
   35.7910   29.8830   31.8520 C   0  0  0  0  0  0  0  0  0  0  0  0
   35.8870   29.3910   33.1220 C   0  0  0  0  0  0  0  0  0  0  0  0
   37.1790   27.4360   30.1180 H   0  0  0  0  0  0  0  0  0  0  0  0
   36.1600   29.5940   29.8270 H   0  0  0  0  0  0  0  0  0  0  0  0
   35.3360   30.8520   31.7000 H   0  0  0  0  0  0  0  0  0  0  0  0
   36.0560   30.9680   35.1530 C   0  0  0  0  0  3  0  0  0  0  0  0
   35.3960   30.1300   34.2770 C   0  0  0  0  0  0  0  0  0  0  0  0
   34.0270   29.8980   34.4570 C   0  0  0  0  0  0  0  0  0  0  0  0
   33.3850   29.2660   33.8480 H   0  0  0  0  0  0  0  0  0  0  0  0
   33.3230   30.4920   35.4970 C   0  0  0  0  0  0  0  0  0  0  0  0
   32.0510   30.4830   35.9360 N   0  0  0  0  0  0  0  0  0  0  0  0
   31.2790   29.9330   35.4810 H   0  0  0  0  0  0  0  0  0  0  0  0
   31.9310   31.2640   37.0150 N   0  0  0  0  0  0  0  0  0  0  0  0
   33.1250   31.8100   37.3130 C   0  0  0  0  0  0  0  0  0  0  0  0
   33.3540   32.4920   38.1370 H   0  0  0  0  0  0  0  0  0  0  0  0
   34.0000   31.3270   36.3610 C   0  0  0  0  0  0  0  0  0  0  0  0
   35.3490   31.5540   36.1820 C   0  0  0  0  0  3  0  0  0  0  0  0
   37.5560   26.1580   32.2870 O   0  0  0  0  0  0  0  0  0  0  0  0
   37.1690   24.8650   32.1700 C   0  0  2  0  0  0  0  0  0  0  0  0
   38.2580   23.8730   32.6940 C   0  0  2  0  0  0  0  0  0  0  0  0
   37.9360   22.6910   31.9060 C   0  0  0  0  0  0  0  0  0  0  0  0
   37.5500   23.1100   30.6410 O   0  0  0  0  0  0  0  0  0  0  0  0
   37.2940   24.4390   30.6820 C   0  0  0  0  0  0  0  0  0  0  0  0
   36.1720   24.5680   32.4840 H   0  0  0  0  0  0  0  0  0  0  0  0
   39.1960   24.3450   32.3320 H   0  0  0  0  0  0  0  0  0  0  0  0
   38.8210   22.0080   31.8020 H   0  0  0  0  0  0  0  0  0  0  0  0
   37.1160   22.0620   32.2760 H   0  0  0  0  0  0  0  0  0  0  0  0
   38.0650   25.0940   30.2250 H   0  0  0  0  0  0  0  0  0  0  0  0
   36.3080   24.6960   30.2260 H   0  0  0  0  0  0  0  0  0  0  0  0
   37.8110   22.5660   36.1900 C   0  0  0  0  0  0  0  0  0  0  0  0
   37.7830   22.6020   34.7680 C   0  0  0  0  0  0  0  0  0  0  0  0
   38.2730   23.7800   34.1250 C   0  0  0  0  0  0  0  0  0  0  0  0
   38.7470   24.8220   34.8980 N   0  0  0  0  0  0  0  0  0  0  0  0
   38.7480   24.7300   36.2350 C   0  0  0  0  0  0  0  0  0  0  0  0
   38.2920   23.6270   36.8890 N   0  0  0  0  0  0  0  0  0  0  0  0
   37.4670   21.7300   36.7460 H   0  0  0  0  0  0  0  0  0  0  0  0
   37.4070   21.7730   34.2290 H   0  0  0  0  0  0  0  0  0  0  0  0
   39.1330   25.5800   36.7790 H   0  0  0  0  0  0  0  0  0  0  0  0
  2  1  1  0  0  0  0
  3  2  2  0  0  0  0
  4  3  1  0  0  0  0
  5  4  2  0  0  0  0
  5  6  1  0  0  0  0
  6  7  2  0  0  0  0
  7  2  1  0  0  0  0
  7 12  1  0  0  0  0
  8  4  1  0  0  0  0
  9  5  1  0  0  0  0
 10  6  1  0  0  0  0
 11 22  1  0  0  0  0
 12 13  1  0  0  0  0
 12 11  2  0  0  0  0
 13 15  2  0  0  0  0
 14 13  1  0  0  0  0
 15 16  1  0  0  0  0
 15 21  1  0  0  0  0
 16 18  1  0  0  0  0
 17 16  1  0  0  0  0
 18 19  2  0  0  0  0
 19 20  1  0  0  0  0
 21 19  1  0  0  0  0
 22 21  2  0  0  0  0
 23  3  1  0  0  0  0
 24 23  1  0  0  0  0
 24 29  1  1  0  0  0
 24 25  1  0  0  0  0
 25 30  1  6  0  0  0
 25 37  1  0  0  0  0
 26 32  1  0  0  0  0
 26 25  1  0  0  0  0
 27 28  1  0  0  0  0
 27 26  1  0  0  0  0
 28 24  1  0  0  0  0
 31 26  1  0  0  0  0
 33 28  1  0  0  0  0
 34 28  1  0  0  0  0
 35 41  1  0  0  0  0
 35 40  1  0  0  0  0
 36 35  2  0  0  0  0
 37 36  1  0  0  0  0
 37 38  2  0  0  0  0
 38 39  1  0  0  0  0
 39 43  1  0  0  0  0
 39 40  2  0  0  0  0
 42 36  1  0  0  0  0
M  END
>  <minimizedAffinity>
-6.29136229

$$$$

 OpenBabel03272501093D

 43 47  0  0  1  0  0  0  0  0999 V2000
   38.2060   26.9150   33.8700 Cl  0  0  0  0  0  0  0  0  0  0  0  0
   37.3890   25.7000   32.9090 C   0  0  0  0  0  0  0  0  0  0  0  0
   36.3520   26.2010   32.1360 C   0  0  0  0  0  0  0  0  0  0  0  0
   35.6950   25.2500   31.3670 C   0  0  0  0  0  0  0  0  0  0  0  0
   36.0580   23.9130   31.3780 C   0  0  0  0  0  0  0  0  0  0  0  0
   37.0890   23.4870   32.1620 C   0  0  0  0  0  0  0  0  0  0  0  0
   37.7630   24.3870   32.9360 C   0  0  0  0  0  0  0  0  0  0  0  0
   34.8650   25.4480   30.7030 H   0  0  0  0  0  0  0  0  0  0  0  0
   35.5650   23.1500   30.7900 H   0  0  0  0  0  0  0  0  0  0  0  0
   37.3880   22.4490   32.1870 H   0  0  0  0  0  0  0  0  0  0  0  0
   40.2350   24.0270   33.5720 C   0  0  0  0  0  3  0  0  0  0  0  0
   38.8730   23.9930   33.7940 C   0  0  0  0  0  0  0  0  0  0  0  0
   38.3940   23.5150   35.0210 C   0  0  0  0  0  0  0  0  0  0  0  0
   37.3540   23.4330   35.3290 H   0  0  0  0  0  0  0  0  0  0  0  0
   39.2600   23.0770   36.0140 C   0  0  0  0  0  0  0  0  0  0  0  0
   39.1350   22.5780   37.2580 N   0  0  0  0  0  0  0  0  0  0  0  0
   38.2120   22.4220   37.7350 H   0  0  0  0  0  0  0  0  0  0  0  0
   40.3420   22.3180   37.7720 N   0  0  0  0  0  0  0  0  0  0  0  0
   41.2950   22.6430   36.8770 C   0  0  0  0  0  0  0  0  0  0  0  0
   42.3770   22.5480   36.9990 H   0  0  0  0  0  0  0  0  0  0  0  0
   40.6170   23.1190   35.7730 C   0  0  0  0  0  0  0  0  0  0  0  0
   41.0870   23.5890   34.5650 C   0  0  0  0  0  3  0  0  0  0  0  0
   35.8330   27.4330   31.9680 O   0  0  0  0  0  0  0  0  0  0  0  0
   36.3010   28.6880   31.7640 C   0  0  2  0  0  0  0  0  0  0  0  0
   35.1510   29.7470   31.7190 C   0  0  2  0  0  0  0  0  0  0  0  0
   35.7720   30.7710   30.8910 C   0  0  0  0  0  0  0  0  0  0  0  0
   36.5300   30.1370   29.9180 O   0  0  0  0  0  0  0  0  0  0  0  0
   36.6920   28.8390   30.2700 C   0  0  0  0  0  0  0  0  0  0  0  0
   37.1530   29.0470   32.3350 H   0  0  0  0  0  0  0  0  0  0  0  0
   34.3620   29.2070   31.1530 H   0  0  0  0  0  0  0  0  0  0  0  0
   35.0050   31.4150   30.3830 H   0  0  0  0  0  0  0  0  0  0  0  0
   36.4560   31.4650   31.3970 H   0  0  0  0  0  0  0  0  0  0  0  0
   36.0820   28.1050   29.7040 H   0  0  0  0  0  0  0  0  0  0  0  0
   37.7590   28.5150   30.2170 H   0  0  0  0  0  0  0  0  0  0  0  0
   34.8750   31.3470   35.1090 C   0  0  0  0  0  0  0  0  0  0  0  0
   35.3870   31.0450   33.8160 C   0  0  0  0  0  0  0  0  0  0  0  0
   34.6730   30.0940   33.0260 C   0  0  0  0  0  0  0  0  0  0  0  0
   33.5300   29.5140   33.5390 N   0  0  0  0  0  0  0  0  0  0  0  0
   33.0950   29.8370   34.7650 C   0  0  0  0  0  0  0  0  0  0  0  0
   33.7440   30.7380   35.5520 N   0  0  0  0  0  0  0  0  0  0  0  0
   35.3440   32.0410   35.7610 H   0  0  0  0  0  0  0  0  0  0  0  0
   36.2690   31.5220   33.4770 H   0  0  0  0  0  0  0  0  0  0  0  0
   32.1960   29.3470   35.1060 H   0  0  0  0  0  0  0  0  0  0  0  0
  2  7  1  0  0  0  0
  2  1  1  0  0  0  0
  3  2  2  0  0  0  0
  4  5  2  0  0  0  0
  4  3  1  0  0  0  0
  5  6  1  0  0  0  0
  6 10  1  0  0  0  0
  6  7  2  0  0  0  0
  7 12  1  0  0  0  0
  8  4  1  0  0  0  0
  9  5  1  0  0  0  0
 11 12  2  0  0  0  0
 11 22  1  0  0  0  0
 12 13  1  0  0  0  0
 13 14  1  0  0  0  0
 13 15  2  0  0  0  0
 15 16  1  0  0  0  0
 16 17  1  0  0  0  0
 16 18  1  0  0  0  0
 19 20  1  0  0  0  0
 19 18  2  0  0  0  0
 21 15  1  0  0  0  0
 21 19  1  0  0  0  0
 22 21  2  0  0  0  0
 23  3  1  0  0  0  0
 24 23  1  0  0  0  0
 24 29  1  1  0  0  0
 25 30  1  6  0  0  0
 25 24  1  0  0  0  0
 25 37  1  0  0  0  0
 26 32  1  0  0  0  0
 26 25  1  0  0  0  0
 27 28  1  0  0  0  0
 27 26  1  0  0  0  0
 28 24  1  0  0  0  0
 31 26  1  0  0  0  0
 33 28  1  0  0  0  0
 34 28  1  0  0  0  0
 35 40  1  0  0  0  0
 35 41  1  0  0  0  0
 36 35  2  0  0  0  0
 37 38  2  0  0  0  0
 37 36  1  0  0  0  0
 38 39  1  0  0  0  0
 39 43  1  0  0  0  0
 39 40  2  0  0  0  0
 42 36  1  0  0  0  0
M  END
>  <minimizedAffinity>
-6.1088829

$$$$

 OpenBabel03272501093D

 43 47  0  0  1  0  0  0  0  0999 V2000
   36.2290   28.4690   34.3380 Cl  0  0  0  0  0  0  0  0  0  0  0  0
   36.1010   29.4000   32.8590 C   0  0  0  0  0  0  0  0  0  0  0  0
   35.6510   30.6980   33.0530 C   0  0  0  0  0  0  0  0  0  0  0  0
   35.5460   31.4500   31.8910 C   0  0  0  0  0  0  0  0  0  0  0  0
   35.8690   30.9350   30.6460 C   0  0  0  0  0  0  0  0  0  0  0  0
   36.3050   29.6480   30.5280 C   0  0  0  0  0  0  0  0  0  0  0  0
   36.4240   28.8710   31.6440 C   0  0  0  0  0  0  0  0  0  0  0  0
   35.2150   32.4780   31.8390 H   0  0  0  0  0  0  0  0  0  0  0  0
   35.7970   31.4960   29.7240 H   0  0  0  0  0  0  0  0  0  0  0  0
   36.5620   29.2250   29.5660 H   0  0  0  0  0  0  0  0  0  0  0  0
   38.1540   26.9610   31.7020 C   0  0  0  0  0  3  0  0  0  0  0  0
   36.8850   27.4900   31.5800 C   0  0  0  0  0  0  0  0  0  0  0  0
   35.8050   26.6260   31.3600 C   0  0  0  0  0  0  0  0  0  0  0  0
   34.7590   26.9030   31.2460 H   0  0  0  0  0  0  0  0  0  0  0  0
   35.9860   25.2530   31.2600 C   0  0  0  0  0  0  0  0  0  0  0  0
   35.1940   24.1830   31.0600 N   0  0  0  0  0  0  0  0  0  0  0  0
   34.1540   24.2420   30.9270 H   0  0  0  0  0  0  0  0  0  0  0  0
   35.9270   23.0630   31.0560 N   0  0  0  0  0  0  0  0  0  0  0  0
   37.2230   23.3700   31.2560 C   0  0  0  0  0  0  0  0  0  0  0  0
   38.0670   22.6770   31.3060 H   0  0  0  0  0  0  0  0  0  0  0  0
   37.2620   24.7430   31.3850 C   0  0  0  0  0  0  0  0  0  0  0  0
   38.3240   25.5960   31.6020 C   0  0  0  0  0  3  0  0  0  0  0  0
   35.2870   31.4000   34.1440 O   0  0  0  0  0  0  0  0  0  0  0  0
   34.9250   31.1320   35.4210 C   0  0  2  0  0  0  0  0  0  0  0  0
   33.4060   31.4060   35.6740 C   0  0  2  0  0  0  0  0  0  0  0  0
   33.4250   31.6840   37.1040 C   0  0  0  0  0  0  0  0  0  0  0  0
   34.5870   32.3870   37.3890 O   0  0  0  0  0  0  0  0  0  0  0  0
   35.4300   32.2810   36.3350 C   0  0  0  0  0  0  0  0  0  0  0  0
   35.2490   30.2080   35.8930 H   0  0  0  0  0  0  0  0  0  0  0  0
   33.2390   32.3380   35.0930 H   0  0  0  0  0  0  0  0  0  0  0  0
   32.5450   32.3070   37.4170 H   0  0  0  0  0  0  0  0  0  0  0  0
   33.4290   30.8150   37.7740 H   0  0  0  0  0  0  0  0  0  0  0  0
   35.5190   33.1830   35.6940 H   0  0  0  0  0  0  0  0  0  0  0  0
   36.4580   31.9730   36.6420 H   0  0  0  0  0  0  0  0  0  0  0  0
   31.3270   28.2790   35.4960 C   0  0  0  0  0  0  0  0  0  0  0  0
   32.1500   29.3030   36.0450 C   0  0  0  0  0  0  0  0  0  0  0  0
   32.5680   30.3550   35.1750 C   0  0  0  0  0  0  0  0  0  0  0  0
   32.1620   30.3400   33.8550 N   0  0  0  0  0  0  0  0  0  0  0  0
   31.3870   29.3480   33.3940 C   0  0  0  0  0  0  0  0  0  0  0  0
   30.9650   28.3260   34.1870 N   0  0  0  0  0  0  0  0  0  0  0  0
   30.9740   27.4620   36.0720 H   0  0  0  0  0  0  0  0  0  0  0  0
   32.4290   29.2610   37.0640 H   0  0  0  0  0  0  0  0  0  0  0  0
   31.1050   29.3970   32.3530 H   0  0  0  0  0  0  0  0  0  0  0  0
  2  3  1  0  0  0  0
  2  1  1  0  0  0  0
  3 23  1  0  0  0  0
  4  3  2  0  0  0  0
  5  4  1  0  0  0  0
  6  5  2  0  0  0  0
  6  7  1  0  0  0  0
  7  2  2  0  0  0  0
  8  4  1  0  0  0  0
  9  5  1  0  0  0  0
 10  6  1  0  0  0  0
 12  7  1  0  0  0  0
 12 11  2  0  0  0  0
 13 12  1  0  0  0  0
 14 13  1  0  0  0  0
 15 13  2  0  0  0  0
 15 21  1  0  0  0  0
 16 15  1  0  0  0  0
 17 16  1  0  0  0  0
 18 16  1  0  0  0  0
 18 19  2  0  0  0  0
 19 20  1  0  0  0  0
 19 21  1  0  0  0  0
 21 22  2  0  0  0  0
 22 11  1  0  0  0  0
 23 24  1  0  0  0  0
 24 25  1  0  0  0  0
 24 29  1  1  0  0  0
 24 28  1  0  0  0  0
 25 30  1  6  0  0  0
 25 26  1  0  0  0  0
 26 27  1  0  0  0  0
 26 31  1  0  0  0  0
 26 32  1  0  0  0  0
 28 34  1  0  0  0  0
 28 27  1  0  0  0  0
 33 28  1  0  0  0  0
 35 36  1  0  0  0  0
 35 41  1  0  0  0  0
 36 42  1  0  0  0  0
 37 25  1  0  0  0  0
 37 36  2  0  0  0  0
 38 37  1  0  0  0  0
 39 38  2  0  0  0  0
 39 40  1  0  0  0  0
 40 35  2  0  0  0  0
 43 39  1  0  0  0  0
M  END
>  <minimizedAffinity>
-6.10689735

$$$$

 OpenBabel03272501093D

 43 47  0  0  1  0  0  0  0  0999 V2000
   38.7600   26.6890   34.0080 Cl  0  0  0  0  0  0  0  0  0  0  0  0
   37.8940   25.4180   33.1700 C   0  0  0  0  0  0  0  0  0  0  0  0
   38.0660   24.1600   33.7290 C   0  0  0  0  0  0  0  0  0  0  0  0
   37.3850   23.1420   33.0780 C   0  0  0  0  0  0  0  0  0  0  0  0
   36.5990   23.3760   31.9610 C   0  0  0  0  0  0  0  0  0  0  0  0
   36.4740   24.6390   31.4620 C   0  0  0  0  0  0  0  0  0  0  0  0
   37.1260   25.6720   32.0700 C   0  0  0  0  0  0  0  0  0  0  0  0
   37.3950   22.0990   33.3640 H   0  0  0  0  0  0  0  0  0  0  0  0
   36.0570   22.6030   31.4320 H   0  0  0  0  0  0  0  0  0  0  0  0
   35.8670   24.8450   30.5910 H   0  0  0  0  0  0  0  0  0  0  0  0
   37.8550   27.7540   30.7380 C   0  0  0  0  0  3  0  0  0  0  0  0
   37.0300   27.0420   31.5840 C   0  0  0  0  0  0  0  0  0  0  0  0
   35.8890   27.6650   32.1070 C   0  0  0  0  0  0  0  0  0  0  0  0
   35.1560   27.2270   32.7800 H   0  0  0  0  0  0  0  0  0  0  0  0
   35.5740   28.9800   31.7910 C   0  0  0  0  0  0  0  0  0  0  0  0
   34.5920   29.8450   32.1080 N   0  0  0  0  0  0  0  0  0  0  0  0
   33.7900   29.6110   32.7450 H   0  0  0  0  0  0  0  0  0  0  0  0
   34.7970   31.0170   31.4970 N   0  0  0  0  0  0  0  0  0  0  0  0
   35.9230   30.9520   30.7600 C   0  0  0  0  0  0  0  0  0  0  0  0
   36.3580   31.7460   30.1460 H   0  0  0  0  0  0  0  0  0  0  0  0
   36.4110   29.6750   30.9430 C   0  0  0  0  0  0  0  0  0  0  0  0
   37.5340   29.0600   30.4300 C   0  0  0  0  0  3  0  0  0  0  0  0
   38.7640   23.7050   34.7880 O   0  0  0  0  0  0  0  0  0  0  0  0
   38.9850   24.0840   36.0690 C   0  0  2  0  0  0  0  0  0  0  0  0
   39.4270   22.8850   36.9720 C   0  0  2  0  0  0  0  0  0  0  0  0
   38.9700   23.3550   38.2720 C   0  0  0  0  0  0  0  0  0  0  0  0
   37.7700   24.0270   38.0900 O   0  0  0  0  0  0  0  0  0  0  0  0
   37.6160   24.2920   36.7710 C   0  0  0  0  0  0  0  0  0  0  0  0
   39.5680   24.9770   36.2770 H   0  0  0  0  0  0  0  0  0  0  0  0
   38.7770   22.0640   36.6000 H   0  0  0  0  0  0  0  0  0  0  0  0
   38.7990   22.5050   38.9850 H   0  0  0  0  0  0  0  0  0  0  0  0
   39.6290   24.0580   38.8000 H   0  0  0  0  0  0  0  0  0  0  0  0
   36.8810   23.6580   36.2330 H   0  0  0  0  0  0  0  0  0  0  0  0
   37.3560   25.3610   36.5810 H   0  0  0  0  0  0  0  0  0  0  0  0
   43.0560   23.0790   36.0130 C   0  0  0  0  0  0  0  0  0  0  0  0
   41.6980   23.4720   36.1750 C   0  0  0  0  0  0  0  0  0  0  0  0
   40.8080   22.5430   36.7940 C   0  0  0  0  0  0  0  0  0  0  0  0
   41.2920   21.3170   37.2050 N   0  0  0  0  0  0  0  0  0  0  0  0
   42.5830   21.0020   37.0260 C   0  0  0  0  0  0  0  0  0  0  0  0
   43.4660   21.8570   36.4420 N   0  0  0  0  0  0  0  0  0  0  0  0
   43.7820   23.7090   35.5640 H   0  0  0  0  0  0  0  0  0  0  0  0
   41.3840   24.4260   35.8390 H   0  0  0  0  0  0  0  0  0  0  0  0
   42.8970   20.0280   37.3710 H   0  0  0  0  0  0  0  0  0  0  0  0
  2  3  1  0  0  0  0
  2  1  1  0  0  0  0
  3 23  1  0  0  0  0
  4  8  1  0  0  0  0
  4  3  2  0  0  0  0
  5  4  1  0  0  0  0
  6  5  2  0  0  0  0
  6  7  1  0  0  0  0
  7  2  2  0  0  0  0
  9  5  1  0  0  0  0
 10  6  1  0  0  0  0
 11 12  1  0  0  0  0
 12  7  1  0  0  0  0
 12 13  2  0  0  0  0
 13 14  1  0  0  0  0
 15 13  1  0  0  0  0
 15 16  1  0  0  0  0
 16 17  1  0  0  0  0
 18 16  1  0  0  0  0
 19 21  1  0  0  0  0
 19 18  2  0  0  0  0
 20 19  1  0  0  0  0
 21 15  2  0  0  0  0
 22 11  2  0  0  0  0
 22 21  1  0  0  0  0
 23 24  1  0  0  0  0
 24 29  1  1  0  0  0
 24 28  1  0  0  0  0
 24 25  1  0  0  0  0
 25 30  1  6  0  0  0
 25 26  1  0  0  0  0
 26 32  1  0  0  0  0
 26 31  1  0  0  0  0
 27 26  1  0  0  0  0
 28 27  1  0  0  0  0
 33 28  1  0  0  0  0
 34 28  1  0  0  0  0
 35 36  2  0  0  0  0
 35 40  1  0  0  0  0
 36 37  1  0  0  0  0
 37 25  1  0  0  0  0
 37 38  2  0  0  0  0
 39 38  1  0  0  0  0
 39 43  1  0  0  0  0
 40 39  2  0  0  0  0
 41 35  1  0  0  0  0
 42 36  1  0  0  0  0
M  END
>  <minimizedAffinity>
-6.10056019

$$$$

 OpenBabel03272501093D

 43 47  0  0  1  0  0  0  0  0999 V2000
   37.8030   27.5430   35.7670 Cl  0  0  0  0  0  0  0  0  0  0  0  0
   37.5280   27.6810   34.0420 C   0  0  0  0  0  0  0  0  0  0  0  0
   36.3770   28.3810   33.7120 C   0  0  0  0  0  0  0  0  0  0  0  0
   36.1470   28.5020   32.3490 C   0  0  0  0  0  0  0  0  0  0  0  0
   37.0060   27.9620   31.4050 C   0  0  0  0  0  0  0  0  0  0  0  0
   38.1220   27.2840   31.7990 C   0  0  0  0  0  0  0  0  0  0  0  0
   38.3880   27.1410   33.1300 C   0  0  0  0  0  0  0  0  0  0  0  0
   35.3060   29.0100   31.9000 H   0  0  0  0  0  0  0  0  0  0  0  0
   36.8530   28.0400   30.3370 H   0  0  0  0  0  0  0  0  0  0  0  0
   38.8050   26.8540   31.0800 H   0  0  0  0  0  0  0  0  0  0  0  0
   39.7100   25.1250   34.0430 C   0  0  0  0  0  3  0  0  0  0  0  0
   39.5640   26.4280   33.6120 C   0  0  0  0  0  0  0  0  0  0  0  0
   40.6820   27.2720   33.6030 C   0  0  0  0  0  0  0  0  0  0  0  0
   40.7120   28.3140   33.2920 H   0  0  0  0  0  0  0  0  0  0  0  0
   41.9290   26.8250   34.0200 C   0  0  0  0  0  0  0  0  0  0  0  0
   43.1610   27.3550   34.1320 N   0  0  0  0  0  0  0  0  0  0  0  0
   43.3960   28.3480   33.8810 H   0  0  0  0  0  0  0  0  0  0  0  0
   44.0140   26.4390   34.6040 N   0  0  0  0  0  0  0  0  0  0  0  0
   43.3630   25.2790   34.8130 C   0  0  0  0  0  0  0  0  0  0  0  0
   43.7830   24.3440   35.1930 H   0  0  0  0  0  0  0  0  0  0  0  0
   42.0550   25.5190   34.4470 C   0  0  0  0  0  0  0  0  0  0  0  0
   40.9520   24.6900   34.4550 C   0  0  0  0  0  3  0  0  0  0  0  0
   35.4170   28.9810   34.4420 O   0  0  0  0  0  0  0  0  0  0  0  0
   34.4260   29.8800   34.2320 C   0  0  2  0  0  0  0  0  0  0  0  0
   34.5800   31.1500   35.1330 C   0  0  2  0  0  0  0  0  0  0  0  0
   33.1910   31.5790   35.2180 C   0  0  0  0  0  0  0  0  0  0  0  0
   32.3930   30.4460   35.2860 O   0  0  0  0  0  0  0  0  0  0  0  0
   33.1340   29.3710   34.9240 C   0  0  0  0  0  0  0  0  0  0  0  0
   34.1390   30.1430   33.2170 H   0  0  0  0  0  0  0  0  0  0  0  0
   34.9160   30.7100   36.0960 H   0  0  0  0  0  0  0  0  0  0  0  0
   33.0040   32.2020   36.1340 H   0  0  0  0  0  0  0  0  0  0  0  0
   32.8050   32.1660   34.3750 H   0  0  0  0  0  0  0  0  0  0  0  0
   33.4550   28.7050   35.7520 H   0  0  0  0  0  0  0  0  0  0  0  0
   32.6230   28.7440   34.1550 H   0  0  0  0  0  0  0  0  0  0  0  0
   37.2890   33.7510   34.9960 C   0  0  0  0  0  0  0  0  0  0  0  0
   36.3290   32.8550   35.5440 C   0  0  0  0  0  0  0  0  0  0  0  0
   35.5670   32.0620   34.6340 C   0  0  0  0  0  0  0  0  0  0  0  0
   35.7880   32.1930   33.2770 N   0  0  0  0  0  0  0  0  0  0  0  0
   36.7070   33.0550   32.8180 C   0  0  0  0  0  0  0  0  0  0  0  0
   37.4550   33.8300   33.6500 N   0  0  0  0  0  0  0  0  0  0  0  0
   37.8960   34.3770   35.6010 H   0  0  0  0  0  0  0  0  0  0  0  0
   36.2040   32.7990   36.5930 H   0  0  0  0  0  0  0  0  0  0  0  0
   36.8300   33.1080   31.7480 H   0  0  0  0  0  0  0  0  0  0  0  0
  2  1  1  0  0  0  0
  3  2  1  0  0  0  0
  3 23  1  0  0  0  0
  4  3  2  0  0  0  0
  5  6  2  0  0  0  0
  5  4  1  0  0  0  0
  6  7  1  0  0  0  0
  7 12  1  0  0  0  0
  7  2  2  0  0  0  0
  8  4  1  0  0  0  0
  9  5  1  0  0  0  0
 10  6  1  0  0  0  0
 11 22  1  0  0  0  0
 12 11  2  0  0  0  0
 13 12  1  0  0  0  0
 13 15  2  0  0  0  0
 14 13  1  0  0  0  0
 15 16  1  0  0  0  0
 15 21  1  0  0  0  0
 16 18  1  0  0  0  0
 17 16  1  0  0  0  0
 18 19  2  0  0  0  0
 19 20  1  0  0  0  0
 21 22  2  0  0  0  0
 21 19  1  0  0  0  0
 24 29  1  6  0  0  0
 24 23  1  0  0  0  0
 24 28  1  0  0  0  0
 24 25  1  0  0  0  0
 25 26  1  0  0  0  0
 25 30  1  1  0  0  0
 26 27  1  0  0  0  0
 26 31  1  0  0  0  0
 28 27  1  0  0  0  0
 28 33  1  0  0  0  0
 32 26  1  0  0  0  0
 34 28  1  0  0  0  0
 35 36  1  0  0  0  0
 35 41  1  0  0  0  0
 36 42  1  0  0  0  0
 37 25  1  0  0  0  0
 37 36  2  0  0  0  0
 38 37  1  0  0  0  0
 39 38  2  0  0  0  0
 39 40  1  0  0  0  0
 40 35  2  0  0  0  0
 43 39  1  0  0  0  0
M  END
>  <minimizedAffinity>
-6.06694603

$$$$

 OpenBabel03272501093D

 43 47  0  0  1  0  0  0  0  0999 V2000
   37.9820   26.7700   33.3870 Cl  0  0  0  0  0  0  0  0  0  0  0  0
   36.8930   25.8250   32.3910 C   0  0  0  0  0  0  0  0  0  0  0  0
   37.0280   24.4550   32.5590 C   0  0  0  0  0  0  0  0  0  0  0  0
   36.1700   23.6920   31.7790 C   0  0  0  0  0  0  0  0  0  0  0  0
   35.2580   24.2660   30.9090 C   0  0  0  0  0  0  0  0  0  0  0  0
   35.1780   25.6230   30.7920 C   0  0  0  0  0  0  0  0  0  0  0  0
   36.0030   26.4130   31.5400 C   0  0  0  0  0  0  0  0  0  0  0  0
   36.1260   22.6120   31.7710 H   0  0  0  0  0  0  0  0  0  0  0  0
   34.5770   23.6980   30.2880 H   0  0  0  0  0  0  0  0  0  0  0  0
   34.4750   26.0910   30.1180 H   0  0  0  0  0  0  0  0  0  0  0  0
   35.3610   28.7960   32.2830 C   0  0  0  0  0  3  0  0  0  0  0  0
   35.9650   27.8670   31.4600 C   0  0  0  0  0  0  0  0  0  0  0  0
   36.6790   28.3110   30.3400 C   0  0  0  0  0  0  0  0  0  0  0  0
   37.2010   27.6950   29.6100 H   0  0  0  0  0  0  0  0  0  0  0  0
   36.7910   29.6630   30.0430 C   0  0  0  0  0  0  0  0  0  0  0  0
   37.3820   30.3990   29.0830 N   0  0  0  0  0  0  0  0  0  0  0  0
   37.9340   29.9900   28.2890 H   0  0  0  0  0  0  0  0  0  0  0  0
   37.1570   31.7000   29.2980 N   0  0  0  0  0  0  0  0  0  0  0  0
   36.4120   31.8530   30.4090 C   0  0  0  0  0  0  0  0  0  0  0  0
   36.0620   32.7920   30.8480 H   0  0  0  0  0  0  0  0  0  0  0  0
   36.1810   30.5760   30.8780 C   0  0  0  0  0  0  0  0  0  0  0  0
   35.4780   30.1360   31.9800 C   0  0  0  0  0  3  0  0  0  0  0  0
   37.8250   23.6900   33.3300 O   0  0  0  0  0  0  0  0  0  0  0  0
   39.1420   23.3760   33.3920 C   0  0  2  0  0  0  0  0  0  0  0  0
   39.9140   24.2710   34.4160 C   0  0  2  0  0  0  0  0  0  0  0  0
   41.2540   24.2200   33.8490 C   0  0  0  0  0  0  0  0  0  0  0  0
   41.1370   24.2270   32.4670 O   0  0  0  0  0  0  0  0  0  0  0  0
   39.8520   23.9510   32.1380 C   0  0  0  0  0  0  0  0  0  0  0  0
   39.4470   22.3350   33.4600 H   0  0  0  0  0  0  0  0  0  0  0  0
   39.4520   25.2670   34.2480 H   0  0  0  0  0  0  0  0  0  0  0  0
   41.8700   25.1060   34.1600 H   0  0  0  0  0  0  0  0  0  0  0  0
   41.8580   23.3360   34.0930 H   0  0  0  0  0  0  0  0  0  0  0  0
   39.2450   24.8140   31.7930 H   0  0  0  0  0  0  0  0  0  0  0  0
   39.7750   23.1450   31.3690 H   0  0  0  0  0  0  0  0  0  0  0  0
   40.3730   22.5600   37.7320 C   0  0  0  0  0  0  0  0  0  0  0  0
   40.6280   22.9500   36.3870 C   0  0  0  0  0  0  0  0  0  0  0  0
   39.7090   23.8550   35.7730 C   0  0  0  0  0  0  0  0  0  0  0  0
   38.6260   24.3110   36.4990 N   0  0  0  0  0  0  0  0  0  0  0  0
   38.4370   23.9090   37.7630 C   0  0  0  0  0  0  0  0  0  0  0  0
   39.2870   23.0480   38.3870 N   0  0  0  0  0  0  0  0  0  0  0  0
   41.0050   21.8920   38.2610 H   0  0  0  0  0  0  0  0  0  0  0  0
   41.4740   22.5660   35.8810 H   0  0  0  0  0  0  0  0  0  0  0  0
   37.5720   24.3030   38.2740 H   0  0  0  0  0  0  0  0  0  0  0  0
  2  3  1  0  0  0  0
  2  1  1  0  0  0  0
  3 23  1  0  0  0  0
  4  3  2  0  0  0  0
  5  4  1  0  0  0  0
  6  5  2  0  0  0  0
  6  7  1  0  0  0  0
  7  2  2  0  0  0  0
  8  4  1  0  0  0  0
  9  5  1  0  0  0  0
 10  6  1  0  0  0  0
 12  7  1  0  0  0  0
 12 11  2  0  0  0  0
 13 12  1  0  0  0  0
 14 13  1  0  0  0  0
 15 13  2  0  0  0  0
 15 21  1  0  0  0  0
 16 18  1  0  0  0  0
 16 15  1  0  0  0  0
 17 16  1  0  0  0  0
 18 19  2  0  0  0  0
 19 20  1  0  0  0  0
 19 21  1  0  0  0  0
 21 22  2  0  0  0  0
 22 11  1  0  0  0  0
 23 24  1  0  0  0  0
 24 29  1  1  0  0  0
 24 25  1  0  0  0  0
 25 30  1  6  0  0  0
 25 37  1  0  0  0  0
 26 32  1  0  0  0  0
 26 31  1  0  0  0  0
 26 25  1  0  0  0  0
 27 26  1  0  0  0  0
 28 27  1  0  0  0  0
 28 24  1  0  0  0  0
 33 28  1  0  0  0  0
 34 28  1  0  0  0  0
 35 41  1  0  0  0  0
 35 40  1  0  0  0  0
 36 35  2  0  0  0  0
 37 36  1  0  0  0  0
 37 38  2  0  0  0  0
 38 39  1  0  0  0  0
 39 43  1  0  0  0  0
 39 40  2  0  0  0  0
 42 36  1  0  0  0  0
M  END
>  <minimizedAffinity>
-6.00604343

$$$$

 OpenBabel03272501093D

 43 47  0  0  1  0  0  0  0  0999 V2000
   38.1160   27.7350   35.9960 Cl  0  0  0  0  0  0  0  0  0  0  0  0
   37.5440   27.2920   34.4000 C   0  0  0  0  0  0  0  0  0  0  0  0
   36.5410   28.1190   33.9150 C   0  0  0  0  0  0  0  0  0  0  0  0
   36.0790   27.7820   32.6500 C   0  0  0  0  0  0  0  0  0  0  0  0
   36.5870   26.7070   31.9410 C   0  0  0  0  0  0  0  0  0  0  0  0
   37.5740   25.9330   32.4780 C   0  0  0  0  0  0  0  0  0  0  0  0
   38.0590   26.2270   33.7200 C   0  0  0  0  0  0  0  0  0  0  0  0
   35.3040   28.3060   32.1080 H   0  0  0  0  0  0  0  0  0  0  0  0
   36.2470   26.4200   30.9540 H   0  0  0  0  0  0  0  0  0  0  0  0
   37.9850   25.0890   31.9430 H   0  0  0  0  0  0  0  0  0  0  0  0
   40.4800   25.6210   34.3640 C   0  0  0  0  0  3  0  0  0  0  0  0
   39.1120   25.4380   34.3460 C   0  0  0  0  0  0  0  0  0  0  0  0
   38.5630   24.3380   35.0160 C   0  0  0  0  0  0  0  0  0  0  0  0
   37.5110   24.0730   35.0850 H   0  0  0  0  0  0  0  0  0  0  0  0
   39.3660   23.4310   35.6960 C   0  0  0  0  0  0  0  0  0  0  0  0
   39.1680   22.3100   36.4150 N   0  0  0  0  0  0  0  0  0  0  0  0
   38.2210   21.8910   36.5960 H   0  0  0  0  0  0  0  0  0  0  0  0
   40.3380   21.8300   36.8500 N   0  0  0  0  0  0  0  0  0  0  0  0
   41.3390   22.6260   36.4270 C   0  0  0  0  0  0  0  0  0  0  0  0
   42.4090   22.5020   36.6170 H   0  0  0  0  0  0  0  0  0  0  0  0
   40.7300   23.6310   35.7030 C   0  0  0  0  0  0  0  0  0  0  0  0
   41.2690   24.7150   35.0410 C   0  0  0  0  0  3  0  0  0  0  0  0
   35.9080   29.1970   34.4140 O   0  0  0  0  0  0  0  0  0  0  0  0
   34.8870   30.0080   34.0460 C   0  0  2  0  0  0  0  0  0  0  0  0
   34.8360   31.3180   34.9000 C   0  0  2  0  0  0  0  0  0  0  0  0
   33.4200   31.6410   34.7990 C   0  0  0  0  0  0  0  0  0  0  0  0
   32.7050   30.4520   34.8220 O   0  0  0  0  0  0  0  0  0  0  0  0
   33.5600   29.4260   34.6020 C   0  0  0  0  0  0  0  0  0  0  0  0
   34.7090   30.2100   32.9930 H   0  0  0  0  0  0  0  0  0  0  0  0
   35.0830   30.9420   35.9160 H   0  0  0  0  0  0  0  0  0  0  0  0
   33.0770   32.2800   35.6550 H   0  0  0  0  0  0  0  0  0  0  0  0
   33.0980   32.1650   33.8890 H   0  0  0  0  0  0  0  0  0  0  0  0
   33.8250   28.8170   35.4920 H   0  0  0  0  0  0  0  0  0  0  0  0
   33.1950   28.7330   33.8060 H   0  0  0  0  0  0  0  0  0  0  0  0
   37.5000   33.9680   34.9870 C   0  0  0  0  0  0  0  0  0  0  0  0
   36.5550   33.0130   35.4560 C   0  0  0  0  0  0  0  0  0  0  0  0
   35.8090   32.2850   34.4810 C   0  0  0  0  0  0  0  0  0  0  0  0
   36.0290   32.5320   33.1400 N   0  0  0  0  0  0  0  0  0  0  0  0
   36.9330   33.4460   32.7570 C   0  0  0  0  0  0  0  0  0  0  0  0
   37.6670   34.1610   33.6530 N   0  0  0  0  0  0  0  0  0  0  0  0
   38.0960   34.5510   35.6440 H   0  0  0  0  0  0  0  0  0  0  0  0
   36.4300   32.8670   36.4970 H   0  0  0  0  0  0  0  0  0  0  0  0
   37.0570   33.5900   31.6950 H   0  0  0  0  0  0  0  0  0  0  0  0
  2  1  1  0  0  0  0
  3  2  1  0  0  0  0
  3 23  1  0  0  0  0
  4  3  2  0  0  0  0
  5  6  2  0  0  0  0
  5  4  1  0  0  0  0
  6  7  1  0  0  0  0
  7 12  1  0  0  0  0
  7  2  2  0  0  0  0
  8  4  1  0  0  0  0
  9  5  1  0  0  0  0
 10  6  1  0  0  0  0
 11 22  1  0  0  0  0
 12 11  2  0  0  0  0
 12 13  1  0  0  0  0
 13 14  1  0  0  0  0
 13 15  2  0  0  0  0
 15 21  1  0  0  0  0
 15 16  1  0  0  0  0
 16 17  1  0  0  0  0
 16 18  1  0  0  0  0
 19 20  1  0  0  0  0
 19 18  2  0  0  0  0
 21 19  1  0  0  0  0
 22 21  2  0  0  0  0
 24 29  1  6  0  0  0
 24 23  1  0  0  0  0
 24 28  1  0  0  0  0
 24 25  1  0  0  0  0
 25 30  1  1  0  0  0
 26 27  1  0  0  0  0
 26 25  1  0  0  0  0
 26 31  1  0  0  0  0
 28 27  1  0  0  0  0
 28 33  1  0  0  0  0
 32 26  1  0  0  0  0
 34 28  1  0  0  0  0
 35 36  1  0  0  0  0
 35 41  1  0  0  0  0
 36 42  1  0  0  0  0
 37 25  1  0  0  0  0
 37 36  2  0  0  0  0
 38 37  1  0  0  0  0
 39 38  2  0  0  0  0
 39 40  1  0  0  0  0
 40 35  2  0  0  0  0
 43 39  1  0  0  0  0
M  END
>  <minimizedAffinity>
-5.96269846

$$$$
