
 OpenBabel03272509493D

 36 39  0  0  0  0  0  0  0  0999 V2000
   37.2680   30.1570   51.5050 C   0  0  0  0  0  0  0  0  0  0  0  0
   38.0080   30.8850   50.5370 C   0  0  0  0  0  0  0  0  0  0  0  0
   37.7250   30.6890   49.2020 C   0  0  0  0  0  0  0  0  0  0  0  0
   36.7360   29.7940   48.9320 N   0  0  0  0  0  0  0  0  0  0  0  0
   36.0450   29.1150   49.8400 C   0  0  0  0  0  0  0  0  0  0  0  0
   36.3170   29.3020   51.1420 N   0  0  0  0  0  0  0  0  0  0  0  0
   37.4800   30.3010   52.5610 H   0  0  0  0  0  0  0  0  0  0  0  0
   38.7630   31.5620   50.8480 H   0  0  0  0  0  0  0  0  0  0  0  0
   38.8940   32.6690   48.2610 C   0  0  0  0  0  3  0  0  0  0  0  0
   38.4230   31.3830   48.1280 C   0  0  0  0  0  0  0  0  0  0  0  0
   38.6160   30.7220   46.9340 C   0  0  0  0  0  0  0  0  0  0  0  0
   38.2420   29.6970   46.8250 H   0  0  0  0  0  0  0  0  0  0  0  0
   39.2670   31.3020   45.8640 C   0  0  0  0  0  0  0  0  0  0  0  0
   39.6040   30.9330   44.6080 N   0  0  0  0  0  0  0  0  0  0  0  0
   39.3630   29.9870   44.2330 H   0  0  0  0  0  0  0  0  0  0  0  0
   40.2360   31.9410   44.0310 N   0  0  0  0  0  0  0  0  0  0  0  0
   40.3220   32.9710   44.8920 C   0  0  0  0  0  0  0  0  0  0  0  0
   40.7940   33.9370   44.6900 H   0  0  0  0  0  0  0  0  0  0  0  0
   39.7130   32.5870   46.0620 C   0  0  0  0  0  0  0  0  0  0  0  0
   39.5570   33.3090   47.2250 C   0  0  0  0  0  3  0  0  0  0  0  0
   35.1090   28.2820   49.2820 O   0  0  0  0  0  0  0  0  0  0  0  0
   34.4020   28.7070   48.1320 C   0  0  0  0  0  0  0  0  0  0  0  0
   35.1330   29.0950   47.3900 H   0  0  0  0  0  0  0  0  0  0  0  0
   33.8000   29.6050   48.4300 H   0  0  0  0  0  0  0  0  0  0  0  0
   33.5450   27.6080   47.5910 C   0  0  0  0  0  0  0  0  0  0  0  0
   33.7990   26.6100   48.0170 H   0  0  0  0  0  0  0  0  0  0  0  0
   33.7600   27.5310   46.5040 H   0  0  0  0  0  0  0  0  0  0  0  0
   32.0940   27.9000   47.7190 C   0  0  0  0  0  0  0  0  0  0  0  0
   31.4790   27.5380   48.9010 C   0  0  0  0  0  0  0  0  0  0  0  0
   30.1460   27.7440   49.1610 C   0  0  0  0  0  0  0  0  0  0  0  0
   29.4070   28.3280   48.2190 N   0  0  0  0  0  0  0  0  0  0  0  0
   30.0030   28.6870   47.0550 C   0  0  0  0  0  0  0  0  0  0  0  0
   31.3140   28.4860   46.7940 N   0  0  0  0  0  0  0  0  0  0  0  0
   32.0230   27.0510   49.7260 H   0  0  0  0  0  0  0  0  0  0  0  0
   29.6640   27.4610   50.0870 H   0  0  0  0  0  0  0  0  0  0  0  0
   29.4070   29.1700   46.2670 H   0  0  0  0  0  0  0  0  0  0  0  0
  1  7  1  0  0  0  0
  2  8  1  0  0  0  0
  2  1  2  0  0  0  0
  3  2  1  0  0  0  0
  4  3  2  0  0  0  0
  4  5  1  0  0  0  0
  5  6  2  0  0  0  0
  6  1  1  0  0  0  0
 10  9  1  0  0  0  0
 10  3  1  0  0  0  0
 11 10  2  0  0  0  0
 12 11  1  0  0  0  0
 13 19  2  0  0  0  0
 13 11  1  0  0  0  0
 14 13  1  0  0  0  0
 15 14  1  0  0  0  0
 16 14  1  0  0  0  0
 16 17  2  0  0  0  0
 17 19  1  0  0  0  0
 18 17  1  0  0  0  0
 19 20  1  0  0  0  0
 20  9  2  0  0  0  0
 21  5  1  0  0  0  0
 22 24  1  0  0  0  0
 22 21  1  0  0  0  0
 23 22  1  0  0  0  0
 25 28  1  0  0  0  0
 25 26  1  0  0  0  0
 25 22  1  0  0  0  0
 27 25  1  0  0  0  0
 28 29  1  0  0  0  0
 29 30  2  0  0  0  0
 29 34  1  0  0  0  0
 30 35  1  0  0  0  0
 31 30  1  0  0  0  0
 32 31  2  0  0  0  0
 33 32  1  0  0  0  0
 33 28  2  0  0  0  0
 36 32  1  0  0  0  0
M  END
>  <minimizedAffinity>
-6.61209869

>  <minimizedRMSD>
1.17486906

$$$$
