
 OpenBabel03272509493D

 36 39  0  0  0  0  0  0  0  0999 V2000
   37.1180   30.0910   51.0640 C   0  0  0  0  0  0  0  0  0  0  0  0
   37.7020   30.4960   49.8350 C   0  0  0  0  0  0  0  0  0  0  0  0
   37.0620   30.1690   48.6590 C   0  0  0  0  0  0  0  0  0  0  0  0
   35.9010   29.4700   48.7900 N   0  0  0  0  0  0  0  0  0  0  0  0
   35.3580   29.0930   49.9410 C   0  0  0  0  0  0  0  0  0  0  0  0
   35.9770   29.4090   51.0910 N   0  0  0  0  0  0  0  0  0  0  0  0
   37.6100   30.3420   52.0000 H   0  0  0  0  0  0  0  0  0  0  0  0
   38.6120   31.0390   49.8370 H   0  0  0  0  0  0  0  0  0  0  0  0
   36.7510   30.7490   46.2640 C   0  0  0  0  0  3  0  0  0  0  0  0
   37.5740   30.5350   47.3450 C   0  0  0  0  0  0  0  0  0  0  0  0
   38.9360   30.6700   47.1840 C   0  0  0  0  0  0  0  0  0  0  0  0
   39.5950   30.5000   48.0430 H   0  0  0  0  0  0  0  0  0  0  0  0
   39.5070   31.0140   45.9740 C   0  0  0  0  0  0  0  0  0  0  0  0
   40.7590   31.2190   45.5080 N   0  0  0  0  0  0  0  0  0  0  0  0
   41.5970   31.1210   46.1280 H   0  0  0  0  0  0  0  0  0  0  0  0
   40.6820   31.5350   44.2270 N   0  0  0  0  0  0  0  0  0  0  0  0
   39.3940   31.5410   43.8420 C   0  0  0  0  0  0  0  0  0  0  0  0
   39.0280   31.7690   42.8360 H   0  0  0  0  0  0  0  0  0  0  0  0
   38.6300   31.2140   44.9350 C   0  0  0  0  0  0  0  0  0  0  0  0
   37.2600   31.0970   45.0220 C   0  0  0  0  0  3  0  0  0  0  0  0
   34.1850   28.4010   49.7730 O   0  0  0  0  0  0  0  0  0  0  0  0
   33.5340   28.4380   48.5180 C   0  0  0  0  0  0  0  0  0  0  0  0
   34.3040   28.4190   47.7170 H   0  0  0  0  0  0  0  0  0  0  0  0
   33.0570   29.4490   48.4260 H   0  0  0  0  0  0  0  0  0  0  0  0
   32.5360   27.3310   48.3970 C   0  0  0  0  0  0  0  0  0  0  0  0
   32.6990   26.5170   49.1420 H   0  0  0  0  0  0  0  0  0  0  0  0
   32.6880   26.8600   47.4040 H   0  0  0  0  0  0  0  0  0  0  0  0
   31.1340   27.8210   48.4260 C   0  0  0  0  0  0  0  0  0  0  0  0
   30.4710   27.7690   49.6370 C   0  0  0  0  0  0  0  0  0  0  0  0
   29.1740   28.1870   49.8140 C   0  0  0  0  0  0  0  0  0  0  0  0
   28.5210   28.6680   48.7580 N   0  0  0  0  0  0  0  0  0  0  0  0
   29.1630   28.7230   47.5660 C   0  0  0  0  0  0  0  0  0  0  0  0
   30.4400   28.3140   47.3860 N   0  0  0  0  0  0  0  0  0  0  0  0
   30.9440   27.3840   50.5540 H   0  0  0  0  0  0  0  0  0  0  0  0
   28.6550   28.1460   50.7620 H   0  0  0  0  0  0  0  0  0  0  0  0
   28.6380   29.1180   46.6840 H   0  0  0  0  0  0  0  0  0  0  0  0
  1  6  1  0  0  0  0
  1  7  1  0  0  0  0
  2  8  1  0  0  0  0
  2  1  2  0  0  0  0
  3  4  2  0  0  0  0
  3  2  1  0  0  0  0
  4  5  1  0  0  0  0
  5  6  2  0  0  0  0
  9 10  1  0  0  0  0
 10  3  1  0  0  0  0
 11 10  2  0  0  0  0
 11 12  1  0  0  0  0
 13 11  1  0  0  0  0
 14 13  1  0  0  0  0
 14 15  1  0  0  0  0
 16 14  1  0  0  0  0
 17 16  2  0  0  0  0
 17 19  1  0  0  0  0
 18 17  1  0  0  0  0
 19 20  1  0  0  0  0
 19 13  2  0  0  0  0
 20  9  2  0  0  0  0
 21  5  1  0  0  0  0
 22 21  1  0  0  0  0
 23 22  1  0  0  0  0
 24 22  1  0  0  0  0
 25 28  1  0  0  0  0
 25 22  1  0  0  0  0
 25 26  1  0  0  0  0
 27 25  1  0  0  0  0
 28 29  1  0  0  0  0
 29 30  2  0  0  0  0
 29 34  1  0  0  0  0
 30 35  1  0  0  0  0
 31 30  1  0  0  0  0
 32 31  2  0  0  0  0
 33 32  1  0  0  0  0
 33 28  2  0  0  0  0
 36 32  1  0  0  0  0
M  END
>  <minimizedAffinity>
-6.11105967

>  <minimizedRMSD>
0.660949051

$$$$
