
 OpenBabel03272504423D

 48 51  0  0  0  0  0  0  0  0999 V2000
   34.6170   29.3370   48.8830 C   0  0  0  0  0  0  0  0  0  0  0  0
   35.4980   29.3480   49.5640 H   0  0  0  0  0  0  0  0  0  0  0  0
   33.9730   30.1730   49.2900 H   0  0  0  0  0  0  0  0  0  0  0  0
   37.3770   30.4290   48.6960 Cl  0  0  0  0  0  0  0  0  0  0  0  0
   36.2900   30.2590   47.3170 C   0  0  0  0  0  0  0  0  0  0  0  0
   36.7140   30.6410   46.0940 C   0  0  0  0  0  0  0  0  0  0  0  0
   35.8750   30.5130   45.0060 C   0  0  0  0  0  0  0  0  0  0  0  0
   34.5990   29.9880   45.1960 C   0  0  0  0  0  0  0  0  0  0  0  0
   34.2350   29.6140   46.5040 C   0  0  0  0  0  0  0  0  0  0  0  0
   35.0420   29.7320   47.5720 C   0  0  0  0  0  0  0  0  0  0  0  0
   36.2390   30.8300   44.0210 H   0  0  0  0  0  0  0  0  0  0  0  0
   34.0310   29.9320   44.2970 H   0  0  0  0  0  0  0  0  0  0  0  0
   33.2720   29.2590   46.4400 H   0  0  0  0  0  0  0  0  0  0  0  0
   39.6990   32.7960   46.3280 C   0  0  0  0  0  0  0  0  0  0  0  0
   40.5840   32.1140   45.4170 C   0  0  0  0  0  0  0  0  0  0  0  0
   40.1140   30.9620   44.7780 C   0  0  0  0  0  0  0  0  0  0  0  0
   38.8540   30.5320   45.0350 N   0  0  0  0  0  0  0  0  0  0  0  0
   38.0440   31.1920   45.8960 C   0  0  0  0  0  0  0  0  0  0  0  0
   38.4700   32.3000   46.5230 N   0  0  0  0  0  0  0  0  0  0  0  0
   40.0630   33.6860   46.8220 H   0  0  0  0  0  0  0  0  0  0  0  0
   41.5630   32.5540   45.2960 H   0  0  0  0  0  0  0  0  0  0  0  0
   41.0080   30.3300   43.9000 N   0  0  0  0  0  0  0  0  0  0  0  0
   40.7930   30.7330   42.9610 H   0  0  0  0  0  0  0  0  0  0  0  0
   41.7660   29.6020   44.0320 H   0  0  0  0  0  0  0  0  0  0  0  0
   33.9180   28.0630   49.0740 C   0  0  0  0  0  0  0  0  0  0  0  0
   34.0810   27.3760   48.2110 H   0  0  0  0  0  0  0  0  0  0  0  0
   34.2950   27.4770   49.9590 H   0  0  0  0  0  0  0  0  0  0  0  0
   32.5780   28.2510   49.2900 O   0  0  0  0  0  0  0  0  0  0  0  0
   32.5270   26.3040   47.5280 O   0  0  0  0  0  0  0  0  0  0  0  0
   31.6750   27.3190   48.2500 P   0  0  2  0  0  0  0  0  0  0  0  0
   30.9880   28.4050   47.0870 O   0  0  0  0  0  0  0  0  0  0  0  0
   28.7160   28.3210   46.2470 C   0  0  0  0  0  3  0  0  0  0  0  0
   30.0140   27.8550   46.2550 C   0  0  0  0  0  0  0  0  0  0  0  0
   30.2740   26.8130   45.3850 C   0  0  0  0  0  0  0  0  0  0  0  0
   31.2880   26.4040   45.3490 H   0  0  0  0  0  0  0  0  0  0  0  0
   29.3040   26.2710   44.5620 C   0  0  0  0  0  0  0  0  0  0  0  0
   29.2530   25.2900   43.6430 N   0  0  0  0  0  0  0  0  0  0  0  0
   30.0820   24.6930   43.3720 H   0  0  0  0  0  0  0  0  0  0  0  0
   28.0380   25.1760   43.1290 N   0  0  0  0  0  0  0  0  0  0  0  0
   27.2280   26.0900   43.6980 C   0  0  0  0  0  0  0  0  0  0  0  0
   26.1590   26.2780   43.5120 H   0  0  0  0  0  0  0  0  0  0  0  0
   28.0200   26.7760   44.5940 C   0  0  0  0  0  0  0  0  0  0  0  0
   27.6990   27.8300   45.4550 C   0  0  0  0  0  3  0  0  0  0  0  0
   30.3940   26.5650   48.9740 O   0  0  0  0  0  0  0  0  0  0  0  0
   29.7740   27.4000   49.8750 C   0  0  0  0  0  0  0  0  0  0  0  0
   29.3240   26.7210   51.0060 F   0  0  0  0  0  0  0  0  0  0  0  0
   30.6390   28.3670   50.3440 F   0  0  0  0  0  0  0  0  0  0  0  0
   28.6840   28.0260   49.2800 F   0  0  0  0  0  0  0  0  0  0  0  0
  1 25  1  0  0  0  0
  1  3  1  0  0  0  0
  1  2  1  0  0  0  0
  5 10  1  0  0  0  0
  5  4  1  0  0  0  0
  6  5  2  0  0  0  0
  7  8  2  0  0  0  0
  7  6  1  0  0  0  0
  8  9  1  0  0  0  0
  9 10  2  0  0  0  0
 10  1  1  0  0  0  0
 11  7  1  0  0  0  0
 12  8  1  0  0  0  0
 13  9  1  0  0  0  0
 14 19  1  0  0  0  0
 14 20  1  0  0  0  0
 15 14  2  0  0  0  0
 16 17  2  0  0  0  0
 16 15  1  0  0  0  0
 17 18  1  0  0  0  0
 18  6  1  0  0  0  0
 18 19  2  0  0  0  0
 21 15  1  0  0  0  0
 22 24  1  0  0  0  0
 22 16  1  0  0  0  0
 23 22  1  0  0  0  0
 25 28  1  0  0  0  0
 25 27  1  0  0  0  0
 26 25  1  0  0  0  0
 30 29  2  6  0  0  0
 30 44  1  0  0  0  0
 30 28  1  0  0  0  0
 31 30  1  0  0  0  0
 32 33  1  0  0  0  0
 33 31  1  0  0  0  0
 34 33  2  0  0  0  0
 35 34  1  0  0  0  0
 36 42  2  0  0  0  0
 36 34  1  0  0  0  0
 37 36  1  0  0  0  0
 38 37  1  0  0  0  0
 39 37  1  0  0  0  0
 39 40  2  0  0  0  0
 40 42  1  0  0  0  0
 41 40  1  0  0  0  0
 42 43  1  0  0  0  0
 43 32  2  0  0  0  0
 44 45  1  0  0  0  0
 45 47  1  0  0  0  0
 45 46  1  0  0  0  0
 48 45  1  0  0  0  0
M  END
>  <minimizedAffinity>
-6.08208323

>  <minimizedRMSD>
1.09198081

$$$$
