
 OpenBabel03262521523D

 26 28  0  0  0  0  0  0  0  0999 V2000
   34.7490   29.4260   50.1150 C   0  0  0  0  0  0  0  0  0  0  0  0
   34.0810   29.1820   50.9790 H   0  0  0  0  0  0  0  0  0  0  0  0
   34.3680   30.3630   49.6580 H   0  0  0  0  0  0  0  0  0  0  0  0
   36.4500   29.6710   50.6590 S   0  0  0  0  0  0  0  0  0  0  0  0
   37.2820   30.7120   49.4650 C   0  0  0  0  0  0  0  0  0  0  0  0
   37.4330   32.0230   49.8810 C   0  0  0  0  0  0  0  0  0  0  0  0
   38.0800   32.9030   48.9950 C   0  0  0  0  0  0  0  0  0  0  0  0
   38.5170   32.4180   47.7890 N   0  0  0  0  0  0  0  0  0  0  0  0
   38.3360   31.1350   47.4510 C   0  0  0  0  0  0  0  0  0  0  0  0
   37.7230   30.2860   48.2810 N   0  0  0  0  0  0  0  0  0  0  0  0
   37.1060   32.4490   50.8220 H   0  0  0  0  0  0  0  0  0  0  0  0
   38.2270   33.9330   49.2590 H   0  0  0  0  0  0  0  0  0  0  0  0
   38.7020   30.8100   46.4850 H   0  0  0  0  0  0  0  0  0  0  0  0
   34.5830   28.0620   48.9340 S   0  0  0  0  0  0  0  0  0  0  0  0
   32.8590   28.9110   46.9770 C   0  0  0  0  0  3  0  0  0  0  0  0
   32.9710   28.2150   48.1780 C   0  0  0  0  0  0  0  0  0  0  0  0
   31.8070   27.6770   48.7230 C   0  0  0  0  0  0  0  0  0  0  0  0
   31.8980   27.1440   49.6430 H   0  0  0  0  0  0  0  0  0  0  0  0
   30.5870   27.8320   48.0870 C   0  0  0  0  0  0  0  0  0  0  0  0
   29.3510   27.3930   48.4420 N   0  0  0  0  0  0  0  0  0  0  0  0
   29.0510   26.8400   49.2770 H   0  0  0  0  0  0  0  0  0  0  0  0
   28.5060   27.8000   47.4970 N   0  0  0  0  0  0  0  0  0  0  0  0
   29.1990   28.4810   46.5680 C   0  0  0  0  0  0  0  0  0  0  0  0
   28.7230   28.9210   45.6820 H   0  0  0  0  0  0  0  0  0  0  0  0
   30.5410   28.5300   46.9000 C   0  0  0  0  0  0  0  0  0  0  0  0
   31.6460   29.0850   46.3110 C   0  0  0  0  0  3  0  0  0  0  0  0
  1  4  1  0  0  0  0
  1  2  1  0  0  0  0
  3  1  1  0  0  0  0
  5  6  1  0  0  0  0
  5  4  1  0  0  0  0
  6 11  1  0  0  0  0
  7 12  1  0  0  0  0
  7  6  2  0  0  0  0
  8  7  1  0  0  0  0
  9  8  2  0  0  0  0
  9 10  1  0  0  0  0
 10  5  2  0  0  0  0
 13  9  1  0  0  0  0
 14  1  1  0  0  0  0
 15 16  1  0  0  0  0
 16 17  2  0  0  0  0
 16 14  1  0  0  0  0
 17 18  1  0  0  0  0
 19 20  1  0  0  0  0
 19 17  1  0  0  0  0
 20 21  1  0  0  0  0
 22 20  1  0  0  0  0
 23 25  1  0  0  0  0
 23 22  2  0  0  0  0
 24 23  1  0  0  0  0
 25 19  2  0  0  0  0
 26 25  1  0  0  0  0
 26 15  2  0  0  0  0
M  END
>  <minimizedAffinity>
-4.5118885

>  <minimizedRMSD>
2.14241743

$$$$
