
 OpenBabel03272509493D

 36 39  0  0  0  0  0  0  0  0999 V2000
   37.3630   30.1900   51.4120 C   0  0  0  0  0  0  0  0  0  0  0  0
   37.9650   30.7580   50.2590 C   0  0  0  0  0  0  0  0  0  0  0  0
   37.4390   30.4570   49.0210 C   0  0  0  0  0  0  0  0  0  0  0  0
   36.3640   29.6220   49.0220 N   0  0  0  0  0  0  0  0  0  0  0  0
   35.8030   29.0920   50.1030 C   0  0  0  0  0  0  0  0  0  0  0  0
   36.3120   29.3830   51.3110 N   0  0  0  0  0  0  0  0  0  0  0  0
   37.7660   30.4190   52.3950 H   0  0  0  0  0  0  0  0  0  0  0  0
   38.8030   31.3990   50.3620 H   0  0  0  0  0  0  0  0  0  0  0  0
   37.7800   30.3680   46.5620 C   0  0  0  0  0  3  0  0  0  0  0  0
   37.9790   30.9840   47.7750 C   0  0  0  0  0  0  0  0  0  0  0  0
   38.7180   32.1470   47.8190 C   0  0  0  0  0  0  0  0  0  0  0  0
   38.8790   32.6420   48.7840 H   0  0  0  0  0  0  0  0  0  0  0  0
   39.2670   32.7180   46.6880 C   0  0  0  0  0  0  0  0  0  0  0  0
   40.0130   33.8100   46.4080 N   0  0  0  0  0  0  0  0  0  0  0  0
   40.3170   34.4730   47.1580 H   0  0  0  0  0  0  0  0  0  0  0  0
   40.2410   33.8380   45.1060 N   0  0  0  0  0  0  0  0  0  0  0  0
   39.6550   32.7770   44.5230 C   0  0  0  0  0  0  0  0  0  0  0  0
   39.6760   32.5400   43.4560 H   0  0  0  0  0  0  0  0  0  0  0  0
   39.0310   32.0530   45.5090 C   0  0  0  0  0  0  0  0  0  0  0  0
   38.3040   30.8890   45.3900 C   0  0  0  0  0  3  0  0  0  0  0  0
   34.7330   28.2880   49.8050 O   0  0  0  0  0  0  0  0  0  0  0  0
   33.8730   28.6450   48.7400 C   0  0  0  0  0  0  0  0  0  0  0  0
   34.4900   29.0410   47.9040 H   0  0  0  0  0  0  0  0  0  0  0  0
   33.2700   29.5240   49.0860 H   0  0  0  0  0  0  0  0  0  0  0  0
   33.0110   27.4920   48.3350 C   0  0  0  0  0  0  0  0  0  0  0  0
   33.1140   26.6140   49.0150 H   0  0  0  0  0  0  0  0  0  0  0  0
   33.3710   27.1450   47.3450 H   0  0  0  0  0  0  0  0  0  0  0  0
   31.5870   27.8790   48.1590 C   0  0  0  0  0  0  0  0  0  0  0  0
   30.7320   27.6380   49.2170 C   0  0  0  0  0  0  0  0  0  0  0  0
   29.3920   27.9420   49.1970 C   0  0  0  0  0  0  0  0  0  0  0  0
   28.8930   28.5010   48.0960 N   0  0  0  0  0  0  0  0  0  0  0  0
   29.7250   28.7410   47.0530 C   0  0  0  0  0  0  0  0  0  0  0  0
   31.0440   28.4440   47.0670 N   0  0  0  0  0  0  0  0  0  0  0  0
   31.0700   27.1800   50.1590 H   0  0  0  0  0  0  0  0  0  0  0  0
   28.7220   27.7540   50.0250 H   0  0  0  0  0  0  0  0  0  0  0  0
   29.3280   29.2020   46.1380 H   0  0  0  0  0  0  0  0  0  0  0  0
  1  7  1  0  0  0  0
  2  8  1  0  0  0  0
  2  1  2  0  0  0  0
  3  4  2  0  0  0  0
  3  2  1  0  0  0  0
  4  5  1  0  0  0  0
  5  6  2  0  0  0  0
  6  1  1  0  0  0  0
  9 10  1  0  0  0  0
 10 11  2  0  0  0  0
 10  3  1  0  0  0  0
 11 12  1  0  0  0  0
 13 11  1  0  0  0  0
 14 13  1  0  0  0  0
 14 15  1  0  0  0  0
 16 14  1  0  0  0  0
 17 16  2  0  0  0  0
 17 19  1  0  0  0  0
 18 17  1  0  0  0  0
 19 13  2  0  0  0  0
 20 19  1  0  0  0  0
 20  9  2  0  0  0  0
 21  5  1  0  0  0  0
 22 24  1  0  0  0  0
 22 21  1  0  0  0  0
 23 22  1  0  0  0  0
 25 22  1  0  0  0  0
 25 26  1  0  0  0  0
 27 25  1  0  0  0  0
 28 25  1  0  0  0  0
 28 29  1  0  0  0  0
 29 34  1  0  0  0  0
 30 29  2  0  0  0  0
 30 35  1  0  0  0  0
 31 30  1  0  0  0  0
 32 33  1  0  0  0  0
 32 31  2  0  0  0  0
 33 28  2  0  0  0  0
 36 32  1  0  0  0  0
M  END
>  <minimizedAffinity>
-6.74715185

>  <minimizedRMSD>
0.626771986

$$$$
