
 OpenBabel03272507433D

 44 48  0  0  0  0  0  0  0  0999 V2000
   36.0350   28.7370   32.3130 C   0  0  0  0  0  0  0  0  0  0  0  0
   37.2180   28.0060   32.3810 C   0  0  0  0  0  0  0  0  0  0  0  0
   38.1350   27.9950   31.3520 C   0  0  0  0  0  0  0  0  0  0  0  0
   37.8310   28.7380   30.2530 N   0  0  0  0  0  0  0  0  0  0  0  0
   36.6690   29.4540   30.1900 C   0  0  0  0  0  0  0  0  0  0  0  0
   35.8110   29.4400   31.2000 N   0  0  0  0  0  0  0  0  0  0  0  0
   39.0540   27.4680   31.3280 H   0  0  0  0  0  0  0  0  0  0  0  0
   36.4610   30.0340   29.2970 H   0  0  0  0  0  0  0  0  0  0  0  0
   37.4510   25.7980   33.4570 C   0  0  0  0  0  0  0  0  0  0  0  0
   36.8250   25.0190   32.6440 O   0  0  0  0  0  0  0  0  0  0  0  0
   37.6250   27.2010   33.4630 N   0  0  0  0  0  0  0  0  0  0  0  0
   38.0480   27.7560   34.2270 H   0  0  0  0  0  0  0  0  0  0  0  0
   39.0650   24.1000   34.3060 C   0  0  0  0  0  3  0  0  0  0  0  0
   38.0600   25.0150   34.5320 C   0  0  0  0  0  0  0  0  0  0  0  0
   37.6960   25.1120   35.8580 C   0  0  0  0  0  0  0  0  0  0  0  0
   36.9190   25.7960   36.1630 H   0  0  0  0  0  0  0  0  0  0  0  0
   38.2440   24.3950   36.8990 C   0  0  0  0  0  0  0  0  0  0  0  0
   38.0360   24.3440   38.2270 N   0  0  0  0  0  0  0  0  0  0  0  0
   37.3480   24.8960   38.7690 H   0  0  0  0  0  0  0  0  0  0  0  0
   38.8640   23.4570   38.7460 N   0  0  0  0  0  0  0  0  0  0  0  0
   39.6320   22.9030   37.7960 C   0  0  0  0  0  0  0  0  0  0  0  0
   40.3990   22.1600   37.8710 H   0  0  0  0  0  0  0  0  0  0  0  0
   39.2470   23.4940   36.6110 C   0  0  0  0  0  0  0  0  0  0  0  0
   39.6710   23.3350   35.3090 C   0  0  0  0  0  3  0  0  0  0  0  0
   35.2720   28.6180   33.4210 O   0  0  0  0  0  0  0  0  0  0  0  0
   33.6560   30.1410   34.4960 C   0  0  0  0  0  0  0  0  0  0  0  0
   34.9350   29.6550   34.2610 C   0  0  0  0  0  0  0  0  0  0  0  0
   36.0160   30.2270   34.9030 C   0  0  0  0  0  0  0  0  0  0  0  0
   35.8240   31.2850   35.7810 C   0  0  0  0  0  0  0  0  0  0  0  0
   34.5460   31.7630   36.0080 C   0  0  0  0  0  0  0  0  0  0  0  0
   33.4950   31.1750   35.3570 C   0  0  0  0  0  0  0  0  0  0  0  0
   37.0370   29.9010   34.7680 H   0  0  0  0  0  0  0  0  0  0  0  0
   36.6640   31.7470   36.2940 H   0  0  0  0  0  0  0  0  0  0  0  0
   34.3480   32.5870   36.6870 H   0  0  0  0  0  0  0  0  0  0  0  0
   32.1290   31.6980   35.6100 C   0  0  0  0  0  0  0  0  0  0  0  0
   31.2450   31.3880   36.6210 C   0  0  0  0  0  0  0  0  0  0  0  0
   30.0970   32.1480   36.4130 C   0  0  0  0  0  0  0  0  0  0  0  0
   30.3590   32.8840   35.2700 C   0  0  0  0  0  0  0  0  0  0  0  0
   31.5680   32.5990   34.8130 O   0  0  0  0  0  0  0  0  0  0  0  0
   31.4670   30.6680   37.4120 H   0  0  0  0  0  0  0  0  0  0  0  0
   29.2250   32.1340   37.0280 H   0  0  0  0  0  0  0  0  0  0  0  0
   29.6900   33.5920   34.8000 H   0  0  0  0  0  0  0  0  0  0  0  0
   31.7390   28.9860   33.2190 N   0  0  0  0  0  0  0  0  0  0  0  0
   32.5870   29.5020   33.7980 C   0  0  0  0  0  0  0  0  0  0  0  0
  1  2  1  0  0  0  0
  1 25  1  0  0  0  0
  2 11  1  0  0  0  0
  3  2  2  0  0  0  0
  4  3  1  0  0  0  0
  5  4  2  0  0  0  0
  5  6  1  0  0  0  0
  6  1  2  0  0  0  0
  7  3  1  0  0  0  0
  8  5  1  0  0  0  0
  9 11  1  0  0  0  0
  9 14  1  0  0  0  0
 10  9  2  0  0  0  0
 11 12  1  0  0  0  0
 13 14  2  0  0  0  0
 13 24  1  0  0  0  0
 14 15  1  0  0  0  0
 15 16  1  0  0  0  0
 15 17  2  0  0  0  0
 17 18  1  0  0  0  0
 18 20  1  0  0  0  0
 18 19  1  0  0  0  0
 21 22  1  0  0  0  0
 21 20  2  0  0  0  0
 23 17  1  0  0  0  0
 23 21  1  0  0  0  0
 24 23  2  0  0  0  0
 25 27  1  0  0  0  0
 26 31  1  0  0  0  0
 27 26  2  0  0  0  0
 27 28  1  0  0  0  0
 28 29  2  0  0  0  0
 29 30  1  0  0  0  0
 29 33  1  0  0  0  0
 30 34  1  0  0  0  0
 31 35  1  0  0  0  0
 31 30  2  0  0  0  0
 32 28  1  0  0  0  0
 35 36  2  0  0  0  0
 36 40  1  0  0  0  0
 37 36  1  0  0  0  0
 37 41  1  0  0  0  0
 38 37  2  0  0  0  0
 39 38  1  0  0  0  0
 39 35  1  0  0  0  0
 42 38  1  0  0  0  0
 43 44  3  0  0  0  0
 44 26  1  0  0  0  0
M  END
>  <minimizedAffinity>
-6.52454758

$$$$

 OpenBabel03272507433D

 44 48  0  0  0  0  0  0  0  0999 V2000
   37.3160   25.7420   33.2290 C   0  0  0  0  0  0  0  0  0  0  0  0
   36.6520   26.8180   32.6470 C   0  0  0  0  0  0  0  0  0  0  0  0
   35.9230   26.6900   31.4850 C   0  0  0  0  0  0  0  0  0  0  0  0
   35.8780   25.4510   30.9230 N   0  0  0  0  0  0  0  0  0  0  0  0
   36.5300   24.3970   31.4980 C   0  0  0  0  0  0  0  0  0  0  0  0
   37.2230   24.5590   32.6160 N   0  0  0  0  0  0  0  0  0  0  0  0
   35.3910   27.4570   30.9830 H   0  0  0  0  0  0  0  0  0  0  0  0
   36.4720   23.4250   31.0210 H   0  0  0  0  0  0  0  0  0  0  0  0
   35.4630   28.9210   33.1480 C   0  0  0  0  0  0  0  0  0  0  0  0
   34.2970   28.7140   32.6420 O   0  0  0  0  0  0  0  0  0  0  0  0
   36.6400   28.1390   33.1380 N   0  0  0  0  0  0  0  0  0  0  0  0
   37.5720   28.4420   33.4720 H   0  0  0  0  0  0  0  0  0  0  0  0
   35.8440   31.3830   33.2030 C   0  0  0  0  0  3  0  0  0  0  0  0
   35.4880   30.2120   33.8360 C   0  0  0  0  0  0  0  0  0  0  0  0
   35.1630   30.3850   35.1640 C   0  0  0  0  0  0  0  0  0  0  0  0
   34.8670   29.5410   35.7680 H   0  0  0  0  0  0  0  0  0  0  0  0
   35.1730   31.5800   35.8480 C   0  0  0  0  0  0  0  0  0  0  0  0
   34.8980   31.9520   37.1100 N   0  0  0  0  0  0  0  0  0  0  0  0
   34.5940   31.3370   37.8860 H   0  0  0  0  0  0  0  0  0  0  0  0
   35.0800   33.2560   37.2120 N   0  0  0  0  0  0  0  0  0  0  0  0
   35.4750   33.7780   36.0420 C   0  0  0  0  0  0  0  0  0  0  0  0
   35.7070   34.7890   35.7780 H   0  0  0  0  0  0  0  0  0  0  0  0
   35.5380   32.7190   35.1610 C   0  0  0  0  0  0  0  0  0  0  0  0
   35.8790   32.6340   33.8280 C   0  0  0  0  0  3  0  0  0  0  0  0
   37.9720   26.0720   34.3620 O   0  0  0  0  0  0  0  0  0  0  0  0
   39.6640   24.5300   35.2830 C   0  0  0  0  0  0  0  0  0  0  0  0
   38.4340   25.1720   35.2960 C   0  0  0  0  0  0  0  0  0  0  0  0
   37.5420   24.9250   36.3210 C   0  0  0  0  0  0  0  0  0  0  0  0
   37.8750   24.0370   37.3350 C   0  0  0  0  0  0  0  0  0  0  0  0
   39.1030   23.4020   37.3130 C   0  0  0  0  0  0  0  0  0  0  0  0
   39.9660   23.6680   36.2830 C   0  0  0  0  0  0  0  0  0  0  0  0
   36.5680   25.3880   36.3960 H   0  0  0  0  0  0  0  0  0  0  0  0
   37.1840   23.8310   38.1490 H   0  0  0  0  0  0  0  0  0  0  0  0
   39.4070   22.7010   38.0840 H   0  0  0  0  0  0  0  0  0  0  0  0
   41.2810   22.9790   36.2720 C   0  0  0  0  0  0  0  0  0  0  0  0
   41.5670   21.6370   36.1500 C   0  0  0  0  0  0  0  0  0  0  0  0
   42.9520   21.5040   36.1980 C   0  0  0  0  0  0  0  0  0  0  0  0
   43.4300   22.7950   36.3480 C   0  0  0  0  0  0  0  0  0  0  0  0
   42.4210   23.6510   36.3890 O   0  0  0  0  0  0  0  0  0  0  0  0
   40.7990   20.8680   36.0390 H   0  0  0  0  0  0  0  0  0  0  0  0
   43.4880   20.5840   36.1300 H   0  0  0  0  0  0  0  0  0  0  0  0
   44.4680   23.0860   36.4230 H   0  0  0  0  0  0  0  0  0  0  0  0
   41.2210   25.0860   33.3050 N   0  0  0  0  0  0  0  0  0  0  0  0
   40.5360   24.8340   34.1930 C   0  0  0  0  0  0  0  0  0  0  0  0
  1 25  1  0  0  0  0
  2 11  1  0  0  0  0
  2  1  1  0  0  0  0
  3  2  2  0  0  0  0
  4  3  1  0  0  0  0
  4  5  2  0  0  0  0
  5  6  1  0  0  0  0
  6  1  2  0  0  0  0
  7  3  1  0  0  0  0
  8  5  1  0  0  0  0
  9 14  1  0  0  0  0
 10  9  2  0  0  0  0
 11  9  1  0  0  0  0
 11 12  1  0  0  0  0
 13 24  2  0  0  0  0
 13 14  1  0  0  0  0
 14 15  2  0  0  0  0
 15 16  1  0  0  0  0
 15 17  1  0  0  0  0
 17 18  1  0  0  0  0
 18 20  1  0  0  0  0
 18 19  1  0  0  0  0
 21 20  2  0  0  0  0
 22 21  1  0  0  0  0
 23 17  2  0  0  0  0
 23 21  1  0  0  0  0
 24 23  1  0  0  0  0
 25 27  1  0  0  0  0
 26 27  2  0  0  0  0
 26 31  1  0  0  0  0
 27 28  1  0  0  0  0
 28 32  1  0  0  0  0
 28 29  2  0  0  0  0
 29 33  1  0  0  0  0
 30 29  1  0  0  0  0
 30 34  1  0  0  0  0
 31 30  2  0  0  0  0
 35 31  1  0  0  0  0
 35 39  1  0  0  0  0
 36 37  1  0  0  0  0
 36 35  2  0  0  0  0
 37 38  2  0  0  0  0
 38 39  1  0  0  0  0
 38 42  1  0  0  0  0
 40 36  1  0  0  0  0
 41 37  1  0  0  0  0
 43 44  3  0  0  0  0
 44 26  1  0  0  0  0
M  END
>  <minimizedAffinity>
-6.37082624

$$$$

 OpenBabel03272507433D

 44 48  0  0  0  0  0  0  0  0999 V2000
   37.0080   25.8680   33.0540 C   0  0  0  0  0  0  0  0  0  0  0  0
   36.4900   27.0090   32.4500 C   0  0  0  0  0  0  0  0  0  0  0  0
   35.7860   26.9590   31.2670 C   0  0  0  0  0  0  0  0  0  0  0  0
   35.6170   25.7300   30.7060 N   0  0  0  0  0  0  0  0  0  0  0  0
   36.1280   24.6120   31.3010 C   0  0  0  0  0  0  0  0  0  0  0  0
   36.8000   24.7000   32.4410 N   0  0  0  0  0  0  0  0  0  0  0  0
   35.3610   27.7790   30.7470 H   0  0  0  0  0  0  0  0  0  0  0  0
   35.9740   23.6500   30.8250 H   0  0  0  0  0  0  0  0  0  0  0  0
   35.4830   29.1300   33.2080 C   0  0  0  0  0  0  0  0  0  0  0  0
   34.2300   28.9510   32.9670 O   0  0  0  0  0  0  0  0  0  0  0  0
   36.6120   28.3250   32.9390 N   0  0  0  0  0  0  0  0  0  0  0  0
   37.6010   28.6060   33.0640 H   0  0  0  0  0  0  0  0  0  0  0  0
   35.8480   30.5190   35.2450 C   0  0  0  0  0  3  0  0  0  0  0  0
   35.6850   30.4140   33.8810 C   0  0  0  0  0  0  0  0  0  0  0  0
   35.7330   31.6270   33.2280 C   0  0  0  0  0  0  0  0  0  0  0  0
   35.6180   31.6760   32.1560 H   0  0  0  0  0  0  0  0  0  0  0  0
   35.9220   32.8550   33.8220 C   0  0  0  0  0  0  0  0  0  0  0  0
   35.9980   34.1210   33.3760 N   0  0  0  0  0  0  0  0  0  0  0  0
   35.9190   34.4400   32.3940 H   0  0  0  0  0  0  0  0  0  0  0  0
   36.1930   34.9180   34.4110 N   0  0  0  0  0  0  0  0  0  0  0  0
   36.2510   34.2180   35.5530 C   0  0  0  0  0  0  0  0  0  0  0  0
   36.3970   34.5470   36.5610 H   0  0  0  0  0  0  0  0  0  0  0  0
   36.0790   32.8970   35.1920 C   0  0  0  0  0  0  0  0  0  0  0  0
   36.0440   31.7280   35.9210 C   0  0  0  0  0  3  0  0  0  0  0  0
   37.6630   26.1260   34.2060 O   0  0  0  0  0  0  0  0  0  0  0  0
   39.5140   24.6630   34.9270 C   0  0  0  0  0  0  0  0  0  0  0  0
   38.9930   25.8510   34.4360 C   0  0  0  0  0  0  0  0  0  0  0  0
   39.8390   26.8980   34.1310 C   0  0  0  0  0  0  0  0  0  0  0  0
   41.2090   26.7620   34.3140 C   0  0  0  0  0  0  0  0  0  0  0  0
   41.7200   25.5740   34.8040 C   0  0  0  0  0  0  0  0  0  0  0  0
   40.8540   24.5540   35.0980 C   0  0  0  0  0  0  0  0  0  0  0  0
   39.5050   27.8510   33.7460 H   0  0  0  0  0  0  0  0  0  0  0  0
   41.8900   27.5770   34.0780 H   0  0  0  0  0  0  0  0  0  0  0  0
   42.7830   25.4210   34.9630 H   0  0  0  0  0  0  0  0  0  0  0  0
   41.4150   23.2840   35.6230 C   0  0  0  0  0  0  0  0  0  0  0  0
   41.4620   22.8150   36.9180 C   0  0  0  0  0  0  0  0  0  0  0  0
   42.0910   21.5740   36.8850 C   0  0  0  0  0  0  0  0  0  0  0  0
   42.3920   21.3610   35.5500 C   0  0  0  0  0  0  0  0  0  0  0  0
   41.9830   22.3880   34.8230 O   0  0  0  0  0  0  0  0  0  0  0  0
   41.0600   23.3680   37.7700 H   0  0  0  0  0  0  0  0  0  0  0  0
   42.2800   20.9530   37.7320 H   0  0  0  0  0  0  0  0  0  0  0  0
   42.8890   20.4940   35.1390 H   0  0  0  0  0  0  0  0  0  0  0  0
   37.8410   22.7740   35.4520 N   0  0  0  0  0  0  0  0  0  0  0  0
   38.5800   23.6240   35.2220 C   0  0  0  0  0  0  0  0  0  0  0  0
  1 25  1  0  0  0  0
  2 11  1  0  0  0  0
  2  1  1  0  0  0  0
  3  2  2  0  0  0  0
  4  3  1  0  0  0  0
  4  5  2  0  0  0  0
  5  6  1  0  0  0  0
  6  1  2  0  0  0  0
  7  3  1  0  0  0  0
  8  5  1  0  0  0  0
  9 14  1  0  0  0  0
 10  9  2  0  0  0  0
 11 12  1  0  0  0  0
 11  9  1  0  0  0  0
 13 24  1  0  0  0  0
 14 13  2  0  0  0  0
 15 17  2  0  0  0  0
 15 14  1  0  0  0  0
 16 15  1  0  0  0  0
 17 23  1  0  0  0  0
 18 17  1  0  0  0  0
 18 20  1  0  0  0  0
 19 18  1  0  0  0  0
 20 21  2  0  0  0  0
 21 22  1  0  0  0  0
 23 21  1  0  0  0  0
 23 24  2  0  0  0  0
 25 27  1  0  0  0  0
 26 31  1  0  0  0  0
 26 44  1  0  0  0  0
 27 26  2  0  0  0  0
 28 29  2  0  0  0  0
 28 27  1  0  0  0  0
 29 30  1  0  0  0  0
 30 34  1  0  0  0  0
 30 31  2  0  0  0  0
 31 35  1  0  0  0  0
 32 28  1  0  0  0  0
 33 29  1  0  0  0  0
 35 36  2  0  0  0  0
 36 40  1  0  0  0  0
 37 36  1  0  0  0  0
 37 41  1  0  0  0  0
 38 37  2  0  0  0  0
 39 38  1  0  0  0  0
 39 35  1  0  0  0  0
 42 38  1  0  0  0  0
 44 43  3  0  0  0  0
M  END
>  <minimizedAffinity>
-6.36106968

$$$$

 OpenBabel03272507433D

 44 48  0  0  0  0  0  0  0  0999 V2000
   37.0310   26.6910   33.1530 C   0  0  0  0  0  0  0  0  0  0  0  0
   36.4400   25.9420   32.1400 C   0  0  0  0  0  0  0  0  0  0  0  0
   35.9210   26.5230   31.0040 C   0  0  0  0  0  0  0  0  0  0  0  0
   36.0110   27.8780   30.9130 N   0  0  0  0  0  0  0  0  0  0  0  0
   36.5910   28.6100   31.9100 C   0  0  0  0  0  0  0  0  0  0  0  0
   37.0800   28.0160   32.9890 N   0  0  0  0  0  0  0  0  0  0  0  0
   35.4600   26.0230   30.1910 H   0  0  0  0  0  0  0  0  0  0  0  0
   36.6440   29.6880   31.8020 H   0  0  0  0  0  0  0  0  0  0  0  0
   37.1400   23.7000   31.3850 C   0  0  0  0  0  0  0  0  0  0  0  0
   38.0500   23.9660   30.5120 O   0  0  0  0  0  0  0  0  0  0  0  0
   36.2890   24.5410   32.1360 N   0  0  0  0  0  0  0  0  0  0  0  0
   35.5010   24.2300   32.7320 H   0  0  0  0  0  0  0  0  0  0  0  0
   38.1400   21.4370   31.6930 C   0  0  0  0  0  3  0  0  0  0  0  0
   37.0350   22.2530   31.5730 C   0  0  0  0  0  0  0  0  0  0  0  0
   35.8400   21.5700   31.6490 C   0  0  0  0  0  0  0  0  0  0  0  0
   34.9020   22.0990   31.5700 H   0  0  0  0  0  0  0  0  0  0  0  0
   35.6970   20.2120   31.8260 C   0  0  0  0  0  0  0  0  0  0  0  0
   34.6500   19.3740   31.9240 N   0  0  0  0  0  0  0  0  0  0  0  0
   33.6470   19.6260   31.8790 H   0  0  0  0  0  0  0  0  0  0  0  0
   35.1090   18.1470   32.0910 N   0  0  0  0  0  0  0  0  0  0  0  0
   36.4500   18.1350   32.1070 C   0  0  0  0  0  0  0  0  0  0  0  0
   37.1340   17.3190   32.2230 H   0  0  0  0  0  0  0  0  0  0  0  0
   36.8400   19.4470   31.9400 C   0  0  0  0  0  0  0  0  0  0  0  0
   38.0770   20.0520   31.8740 C   0  0  0  0  0  3  0  0  0  0  0  0
   37.4780   25.9380   34.1810 O   0  0  0  0  0  0  0  0  0  0  0  0
   39.3490   24.4900   34.8840 C   0  0  0  0  0  0  0  0  0  0  0  0
   38.8040   25.6950   34.4610 C   0  0  0  0  0  0  0  0  0  0  0  0
   39.6210   26.7940   34.2880 C   0  0  0  0  0  0  0  0  0  0  0  0
   40.9840   26.6950   34.5350 C   0  0  0  0  0  0  0  0  0  0  0  0
   41.5170   25.4900   34.9560 C   0  0  0  0  0  0  0  0  0  0  0  0
   40.6810   24.4180   35.1190 C   0  0  0  0  0  0  0  0  0  0  0  0
   39.2670   27.7620   33.9620 H   0  0  0  0  0  0  0  0  0  0  0  0
   41.6410   27.5510   34.4030 H   0  0  0  0  0  0  0  0  0  0  0  0
   42.5760   25.3650   35.1600 H   0  0  0  0  0  0  0  0  0  0  0  0
   41.2670   23.1310   35.5710 C   0  0  0  0  0  0  0  0  0  0  0  0
   41.4030   22.6300   36.8480 C   0  0  0  0  0  0  0  0  0  0  0  0
   42.0160   21.3860   36.7390 C   0  0  0  0  0  0  0  0  0  0  0  0
   42.2180   21.2040   35.3810 C   0  0  0  0  0  0  0  0  0  0  0  0
   41.7660   22.2510   34.7110 O   0  0  0  0  0  0  0  0  0  0  0  0
   41.0690   23.1650   37.7400 H   0  0  0  0  0  0  0  0  0  0  0  0
   42.2600   20.7430   37.5550 H   0  0  0  0  0  0  0  0  0  0  0  0
   42.6750   20.3430   34.9140 H   0  0  0  0  0  0  0  0  0  0  0  0
   37.7330   22.5030   35.1710 N   0  0  0  0  0  0  0  0  0  0  0  0
   38.4450   23.3970   35.0420 C   0  0  0  0  0  0  0  0  0  0  0  0
  1 25  1  0  0  0  0
  2  1  2  0  0  0  0
  3  2  1  0  0  0  0
  4  3  2  0  0  0  0
  4  5  1  0  0  0  0
  5  6  2  0  0  0  0
  6  1  1  0  0  0  0
  7  3  1  0  0  0  0
  8  5  1  0  0  0  0
  9 14  1  0  0  0  0
  9 11  1  0  0  0  0
 10  9  2  0  0  0  0
 11  2  1  0  0  0  0
 11 12  1  0  0  0  0
 13 24  1  0  0  0  0
 14 15  1  0  0  0  0
 14 13  2  0  0  0  0
 15 17  2  0  0  0  0
 16 15  1  0  0  0  0
 17 18  1  0  0  0  0
 17 23  1  0  0  0  0
 18 20  1  0  0  0  0
 19 18  1  0  0  0  0
 20 21  2  0  0  0  0
 21 22  1  0  0  0  0
 23 21  1  0  0  0  0
 24 23  2  0  0  0  0
 25 27  1  0  0  0  0
 26 44  1  0  0  0  0
 26 31  1  0  0  0  0
 27 26  2  0  0  0  0
 28 27  1  0  0  0  0
 28 29  2  0  0  0  0
 29 30  1  0  0  0  0
 30 31  2  0  0  0  0
 30 34  1  0  0  0  0
 31 35  1  0  0  0  0
 32 28  1  0  0  0  0
 33 29  1  0  0  0  0
 35 36  2  0  0  0  0
 36 40  1  0  0  0  0
 37 36  1  0  0  0  0
 37 41  1  0  0  0  0
 38 37  2  0  0  0  0
 39 38  1  0  0  0  0
 39 35  1  0  0  0  0
 42 38  1  0  0  0  0
 44 43  3  0  0  0  0
M  END
>  <minimizedAffinity>
-6.24786758

$$$$

 OpenBabel03272507433D

 44 48  0  0  0  0  0  0  0  0999 V2000
   36.1700   28.8530   32.2640 C   0  0  0  0  0  0  0  0  0  0  0  0
   37.3110   28.0580   32.3200 C   0  0  0  0  0  0  0  0  0  0  0  0
   38.1970   27.9680   31.2690 C   0  0  0  0  0  0  0  0  0  0  0  0
   37.9050   28.6990   30.1580 N   0  0  0  0  0  0  0  0  0  0  0  0
   36.7840   29.4780   30.1070 C   0  0  0  0  0  0  0  0  0  0  0  0
   35.9550   29.5390   31.1390 N   0  0  0  0  0  0  0  0  0  0  0  0
   39.0830   27.3890   31.2350 H   0  0  0  0  0  0  0  0  0  0  0  0
   36.5840   30.0470   29.2040 H   0  0  0  0  0  0  0  0  0  0  0  0
   37.4550   25.8670   33.4460 C   0  0  0  0  0  0  0  0  0  0  0  0
   36.7700   25.1030   32.6670 O   0  0  0  0  0  0  0  0  0  0  0  0
   37.7020   27.2580   33.4120 N   0  0  0  0  0  0  0  0  0  0  0  0
   38.1710   27.8080   34.1530 H   0  0  0  0  0  0  0  0  0  0  0  0
   39.0560   24.1640   34.3100 C   0  0  0  0  0  3  0  0  0  0  0  0
   38.0480   25.0780   34.5260 C   0  0  0  0  0  0  0  0  0  0  0  0
   37.6650   25.1700   35.8470 C   0  0  0  0  0  0  0  0  0  0  0  0
   36.8840   25.8530   36.1440 H   0  0  0  0  0  0  0  0  0  0  0  0
   38.1980   24.4480   36.8920 C   0  0  0  0  0  0  0  0  0  0  0  0
   37.9710   24.3910   38.2170 N   0  0  0  0  0  0  0  0  0  0  0  0
   37.2760   24.9410   38.7520 H   0  0  0  0  0  0  0  0  0  0  0  0
   38.7920   23.5010   38.7440 N   0  0  0  0  0  0  0  0  0  0  0  0
   39.5730   22.9510   37.8030 C   0  0  0  0  0  0  0  0  0  0  0  0
   40.3380   22.2070   37.8850 H   0  0  0  0  0  0  0  0  0  0  0  0
   39.2050   23.5480   36.6150 C   0  0  0  0  0  0  0  0  0  0  0  0
   39.6470   23.3940   35.3180 C   0  0  0  0  0  3  0  0  0  0  0  0
   35.4330   28.8060   33.3950 O   0  0  0  0  0  0  0  0  0  0  0  0
   34.1820   30.6240   34.4990 C   0  0  0  0  0  0  0  0  0  0  0  0
   34.2980   29.5500   33.6270 C   0  0  0  0  0  0  0  0  0  0  0  0
   33.2020   29.1390   32.8950 C   0  0  0  0  0  0  0  0  0  0  0  0
   31.9880   29.7990   33.0290 C   0  0  0  0  0  0  0  0  0  0  0  0
   31.8820   30.8690   33.9000 C   0  0  0  0  0  0  0  0  0  0  0  0
   32.9870   31.2520   34.6130 C   0  0  0  0  0  0  0  0  0  0  0  0
   33.2180   28.3130   32.1990 H   0  0  0  0  0  0  0  0  0  0  0  0
   31.1150   29.4890   32.4590 H   0  0  0  0  0  0  0  0  0  0  0  0
   30.9540   31.4150   34.0370 H   0  0  0  0  0  0  0  0  0  0  0  0
   32.8600   32.4010   35.5440 C   0  0  0  0  0  0  0  0  0  0  0  0
   32.4490   32.4220   36.8600 C   0  0  0  0  0  0  0  0  0  0  0  0
   32.5050   33.7450   37.2870 C   0  0  0  0  0  0  0  0  0  0  0  0
   32.9530   34.4580   36.1880 C   0  0  0  0  0  0  0  0  0  0  0  0
   33.1560   33.6400   35.1680 O   0  0  0  0  0  0  0  0  0  0  0  0
   32.1490   31.5260   37.4080 H   0  0  0  0  0  0  0  0  0  0  0  0
   32.2470   34.0910   38.2640 H   0  0  0  0  0  0  0  0  0  0  0  0
   33.1200   35.5250   36.1440 H   0  0  0  0  0  0  0  0  0  0  0  0
   36.2900   31.3040   35.8180 N   0  0  0  0  0  0  0  0  0  0  0  0
   35.3560   30.9920   35.2240 C   0  0  0  0  0  0  0  0  0  0  0  0
  1  2  1  0  0  0  0
  1 25  1  0  0  0  0
  2 11  1  0  0  0  0
  3  2  2  0  0  0  0
  4  3  1  0  0  0  0
  5  4  2  0  0  0  0
  5  6  1  0  0  0  0
  6  1  2  0  0  0  0
  7  3  1  0  0  0  0
  8  5  1  0  0  0  0
  9 14  1  0  0  0  0
 10  9  2  0  0  0  0
 11  9  1  0  0  0  0
 11 12  1  0  0  0  0
 13 14  2  0  0  0  0
 13 24  1  0  0  0  0
 14 15  1  0  0  0  0
 15 16  1  0  0  0  0
 15 17  2  0  0  0  0
 17 18  1  0  0  0  0
 18 20  1  0  0  0  0
 18 19  1  0  0  0  0
 21 22  1  0  0  0  0
 21 20  2  0  0  0  0
 23 17  1  0  0  0  0
 23 21  1  0  0  0  0
 24 23  2  0  0  0  0
 25 27  1  0  0  0  0
 26 31  1  0  0  0  0
 26 44  1  0  0  0  0
 27 26  2  0  0  0  0
 28 29  2  0  0  0  0
 28 27  1  0  0  0  0
 29 30  1  0  0  0  0
 30 34  1  0  0  0  0
 30 31  2  0  0  0  0
 31 35  1  0  0  0  0
 32 28  1  0  0  0  0
 33 29  1  0  0  0  0
 35 36  2  0  0  0  0
 36 37  1  0  0  0  0
 36 40  1  0  0  0  0
 37 41  1  0  0  0  0
 38 37  2  0  0  0  0
 39 35  1  0  0  0  0
 39 38  1  0  0  0  0
 42 38  1  0  0  0  0
 44 43  3  0  0  0  0
M  END
>  <minimizedAffinity>
-6.22373533

$$$$

 OpenBabel03272507433D

 44 48  0  0  0  0  0  0  0  0999 V2000
   37.8970   25.9920   31.3450 C   0  0  0  0  0  0  0  0  0  0  0  0
   37.9960   27.3670   31.5370 C   0  0  0  0  0  0  0  0  0  0  0  0
   38.8090   28.1620   30.7590 C   0  0  0  0  0  0  0  0  0  0  0  0
   39.5210   27.5370   29.7810 N   0  0  0  0  0  0  0  0  0  0  0  0
   39.4210   26.1870   29.5960 C   0  0  0  0  0  0  0  0  0  0  0  0
   38.6280   25.4560   30.3650 N   0  0  0  0  0  0  0  0  0  0  0  0
   38.9370   29.2100   30.8410 H   0  0  0  0  0  0  0  0  0  0  0  0
   40.0040   25.7240   28.8060 H   0  0  0  0  0  0  0  0  0  0  0  0
   36.2500   28.9830   32.1930 C   0  0  0  0  0  0  0  0  0  0  0  0
   35.7950   29.3850   31.0570 O   0  0  0  0  0  0  0  0  0  0  0  0
   37.3130   28.1100   32.5200 N   0  0  0  0  0  0  0  0  0  0  0  0
   37.6830   27.9370   33.4710 H   0  0  0  0  0  0  0  0  0  0  0  0
   34.1130   29.4120   33.4020 C   0  0  0  0  0  3  0  0  0  0  0  0
   35.4760   29.5790   33.2820 C   0  0  0  0  0  0  0  0  0  0  0  0
   36.0220   30.3540   34.2820 C   0  0  0  0  0  0  0  0  0  0  0  0
   37.0820   30.5580   34.2990 H   0  0  0  0  0  0  0  0  0  0  0  0
   35.3300   30.9320   35.3230 C   0  0  0  0  0  0  0  0  0  0  0  0
   35.6670   31.7030   36.3730 N   0  0  0  0  0  0  0  0  0  0  0  0
   36.6150   32.0400   36.6160 H   0  0  0  0  0  0  0  0  0  0  0  0
   34.5740   31.9710   37.0630 N   0  0  0  0  0  0  0  0  0  0  0  0
   33.4990   31.3970   36.5030 C   0  0  0  0  0  0  0  0  0  0  0  0
   32.4710   31.4110   36.8020 H   0  0  0  0  0  0  0  0  0  0  0  0
   33.9670   30.7290   35.3910 C   0  0  0  0  0  0  0  0  0  0  0  0
   33.3410   29.9660   34.4290 C   0  0  0  0  0  3  0  0  0  0  0  0
   37.0470   25.3940   32.2080 O   0  0  0  0  0  0  0  0  0  0  0  0
   37.8680   24.2730   34.2470 C   0  0  0  0  0  0  0  0  0  0  0  0
   37.3440   24.2810   32.9620 C   0  0  0  0  0  0  0  0  0  0  0  0
   37.0730   23.0870   32.3230 C   0  0  0  0  0  0  0  0  0  0  0  0
   37.3240   21.8820   32.9650 C   0  0  0  0  0  0  0  0  0  0  0  0
   37.8460   21.8840   34.2460 C   0  0  0  0  0  0  0  0  0  0  0  0
   38.1040   23.0840   34.8530 C   0  0  0  0  0  0  0  0  0  0  0  0
   36.6660   23.0170   31.3250 H   0  0  0  0  0  0  0  0  0  0  0  0
   37.1160   20.9330   32.4770 H   0  0  0  0  0  0  0  0  0  0  0  0
   38.0570   20.9670   34.7880 H   0  0  0  0  0  0  0  0  0  0  0  0
   38.6640   23.0720   36.2270 C   0  0  0  0  0  0  0  0  0  0  0  0
   38.0580   23.3840   37.4250 C   0  0  0  0  0  0  0  0  0  0  0  0
   39.0100   23.2160   38.4260 C   0  0  0  0  0  0  0  0  0  0  0  0
   40.1550   22.8060   37.7640 C   0  0  0  0  0  0  0  0  0  0  0  0
   39.9260   22.7290   36.4640 O   0  0  0  0  0  0  0  0  0  0  0  0
   37.0150   23.6990   37.5030 H   0  0  0  0  0  0  0  0  0  0  0  0
   38.8480   23.3800   39.4680 H   0  0  0  0  0  0  0  0  0  0  0  0
   41.1080   22.5770   38.2210 H   0  0  0  0  0  0  0  0  0  0  0  0
   38.3090   26.5690   35.3310 N   0  0  0  0  0  0  0  0  0  0  0  0
   38.1230   25.5440   34.8450 C   0  0  0  0  0  0  0  0  0  0  0  0
  1  2  1  0  0  0  0
  1 25  1  0  0  0  0
  2 11  1  0  0  0  0
  3  7  1  0  0  0  0
  3  2  2  0  0  0  0
  4  3  1  0  0  0  0
  5  4  2  0  0  0  0
  5  6  1  0  0  0  0
  6  1  2  0  0  0  0
  8  5  1  0  0  0  0
  9 11  1  0  0  0  0
  9 14  1  0  0  0  0
 10  9  2  0  0  0  0
 11 12  1  0  0  0  0
 13 24  1  0  0  0  0
 14 13  2  0  0  0  0
 14 15  1  0  0  0  0
 15 16  1  0  0  0  0
 15 17  2  0  0  0  0
 17 23  1  0  0  0  0
 17 18  1  0  0  0  0
 18 19  1  0  0  0  0
 18 20  1  0  0  0  0
 21 22  1  0  0  0  0
 21 20  2  0  0  0  0
 23 21  1  0  0  0  0
 24 23  2  0  0  0  0
 25 27  1  0  0  0  0
 26 44  1  0  0  0  0
 26 31  1  0  0  0  0
 27 26  2  0  0  0  0
 28 27  1  0  0  0  0
 28 29  2  0  0  0  0
 29 30  1  0  0  0  0
 30 34  1  0  0  0  0
 30 31  2  0  0  0  0
 31 35  1  0  0  0  0
 32 28  1  0  0  0  0
 33 29  1  0  0  0  0
 35 39  1  0  0  0  0
 35 36  2  0  0  0  0
 36 40  1  0  0  0  0
 36 37  1  0  0  0  0
 37 41  1  0  0  0  0
 38 42  1  0  0  0  0
 38 37  2  0  0  0  0
 39 38  1  0  0  0  0
 44 43  3  0  0  0  0
M  END
>  <minimizedAffinity>
-6.18676615

$$$$

 OpenBabel03272507433D

 44 48  0  0  0  0  0  0  0  0999 V2000
   35.8770   29.5430   32.9550 C   0  0  0  0  0  0  0  0  0  0  0  0
   36.4590   28.3630   32.5020 C   0  0  0  0  0  0  0  0  0  0  0  0
   36.7370   28.1450   31.1710 C   0  0  0  0  0  0  0  0  0  0  0  0
   36.4130   29.1440   30.3050 N   0  0  0  0  0  0  0  0  0  0  0  0
   35.8410   30.3010   30.7530 C   0  0  0  0  0  0  0  0  0  0  0  0
   35.5890   30.4750   32.0430 N   0  0  0  0  0  0  0  0  0  0  0  0
   37.1780   27.2780   30.7490 H   0  0  0  0  0  0  0  0  0  0  0  0
   35.5960   31.0750   30.0340 H   0  0  0  0  0  0  0  0  0  0  0  0
   38.1770   26.9070   33.5110 C   0  0  0  0  0  0  0  0  0  0  0  0
   39.2640   27.3340   32.9680 O   0  0  0  0  0  0  0  0  0  0  0  0
   36.8250   27.2660   33.3070 N   0  0  0  0  0  0  0  0  0  0  0  0
   36.0030   26.7810   33.7070 H   0  0  0  0  0  0  0  0  0  0  0  0
   39.3600   24.8400   34.2450 C   0  0  0  0  0  3  0  0  0  0  0  0
   38.4830   25.8730   34.4990 C   0  0  0  0  0  0  0  0  0  0  0  0
   37.9360   25.8280   35.7630 C   0  0  0  0  0  0  0  0  0  0  0  0
   37.2350   26.5830   36.0830 H   0  0  0  0  0  0  0  0  0  0  0  0
   38.1990   24.8740   36.7220 C   0  0  0  0  0  0  0  0  0  0  0  0
   37.7810   24.6570   37.9810 N   0  0  0  0  0  0  0  0  0  0  0  0
   37.1100   25.2320   38.5210 H   0  0  0  0  0  0  0  0  0  0  0  0
   38.3720   23.5680   38.4370 N   0  0  0  0  0  0  0  0  0  0  0  0
   39.1850   23.0400   37.5100 C   0  0  0  0  0  0  0  0  0  0  0  0
   39.8080   22.1700   37.5490 H   0  0  0  0  0  0  0  0  0  0  0  0
   39.0850   23.8640   36.4090 C   0  0  0  0  0  0  0  0  0  0  0  0
   39.6770   23.8350   35.1640 C   0  0  0  0  0  3  0  0  0  0  0  0
   35.6870   29.5630   34.2920 O   0  0  0  0  0  0  0  0  0  0  0  0
   34.5660   31.3890   35.5180 C   0  0  0  0  0  0  0  0  0  0  0  0
   34.6060   30.1340   34.9260 C   0  0  0  0  0  0  0  0  0  0  0  0
   33.4830   29.3300   34.9440 C   0  0  0  0  0  0  0  0  0  0  0  0
   32.3170   29.7770   35.5510 C   0  0  0  0  0  0  0  0  0  0  0  0
   32.2870   31.0300   36.1380 C   0  0  0  0  0  0  0  0  0  0  0  0
   33.4170   31.8020   36.1040 C   0  0  0  0  0  0  0  0  0  0  0  0
   33.4410   28.3440   34.5050 H   0  0  0  0  0  0  0  0  0  0  0  0
   31.4240   29.1580   35.5740 H   0  0  0  0  0  0  0  0  0  0  0  0
   31.3990   31.4210   36.6240 H   0  0  0  0  0  0  0  0  0  0  0  0
   33.3720   33.1440   36.7380 C   0  0  0  0  0  0  0  0  0  0  0  0
   32.7560   34.2980   36.3050 C   0  0  0  0  0  0  0  0  0  0  0  0
   33.0100   35.2830   37.2550 C   0  0  0  0  0  0  0  0  0  0  0  0
   33.7770   34.6560   38.2230 C   0  0  0  0  0  0  0  0  0  0  0  0
   33.9790   33.3910   37.8940 O   0  0  0  0  0  0  0  0  0  0  0  0
   32.1860   34.3600   35.3750 H   0  0  0  0  0  0  0  0  0  0  0  0
   32.6670   36.2920   37.2080 H   0  0  0  0  0  0  0  0  0  0  0  0
   34.1670   35.1120   39.1220 H   0  0  0  0  0  0  0  0  0  0  0  0
   36.7200   32.7990   35.4020 N   0  0  0  0  0  0  0  0  0  0  0  0
   35.7640   32.1630   35.4620 C   0  0  0  0  0  0  0  0  0  0  0  0
  1 25  1  0  0  0  0
  2  1  1  0  0  0  0
  2 11  1  0  0  0  0
  3  2  2  0  0  0  0
  4  5  2  0  0  0  0
  4  3  1  0  0  0  0
  5  6  1  0  0  0  0
  6  1  2  0  0  0  0
  7  3  1  0  0  0  0
  8  5  1  0  0  0  0
  9 14  1  0  0  0  0
 10  9  2  0  0  0  0
 11  9  1  0  0  0  0
 11 12  1  0  0  0  0
 13 14  2  0  0  0  0
 13 24  1  0  0  0  0
 14 15  1  0  0  0  0
 15 16  1  0  0  0  0
 15 17  2  0  0  0  0
 17 18  1  0  0  0  0
 18 20  1  0  0  0  0
 18 19  1  0  0  0  0
 21 22  1  0  0  0  0
 21 20  2  0  0  0  0
 23 17  1  0  0  0  0
 23 21  1  0  0  0  0
 24 23  2  0  0  0  0
 25 27  1  0  0  0  0
 26 31  1  0  0  0  0
 27 28  1  0  0  0  0
 27 26  2  0  0  0  0
 28 29  2  0  0  0  0
 29 33  1  0  0  0  0
 29 30  1  0  0  0  0
 30 34  1  0  0  0  0
 31 30  2  0  0  0  0
 31 35  1  0  0  0  0
 32 28  1  0  0  0  0
 35 39  1  0  0  0  0
 36 35  2  0  0  0  0
 36 37  1  0  0  0  0
 37 38  2  0  0  0  0
 38 42  1  0  0  0  0
 39 38  1  0  0  0  0
 40 36  1  0  0  0  0
 41 37  1  0  0  0  0
 43 44  3  0  0  0  0
 44 26  1  0  0  0  0
M  END
>  <minimizedAffinity>
-6.18264294

$$$$

 OpenBabel03272507433D

 44 48  0  0  0  0  0  0  0  0999 V2000
   36.5930   26.2740   31.5140 C   0  0  0  0  0  0  0  0  0  0  0  0
   37.3320   25.1980   31.9970 C   0  0  0  0  0  0  0  0  0  0  0  0
   36.8630   23.9040   31.9500 C   0  0  0  0  0  0  0  0  0  0  0  0
   35.6290   23.7190   31.4050 N   0  0  0  0  0  0  0  0  0  0  0  0
   34.9060   24.7770   30.9330 C   0  0  0  0  0  0  0  0  0  0  0  0
   35.3910   26.0090   30.9940 N   0  0  0  0  0  0  0  0  0  0  0  0
   37.3630   23.0360   32.2940 H   0  0  0  0  0  0  0  0  0  0  0  0
   33.9270   24.5910   30.5050 H   0  0  0  0  0  0  0  0  0  0  0  0
   38.8240   24.9790   33.9500 C   0  0  0  0  0  0  0  0  0  0  0  0
   38.0000   24.7390   34.9110 O   0  0  0  0  0  0  0  0  0  0  0  0
   38.6100   25.2780   32.5860 N   0  0  0  0  0  0  0  0  0  0  0  0
   39.3350   25.5750   31.9090 H   0  0  0  0  0  0  0  0  0  0  0  0
   41.1210   25.9080   34.2120 C   0  0  0  0  0  3  0  0  0  0  0  0
   40.2000   24.9100   34.4420 C   0  0  0  0  0  0  0  0  0  0  0  0
   40.7050   23.8570   35.1750 C   0  0  0  0  0  0  0  0  0  0  0  0
   40.0800   23.0130   35.4220 H   0  0  0  0  0  0  0  0  0  0  0  0
   41.9910   23.7550   35.6570 C   0  0  0  0  0  0  0  0  0  0  0  0
   42.6630   22.8360   36.3740 N   0  0  0  0  0  0  0  0  0  0  0  0
   42.2950   21.9380   36.7330 H   0  0  0  0  0  0  0  0  0  0  0  0
   43.8990   23.2670   36.5520 N   0  0  0  0  0  0  0  0  0  0  0  0
   44.0790   24.4620   35.9700 C   0  0  0  0  0  0  0  0  0  0  0  0
   44.9480   25.0850   35.9230 H   0  0  0  0  0  0  0  0  0  0  0  0
   42.8680   24.7860   35.3950 C   0  0  0  0  0  0  0  0  0  0  0  0
   42.4440   25.8770   34.6670 C   0  0  0  0  0  3  0  0  0  0  0  0
   37.2260   27.4590   31.6500 O   0  0  0  0  0  0  0  0  0  0  0  0
   36.2210   29.1500   33.1400 C   0  0  0  0  0  0  0  0  0  0  0  0
   36.6040   28.6620   31.8980 C   0  0  0  0  0  0  0  0  0  0  0  0
   36.3640   29.4100   30.7630 C   0  0  0  0  0  0  0  0  0  0  0  0
   35.7420   30.6470   30.8630 C   0  0  0  0  0  0  0  0  0  0  0  0
   35.3640   31.1250   32.1050 C   0  0  0  0  0  0  0  0  0  0  0  0
   35.6150   30.3590   33.2120 C   0  0  0  0  0  0  0  0  0  0  0  0
   36.6340   29.0940   29.7660 H   0  0  0  0  0  0  0  0  0  0  0  0
   35.5460   31.2490   29.9790 H   0  0  0  0  0  0  0  0  0  0  0  0
   34.8750   32.0860   32.2320 H   0  0  0  0  0  0  0  0  0  0  0  0
   35.2040   30.8830   34.5390 C   0  0  0  0  0  0  0  0  0  0  0  0
   35.9350   31.5940   35.4660 C   0  0  0  0  0  0  0  0  0  0  0  0
   35.0950   31.8490   36.5460 C   0  0  0  0  0  0  0  0  0  0  0  0
   33.8860   31.2690   36.2030 C   0  0  0  0  0  0  0  0  0  0  0  0
   33.9750   30.7030   35.0100 O   0  0  0  0  0  0  0  0  0  0  0  0
   36.9810   31.8730   35.3180 H   0  0  0  0  0  0  0  0  0  0  0  0
   35.3670   32.3820   37.4300 H   0  0  0  0  0  0  0  0  0  0  0  0
   32.9870   31.2640   36.8030 H   0  0  0  0  0  0  0  0  0  0  0  0
   36.7460   27.6570   35.1740 N   0  0  0  0  0  0  0  0  0  0  0  0
   36.5000   28.3220   34.2690 C   0  0  0  0  0  0  0  0  0  0  0  0
  1 25  1  0  0  0  0
  1  2  1  0  0  0  0
  2 11  1  0  0  0  0
  3  2  2  0  0  0  0
  3  7  1  0  0  0  0
  4  3  1  0  0  0  0
  5  6  1  0  0  0  0
  5  4  2  0  0  0  0
  6  1  2  0  0  0  0
  8  5  1  0  0  0  0
  9 14  1  0  0  0  0
  9 10  2  0  0  0  0
 11  9  1  0  0  0  0
 12 11  1  0  0  0  0
 13 14  2  0  0  0  0
 13 24  1  0  0  0  0
 14 15  1  0  0  0  0
 15 16  1  0  0  0  0
 15 17  2  0  0  0  0
 17 18  1  0  0  0  0
 18 20  1  0  0  0  0
 18 19  1  0  0  0  0
 21 20  2  0  0  0  0
 22 21  1  0  0  0  0
 23 17  1  0  0  0  0
 23 21  1  0  0  0  0
 24 23  2  0  0  0  0
 25 27  1  0  0  0  0
 26 31  1  0  0  0  0
 26 44  1  0  0  0  0
 27 26  2  0  0  0  0
 28 29  2  0  0  0  0
 28 27  1  0  0  0  0
 29 30  1  0  0  0  0
 30 34  1  0  0  0  0
 30 31  2  0  0  0  0
 31 35  1  0  0  0  0
 32 28  1  0  0  0  0
 33 29  1  0  0  0  0
 35 39  1  0  0  0  0
 35 36  2  0  0  0  0
 36 37  1  0  0  0  0
 37 41  1  0  0  0  0
 38 37  2  0  0  0  0
 38 42  1  0  0  0  0
 39 38  1  0  0  0  0
 40 36  1  0  0  0  0
 44 43  3  0  0  0  0
M  END
>  <minimizedAffinity>
-6.164083

$$$$

 OpenBabel03272507433D

 44 48  0  0  0  0  0  0  0  0999 V2000
   42.1850   24.9600   34.7190 C   0  0  0  0  0  0  0  0  0  0  0  0
   41.7950   23.7190   35.2130 C   0  0  0  0  0  0  0  0  0  0  0  0
   42.4590   23.0990   36.2490 C   0  0  0  0  0  0  0  0  0  0  0  0
   43.5270   23.7600   36.7750 N   0  0  0  0  0  0  0  0  0  0  0  0
   43.9070   24.9780   36.2860 C   0  0  0  0  0  0  0  0  0  0  0  0
   43.2430   25.5430   35.2880 N   0  0  0  0  0  0  0  0  0  0  0  0
   42.2250   22.1600   36.6810 H   0  0  0  0  0  0  0  0  0  0  0  0
   44.7630   25.4740   36.7310 H   0  0  0  0  0  0  0  0  0  0  0  0
   39.5300   22.7820   35.4910 C   0  0  0  0  0  0  0  0  0  0  0  0
   39.2300   23.1160   36.6980 O   0  0  0  0  0  0  0  0  0  0  0  0
   40.7150   22.9480   34.7400 N   0  0  0  0  0  0  0  0  0  0  0  0
   40.9050   22.5380   33.8080 H   0  0  0  0  0  0  0  0  0  0  0  0
   37.2510   21.7740   35.5530 C   0  0  0  0  0  3  0  0  0  0  0  0
   38.3890   22.1200   34.8570 C   0  0  0  0  0  0  0  0  0  0  0  0
   38.3380   21.7820   33.5220 C   0  0  0  0  0  0  0  0  0  0  0  0
   39.1690   22.0010   32.8700 H   0  0  0  0  0  0  0  0  0  0  0  0
   37.2840   21.1610   32.8870 C   0  0  0  0  0  0  0  0  0  0  0  0
   37.0430   20.7550   31.6280 N   0  0  0  0  0  0  0  0  0  0  0  0
   37.6770   20.8470   30.8140 H   0  0  0  0  0  0  0  0  0  0  0  0
   35.8430   20.2080   31.5870 N   0  0  0  0  0  0  0  0  0  0  0  0
   35.2620   20.2320   32.7960 C   0  0  0  0  0  0  0  0  0  0  0  0
   34.3030   19.8780   33.1110 H   0  0  0  0  0  0  0  0  0  0  0  0
   36.1720   20.8390   33.6370 C   0  0  0  0  0  0  0  0  0  0  0  0
   36.1420   21.1420   34.9810 C   0  0  0  0  0  3  0  0  0  0  0  0
   41.4070   25.3970   33.7050 O   0  0  0  0  0  0  0  0  0  0  0  0
   39.0520   25.4640   32.9710 C   0  0  0  0  0  0  0  0  0  0  0  0
   40.0920   25.7850   33.8320 C   0  0  0  0  0  0  0  0  0  0  0  0
   39.8470   26.5690   34.9420 C   0  0  0  0  0  0  0  0  0  0  0  0
   38.5640   27.0350   35.1960 C   0  0  0  0  0  0  0  0  0  0  0  0
   37.5340   26.7100   34.3320 C   0  0  0  0  0  0  0  0  0  0  0  0
   37.8090   25.9310   33.2390 C   0  0  0  0  0  0  0  0  0  0  0  0
   40.6060   26.8580   35.6540 H   0  0  0  0  0  0  0  0  0  0  0  0
   38.3540   27.6530   36.0660 H   0  0  0  0  0  0  0  0  0  0  0  0
   36.5150   27.0500   34.4900 H   0  0  0  0  0  0  0  0  0  0  0  0
   36.6950   25.5890   32.3200 C   0  0  0  0  0  0  0  0  0  0  0  0
   35.9690   26.4060   31.4800 C   0  0  0  0  0  0  0  0  0  0  0  0
   35.0350   25.6050   30.8310 C   0  0  0  0  0  0  0  0  0  0  0  0
   35.2540   24.3290   31.3230 C   0  0  0  0  0  0  0  0  0  0  0  0
   36.2410   24.3460   32.2040 O   0  0  0  0  0  0  0  0  0  0  0  0
   36.1460   27.4800   31.3890 H   0  0  0  0  0  0  0  0  0  0  0  0
   34.3210   25.9430   30.1130 H   0  0  0  0  0  0  0  0  0  0  0  0
   34.7120   23.4360   31.0460 H   0  0  0  0  0  0  0  0  0  0  0  0
   39.6430   23.9800   30.9490 N   0  0  0  0  0  0  0  0  0  0  0  0
   39.3790   24.6510   31.8440 C   0  0  0  0  0  0  0  0  0  0  0  0
  1  2  2  0  0  0  0
  1  6  1  0  0  0  0
  2  3  1  0  0  0  0
  3  7  1  0  0  0  0
  3  4  2  0  0  0  0
  5  8  1  0  0  0  0
  5  4  1  0  0  0  0
  6  5  2  0  0  0  0
  9 10  2  0  0  0  0
 11  2  1  0  0  0  0
 11  9  1  0  0  0  0
 12 11  1  0  0  0  0
 14  9  1  0  0  0  0
 14 13  2  0  0  0  0
 15 14  1  0  0  0  0
 16 15  1  0  0  0  0
 17 15  2  0  0  0  0
 17 23  1  0  0  0  0
 18 17  1  0  0  0  0
 19 18  1  0  0  0  0
 20 18  1  0  0  0  0
 20 21  2  0  0  0  0
 21 22  1  0  0  0  0
 21 23  1  0  0  0  0
 23 24  2  0  0  0  0
 24 13  1  0  0  0  0
 25 27  1  0  0  0  0
 25  1  1  0  0  0  0
 26 31  2  0  0  0  0
 26 27  1  0  0  0  0
 27 28  2  0  0  0  0
 28 29  1  0  0  0  0
 28 32  1  0  0  0  0
 29 33  1  0  0  0  0
 30 34  1  0  0  0  0
 30 29  2  0  0  0  0
 31 30  1  0  0  0  0
 35 31  1  0  0  0  0
 36 35  2  0  0  0  0
 37 38  2  0  0  0  0
 37 36  1  0  0  0  0
 38 39  1  0  0  0  0
 39 35  1  0  0  0  0
 40 36  1  0  0  0  0
 41 37  1  0  0  0  0
 42 38  1  0  0  0  0
 43 44  3  0  0  0  0
 44 26  1  0  0  0  0
M  END
>  <minimizedAffinity>
-6.14162493

$$$$
