
 OpenBabel03272501073D

 43 47  0  0  1  0  0  0  0  0999 V2000
   40.6020   32.0220   44.6410 Cl  0  0  0  0  0  0  0  0  0  0  0  0
   39.0760   31.1710   44.5110 C   0  0  0  0  0  0  0  0  0  0  0  0
   38.1660   31.4980   45.5060 C   0  0  0  0  0  0  0  0  0  0  0  0
   36.9500   30.8340   45.4150 C   0  0  0  0  0  0  0  0  0  0  0  0
   36.6810   29.9220   44.4080 C   0  0  0  0  0  0  0  0  0  0  0  0
   37.6230   29.6460   43.4610 C   0  0  0  0  0  0  0  0  0  0  0  0
   38.8330   30.2750   43.5100 C   0  0  0  0  0  0  0  0  0  0  0  0
   36.1190   30.9570   46.0950 H   0  0  0  0  0  0  0  0  0  0  0  0
   35.7440   29.3890   44.3120 H   0  0  0  0  0  0  0  0  0  0  0  0
   37.4340   28.9370   42.6670 H   0  0  0  0  0  0  0  0  0  0  0  0
   40.9490   29.1530   42.5600 C   0  0  0  0  0  3  0  0  0  0  0  0
   39.8780   30.0230   42.5270 C   0  0  0  0  0  0  0  0  0  0  0  0
   39.6900   30.8310   41.3990 C   0  0  0  0  0  0  0  0  0  0  0  0
   38.8950   31.5550   41.2380 H   0  0  0  0  0  0  0  0  0  0  0  0
   40.5570   30.7750   40.3170 C   0  0  0  0  0  0  0  0  0  0  0  0
   40.6610   31.3900   39.1230 N   0  0  0  0  0  0  0  0  0  0  0  0
   39.9890   32.1210   38.7830 H   0  0  0  0  0  0  0  0  0  0  0  0
   41.7290   30.9300   38.4600 N   0  0  0  0  0  0  0  0  0  0  0  0
   42.3560   29.9990   39.2030 C   0  0  0  0  0  0  0  0  0  0  0  0
   43.2570   29.4390   38.9380 H   0  0  0  0  0  0  0  0  0  0  0  0
   41.6240   29.9000   40.3680 C   0  0  0  0  0  0  0  0  0  0  0  0
   41.8070   29.1050   41.4800 C   0  0  0  0  0  3  0  0  0  0  0  0
   38.2060   32.3370   46.5590 O   0  0  0  0  0  0  0  0  0  0  0  0
   38.9310   32.4680   47.6960 C   0  0  2  0  0  0  0  0  0  0  0  0
   38.0290   32.7490   48.9420 C   0  0  2  0  0  0  0  0  0  0  0  0
   38.9720   33.4610   49.7930 C   0  0  0  0  0  0  0  0  0  0  0  0
   39.7630   34.2620   48.9820 O   0  0  0  0  0  0  0  0  0  0  0  0
   39.6110   33.8640   47.6970 C   0  0  0  0  0  0  0  0  0  0  0  0
   39.7160   31.7520   47.9240 H   0  0  0  0  0  0  0  0  0  0  0  0
   37.2700   33.4450   48.5270 H   0  0  0  0  0  0  0  0  0  0  0  0
   38.4470   34.1160   50.5380 H   0  0  0  0  0  0  0  0  0  0  0  0
   39.6700   32.8450   50.3770 H   0  0  0  0  0  0  0  0  0  0  0  0
   38.9880   34.5230   47.0570 H   0  0  0  0  0  0  0  0  0  0  0  0
   40.5890   33.7070   47.1820 H   0  0  0  0  0  0  0  0  0  0  0  0
   37.3580   29.6130   50.9040 C   0  0  0  0  0  0  0  0  0  0  0  0
   38.0270   30.7860   50.4550 C   0  0  0  0  0  0  0  0  0  0  0  0
   37.3930   31.5630   49.4380 C   0  0  0  0  0  0  0  0  0  0  0  0
   36.1730   31.1520   48.9380 N   0  0  0  0  0  0  0  0  0  0  0  0
   35.5900   30.0370   49.4000 C   0  0  0  0  0  0  0  0  0  0  0  0
   36.1580   29.2670   50.3680 N   0  0  0  0  0  0  0  0  0  0  0  0
   37.7590   28.9800   51.6550 H   0  0  0  0  0  0  0  0  0  0  0  0
   38.9610   31.0510   50.8750 H   0  0  0  0  0  0  0  0  0  0  0  0
   34.6370   29.7720   48.9680 H   0  0  0  0  0  0  0  0  0  0  0  0
  2  1  1  0  0  0  0
  2  3  1  0  0  0  0
  3 23  1  0  0  0  0
  4  3  2  0  0  0  0
  4  8  1  0  0  0  0
  5  4  1  0  0  0  0
  6  7  1  0  0  0  0
  6  5  2  0  0  0  0
  7  2  2  0  0  0  0
  9  5  1  0  0  0  0
 10  6  1  0  0  0  0
 12 11  1  0  0  0  0
 12  7  1  0  0  0  0
 13 12  2  0  0  0  0
 14 13  1  0  0  0  0
 15 21  2  0  0  0  0
 15 13  1  0  0  0  0
 16 15  1  0  0  0  0
 17 16  1  0  0  0  0
 18 16  1  0  0  0  0
 18 19  2  0  0  0  0
 19 21  1  0  0  0  0
 20 19  1  0  0  0  0
 21 22  1  0  0  0  0
 22 11  2  0  0  0  0
 23 24  1  0  0  0  0
 24 28  1  0  0  0  0
 24 29  1  1  0  0  0
 24 25  1  0  0  0  0
 25 30  1  6  0  0  0
 25 37  1  0  0  0  0
 25 26  1  0  0  0  0
 26 32  1  0  0  0  0
 26 31  1  0  0  0  0
 27 26  1  0  0  0  0
 28 27  1  0  0  0  0
 33 28  1  0  0  0  0
 34 28  1  0  0  0  0
 35 41  1  0  0  0  0
 36 42  1  0  0  0  0
 36 35  1  0  0  0  0
 37 36  2  0  0  0  0
 38 39  2  0  0  0  0
 38 37  1  0  0  0  0
 39 40  1  0  0  0  0
 40 35  2  0  0  0  0
 43 39  1  0  0  0  0
M  END
>  <minimizedAffinity>
-6.56383133

>  <minimizedRMSD>
1.11281574

$$$$
