
 OpenBabel03262521533D

 26 28  0  0  0  0  0  0  0  0999 V2000
   33.2990   27.3510   47.6540 C   0  0  0  0  0  0  0  0  0  0  0  0
   34.2330   26.7470   47.5380 H   0  0  0  0  0  0  0  0  0  0  0  0
   33.2270   28.0210   46.7730 H   0  0  0  0  0  0  0  0  0  0  0  0
   31.8450   26.2890   47.7230 S   0  0  0  0  0  0  0  0  0  0  0  0
   30.4850   27.2350   48.4030 C   0  0  0  0  0  0  0  0  0  0  0  0
   29.9360   28.1380   47.5100 C   0  0  0  0  0  0  0  0  0  0  0  0
   28.8610   28.9180   47.9720 C   0  0  0  0  0  0  0  0  0  0  0  0
   28.4250   28.7400   49.2600 N   0  0  0  0  0  0  0  0  0  0  0  0
   29.0050   27.8450   50.0710 C   0  0  0  0  0  0  0  0  0  0  0  0
   30.0270   27.0970   49.6480 N   0  0  0  0  0  0  0  0  0  0  0  0
   30.2460   28.3120   46.4870 H   0  0  0  0  0  0  0  0  0  0  0  0
   28.3920   29.6370   47.3290 H   0  0  0  0  0  0  0  0  0  0  0  0
   28.6180   27.7500   51.0780 H   0  0  0  0  0  0  0  0  0  0  0  0
   33.5110   28.3430   49.1560 S   0  0  0  0  0  0  0  0  0  0  0  0
   35.2580   29.8030   47.6260 C   0  0  0  0  0  3  0  0  0  0  0  0
   34.9580   29.3630   48.9120 C   0  0  0  0  0  0  0  0  0  0  0  0
   35.8130   29.7500   49.9430 C   0  0  0  0  0  0  0  0  0  0  0  0
   35.5790   29.4100   50.9270 H   0  0  0  0  0  0  0  0  0  0  0  0
   36.9180   30.5420   49.6890 C   0  0  0  0  0  0  0  0  0  0  0  0
   37.8660   31.0250   50.5350 N   0  0  0  0  0  0  0  0  0  0  0  0
   37.9660   30.9010   51.5690 H   0  0  0  0  0  0  0  0  0  0  0  0
   38.7200   31.7350   49.8020 N   0  0  0  0  0  0  0  0  0  0  0  0
   38.3160   31.6990   48.5200 C   0  0  0  0  0  0  0  0  0  0  0  0
   38.8590   32.2140   47.7170 H   0  0  0  0  0  0  0  0  0  0  0  0
   37.1630   30.9460   48.3940 C   0  0  0  0  0  0  0  0  0  0  0  0
   36.3630   30.6020   47.3360 C   0  0  0  0  0  3  0  0  0  0  0  0
  1  4  1  0  0  0  0
  1 14  1  0  0  0  0
  2  1  1  0  0  0  0
  3  1  1  0  0  0  0
  4  5  1  0  0  0  0
  5 10  1  0  0  0  0
  6  7  1  0  0  0  0
  6  5  2  0  0  0  0
  7  8  2  0  0  0  0
  8  9  1  0  0  0  0
  9 13  1  0  0  0  0
 10  9  2  0  0  0  0
 11  6  1  0  0  0  0
 12  7  1  0  0  0  0
 15 16  1  0  0  0  0
 16 14  1  0  0  0  0
 16 17  2  0  0  0  0
 17 18  1  0  0  0  0
 19 17  1  0  0  0  0
 19 20  1  0  0  0  0
 20 21  1  0  0  0  0
 22 20  1  0  0  0  0
 23 22  2  0  0  0  0
 24 23  1  0  0  0  0
 25 23  1  0  0  0  0
 25 19  2  0  0  0  0
 26 15  2  0  0  0  0
 26 25  1  0  0  0  0
M  END
>  <minimizedAffinity>
-4.93391609

>  <minimizedRMSD>
7.66891193

$$$$
