
 OpenBabel03262521533D

 26 28  0  0  0  0  0  0  0  0999 V2000
   36.8340   24.2130   31.8780 C   0  0  0  0  0  0  0  0  0  0  0  0
   36.3280   24.9600   31.2170 H   0  0  0  0  0  0  0  0  0  0  0  0
   36.1350   23.9810   32.7080 H   0  0  0  0  0  0  0  0  0  0  0  0
   37.2180   22.7030   30.9730 S   0  0  0  0  0  0  0  0  0  0  0  0
   36.4810   21.3200   31.8400 C   0  0  0  0  0  0  0  0  0  0  0  0
   36.3690   20.1770   31.0680 C   0  0  0  0  0  0  0  0  0  0  0  0
   35.8000   19.0470   31.6820 C   0  0  0  0  0  0  0  0  0  0  0  0
   35.3950   19.1420   32.9880 N   0  0  0  0  0  0  0  0  0  0  0  0
   35.5340   20.2830   33.6760 C   0  0  0  0  0  0  0  0  0  0  0  0
   36.0730   21.3650   33.1080 N   0  0  0  0  0  0  0  0  0  0  0  0
   36.6750   20.0560   30.0360 H   0  0  0  0  0  0  0  0  0  0  0  0
   35.6840   18.1300   31.1370 H   0  0  0  0  0  0  0  0  0  0  0  0
   35.1950   20.2980   34.7050 H   0  0  0  0  0  0  0  0  0  0  0  0
   38.3120   25.0270   32.5390 S   0  0  0  0  0  0  0  0  0  0  0  0
   38.2800   26.0800   35.0720 C   0  0  0  0  0  3  0  0  0  0  0  0
   38.2250   24.9090   34.3200 C   0  0  0  0  0  0  0  0  0  0  0  0
   38.1010   23.7050   35.0100 C   0  0  0  0  0  0  0  0  0  0  0  0
   38.0580   22.8100   34.4280 H   0  0  0  0  0  0  0  0  0  0  0  0
   38.0380   23.6810   36.3920 C   0  0  0  0  0  0  0  0  0  0  0  0
   37.9190   22.6310   37.2470 N   0  0  0  0  0  0  0  0  0  0  0  0
   37.8500   21.6080   37.0440 H   0  0  0  0  0  0  0  0  0  0  0  0
   37.9020   23.1310   38.4800 N   0  0  0  0  0  0  0  0  0  0  0  0
   38.0090   24.4700   38.4010 C   0  0  0  0  0  0  0  0  0  0  0  0
   38.0180   25.1150   39.2890 H   0  0  0  0  0  0  0  0  0  0  0  0
   38.0980   24.8720   37.0810 C   0  0  0  0  0  0  0  0  0  0  0  0
   38.2190   26.0910   36.4650 C   0  0  0  0  0  3  0  0  0  0  0  0
  1 14  1  0  0  0  0
  1  3  1  0  0  0  0
  2  1  1  0  0  0  0
  4  5  1  0  0  0  0
  4  1  1  0  0  0  0
  5 10  1  0  0  0  0
  6  7  1  0  0  0  0
  6  5  2  0  0  0  0
  7  8  2  0  0  0  0
  8  9  1  0  0  0  0
  9 13  1  0  0  0  0
 10  9  2  0  0  0  0
 11  6  1  0  0  0  0
 12  7  1  0  0  0  0
 14 16  1  0  0  0  0
 15 26  1  0  0  0  0
 16 17  1  0  0  0  0
 16 15  2  0  0  0  0
 17 19  2  0  0  0  0
 18 17  1  0  0  0  0
 19 25  1  0  0  0  0
 19 20  1  0  0  0  0
 20 22  1  0  0  0  0
 21 20  1  0  0  0  0
 23 22  2  0  0  0  0
 23 24  1  0  0  0  0
 25 23  1  0  0  0  0
 26 25  2  0  0  0  0
M  END
>  <minimizedAffinity>
-4.64768648

$$$$

 OpenBabel03262521533D

 26 28  0  0  0  0  0  0  0  0999 V2000
   38.4590   22.1600   31.9090 C   0  0  0  0  0  0  0  0  0  0  0  0
   37.5320   22.3430   32.5060 H   0  0  0  0  0  0  0  0  0  0  0  0
   38.3240   21.1970   31.3750 H   0  0  0  0  0  0  0  0  0  0  0  0
   38.7290   23.4790   30.7110 S   0  0  0  0  0  0  0  0  0  0  0  0
   37.4230   24.6900   30.8980 C   0  0  0  0  0  0  0  0  0  0  0  0
   36.1580   24.1340   30.9700 C   0  0  0  0  0  0  0  0  0  0  0  0
   35.0790   25.0240   31.1180 C   0  0  0  0  0  0  0  0  0  0  0  0
   35.3390   26.3680   31.1830 N   0  0  0  0  0  0  0  0  0  0  0  0
   36.5920   26.8370   31.1070 C   0  0  0  0  0  0  0  0  0  0  0  0
   37.6280   26.0060   30.9660 N   0  0  0  0  0  0  0  0  0  0  0  0
   35.9060   23.0820   30.9240 H   0  0  0  0  0  0  0  0  0  0  0  0
   34.0730   24.6560   31.1790 H   0  0  0  0  0  0  0  0  0  0  0  0
   36.7350   27.9090   31.1640 H   0  0  0  0  0  0  0  0  0  0  0  0
   39.8170   22.0100   33.1000 S   0  0  0  0  0  0  0  0  0  0  0  0
   38.4750   23.9210   34.5390 C   0  0  0  0  0  3  0  0  0  0  0  0
   39.2740   22.7830   34.6160 C   0  0  0  0  0  0  0  0  0  0  0  0
   39.6010   22.3100   35.8860 C   0  0  0  0  0  0  0  0  0  0  0  0
   40.2130   21.4370   35.9390 H   0  0  0  0  0  0  0  0  0  0  0  0
   39.1470   22.9550   37.0230 C   0  0  0  0  0  0  0  0  0  0  0  0
   39.3470   22.6630   38.3350 N   0  0  0  0  0  0  0  0  0  0  0  0
   39.8920   21.8850   38.7720 H   0  0  0  0  0  0  0  0  0  0  0  0
   38.6990   23.5860   39.0430 N   0  0  0  0  0  0  0  0  0  0  0  0
   38.1040   24.4400   38.1920 C   0  0  0  0  0  0  0  0  0  0  0  0
   37.5050   25.2930   38.5340 H   0  0  0  0  0  0  0  0  0  0  0  0
   38.3610   24.0770   36.8820 C   0  0  0  0  0  0  0  0  0  0  0  0
   38.0020   24.5940   35.6650 C   0  0  0  0  0  3  0  0  0  0  0  0
  1  2  1  0  0  0  0
  1 14  1  0  0  0  0
  3  1  1  0  0  0  0
  4  5  1  0  0  0  0
  4  1  1  0  0  0  0
  5 10  2  0  0  0  0
  5  6  1  0  0  0  0
  6  7  2  0  0  0  0
  7 12  1  0  0  0  0
  7  8  1  0  0  0  0
  9 13  1  0  0  0  0
  9  8  2  0  0  0  0
 10  9  1  0  0  0  0
 11  6  1  0  0  0  0
 14 16  1  0  0  0  0
 15 16  2  0  0  0  0
 15 26  1  0  0  0  0
 16 17  1  0  0  0  0
 17 18  1  0  0  0  0
 17 19  2  0  0  0  0
 19 20  1  0  0  0  0
 20 21  1  0  0  0  0
 20 22  1  0  0  0  0
 23 24  1  0  0  0  0
 23 22  2  0  0  0  0
 25 19  1  0  0  0  0
 25 23  1  0  0  0  0
 26 25  2  0  0  0  0
M  END
>  <minimizedAffinity>
-4.61322498

$$$$

 OpenBabel03262521533D

 26 28  0  0  0  0  0  0  0  0999 V2000
   37.0730   27.3940   34.6520 C   0  0  0  0  0  0  0  0  0  0  0  0
   36.2810   26.6310   34.8570 H   0  0  0  0  0  0  0  0  0  0  0  0
   36.6340   28.3910   34.8610 H   0  0  0  0  0  0  0  0  0  0  0  0
   38.5100   27.1340   35.7100 S   0  0  0  0  0  0  0  0  0  0  0  0
   38.7790   25.3720   35.8770 C   0  0  0  0  0  0  0  0  0  0  0  0
   37.7850   24.7240   36.5890 C   0  0  0  0  0  0  0  0  0  0  0  0
   37.9270   23.3360   36.7610 C   0  0  0  0  0  0  0  0  0  0  0  0
   39.0240   22.7140   36.2220 N   0  0  0  0  0  0  0  0  0  0  0  0
   39.9480   23.4060   35.5430 C   0  0  0  0  0  0  0  0  0  0  0  0
   39.8290   24.7250   35.3710 N   0  0  0  0  0  0  0  0  0  0  0  0
   36.9030   25.1720   37.0310 H   0  0  0  0  0  0  0  0  0  0  0  0
   37.1900   22.7750   37.3050 H   0  0  0  0  0  0  0  0  0  0  0  0
   40.7930   22.8610   35.1410 H   0  0  0  0  0  0  0  0  0  0  0  0
   37.4720   27.2620   32.8890 S   0  0  0  0  0  0  0  0  0  0  0  0
   35.7920   25.6210   31.4710 C   0  0  0  0  0  3  0  0  0  0  0  0
   36.8830   25.6690   32.3350 C   0  0  0  0  0  0  0  0  0  0  0  0
   37.4550   24.4560   32.7170 C   0  0  0  0  0  0  0  0  0  0  0  0
   38.2920   24.4990   33.3790 H   0  0  0  0  0  0  0  0  0  0  0  0
   36.9510   23.2550   32.2520 C   0  0  0  0  0  0  0  0  0  0  0  0
   37.3550   21.9810   32.4970 N   0  0  0  0  0  0  0  0  0  0  0  0
   38.1380   21.6300   33.0950 H   0  0  0  0  0  0  0  0  0  0  0  0
   36.5460   21.1760   31.8120 N   0  0  0  0  0  0  0  0  0  0  0  0
   35.6510   21.9300   31.1500 C   0  0  0  0  0  0  0  0  0  0  0  0
   34.8720   21.4970   30.5100 H   0  0  0  0  0  0  0  0  0  0  0  0
   35.8700   23.2730   31.3990 C   0  0  0  0  0  0  0  0  0  0  0  0
   35.2600   24.4280   30.9840 C   0  0  0  0  0  3  0  0  0  0  0  0
  1  2  1  0  0  0  0
  1  3  1  0  0  0  0
  1  4  1  0  0  0  0
  4  5  1  0  0  0  0
  5  6  1  0  0  0  0
  6  7  2  0  0  0  0
  6 11  1  0  0  0  0
  7 12  1  0  0  0  0
  8  7  1  0  0  0  0
  9  8  2  0  0  0  0
 10  9  1  0  0  0  0
 10  5  2  0  0  0  0
 13  9  1  0  0  0  0
 14  1  1  0  0  0  0
 15 16  1  0  0  0  0
 16 17  2  0  0  0  0
 16 14  1  0  0  0  0
 17 18  1  0  0  0  0
 19 20  1  0  0  0  0
 19 17  1  0  0  0  0
 20 21  1  0  0  0  0
 22 20  1  0  0  0  0
 23 25  1  0  0  0  0
 23 22  2  0  0  0  0
 24 23  1  0  0  0  0
 25 19  2  0  0  0  0
 26 25  1  0  0  0  0
 26 15  2  0  0  0  0
M  END
>  <minimizedAffinity>
-4.54266405

$$$$

 OpenBabel03262521533D

 26 28  0  0  0  0  0  0  0  0999 V2000
   41.1280   23.6520   34.0570 C   0  0  0  0  0  0  0  0  0  0  0  0
   41.9700   23.4650   33.3450 H   0  0  0  0  0  0  0  0  0  0  0  0
   40.1880   23.6380   33.4680 H   0  0  0  0  0  0  0  0  0  0  0  0
   41.0610   22.3780   35.3300 S   0  0  0  0  0  0  0  0  0  0  0  0
   39.7860   22.8200   36.5060 C   0  0  0  0  0  0  0  0  0  0  0  0
   38.5450   23.0240   35.9290 C   0  0  0  0  0  0  0  0  0  0  0  0
   37.4910   23.3740   36.7920 C   0  0  0  0  0  0  0  0  0  0  0  0
   37.7500   23.4900   38.1330 N   0  0  0  0  0  0  0  0  0  0  0  0
   38.9780   23.2770   38.6240 C   0  0  0  0  0  0  0  0  0  0  0  0
   39.9900   22.9450   37.8180 N   0  0  0  0  0  0  0  0  0  0  0  0
   38.2950   22.9430   34.8790 H   0  0  0  0  0  0  0  0  0  0  0  0
   36.5040   23.5460   36.4060 H   0  0  0  0  0  0  0  0  0  0  0  0
   39.1210   23.3850   39.6920 H   0  0  0  0  0  0  0  0  0  0  0  0
   41.3910   25.3090   34.7420 S   0  0  0  0  0  0  0  0  0  0  0  0
   39.2310   26.7160   35.6810 C   0  0  0  0  0  3  0  0  0  0  0  0
   39.8580   26.2070   34.5470 C   0  0  0  0  0  0  0  0  0  0  0  0
   39.2460   26.4340   33.3160 C   0  0  0  0  0  0  0  0  0  0  0  0
   39.7320   26.0430   32.4490 H   0  0  0  0  0  0  0  0  0  0  0  0
   38.0580   27.1380   33.2320 C   0  0  0  0  0  0  0  0  0  0  0  0
   37.3070   27.4660   32.1470 N   0  0  0  0  0  0  0  0  0  0  0  0
   37.4650   27.2540   31.1360 H   0  0  0  0  0  0  0  0  0  0  0  0
   36.2560   28.1490   32.5930 N   0  0  0  0  0  0  0  0  0  0  0  0
   36.3440   28.2490   33.9310 C   0  0  0  0  0  0  0  0  0  0  0  0
   35.5920   28.7710   34.5360 H   0  0  0  0  0  0  0  0  0  0  0  0
   37.4860   27.6160   34.3900 C   0  0  0  0  0  0  0  0  0  0  0  0
   38.0340   27.4280   35.6320 C   0  0  0  0  0  3  0  0  0  0  0  0
  1 14  1  0  0  0  0
  1  4  1  0  0  0  0
  2  1  1  0  0  0  0
  3  1  1  0  0  0  0
  4  5  1  0  0  0  0
  5 10  1  0  0  0  0
  6  5  2  0  0  0  0
  6  7  1  0  0  0  0
  7  8  2  0  0  0  0
  8  9  1  0  0  0  0
  9 13  1  0  0  0  0
 10  9  2  0  0  0  0
 11  6  1  0  0  0  0
 12  7  1  0  0  0  0
 16 14  1  0  0  0  0
 16 15  2  0  0  0  0
 17 16  1  0  0  0  0
 18 17  1  0  0  0  0
 19 17  2  0  0  0  0
 19 25  1  0  0  0  0
 20 22  1  0  0  0  0
 20 19  1  0  0  0  0
 21 20  1  0  0  0  0
 22 23  2  0  0  0  0
 23 25  1  0  0  0  0
 23 24  1  0  0  0  0
 25 26  2  0  0  0  0
 26 15  1  0  0  0  0
M  END
>  <minimizedAffinity>
-4.51184273

$$$$

 OpenBabel03262521533D

 26 28  0  0  0  0  0  0  0  0999 V2000
   38.0420   26.1010   34.1650 C   0  0  0  0  0  0  0  0  0  0  0  0
   37.5040   26.4990   35.0610 H   0  0  0  0  0  0  0  0  0  0  0  0
   38.9980   26.6580   34.0800 H   0  0  0  0  0  0  0  0  0  0  0  0
   38.3840   24.3410   34.3420 S   0  0  0  0  0  0  0  0  0  0  0  0
   38.5450   23.9680   36.0860 C   0  0  0  0  0  0  0  0  0  0  0  0
   39.6300   23.1630   36.3830 C   0  0  0  0  0  0  0  0  0  0  0  0
   39.8230   22.8270   37.7350 C   0  0  0  0  0  0  0  0  0  0  0  0
   38.9400   23.3110   38.6650 N   0  0  0  0  0  0  0  0  0  0  0  0
   37.9090   24.0880   38.3050 C   0  0  0  0  0  0  0  0  0  0  0  0
   37.7120   24.4150   37.0260 N   0  0  0  0  0  0  0  0  0  0  0  0
   40.3520   22.7590   35.6840 H   0  0  0  0  0  0  0  0  0  0  0  0
   40.6460   22.2050   38.0310 H   0  0  0  0  0  0  0  0  0  0  0  0
   37.2450   24.4390   39.0850 H   0  0  0  0  0  0  0  0  0  0  0  0
   36.9960   26.4690   32.7310 S   0  0  0  0  0  0  0  0  0  0  0  0
   36.5300   29.0010   31.7830 C   0  0  0  0  0  3  0  0  0  0  0  0
   36.4570   28.1650   32.8940 C   0  0  0  0  0  0  0  0  0  0  0  0
   35.9620   28.7090   34.0780 C   0  0  0  0  0  0  0  0  0  0  0  0
   35.9070   28.0630   34.9270 H   0  0  0  0  0  0  0  0  0  0  0  0
   35.5610   30.0320   34.1390 C   0  0  0  0  0  0  0  0  0  0  0  0
   35.0560   30.7480   35.1780 N   0  0  0  0  0  0  0  0  0  0  0  0
   34.8610   30.4530   36.1620 H   0  0  0  0  0  0  0  0  0  0  0  0
   34.8260   31.9790   34.7280 N   0  0  0  0  0  0  0  0  0  0  0  0
   35.1800   32.0350   33.4310 C   0  0  0  0  0  0  0  0  0  0  0  0
   35.0850   32.9490   32.8320 H   0  0  0  0  0  0  0  0  0  0  0  0
   35.6570   30.8080   33.0050 C   0  0  0  0  0  0  0  0  0  0  0  0
   36.1350   30.3370   31.8100 C   0  0  0  0  0  3  0  0  0  0  0  0
  1  4  1  0  0  0  0
  1  2  1  0  0  0  0
  3  1  1  0  0  0  0
  4  5  1  0  0  0  0
  5  6  2  0  0  0  0
  5 10  1  0  0  0  0
  6  7  1  0  0  0  0
  7 12  1  0  0  0  0
  7  8  2  0  0  0  0
  9  8  1  0  0  0  0
  9 13  1  0  0  0  0
 10  9  2  0  0  0  0
 11  6  1  0  0  0  0
 14 16  1  0  0  0  0
 14  1  1  0  0  0  0
 15 26  2  0  0  0  0
 15 16  1  0  0  0  0
 16 17  2  0  0  0  0
 17 19  1  0  0  0  0
 17 18  1  0  0  0  0
 19 20  1  0  0  0  0
 20 21  1  0  0  0  0
 22 20  1  0  0  0  0
 23 22  2  0  0  0  0
 24 23  1  0  0  0  0
 25 23  1  0  0  0  0
 25 19  2  0  0  0  0
 26 25  1  0  0  0  0
M  END
>  <minimizedAffinity>
-4.45025444

$$$$

 OpenBabel03262521533D

 26 28  0  0  0  0  0  0  0  0999 V2000
   40.5210   27.2500   31.8740 C   0  0  0  0  0  0  0  0  0  0  0  0
   41.3080   27.5750   31.1500 H   0  0  0  0  0  0  0  0  0  0  0  0
   39.7370   28.0350   31.8860 H   0  0  0  0  0  0  0  0  0  0  0  0
   39.7920   25.6780   31.3760 S   0  0  0  0  0  0  0  0  0  0  0  0
   38.0130   25.8720   31.3190 C   0  0  0  0  0  0  0  0  0  0  0  0
   37.3350   24.6950   31.0560 C   0  0  0  0  0  0  0  0  0  0  0  0
   35.9320   24.7690   30.9970 C   0  0  0  0  0  0  0  0  0  0  0  0
   35.3270   25.9820   31.2000 N   0  0  0  0  0  0  0  0  0  0  0  0
   36.0480   27.0830   31.4500 C   0  0  0  0  0  0  0  0  0  0  0  0
   37.3810   27.0310   31.5090 N   0  0  0  0  0  0  0  0  0  0  0  0
   37.7680   23.7170   30.8900 H   0  0  0  0  0  0  0  0  0  0  0  0
   35.3470   23.8910   30.7960 H   0  0  0  0  0  0  0  0  0  0  0  0
   35.5140   28.0130   31.6010 H   0  0  0  0  0  0  0  0  0  0  0  0
   41.3190   27.1650   33.4990 S   0  0  0  0  0  0  0  0  0  0  0  0
   39.1500   27.0710   35.1770 C   0  0  0  0  0  3  0  0  0  0  0  0
   40.1820   26.3350   34.6000 C   0  0  0  0  0  0  0  0  0  0  0  0
   40.2640   24.9810   34.9200 C   0  0  0  0  0  0  0  0  0  0  0  0
   41.0570   24.4210   34.4740 H   0  0  0  0  0  0  0  0  0  0  0  0
   39.3510   24.3970   35.7800 C   0  0  0  0  0  0  0  0  0  0  0  0
   39.2530   23.1140   36.2160 N   0  0  0  0  0  0  0  0  0  0  0  0
   39.8510   22.2850   35.9960 H   0  0  0  0  0  0  0  0  0  0  0  0
   38.2030   23.0580   37.0310 N   0  0  0  0  0  0  0  0  0  0  0  0
   37.6520   24.2820   37.1060 C   0  0  0  0  0  0  0  0  0  0  0  0
   36.7670   24.4950   37.7190 H   0  0  0  0  0  0  0  0  0  0  0  0
   38.3530   25.1780   36.3190 C   0  0  0  0  0  0  0  0  0  0  0  0
   38.2150   26.5150   36.0470 C   0  0  0  0  0  3  0  0  0  0  0  0
  1  3  1  0  0  0  0
  1 14  1  0  0  0  0
  2  1  1  0  0  0  0
  4  1  1  0  0  0  0
  5  4  1  0  0  0  0
  5 10  1  0  0  0  0
  6  5  2  0  0  0  0
  7  6  1  0  0  0  0
  7  8  2  0  0  0  0
  8  9  1  0  0  0  0
  9 10  2  0  0  0  0
  9 13  1  0  0  0  0
 11  6  1  0  0  0  0
 12  7  1  0  0  0  0
 14 16  1  0  0  0  0
 15 26  1  0  0  0  0
 16 17  1  0  0  0  0
 16 15  2  0  0  0  0
 17 19  2  0  0  0  0
 18 17  1  0  0  0  0
 19 20  1  0  0  0  0
 19 25  1  0  0  0  0
 20 22  1  0  0  0  0
 21 20  1  0  0  0  0
 22 23  2  0  0  0  0
 23 24  1  0  0  0  0
 25 23  1  0  0  0  0
 26 25  2  0  0  0  0
M  END
>  <minimizedAffinity>
-4.43496656

$$$$

 OpenBabel03262521533D

 26 28  0  0  0  0  0  0  0  0999 V2000
   39.0180   26.7060   32.1040 C   0  0  0  0  0  0  0  0  0  0  0  0
   40.1040   26.6820   31.8390 H   0  0  0  0  0  0  0  0  0  0  0  0
   38.9140   27.3290   33.0150 H   0  0  0  0  0  0  0  0  0  0  0  0
   38.0420   27.4210   30.7680 S   0  0  0  0  0  0  0  0  0  0  0  0
   36.7800   28.4680   31.4880 C   0  0  0  0  0  0  0  0  0  0  0  0
   36.5940   28.2610   32.8440 C   0  0  0  0  0  0  0  0  0  0  0  0
   35.6190   29.0490   33.4800 C   0  0  0  0  0  0  0  0  0  0  0  0
   34.9200   29.9620   32.7340 N   0  0  0  0  0  0  0  0  0  0  0  0
   35.1540   30.1100   31.4230 C   0  0  0  0  0  0  0  0  0  0  0  0
   36.0760   29.3690   30.8030 N   0  0  0  0  0  0  0  0  0  0  0  0
   37.1200   27.5540   33.4720 H   0  0  0  0  0  0  0  0  0  0  0  0
   35.4260   28.9360   34.5300 H   0  0  0  0  0  0  0  0  0  0  0  0
   34.5700   30.8470   30.8850 H   0  0  0  0  0  0  0  0  0  0  0  0
   38.5420   24.9970   32.4790 S   0  0  0  0  0  0  0  0  0  0  0  0
   38.4170   26.0470   35.0100 C   0  0  0  0  0  3  0  0  0  0  0  0
   38.3620   24.8800   34.2530 C   0  0  0  0  0  0  0  0  0  0  0  0
   38.1640   23.6800   34.9330 C   0  0  0  0  0  0  0  0  0  0  0  0
   38.1220   22.7880   34.3470 H   0  0  0  0  0  0  0  0  0  0  0  0
   38.0320   23.6560   36.3100 C   0  0  0  0  0  0  0  0  0  0  0  0
   37.8360   22.6090   37.1540 N   0  0  0  0  0  0  0  0  0  0  0  0
   37.7440   21.5890   36.9450 H   0  0  0  0  0  0  0  0  0  0  0  0
   37.7730   23.1080   38.3860 N   0  0  0  0  0  0  0  0  0  0  0  0
   37.9270   24.4430   38.3170 C   0  0  0  0  0  0  0  0  0  0  0  0
   37.9130   25.0860   39.2060 H   0  0  0  0  0  0  0  0  0  0  0  0
   38.0960   24.8440   37.0040 C   0  0  0  0  0  0  0  0  0  0  0  0
   38.2870   26.0580   36.3980 C   0  0  0  0  0  3  0  0  0  0  0  0
  1 14  1  0  0  0  0
  1  3  1  0  0  0  0
  2  1  1  0  0  0  0
  4  5  1  0  0  0  0
  4  1  1  0  0  0  0
  5  6  1  0  0  0  0
  6 11  1  0  0  0  0
  6  7  2  0  0  0  0
  7 12  1  0  0  0  0
  8  7  1  0  0  0  0
  9  8  2  0  0  0  0
 10  9  1  0  0  0  0
 10  5  2  0  0  0  0
 13  9  1  0  0  0  0
 14 16  1  0  0  0  0
 15 26  1  0  0  0  0
 16 17  1  0  0  0  0
 16 15  2  0  0  0  0
 17 19  2  0  0  0  0
 18 17  1  0  0  0  0
 19 25  1  0  0  0  0
 19 20  1  0  0  0  0
 20 22  1  0  0  0  0
 21 20  1  0  0  0  0
 23 22  2  0  0  0  0
 23 24  1  0  0  0  0
 25 23  1  0  0  0  0
 26 25  2  0  0  0  0
M  END
>  <minimizedAffinity>
-4.41728544

$$$$

 OpenBabel03262521533D

 26 28  0  0  0  0  0  0  0  0999 V2000
   38.9210   24.4940   33.3560 C   0  0  0  0  0  0  0  0  0  0  0  0
   39.1530   25.3210   34.0720 H   0  0  0  0  0  0  0  0  0  0  0  0
   39.8790   24.1830   32.8890 H   0  0  0  0  0  0  0  0  0  0  0  0
   38.1810   23.0870   34.2060 S   0  0  0  0  0  0  0  0  0  0  0  0
   38.6240   23.1770   35.9380 C   0  0  0  0  0  0  0  0  0  0  0  0
   37.7340   23.9100   36.7020 C   0  0  0  0  0  0  0  0  0  0  0  0
   38.0150   24.0250   38.0750 C   0  0  0  0  0  0  0  0  0  0  0  0
   39.1370   23.4120   38.5700 N   0  0  0  0  0  0  0  0  0  0  0  0
   39.9560   22.7150   37.7700 C   0  0  0  0  0  0  0  0  0  0  0  0
   39.7040   22.5980   36.4650 N   0  0  0  0  0  0  0  0  0  0  0  0
   36.8370   24.4100   36.3560 H   0  0  0  0  0  0  0  0  0  0  0  0
   37.3630   24.5810   38.7210 H   0  0  0  0  0  0  0  0  0  0  0  0
   40.8280   22.2540   38.2190 H   0  0  0  0  0  0  0  0  0  0  0  0
   37.8300   25.1980   32.0910 S   0  0  0  0  0  0  0  0  0  0  0  0
   37.2850   26.9260   34.1520 C   0  0  0  0  0  3  0  0  0  0  0  0
   37.0700   26.6500   32.8040 C   0  0  0  0  0  0  0  0  0  0  0  0
   36.2690   27.5360   32.0850 C   0  0  0  0  0  0  0  0  0  0  0  0
   36.1090   27.3200   31.0520 H   0  0  0  0  0  0  0  0  0  0  0  0
   35.7090   28.6440   32.6960 C   0  0  0  0  0  0  0  0  0  0  0  0
   34.9100   29.6170   32.1850 N   0  0  0  0  0  0  0  0  0  0  0  0
   34.5420   29.7390   31.2140 H   0  0  0  0  0  0  0  0  0  0  0  0
   34.6400   30.4610   33.1770 N   0  0  0  0  0  0  0  0  0  0  0  0
   35.2570   30.0260   34.2900 C   0  0  0  0  0  0  0  0  0  0  0  0
   35.1860   30.5550   35.2490 H   0  0  0  0  0  0  0  0  0  0  0  0
   35.9580   28.8620   34.0330 C   0  0  0  0  0  0  0  0  0  0  0  0
   36.7360   28.0320   34.7980 C   0  0  0  0  0  3  0  0  0  0  0  0
  1  2  1  0  0  0  0
  1  4  1  0  0  0  0
  3  1  1  0  0  0  0
  4  5  1  0  0  0  0
  5 10  2  0  0  0  0
  5  6  1  0  0  0  0
  6  7  2  0  0  0  0
  7  8  1  0  0  0  0
  7 12  1  0  0  0  0
  9 13  1  0  0  0  0
  9  8  2  0  0  0  0
 10  9  1  0  0  0  0
 11  6  1  0  0  0  0
 14 16  1  0  0  0  0
 14  1  1  0  0  0  0
 15 26  1  0  0  0  0
 16 15  2  0  0  0  0
 17 19  2  0  0  0  0
 17 16  1  0  0  0  0
 18 17  1  0  0  0  0
 19 25  1  0  0  0  0
 20 19  1  0  0  0  0
 20 22  1  0  0  0  0
 21 20  1  0  0  0  0
 22 23  2  0  0  0  0
 23 24  1  0  0  0  0
 25 23  1  0  0  0  0
 25 26  2  0  0  0  0
M  END
>  <minimizedAffinity>
-4.40056896

$$$$

 OpenBabel03262521533D

 26 28  0  0  0  0  0  0  0  0999 V2000
   37.7390   25.5520   33.7770 C   0  0  0  0  0  0  0  0  0  0  0  0
   37.0610   25.8790   34.6040 H   0  0  0  0  0  0  0  0  0  0  0  0
   38.5420   26.3120   33.6880 H   0  0  0  0  0  0  0  0  0  0  0  0
   38.4680   23.9430   34.1340 S   0  0  0  0  0  0  0  0  0  0  0  0
   38.5750   23.7530   35.9110 C   0  0  0  0  0  0  0  0  0  0  0  0
   39.6670   23.0090   36.3250 C   0  0  0  0  0  0  0  0  0  0  0  0
   39.8190   22.8170   37.7100 C   0  0  0  0  0  0  0  0  0  0  0  0
   38.8920   23.3690   38.5560 N   0  0  0  0  0  0  0  0  0  0  0  0
   37.8580   24.0790   38.0850 C   0  0  0  0  0  0  0  0  0  0  0  0
   37.6990   24.2700   36.7730 N   0  0  0  0  0  0  0  0  0  0  0  0
   40.4220   22.5570   35.6950 H   0  0  0  0  0  0  0  0  0  0  0  0
   40.6440   22.2490   38.0950 H   0  0  0  0  0  0  0  0  0  0  0  0
   37.1580   24.4890   38.8020 H   0  0  0  0  0  0  0  0  0  0  0  0
   36.7390   25.5450   32.2650 S   0  0  0  0  0  0  0  0  0  0  0  0
   38.2520   27.2940   30.7900 C   0  0  0  0  0  3  0  0  0  0  0  0
   37.0330   27.0990   31.4340 C   0  0  0  0  0  0  0  0  0  0  0  0
   36.1060   28.1390   31.3880 C   0  0  0  0  0  0  0  0  0  0  0  0
   35.1730   27.9840   31.8830 H   0  0  0  0  0  0  0  0  0  0  0  0
   36.3950   29.3200   30.7270 C   0  0  0  0  0  0  0  0  0  0  0  0
   35.6440   30.4410   30.5640 N   0  0  0  0  0  0  0  0  0  0  0  0
   34.6800   30.6550   30.9070 H   0  0  0  0  0  0  0  0  0  0  0  0
   36.3700   31.2970   29.8490 N   0  0  0  0  0  0  0  0  0  0  0  0
   37.5540   30.7240   29.5670 C   0  0  0  0  0  0  0  0  0  0  0  0
   38.3320   31.2330   28.9840 H   0  0  0  0  0  0  0  0  0  0  0  0
   37.6190   29.4530   30.1090 C   0  0  0  0  0  0  0  0  0  0  0  0
   38.5750   28.4710   30.1150 C   0  0  0  0  0  3  0  0  0  0  0  0
  1  4  1  0  0  0  0
  1  2  1  0  0  0  0
  3  1  1  0  0  0  0
  4  5  1  0  0  0  0
  5  6  2  0  0  0  0
  5 10  1  0  0  0  0
  6  7  1  0  0  0  0
  7 12  1  0  0  0  0
  7  8  2  0  0  0  0
  9  8  1  0  0  0  0
  9 13  1  0  0  0  0
 10  9  2  0  0  0  0
 11  6  1  0  0  0  0
 14  1  1  0  0  0  0
 15 16  1  0  0  0  0
 16 14  1  0  0  0  0
 17 16  2  0  0  0  0
 17 18  1  0  0  0  0
 19 17  1  0  0  0  0
 20 19  1  0  0  0  0
 20 21  1  0  0  0  0
 22 20  1  0  0  0  0
 23 22  2  0  0  0  0
 23 25  1  0  0  0  0
 24 23  1  0  0  0  0
 25 26  1  0  0  0  0
 25 19  2  0  0  0  0
 26 15  2  0  0  0  0
M  END
>  <minimizedAffinity>
-4.31591749

$$$$
