
 OpenBabel03272501073D

 43 47  0  0  1  0  0  0  0  0999 V2000
   40.6820   32.0350   44.5500 Cl  0  0  0  0  0  0  0  0  0  0  0  0
   39.1500   31.1970   44.4170 C   0  0  0  0  0  0  0  0  0  0  0  0
   38.2400   31.5330   45.4080 C   0  0  0  0  0  0  0  0  0  0  0  0
   37.0190   30.8790   45.3150 C   0  0  0  0  0  0  0  0  0  0  0  0
   36.7450   29.9670   44.3080 C   0  0  0  0  0  0  0  0  0  0  0  0
   37.6880   29.6820   43.3640 C   0  0  0  0  0  0  0  0  0  0  0  0
   38.9030   30.3020   43.4160 C   0  0  0  0  0  0  0  0  0  0  0  0
   36.1870   31.0080   45.9920 H   0  0  0  0  0  0  0  0  0  0  0  0
   35.8040   29.4420   44.2100 H   0  0  0  0  0  0  0  0  0  0  0  0
   37.4960   28.9740   42.5700 H   0  0  0  0  0  0  0  0  0  0  0  0
   41.0190   29.1690   42.4770 C   0  0  0  0  0  0  0  0  0  0  0  0
   39.9490   30.0400   42.4370 C   0  0  0  0  0  0  0  0  0  0  0  0
   39.7640   30.8400   41.3020 C   0  0  0  0  0  0  0  0  0  0  0  0
   38.9700   31.5640   41.1350 H   0  0  0  0  0  0  0  0  0  0  0  0
   40.6340   30.7740   40.2210 C   0  0  0  0  0  0  0  0  0  0  0  0
   40.7390   31.3800   39.0240 N   0  0  0  0  0  0  0  0  0  0  0  0
   40.0690   32.1100   38.6770 H   0  0  0  0  0  0  0  0  0  0  0  0
   41.8070   30.9140   38.3660 N   0  0  0  0  0  0  0  0  0  0  0  0
   42.4320   29.9870   39.1160 C   0  0  0  0  0  0  0  0  0  0  0  0
   43.3330   29.4230   38.8570 H   0  0  0  0  0  0  0  0  0  0  0  0
   41.6970   29.8980   40.2800 C   0  0  0  0  0  0  0  0  0  0  0  0
   41.8770   29.1110   41.3990 C   0  0  0  0  0  0  0  0  0  0  0  0
   38.2840   32.3720   46.4610 O   0  0  0  0  0  0  0  0  0  0  0  0
   38.9440   32.4500   47.6410 C   0  0  2  0  0  0  0  0  0  0  0  0
   37.9690   32.6180   48.8530 C   0  0  2  0  0  0  0  0  0  0  0  0
   38.8410   33.3010   49.7980 C   0  0  0  0  0  0  0  0  0  0  0  0
   39.6440   34.1790   49.0840 O   0  0  0  0  0  0  0  0  0  0  0  0
   39.5730   33.8630   47.7690 C   0  0  0  0  0  0  0  0  0  0  0  0
   39.7400   31.7460   47.8640 H   0  0  0  0  0  0  0  0  0  0  0  0
   37.2080   33.3160   48.4420 H   0  0  0  0  0  0  0  0  0  0  0  0
   38.2550   33.8880   50.5540 H   0  0  0  0  0  0  0  0  0  0  0  0
   39.5280   32.6700   50.3770 H   0  0  0  0  0  0  0  0  0  0  0  0
   38.9610   34.5440   47.1410 H   0  0  0  0  0  0  0  0  0  0  0  0
   40.5820   33.7730   47.3000 H   0  0  0  0  0  0  0  0  0  0  0  0
   37.3390   29.3080   50.5190 C   0  0  0  0  0  0  0  0  0  0  0  0
   37.9910   30.5280   50.1820 C   0  0  0  0  0  0  0  0  0  0  0  0
   37.3500   31.3820   49.2350 C   0  0  0  0  0  0  0  0  0  0  0  0
   36.1400   30.9980   48.6910 N   0  0  0  0  0  0  0  0  0  0  0  0
   35.5730   29.8360   49.0460 C   0  0  0  0  0  0  0  0  0  0  0  0
   36.1490   28.9920   49.9460 N   0  0  0  0  0  0  0  0  0  0  0  0
   37.7460   28.6170   51.2140 H   0  0  0  0  0  0  0  0  0  0  0  0
   38.9180   30.7680   50.6320 H   0  0  0  0  0  0  0  0  0  0  0  0
   34.6280   29.5960   48.5850 H   0  0  0  0  0  0  0  0  0  0  0  0
  2  1  1  0  0  0  0
  2  3  1  0  0  0  0
  3 23  1  0  0  0  0
  4  3  2  0  0  0  0
  4  8  1  0  0  0  0
  5  4  1  0  0  0  0
  6  7  1  0  0  0  0
  6  5  2  0  0  0  0
  7  2  2  0  0  0  0
  9  5  1  0  0  0  0
 10  6  1  0  0  0  0
 12 11  1  0  0  0  0
 12  7  1  0  0  0  0
 13 12  2  0  0  0  0
 14 13  1  0  0  0  0
 15 21  2  0  0  0  0
 15 13  1  0  0  0  0
 16 15  1  0  0  0  0
 17 16  1  0  0  0  0
 18 16  1  0  0  0  0
 18 19  2  0  0  0  0
 19 21  1  0  0  0  0
 20 19  1  0  0  0  0
 21 22  1  0  0  0  0
 22 11  2  0  0  0  0
 23 24  1  0  0  0  0
 24 28  1  0  0  0  0
 24 29  1  1  0  0  0
 24 25  1  0  0  0  0
 25 30  1  6  0  0  0
 25 37  1  0  0  0  0
 25 26  1  0  0  0  0
 26 32  1  0  0  0  0
 26 31  1  0  0  0  0
 27 26  1  0  0  0  0
 28 27  1  0  0  0  0
 33 28  1  0  0  0  0
 34 28  1  0  0  0  0
 35 41  1  0  0  0  0
 36 35  1  0  0  0  0
 36 42  1  0  0  0  0
 37 36  2  0  0  0  0
 38 39  2  0  0  0  0
 38 37  1  0  0  0  0
 39 40  1  0  0  0  0
 40 35  2  0  0  0  0
 43 39  1  0  0  0  0
M  END
>  <minimizedAffinity>
-6.57144165

>  <minimizedRMSD>
1.5974983

$$$$
