
 OpenBabel03262521533D

 26 28  0  0  0  0  0  0  0  0999 V2000
   33.5180   26.3630   47.4920 C   0  0  0  0  0  0  0  0  0  0  0  0
   34.2750   25.7620   48.0530 H   0  0  0  0  0  0  0  0  0  0  0  0
   33.7690   26.2870   46.4140 H   0  0  0  0  0  0  0  0  0  0  0  0
   31.8530   25.7310   47.7690 S   0  0  0  0  0  0  0  0  0  0  0  0
   30.6830   27.0340   47.3920 C   0  0  0  0  0  0  0  0  0  0  0  0
   30.5070   27.2470   46.0360 C   0  0  0  0  0  0  0  0  0  0  0  0
   29.6020   28.2550   45.6620 C   0  0  0  0  0  0  0  0  0  0  0  0
   28.9550   28.9580   46.6470 N   0  0  0  0  0  0  0  0  0  0  0  0
   29.1750   28.6970   47.9420 C   0  0  0  0  0  0  0  0  0  0  0  0
   30.0320   27.7430   48.3140 N   0  0  0  0  0  0  0  0  0  0  0  0
   30.9940   26.7180   45.2260 H   0  0  0  0  0  0  0  0  0  0  0  0
   29.4210   28.4700   44.6260 H   0  0  0  0  0  0  0  0  0  0  0  0
   28.6350   29.2850   48.6740 H   0  0  0  0  0  0  0  0  0  0  0  0
   33.7140   28.0790   48.0410 S   0  0  0  0  0  0  0  0  0  0  0  0
   34.2710   28.7630   45.4430 C   0  0  0  0  0  3  0  0  0  0  0  0
   33.5670   29.1140   46.5910 C   0  0  0  0  0  0  0  0  0  0  0  0
   32.7810   30.2650   46.5400 C   0  0  0  0  0  0  0  0  0  0  0  0
   32.2440   30.5290   47.4220 H   0  0  0  0  0  0  0  0  0  0  0  0
   32.7100   31.0240   45.3850 C   0  0  0  0  0  0  0  0  0  0  0  0
   32.0150   32.1630   45.1260 N   0  0  0  0  0  0  0  0  0  0  0  0
   31.3800   32.7160   45.7460 H   0  0  0  0  0  0  0  0  0  0  0  0
   32.2790   32.5040   43.8670 N   0  0  0  0  0  0  0  0  0  0  0  0
   33.1230   31.5960   43.3460 C   0  0  0  0  0  0  0  0  0  0  0  0
   33.4910   31.6580   42.3130 H   0  0  0  0  0  0  0  0  0  0  0  0
   33.4300   30.6250   44.2810 C   0  0  0  0  0  0  0  0  0  0  0  0
   34.2210   29.5050   44.2640 C   0  0  0  0  0  3  0  0  0  0  0  0
  1  4  1  0  0  0  0
  1 14  1  0  0  0  0
  1  2  1  0  0  0  0
  3  1  1  0  0  0  0
  5  4  1  0  0  0  0
  5 10  1  0  0  0  0
  6  5  2  0  0  0  0
  7  6  1  0  0  0  0
  7  8  2  0  0  0  0
  8  9  1  0  0  0  0
  9 10  2  0  0  0  0
  9 13  1  0  0  0  0
 11  6  1  0  0  0  0
 12  7  1  0  0  0  0
 15 16  1  0  0  0  0
 16 14  1  0  0  0  0
 17 16  2  0  0  0  0
 17 18  1  0  0  0  0
 19 17  1  0  0  0  0
 20 19  1  0  0  0  0
 20 21  1  0  0  0  0
 22 20  1  0  0  0  0
 23 22  2  0  0  0  0
 23 25  1  0  0  0  0
 24 23  1  0  0  0  0
 25 19  2  0  0  0  0
 26 25  1  0  0  0  0
 26 15  2  0  0  0  0
M  END
>  <minimizedAffinity>
-2.78007126

>  <minimizedRMSD>
7.25368929

$$$$
