
 OpenBabel03272507423D

 44 48  0  0  0  0  0  0  0  0999 V2000
   36.6480   31.1790   50.0930 C   0  0  0  0  0  0  0  0  0  0  0  0
   35.5780   30.3160   49.8700 C   0  0  0  0  0  0  0  0  0  0  0  0
   35.3660   29.1940   50.6400 C   0  0  0  0  0  0  0  0  0  0  0  0
   36.2590   28.9610   51.6410 N   0  0  0  0  0  0  0  0  0  0  0  0
   37.3070   29.8090   51.8570 C   0  0  0  0  0  0  0  0  0  0  0  0
   37.4780   30.8800   51.0950 N   0  0  0  0  0  0  0  0  0  0  0  0
   34.5790   28.4920   50.5350 H   0  0  0  0  0  0  0  0  0  0  0  0
   37.9980   29.5910   52.6650 H   0  0  0  0  0  0  0  0  0  0  0  0
   34.2340   29.3810   48.0240 C   0  0  0  0  0  0  0  0  0  0  0  0
   34.7280   28.2000   47.8840 O   0  0  0  0  0  0  0  0  0  0  0  0
   34.6050   30.4580   48.8610 N   0  0  0  0  0  0  0  0  0  0  0  0
   34.2200   31.4180   48.8190 H   0  0  0  0  0  0  0  0  0  0  0  0
   32.1060   28.6050   46.9830 C   0  0  0  0  0  3  0  0  0  0  0  0
   33.0940   29.5570   47.1240 C   0  0  0  0  0  0  0  0  0  0  0  0
   32.8930   30.6750   46.3430 C   0  0  0  0  0  0  0  0  0  0  0  0
   33.5970   31.4910   46.3660 H   0  0  0  0  0  0  0  0  0  0  0  0
   31.8340   30.8790   45.4860 C   0  0  0  0  0  0  0  0  0  0  0  0
   31.4650   31.8720   44.6570 N   0  0  0  0  0  0  0  0  0  0  0  0
   31.9660   32.7630   44.4940 H   0  0  0  0  0  0  0  0  0  0  0  0
   30.3360   31.5250   44.0670 N   0  0  0  0  0  0  0  0  0  0  0  0
   29.9300   30.3150   44.4790 C   0  0  0  0  0  0  0  0  0  0  0  0
   29.0670   29.7430   44.2040 H   0  0  0  0  0  0  0  0  0  0  0  0
   30.8780   29.8900   45.3850 C   0  0  0  0  0  0  0  0  0  0  0  0
   31.0030   28.7400   46.1340 C   0  0  0  0  0  3  0  0  0  0  0  0
   36.6800   32.2200   49.2330 O   0  0  0  0  0  0  0  0  0  0  0  0
   38.1850   32.2060   47.2770 C   0  0  0  0  0  0  0  0  0  0  0  0
   37.7940   32.6340   48.5380 C   0  0  0  0  0  0  0  0  0  0  0  0
   38.5570   33.5660   49.2140 C   0  0  0  0  0  0  0  0  0  0  0  0
   39.7110   34.0730   48.6330 C   0  0  0  0  0  0  0  0  0  0  0  0
   40.0930   33.6400   47.3760 C   0  0  0  0  0  0  0  0  0  0  0  0
   39.3150   32.7150   46.7320 C   0  0  0  0  0  0  0  0  0  0  0  0
   38.3150   33.9440   50.1960 H   0  0  0  0  0  0  0  0  0  0  0  0
   40.3240   34.8080   49.1510 H   0  0  0  0  0  0  0  0  0  0  0  0
   40.9870   34.0090   46.8820 H   0  0  0  0  0  0  0  0  0  0  0  0
   39.7360   32.2580   45.3830 C   0  0  0  0  0  0  0  0  0  0  0  0
   40.5710   31.2210   45.0300 C   0  0  0  0  0  0  0  0  0  0  0  0
   40.6460   31.2070   43.6400 C   0  0  0  0  0  0  0  0  0  0  0  0
   39.8380   32.2530   43.2280 C   0  0  0  0  0  0  0  0  0  0  0  0
   39.3110   32.8610   44.2790 O   0  0  0  0  0  0  0  0  0  0  0  0
   41.0540   30.5660   45.7580 H   0  0  0  0  0  0  0  0  0  0  0  0
   41.2160   30.5180   43.0570 H   0  0  0  0  0  0  0  0  0  0  0  0
   39.6510   32.5510   42.2060 H   0  0  0  0  0  0  0  0  0  0  0  0
   36.6830   30.4690   46.1070 N   0  0  0  0  0  0  0  0  0  0  0  0
   37.3480   31.2410   46.6390 C   0  0  0  0  0  0  0  0  0  0  0  0
  1  6  1  0  0  0  0
  2  1  2  0  0  0  0
  2  3  1  0  0  0  0
  3  4  2  0  0  0  0
  4  5  1  0  0  0  0
  5  8  1  0  0  0  0
  6  5  2  0  0  0  0
  7  3  1  0  0  0  0
  9 11  1  0  0  0  0
 10  9  2  0  0  0  0
 11  2  1  0  0  0  0
 12 11  1  0  0  0  0
 13 14  1  0  0  0  0
 14  9  1  0  0  0  0
 15 16  1  0  0  0  0
 15 14  2  0  0  0  0
 17 15  1  0  0  0  0
 18 17  1  0  0  0  0
 19 18  1  0  0  0  0
 20 21  2  0  0  0  0
 20 18  1  0  0  0  0
 21 23  1  0  0  0  0
 22 21  1  0  0  0  0
 23 17  2  0  0  0  0
 23 24  1  0  0  0  0
 24 13  2  0  0  0  0
 25  1  1  0  0  0  0
 26 27  1  0  0  0  0
 27 28  2  0  0  0  0
 27 25  1  0  0  0  0
 28 32  1  0  0  0  0
 29 33  1  0  0  0  0
 29 28  1  0  0  0  0
 30 29  2  0  0  0  0
 31 26  2  0  0  0  0
 31 30  1  0  0  0  0
 34 30  1  0  0  0  0
 35 31  1  0  0  0  0
 36 35  2  0  0  0  0
 36 40  1  0  0  0  0
 37 36  1  0  0  0  0
 38 37  2  0  0  0  0
 38 39  1  0  0  0  0
 39 35  1  0  0  0  0
 41 37  1  0  0  0  0
 42 38  1  0  0  0  0
 43 44  3  0  0  0  0
 44 26  1  0  0  0  0
M  END
>  <minimizedAffinity>
-6.34537745

>  <minimizedRMSD>
0.602760851

$$$$
