
 OpenBabel03272509493D

 36 39  0  0  0  0  0  0  0  0999 V2000
   37.2510   30.2330   51.4360 C   0  0  0  0  0  0  0  0  0  0  0  0
   38.0190   30.8940   50.4420 C   0  0  0  0  0  0  0  0  0  0  0  0
   37.7480   30.6340   49.1150 C   0  0  0  0  0  0  0  0  0  0  0  0
   36.7430   29.7470   48.8790 N   0  0  0  0  0  0  0  0  0  0  0  0
   36.0260   29.1310   49.8120 C   0  0  0  0  0  0  0  0  0  0  0  0
   36.2870   29.3800   51.1060 N   0  0  0  0  0  0  0  0  0  0  0  0
   37.4530   30.4280   52.4860 H   0  0  0  0  0  0  0  0  0  0  0  0
   38.7840   31.5700   50.7270 H   0  0  0  0  0  0  0  0  0  0  0  0
   38.8770   32.5720   48.0460 C   0  0  0  0  0  3  0  0  0  0  0  0
   38.4740   31.2560   48.0170 C   0  0  0  0  0  0  0  0  0  0  0  0
   38.7680   30.4930   46.9070 C   0  0  0  0  0  0  0  0  0  0  0  0
   38.4480   29.4450   46.8800 H   0  0  0  0  0  0  0  0  0  0  0  0
   39.4520   31.0010   45.8190 C   0  0  0  0  0  0  0  0  0  0  0  0
   39.8770   30.5300   44.6270 N   0  0  0  0  0  0  0  0  0  0  0  0
   39.7040   29.5400   44.3340 H   0  0  0  0  0  0  0  0  0  0  0  0
   40.4950   31.5100   43.9870 N   0  0  0  0  0  0  0  0  0  0  0  0
   40.4820   32.6200   44.7440 C   0  0  0  0  0  0  0  0  0  0  0  0
   40.9180   33.5860   44.4720 H   0  0  0  0  0  0  0  0  0  0  0  0
   39.8240   32.3210   45.9130 C   0  0  0  0  0  0  0  0  0  0  0  0
   39.5670   33.1430   46.9880 C   0  0  0  0  0  3  0  0  0  0  0  0
   35.0800   28.2900   49.2850 O   0  0  0  0  0  0  0  0  0  0  0  0
   34.4030   28.6660   48.1000 C   0  0  0  0  0  0  0  0  0  0  0  0
   35.1550   28.9850   47.3480 H   0  0  0  0  0  0  0  0  0  0  0  0
   33.8250   29.5970   48.3340 H   0  0  0  0  0  0  0  0  0  0  0  0
   33.5190   27.5610   47.6130 C   0  0  0  0  0  0  0  0  0  0  0  0
   33.7180   26.5900   48.1230 H   0  0  0  0  0  0  0  0  0  0  0  0
   33.7670   27.3920   46.5440 H   0  0  0  0  0  0  0  0  0  0  0  0
   32.0790   27.9180   47.6660 C   0  0  0  0  0  0  0  0  0  0  0  0
   31.3720   27.5300   48.7870 C   0  0  0  0  0  0  0  0  0  0  0  0
   30.0360   27.7900   48.9730 C   0  0  0  0  0  0  0  0  0  0  0  0
   29.3880   28.4540   48.0180 N   0  0  0  0  0  0  0  0  0  0  0  0
   30.0730   28.8390   46.9140 C   0  0  0  0  0  0  0  0  0  0  0  0
   31.3880   28.5860   46.7260 N   0  0  0  0  0  0  0  0  0  0  0  0
   31.8380   26.9780   49.6180 H   0  0  0  0  0  0  0  0  0  0  0  0
   29.4820   27.4860   49.8510 H   0  0  0  0  0  0  0  0  0  0  0  0
   29.5520   29.3890   46.1160 H   0  0  0  0  0  0  0  0  0  0  0  0
  1  7  1  0  0  0  0
  2  8  1  0  0  0  0
  2  1  2  0  0  0  0
  3  2  1  0  0  0  0
  4  3  2  0  0  0  0
  4  5  1  0  0  0  0
  5  6  2  0  0  0  0
  6  1  1  0  0  0  0
 10  9  1  0  0  0  0
 10  3  1  0  0  0  0
 11 10  2  0  0  0  0
 12 11  1  0  0  0  0
 13 19  2  0  0  0  0
 13 11  1  0  0  0  0
 14 13  1  0  0  0  0
 15 14  1  0  0  0  0
 16 14  1  0  0  0  0
 16 17  2  0  0  0  0
 17 19  1  0  0  0  0
 18 17  1  0  0  0  0
 19 20  1  0  0  0  0
 20  9  2  0  0  0  0
 21  5  1  0  0  0  0
 22 24  1  0  0  0  0
 22 21  1  0  0  0  0
 23 22  1  0  0  0  0
 25 28  1  0  0  0  0
 25 22  1  0  0  0  0
 25 26  1  0  0  0  0
 27 25  1  0  0  0  0
 28 29  1  0  0  0  0
 29 30  2  0  0  0  0
 29 34  1  0  0  0  0
 30 35  1  0  0  0  0
 31 30  1  0  0  0  0
 32 31  2  0  0  0  0
 33 32  1  0  0  0  0
 33 28  2  0  0  0  0
 36 32  1  0  0  0  0
M  END
>  <minimizedAffinity>
-6.63709497

>  <minimizedRMSD>
1.04085195

$$$$
