
 OpenBabel03272509263D

 28 30  0  0  0  0  0  0  0  0999 V2000
   34.4480   28.8630   45.1770 C   0  0  0  0  0  0  0  0  0  0  0  0
   34.6510   29.5340   44.2900 H   0  0  0  0  0  0  0  0  0  0  0  0
   35.4080   28.4190   45.4140 H   0  0  0  0  0  0  0  0  0  0  0  0
   33.3760   27.9220   44.7020 C   0  0  0  0  0  0  0  0  0  0  0  0
   32.5240   28.5810   44.3720 H   0  0  0  0  0  0  0  0  0  0  0  0
   33.7600   27.3230   43.8390 H   0  0  0  0  0  0  0  0  0  0  0  0
   33.3180   25.3390   47.4650 C   0  0  0  0  0  0  0  0  0  0  0  0
   33.8090   26.1650   46.4570 C   0  0  0  0  0  0  0  0  0  0  0  0
   32.9630   27.0110   45.7810 C   0  0  0  0  0  0  0  0  0  0  0  0
   31.6540   26.9760   46.1620 N   0  0  0  0  0  0  0  0  0  0  0  0
   31.1900   26.1830   47.1290 C   0  0  0  0  0  0  0  0  0  0  0  0
   32.0140   25.3580   47.7870 N   0  0  0  0  0  0  0  0  0  0  0  0
   34.0510   24.6990   47.9520 H   0  0  0  0  0  0  0  0  0  0  0  0
   34.8380   26.1490   46.2040 H   0  0  0  0  0  0  0  0  0  0  0  0
   30.1490   26.1650   47.4210 H   0  0  0  0  0  0  0  0  0  0  0  0
   33.7930   29.9840   46.4480 S   0  0  0  0  0  0  0  0  0  0  0  0
   34.3620   28.9300   49.0170 C   0  0  0  0  0  3  0  0  0  0  0  0
   34.6970   29.7690   47.9730 C   0  0  0  0  0  0  0  0  0  0  0  0
   35.8320   30.5610   48.0330 C   0  0  0  0  0  0  0  0  0  0  0  0
   36.1770   31.2500   47.2620 H   0  0  0  0  0  0  0  0  0  0  0  0
   36.6640   30.5290   49.1480 C   0  0  0  0  0  0  0  0  0  0  0  0
   37.8190   31.1680   49.4970 N   0  0  0  0  0  0  0  0  0  0  0  0
   38.3000   31.8710   48.8770 H   0  0  0  0  0  0  0  0  0  0  0  0
   38.1840   30.7510   50.6910 N   0  0  0  0  0  0  0  0  0  0  0  0
   37.2980   29.8430   51.1540 C   0  0  0  0  0  0  0  0  0  0  0  0
   37.3650   29.3440   52.1130 H   0  0  0  0  0  0  0  0  0  0  0  0
   36.3210   29.6780   50.2000 C   0  0  0  0  0  0  0  0  0  0  0  0
   35.1990   28.9110   50.1170 C   0  0  0  0  0  3  0  0  0  0  0  0
  1  3  1  0  0  0  0
  1 16  1  0  0  0  0
  2  1  1  0  0  0  0
  4  1  1  0  0  0  0
  4  9  1  0  0  0  0
  5  4  1  0  0  0  0
  6  4  1  0  0  0  0
  7 12  1  0  0  0  0
  7 13  1  0  0  0  0
  8  7  2  0  0  0  0
  9 10  2  0  0  0  0
  9  8  1  0  0  0  0
 10 11  1  0  0  0  0
 11 15  1  0  0  0  0
 11 12  2  0  0  0  0
 14  8  1  0  0  0  0
 16 18  1  0  0  0  0
 17 28  1  0  0  0  0
 18 19  1  0  0  0  0
 18 17  2  0  0  0  0
 19 21  2  0  0  0  0
 20 19  1  0  0  0  0
 21 22  1  0  0  0  0
 21 27  1  0  0  0  0
 22 24  1  0  0  0  0
 23 22  1  0  0  0  0
 24 25  2  0  0  0  0
 25 26  1  0  0  0  0
 27 25  1  0  0  0  0
 28 27  2  0  0  0  0
M  END
>  <minimizedAffinity>
-4.29016924

>  <minimizedRMSD>
7.09542847

$$$$
