
 OpenBabel03272505053D

 36 39  0  0  1  0  0  0  0  0999 V2000
   36.7110   29.1880   50.5020 C   0  0  0  0  0  0  0  0  0  0  0  0
   37.2060   29.6440   49.2760 C   0  0  0  0  0  0  0  0  0  0  0  0
   36.3050   30.2460   48.4160 C   0  0  0  0  0  0  0  0  0  0  0  0
   35.0040   30.3580   48.8110 N   0  0  0  0  0  0  0  0  0  0  0  0
   34.5630   29.9120   49.9920 C   0  0  0  0  0  0  0  0  0  0  0  0
   35.4240   29.3140   50.8600 N   0  0  0  0  0  0  0  0  0  0  0  0
   36.5600   30.7830   47.1200 N   0  0  0  0  0  0  0  0  0  0  0  0
   37.6820   31.6180   46.8030 C   0  0  0  0  0  0  0  0  0  0  0  0
   38.4280   31.3090   45.5700 C   0  0  0  0  0  0  0  0  0  0  0  0
   37.6260   30.8040   44.4100 C   0  0  0  0  0  0  0  0  0  0  0  0
   36.6060   29.8230   44.8960 C   0  0  0  0  0  0  0  0  0  0  0  0
   35.7660   30.5910   45.9430 C   0  0  1  0  0  0  0  0  0  0  0  0
   37.5000   28.7270   51.1110 H   0  0  0  0  0  0  0  0  0  0  0  0
   38.2000   29.5860   48.9130 H   0  0  0  0  0  0  0  0  0  0  0  0
   33.5360   29.9940   50.3170 H   0  0  0  0  0  0  0  0  0  0  0  0
   38.3930   31.5490   47.6680 H   0  0  0  0  0  0  0  0  0  0  0  0
   37.3100   32.6680   46.8190 H   0  0  0  0  0  0  0  0  0  0  0  0
   39.3080   30.6560   45.7890 H   0  0  0  0  0  0  0  0  0  0  0  0
   38.8950   32.2770   45.2190 H   0  0  0  0  0  0  0  0  0  0  0  0
   38.3240   30.2420   43.7490 H   0  0  0  0  0  0  0  0  0  0  0  0
   37.1850   31.5970   43.7890 H   0  0  0  0  0  0  0  0  0  0  0  0
   37.0970   28.9990   45.4310 H   0  0  0  0  0  0  0  0  0  0  0  0
   35.9750   29.4570   44.0890 H   0  0  0  0  0  0  0  0  0  0  0  0
   35.3840   31.5400   45.5170 H   0  0  0  0  0  0  0  0  0  0  0  0
   34.6140   28.3510   46.4100 C   0  0  0  0  0  0  0  0  0  0  0  0
   34.5700   29.7070   46.1730 C   0  0  0  0  0  0  0  0  0  0  0  0
   33.2790   30.2440   46.1600 C   0  0  0  0  0  0  0  0  0  0  0  0
   33.2000   31.3100   45.9760 H   0  0  0  0  0  0  0  0  0  0  0  0
   32.1140   29.5560   46.3530 C   0  0  0  0  0  0  0  0  0  0  0  0
   30.8300   29.9400   46.3660 N   0  0  0  0  0  0  0  0  0  0  0  0
   30.4540   30.9000   46.2200 H   0  0  0  0  0  0  0  0  0  0  0  0
   30.1010   28.8590   46.6020 N   0  0  0  0  0  0  0  0  0  0  0  0
   30.9070   27.7700   46.7430 C   0  0  0  0  0  0  0  0  0  0  0  0
   30.6190   26.7560   46.9400 H   0  0  0  0  0  0  0  0  0  0  0  0
   32.2240   28.2060   46.5840 C   0  0  0  0  0  0  0  0  0  0  0  0
   33.4690   27.6150   46.6100 C   0  0  0  0  0  0  0  0  0  0  0  0
  1  6  1  0  0  0  0
  1 13  1  0  0  0  0
  2  1  2  0  0  0  0
  3  4  2  0  0  0  0
  3  2  1  0  0  0  0
  4  5  1  0  0  0  0
  5 15  1  0  0  0  0
  5  6  2  0  0  0  0
  7  3  1  0  0  0  0
  8 17  1  0  0  0  0
  8  7  1  0  0  0  0
  8 16  1  0  0  0  0
  9 18  1  0  0  0  0
  9  8  1  0  0  0  0
 10 11  1  0  0  0  0
 10  9  1  0  0  0  0
 11 22  1  0  0  0  0
 11 12  1  0  0  0  0
 12 24  1  6  0  0  0
 12 26  1  0  0  0  0
 12  7  1  0  0  0  0
 14  2  1  0  0  0  0
 19  9  1  0  0  0  0
 20 10  1  0  0  0  0
 21 10  1  0  0  0  0
 23 11  1  0  0  0  0
 25 36  1  0  0  0  0
 26 25  2  0  0  0  0
 27 26  1  0  0  0  0
 27 29  2  0  0  0  0
 28 27  1  0  0  0  0
 29 30  1  0  0  0  0
 29 35  1  0  0  0  0
 30 32  1  0  0  0  0
 31 30  1  0  0  0  0
 32 33  2  0  0  0  0
 33 34  1  0  0  0  0
 35 36  2  0  0  0  0
 35 33  1  0  0  0  0
M  END
>  <minimizedAffinity>
-4.6036725

>  <minimizedRMSD>
3.12363291

$$$$
