
 OpenBabel03272504423D

 48 51  0  0  0  0  0  0  0  0999 V2000
   34.6870   29.3650   48.7500 C   0  0  0  0  0  0  0  0  0  0  0  0
   35.5800   29.3980   49.4140 H   0  0  0  0  0  0  0  0  0  0  0  0
   34.0340   30.1910   49.1650 H   0  0  0  0  0  0  0  0  0  0  0  0
   37.4510   30.4280   48.4880 Cl  0  0  0  0  0  0  0  0  0  0  0  0
   36.3240   30.2730   47.1400 C   0  0  0  0  0  0  0  0  0  0  0  0
   36.7170   30.6550   45.9060 C   0  0  0  0  0  0  0  0  0  0  0  0
   35.8460   30.5390   44.8430 C   0  0  0  0  0  0  0  0  0  0  0  0
   34.5710   30.0270   45.0670 C   0  0  0  0  0  0  0  0  0  0  0  0
   34.2400   29.6530   46.3840 C   0  0  0  0  0  0  0  0  0  0  0  0
   35.0780   29.7590   47.4290 C   0  0  0  0  0  0  0  0  0  0  0  0
   36.1860   30.8540   43.8480 H   0  0  0  0  0  0  0  0  0  0  0  0
   33.9770   29.9790   44.1840 H   0  0  0  0  0  0  0  0  0  0  0  0
   33.2720   29.3080   46.3470 H   0  0  0  0  0  0  0  0  0  0  0  0
   39.7060   32.8140   46.0090 C   0  0  0  0  0  0  0  0  0  0  0  0
   40.5850   32.0830   45.1310 C   0  0  0  0  0  0  0  0  0  0  0  0
   40.1110   30.9000   44.5570 C   0  0  0  0  0  0  0  0  0  0  0  0
   38.8510   30.4860   44.8440 N   0  0  0  0  0  0  0  0  0  0  0  0
   38.0470   31.1930   45.6720 C   0  0  0  0  0  0  0  0  0  0  0  0
   38.4770   32.3310   46.2370 N   0  0  0  0  0  0  0  0  0  0  0  0
   40.0730   33.7290   46.4520 H   0  0  0  0  0  0  0  0  0  0  0  0
   41.5640   32.5150   44.9810 H   0  0  0  0  0  0  0  0  0  0  0  0
   40.9990   30.2200   43.7100 N   0  0  0  0  0  0  0  0  0  0  0  0
   40.7790   30.5730   42.7510 H   0  0  0  0  0  0  0  0  0  0  0  0
   41.7570   29.5000   43.8770 H   0  0  0  0  0  0  0  0  0  0  0  0
   34.0160   28.0780   48.9630 C   0  0  0  0  0  0  0  0  0  0  0  0
   34.1090   27.4180   48.0690 H   0  0  0  0  0  0  0  0  0  0  0  0
   34.4730   27.4710   49.7940 H   0  0  0  0  0  0  0  0  0  0  0  0
   32.6990   28.2460   49.3000 O   0  0  0  0  0  0  0  0  0  0  0  0
   32.5050   26.5040   47.3440 O   0  0  0  0  0  0  0  0  0  0  0  0
   31.7120   27.3980   48.2640 P   0  0  2  0  0  0  0  0  0  0  0  0
   30.8690   28.5770   47.3130 O   0  0  0  0  0  0  0  0  0  0  0  0
   30.9920   28.4770   44.8930 C   0  0  0  0  0  3  0  0  0  0  0  0
   30.3900   28.1260   46.0840 C   0  0  0  0  0  0  0  0  0  0  0  0
   29.2860   27.3020   45.9690 C   0  0  0  0  0  0  0  0  0  0  0  0
   28.7680   26.9920   46.8810 H   0  0  0  0  0  0  0  0  0  0  0  0
   28.8130   26.8570   44.7470 C   0  0  0  0  0  0  0  0  0  0  0  0
   27.8020   26.0770   44.3280 N   0  0  0  0  0  0  0  0  0  0  0  0
   27.1070   25.6150   44.9750 H   0  0  0  0  0  0  0  0  0  0  0  0
   27.7950   25.9680   43.0070 N   0  0  0  0  0  0  0  0  0  0  0  0
   28.8170   26.6810   42.4970 C   0  0  0  0  0  0  0  0  0  0  0  0
   29.1110   26.8160   41.4440 H   0  0  0  0  0  0  0  0  0  0  0  0
   29.4560   27.2400   43.5860 C   0  0  0  0  0  0  0  0  0  0  0  0
   30.5770   28.0720   43.6410 C   0  0  0  0  0  3  0  0  0  0  0  0
   30.5410   26.5190   49.0310 O   0  0  0  0  0  0  0  0  0  0  0  0
   29.7590   27.3250   49.8270 C   0  0  0  0  0  0  0  0  0  0  0  0
   29.2950   26.6610   50.9620 F   0  0  0  0  0  0  0  0  0  0  0  0
   30.4700   28.4090   50.2980 F   0  0  0  0  0  0  0  0  0  0  0  0
   28.6600   27.7870   49.1120 F   0  0  0  0  0  0  0  0  0  0  0  0
  1 25  1  0  0  0  0
  1  3  1  0  0  0  0
  1  2  1  0  0  0  0
  5 10  1  0  0  0  0
  5  4  1  0  0  0  0
  6  5  2  0  0  0  0
  7  8  2  0  0  0  0
  7  6  1  0  0  0  0
  8  9  1  0  0  0  0
  9 10  2  0  0  0  0
 10  1  1  0  0  0  0
 11  7  1  0  0  0  0
 12  8  1  0  0  0  0
 13  9  1  0  0  0  0
 14 19  1  0  0  0  0
 14 20  1  0  0  0  0
 15 14  2  0  0  0  0
 16 17  2  0  0  0  0
 16 15  1  0  0  0  0
 17 18  1  0  0  0  0
 18  6  1  0  0  0  0
 18 19  2  0  0  0  0
 21 15  1  0  0  0  0
 22 24  1  0  0  0  0
 22 16  1  0  0  0  0
 23 22  1  0  0  0  0
 25 28  1  0  0  0  0
 25 27  1  0  0  0  0
 26 25  1  0  0  0  0
 30 29  2  6  0  0  0
 30 44  1  0  0  0  0
 30 28  1  0  0  0  0
 31 30  1  0  0  0  0
 32 33  1  0  0  0  0
 33 31  1  0  0  0  0
 34 33  2  0  0  0  0
 34 35  1  0  0  0  0
 36 34  1  0  0  0  0
 37 36  1  0  0  0  0
 37 38  1  0  0  0  0
 39 37  1  0  0  0  0
 40 39  2  0  0  0  0
 40 42  1  0  0  0  0
 41 40  1  0  0  0  0
 42 43  1  0  0  0  0
 42 36  2  0  0  0  0
 43 32  2  0  0  0  0
 44 45  1  0  0  0  0
 45 47  1  0  0  0  0
 45 46  1  0  0  0  0
 48 45  1  0  0  0  0
M  END
>  <minimizedAffinity>
-5.82403612

>  <minimizedRMSD>
0.644979656

$$$$
