
 OpenBabel03272507413D

 44 48  0  0  0  0  0  0  0  0999 V2000
   36.6500   31.1720   50.0910 C   0  0  0  0  0  0  0  0  0  0  0  0
   35.5730   30.3100   49.8990 C   0  0  0  0  0  0  0  0  0  0  0  0
   35.3690   29.2020   50.6910 C   0  0  0  0  0  0  0  0  0  0  0  0
   36.2750   28.9820   51.6820 N   0  0  0  0  0  0  0  0  0  0  0  0
   37.3310   29.8290   51.8680 C   0  0  0  0  0  0  0  0  0  0  0  0
   37.4950   30.8860   51.0850 N   0  0  0  0  0  0  0  0  0  0  0  0
   34.5770   28.5020   50.6100 H   0  0  0  0  0  0  0  0  0  0  0  0
   38.0330   29.6210   52.6680 H   0  0  0  0  0  0  0  0  0  0  0  0
   34.2180   29.3580   48.0710 C   0  0  0  0  0  0  0  0  0  0  0  0
   34.7250   28.1840   47.9240 O   0  0  0  0  0  0  0  0  0  0  0  0
   34.5860   30.4400   48.9030 N   0  0  0  0  0  0  0  0  0  0  0  0
   34.1870   31.3950   48.8670 H   0  0  0  0  0  0  0  0  0  0  0  0
   32.9330   30.5890   46.3240 C   0  0  0  0  0  3  0  0  0  0  0  0
   33.0630   29.5190   47.1860 C   0  0  0  0  0  0  0  0  0  0  0  0
   32.0090   28.6350   47.1240 C   0  0  0  0  0  0  0  0  0  0  0  0
   31.9960   27.7570   47.7510 H   0  0  0  0  0  0  0  0  0  0  0  0
   30.9070   28.7500   46.3070 C   0  0  0  0  0  0  0  0  0  0  0  0
   29.8000   28.0150   46.1010 N   0  0  0  0  0  0  0  0  0  0  0  0
   29.5460   27.1290   46.5730 H   0  0  0  0  0  0  0  0  0  0  0  0
   29.0660   28.6120   45.1800 N   0  0  0  0  0  0  0  0  0  0  0  0
   29.6540   29.7410   44.7550 C   0  0  0  0  0  0  0  0  0  0  0  0
   29.3350   30.4550   44.0240 H   0  0  0  0  0  0  0  0  0  0  0  0
   30.8310   29.8400   45.4670 C   0  0  0  0  0  0  0  0  0  0  0  0
   31.8450   30.7740   45.4650 C   0  0  0  0  0  3  0  0  0  0  0  0
   36.6730   32.1980   49.2130 O   0  0  0  0  0  0  0  0  0  0  0  0
   38.1760   32.1770   47.2560 C   0  0  0  0  0  0  0  0  0  0  0  0
   37.7850   32.6120   48.5140 C   0  0  0  0  0  0  0  0  0  0  0  0
   38.5440   33.5520   49.1830 C   0  0  0  0  0  0  0  0  0  0  0  0
   39.6960   34.0610   48.5970 C   0  0  0  0  0  0  0  0  0  0  0  0
   40.0780   33.6200   47.3420 C   0  0  0  0  0  0  0  0  0  0  0  0
   39.3040   32.6870   46.7060 C   0  0  0  0  0  0  0  0  0  0  0  0
   38.3010   33.9360   50.1630 H   0  0  0  0  0  0  0  0  0  0  0  0
   40.3050   34.8010   49.1090 H   0  0  0  0  0  0  0  0  0  0  0  0
   40.9690   33.9900   46.8450 H   0  0  0  0  0  0  0  0  0  0  0  0
   39.7250   32.2230   45.3600 C   0  0  0  0  0  0  0  0  0  0  0  0
   40.5850   31.2040   45.0130 C   0  0  0  0  0  0  0  0  0  0  0  0
   40.6480   31.1720   43.6230 C   0  0  0  0  0  0  0  0  0  0  0  0
   39.8080   32.1900   43.2040 C   0  0  0  0  0  0  0  0  0  0  0  0
   39.2740   32.7980   44.2510 O   0  0  0  0  0  0  0  0  0  0  0  0
   41.0930   30.5740   45.7460 H   0  0  0  0  0  0  0  0  0  0  0  0
   41.2320   30.4910   43.0450 H   0  0  0  0  0  0  0  0  0  0  0  0
   39.6030   32.4670   42.1790 H   0  0  0  0  0  0  0  0  0  0  0  0
   36.6570   30.4340   46.1160 N   0  0  0  0  0  0  0  0  0  0  0  0
   37.3430   31.2040   46.6260 C   0  0  0  0  0  0  0  0  0  0  0  0
  1  6  1  0  0  0  0
  2  1  2  0  0  0  0
  2  3  1  0  0  0  0
  3  4  2  0  0  0  0
  4  5  1  0  0  0  0
  5  8  1  0  0  0  0
  6  5  2  0  0  0  0
  7  3  1  0  0  0  0
  9 11  1  0  0  0  0
 10  9  2  0  0  0  0
 11  2  1  0  0  0  0
 12 11  1  0  0  0  0
 13 14  1  0  0  0  0
 14  9  1  0  0  0  0
 15 14  2  0  0  0  0
 15 16  1  0  0  0  0
 17 15  1  0  0  0  0
 18 17  1  0  0  0  0
 18 19  1  0  0  0  0
 20 18  1  0  0  0  0
 21 20  2  0  0  0  0
 21 23  1  0  0  0  0
 22 21  1  0  0  0  0
 23 17  2  0  0  0  0
 24 23  1  0  0  0  0
 24 13  2  0  0  0  0
 25  1  1  0  0  0  0
 26 27  1  0  0  0  0
 27 28  2  0  0  0  0
 27 25  1  0  0  0  0
 28 32  1  0  0  0  0
 29 33  1  0  0  0  0
 29 28  1  0  0  0  0
 30 29  2  0  0  0  0
 31 26  2  0  0  0  0
 31 30  1  0  0  0  0
 34 30  1  0  0  0  0
 35 31  1  0  0  0  0
 36 35  2  0  0  0  0
 36 40  1  0  0  0  0
 37 36  1  0  0  0  0
 38 37  2  0  0  0  0
 38 39  1  0  0  0  0
 39 35  1  0  0  0  0
 41 37  1  0  0  0  0
 42 38  1  0  0  0  0
 43 44  3  0  0  0  0
 44 26  1  0  0  0  0
M  END
>  <minimizedAffinity>
-6.29203415

>  <minimizedRMSD>
0.52050072

$$$$
