
 OpenBabel03272509263D

 28 30  0  0  0  0  0  0  0  0999 V2000
   37.5880   21.3560   32.4890 C   0  0  0  0  0  0  0  0  0  0  0  0
   37.6980   20.2420   32.3270 H   0  0  0  0  0  0  0  0  0  0  0  0
   36.6830   21.4630   33.0750 H   0  0  0  0  0  0  0  0  0  0  0  0
   37.5610   21.9390   31.1040 C   0  0  0  0  0  0  0  0  0  0  0  0
   38.6340   21.9570   30.7650 H   0  0  0  0  0  0  0  0  0  0  0  0
   36.9530   21.2810   30.4330 H   0  0  0  0  0  0  0  0  0  0  0  0
   35.1860   24.8810   31.2230 C   0  0  0  0  0  0  0  0  0  0  0  0
   35.6360   23.5630   31.2220 C   0  0  0  0  0  0  0  0  0  0  0  0
   36.9790   23.2900   31.1160 C   0  0  0  0  0  0  0  0  0  0  0  0
   37.8020   24.3730   31.0150 N   0  0  0  0  0  0  0  0  0  0  0  0
   37.3640   25.6330   31.0170 C   0  0  0  0  0  0  0  0  0  0  0  0
   36.0560   25.8990   31.1200 N   0  0  0  0  0  0  0  0  0  0  0  0
   34.1090   25.0130   31.3110 H   0  0  0  0  0  0  0  0  0  0  0  0
   34.9490   22.7610   31.3040 H   0  0  0  0  0  0  0  0  0  0  0  0
   38.0280   26.4830   30.9360 H   0  0  0  0  0  0  0  0  0  0  0  0
   39.1130   21.8360   33.3510 S   0  0  0  0  0  0  0  0  0  0  0  0
   38.1280   24.1390   34.6800 C   0  0  0  0  0  3  0  0  0  0  0  0
   38.7220   22.8940   34.7360 C   0  0  0  0  0  0  0  0  0  0  0  0
   39.0830   22.3320   35.9500 C   0  0  0  0  0  0  0  0  0  0  0  0
   39.5550   21.3600   36.0940 H   0  0  0  0  0  0  0  0  0  0  0  0
   38.8560   23.0090   37.1440 C   0  0  0  0  0  0  0  0  0  0  0  0
   39.0900   22.7330   38.4610 N   0  0  0  0  0  0  0  0  0  0  0  0
   39.5400   21.8390   38.7910 H   0  0  0  0  0  0  0  0  0  0  0  0
   38.6670   23.7470   39.1830 N   0  0  0  0  0  0  0  0  0  0  0  0
   38.1510   24.7030   38.3810 C   0  0  0  0  0  0  0  0  0  0  0  0
   37.7330   25.6420   38.7240 H   0  0  0  0  0  0  0  0  0  0  0  0
   38.2550   24.2680   37.0810 C   0  0  0  0  0  0  0  0  0  0  0  0
   37.9090   24.7980   35.8740 C   0  0  0  0  0  3  0  0  0  0  0  0
  1  3  1  0  0  0  0
  1 16  1  0  0  0  0
  2  1  1  0  0  0  0
  4  9  1  0  0  0  0
  4  1  1  0  0  0  0
  5  4  1  0  0  0  0
  6  4  1  0  0  0  0
  7 13  1  0  0  0  0
  8  7  1  0  0  0  0
  8 14  1  0  0  0  0
  9  8  2  0  0  0  0
 10 11  2  0  0  0  0
 10  9  1  0  0  0  0
 11 12  1  0  0  0  0
 12  7  2  0  0  0  0
 15 11  1  0  0  0  0
 16 18  1  0  0  0  0
 17 18  2  0  0  0  0
 17 28  1  0  0  0  0
 18 19  1  0  0  0  0
 19 20  1  0  0  0  0
 19 21  2  0  0  0  0
 21 22  1  0  0  0  0
 22 23  1  0  0  0  0
 22 24  1  0  0  0  0
 25 26  1  0  0  0  0
 25 24  2  0  0  0  0
 27 21  1  0  0  0  0
 27 25  1  0  0  0  0
 28 27  2  0  0  0  0
M  END
>  <minimizedAffinity>
-4.73491716

$$$$

 OpenBabel03272509263D

 28 30  0  0  0  0  0  0  0  0999 V2000
   40.2510   24.4560   34.1150 C   0  0  0  0  0  0  0  0  0  0  0  0
   40.2390   24.4340   32.9850 H   0  0  0  0  0  0  0  0  0  0  0  0
   41.1260   23.8810   34.3950 H   0  0  0  0  0  0  0  0  0  0  0  0
   38.9200   23.8870   34.5200 C   0  0  0  0  0  0  0  0  0  0  0  0
   38.1530   24.6230   34.1490 H   0  0  0  0  0  0  0  0  0  0  0  0
   38.7730   22.8930   34.0270 H   0  0  0  0  0  0  0  0  0  0  0  0
   37.8490   23.9940   38.1460 C   0  0  0  0  0  0  0  0  0  0  0  0
   37.8280   24.2050   36.7700 C   0  0  0  0  0  0  0  0  0  0  0  0
   38.8430   23.7210   35.9790 C   0  0  0  0  0  0  0  0  0  0  0  0
   39.8330   23.0440   36.6280 N   0  0  0  0  0  0  0  0  0  0  0  0
   39.8470   22.8450   37.9480 C   0  0  0  0  0  0  0  0  0  0  0  0
   38.8590   23.3170   38.7180 N   0  0  0  0  0  0  0  0  0  0  0  0
   37.0090   24.4090   38.7020 H   0  0  0  0  0  0  0  0  0  0  0  0
   37.0310   24.7400   36.3200 H   0  0  0  0  0  0  0  0  0  0  0  0
   40.6390   22.3060   38.4490 H   0  0  0  0  0  0  0  0  0  0  0  0
   40.3380   26.2230   34.5290 S   0  0  0  0  0  0  0  0  0  0  0  0
   37.8140   27.4170   35.0170 C   0  0  0  0  0  3  0  0  0  0  0  0
   38.7920   27.0200   34.1260 C   0  0  0  0  0  0  0  0  0  0  0  0
   38.6390   27.2230   32.7650 C   0  0  0  0  0  0  0  0  0  0  0  0
   39.3530   26.9450   31.9890 H   0  0  0  0  0  0  0  0  0  0  0  0
   37.4950   27.8330   32.2600 C   0  0  0  0  0  0  0  0  0  0  0  0
   37.0600   28.1640   31.0080 N   0  0  0  0  0  0  0  0  0  0  0  0
   37.6180   27.9720   30.1350 H   0  0  0  0  0  0  0  0  0  0  0  0
   35.8800   28.7350   31.1120 N   0  0  0  0  0  0  0  0  0  0  0  0
   35.5080   28.7960   32.4090 C   0  0  0  0  0  0  0  0  0  0  0  0
   34.5780   29.2190   32.7680 H   0  0  0  0  0  0  0  0  0  0  0  0
   36.5090   28.2320   33.1640 C   0  0  0  0  0  0  0  0  0  0  0  0
   36.6840   28.0210   34.5000 C   0  0  0  0  0  3  0  0  0  0  0  0
  1  3  1  0  0  0  0
  1  4  1  0  0  0  0
  1 16  1  0  0  0  0
  2  1  1  0  0  0  0
  4  9  1  0  0  0  0
  5  4  1  0  0  0  0
  6  4  1  0  0  0  0
  7 13  1  0  0  0  0
  7 12  1  0  0  0  0
  8  7  2  0  0  0  0
  9 10  2  0  0  0  0
  9  8  1  0  0  0  0
 10 11  1  0  0  0  0
 11 15  1  0  0  0  0
 11 12  2  0  0  0  0
 14  8  1  0  0  0  0
 18 16  1  0  0  0  0
 18 17  2  0  0  0  0
 19 18  1  0  0  0  0
 20 19  1  0  0  0  0
 21 19  2  0  0  0  0
 21 27  1  0  0  0  0
 22 24  1  0  0  0  0
 22 21  1  0  0  0  0
 23 22  1  0  0  0  0
 24 25  2  0  0  0  0
 25 26  1  0  0  0  0
 25 27  1  0  0  0  0
 27 28  2  0  0  0  0
 28 17  1  0  0  0  0
M  END
>  <minimizedAffinity>
-4.61745977

$$$$

 OpenBabel03272509263D

 28 30  0  0  0  0  0  0  0  0999 V2000
   37.6220   25.8680   34.3710 C   0  0  0  0  0  0  0  0  0  0  0  0
   38.6510   25.9340   33.9070 H   0  0  0  0  0  0  0  0  0  0  0  0
   37.0400   25.2760   33.6730 H   0  0  0  0  0  0  0  0  0  0  0  0
   37.1950   27.2980   34.5520 C   0  0  0  0  0  0  0  0  0  0  0  0
   36.2980   27.2600   35.2300 H   0  0  0  0  0  0  0  0  0  0  0  0
   38.0230   27.8770   35.0350 H   0  0  0  0  0  0  0  0  0  0  0  0
   37.2430   28.4570   30.9510 C   0  0  0  0  0  0  0  0  0  0  0  0
   37.6470   27.8360   32.1310 C   0  0  0  0  0  0  0  0  0  0  0  0
   36.8640   27.9140   33.2570 C   0  0  0  0  0  0  0  0  0  0  0  0
   35.7050   28.6210   33.1310 N   0  0  0  0  0  0  0  0  0  0  0  0
   35.3240   29.2130   31.9980 C   0  0  0  0  0  0  0  0  0  0  0  0
   36.0860   29.1380   30.9000 N   0  0  0  0  0  0  0  0  0  0  0  0
   37.9190   28.3490   30.1040 H   0  0  0  0  0  0  0  0  0  0  0  0
   38.5600   27.2990   32.1690 H   0  0  0  0  0  0  0  0  0  0  0  0
   34.4010   29.7710   31.9110 H   0  0  0  0  0  0  0  0  0  0  0  0
   37.9060   25.0810   35.9830 S   0  0  0  0  0  0  0  0  0  0  0  0
   40.5440   24.4620   35.1500 C   0  0  0  0  0  3  0  0  0  0  0  0
   39.4610   24.2040   35.9670 C   0  0  0  0  0  0  0  0  0  0  0  0
   39.5010   23.1800   36.8990 C   0  0  0  0  0  0  0  0  0  0  0  0
   38.7010   22.9020   37.5840 H   0  0  0  0  0  0  0  0  0  0  0  0
   40.6350   22.3840   37.0340 C   0  0  0  0  0  0  0  0  0  0  0  0
   40.9740   21.3290   37.8330 N   0  0  0  0  0  0  0  0  0  0  0  0
   40.3250   20.9220   38.5570 H   0  0  0  0  0  0  0  0  0  0  0  0
   42.1970   20.9520   37.5310 N   0  0  0  0  0  0  0  0  0  0  0  0
   42.6910   21.7300   36.5440 C   0  0  0  0  0  0  0  0  0  0  0  0
   43.6790   21.6300   36.1110 H   0  0  0  0  0  0  0  0  0  0  0  0
   41.7270   22.6490   36.2050 C   0  0  0  0  0  0  0  0  0  0  0  0
   41.6620   23.6640   35.2970 C   0  0  0  0  0  3  0  0  0  0  0  0
  1  4  1  0  0  0  0
  1 16  1  0  0  0  0
  2  1  1  0  0  0  0
  3  1  1  0  0  0  0
  4  6  1  0  0  0  0
  4  5  1  0  0  0  0
  7  8  1  0  0  0  0
  8 14  1  0  0  0  0
  8  9  2  0  0  0  0
  9  4  1  0  0  0  0
 10  9  1  0  0  0  0
 11 10  2  0  0  0  0
 12  7  2  0  0  0  0
 12 11  1  0  0  0  0
 13  7  1  0  0  0  0
 15 11  1  0  0  0  0
 17 28  2  0  0  0  0
 17 18  1  0  0  0  0
 18 16  1  0  0  0  0
 18 19  2  0  0  0  0
 19 21  1  0  0  0  0
 19 20  1  0  0  0  0
 21 22  1  0  0  0  0
 22 23  1  0  0  0  0
 24 22  1  0  0  0  0
 25 24  2  0  0  0  0
 26 25  1  0  0  0  0
 27 25  1  0  0  0  0
 27 21  2  0  0  0  0
 28 27  1  0  0  0  0
M  END
>  <minimizedAffinity>
-4.60821152

$$$$

 OpenBabel03272509263D

 28 30  0  0  0  0  0  0  0  0999 V2000
   37.1330   27.2390   34.7750 C   0  0  0  0  0  0  0  0  0  0  0  0
   36.8270   28.3200   34.8970 H   0  0  0  0  0  0  0  0  0  0  0  0
   36.2640   26.6670   35.0800 H   0  0  0  0  0  0  0  0  0  0  0  0
   38.3610   27.0940   35.6310 C   0  0  0  0  0  0  0  0  0  0  0  0
   39.1810   27.6230   35.0700 H   0  0  0  0  0  0  0  0  0  0  0  0
   38.1870   27.5880   36.6200 H   0  0  0  0  0  0  0  0  0  0  0  0
   38.3100   23.4700   36.7130 C   0  0  0  0  0  0  0  0  0  0  0  0
   37.9120   24.7970   36.5670 C   0  0  0  0  0  0  0  0  0  0  0  0
   38.6850   25.6760   35.8460 C   0  0  0  0  0  0  0  0  0  0  0  0
   39.8290   25.1630   35.3080 N   0  0  0  0  0  0  0  0  0  0  0  0
   40.2040   23.8910   35.4520 C   0  0  0  0  0  0  0  0  0  0  0  0
   39.4510   23.0340   36.1540 N   0  0  0  0  0  0  0  0  0  0  0  0
   37.6440   22.8380   37.2980 H   0  0  0  0  0  0  0  0  0  0  0  0
   37.0120   25.1400   37.0090 H   0  0  0  0  0  0  0  0  0  0  0  0
   41.1130   23.4970   35.0200 H   0  0  0  0  0  0  0  0  0  0  0  0
   37.5630   27.0890   33.0160 S   0  0  0  0  0  0  0  0  0  0  0  0
   35.7310   25.5900   31.4570 C   0  0  0  0  0  3  0  0  0  0  0  0
   36.8030   25.6280   32.3260 C   0  0  0  0  0  0  0  0  0  0  0  0
   37.4110   24.4610   32.7570 C   0  0  0  0  0  0  0  0  0  0  0  0
   38.2590   24.3900   33.4390 H   0  0  0  0  0  0  0  0  0  0  0  0
   36.9560   23.2190   32.3240 C   0  0  0  0  0  0  0  0  0  0  0  0
   37.3310   21.9260   32.5590 N   0  0  0  0  0  0  0  0  0  0  0  0
   38.1310   21.6650   33.1940 H   0  0  0  0  0  0  0  0  0  0  0  0
   36.5380   21.1300   31.8770 N   0  0  0  0  0  0  0  0  0  0  0  0
   35.6360   21.8570   31.1840 C   0  0  0  0  0  0  0  0  0  0  0  0
   34.8680   21.4440   30.5410 H   0  0  0  0  0  0  0  0  0  0  0  0
   35.8710   23.1860   31.4450 C   0  0  0  0  0  0  0  0  0  0  0  0
   35.2910   24.3500   31.0360 C   0  0  0  0  0  3  0  0  0  0  0  0
  1  2  1  0  0  0  0
  1  3  1  0  0  0  0
  1  4  1  0  0  0  0
  4  9  1  0  0  0  0
  4  6  1  0  0  0  0
  5  4  1  0  0  0  0
  7 13  1  0  0  0  0
  8  7  1  0  0  0  0
  8 14  1  0  0  0  0
  9  8  2  0  0  0  0
 10 11  2  0  0  0  0
 10  9  1  0  0  0  0
 11 12  1  0  0  0  0
 12  7  2  0  0  0  0
 15 11  1  0  0  0  0
 16  1  1  0  0  0  0
 17 18  1  0  0  0  0
 18 19  2  0  0  0  0
 18 16  1  0  0  0  0
 19 20  1  0  0  0  0
 21 22  1  0  0  0  0
 21 19  1  0  0  0  0
 22 23  1  0  0  0  0
 24 22  1  0  0  0  0
 25 27  1  0  0  0  0
 25 24  2  0  0  0  0
 26 25  1  0  0  0  0
 27 21  2  0  0  0  0
 28 27  1  0  0  0  0
 28 17  2  0  0  0  0
M  END
>  <minimizedAffinity>
-4.59838581

$$$$

 OpenBabel03272509263D

 28 30  0  0  0  0  0  0  0  0999 V2000
   39.6190   26.9750   31.6670 C   0  0  0  0  0  0  0  0  0  0  0  0
   40.0530   27.7600   30.9800 H   0  0  0  0  0  0  0  0  0  0  0  0
   39.7600   26.0370   31.1400 H   0  0  0  0  0  0  0  0  0  0  0  0
   38.1980   27.4080   31.8900 C   0  0  0  0  0  0  0  0  0  0  0  0
   38.1560   27.7630   32.9580 H   0  0  0  0  0  0  0  0  0  0  0  0
   37.9500   28.2490   31.1930 H   0  0  0  0  0  0  0  0  0  0  0  0
   36.6040   23.9870   31.6310 C   0  0  0  0  0  0  0  0  0  0  0  0
   37.5580   24.9700   31.8850 C   0  0  0  0  0  0  0  0  0  0  0  0
   37.2670   26.2940   31.6570 C   0  0  0  0  0  0  0  0  0  0  0  0
   36.0170   26.5560   31.1790 N   0  0  0  0  0  0  0  0  0  0  0  0
   35.1070   25.6100   30.9370 C   0  0  0  0  0  0  0  0  0  0  0  0
   35.3910   24.3200   31.1600 N   0  0  0  0  0  0  0  0  0  0  0  0
   36.9120   22.9640   31.8380 H   0  0  0  0  0  0  0  0  0  0  0  0
   38.5150   24.7060   32.2570 H   0  0  0  0  0  0  0  0  0  0  0  0
   34.1190   25.8320   30.5580 H   0  0  0  0  0  0  0  0  0  0  0  0
   40.5810   27.1370   33.1990 S   0  0  0  0  0  0  0  0  0  0  0  0
   38.8370   27.2210   35.4320 C   0  0  0  0  0  3  0  0  0  0  0  0
   39.6440   26.4970   34.5780 C   0  0  0  0  0  0  0  0  0  0  0  0
   39.7980   25.1290   34.7330 C   0  0  0  0  0  0  0  0  0  0  0  0
   40.4110   24.4760   34.1110 H   0  0  0  0  0  0  0  0  0  0  0  0
   39.1430   24.4500   35.7560 C   0  0  0  0  0  0  0  0  0  0  0  0
   39.0920   23.1460   36.1600 N   0  0  0  0  0  0  0  0  0  0  0  0
   39.6220   22.3720   35.6780 H   0  0  0  0  0  0  0  0  0  0  0  0
   38.3000   23.0630   37.2060 N   0  0  0  0  0  0  0  0  0  0  0  0
   37.8140   24.2830   37.5160 C   0  0  0  0  0  0  0  0  0  0  0  0
   37.1370   24.4910   38.3370 H   0  0  0  0  0  0  0  0  0  0  0  0
   38.3290   25.1870   36.6170 C   0  0  0  0  0  0  0  0  0  0  0  0
   38.1930   26.5320   36.4420 C   0  0  0  0  0  3  0  0  0  0  0  0
  1  4  1  0  0  0  0
  1 16  1  0  0  0  0
  2  1  1  0  0  0  0
  3  1  1  0  0  0  0
  4  5  1  0  0  0  0
  6  4  1  0  0  0  0
  7 13  1  0  0  0  0
  7  8  1  0  0  0  0
  8 14  1  0  0  0  0
  9  8  2  0  0  0  0
  9  4  1  0  0  0  0
 10  9  1  0  0  0  0
 11 12  1  0  0  0  0
 11 10  2  0  0  0  0
 12  7  2  0  0  0  0
 15 11  1  0  0  0  0
 16 18  1  0  0  0  0
 17 28  1  0  0  0  0
 18 19  1  0  0  0  0
 18 17  2  0  0  0  0
 19 21  2  0  0  0  0
 20 19  1  0  0  0  0
 21 22  1  0  0  0  0
 21 27  1  0  0  0  0
 22 24  1  0  0  0  0
 23 22  1  0  0  0  0
 24 25  2  0  0  0  0
 25 26  1  0  0  0  0
 27 25  1  0  0  0  0
 28 27  2  0  0  0  0
M  END
>  <minimizedAffinity>
-4.59667253

$$$$

 OpenBabel03272509263D

 28 30  0  0  0  0  0  0  0  0999 V2000
   37.7100   25.9160   35.6130 C   0  0  0  0  0  0  0  0  0  0  0  0
   37.8460   25.4360   34.5990 H   0  0  0  0  0  0  0  0  0  0  0  0
   36.7120   26.3410   35.5870 H   0  0  0  0  0  0  0  0  0  0  0  0
   38.8470   26.8920   35.7260 C   0  0  0  0  0  0  0  0  0  0  0  0
   38.3740   27.8740   36.0080 H   0  0  0  0  0  0  0  0  0  0  0  0
   39.5490   26.5560   36.5310 H   0  0  0  0  0  0  0  0  0  0  0  0
   41.5470   27.1110   33.0850 C   0  0  0  0  0  0  0  0  0  0  0  0
   40.9490   27.0110   34.3400 C   0  0  0  0  0  0  0  0  0  0  0  0
   39.5800   26.9930   34.4550 C   0  0  0  0  0  0  0  0  0  0  0  0
   38.8810   27.0790   33.2870 N   0  0  0  0  0  0  0  0  0  0  0  0
   39.4600   27.1740   32.0880 C   0  0  0  0  0  0  0  0  0  0  0  0
   40.7940   27.1920   31.9760 N   0  0  0  0  0  0  0  0  0  0  0  0
   42.6350   27.1180   33.0790 H   0  0  0  0  0  0  0  0  0  0  0  0
   41.5440   26.9470   35.2140 H   0  0  0  0  0  0  0  0  0  0  0  0
   38.8930   27.2410   31.1690 H   0  0  0  0  0  0  0  0  0  0  0  0
   37.9240   24.5500   36.7910 S   0  0  0  0  0  0  0  0  0  0  0  0
   39.8900   23.4770   35.0530 C   0  0  0  0  0  3  0  0  0  0  0  0
   39.3160   23.5410   36.3070 C   0  0  0  0  0  0  0  0  0  0  0  0
   39.8080   22.7810   37.3540 C   0  0  0  0  0  0  0  0  0  0  0  0
   39.4230   22.7640   38.3740 H   0  0  0  0  0  0  0  0  0  0  0  0
   40.8950   21.9310   37.1690 C   0  0  0  0  0  0  0  0  0  0  0  0
   41.5910   21.0770   37.9760 N   0  0  0  0  0  0  0  0  0  0  0  0
   41.3620   20.9310   38.9940 H   0  0  0  0  0  0  0  0  0  0  0  0
   42.5440   20.5140   37.2660 N   0  0  0  0  0  0  0  0  0  0  0  0
   42.5050   20.9690   35.9950 C   0  0  0  0  0  0  0  0  0  0  0  0
   43.1820   20.6640   35.2060 H   0  0  0  0  0  0  0  0  0  0  0  0
   41.4710   21.8690   35.8980 C   0  0  0  0  0  0  0  0  0  0  0  0
   40.9670   22.6290   34.8840 C   0  0  0  0  0  3  0  0  0  0  0  0
  1  4  1  0  0  0  0
  1 16  1  0  0  0  0
  2  1  1  0  0  0  0
  3  1  1  0  0  0  0
  4  5  1  0  0  0  0
  4  6  1  0  0  0  0
  7  8  1  0  0  0  0
  8  9  2  0  0  0  0
  8 14  1  0  0  0  0
  9  4  1  0  0  0  0
 10  9  1  0  0  0  0
 11 10  2  0  0  0  0
 12 11  1  0  0  0  0
 12  7  2  0  0  0  0
 13  7  1  0  0  0  0
 15 11  1  0  0  0  0
 17 18  1  0  0  0  0
 18 16  1  0  0  0  0
 18 19  2  0  0  0  0
 19 20  1  0  0  0  0
 21 19  1  0  0  0  0
 21 22  1  0  0  0  0
 22 23  1  0  0  0  0
 24 22  1  0  0  0  0
 25 24  2  0  0  0  0
 26 25  1  0  0  0  0
 27 25  1  0  0  0  0
 27 21  2  0  0  0  0
 28 17  2  0  0  0  0
 28 27  1  0  0  0  0
M  END
>  <minimizedAffinity>
-4.57006216

$$$$

 OpenBabel03272509263D

 28 30  0  0  0  0  0  0  0  0999 V2000
   37.1090   23.6280   31.0730 C   0  0  0  0  0  0  0  0  0  0  0  0
   36.9950   24.7490   30.9840 H   0  0  0  0  0  0  0  0  0  0  0  0
   37.1770   23.2730   30.0510 H   0  0  0  0  0  0  0  0  0  0  0  0
   35.9040   23.1860   31.8550 C   0  0  0  0  0  0  0  0  0  0  0  0
   36.0110   23.6660   32.8680 H   0  0  0  0  0  0  0  0  0  0  0  0
   34.9750   23.5520   31.3490 H   0  0  0  0  0  0  0  0  0  0  0  0
   35.5620   19.6320   33.1050 C   0  0  0  0  0  0  0  0  0  0  0  0
   35.5830   21.0250   33.1130 C   0  0  0  0  0  0  0  0  0  0  0  0
   35.8560   21.7190   31.9580 C   0  0  0  0  0  0  0  0  0  0  0  0
   36.0940   20.9630   30.8490 N   0  0  0  0  0  0  0  0  0  0  0  0
   36.0720   19.6290   30.8480 C   0  0  0  0  0  0  0  0  0  0  0  0
   35.8070   18.9520   31.9730 N   0  0  0  0  0  0  0  0  0  0  0  0
   35.3390   19.1570   34.0590 H   0  0  0  0  0  0  0  0  0  0  0  0
   35.3900   21.5600   34.0070 H   0  0  0  0  0  0  0  0  0  0  0  0
   36.2630   19.0420   29.9610 H   0  0  0  0  0  0  0  0  0  0  0  0
   38.6210   23.4080   32.0570 S   0  0  0  0  0  0  0  0  0  0  0  0
   37.9460   25.2400   34.1120 C   0  0  0  0  0  3  0  0  0  0  0  0
   38.3490   23.9770   33.7270 C   0  0  0  0  0  0  0  0  0  0  0  0
   38.5890   22.9890   34.6680 C   0  0  0  0  0  0  0  0  0  0  0  0
   38.9090   21.9680   34.4620 H   0  0  0  0  0  0  0  0  0  0  0  0
   38.4290   23.2460   36.0270 C   0  0  0  0  0  0  0  0  0  0  0  0
   38.5820   22.5070   37.1650 N   0  0  0  0  0  0  0  0  0  0  0  0
   38.8870   21.4980   37.1610 H   0  0  0  0  0  0  0  0  0  0  0  0
   38.2910   23.2660   38.1990 N   0  0  0  0  0  0  0  0  0  0  0  0
   37.9440   24.5020   37.7820 C   0  0  0  0  0  0  0  0  0  0  0  0
   37.6590   25.3190   38.4340 H   0  0  0  0  0  0  0  0  0  0  0  0
   38.0210   24.5250   36.4100 C   0  0  0  0  0  0  0  0  0  0  0  0
   37.7910   25.4790   35.4640 C   0  0  0  0  0  3  0  0  0  0  0  0
  1  4  1  0  0  0  0
  1 16  1  0  0  0  0
  2  1  1  0  0  0  0
  3  1  1  0  0  0  0
  4  9  1  0  0  0  0
  4  5  1  0  0  0  0
  6  4  1  0  0  0  0
  7  8  1  0  0  0  0
  7 13  1  0  0  0  0
  8 14  1  0  0  0  0
  9  8  2  0  0  0  0
 10  9  1  0  0  0  0
 11 10  2  0  0  0  0
 11 12  1  0  0  0  0
 12  7  2  0  0  0  0
 15 11  1  0  0  0  0
 16 18  1  0  0  0  0
 17 28  1  0  0  0  0
 18 17  2  0  0  0  0
 18 19  1  0  0  0  0
 19 21  2  0  0  0  0
 20 19  1  0  0  0  0
 21 27  1  0  0  0  0
 21 22  1  0  0  0  0
 22 24  1  0  0  0  0
 23 22  1  0  0  0  0
 25 24  2  0  0  0  0
 25 26  1  0  0  0  0
 27 25  1  0  0  0  0
 28 27  2  0  0  0  0
M  END
>  <minimizedAffinity>
-4.55101347

$$$$

 OpenBabel03272509263D

 28 30  0  0  0  0  0  0  0  0999 V2000
   35.4300   28.9590   32.9320 C   0  0  0  0  0  0  0  0  0  0  0  0
   34.8450   28.9430   31.9650 H   0  0  0  0  0  0  0  0  0  0  0  0
   34.7920   28.4570   33.6510 H   0  0  0  0  0  0  0  0  0  0  0  0
   35.7030   30.4160   33.1840 C   0  0  0  0  0  0  0  0  0  0  0  0
   36.8250   30.5150   33.1840 H   0  0  0  0  0  0  0  0  0  0  0  0
   35.2600   31.0280   32.3580 H   0  0  0  0  0  0  0  0  0  0  0  0
   35.1700   31.8880   36.6280 C   0  0  0  0  0  0  0  0  0  0  0  0
   35.8090   31.5300   35.4430 C   0  0  0  0  0  0  0  0  0  0  0  0
   35.1260   30.8420   34.4680 C   0  0  0  0  0  0  0  0  0  0  0  0
   33.8230   30.5500   34.7460 N   0  0  0  0  0  0  0  0  0  0  0  0
   33.2170   30.8970   35.8830 C   0  0  0  0  0  0  0  0  0  0  0  0
   33.8820   31.5660   36.8330 N   0  0  0  0  0  0  0  0  0  0  0  0
   35.7800   32.4300   37.3490 H   0  0  0  0  0  0  0  0  0  0  0  0
   36.8260   31.7840   35.2830 H   0  0  0  0  0  0  0  0  0  0  0  0
   32.1820   30.6590   36.0890 H   0  0  0  0  0  0  0  0  0  0  0  0
   36.9720   28.0820   32.5400 S   0  0  0  0  0  0  0  0  0  0  0  0
   37.8360   27.6110   35.1990 C   0  0  0  0  0  3  0  0  0  0  0  0
   37.5030   27.1240   33.9500 C   0  0  0  0  0  0  0  0  0  0  0  0
   37.5570   25.7670   33.6780 C   0  0  0  0  0  0  0  0  0  0  0  0
   37.3150   25.2910   32.7280 H   0  0  0  0  0  0  0  0  0  0  0  0
   37.9500   24.8600   34.6580 C   0  0  0  0  0  0  0  0  0  0  0  0
   38.1020   23.5030   34.7000 N   0  0  0  0  0  0  0  0  0  0  0  0
   37.9130   22.8760   33.8740 H   0  0  0  0  0  0  0  0  0  0  0  0
   38.5060   23.1640   35.9050 N   0  0  0  0  0  0  0  0  0  0  0  0
   38.6300   24.2650   36.6770 C   0  0  0  0  0  0  0  0  0  0  0  0
   38.9480   24.2630   37.7130 H   0  0  0  0  0  0  0  0  0  0  0  0
   38.2860   25.3580   35.9180 C   0  0  0  0  0  0  0  0  0  0  0  0
   38.2230   26.6980   36.1600 C   0  0  0  0  0  3  0  0  0  0  0  0
  1  4  1  0  0  0  0
  1  3  1  0  0  0  0
  2  1  1  0  0  0  0
  4  5  1  0  0  0  0
  4  9  1  0  0  0  0
  6  4  1  0  0  0  0
  7 12  1  0  0  0  0
  7 13  1  0  0  0  0
  8  7  2  0  0  0  0
  9 10  2  0  0  0  0
  9  8  1  0  0  0  0
 10 11  1  0  0  0  0
 11 15  1  0  0  0  0
 11 12  2  0  0  0  0
 14  8  1  0  0  0  0
 16  1  1  0  0  0  0
 16 18  1  0  0  0  0
 17 28  1  0  0  0  0
 18 17  2  0  0  0  0
 19 18  1  0  0  0  0
 19 21  2  0  0  0  0
 20 19  1  0  0  0  0
 21 22  1  0  0  0  0
 21 27  1  0  0  0  0
 22 24  1  0  0  0  0
 23 22  1  0  0  0  0
 24 25  2  0  0  0  0
 25 26  1  0  0  0  0
 27 28  2  0  0  0  0
 27 25  1  0  0  0  0
M  END
>  <minimizedAffinity>
-4.50282526

$$$$

 OpenBabel03272509263D

 28 30  0  0  0  0  0  0  0  0999 V2000
   37.7730   24.9380   35.9380 C   0  0  0  0  0  0  0  0  0  0  0  0
   36.6640   24.9920   36.1510 H   0  0  0  0  0  0  0  0  0  0  0  0
   37.8500   24.3910   35.0050 H   0  0  0  0  0  0  0  0  0  0  0  0
   38.3600   24.2750   37.1520 C   0  0  0  0  0  0  0  0  0  0  0  0
   38.7410   25.1150   37.7980 H   0  0  0  0  0  0  0  0  0  0  0  0
   37.5610   23.7040   37.6890 H   0  0  0  0  0  0  0  0  0  0  0  0
   40.9060   22.2380   35.2320 C   0  0  0  0  0  0  0  0  0  0  0  0
   39.8690   23.1340   35.4850 C   0  0  0  0  0  0  0  0  0  0  0  0
   39.4440   23.3540   36.7730 C   0  0  0  0  0  0  0  0  0  0  0  0
   40.0940   22.6520   37.7450 N   0  0  0  0  0  0  0  0  0  0  0  0
   41.0860   21.7960   37.4960 C   0  0  0  0  0  0  0  0  0  0  0  0
   41.5010   21.5810   36.2410 N   0  0  0  0  0  0  0  0  0  0  0  0
   41.1840   22.1200   34.1860 H   0  0  0  0  0  0  0  0  0  0  0  0
   39.4000   23.6520   34.6880 H   0  0  0  0  0  0  0  0  0  0  0  0
   41.5940   21.2460   38.2770 H   0  0  0  0  0  0  0  0  0  0  0  0
   38.2980   26.6750   35.8460 S   0  0  0  0  0  0  0  0  0  0  0  0
   36.4250   28.3390   34.5180 C   0  0  0  0  0  3  0  0  0  0  0  0
   37.5040   27.4780   34.4630 C   0  0  0  0  0  0  0  0  0  0  0  0
   38.0920   27.1520   33.2520 C   0  0  0  0  0  0  0  0  0  0  0  0
   38.9420   26.4850   33.1090 H   0  0  0  0  0  0  0  0  0  0  0  0
   37.6090   27.6830   32.0590 C   0  0  0  0  0  0  0  0  0  0  0  0
   37.9600   27.5590   30.7450 N   0  0  0  0  0  0  0  0  0  0  0  0
   38.7590   26.9560   30.4160 H   0  0  0  0  0  0  0  0  0  0  0  0
   37.1470   28.3000   30.0230 N   0  0  0  0  0  0  0  0  0  0  0  0
   36.2540   28.9210   30.8240 C   0  0  0  0  0  0  0  0  0  0  0  0
   35.4740   29.5900   30.4800 H   0  0  0  0  0  0  0  0  0  0  0  0
   36.5180   28.5530   32.1220 C   0  0  0  0  0  0  0  0  0  0  0  0
   35.9580   28.8580   33.3260 C   0  0  0  0  0  3  0  0  0  0  0  0
  1  2  1  0  0  0  0
  1  4  1  0  0  0  0
  3  1  1  0  0  0  0
  4  6  1  0  0  0  0
  4  5  1  0  0  0  0
  7  8  2  0  0  0  0
  7 12  1  0  0  0  0
  8  9  1  0  0  0  0
  9  4  1  0  0  0  0
  9 10  2  0  0  0  0
 11 10  1  0  0  0  0
 11 15  1  0  0  0  0
 12 11  2  0  0  0  0
 13  7  1  0  0  0  0
 14  8  1  0  0  0  0
 16  1  1  0  0  0  0
 18 17  1  0  0  0  0
 18 16  1  0  0  0  0
 19 18  2  0  0  0  0
 20 19  1  0  0  0  0
 21 27  2  0  0  0  0
 21 19  1  0  0  0  0
 22 21  1  0  0  0  0
 23 22  1  0  0  0  0
 24 22  1  0  0  0  0
 24 25  2  0  0  0  0
 25 27  1  0  0  0  0
 26 25  1  0  0  0  0
 27 28  1  0  0  0  0
 28 17  2  0  0  0  0
M  END
>  <minimizedAffinity>
-4.49535942

$$$$
