
 OpenBabel03272507453D

 36 39  0  0  0  0  0  0  0  0999 V2000
   39.1450   24.8340   34.7190 N   0  0  0  0  0  0  0  0  0  0  0  0
   39.9040   25.9890   34.3320 C   0  0  0  0  0  0  0  0  0  0  0  0
   39.2110   27.0870   33.6500 C   0  0  0  0  0  0  0  0  0  0  0  0
   38.0160   26.7430   32.8410 C   0  0  0  0  0  0  0  0  0  0  0  0
   37.2960   25.5230   33.3190 C   0  0  0  0  0  0  0  0  0  0  0  0
   38.3480   24.4210   33.5800 C   0  0  0  0  0  0  0  0  0  0  0  0
   40.7480   25.6170   33.7070 H   0  0  0  0  0  0  0  0  0  0  0  0
   40.3900   26.3890   35.2600 H   0  0  0  0  0  0  0  0  0  0  0  0
   39.9510   27.5980   32.9760 H   0  0  0  0  0  0  0  0  0  0  0  0
   38.9140   27.8730   34.3950 H   0  0  0  0  0  0  0  0  0  0  0  0
   38.3500   26.5430   31.7800 H   0  0  0  0  0  0  0  0  0  0  0  0
   36.6030   25.1130   32.5870 H   0  0  0  0  0  0  0  0  0  0  0  0
   36.8470   25.7250   34.3090 H   0  0  0  0  0  0  0  0  0  0  0  0
   38.9710   24.2420   32.6920 H   0  0  0  0  0  0  0  0  0  0  0  0
   37.7750   23.4950   33.7490 H   0  0  0  0  0  0  0  0  0  0  0  0
   36.3890   28.3090   33.9460 C   0  0  0  0  0  3  0  0  0  0  0  0
   37.0730   27.8920   32.8130 C   0  0  0  0  0  0  0  0  0  0  0  0
   36.8400   28.5960   31.6390 C   0  0  0  0  0  0  0  0  0  0  0  0
   37.3580   28.2950   30.7410 H   0  0  0  0  0  0  0  0  0  0  0  0
   35.9740   29.6680   31.5670 C   0  0  0  0  0  0  0  0  0  0  0  0
   35.6330   30.4550   30.5260 N   0  0  0  0  0  0  0  0  0  0  0  0
   35.9590   30.4250   29.5180 H   0  0  0  0  0  0  0  0  0  0  0  0
   34.7660   31.3490   30.9480 N   0  0  0  0  0  0  0  0  0  0  0  0
   34.5370   31.1490   32.2690 C   0  0  0  0  0  0  0  0  0  0  0  0
   33.8880   31.6810   32.9620 H   0  0  0  0  0  0  0  0  0  0  0  0
   35.3010   30.0750   32.6900 C   0  0  0  0  0  0  0  0  0  0  0  0
   35.5350   29.3690   33.8650 C   0  0  0  0  0  3  0  0  0  0  0  0
   39.1640   24.2010   35.9860 C   0  0  0  0  0  0  0  0  0  0  0  0
   40.1070   23.2500   36.3890 C   0  0  0  0  0  0  0  0  0  0  0  0
   39.9950   22.7130   37.6730 C   0  0  0  0  0  0  0  0  0  0  0  0
   38.9730   23.1430   38.4690 N   0  0  0  0  0  0  0  0  0  0  0  0
   38.0860   24.0620   38.0400 C   0  0  0  0  0  0  0  0  0  0  0  0
   38.1790   24.5900   36.8050 N   0  0  0  0  0  0  0  0  0  0  0  0
   40.8480   23.0150   35.6540 H   0  0  0  0  0  0  0  0  0  0  0  0
   40.7310   21.9900   37.9440 H   0  0  0  0  0  0  0  0  0  0  0  0
   37.3250   24.3170   38.7660 H   0  0  0  0  0  0  0  0  0  0  0  0
  1 28  1  0  0  0  0
  2  1  1  0  0  0  0
  2  8  1  0  0  0  0
  3  2  1  0  0  0  0
  3 10  1  0  0  0  0
  4  5  1  0  0  0  0
  4  3  1  0  0  0  0
  5  6  1  0  0  0  0
  5 13  1  0  0  0  0
  6 15  1  0  0  0  0
  6  1  1  0  0  0  0
  7  2  1  0  0  0  0
  9  3  1  0  0  0  0
 11  4  1  0  0  0  0
 12  5  1  0  0  0  0
 14  6  1  0  0  0  0
 17  4  1  0  0  0  0
 17 16  2  0  0  0  0
 18 17  1  0  0  0  0
 19 18  1  0  0  0  0
 20 18  2  0  0  0  0
 20 26  1  0  0  0  0
 21 23  1  0  0  0  0
 21 20  1  0  0  0  0
 22 21  1  0  0  0  0
 23 24  2  0  0  0  0
 24 26  1  0  0  0  0
 24 25  1  0  0  0  0
 26 27  2  0  0  0  0
 27 16  1  0  0  0  0
 28 29  2  0  0  0  0
 28 33  1  0  0  0  0
 29 30  1  0  0  0  0
 30 35  1  0  0  0  0
 30 31  2  0  0  0  0
 32 31  1  0  0  0  0
 32 36  1  0  0  0  0
 33 32  2  0  0  0  0
 34 29  1  0  0  0  0
M  END
>  <minimizedAffinity>
-5.70341015

$$$$

 OpenBabel03272507453D

 36 39  0  0  0  0  0  0  0  0999 V2000
   36.9830   26.4400   32.4730 N   0  0  0  0  0  0  0  0  0  0  0  0
   37.6760   26.9500   33.6220 C   0  0  0  0  0  0  0  0  0  0  0  0
   37.1200   28.1160   34.3160 C   0  0  0  0  0  0  0  0  0  0  0  0
   36.3220   29.0730   33.5110 C   0  0  0  0  0  0  0  0  0  0  0  0
   35.6430   28.4510   32.3330 C   0  0  0  0  0  0  0  0  0  0  0  0
   36.6760   27.5610   31.6040 C   0  0  0  0  0  0  0  0  0  0  0  0
   38.7220   27.1560   33.2950 H   0  0  0  0  0  0  0  0  0  0  0  0
   37.7660   26.1040   34.3520 H   0  0  0  0  0  0  0  0  0  0  0  0
   37.9730   28.6820   34.7800 H   0  0  0  0  0  0  0  0  0  0  0  0
   36.4930   27.7810   35.1850 H   0  0  0  0  0  0  0  0  0  0  0  0
   37.0150   29.8720   33.1160 H   0  0  0  0  0  0  0  0  0  0  0  0
   35.2950   29.1740   31.6000 H   0  0  0  0  0  0  0  0  0  0  0  0
   34.8650   27.7480   32.6870 H   0  0  0  0  0  0  0  0  0  0  0  0
   37.5790   28.1290   31.3400 H   0  0  0  0  0  0  0  0  0  0  0  0
   36.2020   27.2710   30.6530 H   0  0  0  0  0  0  0  0  0  0  0  0
   33.9520   29.4550   34.2590 C   0  0  0  0  0  3  0  0  0  0  0  0
   35.3060   29.7360   34.3710 C   0  0  0  0  0  0  0  0  0  0  0  0
   35.6810   30.6720   35.3260 C   0  0  0  0  0  0  0  0  0  0  0  0
   36.7270   30.9110   35.4360 H   0  0  0  0  0  0  0  0  0  0  0  0
   34.7730   31.3120   36.1450 C   0  0  0  0  0  0  0  0  0  0  0  0
   34.9580   32.2330   37.1130 N   0  0  0  0  0  0  0  0  0  0  0  0
   35.8540   32.6770   37.4640 H   0  0  0  0  0  0  0  0  0  0  0  0
   33.7850   32.5470   37.6160 N   0  0  0  0  0  0  0  0  0  0  0  0
   32.8270   31.8300   36.9800 C   0  0  0  0  0  0  0  0  0  0  0  0
   31.7470   31.8150   37.1160 H   0  0  0  0  0  0  0  0  0  0  0  0
   33.4360   31.0290   36.0290 C   0  0  0  0  0  0  0  0  0  0  0  0
   33.0630   30.0920   35.0730 C   0  0  0  0  0  3  0  0  0  0  0  0
   36.6540   25.0860   32.2200 C   0  0  0  0  0  0  0  0  0  0  0  0
   35.6260   24.6590   31.3740 C   0  0  0  0  0  0  0  0  0  0  0  0
   35.4210   23.2860   31.2250 C   0  0  0  0  0  0  0  0  0  0  0  0
   36.2340   22.4320   31.9120 N   0  0  0  0  0  0  0  0  0  0  0  0
   37.2140   22.8870   32.7170 C   0  0  0  0  0  0  0  0  0  0  0  0
   37.4250   24.2080   32.8730 N   0  0  0  0  0  0  0  0  0  0  0  0
   35.0750   25.4470   30.9060 H   0  0  0  0  0  0  0  0  0  0  0  0
   34.6280   22.9990   30.5740 H   0  0  0  0  0  0  0  0  0  0  0  0
   37.7870   22.1080   33.2040 H   0  0  0  0  0  0  0  0  0  0  0  0
  1  2  1  0  0  0  0
  2  3  1  0  0  0  0
  2  8  1  0  0  0  0
  3  9  1  0  0  0  0
  3 10  1  0  0  0  0
  4  3  1  0  0  0  0
  4 17  1  0  0  0  0
  5 13  1  0  0  0  0
  5  4  1  0  0  0  0
  6  5  1  0  0  0  0
  6  1  1  0  0  0  0
  7  2  1  0  0  0  0
 11  4  1  0  0  0  0
 12  5  1  0  0  0  0
 14  6  1  0  0  0  0
 15  6  1  0  0  0  0
 16 17  2  0  0  0  0
 16 27  1  0  0  0  0
 17 18  1  0  0  0  0
 18 19  1  0  0  0  0
 18 20  2  0  0  0  0
 20 21  1  0  0  0  0
 21 22  1  0  0  0  0
 21 23  1  0  0  0  0
 24 25  1  0  0  0  0
 24 23  2  0  0  0  0
 26 20  1  0  0  0  0
 26 24  1  0  0  0  0
 27 26  2  0  0  0  0
 28  1  1  0  0  0  0
 28 33  1  0  0  0  0
 29 28  2  0  0  0  0
 30 29  1  0  0  0  0
 30 31  2  0  0  0  0
 31 32  1  0  0  0  0
 32 33  2  0  0  0  0
 32 36  1  0  0  0  0
 34 29  1  0  0  0  0
 35 30  1  0  0  0  0
M  END
>  <minimizedAffinity>
-5.54036283

$$$$

 OpenBabel03272507453D

 36 39  0  0  0  0  0  0  0  0999 V2000
   39.0930   24.4040   34.5930 N   0  0  0  0  0  0  0  0  0  0  0  0
   40.0340   25.3400   34.0450 C   0  0  0  0  0  0  0  0  0  0  0  0
   39.5540   26.3360   33.0830 C   0  0  0  0  0  0  0  0  0  0  0  0
   38.3790   25.9730   32.2520 C   0  0  0  0  0  0  0  0  0  0  0  0
   37.4610   24.9910   32.9040 C   0  0  0  0  0  0  0  0  0  0  0  0
   38.3240   23.8510   33.4940 C   0  0  0  0  0  0  0  0  0  0  0  0
   40.8570   24.7350   33.5980 H   0  0  0  0  0  0  0  0  0  0  0  0
   40.5080   25.8720   34.9110 H   0  0  0  0  0  0  0  0  0  0  0  0
   40.4030   26.5880   32.3910 H   0  0  0  0  0  0  0  0  0  0  0  0
   39.3230   27.2990   33.6130 H   0  0  0  0  0  0  0  0  0  0  0  0
   38.7520   25.5020   31.2960 H   0  0  0  0  0  0  0  0  0  0  0  0
   36.7680   24.5180   32.2120 H   0  0  0  0  0  0  0  0  0  0  0  0
   36.9800   25.4630   33.7820 H   0  0  0  0  0  0  0  0  0  0  0  0
   38.9740   23.4030   32.7290 H   0  0  0  0  0  0  0  0  0  0  0  0
   37.6140   23.0660   33.7980 H   0  0  0  0  0  0  0  0  0  0  0  0
   38.0580   28.0770   30.9140 C   0  0  0  0  0  3  0  0  0  0  0  0
   37.6150   27.1960   31.8910 C   0  0  0  0  0  0  0  0  0  0  0  0
   36.4180   27.5040   32.5250 C   0  0  0  0  0  0  0  0  0  0  0  0
   36.0490   26.8370   33.2880 H   0  0  0  0  0  0  0  0  0  0  0  0
   35.6780   28.6280   32.2210 C   0  0  0  0  0  0  0  0  0  0  0  0
   34.5100   29.0750   32.7290 N   0  0  0  0  0  0  0  0  0  0  0  0
   33.8950   28.6580   33.4850 H   0  0  0  0  0  0  0  0  0  0  0  0
   34.1960   30.1970   32.1200 N   0  0  0  0  0  0  0  0  0  0  0  0
   35.1570   30.4870   31.2100 C   0  0  0  0  0  0  0  0  0  0  0  0
   35.2480   31.3240   30.5200 H   0  0  0  0  0  0  0  0  0  0  0  0
   36.1200   29.4940   31.2560 C   0  0  0  0  0  0  0  0  0  0  0  0
   37.3180   29.1850   30.6220 C   0  0  0  0  0  3  0  0  0  0  0  0
   38.9350   24.0720   35.9600 C   0  0  0  0  0  0  0  0  0  0  0  0
   37.9200   24.5630   36.7890 C   0  0  0  0  0  0  0  0  0  0  0  0
   37.8950   24.1430   38.1200 C   0  0  0  0  0  0  0  0  0  0  0  0
   38.8590   23.2750   38.5440 N   0  0  0  0  0  0  0  0  0  0  0  0
   39.8180   22.8270   37.7110 C   0  0  0  0  0  0  0  0  0  0  0  0
   39.8580   23.2220   36.4240 N   0  0  0  0  0  0  0  0  0  0  0  0
   37.2390   25.2350   36.3120 H   0  0  0  0  0  0  0  0  0  0  0  0
   37.1090   24.5390   38.7210 H   0  0  0  0  0  0  0  0  0  0  0  0
   40.5220   22.1440   38.1700 H   0  0  0  0  0  0  0  0  0  0  0  0
  1 28  1  0  0  0  0
  2  1  1  0  0  0  0
  2  8  1  0  0  0  0
  3 10  1  0  0  0  0
  3  2  1  0  0  0  0
  4  5  1  0  0  0  0
  4  3  1  0  0  0  0
  5  6  1  0  0  0  0
  5 13  1  0  0  0  0
  6 15  1  0  0  0  0
  6  1  1  0  0  0  0
  7  2  1  0  0  0  0
  9  3  1  0  0  0  0
 11  4  1  0  0  0  0
 12  5  1  0  0  0  0
 14  6  1  0  0  0  0
 16 17  1  0  0  0  0
 17  4  1  0  0  0  0
 17 18  2  0  0  0  0
 18 19  1  0  0  0  0
 20 18  1  0  0  0  0
 20 21  1  0  0  0  0
 21 22  1  0  0  0  0
 23 21  1  0  0  0  0
 24 26  1  0  0  0  0
 24 23  2  0  0  0  0
 25 24  1  0  0  0  0
 26 20  2  0  0  0  0
 27 16  2  0  0  0  0
 27 26  1  0  0  0  0
 28 33  2  0  0  0  0
 28 29  1  0  0  0  0
 29 30  2  0  0  0  0
 30 31  1  0  0  0  0
 30 35  1  0  0  0  0
 32 36  1  0  0  0  0
 32 31  2  0  0  0  0
 33 32  1  0  0  0  0
 34 29  1  0  0  0  0
M  END
>  <minimizedAffinity>
-5.40898752

$$$$

 OpenBabel03272507453D

 36 39  0  0  0  0  0  0  0  0999 V2000
   36.8890   27.5930   31.6710 N   0  0  0  0  0  0  0  0  0  0  0  0
   36.4920   26.2160   31.5870 C   0  0  0  0  0  0  0  0  0  0  0  0
   37.0790   25.2590   32.5310 C   0  0  0  0  0  0  0  0  0  0  0  0
   38.4370   25.5560   33.0490 C   0  0  0  0  0  0  0  0  0  0  0  0
   38.7600   27.0140   33.0930 C   0  0  0  0  0  0  0  0  0  0  0  0
   38.3370   27.6360   31.7420 C   0  0  0  0  0  0  0  0  0  0  0  0
   36.6870   25.8940   30.5380 H   0  0  0  0  0  0  0  0  0  0  0  0
   35.3760   26.1900   31.6930 H   0  0  0  0  0  0  0  0  0  0  0  0
   37.1110   24.2530   32.0290 H   0  0  0  0  0  0  0  0  0  0  0  0
   36.3930   25.1180   33.4090 H   0  0  0  0  0  0  0  0  0  0  0  0
   39.1930   25.0630   32.3690 H   0  0  0  0  0  0  0  0  0  0  0  0
   39.8230   27.2210   33.2020 H   0  0  0  0  0  0  0  0  0  0  0  0
   38.1180   27.5110   33.8450 H   0  0  0  0  0  0  0  0  0  0  0  0
   38.8010   27.1090   30.8950 H   0  0  0  0  0  0  0  0  0  0  0  0
   38.7540   28.6560   31.7390 H   0  0  0  0  0  0  0  0  0  0  0  0
   37.8480   25.4090   35.4880 C   0  0  0  0  0  3  0  0  0  0  0  0
   38.6010   24.9740   34.4080 C   0  0  0  0  0  0  0  0  0  0  0  0
   39.5240   23.9640   34.6460 C   0  0  0  0  0  0  0  0  0  0  0  0
   40.1240   23.6050   33.8240 H   0  0  0  0  0  0  0  0  0  0  0  0
   39.7090   23.3960   35.8890 C   0  0  0  0  0  0  0  0  0  0  0  0
   40.5480   22.4200   36.2940 N   0  0  0  0  0  0  0  0  0  0  0  0
   41.2610   21.8660   35.7400 H   0  0  0  0  0  0  0  0  0  0  0  0
   40.3600   22.2200   37.5800 N   0  0  0  0  0  0  0  0  0  0  0  0
   39.3960   23.0640   38.0210 C   0  0  0  0  0  0  0  0  0  0  0  0
   38.9700   23.1940   39.0140 H   0  0  0  0  0  0  0  0  0  0  0  0
   38.9620   23.8310   36.9540 C   0  0  0  0  0  0  0  0  0  0  0  0
   38.0380   24.8410   36.7140 C   0  0  0  0  0  3  0  0  0  0  0  0
   36.0290   28.7180   31.6810 C   0  0  0  0  0  0  0  0  0  0  0  0
   36.1920   29.8550   30.8830 C   0  0  0  0  0  0  0  0  0  0  0  0
   35.2590   30.8860   31.0060 C   0  0  0  0  0  0  0  0  0  0  0  0
   34.2360   30.7330   31.8960 N   0  0  0  0  0  0  0  0  0  0  0  0
   34.1170   29.6190   32.6450 C   0  0  0  0  0  0  0  0  0  0  0  0
   35.0080   28.6150   32.5410 N   0  0  0  0  0  0  0  0  0  0  0  0
   37.0420   29.8280   30.2340 H   0  0  0  0  0  0  0  0  0  0  0  0
   35.4170   31.7370   30.3820 H   0  0  0  0  0  0  0  0  0  0  0  0
   33.2640   29.6220   33.3120 H   0  0  0  0  0  0  0  0  0  0  0  0
  1 28  1  0  0  0  0
  1  6  1  0  0  0  0
  2  1  1  0  0  0  0
  2  8  1  0  0  0  0
  2  3  1  0  0  0  0
  3  4  1  0  0  0  0
  3 10  1  0  0  0  0
  4  5  1  0  0  0  0
  4 17  1  0  0  0  0
  5 12  1  0  0  0  0
  5 13  1  0  0  0  0
  6  5  1  0  0  0  0
  7  2  1  0  0  0  0
  9  3  1  0  0  0  0
 11  4  1  0  0  0  0
 14  6  1  0  0  0  0
 15  6  1  0  0  0  0
 16 27  1  0  0  0  0
 17 18  1  0  0  0  0
 17 16  2  0  0  0  0
 18 20  2  0  0  0  0
 19 18  1  0  0  0  0
 20 21  1  0  0  0  0
 20 26  1  0  0  0  0
 21 23  1  0  0  0  0
 22 21  1  0  0  0  0
 23 24  2  0  0  0  0
 24 25  1  0  0  0  0
 26 24  1  0  0  0  0
 27 26  2  0  0  0  0
 28 33  1  0  0  0  0
 29 30  1  0  0  0  0
 29 28  2  0  0  0  0
 30 31  2  0  0  0  0
 31 32  1  0  0  0  0
 32 36  1  0  0  0  0
 33 32  2  0  0  0  0
 34 29  1  0  0  0  0
 35 30  1  0  0  0  0
M  END
>  <minimizedAffinity>
-5.23340178

$$$$

 OpenBabel03272507453D

 36 39  0  0  0  0  0  0  0  0999 V2000
   37.2800   25.4090   32.4680 N   0  0  0  0  0  0  0  0  0  0  0  0
   37.6360   26.0140   33.7200 C   0  0  0  0  0  0  0  0  0  0  0  0
   37.0260   27.2980   34.0770 C   0  0  0  0  0  0  0  0  0  0  0  0
   36.6260   28.1960   32.9660 C   0  0  0  0  0  0  0  0  0  0  0  0
   36.2790   27.4750   31.7040 C   0  0  0  0  0  0  0  0  0  0  0  0
   37.3810   26.4250   31.4380 C   0  0  0  0  0  0  0  0  0  0  0  0
   38.7480   26.0980   33.7260 H   0  0  0  0  0  0  0  0  0  0  0  0
   37.4020   25.2660   34.5230 H   0  0  0  0  0  0  0  0  0  0  0  0
   37.7510   27.8570   34.7300 H   0  0  0  0  0  0  0  0  0  0  0  0
   36.1290   27.1270   34.7300 H   0  0  0  0  0  0  0  0  0  0  0  0
   37.4910   28.8840   32.7350 H   0  0  0  0  0  0  0  0  0  0  0  0
   36.2570   28.1200   30.8280 H   0  0  0  0  0  0  0  0  0  0  0  0
   35.3570   26.8840   31.8600 H   0  0  0  0  0  0  0  0  0  0  0  0
   38.3790   26.8860   31.4190 H   0  0  0  0  0  0  0  0  0  0  0  0
   37.1940   26.0470   30.4200 H   0  0  0  0  0  0  0  0  0  0  0  0
   35.5260   29.8470   34.5110 C   0  0  0  0  0  3  0  0  0  0  0  0
   35.4740   29.0390   33.3840 C   0  0  0  0  0  0  0  0  0  0  0  0
   34.2920   29.0460   32.6540 C   0  0  0  0  0  0  0  0  0  0  0  0
   34.2230   28.4280   31.7720 H   0  0  0  0  0  0  0  0  0  0  0  0
   33.2000   29.8120   33.0050 C   0  0  0  0  0  0  0  0  0  0  0  0
   31.9910   29.9400   32.4200 N   0  0  0  0  0  0  0  0  0  0  0  0
   31.6070   29.4750   31.5490 H   0  0  0  0  0  0  0  0  0  0  0  0
   31.2770   30.7900   33.1250 N   0  0  0  0  0  0  0  0  0  0  0  0
   32.0180   31.2220   34.1740 C   0  0  0  0  0  0  0  0  0  0  0  0
   31.7740   31.9230   34.9710 H   0  0  0  0  0  0  0  0  0  0  0  0
   33.2570   30.6080   34.1200 C   0  0  0  0  0  0  0  0  0  0  0  0
   34.4410   30.6000   34.8500 C   0  0  0  0  0  3  0  0  0  0  0  0
   36.8970   24.0610   32.2630 C   0  0  0  0  0  0  0  0  0  0  0  0
   35.9580   23.6330   31.3190 C   0  0  0  0  0  0  0  0  0  0  0  0
   35.6840   22.2660   31.2340 C   0  0  0  0  0  0  0  0  0  0  0  0
   36.3460   21.4190   32.0750 N   0  0  0  0  0  0  0  0  0  0  0  0
   37.2430   21.8750   32.9700 C   0  0  0  0  0  0  0  0  0  0  0  0
   37.5200   23.1900   33.0660 N   0  0  0  0  0  0  0  0  0  0  0  0
   35.5240   24.4150   30.7320 H   0  0  0  0  0  0  0  0  0  0  0  0
   34.9630   21.9780   30.5040 H   0  0  0  0  0  0  0  0  0  0  0  0
   37.6970   21.1020   33.5770 H   0  0  0  0  0  0  0  0  0  0  0  0
  1  2  1  0  0  0  0
  2  7  1  0  0  0  0
  2  3  1  0  0  0  0
  2  8  1  0  0  0  0
  3 10  1  0  0  0  0
  3  9  1  0  0  0  0
  4 17  1  0  0  0  0
  4  3  1  0  0  0  0
  5 13  1  0  0  0  0
  5  4  1  0  0  0  0
  6  5  1  0  0  0  0
  6  1  1  0  0  0  0
 11  4  1  0  0  0  0
 12  5  1  0  0  0  0
 14  6  1  0  0  0  0
 15  6  1  0  0  0  0
 16 27  1  0  0  0  0
 17 16  2  0  0  0  0
 18 20  2  0  0  0  0
 18 17  1  0  0  0  0
 19 18  1  0  0  0  0
 20 26  1  0  0  0  0
 21 20  1  0  0  0  0
 21 23  1  0  0  0  0
 22 21  1  0  0  0  0
 23 24  2  0  0  0  0
 24 25  1  0  0  0  0
 26 24  1  0  0  0  0
 26 27  2  0  0  0  0
 28  1  1  0  0  0  0
 28 33  1  0  0  0  0
 29 28  2  0  0  0  0
 30 29  1  0  0  0  0
 30 31  2  0  0  0  0
 31 32  1  0  0  0  0
 32 33  2  0  0  0  0
 32 36  1  0  0  0  0
 34 29  1  0  0  0  0
 35 30  1  0  0  0  0
M  END
>  <minimizedAffinity>
-5.21597338

$$$$

 OpenBabel03272507453D

 36 39  0  0  0  0  0  0  0  0999 V2000
   37.1010   26.3480   32.7510 N   0  0  0  0  0  0  0  0  0  0  0  0
   37.2950   26.9650   34.0330 C   0  0  0  0  0  0  0  0  0  0  0  0
   36.4510   28.1070   34.3960 C   0  0  0  0  0  0  0  0  0  0  0  0
   35.9380   28.9550   33.2910 C   0  0  0  0  0  0  0  0  0  0  0  0
   35.7750   28.2260   31.9970 C   0  0  0  0  0  0  0  0  0  0  0  0
   37.0580   27.3980   31.7530 C   0  0  0  0  0  0  0  0  0  0  0  0
   38.3720   27.2460   34.0890 H   0  0  0  0  0  0  0  0  0  0  0  0
   37.1690   26.1620   34.8050 H   0  0  0  0  0  0  0  0  0  0  0  0
   37.0380   28.7650   35.0930 H   0  0  0  0  0  0  0  0  0  0  0  0
   35.5740   27.7570   35.0040 H   0  0  0  0  0  0  0  0  0  0  0  0
   36.6740   29.7940   33.1150 H   0  0  0  0  0  0  0  0  0  0  0  0
   35.6710   28.8850   31.1380 H   0  0  0  0  0  0  0  0  0  0  0  0
   34.9690   27.4740   32.0970 H   0  0  0  0  0  0  0  0  0  0  0  0
   37.9570   28.0310   31.7890 H   0  0  0  0  0  0  0  0  0  0  0  0
   36.9810   27.0280   30.7180 H   0  0  0  0  0  0  0  0  0  0  0  0
   34.5120   30.3720   34.8010 C   0  0  0  0  0  3  0  0  0  0  0  0
   34.6390   29.5650   33.6800 C   0  0  0  0  0  0  0  0  0  0  0  0
   33.4920   29.3430   32.9270 C   0  0  0  0  0  0  0  0  0  0  0  0
   33.5600   28.7200   32.0490 H   0  0  0  0  0  0  0  0  0  0  0  0
   32.2670   29.8880   33.2510 C   0  0  0  0  0  0  0  0  0  0  0  0
   31.0680   29.7810   32.6410 N   0  0  0  0  0  0  0  0  0  0  0  0
   30.7970   29.2470   31.7670 H   0  0  0  0  0  0  0  0  0  0  0  0
   30.1910   30.4820   33.3260 N   0  0  0  0  0  0  0  0  0  0  0  0
   30.8140   31.0510   34.3860 C   0  0  0  0  0  0  0  0  0  0  0  0
   30.4250   31.6960   35.1720 H   0  0  0  0  0  0  0  0  0  0  0  0
   32.1480   30.6850   34.3610 C   0  0  0  0  0  0  0  0  0  0  0  0
   33.2960   30.9050   35.1130 C   0  0  0  0  0  3  0  0  0  0  0  0
   36.9750   24.9600   32.4950 C   0  0  0  0  0  0  0  0  0  0  0  0
   37.8050   23.9710   33.0340 C   0  0  0  0  0  0  0  0  0  0  0  0
   37.5560   22.6410   32.6880 C   0  0  0  0  0  0  0  0  0  0  0  0
   36.5170   22.3750   31.8440 N   0  0  0  0  0  0  0  0  0  0  0  0
   35.7420   23.3600   31.3490 C   0  0  0  0  0  0  0  0  0  0  0  0
   35.9680   24.6480   31.6710 N   0  0  0  0  0  0  0  0  0  0  0  0
   38.5760   24.3360   33.6790 H   0  0  0  0  0  0  0  0  0  0  0  0
   38.2090   21.9160   33.1160 H   0  0  0  0  0  0  0  0  0  0  0  0
   34.9530   23.0160   30.6920 H   0  0  0  0  0  0  0  0  0  0  0  0
  1  2  1  0  0  0  0
  2  7  1  0  0  0  0
  2  3  1  0  0  0  0
  2  8  1  0  0  0  0
  3 10  1  0  0  0  0
  3  9  1  0  0  0  0
  4 17  1  0  0  0  0
  4  3  1  0  0  0  0
  5 13  1  0  0  0  0
  5  4  1  0  0  0  0
  6 14  1  0  0  0  0
  6  5  1  0  0  0  0
  6  1  1  0  0  0  0
 11  4  1  0  0  0  0
 12  5  1  0  0  0  0
 15  6  1  0  0  0  0
 16 27  1  0  0  0  0
 17 16  2  0  0  0  0
 18 20  2  0  0  0  0
 18 17  1  0  0  0  0
 19 18  1  0  0  0  0
 20 26  1  0  0  0  0
 21 20  1  0  0  0  0
 21 23  1  0  0  0  0
 22 21  1  0  0  0  0
 23 24  2  0  0  0  0
 24 25  1  0  0  0  0
 26 24  1  0  0  0  0
 26 27  2  0  0  0  0
 28  1  1  0  0  0  0
 28 29  1  0  0  0  0
 29 34  1  0  0  0  0
 30 29  2  0  0  0  0
 30 35  1  0  0  0  0
 31 30  1  0  0  0  0
 32 33  1  0  0  0  0
 32 31  2  0  0  0  0
 33 28  2  0  0  0  0
 36 32  1  0  0  0  0
M  END
>  <minimizedAffinity>
-5.16873503

$$$$

 OpenBabel03272507453D

 36 39  0  0  0  0  0  0  0  0999 V2000
   38.0700   27.3690   32.9240 N   0  0  0  0  0  0  0  0  0  0  0  0
   37.3330   28.0820   31.9190 C   0  0  0  0  0  0  0  0  0  0  0  0
   36.4370   29.1630   32.3420 C   0  0  0  0  0  0  0  0  0  0  0  0
   35.8390   29.0630   33.6960 C   0  0  0  0  0  0  0  0  0  0  0  0
   36.6760   28.2990   34.6700 C   0  0  0  0  0  0  0  0  0  0  0  0
   37.1440   26.9980   33.9770 C   0  0  0  0  0  0  0  0  0  0  0  0
   36.7700   27.3170   31.3380 H   0  0  0  0  0  0  0  0  0  0  0  0
   38.0840   28.4960   31.1960 H   0  0  0  0  0  0  0  0  0  0  0  0
   35.5980   29.2280   31.5970 H   0  0  0  0  0  0  0  0  0  0  0  0
   36.9660   30.1500   32.2640 H   0  0  0  0  0  0  0  0  0  0  0  0
   34.8480   28.5280   33.6100 H   0  0  0  0  0  0  0  0  0  0  0  0
   36.1330   27.9890   35.5610 H   0  0  0  0  0  0  0  0  0  0  0  0
   37.6070   28.8600   34.8750 H   0  0  0  0  0  0  0  0  0  0  0  0
   36.2920   26.4240   33.5850 H   0  0  0  0  0  0  0  0  0  0  0  0
   37.5940   26.3820   34.7720 H   0  0  0  0  0  0  0  0  0  0  0  0
   35.5670   31.5480   33.4220 C   0  0  0  0  0  3  0  0  0  0  0  0
   35.5750   30.4240   34.2360 C   0  0  0  0  0  0  0  0  0  0  0  0
   35.3260   30.6200   35.5880 C   0  0  0  0  0  0  0  0  0  0  0  0
   35.3260   29.7640   36.2460 H   0  0  0  0  0  0  0  0  0  0  0  0
   35.0770   31.8630   36.1310 C   0  0  0  0  0  0  0  0  0  0  0  0
   34.8190   32.2320   37.4040 N   0  0  0  0  0  0  0  0  0  0  0  0
   34.7490   31.6400   38.2800 H   0  0  0  0  0  0  0  0  0  0  0  0
   34.6480   33.5350   37.4310 N   0  0  0  0  0  0  0  0  0  0  0  0
   34.7940   34.0240   36.1750 C   0  0  0  0  0  0  0  0  0  0  0  0
   34.7260   35.0440   35.8020 H   0  0  0  0  0  0  0  0  0  0  0  0
   35.0700   32.9700   35.3220 C   0  0  0  0  0  0  0  0  0  0  0  0
   35.3190   32.7720   33.9690 C   0  0  0  0  0  3  0  0  0  0  0  0
   39.4550   27.0720   32.9020 C   0  0  0  0  0  0  0  0  0  0  0  0
   40.2080   26.8670   31.7410 C   0  0  0  0  0  0  0  0  0  0  0  0
   41.5680   26.5820   31.8790 C   0  0  0  0  0  0  0  0  0  0  0  0
   42.0920   26.5180   33.1380 N   0  0  0  0  0  0  0  0  0  0  0  0
   41.3290   26.7230   34.2290 C   0  0  0  0  0  0  0  0  0  0  0  0
   40.0160   26.9990   34.1150 N   0  0  0  0  0  0  0  0  0  0  0  0
   39.6560   26.9500   30.8290 H   0  0  0  0  0  0  0  0  0  0  0  0
   42.1080   26.4310   30.9730 H   0  0  0  0  0  0  0  0  0  0  0  0
   41.8650   26.6450   35.1660 H   0  0  0  0  0  0  0  0  0  0  0  0
  1  6  1  0  0  0  0
  2  3  1  0  0  0  0
  2  1  1  0  0  0  0
  3  4  1  0  0  0  0
  4 17  1  0  0  0  0
  4  5  1  0  0  0  0
  5 13  1  0  0  0  0
  5 12  1  0  0  0  0
  6  5  1  0  0  0  0
  6 15  1  0  0  0  0
  7  2  1  0  0  0  0
  8  2  1  0  0  0  0
  9  3  1  0  0  0  0
 10  3  1  0  0  0  0
 11  4  1  0  0  0  0
 14  6  1  0  0  0  0
 16 27  2  0  0  0  0
 16 17  1  0  0  0  0
 17 18  2  0  0  0  0
 18 20  1  0  0  0  0
 18 19  1  0  0  0  0
 20 21  1  0  0  0  0
 21 23  1  0  0  0  0
 21 22  1  0  0  0  0
 24 23  2  0  0  0  0
 25 24  1  0  0  0  0
 26 20  2  0  0  0  0
 26 24  1  0  0  0  0
 27 26  1  0  0  0  0
 28  1  1  0  0  0  0
 28 33  1  0  0  0  0
 29 30  1  0  0  0  0
 29 28  2  0  0  0  0
 30 31  2  0  0  0  0
 31 32  1  0  0  0  0
 32 36  1  0  0  0  0
 33 32  2  0  0  0  0
 34 29  1  0  0  0  0
 35 30  1  0  0  0  0
M  END
>  <minimizedAffinity>
-5.1577096

$$$$

 OpenBabel03272507453D

 36 39  0  0  0  0  0  0  0  0999 V2000
   36.9690   27.5170   32.0280 N   0  0  0  0  0  0  0  0  0  0  0  0
   36.4800   26.1700   31.9300 C   0  0  0  0  0  0  0  0  0  0  0  0
   37.1860   25.1130   32.6610 C   0  0  0  0  0  0  0  0  0  0  0  0
   38.6370   25.3050   32.9080 C   0  0  0  0  0  0  0  0  0  0  0  0
   39.0500   26.7390   32.9890 C   0  0  0  0  0  0  0  0  0  0  0  0
   38.4020   27.4880   31.8020 C   0  0  0  0  0  0  0  0  0  0  0  0
   36.4390   25.9280   30.8430 H   0  0  0  0  0  0  0  0  0  0  0  0
   35.4090   26.1860   32.2610 H   0  0  0  0  0  0  0  0  0  0  0  0
   37.0560   24.1520   32.0930 H   0  0  0  0  0  0  0  0  0  0  0  0
   36.6840   24.9310   33.6490 H   0  0  0  0  0  0  0  0  0  0  0  0
   39.2080   24.8370   32.0530 H   0  0  0  0  0  0  0  0  0  0  0  0
   40.1230   26.8880   32.8920 H   0  0  0  0  0  0  0  0  0  0  0  0
   38.6040   27.2000   33.8910 H   0  0  0  0  0  0  0  0  0  0  0  0
   38.6520   27.0140   30.8430 H   0  0  0  0  0  0  0  0  0  0  0  0
   38.8710   28.4850   31.7870 H   0  0  0  0  0  0  0  0  0  0  0  0
   40.1600   23.7970   34.2210 C   0  0  0  0  0  3  0  0  0  0  0  0
   39.0360   24.6060   34.1590 C   0  0  0  0  0  0  0  0  0  0  0  0
   38.2870   24.7390   35.3210 C   0  0  0  0  0  0  0  0  0  0  0  0
   37.4060   25.3630   35.3030 H   0  0  0  0  0  0  0  0  0  0  0  0
   38.6200   24.1100   36.5020 C   0  0  0  0  0  0  0  0  0  0  0  0
   38.0160   24.1280   37.7090 N   0  0  0  0  0  0  0  0  0  0  0  0
   37.1400   24.6360   38.0220 H   0  0  0  0  0  0  0  0  0  0  0  0
   38.7070   23.3680   38.5300 N   0  0  0  0  0  0  0  0  0  0  0  0
   39.7660   22.8500   37.8620 C   0  0  0  0  0  0  0  0  0  0  0  0
   40.5570   22.1820   38.2000 H   0  0  0  0  0  0  0  0  0  0  0  0
   39.7330   23.3110   36.5580 C   0  0  0  0  0  0  0  0  0  0  0  0
   40.4810   23.1790   35.3940 C   0  0  0  0  0  3  0  0  0  0  0  0
   36.1990   28.6740   32.2970 C   0  0  0  0  0  0  0  0  0  0  0  0
   35.8120   29.0980   33.5730 C   0  0  0  0  0  0  0  0  0  0  0  0
   35.0510   30.2630   33.6780 C   0  0  0  0  0  0  0  0  0  0  0  0
   34.7230   30.9290   32.5330 N   0  0  0  0  0  0  0  0  0  0  0  0
   35.1180   30.4850   31.3240 C   0  0  0  0  0  0  0  0  0  0  0  0
   35.8520   29.3630   31.2030 N   0  0  0  0  0  0  0  0  0  0  0  0
   36.1450   28.4700   34.3720 H   0  0  0  0  0  0  0  0  0  0  0  0
   34.7740   30.5530   34.6660 H   0  0  0  0  0  0  0  0  0  0  0  0
   34.7930   31.1030   30.4970 H   0  0  0  0  0  0  0  0  0  0  0  0
  1 28  1  0  0  0  0
  2  1  1  0  0  0  0
  2  8  1  0  0  0  0
  2  3  1  0  0  0  0
  3  4  1  0  0  0  0
  3 10  1  0  0  0  0
  4  5  1  0  0  0  0
  4 17  1  0  0  0  0
  5 13  1  0  0  0  0
  6  1  1  0  0  0  0
  6  5  1  0  0  0  0
  7  2  1  0  0  0  0
  9  3  1  0  0  0  0
 11  4  1  0  0  0  0
 12  5  1  0  0  0  0
 14  6  1  0  0  0  0
 15  6  1  0  0  0  0
 16 27  1  0  0  0  0
 17 16  2  0  0  0  0
 17 18  1  0  0  0  0
 18 20  2  0  0  0  0
 19 18  1  0  0  0  0
 20 26  1  0  0  0  0
 20 21  1  0  0  0  0
 21 22  1  0  0  0  0
 21 23  1  0  0  0  0
 24 25  1  0  0  0  0
 24 23  2  0  0  0  0
 26 24  1  0  0  0  0
 27 26  2  0  0  0  0
 28 29  1  0  0  0  0
 29 30  2  0  0  0  0
 29 34  1  0  0  0  0
 30 35  1  0  0  0  0
 31 30  1  0  0  0  0
 32 31  2  0  0  0  0
 33 32  1  0  0  0  0
 33 28  2  0  0  0  0
 36 32  1  0  0  0  0
M  END
>  <minimizedAffinity>
-5.15205812

$$$$

 OpenBabel03272507453D

 36 39  0  0  0  0  0  0  0  0999 V2000
   39.1350   24.1940   35.4930 N   0  0  0  0  0  0  0  0  0  0  0  0
   38.2010   23.7650   34.4900 C   0  0  0  0  0  0  0  0  0  0  0  0
   37.9160   24.6640   33.3670 C   0  0  0  0  0  0  0  0  0  0  0  0
   38.0490   26.1220   33.6090 C   0  0  0  0  0  0  0  0  0  0  0  0
   39.0400   26.4690   34.6730 C   0  0  0  0  0  0  0  0  0  0  0  0
   38.7800   25.5440   35.8840 C   0  0  0  0  0  0  0  0  0  0  0  0
   37.2590   23.5050   35.0260 H   0  0  0  0  0  0  0  0  0  0  0  0
   38.5790   22.7900   34.0860 H   0  0  0  0  0  0  0  0  0  0  0  0
   36.8650   24.4640   33.0210 H   0  0  0  0  0  0  0  0  0  0  0  0
   38.5610   24.3950   32.4890 H   0  0  0  0  0  0  0  0  0  0  0  0
   37.0450   26.5210   33.9400 H   0  0  0  0  0  0  0  0  0  0  0  0
   38.9420   27.4870   35.0420 H   0  0  0  0  0  0  0  0  0  0  0  0
   40.0570   26.2030   34.3290 H   0  0  0  0  0  0  0  0  0  0  0  0
   37.7350   25.6080   36.2210 H   0  0  0  0  0  0  0  0  0  0  0  0
   39.3950   25.9470   36.7050 H   0  0  0  0  0  0  0  0  0  0  0  0
   39.7410   27.0630   32.0060 C   0  0  0  0  0  3  0  0  0  0  0  0
   38.4200   26.8140   32.3460 C   0  0  0  0  0  0  0  0  0  0  0  0
   37.4450   27.2420   31.4530 C   0  0  0  0  0  0  0  0  0  0  0  0
   36.4080   27.0610   31.6910 H   0  0  0  0  0  0  0  0  0  0  0  0
   37.7440   27.8880   30.2720 C   0  0  0  0  0  0  0  0  0  0  0  0
   36.9360   28.3640   29.3010 N   0  0  0  0  0  0  0  0  0  0  0  0
   35.8790   28.3480   29.2310 H   0  0  0  0  0  0  0  0  0  0  0  0
   37.6860   28.9030   28.3650 N   0  0  0  0  0  0  0  0  0  0  0  0
   38.9880   28.7790   28.7200 C   0  0  0  0  0  0  0  0  0  0  0  0
   39.8940   29.0990   28.2080 H   0  0  0  0  0  0  0  0  0  0  0  0
   39.0520   28.1310   29.9410 C   0  0  0  0  0  0  0  0  0  0  0  0
   40.0260   27.7020   30.8350 C   0  0  0  0  0  3  0  0  0  0  0  0
   40.2140   23.4400   36.0150 C   0  0  0  0  0  0  0  0  0  0  0  0
   40.0820   22.3590   36.8930 C   0  0  0  0  0  0  0  0  0  0  0  0
   41.2430   21.7130   37.3230 C   0  0  0  0  0  0  0  0  0  0  0  0
   42.4450   22.1670   36.8640 N   0  0  0  0  0  0  0  0  0  0  0  0
   42.5260   23.2120   36.0180 C   0  0  0  0  0  0  0  0  0  0  0  0
   41.4180   23.8480   35.5930 N   0  0  0  0  0  0  0  0  0  0  0  0
   39.0740   22.1220   37.1620 H   0  0  0  0  0  0  0  0  0  0  0  0
   41.1020   20.8950   37.9920 H   0  0  0  0  0  0  0  0  0  0  0  0
   43.5370   23.4730   35.7300 H   0  0  0  0  0  0  0  0  0  0  0  0
  1  6  1  0  0  0  0
  1 28  1  0  0  0  0
  2  7  1  0  0  0  0
  2  1  1  0  0  0  0
  3  4  1  0  0  0  0
  3  2  1  0  0  0  0
  4 11  1  0  0  0  0
  4  5  1  0  0  0  0
  5 12  1  0  0  0  0
  5  6  1  0  0  0  0
  6 14  1  0  0  0  0
  6 15  1  0  0  0  0
  8  2  1  0  0  0  0
  9  3  1  0  0  0  0
 10  3  1  0  0  0  0
 13  5  1  0  0  0  0
 16 17  1  0  0  0  0
 17  4  1  0  0  0  0
 18 19  1  0  0  0  0
 18 17  2  0  0  0  0
 20 18  1  0  0  0  0
 21 20  1  0  0  0  0
 22 21  1  0  0  0  0
 23 24  2  0  0  0  0
 23 21  1  0  0  0  0
 24 26  1  0  0  0  0
 25 24  1  0  0  0  0
 26 20  2  0  0  0  0
 26 27  1  0  0  0  0
 27 16  2  0  0  0  0
 28 29  1  0  0  0  0
 29 34  1  0  0  0  0
 29 30  2  0  0  0  0
 30 35  1  0  0  0  0
 31 30  1  0  0  0  0
 32 31  2  0  0  0  0
 33 28  2  0  0  0  0
 33 32  1  0  0  0  0
 36 32  1  0  0  0  0
M  END
>  <minimizedAffinity>
-5.12428474

$$$$
