
 OpenBabel03272501073D

 43 47  0  0  1  0  0  0  0  0999 V2000
   40.6030   32.0220   44.6410 Cl  0  0  0  0  0  0  0  0  0  0  0  0
   39.0760   31.1720   44.5110 C   0  0  0  0  0  0  0  0  0  0  0  0
   38.1660   31.5000   45.5050 C   0  0  0  0  0  0  0  0  0  0  0  0
   36.9500   30.8360   45.4140 C   0  0  0  0  0  0  0  0  0  0  0  0
   36.6810   29.9240   44.4070 C   0  0  0  0  0  0  0  0  0  0  0  0
   37.6230   29.6470   43.4600 C   0  0  0  0  0  0  0  0  0  0  0  0
   38.8330   30.2760   43.5100 C   0  0  0  0  0  0  0  0  0  0  0  0
   36.1190   30.9590   46.0940 H   0  0  0  0  0  0  0  0  0  0  0  0
   35.7440   29.3910   44.3110 H   0  0  0  0  0  0  0  0  0  0  0  0
   37.4340   28.9380   42.6660 H   0  0  0  0  0  0  0  0  0  0  0  0
   40.9490   29.1540   42.5600 C   0  0  0  0  0  3  0  0  0  0  0  0
   39.8780   30.0230   42.5270 C   0  0  0  0  0  0  0  0  0  0  0  0
   39.6900   30.8310   41.3990 C   0  0  0  0  0  0  0  0  0  0  0  0
   38.8950   31.5560   41.2370 H   0  0  0  0  0  0  0  0  0  0  0  0
   40.5580   30.7740   40.3160 C   0  0  0  0  0  0  0  0  0  0  0  0
   40.6620   31.3890   39.1230 N   0  0  0  0  0  0  0  0  0  0  0  0
   39.9900   32.1210   38.7830 H   0  0  0  0  0  0  0  0  0  0  0  0
   41.7300   30.9300   38.4600 N   0  0  0  0  0  0  0  0  0  0  0  0
   42.3570   29.9990   39.2030 C   0  0  0  0  0  0  0  0  0  0  0  0
   43.2580   29.4380   38.9380 H   0  0  0  0  0  0  0  0  0  0  0  0
   41.6240   29.8990   40.3670 C   0  0  0  0  0  0  0  0  0  0  0  0
   41.8070   29.1040   41.4810 C   0  0  0  0  0  3  0  0  0  0  0  0
   38.2070   32.3380   46.5590 O   0  0  0  0  0  0  0  0  0  0  0  0
   38.9320   32.4690   47.6950 C   0  0  2  0  0  0  0  0  0  0  0  0
   38.0300   32.7490   48.9420 C   0  0  2  0  0  0  0  0  0  0  0  0
   38.9730   33.4610   49.7930 C   0  0  0  0  0  0  0  0  0  0  0  0
   39.7640   34.2630   48.9820 O   0  0  0  0  0  0  0  0  0  0  0  0
   39.6120   33.8650   47.6960 C   0  0  0  0  0  0  0  0  0  0  0  0
   39.7170   31.7530   47.9230 H   0  0  0  0  0  0  0  0  0  0  0  0
   37.2710   33.4460   48.5260 H   0  0  0  0  0  0  0  0  0  0  0  0
   38.4480   34.1160   50.5380 H   0  0  0  0  0  0  0  0  0  0  0  0
   39.6710   32.8460   50.3760 H   0  0  0  0  0  0  0  0  0  0  0  0
   38.9890   34.5250   47.0560 H   0  0  0  0  0  0  0  0  0  0  0  0
   40.5900   33.7080   47.1810 H   0  0  0  0  0  0  0  0  0  0  0  0
   37.3590   29.6140   50.9030 C   0  0  0  0  0  0  0  0  0  0  0  0
   38.0280   30.7870   50.4540 C   0  0  0  0  0  0  0  0  0  0  0  0
   37.3940   31.5630   49.4380 C   0  0  0  0  0  0  0  0  0  0  0  0
   36.1740   31.1520   48.9370 N   0  0  0  0  0  0  0  0  0  0  0  0
   35.5910   30.0370   49.3990 C   0  0  0  0  0  0  0  0  0  0  0  0
   36.1590   29.2680   50.3680 N   0  0  0  0  0  0  0  0  0  0  0  0
   37.7600   28.9810   51.6550 H   0  0  0  0  0  0  0  0  0  0  0  0
   38.9620   31.0520   50.8750 H   0  0  0  0  0  0  0  0  0  0  0  0
   34.6390   29.7730   48.9660 H   0  0  0  0  0  0  0  0  0  0  0  0
  2  1  1  0  0  0  0
  2  3  1  0  0  0  0
  3 23  1  0  0  0  0
  4  3  2  0  0  0  0
  4  8  1  0  0  0  0
  5  4  1  0  0  0  0
  6  7  1  0  0  0  0
  6  5  2  0  0  0  0
  7  2  2  0  0  0  0
  9  5  1  0  0  0  0
 10  6  1  0  0  0  0
 12 11  1  0  0  0  0
 12  7  1  0  0  0  0
 13 12  2  0  0  0  0
 14 13  1  0  0  0  0
 15 21  2  0  0  0  0
 15 13  1  0  0  0  0
 16 15  1  0  0  0  0
 17 16  1  0  0  0  0
 18 16  1  0  0  0  0
 18 19  2  0  0  0  0
 19 21  1  0  0  0  0
 20 19  1  0  0  0  0
 21 22  1  0  0  0  0
 22 11  2  0  0  0  0
 23 24  1  0  0  0  0
 24 28  1  0  0  0  0
 24 29  1  1  0  0  0
 24 25  1  0  0  0  0
 25 30  1  6  0  0  0
 25 37  1  0  0  0  0
 25 26  1  0  0  0  0
 26 32  1  0  0  0  0
 26 31  1  0  0  0  0
 27 26  1  0  0  0  0
 28 27  1  0  0  0  0
 33 28  1  0  0  0  0
 34 28  1  0  0  0  0
 35 41  1  0  0  0  0
 36 42  1  0  0  0  0
 36 35  1  0  0  0  0
 37 36  2  0  0  0  0
 38 39  2  0  0  0  0
 38 37  1  0  0  0  0
 39 40  1  0  0  0  0
 40 35  2  0  0  0  0
 43 39  1  0  0  0  0
M  END
>  <minimizedAffinity>
-6.56972647

>  <minimizedRMSD>
1.08506298

$$$$
