
 OpenBabel03272509493D

 36 39  0  0  0  0  0  0  0  0999 V2000
   37.2270   30.0960   51.5020 C   0  0  0  0  0  0  0  0  0  0  0  0
   37.7910   30.7680   50.3860 C   0  0  0  0  0  0  0  0  0  0  0  0
   37.2530   30.5440   49.1370 C   0  0  0  0  0  0  0  0  0  0  0  0
   36.2050   29.6770   49.0910 N   0  0  0  0  0  0  0  0  0  0  0  0
   35.6800   29.0500   50.1370 C   0  0  0  0  0  0  0  0  0  0  0  0
   36.2000   29.2650   51.3560 N   0  0  0  0  0  0  0  0  0  0  0  0
   37.6400   30.2630   52.4930 H   0  0  0  0  0  0  0  0  0  0  0  0
   38.6110   31.4270   50.5250 H   0  0  0  0  0  0  0  0  0  0  0  0
   38.9120   31.9240   47.9060 C   0  0  0  0  0  3  0  0  0  0  0  0
   37.7550   31.1810   47.9270 C   0  0  0  0  0  0  0  0  0  0  0  0
   37.0380   31.0310   46.7590 C   0  0  0  0  0  0  0  0  0  0  0  0
   36.1150   30.4380   46.7720 H   0  0  0  0  0  0  0  0  0  0  0  0
   37.4390   31.5990   45.5670 C   0  0  0  0  0  0  0  0  0  0  0  0
   36.9760   31.6360   44.2970 N   0  0  0  0  0  0  0  0  0  0  0  0
   36.0940   31.1450   44.0210 H   0  0  0  0  0  0  0  0  0  0  0  0
   37.8100   32.3590   43.5690 N   0  0  0  0  0  0  0  0  0  0  0  0
   38.8180   32.7980   44.3410 C   0  0  0  0  0  0  0  0  0  0  0  0
   39.6550   33.4190   44.0110 H   0  0  0  0  0  0  0  0  0  0  0  0
   38.6030   32.3290   45.6150 C   0  0  0  0  0  0  0  0  0  0  0  0
   39.3700   32.5210   46.7420 C   0  0  0  0  0  3  0  0  0  0  0  0
   34.6300   28.2350   49.7950 O   0  0  0  0  0  0  0  0  0  0  0  0
   33.7900   28.6040   48.7190 C   0  0  0  0  0  0  0  0  0  0  0  0
   34.4240   28.9670   47.8810 H   0  0  0  0  0  0  0  0  0  0  0  0
   33.2140   29.5080   49.0470 H   0  0  0  0  0  0  0  0  0  0  0  0
   32.8910   27.4750   48.3270 C   0  0  0  0  0  0  0  0  0  0  0  0
   33.0220   26.5730   48.9700 H   0  0  0  0  0  0  0  0  0  0  0  0
   33.1890   27.1580   47.3060 H   0  0  0  0  0  0  0  0  0  0  0  0
   31.4640   27.8820   48.2470 C   0  0  0  0  0  0  0  0  0  0  0  0
   30.6960   27.7200   49.3830 C   0  0  0  0  0  0  0  0  0  0  0  0
   29.3650   28.0520   49.4570 C   0  0  0  0  0  0  0  0  0  0  0  0
   28.7850   28.5590   48.3710 N   0  0  0  0  0  0  0  0  0  0  0  0
   29.5310   28.7220   47.2510 C   0  0  0  0  0  0  0  0  0  0  0  0
   30.8410   28.3970   47.1730 N   0  0  0  0  0  0  0  0  0  0  0  0
   31.1040   27.3070   50.3190 H   0  0  0  0  0  0  0  0  0  0  0  0
   28.7630   27.9250   50.3470 H   0  0  0  0  0  0  0  0  0  0  0  0
   29.0670   29.1400   46.3460 H   0  0  0  0  0  0  0  0  0  0  0  0
  1  7  1  0  0  0  0
  2  8  1  0  0  0  0
  2  1  2  0  0  0  0
  3  2  1  0  0  0  0
  4  3  2  0  0  0  0
  4  5  1  0  0  0  0
  5  6  2  0  0  0  0
  6  1  1  0  0  0  0
  9 10  1  0  0  0  0
 10  3  1  0  0  0  0
 11 12  1  0  0  0  0
 11 10  2  0  0  0  0
 13 19  2  0  0  0  0
 13 11  1  0  0  0  0
 14 13  1  0  0  0  0
 15 14  1  0  0  0  0
 16 14  1  0  0  0  0
 16 17  2  0  0  0  0
 17 19  1  0  0  0  0
 18 17  1  0  0  0  0
 19 20  1  0  0  0  0
 20  9  2  0  0  0  0
 21  5  1  0  0  0  0
 22 24  1  0  0  0  0
 22 21  1  0  0  0  0
 23 22  1  0  0  0  0
 25 22  1  0  0  0  0
 25 26  1  0  0  0  0
 27 25  1  0  0  0  0
 28 25  1  0  0  0  0
 28 29  1  0  0  0  0
 29 30  2  0  0  0  0
 29 34  1  0  0  0  0
 30 35  1  0  0  0  0
 31 30  1  0  0  0  0
 32 31  2  0  0  0  0
 33 32  1  0  0  0  0
 33 28  2  0  0  0  0
 36 32  1  0  0  0  0
M  END
>  <minimizedAffinity>
-6.51216984

>  <minimizedRMSD>
0.72010237

$$$$
