
 OpenBabel03272504413D

 48 51  0  0  0  0  0  0  0  0999 V2000
   34.8020   29.3970   48.8340 C   0  0  0  0  0  0  0  0  0  0  0  0
   35.7070   29.4210   49.4830 H   0  0  0  0  0  0  0  0  0  0  0  0
   34.1650   30.2300   49.2610 H   0  0  0  0  0  0  0  0  0  0  0  0
   37.5630   30.4570   48.5280 Cl  0  0  0  0  0  0  0  0  0  0  0  0
   36.4150   30.3010   47.1980 C   0  0  0  0  0  0  0  0  0  0  0  0
   36.7900   30.6790   45.9580 C   0  0  0  0  0  0  0  0  0  0  0  0
   35.9040   30.5620   44.9080 C   0  0  0  0  0  0  0  0  0  0  0  0
   34.6310   30.0520   45.1520 C   0  0  0  0  0  0  0  0  0  0  0  0
   34.3200   29.6810   46.4750 C   0  0  0  0  0  0  0  0  0  0  0  0
   35.1740   29.7890   47.5070 C   0  0  0  0  0  0  0  0  0  0  0  0
   36.2280   30.8750   43.9070 H   0  0  0  0  0  0  0  0  0  0  0  0
   34.0240   30.0020   44.2790 H   0  0  0  0  0  0  0  0  0  0  0  0
   33.3510   29.3370   46.4530 H   0  0  0  0  0  0  0  0  0  0  0  0
   39.7810   32.8380   46.0090 C   0  0  0  0  0  0  0  0  0  0  0  0
   40.6470   32.1020   45.1220 C   0  0  0  0  0  0  0  0  0  0  0  0
   40.1650   30.9170   44.5600 C   0  0  0  0  0  0  0  0  0  0  0  0
   38.9090   30.5050   44.8660 N   0  0  0  0  0  0  0  0  0  0  0  0
   38.1170   31.2150   45.7020 C   0  0  0  0  0  0  0  0  0  0  0  0
   38.5560   32.3570   46.2560 N   0  0  0  0  0  0  0  0  0  0  0  0
   40.1550   33.7540   46.4430 H   0  0  0  0  0  0  0  0  0  0  0  0
   41.6240   32.5330   44.9570 H   0  0  0  0  0  0  0  0  0  0  0  0
   41.0410   30.2330   43.7030 N   0  0  0  0  0  0  0  0  0  0  0  0
   40.8070   30.5820   42.7460 H   0  0  0  0  0  0  0  0  0  0  0  0
   41.8000   29.5130   43.8620 H   0  0  0  0  0  0  0  0  0  0  0  0
   34.1220   28.1180   49.0580 C   0  0  0  0  0  0  0  0  0  0  0  0
   34.2670   27.4240   48.1980 H   0  0  0  0  0  0  0  0  0  0  0  0
   34.5310   27.5450   49.9380 H   0  0  0  0  0  0  0  0  0  0  0  0
   32.7870   28.2940   49.3130 O   0  0  0  0  0  0  0  0  0  0  0  0
   32.7130   26.4530   47.4410 O   0  0  0  0  0  0  0  0  0  0  0  0
   31.8630   27.3750   48.2790 P   0  0  2  0  0  0  0  0  0  0  0  0
   31.0420   28.4880   47.2340 O   0  0  0  0  0  0  0  0  0  0  0  0
   29.5890   27.1160   45.8600 C   0  0  0  0  0  3  0  0  0  0  0  0
   30.6610   27.9770   45.9940 C   0  0  0  0  0  0  0  0  0  0  0  0
   31.3190   28.2910   44.8210 C   0  0  0  0  0  0  0  0  0  0  0  0
   32.1760   28.9690   44.8680 H   0  0  0  0  0  0  0  0  0  0  0  0
   30.9370   27.7820   43.5930 C   0  0  0  0  0  0  0  0  0  0  0  0
   31.3620   27.8960   42.3230 N   0  0  0  0  0  0  0  0  0  0  0  0
   32.1850   28.4900   42.0290 H   0  0  0  0  0  0  0  0  0  0  0  0
   30.6180   27.1740   41.4990 N   0  0  0  0  0  0  0  0  0  0  0  0
   29.6590   26.5440   42.2030 C   0  0  0  0  0  0  0  0  0  0  0  0
   28.8700   25.8660   41.8460 H   0  0  0  0  0  0  0  0  0  0  0  0
   29.8580   26.9240   43.5150 C   0  0  0  0  0  0  0  0  0  0  0  0
   29.1530   26.5700   44.6700 C   0  0  0  0  0  3  0  0  0  0  0  0
   30.6760   26.5120   49.0380 O   0  0  0  0  0  0  0  0  0  0  0  0
   29.8540   27.3380   49.7710 C   0  0  0  0  0  0  0  0  0  0  0  0
   29.3000   26.6920   50.8750 F   0  0  0  0  0  0  0  0  0  0  0  0
   30.5490   28.4140   50.2820 F   0  0  0  0  0  0  0  0  0  0  0  0
   28.8160   27.8120   48.9770 F   0  0  0  0  0  0  0  0  0  0  0  0
  1 25  1  0  0  0  0
  1  3  1  0  0  0  0
  1  2  1  0  0  0  0
  5 10  1  0  0  0  0
  5  4  1  0  0  0  0
  6  5  2  0  0  0  0
  7  8  2  0  0  0  0
  7  6  1  0  0  0  0
  8  9  1  0  0  0  0
  9 10  2  0  0  0  0
 10  1  1  0  0  0  0
 11  7  1  0  0  0  0
 12  8  1  0  0  0  0
 13  9  1  0  0  0  0
 14 19  1  0  0  0  0
 14 20  1  0  0  0  0
 15 14  2  0  0  0  0
 16 17  2  0  0  0  0
 16 15  1  0  0  0  0
 17 18  1  0  0  0  0
 18  6  1  0  0  0  0
 18 19  2  0  0  0  0
 21 15  1  0  0  0  0
 22 24  1  0  0  0  0
 22 16  1  0  0  0  0
 23 22  1  0  0  0  0
 25 28  1  0  0  0  0
 25 27  1  0  0  0  0
 26 25  1  0  0  0  0
 30 29  2  6  0  0  0
 30 44  1  0  0  0  0
 30 28  1  0  0  0  0
 31 30  1  0  0  0  0
 32 33  1  0  0  0  0
 33 31  1  0  0  0  0
 34 35  1  0  0  0  0
 34 33  2  0  0  0  0
 36 34  1  0  0  0  0
 37 36  1  0  0  0  0
 38 37  1  0  0  0  0
 39 40  2  0  0  0  0
 39 37  1  0  0  0  0
 40 42  1  0  0  0  0
 41 40  1  0  0  0  0
 42 36  2  0  0  0  0
 42 43  1  0  0  0  0
 43 32  2  0  0  0  0
 44 45  1  0  0  0  0
 45 47  1  0  0  0  0
 45 46  1  0  0  0  0
 48 45  1  0  0  0  0
M  END
>  <minimizedAffinity>
-5.68992949

>  <minimizedRMSD>
0.682473719

$$$$
