
 OpenBabel03272506463D

 45 49  0  0  1  0  0  0  0  0999 V2000
   30.9550   27.2850   45.5320 O   0  0  0  0  0  0  0  0  0  0  0  0
   31.9460   28.6060   47.3030 C   0  0  2  0  0  0  0  0  0  0  0  0
   33.1230   28.2410   48.1560 C   0  0  1  0  0  0  0  0  0  0  0  0
   33.3090   26.8950   48.0660 O   0  0  0  0  0  0  0  0  0  0  0  0
   32.5520   26.4000   47.0080 C   0  0  0  0  0  0  0  0  0  0  0  0
   32.1480   27.5700   46.1510 C   0  0  1  0  0  0  0  0  0  0  0  0
   30.9670   28.4970   47.7560 H   0  0  0  0  0  0  0  0  0  0  0  0
   33.0040   28.6240   49.1880 H   0  0  0  0  0  0  0  0  0  0  0  0
   31.7560   25.8050   47.4260 H   0  0  0  0  0  0  0  0  0  0  0  0
   33.2790   25.8000   46.3970 H   0  0  0  0  0  0  0  0  0  0  0  0
   32.9500   27.9880   45.5510 H   0  0  0  0  0  0  0  0  0  0  0  0
   32.0930   29.9080   46.7820 O   0  0  0  0  0  0  0  0  0  0  0  0
   32.8780   29.8800   46.1750 H   0  0  0  0  0  0  0  0  0  0  0  0
   34.6010   29.0720   47.4420 S   0  0  0  0  0  0  0  0  0  0  0  0
   36.6840   29.2830   50.8080 C   0  0  0  0  0  0  0  0  0  0  0  0
   37.1490   30.6010   50.8570 C   0  0  0  0  0  0  0  0  0  0  0  0
   36.8110   31.4520   49.8180 C   0  0  0  0  0  0  0  0  0  0  0  0
   36.0410   30.9700   48.7970 N   0  0  0  0  0  0  0  0  0  0  0  0
   35.6100   29.6910   48.7850 C   0  0  0  0  0  0  0  0  0  0  0  0
   35.9240   28.8290   49.7870 N   0  0  0  0  0  0  0  0  0  0  0  0
   36.8970   28.5480   51.5710 H   0  0  0  0  0  0  0  0  0  0  0  0
   37.7550   30.9150   51.6960 H   0  0  0  0  0  0  0  0  0  0  0  0
   37.1410   32.4680   49.8080 H   0  0  0  0  0  0  0  0  0  0  0  0
   29.8410   29.7590   44.3880 Cl  0  0  0  0  0  0  0  0  0  0  0  0
   29.1200   28.6760   45.5550 C   0  0  0  0  0  0  0  0  0  0  0  0
   29.7390   27.5350   46.0090 C   0  0  0  0  0  0  0  0  0  0  0  0
   29.0510   26.7340   46.9240 C   0  0  0  0  0  0  0  0  0  0  0  0
   27.7890   27.0850   47.3540 C   0  0  0  0  0  0  0  0  0  0  0  0
   27.1570   28.2310   46.9030 C   0  0  0  0  0  0  0  0  0  0  0  0
   27.8390   29.0300   45.9920 C   0  0  0  0  0  0  0  0  0  0  0  0
   29.4580   25.8230   47.3280 H   0  0  0  0  0  0  0  0  0  0  0  0
   27.2640   26.4690   48.0560 H   0  0  0  0  0  0  0  0  0  0  0  0
   26.1690   28.5020   47.2430 H   0  0  0  0  0  0  0  0  0  0  0  0
   26.7440   30.1920   44.2020 C   0  0  0  0  0  3  0  0  0  0  0  0
   27.1580   30.2130   45.5390 C   0  0  0  0  0  0  0  0  0  0  0  0
   26.8630   31.3570   46.2440 C   0  0  0  0  0  0  0  0  0  0  0  0
   27.1810   31.3670   47.2580 H   0  0  0  0  0  0  0  0  0  0  0  0
   26.2000   32.4260   45.6810 C   0  0  0  0  0  0  0  0  0  0  0  0
   25.8350   33.6040   46.2160 N   0  0  0  0  0  0  0  0  0  0  0  0
   26.0240   33.8780   47.2080 H   0  0  0  0  0  0  0  0  0  0  0  0
   25.2270   34.2680   45.2480 N   0  0  0  0  0  0  0  0  0  0  0  0
   25.1900   33.5600   44.1150 C   0  0  0  0  0  0  0  0  0  0  0  0
   24.7680   33.8220   43.1570 H   0  0  0  0  0  0  0  0  0  0  0  0
   25.8130   32.3540   44.3590 C   0  0  0  0  0  0  0  0  0  0  0  0
   26.0780   31.2350   43.5920 C   0  0  0  0  0  3  0  0  0  0  0  0
  1 26  1  0  0  0  0
  1  6  1  0  0  0  0
  2  7  1  1  0  0  0
  2  3  1  0  0  0  0
  3  8  1  1  0  0  0
  4  3  1  0  0  0  0
  5  9  1  0  0  0  0
  5  4  1  0  0  0  0
  6 11  1  6  0  0  0
  6  5  1  0  0  0  0
  6  2  1  0  0  0  0
 10  5  1  0  0  0  0
 12  2  1  0  0  0  0
 13 12  1  0  0  0  0
 14  3  1  0  0  0  0
 14 19  1  0  0  0  0
 15 16  1  0  0  0  0
 15 21  1  0  0  0  0
 16 22  1  0  0  0  0
 17 16  2  0  0  0  0
 18 17  1  0  0  0  0
 19 18  2  0  0  0  0
 19 20  1  0  0  0  0
 20 15  2  0  0  0  0
 23 17  1  0  0  0  0
 24 25  1  0  0  0  0
 25 30  2  0  0  0  0
 25 26  1  0  0  0  0
 26 27  2  0  0  0  0
 27 31  1  0  0  0  0
 27 28  1  0  0  0  0
 28 32  1  0  0  0  0
 29 33  1  0  0  0  0
 29 28  2  0  0  0  0
 30 29  1  0  0  0  0
 34 35  1  0  0  0  0
 35 30  1  0  0  0  0
 35 36  2  0  0  0  0
 36 37  1  0  0  0  0
 38 39  1  0  0  0  0
 38 36  1  0  0  0  0
 39 40  1  0  0  0  0
 41 39  1  0  0  0  0
 42 44  1  0  0  0  0
 42 41  2  0  0  0  0
 43 42  1  0  0  0  0
 44 38  2  0  0  0  0
 45 34  2  0  0  0  0
 45 44  1  0  0  0  0
M  END
>  <minimizedAffinity>
-6.21447706

>  <minimizedRMSD>
1.06833816

$$$$
