
 OpenBabel03262522053D

 43 47  0  0  1  0  0  0  0  0999 V2000
   37.7310   31.8200   49.6740 C   0  0  0  0  0  0  0  0  0  0  0  0
   36.7230   32.3210   50.2660 O   0  0  0  0  0  0  0  0  0  0  0  0
   34.5060   29.0870   48.7480 C   0  0  2  0  0  0  0  0  0  0  0  0
   35.1550   28.3560   49.8730 C   0  0  0  0  0  0  0  0  0  0  0  0
   36.2900   29.1380   50.3630 N   0  0  0  0  0  0  0  0  0  0  0  0
   37.2420   29.8760   51.1470 C   0  0  0  0  0  0  0  0  0  0  0  0
   37.4570   30.0660   52.3560 O   0  0  0  0  0  0  0  0  0  0  0  0
   37.9580   30.3940   50.0140 C   0  0  1  0  0  0  0  0  0  0  0  0
   37.1280   29.3870   49.2280 C   0  0  2  0  0  0  0  0  0  0  0  0
   35.9110   30.0890   48.0920 S   0  0  0  0  0  0  0  0  0  0  0  0
   35.4030   27.3050   49.6850 H   0  0  0  0  0  0  0  0  0  0  0  0
   34.4090   28.3550   50.7210 H   0  0  0  0  0  0  0  0  0  0  0  0
   39.0180   30.0770   49.8870 H   0  0  0  0  0  0  0  0  0  0  0  0
   37.6780   28.5160   48.8320 H   0  0  0  0  0  0  0  0  0  0  0  0
   33.3000   29.8970   49.0770 C   0  0  0  0  0  0  0  0  0  0  0  0
   32.5410   29.7640   48.2620 H   0  0  0  0  0  0  0  0  0  0  0  0
   32.8950   29.6200   50.0650 H   0  0  0  0  0  0  0  0  0  0  0  0
   33.5850   30.9710   49.1420 H   0  0  0  0  0  0  0  0  0  0  0  0
   34.2200   28.0730   47.6210 C   0  0  0  0  0  0  0  0  0  0  0  0
   34.9330   27.2360   47.6730 H   0  0  0  0  0  0  0  0  0  0  0  0
   33.1920   27.7050   47.7800 H   0  0  0  0  0  0  0  0  0  0  0  0
   34.2440   28.7490   46.4020 O   0  0  0  0  0  0  0  0  0  0  0  0
   33.9860   28.1090   45.6980 H   0  0  0  0  0  0  0  0  0  0  0  0
   38.5570   32.5670   48.7780 C   0  0  0  0  0  0  0  0  0  0  0  0
   39.1270   33.7310   49.2360 C   0  0  0  0  0  0  0  0  0  0  0  0
   39.9460   34.4680   48.3400 C   0  0  0  0  0  0  0  0  0  0  0  0
   40.1130   33.9680   47.0690 N   0  0  0  0  0  0  0  0  0  0  0  0
   39.5430   32.8440   46.6720 C   0  0  0  0  0  0  0  0  0  0  0  0
   38.7660   32.1340   47.5090 N   0  0  0  0  0  0  0  0  0  0  0  0
   38.9720   34.0970   50.2530 H   0  0  0  0  0  0  0  0  0  0  0  0
   40.4200   35.3910   48.6490 H   0  0  0  0  0  0  0  0  0  0  0  0
   40.5000   31.2190   45.0560 C   0  0  0  0  0  3  0  0  0  0  0  0
   39.7460   32.3470   45.3150 C   0  0  0  0  0  0  0  0  0  0  0  0
   39.1870   32.9920   44.2300 C   0  0  0  0  0  0  0  0  0  0  0  0
   38.5960   33.8810   44.4660 H   0  0  0  0  0  0  0  0  0  0  0  0
   39.3460   32.5650   42.9230 C   0  0  0  0  0  0  0  0  0  0  0  0
   38.8820   33.0610   41.7460 N   0  0  0  0  0  0  0  0  0  0  0  0
   38.2780   33.9210   41.6730 H   0  0  0  0  0  0  0  0  0  0  0  0
   39.3450   32.2470   40.7820 N   0  0  0  0  0  0  0  0  0  0  0  0
   40.0790   31.2690   41.3400 C   0  0  0  0  0  0  0  0  0  0  0  0
   40.5850   30.4560   40.7970 H   0  0  0  0  0  0  0  0  0  0  0  0
   40.1130   31.4270   42.7100 C   0  0  0  0  0  0  0  0  0  0  0  0
   40.6960   30.7390   43.7540 C   0  0  0  0  0  3  0  0  0  0  0  0
  1  8  1  0  0  0  0
  1  2  2  0  0  0  0
  3 19  1  6  0  0  0
  3 15  1  0  0  0  0
  3  4  1  0  0  0  0
  4  5  1  0  0  0  0
  4 12  1  0  0  0  0
  5  6  1  0  0  0  0
  6  7  2  0  0  0  0
  8 13  1  1  0  0  0
  8  6  1  0  0  0  0
  9 14  1  6  0  0  0
  9  8  1  0  0  0  0
  9  5  1  0  0  0  0
 10  3  1  0  0  0  0
 10  9  1  0  0  0  0
 11  4  1  0  0  0  0
 15 18  1  0  0  0  0
 15 17  1  0  0  0  0
 16 15  1  0  0  0  0
 19 20  1  0  0  0  0
 19 21  1  0  0  0  0
 22 19  1  0  0  0  0
 23 22  1  0  0  0  0
 24 25  1  0  0  0  0
 24  1  1  0  0  0  0
 25 30  1  0  0  0  0
 26 31  1  0  0  0  0
 26 25  2  0  0  0  0
 27 26  1  0  0  0  0
 28 27  2  0  0  0  0
 28 29  1  0  0  0  0
 29 24  2  0  0  0  0
 32 33  1  0  0  0  0
 33 28  1  0  0  0  0
 34 35  1  0  0  0  0
 34 33  2  0  0  0  0
 36 34  1  0  0  0  0
 37 36  1  0  0  0  0
 38 37  1  0  0  0  0
 39 40  2  0  0  0  0
 39 37  1  0  0  0  0
 40 42  1  0  0  0  0
 41 40  1  0  0  0  0
 42 36  2  0  0  0  0
 42 43  1  0  0  0  0
 43 32  2  0  0  0  0
M  END
>  <minimizedAffinity>
-6.56429052

>  <minimizedRMSD>
0.273937821

$$$$
