
 OpenBabel03272509493D

 36 39  0  0  0  0  0  0  0  0999 V2000
   37.3470   30.1410   51.3400 C   0  0  0  0  0  0  0  0  0  0  0  0
   37.8590   30.7410   50.1600 C   0  0  0  0  0  0  0  0  0  0  0  0
   37.2050   30.5170   48.9670 C   0  0  0  0  0  0  0  0  0  0  0  0
   36.1020   29.7230   49.0360 N   0  0  0  0  0  0  0  0  0  0  0  0
   35.6260   29.1640   50.1420 C   0  0  0  0  0  0  0  0  0  0  0  0
   36.2590   29.3780   51.3070 N   0  0  0  0  0  0  0  0  0  0  0  0
   37.8510   30.3080   52.2890 H   0  0  0  0  0  0  0  0  0  0  0  0
   38.7280   31.3450   50.2090 H   0  0  0  0  0  0  0  0  0  0  0  0
   37.0940   30.7160   46.4950 C   0  0  0  0  0  3  0  0  0  0  0  0
   37.6450   31.0830   47.6990 C   0  0  0  0  0  0  0  0  0  0  0  0
   38.6540   32.0240   47.7130 C   0  0  0  0  0  0  0  0  0  0  0  0
   39.0950   32.3190   48.6720 H   0  0  0  0  0  0  0  0  0  0  0  0
   39.1320   32.6130   46.5590 C   0  0  0  0  0  0  0  0  0  0  0  0
   40.0740   33.5310   46.2490 N   0  0  0  0  0  0  0  0  0  0  0  0
   40.6580   33.9860   46.9870 H   0  0  0  0  0  0  0  0  0  0  0  0
   40.0790   33.6960   44.9370 N   0  0  0  0  0  0  0  0  0  0  0  0
   39.1530   32.8990   44.3780 C   0  0  0  0  0  0  0  0  0  0  0  0
   38.9320   32.8250   43.3090 H   0  0  0  0  0  0  0  0  0  0  0  0
   38.5380   32.2020   45.3900 C   0  0  0  0  0  0  0  0  0  0  0  0
   37.5290   31.2680   45.2990 C   0  0  0  0  0  3  0  0  0  0  0  0
   34.5000   28.4130   49.9150 O   0  0  0  0  0  0  0  0  0  0  0  0
   33.7640   28.6130   48.7240 C   0  0  0  0  0  0  0  0  0  0  0  0
   34.4770   28.8070   47.8940 H   0  0  0  0  0  0  0  0  0  0  0  0
   33.2020   29.5760   48.8440 H   0  0  0  0  0  0  0  0  0  0  0  0
   32.8520   27.4580   48.4560 C   0  0  0  0  0  0  0  0  0  0  0  0
   32.9730   26.6300   49.1910 H   0  0  0  0  0  0  0  0  0  0  0  0
   33.1470   27.0300   47.4750 H   0  0  0  0  0  0  0  0  0  0  0  0
   31.4300   27.8710   48.3310 C   0  0  0  0  0  0  0  0  0  0  0  0
   30.6330   27.7340   49.4500 C   0  0  0  0  0  0  0  0  0  0  0  0
   29.3020   28.0730   49.4830 C   0  0  0  0  0  0  0  0  0  0  0  0
   28.7520   28.5620   48.3720 N   0  0  0  0  0  0  0  0  0  0  0  0
   29.5270   28.6990   47.2690 C   0  0  0  0  0  0  0  0  0  0  0  0
   30.8380   28.3670   47.2320 N   0  0  0  0  0  0  0  0  0  0  0  0
   31.0140   27.3380   50.4040 H   0  0  0  0  0  0  0  0  0  0  0  0
   28.6760   27.9660   50.3590 H   0  0  0  0  0  0  0  0  0  0  0  0
   29.0890   29.1010   46.3450 H   0  0  0  0  0  0  0  0  0  0  0  0
  1  7  1  0  0  0  0
  2  8  1  0  0  0  0
  2  1  2  0  0  0  0
  3  4  2  0  0  0  0
  3  2  1  0  0  0  0
  4  5  1  0  0  0  0
  5  6  2  0  0  0  0
  6  1  1  0  0  0  0
  9 10  1  0  0  0  0
 10 11  2  0  0  0  0
 10  3  1  0  0  0  0
 11 12  1  0  0  0  0
 13 11  1  0  0  0  0
 14 13  1  0  0  0  0
 14 15  1  0  0  0  0
 16 14  1  0  0  0  0
 17 16  2  0  0  0  0
 17 19  1  0  0  0  0
 18 17  1  0  0  0  0
 19 13  2  0  0  0  0
 20 19  1  0  0  0  0
 20  9  2  0  0  0  0
 21  5  1  0  0  0  0
 22 24  1  0  0  0  0
 22 21  1  0  0  0  0
 23 22  1  0  0  0  0
 25 22  1  0  0  0  0
 25 26  1  0  0  0  0
 27 25  1  0  0  0  0
 28 25  1  0  0  0  0
 28 29  1  0  0  0  0
 29 30  2  0  0  0  0
 29 34  1  0  0  0  0
 30 35  1  0  0  0  0
 31 30  1  0  0  0  0
 32 31  2  0  0  0  0
 33 32  1  0  0  0  0
 33 28  2  0  0  0  0
 36 32  1  0  0  0  0
M  END
>  <minimizedAffinity>
-6.88771963

>  <minimizedRMSD>
0.889228165

$$$$
