
 OpenBabel03272508353D

 34 37  0  0  0  0  0  0  0  0999 V2000
   39.3000   33.1650   45.4650 C   0  0  0  0  0  0  0  0  0  0  0  0
   38.7710   33.3640   44.5130 H   0  0  0  0  0  0  0  0  0  0  0  0
   39.4580   34.1110   46.0230 H   0  0  0  0  0  0  0  0  0  0  0  0
   37.5400   31.1210   47.8620 C   0  0  0  0  0  0  0  0  0  0  0  0
   36.9610   30.7080   46.6780 C   0  0  0  0  0  0  0  0  0  0  0  0
   37.5490   31.4220   45.6430 C   0  0  0  0  0  0  0  0  0  0  0  0
   38.4580   32.2360   46.2310 N   0  0  0  0  0  0  0  0  0  0  0  0
   38.4420   32.0500   47.5460 N   0  0  0  0  0  0  0  0  0  0  0  0
   36.1870   29.9710   46.5100 H   0  0  0  0  0  0  0  0  0  0  0  0
   37.3120   31.3270   44.6000 H   0  0  0  0  0  0  0  0  0  0  0  0
   37.3980   30.1760   51.4890 C   0  0  0  0  0  0  0  0  0  0  0  0
   37.8630   30.7590   50.3170 C   0  0  0  0  0  0  0  0  0  0  0  0
   37.1320   30.5530   49.1340 C   0  0  0  0  0  0  0  0  0  0  0  0
   36.0130   29.7920   49.2290 N   0  0  0  0  0  0  0  0  0  0  0  0
   35.5900   29.2400   50.3890 C   0  0  0  0  0  0  0  0  0  0  0  0
   36.2920   29.4400   51.5140 N   0  0  0  0  0  0  0  0  0  0  0  0
   37.9300   30.3100   52.4220 H   0  0  0  0  0  0  0  0  0  0  0  0
   38.7610   31.3590   50.2880 H   0  0  0  0  0  0  0  0  0  0  0  0
   34.6670   28.6670   50.2300 H   0  0  0  0  0  0  0  0  0  0  0  0
   40.6100   32.4780   45.1080 C   0  0  0  0  0  0  0  0  0  0  0  0
   41.4550   33.1640   45.0080 H   0  0  0  0  0  0  0  0  0  0  0  0
   40.7800   31.7420   45.9320 H   0  0  0  0  0  0  0  0  0  0  0  0
   39.7470   32.2940   42.6930 C   0  0  0  0  0  0  0  0  0  0  0  0
   40.3820   31.7930   43.8090 C   0  0  0  0  0  0  0  0  0  0  0  0
   40.8690   30.4880   43.7110 C   0  0  0  0  0  0  0  0  0  0  0  0
   41.3870   30.0290   44.5680 H   0  0  0  0  0  0  0  0  0  0  0  0
   40.7450   29.7080   42.5800 C   0  0  0  0  0  0  0  0  0  0  0  0
   41.1380   28.4630   42.3000 N   0  0  0  0  0  0  0  0  0  0  0  0
   41.6540   27.8170   42.9600 H   0  0  0  0  0  0  0  0  0  0  0  0
   40.7870   28.1510   41.0740 N   0  0  0  0  0  0  0  0  0  0  0  0
   40.1480   29.2240   40.5420 C   0  0  0  0  0  0  0  0  0  0  0  0
   39.7320   29.3000   39.5470 H   0  0  0  0  0  0  0  0  0  0  0  0
   40.1030   30.2320   41.4710 C   0  0  0  0  0  0  0  0  0  0  0  0
   39.6230   31.5180   41.5680 C   0  0  0  0  0  0  0  0  0  0  0  0
  1  3  1  0  0  0  0
  1  7  1  0  0  0  0
  2  1  1  0  0  0  0
  4 13  1  0  0  0  0
  5  4  1  0  0  0  0
  6  7  1  0  0  0  0
  6  5  2  0  0  0  0
  7  8  1  0  0  0  0
  8  4  2  0  0  0  0
  9  5  1  0  0  0  0
 10  6  1  0  0  0  0
 11 16  1  0  0  0  0
 11 17  1  0  0  0  0
 12 11  2  0  0  0  0
 13 14  2  0  0  0  0
 13 12  1  0  0  0  0
 14 15  1  0  0  0  0
 15 16  2  0  0  0  0
 18 12  1  0  0  0  0
 19 15  1  0  0  0  0
 20  1  1  0  0  0  0
 20 22  1  0  0  0  0
 21 20  1  0  0  0  0
 23 24  1  0  0  0  0
 24 20  1  0  0  0  0
 25 24  2  0  0  0  0
 25 26  1  0  0  0  0
 27 25  1  0  0  0  0
 28 27  1  0  0  0  0
 28 29  1  0  0  0  0
 30 28  1  0  0  0  0
 31 30  2  0  0  0  0
 31 33  1  0  0  0  0
 32 31  1  0  0  0  0
 33 34  1  0  0  0  0
 33 27  2  0  0  0  0
 34 23  2  0  0  0  0
M  END
>  <minimizedAffinity>
-6.08056831

>  <minimizedRMSD>
4.12864733

$$$$
