
 OpenBabel03272507413D

 44 48  0  0  0  0  0  0  0  0999 V2000
   36.6480   31.1790   50.0920 C   0  0  0  0  0  0  0  0  0  0  0  0
   35.5790   30.3170   49.8700 C   0  0  0  0  0  0  0  0  0  0  0  0
   35.3670   29.1950   50.6410 C   0  0  0  0  0  0  0  0  0  0  0  0
   36.2600   28.9620   51.6420 N   0  0  0  0  0  0  0  0  0  0  0  0
   37.3080   29.8110   51.8570 C   0  0  0  0  0  0  0  0  0  0  0  0
   37.4790   30.8810   51.0940 N   0  0  0  0  0  0  0  0  0  0  0  0
   34.5800   28.4930   50.5360 H   0  0  0  0  0  0  0  0  0  0  0  0
   37.9990   29.5930   52.6640 H   0  0  0  0  0  0  0  0  0  0  0  0
   34.2340   29.3810   48.0250 C   0  0  0  0  0  0  0  0  0  0  0  0
   34.7280   28.2000   47.8850 O   0  0  0  0  0  0  0  0  0  0  0  0
   34.6060   30.4580   48.8610 N   0  0  0  0  0  0  0  0  0  0  0  0
   34.2200   31.4180   48.8190 H   0  0  0  0  0  0  0  0  0  0  0  0
   32.1070   28.6050   46.9840 C   0  0  0  0  0  3  0  0  0  0  0  0
   33.0940   29.5570   47.1250 C   0  0  0  0  0  0  0  0  0  0  0  0
   32.8940   30.6740   46.3420 C   0  0  0  0  0  0  0  0  0  0  0  0
   33.5980   31.4910   46.3660 H   0  0  0  0  0  0  0  0  0  0  0  0
   31.8350   30.8770   45.4860 C   0  0  0  0  0  0  0  0  0  0  0  0
   31.4650   31.8700   44.6560 N   0  0  0  0  0  0  0  0  0  0  0  0
   31.9650   32.7610   44.4930 H   0  0  0  0  0  0  0  0  0  0  0  0
   30.3360   31.5230   44.0660 N   0  0  0  0  0  0  0  0  0  0  0  0
   29.9300   30.3130   44.4790 C   0  0  0  0  0  0  0  0  0  0  0  0
   29.0670   29.7410   44.2060 H   0  0  0  0  0  0  0  0  0  0  0  0
   30.8780   29.8890   45.3860 C   0  0  0  0  0  0  0  0  0  0  0  0
   31.0040   28.7390   46.1350 C   0  0  0  0  0  3  0  0  0  0  0  0
   36.6800   32.2200   49.2320 O   0  0  0  0  0  0  0  0  0  0  0  0
   38.1850   32.2060   47.2760 C   0  0  0  0  0  0  0  0  0  0  0  0
   37.7940   32.6340   48.5370 C   0  0  0  0  0  0  0  0  0  0  0  0
   38.5570   33.5660   49.2120 C   0  0  0  0  0  0  0  0  0  0  0  0
   39.7120   34.0730   48.6310 C   0  0  0  0  0  0  0  0  0  0  0  0
   40.0930   33.6400   47.3740 C   0  0  0  0  0  0  0  0  0  0  0  0
   39.3150   32.7150   46.7300 C   0  0  0  0  0  0  0  0  0  0  0  0
   38.3150   33.9450   50.1950 H   0  0  0  0  0  0  0  0  0  0  0  0
   40.3240   34.8080   49.1490 H   0  0  0  0  0  0  0  0  0  0  0  0
   40.9870   34.0090   46.8800 H   0  0  0  0  0  0  0  0  0  0  0  0
   39.7360   32.2580   45.3820 C   0  0  0  0  0  0  0  0  0  0  0  0
   40.5710   31.2200   45.0280 C   0  0  0  0  0  0  0  0  0  0  0  0
   40.6460   31.2060   43.6380 C   0  0  0  0  0  0  0  0  0  0  0  0
   39.8380   32.2530   43.2270 C   0  0  0  0  0  0  0  0  0  0  0  0
   39.3110   32.8610   44.2770 O   0  0  0  0  0  0  0  0  0  0  0  0
   41.0540   30.5660   45.7570 H   0  0  0  0  0  0  0  0  0  0  0  0
   41.2160   30.5170   43.0560 H   0  0  0  0  0  0  0  0  0  0  0  0
   39.6510   32.5500   42.2040 H   0  0  0  0  0  0  0  0  0  0  0  0
   36.6830   30.4690   46.1060 N   0  0  0  0  0  0  0  0  0  0  0  0
   37.3480   31.2400   46.6380 C   0  0  0  0  0  0  0  0  0  0  0  0
  1  6  1  0  0  0  0
  2  1  2  0  0  0  0
  2  3  1  0  0  0  0
  3  4  2  0  0  0  0
  4  5  1  0  0  0  0
  5  8  1  0  0  0  0
  6  5  2  0  0  0  0
  7  3  1  0  0  0  0
  9 11  1  0  0  0  0
 10  9  2  0  0  0  0
 11  2  1  0  0  0  0
 12 11  1  0  0  0  0
 13 14  1  0  0  0  0
 14  9  1  0  0  0  0
 15 16  1  0  0  0  0
 15 14  2  0  0  0  0
 17 15  1  0  0  0  0
 18 17  1  0  0  0  0
 19 18  1  0  0  0  0
 20 21  2  0  0  0  0
 20 18  1  0  0  0  0
 21 23  1  0  0  0  0
 22 21  1  0  0  0  0
 23 17  2  0  0  0  0
 23 24  1  0  0  0  0
 24 13  2  0  0  0  0
 25  1  1  0  0  0  0
 26 27  1  0  0  0  0
 27 28  2  0  0  0  0
 27 25  1  0  0  0  0
 28 32  1  0  0  0  0
 29 33  1  0  0  0  0
 29 28  1  0  0  0  0
 30 29  2  0  0  0  0
 31 26  2  0  0  0  0
 31 30  1  0  0  0  0
 34 30  1  0  0  0  0
 35 31  1  0  0  0  0
 36 35  2  0  0  0  0
 36 40  1  0  0  0  0
 37 36  1  0  0  0  0
 38 37  2  0  0  0  0
 38 39  1  0  0  0  0
 39 35  1  0  0  0  0
 41 37  1  0  0  0  0
 42 38  1  0  0  0  0
 43 44  3  0  0  0  0
 44 26  1  0  0  0  0
M  END
>  <minimizedAffinity>
-6.34277248

>  <minimizedRMSD>
0.455711246

$$$$
