
 OpenBabel03272504423D

 48 51  0  0  0  0  0  0  0  0999 V2000
   34.6710   29.3750   48.7490 C   0  0  0  0  0  0  0  0  0  0  0  0
   35.5600   29.4110   49.4170 H   0  0  0  0  0  0  0  0  0  0  0  0
   34.0150   30.2010   49.1570 H   0  0  0  0  0  0  0  0  0  0  0  0
   37.4360   30.4370   48.4950 Cl  0  0  0  0  0  0  0  0  0  0  0  0
   36.3150   30.2770   47.1430 C   0  0  0  0  0  0  0  0  0  0  0  0
   36.7140   30.6550   45.9100 C   0  0  0  0  0  0  0  0  0  0  0  0
   35.8480   30.5360   44.8430 C   0  0  0  0  0  0  0  0  0  0  0  0
   34.5710   30.0240   45.0630 C   0  0  0  0  0  0  0  0  0  0  0  0
   34.2350   29.6550   46.3800 C   0  0  0  0  0  0  0  0  0  0  0  0
   35.0680   29.7640   47.4280 C   0  0  0  0  0  0  0  0  0  0  0  0
   36.1920   30.8480   43.8490 H   0  0  0  0  0  0  0  0  0  0  0  0
   33.9820   29.9730   44.1780 H   0  0  0  0  0  0  0  0  0  0  0  0
   33.2670   29.3090   46.3390 H   0  0  0  0  0  0  0  0  0  0  0  0
   39.7060   32.8100   46.0270 C   0  0  0  0  0  0  0  0  0  0  0  0
   40.5840   32.0820   45.1460 C   0  0  0  0  0  0  0  0  0  0  0  0
   40.1100   30.9020   44.5670 C   0  0  0  0  0  0  0  0  0  0  0  0
   38.8490   30.4880   44.8490 N   0  0  0  0  0  0  0  0  0  0  0  0
   38.0440   31.1920   45.6800 C   0  0  0  0  0  0  0  0  0  0  0  0
   38.4760   32.3280   46.2500 N   0  0  0  0  0  0  0  0  0  0  0  0
   40.0730   33.7220   46.4740 H   0  0  0  0  0  0  0  0  0  0  0  0
   41.5640   32.5130   45.0000 H   0  0  0  0  0  0  0  0  0  0  0  0
   40.9980   30.2240   43.7170 N   0  0  0  0  0  0  0  0  0  0  0  0
   40.7800   30.5820   42.7600 H   0  0  0  0  0  0  0  0  0  0  0  0
   41.7550   29.5020   43.8820 H   0  0  0  0  0  0  0  0  0  0  0  0
   34.0010   28.0880   48.9630 C   0  0  0  0  0  0  0  0  0  0  0  0
   34.0980   27.4250   48.0720 H   0  0  0  0  0  0  0  0  0  0  0  0
   34.4550   27.4840   49.7980 H   0  0  0  0  0  0  0  0  0  0  0  0
   32.6820   28.2550   49.2940 O   0  0  0  0  0  0  0  0  0  0  0  0
   32.5020   26.4840   47.3630 O   0  0  0  0  0  0  0  0  0  0  0  0
   31.7010   27.3840   48.2710 P   0  0  2  0  0  0  0  0  0  0  0  0
   30.8460   28.5410   47.3050 O   0  0  0  0  0  0  0  0  0  0  0  0
   29.2770   27.2230   46.0100 C   0  0  0  0  0  3  0  0  0  0  0  0
   30.3670   28.0670   46.0850 C   0  0  0  0  0  0  0  0  0  0  0  0
   30.9390   28.4050   44.8740 C   0  0  0  0  0  0  0  0  0  0  0  0
   31.8060   29.0720   44.8750 H   0  0  0  0  0  0  0  0  0  0  0  0
   30.4590   27.9320   43.6660 C   0  0  0  0  0  0  0  0  0  0  0  0
   30.7900   28.0760   42.3710 N   0  0  0  0  0  0  0  0  0  0  0  0
   31.5980   28.6680   42.0310 H   0  0  0  0  0  0  0  0  0  0  0  0
   29.9770   27.3840   41.5870 N   0  0  0  0  0  0  0  0  0  0  0  0
   29.0650   26.7470   42.3460 C   0  0  0  0  0  0  0  0  0  0  0  0
   28.2420   26.0870   42.0310 H   0  0  0  0  0  0  0  0  0  0  0  0
   29.3660   27.0890   43.6490 C   0  0  0  0  0  0  0  0  0  0  0  0
   28.7450   26.7140   44.8430 C   0  0  0  0  0  3  0  0  0  0  0  0
   30.5400   26.5040   49.0530 O   0  0  0  0  0  0  0  0  0  0  0  0
   29.7510   27.3140   49.8370 C   0  0  0  0  0  0  0  0  0  0  0  0
   29.2920   26.6620   50.9810 F   0  0  0  0  0  0  0  0  0  0  0  0
   30.4510   28.4110   50.2940 F   0  0  0  0  0  0  0  0  0  0  0  0
   28.6480   27.7560   49.1160 F   0  0  0  0  0  0  0  0  0  0  0  0
  1 25  1  0  0  0  0
  1  3  1  0  0  0  0
  1  2  1  0  0  0  0
  5 10  1  0  0  0  0
  5  4  1  0  0  0  0
  6  5  2  0  0  0  0
  7  8  2  0  0  0  0
  7  6  1  0  0  0  0
  8  9  1  0  0  0  0
  9 10  2  0  0  0  0
 10  1  1  0  0  0  0
 11  7  1  0  0  0  0
 12  8  1  0  0  0  0
 13  9  1  0  0  0  0
 14 19  1  0  0  0  0
 14 20  1  0  0  0  0
 15 14  2  0  0  0  0
 16 17  2  0  0  0  0
 16 15  1  0  0  0  0
 17 18  1  0  0  0  0
 18  6  1  0  0  0  0
 18 19  2  0  0  0  0
 21 15  1  0  0  0  0
 22 24  1  0  0  0  0
 22 16  1  0  0  0  0
 23 22  1  0  0  0  0
 25 28  1  0  0  0  0
 25 27  1  0  0  0  0
 26 25  1  0  0  0  0
 30 29  2  6  0  0  0
 30 44  1  0  0  0  0
 30 28  1  0  0  0  0
 31 30  1  0  0  0  0
 32 33  1  0  0  0  0
 33 31  1  0  0  0  0
 34 35  1  0  0  0  0
 34 33  2  0  0  0  0
 36 34  1  0  0  0  0
 37 36  1  0  0  0  0
 38 37  1  0  0  0  0
 39 40  2  0  0  0  0
 39 37  1  0  0  0  0
 40 42  1  0  0  0  0
 41 40  1  0  0  0  0
 42 36  2  0  0  0  0
 42 43  1  0  0  0  0
 43 32  2  0  0  0  0
 44 45  1  0  0  0  0
 45 47  1  0  0  0  0
 45 46  1  0  0  0  0
 48 45  1  0  0  0  0
M  END
>  <minimizedAffinity>
-5.71623659

>  <minimizedRMSD>
0.680955052

$$$$
