
 OpenBabel03272506463D

 45 49  0  0  1  0  0  0  0  0999 V2000
   30.4540   27.0950   45.6170 O   0  0  0  0  0  0  0  0  0  0  0  0
   31.5720   28.4120   47.3140 C   0  0  2  0  0  0  0  0  0  0  0  0
   32.7640   28.0150   48.1310 C   0  0  1  0  0  0  0  0  0  0  0  0
   32.8860   26.6600   48.0690 O   0  0  0  0  0  0  0  0  0  0  0  0
   32.0660   26.1740   47.0540 C   0  0  0  0  0  0  0  0  0  0  0  0
   31.6820   27.3400   46.1830 C   0  0  1  0  0  0  0  0  0  0  0  0
   30.6070   28.3600   47.8070 H   0  0  0  0  0  0  0  0  0  0  0  0
   32.7020   28.4280   49.1560 H   0  0  0  0  0  0  0  0  0  0  0  0
   31.2620   25.6270   47.5180 H   0  0  0  0  0  0  0  0  0  0  0  0
   32.7420   25.5280   46.4310 H   0  0  0  0  0  0  0  0  0  0  0  0
   32.4770   27.7070   45.5420 H   0  0  0  0  0  0  0  0  0  0  0  0
   31.7560   29.6930   46.7540 O   0  0  0  0  0  0  0  0  0  0  0  0
   32.5140   29.6150   46.1190 H   0  0  0  0  0  0  0  0  0  0  0  0
   34.2480   28.7600   47.3390 S   0  0  0  0  0  0  0  0  0  0  0  0
   36.1110   29.3920   50.7810 C   0  0  0  0  0  0  0  0  0  0  0  0
   36.8070   30.5900   50.5940 C   0  0  0  0  0  0  0  0  0  0  0  0
   36.7000   31.2240   49.3670 C   0  0  0  0  0  0  0  0  0  0  0  0
   35.9230   30.6540   48.3990 N   0  0  0  0  0  0  0  0  0  0  0  0
   35.2640   29.4960   48.6170 C   0  0  0  0  0  0  0  0  0  0  0  0
   35.3480   28.8480   49.8080 N   0  0  0  0  0  0  0  0  0  0  0  0
   36.1350   28.8280   51.7020 H   0  0  0  0  0  0  0  0  0  0  0  0
   37.4050   30.9850   51.4040 H   0  0  0  0  0  0  0  0  0  0  0  0
   37.2120   32.1410   49.1730 H   0  0  0  0  0  0  0  0  0  0  0  0
   29.5300   29.5650   44.3070 Cl  0  0  0  0  0  0  0  0  0  0  0  0
   28.7450   28.6380   45.5630 C   0  0  0  0  0  0  0  0  0  0  0  0
   29.2740   27.4850   46.0920 C   0  0  0  0  0  0  0  0  0  0  0  0
   28.5410   26.8160   47.0760 C   0  0  0  0  0  0  0  0  0  0  0  0
   27.3230   27.3060   47.4970 C   0  0  0  0  0  0  0  0  0  0  0  0
   26.7810   28.4660   46.9700 C   0  0  0  0  0  0  0  0  0  0  0  0
   27.5090   29.1340   45.9910 C   0  0  0  0  0  0  0  0  0  0  0  0
   28.8770   25.9060   47.5410 H   0  0  0  0  0  0  0  0  0  0  0  0
   26.7620   26.7920   48.2510 H   0  0  0  0  0  0  0  0  0  0  0  0
   25.8270   28.8470   47.3040 H   0  0  0  0  0  0  0  0  0  0  0  0
   26.7860   31.3890   46.3720 C   0  0  0  0  0  3  0  0  0  0  0  0
   26.9220   30.3340   45.4610 C   0  0  0  0  0  0  0  0  0  0  0  0
   26.4760   30.5800   44.1830 C   0  0  0  0  0  0  0  0  0  0  0  0
   26.5800   29.7760   43.4970 H   0  0  0  0  0  0  0  0  0  0  0  0
   25.9260   31.7870   43.8080 C   0  0  0  0  0  0  0  0  0  0  0  0
   25.4450   32.1930   42.6200 N   0  0  0  0  0  0  0  0  0  0  0  0
   25.4290   31.5950   41.7620 H   0  0  0  0  0  0  0  0  0  0  0  0
   25.0370   33.4390   42.8010 N   0  0  0  0  0  0  0  0  0  0  0  0
   25.2370   33.8430   44.0590 C   0  0  0  0  0  0  0  0  0  0  0  0
   25.0130   34.7940   44.5170 H   0  0  0  0  0  0  0  0  0  0  0  0
   25.8150   32.7930   44.7440 C   0  0  0  0  0  0  0  0  0  0  0  0
   26.2420   32.6150   46.0470 C   0  0  0  0  0  3  0  0  0  0  0  0
  1 26  1  0  0  0  0
  1  6  1  0  0  0  0
  2  7  1  1  0  0  0
  2  3  1  0  0  0  0
  3  8  1  1  0  0  0
  4  3  1  0  0  0  0
  5  9  1  0  0  0  0
  5  4  1  0  0  0  0
  6 11  1  6  0  0  0
  6  5  1  0  0  0  0
  6  2  1  0  0  0  0
 10  5  1  0  0  0  0
 12  2  1  0  0  0  0
 13 12  1  0  0  0  0
 14  3  1  0  0  0  0
 14 19  1  0  0  0  0
 15 21  1  0  0  0  0
 16 15  1  0  0  0  0
 16 22  1  0  0  0  0
 17 16  2  0  0  0  0
 18 19  2  0  0  0  0
 18 17  1  0  0  0  0
 19 20  1  0  0  0  0
 20 15  2  0  0  0  0
 23 17  1  0  0  0  0
 24 25  1  0  0  0  0
 25 30  2  0  0  0  0
 25 26  1  0  0  0  0
 26 27  2  0  0  0  0
 27 28  1  0  0  0  0
 27 31  1  0  0  0  0
 28 32  1  0  0  0  0
 29 33  1  0  0  0  0
 29 28  2  0  0  0  0
 30 29  1  0  0  0  0
 35 30  1  0  0  0  0
 35 34  2  0  0  0  0
 36 35  1  0  0  0  0
 37 36  1  0  0  0  0
 38 36  2  0  0  0  0
 38 44  1  0  0  0  0
 39 41  1  0  0  0  0
 39 38  1  0  0  0  0
 40 39  1  0  0  0  0
 41 42  2  0  0  0  0
 42 43  1  0  0  0  0
 42 44  1  0  0  0  0
 44 45  2  0  0  0  0
 45 34  1  0  0  0  0
M  END
>  <minimizedAffinity>
-6.23583221

>  <minimizedRMSD>
1.09623241

$$$$
