
 OpenBabel03262522053D

 43 47  0  0  1  0  0  0  0  0999 V2000
   37.7700   31.8730   49.5920 C   0  0  0  0  0  0  0  0  0  0  0  0
   36.7630   32.3680   50.1880 O   0  0  0  0  0  0  0  0  0  0  0  0
   34.5530   29.1530   48.6050 C   0  0  2  0  0  0  0  0  0  0  0  0
   35.1940   28.4080   49.7260 C   0  0  0  0  0  0  0  0  0  0  0  0
   36.3250   29.1830   50.2350 N   0  0  0  0  0  0  0  0  0  0  0  0
   37.2700   29.9100   51.0350 C   0  0  0  0  0  0  0  0  0  0  0  0
   37.4770   30.0840   52.2490 O   0  0  0  0  0  0  0  0  0  0  0  0
   37.9950   30.4430   49.9150 C   0  0  1  0  0  0  0  0  0  0  0  0
   37.1710   29.4460   49.1100 C   0  0  2  0  0  0  0  0  0  0  0  0
   35.9630   30.1630   47.9740 S   0  0  0  0  0  0  0  0  0  0  0  0
   35.4430   27.3590   49.5260 H   0  0  0  0  0  0  0  0  0  0  0  0
   34.4410   28.3950   50.5680 H   0  0  0  0  0  0  0  0  0  0  0  0
   39.0570   30.1280   49.7910 H   0  0  0  0  0  0  0  0  0  0  0  0
   37.7240   28.5800   48.7060 H   0  0  0  0  0  0  0  0  0  0  0  0
   33.3450   29.9590   48.9360 C   0  0  0  0  0  0  0  0  0  0  0  0
   32.5920   29.8360   48.1140 H   0  0  0  0  0  0  0  0  0  0  0  0
   32.9320   29.6690   49.9180 H   0  0  0  0  0  0  0  0  0  0  0  0
   33.6290   31.0310   49.0180 H   0  0  0  0  0  0  0  0  0  0  0  0
   34.2750   28.1540   47.4640 C   0  0  0  0  0  0  0  0  0  0  0  0
   34.9610   27.2950   47.5350 H   0  0  0  0  0  0  0  0  0  0  0  0
   33.2320   27.8160   47.5850 H   0  0  0  0  0  0  0  0  0  0  0  0
   34.3620   28.8350   46.2500 O   0  0  0  0  0  0  0  0  0  0  0  0
   34.1090   28.2060   45.5330 H   0  0  0  0  0  0  0  0  0  0  0  0
   38.5990   32.6300   48.7050 C   0  0  0  0  0  0  0  0  0  0  0  0
   39.2070   33.7640   49.1920 C   0  0  0  0  0  0  0  0  0  0  0  0
   40.0270   34.5100   48.3050 C   0  0  0  0  0  0  0  0  0  0  0  0
   40.1580   34.0490   47.0150 N   0  0  0  0  0  0  0  0  0  0  0  0
   39.5530   32.9540   46.5920 C   0  0  0  0  0  0  0  0  0  0  0  0
   38.7730   32.2350   47.4190 N   0  0  0  0  0  0  0  0  0  0  0  0
   39.0790   34.0980   50.2230 H   0  0  0  0  0  0  0  0  0  0  0  0
   40.5300   35.4100   48.6360 H   0  0  0  0  0  0  0  0  0  0  0  0
   39.2250   33.2170   44.1440 C   0  0  0  0  0  3  0  0  0  0  0  0
   39.7190   32.4990   45.2150 C   0  0  0  0  0  0  0  0  0  0  0  0
   40.3830   31.3210   44.9310 C   0  0  0  0  0  0  0  0  0  0  0  0
   40.7620   30.7750   45.7980 H   0  0  0  0  0  0  0  0  0  0  0  0
   40.5690   30.8420   43.6450 C   0  0  0  0  0  0  0  0  0  0  0  0
   41.1840   29.7250   43.1760 N   0  0  0  0  0  0  0  0  0  0  0  0
   41.6450   29.0090   43.7960 H   0  0  0  0  0  0  0  0  0  0  0  0
   41.0670   29.7610   41.8380 N   0  0  0  0  0  0  0  0  0  0  0  0
   40.3980   30.8690   41.4780 C   0  0  0  0  0  0  0  0  0  0  0  0
   40.1520   31.1650   40.4480 H   0  0  0  0  0  0  0  0  0  0  0  0
   40.0540   31.5980   42.5990 C   0  0  0  0  0  0  0  0  0  0  0  0
   39.3820   32.7820   42.8210 C   0  0  0  0  0  3  0  0  0  0  0  0
  1  8  1  0  0  0  0
  1  2  2  0  0  0  0
  3 19  1  6  0  0  0
  3 15  1  0  0  0  0
  3  4  1  0  0  0  0
  4  5  1  0  0  0  0
  4 12  1  0  0  0  0
  5  6  1  0  0  0  0
  6  7  2  0  0  0  0
  8 13  1  1  0  0  0
  8  6  1  0  0  0  0
  9 14  1  6  0  0  0
  9  8  1  0  0  0  0
  9  5  1  0  0  0  0
 10  3  1  0  0  0  0
 10  9  1  0  0  0  0
 11  4  1  0  0  0  0
 15 18  1  0  0  0  0
 15 17  1  0  0  0  0
 16 15  1  0  0  0  0
 19 20  1  0  0  0  0
 19 21  1  0  0  0  0
 22 19  1  0  0  0  0
 23 22  1  0  0  0  0
 24 25  1  0  0  0  0
 24  1  1  0  0  0  0
 25 30  1  0  0  0  0
 26 31  1  0  0  0  0
 26 25  2  0  0  0  0
 27 26  1  0  0  0  0
 28 27  2  0  0  0  0
 28 29  1  0  0  0  0
 29 24  2  0  0  0  0
 32 33  1  0  0  0  0
 33 28  1  0  0  0  0
 34 33  2  0  0  0  0
 34 35  1  0  0  0  0
 36 34  1  0  0  0  0
 37 36  1  0  0  0  0
 37 38  1  0  0  0  0
 39 37  1  0  0  0  0
 40 39  2  0  0  0  0
 40 42  1  0  0  0  0
 41 40  1  0  0  0  0
 42 43  1  0  0  0  0
 42 36  2  0  0  0  0
 43 32  2  0  0  0  0
M  END
>  <minimizedAffinity>
-6.84551096

>  <minimizedRMSD>
0.836572766

$$$$
