
 OpenBabel03272509493D

 36 39  0  0  0  0  0  0  0  0999 V2000
   37.2680   30.1610   51.5050 C   0  0  0  0  0  0  0  0  0  0  0  0
   38.0080   30.8880   50.5360 C   0  0  0  0  0  0  0  0  0  0  0  0
   37.7250   30.6890   49.2020 C   0  0  0  0  0  0  0  0  0  0  0  0
   36.7380   29.7910   48.9320 N   0  0  0  0  0  0  0  0  0  0  0  0
   36.0480   29.1130   49.8410 C   0  0  0  0  0  0  0  0  0  0  0  0
   36.3190   29.3030   51.1430 N   0  0  0  0  0  0  0  0  0  0  0  0
   37.4780   30.3070   52.5610 H   0  0  0  0  0  0  0  0  0  0  0  0
   38.7600   31.5670   50.8470 H   0  0  0  0  0  0  0  0  0  0  0  0
   38.8950   32.6680   48.2590 C   0  0  0  0  0  3  0  0  0  0  0  0
   38.4230   31.3820   48.1270 C   0  0  0  0  0  0  0  0  0  0  0  0
   38.6150   30.7200   46.9340 C   0  0  0  0  0  0  0  0  0  0  0  0
   38.2410   29.6960   46.8250 H   0  0  0  0  0  0  0  0  0  0  0  0
   39.2660   31.3000   45.8620 C   0  0  0  0  0  0  0  0  0  0  0  0
   39.6010   30.9300   44.6060 N   0  0  0  0  0  0  0  0  0  0  0  0
   39.3610   29.9840   44.2310 H   0  0  0  0  0  0  0  0  0  0  0  0
   40.2350   31.9380   44.0280 N   0  0  0  0  0  0  0  0  0  0  0  0
   40.3200   32.9680   44.8890 C   0  0  0  0  0  0  0  0  0  0  0  0
   40.7920   33.9330   44.6860 H   0  0  0  0  0  0  0  0  0  0  0  0
   39.7120   32.5850   46.0600 C   0  0  0  0  0  0  0  0  0  0  0  0
   39.5560   33.3080   47.2220 C   0  0  0  0  0  3  0  0  0  0  0  0
   35.1140   28.2770   49.2840 O   0  0  0  0  0  0  0  0  0  0  0  0
   34.4120   28.6960   48.1280 C   0  0  0  0  0  0  0  0  0  0  0  0
   35.1480   29.0660   47.3820 H   0  0  0  0  0  0  0  0  0  0  0  0
   33.8210   29.6050   48.4150 H   0  0  0  0  0  0  0  0  0  0  0  0
   33.5420   27.6000   47.6010 C   0  0  0  0  0  0  0  0  0  0  0  0
   33.7430   26.6160   48.0840 H   0  0  0  0  0  0  0  0  0  0  0  0
   33.8010   27.4640   46.5300 H   0  0  0  0  0  0  0  0  0  0  0  0
   32.0980   27.9450   47.6500 C   0  0  0  0  0  0  0  0  0  0  0  0
   31.3900   27.5430   48.7660 C   0  0  0  0  0  0  0  0  0  0  0  0
   30.0510   27.7900   48.9490 C   0  0  0  0  0  0  0  0  0  0  0  0
   29.4010   28.4560   47.9950 N   0  0  0  0  0  0  0  0  0  0  0  0
   30.0880   28.8540   46.8960 C   0  0  0  0  0  0  0  0  0  0  0  0
   31.4060   28.6130   46.7120 N   0  0  0  0  0  0  0  0  0  0  0  0
   31.8580   26.9890   49.5950 H   0  0  0  0  0  0  0  0  0  0  0  0
   29.4970   27.4760   49.8220 H   0  0  0  0  0  0  0  0  0  0  0  0
   29.5660   29.4040   46.1010 H   0  0  0  0  0  0  0  0  0  0  0  0
  1  7  1  0  0  0  0
  2  8  1  0  0  0  0
  2  1  2  0  0  0  0
  3  2  1  0  0  0  0
  4  3  2  0  0  0  0
  4  5  1  0  0  0  0
  5  6  2  0  0  0  0
  6  1  1  0  0  0  0
 10  9  1  0  0  0  0
 10  3  1  0  0  0  0
 11 10  2  0  0  0  0
 12 11  1  0  0  0  0
 13 19  2  0  0  0  0
 13 11  1  0  0  0  0
 14 13  1  0  0  0  0
 15 14  1  0  0  0  0
 16 14  1  0  0  0  0
 16 17  2  0  0  0  0
 17 19  1  0  0  0  0
 18 17  1  0  0  0  0
 19 20  1  0  0  0  0
 20  9  2  0  0  0  0
 21  5  1  0  0  0  0
 22 24  1  0  0  0  0
 22 21  1  0  0  0  0
 23 22  1  0  0  0  0
 25 28  1  0  0  0  0
 25 26  1  0  0  0  0
 25 22  1  0  0  0  0
 27 25  1  0  0  0  0
 28 29  1  0  0  0  0
 29 30  2  0  0  0  0
 29 34  1  0  0  0  0
 30 35  1  0  0  0  0
 31 30  1  0  0  0  0
 32 31  2  0  0  0  0
 33 32  1  0  0  0  0
 33 28  2  0  0  0  0
 36 32  1  0  0  0  0
M  END
>  <minimizedAffinity>
-6.61877966

>  <minimizedRMSD>
1.166888

$$$$
