
 OpenBabel03272509263D

 28 30  0  0  0  0  0  0  0  0999 V2000
   34.4210   28.7410   48.1230 C   0  0  0  0  0  0  0  0  0  0  0  0
   33.6510   27.9140   48.1560 H   0  0  0  0  0  0  0  0  0  0  0  0
   35.3700   28.2320   47.9980 H   0  0  0  0  0  0  0  0  0  0  0  0
   34.2290   29.4880   49.4130 C   0  0  0  0  0  0  0  0  0  0  0  0
   33.5390   30.3420   49.1650 H   0  0  0  0  0  0  0  0  0  0  0  0
   33.7540   28.8130   50.1690 H   0  0  0  0  0  0  0  0  0  0  0  0
   37.4060   31.4490   50.0270 C   0  0  0  0  0  0  0  0  0  0  0  0
   36.1890   31.0730   49.4620 C   0  0  0  0  0  0  0  0  0  0  0  0
   35.5170   29.9710   49.9350 C   0  0  0  0  0  0  0  0  0  0  0  0
   36.1160   29.3020   50.9610 N   0  0  0  0  0  0  0  0  0  0  0  0
   37.2820   29.6670   51.4970 C   0  0  0  0  0  0  0  0  0  0  0  0
   37.9370   30.7400   51.0370 N   0  0  0  0  0  0  0  0  0  0  0  0
   37.8750   32.3320   49.5960 H   0  0  0  0  0  0  0  0  0  0  0  0
   35.7710   31.6330   48.6650 H   0  0  0  0  0  0  0  0  0  0  0  0
   37.7460   29.1260   52.3110 H   0  0  0  0  0  0  0  0  0  0  0  0
   33.9170   29.7690   46.7120 S   0  0  0  0  0  0  0  0  0  0  0  0
   35.2360   29.4280   44.2270 C   0  0  0  0  0  3  0  0  0  0  0  0
   35.2520   29.8790   45.5310 C   0  0  0  0  0  0  0  0  0  0  0  0
   36.3760   30.4920   46.0580 C   0  0  0  0  0  0  0  0  0  0  0  0
   36.4820   30.8790   47.0730 H   0  0  0  0  0  0  0  0  0  0  0  0
   37.5200   30.6680   45.2850 C   0  0  0  0  0  0  0  0  0  0  0  0
   38.7500   31.2180   45.5080 N   0  0  0  0  0  0  0  0  0  0  0  0
   39.0350   31.6410   46.4300 H   0  0  0  0  0  0  0  0  0  0  0  0
   39.4600   31.1150   44.4060 N   0  0  0  0  0  0  0  0  0  0  0  0
   38.7350   30.5070   43.4420 C   0  0  0  0  0  0  0  0  0  0  0  0
   39.0860   30.3000   42.4390 H   0  0  0  0  0  0  0  0  0  0  0  0
   37.4980   30.2110   43.9670 C   0  0  0  0  0  0  0  0  0  0  0  0
   36.3780   29.6110   43.4720 C   0  0  0  0  0  3  0  0  0  0  0  0
  1  2  1  0  0  0  0
  1  4  1  0  0  0  0
  3  1  1  0  0  0  0
  4  9  1  0  0  0  0
  4  6  1  0  0  0  0
  5  4  1  0  0  0  0
  7 12  1  0  0  0  0
  8  9  1  0  0  0  0
  8  7  2  0  0  0  0
  9 10  2  0  0  0  0
 10 11  1  0  0  0  0
 11 15  1  0  0  0  0
 12 11  2  0  0  0  0
 13  7  1  0  0  0  0
 14  8  1  0  0  0  0
 16  1  1  0  0  0  0
 17 18  1  0  0  0  0
 18 19  2  0  0  0  0
 18 16  1  0  0  0  0
 19 20  1  0  0  0  0
 21 22  1  0  0  0  0
 21 19  1  0  0  0  0
 22 23  1  0  0  0  0
 24 22  1  0  0  0  0
 25 27  1  0  0  0  0
 25 24  2  0  0  0  0
 26 25  1  0  0  0  0
 27 21  2  0  0  0  0
 28 27  1  0  0  0  0
 28 17  2  0  0  0  0
M  END
>  <minimizedAffinity>
-4.26670265

>  <minimizedRMSD>
6.73784399

$$$$
