
 OpenBabel03272504423D

 48 51  0  0  0  0  0  0  0  0999 V2000
   34.7800   29.3860   48.8130 C   0  0  0  0  0  0  0  0  0  0  0  0
   35.6830   29.4070   49.4640 H   0  0  0  0  0  0  0  0  0  0  0  0
   34.1420   30.2160   49.2410 H   0  0  0  0  0  0  0  0  0  0  0  0
   37.5420   30.4450   48.5170 Cl  0  0  0  0  0  0  0  0  0  0  0  0
   36.3980   30.2930   47.1840 C   0  0  0  0  0  0  0  0  0  0  0  0
   36.7760   30.6760   45.9460 C   0  0  0  0  0  0  0  0  0  0  0  0
   35.8920   30.5620   44.8930 C   0  0  0  0  0  0  0  0  0  0  0  0
   34.6180   30.0510   45.1330 C   0  0  0  0  0  0  0  0  0  0  0  0
   34.3040   29.6770   46.4530 C   0  0  0  0  0  0  0  0  0  0  0  0
   35.1550   29.7810   47.4880 C   0  0  0  0  0  0  0  0  0  0  0  0
   36.2190   30.8780   43.8940 H   0  0  0  0  0  0  0  0  0  0  0  0
   34.0140   30.0050   44.2570 H   0  0  0  0  0  0  0  0  0  0  0  0
   33.3340   29.3330   46.4280 H   0  0  0  0  0  0  0  0  0  0  0  0
   39.7670   32.8330   46.0090 C   0  0  0  0  0  0  0  0  0  0  0  0
   40.6360   32.0990   45.1240 C   0  0  0  0  0  0  0  0  0  0  0  0
   40.1550   30.9140   44.5590 C   0  0  0  0  0  0  0  0  0  0  0  0
   38.8980   30.5020   44.8600 N   0  0  0  0  0  0  0  0  0  0  0  0
   38.1030   31.2120   45.6950 C   0  0  0  0  0  0  0  0  0  0  0  0
   38.5400   32.3520   46.2510 N   0  0  0  0  0  0  0  0  0  0  0  0
   40.1400   33.7490   46.4450 H   0  0  0  0  0  0  0  0  0  0  0  0
   41.6130   32.5300   44.9620 H   0  0  0  0  0  0  0  0  0  0  0  0
   41.0340   30.2310   43.7040 N   0  0  0  0  0  0  0  0  0  0  0  0
   40.8030   30.5810   42.7470 H   0  0  0  0  0  0  0  0  0  0  0  0
   41.7920   29.5110   43.8650 H   0  0  0  0  0  0  0  0  0  0  0  0
   34.1000   28.1050   49.0310 C   0  0  0  0  0  0  0  0  0  0  0  0
   34.2170   27.4270   48.1550 H   0  0  0  0  0  0  0  0  0  0  0  0
   34.5300   27.5140   49.8880 H   0  0  0  0  0  0  0  0  0  0  0  0
   32.7740   28.2820   49.3260 O   0  0  0  0  0  0  0  0  0  0  0  0
   32.6360   26.5310   47.3730 O   0  0  0  0  0  0  0  0  0  0  0  0
   31.8150   27.4170   48.2770 P   0  0  2  0  0  0  0  0  0  0  0  0
   30.9720   28.5820   47.3070 O   0  0  0  0  0  0  0  0  0  0  0  0
   29.5010   27.2530   45.9120 C   0  0  0  0  0  3  0  0  0  0  0  0
   30.5560   28.1310   46.0550 C   0  0  0  0  0  0  0  0  0  0  0  0
   31.1620   28.5260   44.8790 C   0  0  0  0  0  0  0  0  0  0  0  0
   32.0060   29.2210   44.9320 H   0  0  0  0  0  0  0  0  0  0  0  0
   30.7450   28.0760   43.6390 C   0  0  0  0  0  0  0  0  0  0  0  0
   31.1190   28.2720   42.3620 N   0  0  0  0  0  0  0  0  0  0  0  0
   31.9170   28.9000   42.0730 H   0  0  0  0  0  0  0  0  0  0  0  0
   30.3610   27.5770   41.5270 N   0  0  0  0  0  0  0  0  0  0  0  0
   29.4440   26.8860   42.2290 C   0  0  0  0  0  0  0  0  0  0  0  0
   28.6570   26.2100   41.8630 H   0  0  0  0  0  0  0  0  0  0  0  0
   29.6830   27.1970   43.5530 C   0  0  0  0  0  0  0  0  0  0  0  0
   29.0310   26.7640   44.7100 C   0  0  0  0  0  3  0  0  0  0  0  0
   30.6440   26.5260   49.0280 O   0  0  0  0  0  0  0  0  0  0  0  0
   29.8230   27.3270   49.7890 C   0  0  0  0  0  0  0  0  0  0  0  0
   29.3140   26.6610   50.9020 F   0  0  0  0  0  0  0  0  0  0  0  0
   30.5060   28.4150   50.2900 F   0  0  0  0  0  0  0  0  0  0  0  0
   28.7530   27.7820   49.0260 F   0  0  0  0  0  0  0  0  0  0  0  0
  1 25  1  0  0  0  0
  1  3  1  0  0  0  0
  1  2  1  0  0  0  0
  5 10  1  0  0  0  0
  5  4  1  0  0  0  0
  6  5  2  0  0  0  0
  7  8  2  0  0  0  0
  7  6  1  0  0  0  0
  8  9  1  0  0  0  0
  9 10  2  0  0  0  0
 10  1  1  0  0  0  0
 11  7  1  0  0  0  0
 12  8  1  0  0  0  0
 13  9  1  0  0  0  0
 14 19  1  0  0  0  0
 14 20  1  0  0  0  0
 15 14  2  0  0  0  0
 16 17  2  0  0  0  0
 16 15  1  0  0  0  0
 17 18  1  0  0  0  0
 18  6  1  0  0  0  0
 18 19  2  0  0  0  0
 21 15  1  0  0  0  0
 22 24  1  0  0  0  0
 22 16  1  0  0  0  0
 23 22  1  0  0  0  0
 25 28  1  0  0  0  0
 25 27  1  0  0  0  0
 26 25  1  0  0  0  0
 30 29  2  6  0  0  0
 30 44  1  0  0  0  0
 30 28  1  0  0  0  0
 31 30  1  0  0  0  0
 32 33  1  0  0  0  0
 33 31  1  0  0  0  0
 34 35  1  0  0  0  0
 34 33  2  0  0  0  0
 36 34  1  0  0  0  0
 37 36  1  0  0  0  0
 38 37  1  0  0  0  0
 39 40  2  0  0  0  0
 39 37  1  0  0  0  0
 40 42  1  0  0  0  0
 41 40  1  0  0  0  0
 42 36  2  0  0  0  0
 42 43  1  0  0  0  0
 43 32  2  0  0  0  0
 44 45  1  0  0  0  0
 45 47  1  0  0  0  0
 45 46  1  0  0  0  0
 48 45  1  0  0  0  0
M  END
>  <minimizedAffinity>
-5.69562387

>  <minimizedRMSD>
0.243852004

$$$$
