
 OpenBabel03262522053D

 43 47  0  0  1  0  0  0  0  0999 V2000
   37.7660   31.8640   49.6550 C   0  0  0  0  0  0  0  0  0  0  0  0
   36.7750   32.3790   50.2620 O   0  0  0  0  0  0  0  0  0  0  0  0
   34.5500   29.1610   48.6170 C   0  0  2  0  0  0  0  0  0  0  0  0
   35.1650   28.4160   49.7520 C   0  0  0  0  0  0  0  0  0  0  0  0
   36.2910   29.1860   50.2800 N   0  0  0  0  0  0  0  0  0  0  0  0
   37.2260   29.9100   51.0950 C   0  0  0  0  0  0  0  0  0  0  0  0
   37.4110   30.0870   52.3110 O   0  0  0  0  0  0  0  0  0  0  0  0
   37.9750   30.4340   49.9860 C   0  0  1  0  0  0  0  0  0  0  0  0
   37.1600   29.4390   49.1690 C   0  0  2  0  0  0  0  0  0  0  0  0
   35.9780   30.1600   48.0090 S   0  0  0  0  0  0  0  0  0  0  0  0
   35.4100   27.3650   49.5600 H   0  0  0  0  0  0  0  0  0  0  0  0
   34.3960   28.4110   50.5790 H   0  0  0  0  0  0  0  0  0  0  0  0
   39.0370   30.1110   49.8840 H   0  0  0  0  0  0  0  0  0  0  0  0
   37.7150   28.5680   48.7790 H   0  0  0  0  0  0  0  0  0  0  0  0
   33.3410   29.9760   48.9220 C   0  0  0  0  0  0  0  0  0  0  0  0
   32.6030   29.8560   48.0860 H   0  0  0  0  0  0  0  0  0  0  0  0
   32.9080   29.6930   49.8970 H   0  0  0  0  0  0  0  0  0  0  0  0
   33.6310   31.0470   49.0050 H   0  0  0  0  0  0  0  0  0  0  0  0
   34.2870   28.1600   47.4740 C   0  0  0  0  0  0  0  0  0  0  0  0
   34.9830   27.3090   47.5470 H   0  0  0  0  0  0  0  0  0  0  0  0
   33.2470   27.8100   47.5920 H   0  0  0  0  0  0  0  0  0  0  0  0
   34.3700   28.8430   46.2610 O   0  0  0  0  0  0  0  0  0  0  0  0
   34.1260   28.2120   45.5430 H   0  0  0  0  0  0  0  0  0  0  0  0
   38.5910   32.6010   48.7490 C   0  0  0  0  0  0  0  0  0  0  0  0
   39.1670   33.7670   49.1960 C   0  0  0  0  0  0  0  0  0  0  0  0
   39.9850   34.4940   48.2900 C   0  0  0  0  0  0  0  0  0  0  0  0
   40.1460   33.9830   47.0230 N   0  0  0  0  0  0  0  0  0  0  0  0
   39.5710   32.8570   46.6370 C   0  0  0  0  0  0  0  0  0  0  0  0
   38.7940   32.1570   47.4830 N   0  0  0  0  0  0  0  0  0  0  0  0
   39.0160   34.1420   50.2100 H   0  0  0  0  0  0  0  0  0  0  0  0
   40.4630   35.4180   48.5900 H   0  0  0  0  0  0  0  0  0  0  0  0
   40.5140   31.2140   45.0320 C   0  0  0  0  0  3  0  0  0  0  0  0
   39.7680   32.3480   45.2840 C   0  0  0  0  0  0  0  0  0  0  0  0
   39.2100   32.9890   44.1950 C   0  0  0  0  0  0  0  0  0  0  0  0
   38.6260   33.8840   44.4260 H   0  0  0  0  0  0  0  0  0  0  0  0
   39.3650   32.5510   42.8900 C   0  0  0  0  0  0  0  0  0  0  0  0
   38.9000   33.0410   41.7110 N   0  0  0  0  0  0  0  0  0  0  0  0
   38.3020   33.9040   41.6330 H   0  0  0  0  0  0  0  0  0  0  0  0
   39.3560   32.2170   40.7530 N   0  0  0  0  0  0  0  0  0  0  0  0
   40.0860   31.2390   41.3160 C   0  0  0  0  0  0  0  0  0  0  0  0
   40.5860   30.4200   40.7780 H   0  0  0  0  0  0  0  0  0  0  0  0
   40.1230   31.4070   42.6860 C   0  0  0  0  0  0  0  0  0  0  0  0
   40.7050   30.7240   43.7330 C   0  0  0  0  0  3  0  0  0  0  0  0
  1  8  1  0  0  0  0
  1  2  2  0  0  0  0
  3 19  1  6  0  0  0
  3 15  1  0  0  0  0
  3  4  1  0  0  0  0
  4  5  1  0  0  0  0
  4 12  1  0  0  0  0
  5  6  1  0  0  0  0
  6  7  2  0  0  0  0
  8 13  1  1  0  0  0
  8  6  1  0  0  0  0
  9 14  1  6  0  0  0
  9  8  1  0  0  0  0
  9  5  1  0  0  0  0
 10  3  1  0  0  0  0
 10  9  1  0  0  0  0
 11  4  1  0  0  0  0
 15 18  1  0  0  0  0
 15 17  1  0  0  0  0
 16 15  1  0  0  0  0
 19 20  1  0  0  0  0
 19 21  1  0  0  0  0
 22 19  1  0  0  0  0
 23 22  1  0  0  0  0
 24 25  1  0  0  0  0
 24  1  1  0  0  0  0
 25 30  1  0  0  0  0
 26 31  1  0  0  0  0
 26 25  2  0  0  0  0
 27 26  1  0  0  0  0
 28 27  2  0  0  0  0
 28 29  1  0  0  0  0
 29 24  2  0  0  0  0
 32 33  1  0  0  0  0
 33 28  1  0  0  0  0
 34 35  1  0  0  0  0
 34 33  2  0  0  0  0
 36 34  1  0  0  0  0
 37 36  1  0  0  0  0
 38 37  1  0  0  0  0
 39 40  2  0  0  0  0
 39 37  1  0  0  0  0
 40 42  1  0  0  0  0
 41 40  1  0  0  0  0
 42 36  2  0  0  0  0
 42 43  1  0  0  0  0
 43 32  2  0  0  0  0
M  END
>  <minimizedAffinity>
-6.57984352

>  <minimizedRMSD>
0.920337021

$$$$
