
 OpenBabel03272507423D

 44 48  0  0  0  0  0  0  0  0999 V2000
   36.6530   31.1740   50.0920 C   0  0  0  0  0  0  0  0  0  0  0  0
   35.5780   30.3120   49.8970 C   0  0  0  0  0  0  0  0  0  0  0  0
   35.3730   29.2020   50.6870 C   0  0  0  0  0  0  0  0  0  0  0  0
   36.2790   28.9810   51.6790 N   0  0  0  0  0  0  0  0  0  0  0  0
   37.3330   29.8290   51.8680 C   0  0  0  0  0  0  0  0  0  0  0  0
   37.4970   30.8880   51.0870 N   0  0  0  0  0  0  0  0  0  0  0  0
   34.5830   28.5010   50.6040 H   0  0  0  0  0  0  0  0  0  0  0  0
   38.0350   29.6200   52.6680 H   0  0  0  0  0  0  0  0  0  0  0  0
   34.2230   29.3600   48.0680 C   0  0  0  0  0  0  0  0  0  0  0  0
   34.7290   28.1850   47.9220 O   0  0  0  0  0  0  0  0  0  0  0  0
   34.5910   30.4420   48.9000 N   0  0  0  0  0  0  0  0  0  0  0  0
   34.1940   31.3970   48.8640 H   0  0  0  0  0  0  0  0  0  0  0  0
   32.9400   30.5910   46.3210 C   0  0  0  0  0  3  0  0  0  0  0  0
   33.0700   29.5220   47.1820 C   0  0  0  0  0  0  0  0  0  0  0  0
   32.0150   28.6380   47.1200 C   0  0  0  0  0  0  0  0  0  0  0  0
   32.0000   27.7590   47.7470 H   0  0  0  0  0  0  0  0  0  0  0  0
   30.9140   28.7540   46.3010 C   0  0  0  0  0  0  0  0  0  0  0  0
   29.8050   28.0200   46.0940 N   0  0  0  0  0  0  0  0  0  0  0  0
   29.5510   27.1340   46.5660 H   0  0  0  0  0  0  0  0  0  0  0  0
   29.0730   28.6170   45.1730 N   0  0  0  0  0  0  0  0  0  0  0  0
   29.6630   29.7450   44.7490 C   0  0  0  0  0  0  0  0  0  0  0  0
   29.3450   30.4600   44.0170 H   0  0  0  0  0  0  0  0  0  0  0  0
   30.8390   29.8450   45.4610 C   0  0  0  0  0  0  0  0  0  0  0  0
   31.8530   30.7780   45.4610 C   0  0  0  0  0  3  0  0  0  0  0  0
   36.6760   32.2020   49.2170 O   0  0  0  0  0  0  0  0  0  0  0  0
   38.1750   32.1790   47.2570 C   0  0  0  0  0  0  0  0  0  0  0  0
   37.7870   32.6150   48.5160 C   0  0  0  0  0  0  0  0  0  0  0  0
   38.5480   33.5550   49.1820 C   0  0  0  0  0  0  0  0  0  0  0  0
   39.6990   34.0620   48.5940 C   0  0  0  0  0  0  0  0  0  0  0  0
   40.0780   33.6210   47.3390 C   0  0  0  0  0  0  0  0  0  0  0  0
   39.3020   32.6880   46.7040 C   0  0  0  0  0  0  0  0  0  0  0  0
   38.3070   33.9390   50.1620 H   0  0  0  0  0  0  0  0  0  0  0  0
   40.3100   34.8020   49.1050 H   0  0  0  0  0  0  0  0  0  0  0  0
   40.9690   33.9890   46.8400 H   0  0  0  0  0  0  0  0  0  0  0  0
   39.7210   32.2240   45.3580 C   0  0  0  0  0  0  0  0  0  0  0  0
   40.5860   31.2090   45.0100 C   0  0  0  0  0  0  0  0  0  0  0  0
   40.6430   31.1740   43.6190 C   0  0  0  0  0  0  0  0  0  0  0  0
   39.7940   32.1850   43.2010 C   0  0  0  0  0  0  0  0  0  0  0  0
   39.2610   32.7930   44.2490 O   0  0  0  0  0  0  0  0  0  0  0  0
   41.1010   30.5840   45.7420 H   0  0  0  0  0  0  0  0  0  0  0  0
   41.2290   30.4950   43.0410 H   0  0  0  0  0  0  0  0  0  0  0  0
   39.5830   32.4590   42.1770 H   0  0  0  0  0  0  0  0  0  0  0  0
   36.6760   30.4290   46.1030 N   0  0  0  0  0  0  0  0  0  0  0  0
   37.3400   31.2060   46.6280 C   0  0  0  0  0  0  0  0  0  0  0  0
  1  6  1  0  0  0  0
  2  1  2  0  0  0  0
  2  3  1  0  0  0  0
  3  4  2  0  0  0  0
  4  5  1  0  0  0  0
  5  8  1  0  0  0  0
  6  5  2  0  0  0  0
  7  3  1  0  0  0  0
  9 11  1  0  0  0  0
 10  9  2  0  0  0  0
 11  2  1  0  0  0  0
 12 11  1  0  0  0  0
 13 14  1  0  0  0  0
 14  9  1  0  0  0  0
 15 14  2  0  0  0  0
 15 16  1  0  0  0  0
 17 15  1  0  0  0  0
 18 17  1  0  0  0  0
 18 19  1  0  0  0  0
 20 18  1  0  0  0  0
 21 20  2  0  0  0  0
 21 23  1  0  0  0  0
 22 21  1  0  0  0  0
 23 17  2  0  0  0  0
 24 23  1  0  0  0  0
 24 13  2  0  0  0  0
 25  1  1  0  0  0  0
 26 27  1  0  0  0  0
 27 28  2  0  0  0  0
 27 25  1  0  0  0  0
 28 32  1  0  0  0  0
 29 33  1  0  0  0  0
 29 28  1  0  0  0  0
 30 29  2  0  0  0  0
 31 26  2  0  0  0  0
 31 30  1  0  0  0  0
 34 30  1  0  0  0  0
 35 31  1  0  0  0  0
 36 35  2  0  0  0  0
 36 40  1  0  0  0  0
 37 36  1  0  0  0  0
 38 37  2  0  0  0  0
 38 39  1  0  0  0  0
 39 35  1  0  0  0  0
 41 37  1  0  0  0  0
 42 38  1  0  0  0  0
 43 44  3  0  0  0  0
 44 26  1  0  0  0  0
M  END
>  <minimizedAffinity>
-6.28855371

>  <minimizedRMSD>
0.742351413

$$$$
