
 OpenBabel03272509493D

 36 39  0  0  0  0  0  0  0  0999 V2000
   37.2200   30.1250   51.4880 C   0  0  0  0  0  0  0  0  0  0  0  0
   37.8010   30.8000   50.3830 C   0  0  0  0  0  0  0  0  0  0  0  0
   37.2980   30.5600   49.1220 C   0  0  0  0  0  0  0  0  0  0  0  0
   36.2650   29.6770   49.0550 N   0  0  0  0  0  0  0  0  0  0  0  0
   35.7230   29.0470   50.0910 C   0  0  0  0  0  0  0  0  0  0  0  0
   36.2100   29.2780   51.3210 N   0  0  0  0  0  0  0  0  0  0  0  0
   37.6050   30.3040   52.4880 H   0  0  0  0  0  0  0  0  0  0  0  0
   38.6070   31.4720   50.5380 H   0  0  0  0  0  0  0  0  0  0  0  0
   38.8840   32.0690   47.9480 C   0  0  0  0  0  3  0  0  0  0  0  0
   37.8200   31.1980   47.9200 C   0  0  0  0  0  0  0  0  0  0  0  0
   37.2200   30.9140   46.7120 C   0  0  0  0  0  0  0  0  0  0  0  0
   36.3720   30.2200   46.6870 H   0  0  0  0  0  0  0  0  0  0  0  0
   37.6490   31.4730   45.5240 C   0  0  0  0  0  0  0  0  0  0  0  0
   37.2880   31.4010   44.2240 N   0  0  0  0  0  0  0  0  0  0  0  0
   36.4910   30.8000   43.9100 H   0  0  0  0  0  0  0  0  0  0  0  0
   38.0900   32.1830   43.5230 N   0  0  0  0  0  0  0  0  0  0  0  0
   38.9770   32.7710   44.3450 C   0  0  0  0  0  0  0  0  0  0  0  0
   39.7630   33.4700   44.0440 H   0  0  0  0  0  0  0  0  0  0  0  0
   38.7160   32.3350   45.6200 C   0  0  0  0  0  0  0  0  0  0  0  0
   39.3630   32.6650   46.7900 C   0  0  0  0  0  3  0  0  0  0  0  0
   34.6950   28.2150   49.7280 O   0  0  0  0  0  0  0  0  0  0  0  0
   33.8100   28.6160   48.7000 C   0  0  0  0  0  0  0  0  0  0  0  0
   34.4070   29.0330   47.8600 H   0  0  0  0  0  0  0  0  0  0  0  0
   33.2260   29.4890   49.0910 H   0  0  0  0  0  0  0  0  0  0  0  0
   32.9230   27.4850   48.2830 C   0  0  0  0  0  0  0  0  0  0  0  0
   33.0610   26.5730   48.9090 H   0  0  0  0  0  0  0  0  0  0  0  0
   33.2290   27.1910   47.2570 H   0  0  0  0  0  0  0  0  0  0  0  0
   31.4940   27.8810   48.2060 C   0  0  0  0  0  0  0  0  0  0  0  0
   30.7230   27.6880   49.3350 C   0  0  0  0  0  0  0  0  0  0  0  0
   29.3880   28.0050   49.4100 C   0  0  0  0  0  0  0  0  0  0  0  0
   28.8070   28.5290   48.3320 N   0  0  0  0  0  0  0  0  0  0  0  0
   29.5560   28.7220   47.2190 C   0  0  0  0  0  0  0  0  0  0  0  0
   30.8700   28.4120   47.1400 N   0  0  0  0  0  0  0  0  0  0  0  0
   31.1310   27.2600   50.2640 H   0  0  0  0  0  0  0  0  0  0  0  0
   28.7840   27.8550   50.2950 H   0  0  0  0  0  0  0  0  0  0  0  0
   29.0920   29.1540   46.3210 H   0  0  0  0  0  0  0  0  0  0  0  0
  1  7  1  0  0  0  0
  2  8  1  0  0  0  0
  2  1  2  0  0  0  0
  3  2  1  0  0  0  0
  4  3  2  0  0  0  0
  4  5  1  0  0  0  0
  5  6  2  0  0  0  0
  6  1  1  0  0  0  0
 10  9  1  0  0  0  0
 10  3  1  0  0  0  0
 11 10  2  0  0  0  0
 12 11  1  0  0  0  0
 13 19  2  0  0  0  0
 13 11  1  0  0  0  0
 14 13  1  0  0  0  0
 15 14  1  0  0  0  0
 16 14  1  0  0  0  0
 16 17  2  0  0  0  0
 17 19  1  0  0  0  0
 18 17  1  0  0  0  0
 19 20  1  0  0  0  0
 20  9  2  0  0  0  0
 21  5  1  0  0  0  0
 22 24  1  0  0  0  0
 22 21  1  0  0  0  0
 23 22  1  0  0  0  0
 25 22  1  0  0  0  0
 25 26  1  0  0  0  0
 27 25  1  0  0  0  0
 28 25  1  0  0  0  0
 28 29  1  0  0  0  0
 29 30  2  0  0  0  0
 29 34  1  0  0  0  0
 30 35  1  0  0  0  0
 31 30  1  0  0  0  0
 32 31  2  0  0  0  0
 33 32  1  0  0  0  0
 33 28  2  0  0  0  0
 36 32  1  0  0  0  0
M  END
>  <minimizedAffinity>
-6.51590824

>  <minimizedRMSD>
0.725897491

$$$$
