
 OpenBabel03272506463D

 45 49  0  0  1  0  0  0  0  0999 V2000
   31.1660   26.9090   45.7510 O   0  0  0  0  0  0  0  0  0  0  0  0
   32.0240   28.3680   47.4820 C   0  0  2  0  0  0  0  0  0  0  0  0
   33.2760   28.1830   48.2860 C   0  0  1  0  0  0  0  0  0  0  0  0
   33.6520   26.8770   48.1870 O   0  0  0  0  0  0  0  0  0  0  0  0
   32.9330   26.2730   47.1600 C   0  0  0  0  0  0  0  0  0  0  0  0
   32.3290   27.3670   46.3220 C   0  0  1  0  0  0  0  0  0  0  0  0
   31.0900   28.1200   47.9750 H   0  0  0  0  0  0  0  0  0  0  0  0
   33.1440   28.5490   49.3230 H   0  0  0  0  0  0  0  0  0  0  0  0
   32.2500   25.5710   47.6090 H   0  0  0  0  0  0  0  0  0  0  0  0
   33.7150   25.7830   46.5190 H   0  0  0  0  0  0  0  0  0  0  0  0
   33.0360   27.8950   45.6910 H   0  0  0  0  0  0  0  0  0  0  0  0
   31.9580   29.6760   46.9570 O   0  0  0  0  0  0  0  0  0  0  0  0
   32.7140   29.7590   46.3190 H   0  0  0  0  0  0  0  0  0  0  0  0
   34.5870   29.2170   47.5130 S   0  0  0  0  0  0  0  0  0  0  0  0
   37.0190   29.2340   50.6440 C   0  0  0  0  0  0  0  0  0  0  0  0
   37.4220   30.5670   50.7740 C   0  0  0  0  0  0  0  0  0  0  0  0
   36.9290   31.4900   49.8670 C   0  0  0  0  0  0  0  0  0  0  0  0
   36.0750   31.0620   48.8910 N   0  0  0  0  0  0  0  0  0  0  0  0
   35.7070   29.7660   48.7970 C   0  0  0  0  0  0  0  0  0  0  0  0
   36.1730   28.8340   49.6690 N   0  0  0  0  0  0  0  0  0  0  0  0
   37.3510   28.4460   51.3030 H   0  0  0  0  0  0  0  0  0  0  0  0
   38.1020   30.8370   51.5700 H   0  0  0  0  0  0  0  0  0  0  0  0
   37.2070   32.5200   49.9220 H   0  0  0  0  0  0  0  0  0  0  0  0
   30.0280   29.1400   44.2030 Cl  0  0  0  0  0  0  0  0  0  0  0  0
   29.2960   28.2290   45.5020 C   0  0  0  0  0  0  0  0  0  0  0  0
   29.9280   27.1930   46.1460 C   0  0  0  0  0  0  0  0  0  0  0  0
   29.2300   26.5220   47.1540 C   0  0  0  0  0  0  0  0  0  0  0  0
   27.9450   26.8960   47.4850 C   0  0  0  0  0  0  0  0  0  0  0  0
   27.2990   27.9380   46.8420 C   0  0  0  0  0  0  0  0  0  0  0  0
   27.9920   28.6070   45.8390 C   0  0  0  0  0  0  0  0  0  0  0  0
   29.6460   25.6970   47.7070 H   0  0  0  0  0  0  0  0  0  0  0  0
   27.4120   26.3800   48.2580 H   0  0  0  0  0  0  0  0  0  0  0  0
   26.2930   28.2270   47.1060 H   0  0  0  0  0  0  0  0  0  0  0  0
   26.6970   29.3570   43.9640 C   0  0  0  0  0  3  0  0  0  0  0  0
   27.2960   29.6830   45.1870 C   0  0  0  0  0  0  0  0  0  0  0  0
   27.1430   30.9840   45.6040 C   0  0  0  0  0  0  0  0  0  0  0  0
   27.6010   31.2270   46.5310 H   0  0  0  0  0  0  0  0  0  0  0  0
   26.4460   31.9220   44.8720 C   0  0  0  0  0  0  0  0  0  0  0  0
   26.2020   33.2200   45.1260 N   0  0  0  0  0  0  0  0  0  0  0  0
   26.5390   33.7210   45.9810 H   0  0  0  0  0  0  0  0  0  0  0  0
   25.4880   33.6610   44.1040 N   0  0  0  0  0  0  0  0  0  0  0  0
   25.2660   32.6950   43.2070 C   0  0  0  0  0  0  0  0  0  0  0  0
   24.7230   32.7370   42.2760 H   0  0  0  0  0  0  0  0  0  0  0  0
   25.8750   31.5480   43.6740 C   0  0  0  0  0  0  0  0  0  0  0  0
   25.9890   30.2570   43.1940 C   0  0  0  0  0  3  0  0  0  0  0  0
  1 26  1  0  0  0  0
  1  6  1  0  0  0  0
  2  7  1  1  0  0  0
  2  3  1  0  0  0  0
  3  8  1  1  0  0  0
  4  3  1  0  0  0  0
  5  9  1  0  0  0  0
  5  4  1  0  0  0  0
  6 11  1  6  0  0  0
  6  5  1  0  0  0  0
  6  2  1  0  0  0  0
 10  5  1  0  0  0  0
 12  2  1  0  0  0  0
 13 12  1  0  0  0  0
 14  3  1  0  0  0  0
 14 19  1  0  0  0  0
 15 16  1  0  0  0  0
 15 21  1  0  0  0  0
 16 22  1  0  0  0  0
 17 23  1  0  0  0  0
 17 16  2  0  0  0  0
 18 17  1  0  0  0  0
 19 18  2  0  0  0  0
 19 20  1  0  0  0  0
 20 15  2  0  0  0  0
 24 25  1  0  0  0  0
 25 30  2  0  0  0  0
 25 26  1  0  0  0  0
 26 27  2  0  0  0  0
 27 28  1  0  0  0  0
 27 31  1  0  0  0  0
 28 32  1  0  0  0  0
 29 33  1  0  0  0  0
 29 28  2  0  0  0  0
 30 29  1  0  0  0  0
 34 35  1  0  0  0  0
 35 36  2  0  0  0  0
 35 30  1  0  0  0  0
 36 37  1  0  0  0  0
 38 39  1  0  0  0  0
 38 36  1  0  0  0  0
 39 40  1  0  0  0  0
 41 39  1  0  0  0  0
 42 44  1  0  0  0  0
 42 41  2  0  0  0  0
 43 42  1  0  0  0  0
 44 38  2  0  0  0  0
 45 44  1  0  0  0  0
 45 34  2  0  0  0  0
M  END
>  <minimizedAffinity>
-6.08151102

>  <minimizedRMSD>
0.457838565

$$$$
