
 OpenBabel03262521533D

 26 28  0  0  0  0  0  0  0  0999 V2000
   35.1040   29.3010   50.3900 C   0  0  0  0  0  0  0  0  0  0  0  0
   34.6190   28.7020   51.2000 H   0  0  0  0  0  0  0  0  0  0  0  0
   34.5850   30.2810   50.3480 H   0  0  0  0  0  0  0  0  0  0  0  0
   36.8540   29.5600   50.7330 S   0  0  0  0  0  0  0  0  0  0  0  0
   37.5120   30.6840   49.5040 C   0  0  0  0  0  0  0  0  0  0  0  0
   37.5920   31.9950   49.9370 C   0  0  0  0  0  0  0  0  0  0  0  0
   38.1010   32.9370   49.0260 C   0  0  0  0  0  0  0  0  0  0  0  0
   38.4820   32.5090   47.7800 N   0  0  0  0  0  0  0  0  0  0  0  0
   38.3760   31.2210   47.4280 C   0  0  0  0  0  0  0  0  0  0  0  0
   37.8940   30.3130   48.2810 N   0  0  0  0  0  0  0  0  0  0  0  0
   37.3050   32.3780   50.9080 H   0  0  0  0  0  0  0  0  0  0  0  0
   38.1880   33.9710   49.3010 H   0  0  0  0  0  0  0  0  0  0  0  0
   38.6920   30.9420   46.4300 H   0  0  0  0  0  0  0  0  0  0  0  0
   34.8220   28.3980   48.8440 S   0  0  0  0  0  0  0  0  0  0  0  0
   32.6900   26.9230   47.9480 C   0  0  0  0  0  3  0  0  0  0  0  0
   33.0970   27.9320   48.8150 C   0  0  0  0  0  0  0  0  0  0  0  0
   32.1230   28.5230   49.6180 C   0  0  0  0  0  0  0  0  0  0  0  0
   32.4400   29.2960   50.2810 H   0  0  0  0  0  0  0  0  0  0  0  0
   30.8020   28.1170   49.5480 C   0  0  0  0  0  0  0  0  0  0  0  0
   29.7120   28.5550   50.2320 N   0  0  0  0  0  0  0  0  0  0  0  0
   29.6350   29.2990   50.9630 H   0  0  0  0  0  0  0  0  0  0  0  0
   28.6710   27.8450   49.8030 N   0  0  0  0  0  0  0  0  0  0  0  0
   29.0990   26.9780   48.8690 C   0  0  0  0  0  0  0  0  0  0  0  0
   28.4240   26.2770   48.3620 H   0  0  0  0  0  0  0  0  0  0  0  0
   30.4620   27.1130   48.6690 C   0  0  0  0  0  0  0  0  0  0  0  0
   31.3680   26.4890   47.8530 C   0  0  0  0  0  3  0  0  0  0  0  0
  1  4  1  0  0  0  0
  1  2  1  0  0  0  0
  3  1  1  0  0  0  0
  5  6  1  0  0  0  0
  5  4  1  0  0  0  0
  6 11  1  0  0  0  0
  7 12  1  0  0  0  0
  7  6  2  0  0  0  0
  8  7  1  0  0  0  0
  9  8  2  0  0  0  0
  9 10  1  0  0  0  0
 10  5  2  0  0  0  0
 13  9  1  0  0  0  0
 14  1  1  0  0  0  0
 15 16  1  0  0  0  0
 16 14  1  0  0  0  0
 16 17  2  0  0  0  0
 17 18  1  0  0  0  0
 19 17  1  0  0  0  0
 19 20  1  0  0  0  0
 20 21  1  0  0  0  0
 22 20  1  0  0  0  0
 23 22  2  0  0  0  0
 24 23  1  0  0  0  0
 25 23  1  0  0  0  0
 25 19  2  0  0  0  0
 26 15  2  0  0  0  0
 26 25  1  0  0  0  0
M  END
>  <minimizedAffinity>
-4.70354176

>  <minimizedRMSD>
1.39239442

$$$$
