
 OpenBabel03272507423D

 44 48  0  0  0  0  0  0  0  0999 V2000
   36.8070   31.1900   50.1200 C   0  0  0  0  0  0  0  0  0  0  0  0
   35.7690   30.2880   49.9040 C   0  0  0  0  0  0  0  0  0  0  0  0
   35.5990   29.1630   50.6820 C   0  0  0  0  0  0  0  0  0  0  0  0
   36.5020   28.9680   51.6820 N   0  0  0  0  0  0  0  0  0  0  0  0
   37.5190   29.8560   51.8910 C   0  0  0  0  0  0  0  0  0  0  0  0
   37.6500   30.9270   51.1220 N   0  0  0  0  0  0  0  0  0  0  0  0
   34.8380   28.4330   50.5820 H   0  0  0  0  0  0  0  0  0  0  0  0
   38.2190   29.6670   52.6980 H   0  0  0  0  0  0  0  0  0  0  0  0
   34.3350   29.2580   48.1820 C   0  0  0  0  0  0  0  0  0  0  0  0
   34.7480   28.0390   48.1600 O   0  0  0  0  0  0  0  0  0  0  0  0
   34.7900   30.3890   48.8970 N   0  0  0  0  0  0  0  0  0  0  0  0
   34.4670   31.3630   48.7600 H   0  0  0  0  0  0  0  0  0  0  0  0
   33.0700   30.4830   46.4160 C   0  0  0  0  0  3  0  0  0  0  0  0
   33.1920   29.4150   47.2810 C   0  0  0  0  0  0  0  0  0  0  0  0
   32.1410   28.5270   47.2060 C   0  0  0  0  0  0  0  0  0  0  0  0
   32.1210   27.6500   47.8340 H   0  0  0  0  0  0  0  0  0  0  0  0
   31.0500   28.6390   46.3730 C   0  0  0  0  0  0  0  0  0  0  0  0
   29.9470   27.9010   46.1530 N   0  0  0  0  0  0  0  0  0  0  0  0
   29.6890   27.0150   46.6240 H   0  0  0  0  0  0  0  0  0  0  0  0
   29.2260   28.4950   45.2210 N   0  0  0  0  0  0  0  0  0  0  0  0
   29.8170   29.6240   44.8030 C   0  0  0  0  0  0  0  0  0  0  0  0
   29.5060   30.3370   44.0670 H   0  0  0  0  0  0  0  0  0  0  0  0
   30.9830   29.7280   45.5300 C   0  0  0  0  0  0  0  0  0  0  0  0
   31.9940   30.6650   45.5410 C   0  0  0  0  0  3  0  0  0  0  0  0
   36.8000   32.2260   49.2540 O   0  0  0  0  0  0  0  0  0  0  0  0
   38.2480   32.2290   47.2570 C   0  0  0  0  0  0  0  0  0  0  0  0
   37.8880   32.6540   48.5280 C   0  0  0  0  0  0  0  0  0  0  0  0
   38.6580   33.5970   49.1800 C   0  0  0  0  0  0  0  0  0  0  0  0
   39.7890   34.1180   48.5660 C   0  0  0  0  0  0  0  0  0  0  0  0
   40.1400   33.6870   47.2990 C   0  0  0  0  0  0  0  0  0  0  0  0
   39.3560   32.7510   46.6780 C   0  0  0  0  0  0  0  0  0  0  0  0
   38.4390   33.9740   50.1680 H   0  0  0  0  0  0  0  0  0  0  0  0
   40.4060   34.8610   49.0650 H   0  0  0  0  0  0  0  0  0  0  0  0
   41.0140   34.0670   46.7790 H   0  0  0  0  0  0  0  0  0  0  0  0
   39.7440   32.2980   45.3190 C   0  0  0  0  0  0  0  0  0  0  0  0
   40.5780   31.2680   44.9430 C   0  0  0  0  0  0  0  0  0  0  0  0
   40.6150   31.2540   43.5510 C   0  0  0  0  0  0  0  0  0  0  0  0
   39.7880   32.2930   43.1620 C   0  0  0  0  0  0  0  0  0  0  0  0
   39.2850   32.8970   44.2260 O   0  0  0  0  0  0  0  0  0  0  0  0
   41.0870   30.6170   45.6580 H   0  0  0  0  0  0  0  0  0  0  0  0
   41.1760   30.5700   42.9540 H   0  0  0  0  0  0  0  0  0  0  0  0
   39.5700   32.5890   42.1450 H   0  0  0  0  0  0  0  0  0  0  0  0
   36.7360   30.4710   46.1320 N   0  0  0  0  0  0  0  0  0  0  0  0
   37.4070   31.2520   46.6440 C   0  0  0  0  0  0  0  0  0  0  0  0
  1  6  1  0  0  0  0
  2  1  2  0  0  0  0
  2  3  1  0  0  0  0
  3  4  2  0  0  0  0
  4  5  1  0  0  0  0
  5  8  1  0  0  0  0
  6  5  2  0  0  0  0
  7  3  1  0  0  0  0
  9 11  1  0  0  0  0
 10  9  2  0  0  0  0
 11  2  1  0  0  0  0
 12 11  1  0  0  0  0
 13 14  1  0  0  0  0
 14  9  1  0  0  0  0
 15 14  2  0  0  0  0
 15 16  1  0  0  0  0
 17 15  1  0  0  0  0
 18 17  1  0  0  0  0
 18 19  1  0  0  0  0
 20 18  1  0  0  0  0
 21 20  2  0  0  0  0
 21 23  1  0  0  0  0
 22 21  1  0  0  0  0
 23 24  1  0  0  0  0
 23 17  2  0  0  0  0
 24 13  2  0  0  0  0
 25  1  1  0  0  0  0
 26 27  1  0  0  0  0
 27 28  2  0  0  0  0
 27 25  1  0  0  0  0
 28 32  1  0  0  0  0
 29 33  1  0  0  0  0
 29 28  1  0  0  0  0
 30 29  2  0  0  0  0
 31 26  2  0  0  0  0
 31 30  1  0  0  0  0
 34 30  1  0  0  0  0
 35 31  1  0  0  0  0
 36 35  2  0  0  0  0
 36 40  1  0  0  0  0
 37 36  1  0  0  0  0
 38 37  2  0  0  0  0
 38 39  1  0  0  0  0
 39 35  1  0  0  0  0
 41 37  1  0  0  0  0
 42 38  1  0  0  0  0
 43 44  3  0  0  0  0
 44 26  1  0  0  0  0
M  END
>  <minimizedAffinity>
-6.35889244

>  <minimizedRMSD>
0.544676423

$$$$
