
 OpenBabel03262523233D

 36 39  0  0  1  0  0  0  0  0999 V2000
   31.2840   28.6830   35.1700 C   0  0  0  0  0  0  0  0  0  0  0  0
   31.1560   28.7520   33.7560 C   0  0  0  0  0  0  0  0  0  0  0  0
   32.0380   29.5840   33.0440 C   0  0  0  0  0  0  0  0  0  0  0  0
   32.9650   30.2740   33.7570 N   0  0  0  0  0  0  0  0  0  0  0  0
   33.0670   30.1940   35.0860 C   0  0  0  0  0  0  0  0  0  0  0  0
   32.2290   29.4000   35.7950 N   0  0  0  0  0  0  0  0  0  0  0  0
   34.0680   30.9320   35.7910 N   0  0  0  0  0  0  0  0  0  0  0  0
   33.7260   31.6640   37.0050 C   0  0  0  0  0  0  0  0  0  0  0  0
   34.5060   32.9320   37.2000 C   0  0  0  0  0  0  0  0  0  0  0  0
   35.0770   33.3420   35.8620 C   0  0  0  0  0  0  0  0  0  0  0  0
   36.1110   32.2820   35.4880 C   0  0  0  0  0  0  0  0  0  0  0  0
   35.4240   30.9650   35.3280 C   0  0  2  0  0  0  0  0  0  0  0  0
   30.6120   28.0480   35.7330 H   0  0  0  0  0  0  0  0  0  0  0  0
   30.3940   28.1700   33.2890 H   0  0  0  0  0  0  0  0  0  0  0  0
   31.9570   29.6480   31.9840 H   0  0  0  0  0  0  0  0  0  0  0  0
   32.6250   31.8430   36.9850 H   0  0  0  0  0  0  0  0  0  0  0  0
   33.9020   31.0290   37.9170 H   0  0  0  0  0  0  0  0  0  0  0  0
   33.8920   33.7360   37.6600 H   0  0  0  0  0  0  0  0  0  0  0  0
   35.3640   32.7970   37.8980 H   0  0  0  0  0  0  0  0  0  0  0  0
   35.4980   34.3520   35.8640 H   0  0  0  0  0  0  0  0  0  0  0  0
   34.2320   33.2650   35.1280 H   0  0  0  0  0  0  0  0  0  0  0  0
   36.7350   32.6100   34.6650 H   0  0  0  0  0  0  0  0  0  0  0  0
   36.8040   32.2670   36.3870 H   0  0  0  0  0  0  0  0  0  0  0  0
   35.9720   30.2620   36.0630 H   0  0  0  0  0  0  0  0  0  0  0  0
   35.7020   30.8790   32.7510 C   0  0  0  0  0  3  0  0  0  0  0  0
   35.6690   30.3740   34.0160 C   0  0  0  0  0  0  0  0  0  0  0  0
   35.9710   29.0040   34.0650 C   0  0  0  0  0  0  0  0  0  0  0  0
   35.9930   28.4300   34.9940 H   0  0  0  0  0  0  0  0  0  0  0  0
   36.2720   28.2380   32.9610 C   0  0  0  0  0  0  0  0  0  0  0  0
   36.5870   26.9490   32.7480 N   0  0  0  0  0  0  0  0  0  0  0  0
   36.6640   26.2200   33.4910 H   0  0  0  0  0  0  0  0  0  0  0  0
   36.7820   26.7460   31.4610 N   0  0  0  0  0  0  0  0  0  0  0  0
   36.6100   27.8700   30.7680 C   0  0  0  0  0  0  0  0  0  0  0  0
   36.6840   28.0850   29.7170 H   0  0  0  0  0  0  0  0  0  0  0  0
   36.2860   28.8200   31.7120 C   0  0  0  0  0  0  0  0  0  0  0  0
   35.9950   30.1640   31.6190 C   0  0  0  0  0  3  0  0  0  0  0  0
  1 13  1  0  0  0  0
  1  6  1  0  0  0  0
  2  1  2  0  0  0  0
  3  2  1  0  0  0  0
  3  4  2  0  0  0  0
  4  5  1  0  0  0  0
  5  7  1  0  0  0  0
  5  6  2  0  0  0  0
  7  8  1  0  0  0  0
  8  9  1  0  0  0  0
  8 17  1  0  0  0  0
  9 18  1  0  0  0  0
  9 19  1  0  0  0  0
 10 20  1  0  0  0  0
 10  9  1  0  0  0  0
 11 10  1  0  0  0  0
 11 23  1  0  0  0  0
 12 11  1  0  0  0  0
 12  7  1  0  0  0  0
 12 24  1  1  0  0  0
 14  2  1  0  0  0  0
 15  3  1  0  0  0  0
 16  8  1  0  0  0  0
 21 10  1  0  0  0  0
 22 11  1  0  0  0  0
 25 26  1  0  0  0  0
 26 27  2  0  0  0  0
 26 12  1  0  0  0  0
 27 28  1  0  0  0  0
 29 27  1  0  0  0  0
 30 29  1  0  0  0  0
 30 31  1  0  0  0  0
 32 30  1  0  0  0  0
 33 32  2  0  0  0  0
 33 35  1  0  0  0  0
 34 33  1  0  0  0  0
 35 29  2  0  0  0  0
 36 35  1  0  0  0  0
 36 25  2  0  0  0  0
M  END
>  <minimizedAffinity>
-5.69280243

$$$$

 OpenBabel03262523233D

 36 39  0  0  1  0  0  0  0  0999 V2000
   36.8190   27.5530   30.9660 C   0  0  0  0  0  0  0  0  0  0  0  0
   36.1860   26.4220   31.5500 C   0  0  0  0  0  0  0  0  0  0  0  0
   36.9500   25.5830   32.3800 C   0  0  0  0  0  0  0  0  0  0  0  0
   38.2540   25.9080   32.5750 N   0  0  0  0  0  0  0  0  0  0  0  0
   38.8270   26.9770   32.0160 C   0  0  0  0  0  0  0  0  0  0  0  0
   38.1130   27.8010   31.2120 N   0  0  0  0  0  0  0  0  0  0  0  0
   40.2020   27.2840   32.2610 N   0  0  0  0  0  0  0  0  0  0  0  0
   41.0810   27.6580   31.1600 C   0  0  0  0  0  0  0  0  0  0  0  0
   42.5020   27.2040   31.3250 C   0  0  0  0  0  0  0  0  0  0  0  0
   42.5210   26.0830   32.3390 C   0  0  0  0  0  0  0  0  0  0  0  0
   42.1360   26.7050   33.6790 C   0  0  0  0  0  0  0  0  0  0  0  0
   40.7430   27.2380   33.5880 C   0  0  2  0  0  0  0  0  0  0  0  0
   36.2450   28.2100   30.3240 H   0  0  0  0  0  0  0  0  0  0  0  0
   35.1550   26.2540   31.3340 H   0  0  0  0  0  0  0  0  0  0  0  0
   36.4930   24.7300   32.8260 H   0  0  0  0  0  0  0  0  0  0  0  0
   40.6190   27.2720   30.2210 H   0  0  0  0  0  0  0  0  0  0  0  0
   41.1090   28.7760   31.0330 H   0  0  0  0  0  0  0  0  0  0  0  0
   42.9620   26.9050   30.3580 H   0  0  0  0  0  0  0  0  0  0  0  0
   43.1620   28.0130   31.7130 H   0  0  0  0  0  0  0  0  0  0  0  0
   43.4810   25.5580   32.3840 H   0  0  0  0  0  0  0  0  0  0  0  0
   41.6990   25.3810   32.0410 H   0  0  0  0  0  0  0  0  0  0  0  0
   42.3470   26.0330   34.5040 H   0  0  0  0  0  0  0  0  0  0  0  0
   42.8830   27.5510   33.7980 H   0  0  0  0  0  0  0  0  0  0  0  0
   40.8420   28.3530   33.8720 H   0  0  0  0  0  0  0  0  0  0  0  0
   38.8810   27.2020   35.3930 C   0  0  0  0  0  3  0  0  0  0  0  0
   39.8730   26.6800   34.6170 C   0  0  0  0  0  0  0  0  0  0  0  0
   40.0700   25.3070   34.8340 C   0  0  0  0  0  0  0  0  0  0  0  0
   40.8220   24.7190   34.3020 H   0  0  0  0  0  0  0  0  0  0  0  0
   39.3450   24.5530   35.7300 C   0  0  0  0  0  0  0  0  0  0  0  0
   39.3380   23.2640   36.1110 N   0  0  0  0  0  0  0  0  0  0  0  0
   39.9710   22.5250   35.7350 H   0  0  0  0  0  0  0  0  0  0  0  0
   38.4120   23.0780   37.0290 N   0  0  0  0  0  0  0  0  0  0  0  0
   37.7690   24.2120   37.2990 C   0  0  0  0  0  0  0  0  0  0  0  0
   36.9680   24.4400   37.9800 H   0  0  0  0  0  0  0  0  0  0  0  0
   38.3550   25.1520   36.4800 C   0  0  0  0  0  0  0  0  0  0  0  0
   38.1290   26.4990   36.2980 C   0  0  0  0  0  3  0  0  0  0  0  0
  1  6  2  0  0  0  0
  1  2  1  0  0  0  0
  2  3  2  0  0  0  0
  3  4  1  0  0  0  0
  3 15  1  0  0  0  0
  5  7  1  0  0  0  0
  5  4  2  0  0  0  0
  6  5  1  0  0  0  0
  7 12  1  0  0  0  0
  8  9  1  0  0  0  0
  8  7  1  0  0  0  0
  9 19  1  0  0  0  0
  9 10  1  0  0  0  0
 10 20  1  0  0  0  0
 10 11  1  0  0  0  0
 11 23  1  0  0  0  0
 11 22  1  0  0  0  0
 12 11  1  0  0  0  0
 12 24  1  1  0  0  0
 12 26  1  0  0  0  0
 13  1  1  0  0  0  0
 14  2  1  0  0  0  0
 16  8  1  0  0  0  0
 17  8  1  0  0  0  0
 18  9  1  0  0  0  0
 21 10  1  0  0  0  0
 25 36  1  0  0  0  0
 26 27  1  0  0  0  0
 26 25  2  0  0  0  0
 27 29  2  0  0  0  0
 28 27  1  0  0  0  0
 29 30  1  0  0  0  0
 29 35  1  0  0  0  0
 30 32  1  0  0  0  0
 31 30  1  0  0  0  0
 32 33  2  0  0  0  0
 33 34  1  0  0  0  0
 35 33  1  0  0  0  0
 36 35  2  0  0  0  0
M  END
>  <minimizedAffinity>
-5.49306965

$$$$

 OpenBabel03262523233D

 36 39  0  0  1  0  0  0  0  0999 V2000
   36.7590   22.6840   31.5840 C   0  0  0  0  0  0  0  0  0  0  0  0
   35.7260   23.4300   30.9550 C   0  0  0  0  0  0  0  0  0  0  0  0
   35.5490   24.7740   31.3280 C   0  0  0  0  0  0  0  0  0  0  0  0
   36.3820   25.2790   32.2730 N   0  0  0  0  0  0  0  0  0  0  0  0
   37.3470   24.5600   32.8510 C   0  0  0  0  0  0  0  0  0  0  0  0
   37.5380   23.2630   32.5090 N   0  0  0  0  0  0  0  0  0  0  0  0
   38.2070   25.1410   33.8340 N   0  0  0  0  0  0  0  0  0  0  0  0
   38.5080   24.4240   35.0680 C   0  0  0  0  0  0  0  0  0  0  0  0
   38.6980   25.3100   36.2640 C   0  0  0  0  0  0  0  0  0  0  0  0
   38.0560   26.6450   35.9660 C   0  0  0  0  0  0  0  0  0  0  0  0
   38.8840   27.2840   34.8520 C   0  0  0  0  0  0  0  0  0  0  0  0
   38.7970   26.4310   33.6290 C   0  0  2  0  0  0  0  0  0  0  0  0
   36.9080   21.6480   31.3090 H   0  0  0  0  0  0  0  0  0  0  0  0
   35.1240   22.9400   30.2230 H   0  0  0  0  0  0  0  0  0  0  0  0
   34.7800   25.3490   30.8670 H   0  0  0  0  0  0  0  0  0  0  0  0
   37.6970   23.6730   35.2200 H   0  0  0  0  0  0  0  0  0  0  0  0
   39.4500   23.8170   34.9580 H   0  0  0  0  0  0  0  0  0  0  0  0
   38.2990   24.8490   37.1950 H   0  0  0  0  0  0  0  0  0  0  0  0
   39.7730   25.5000   36.4830 H   0  0  0  0  0  0  0  0  0  0  0  0
   37.9740   27.2900   36.8460 H   0  0  0  0  0  0  0  0  0  0  0  0
   37.0420   26.4150   35.5450 H   0  0  0  0  0  0  0  0  0  0  0  0
   38.6440   28.3340   34.7320 H   0  0  0  0  0  0  0  0  0  0  0  0
   39.9370   27.2750   35.2740 H   0  0  0  0  0  0  0  0  0  0  0  0
   39.8950   26.1830   33.3710 H   0  0  0  0  0  0  0  0  0  0  0  0
   37.3160   28.0870   32.2890 C   0  0  0  0  0  3  0  0  0  0  0  0
   38.3170   27.1790   32.4710 C   0  0  0  0  0  0  0  0  0  0  0  0
   39.0620   26.9460   31.3040 C   0  0  0  0  0  0  0  0  0  0  0  0
   39.9030   26.2500   31.2610 H   0  0  0  0  0  0  0  0  0  0  0  0
   38.8210   27.5620   30.0960 C   0  0  0  0  0  0  0  0  0  0  0  0
   39.3720   27.5150   28.8710 N   0  0  0  0  0  0  0  0  0  0  0  0
   40.1850   26.9190   28.6020 H   0  0  0  0  0  0  0  0  0  0  0  0
   38.7290   28.3340   28.0640 N   0  0  0  0  0  0  0  0  0  0  0  0
   37.7390   28.9550   28.7000 C   0  0  0  0  0  0  0  0  0  0  0  0
   37.0150   29.6790   28.3710 H   0  0  0  0  0  0  0  0  0  0  0  0
   37.7900   28.4710   29.9890 C   0  0  0  0  0  0  0  0  0  0  0  0
   37.0330   28.7290   31.1110 C   0  0  0  0  0  3  0  0  0  0  0  0
  1  6  1  0  0  0  0
  2  3  1  0  0  0  0
  2  1  2  0  0  0  0
  3  4  2  0  0  0  0
  4  5  1  0  0  0  0
  5  7  1  0  0  0  0
  6  5  2  0  0  0  0
  7  8  1  0  0  0  0
  8 16  1  0  0  0  0
  8  9  1  0  0  0  0
  9 19  1  0  0  0  0
  9 18  1  0  0  0  0
 10  9  1  0  0  0  0
 10 20  1  0  0  0  0
 11 23  1  0  0  0  0
 11 10  1  0  0  0  0
 12 24  1  6  0  0  0
 12  7  1  0  0  0  0
 12 11  1  0  0  0  0
 13  1  1  0  0  0  0
 14  2  1  0  0  0  0
 15  3  1  0  0  0  0
 17  8  1  0  0  0  0
 21 10  1  0  0  0  0
 22 11  1  0  0  0  0
 25 26  1  0  0  0  0
 26 12  1  0  0  0  0
 27 26  2  0  0  0  0
 28 27  1  0  0  0  0
 29 27  1  0  0  0  0
 30 29  1  0  0  0  0
 31 30  1  0  0  0  0
 32 33  2  0  0  0  0
 32 30  1  0  0  0  0
 33 35  1  0  0  0  0
 34 33  1  0  0  0  0
 35 29  2  0  0  0  0
 35 36  1  0  0  0  0
 36 25  2  0  0  0  0
M  END
>  <minimizedAffinity>
-5.48805046

$$$$

 OpenBabel03262523233D

 36 39  0  0  1  0  0  0  0  0999 V2000
   36.6750   22.2620   32.0170 C   0  0  0  0  0  0  0  0  0  0  0  0
   35.8530   23.0170   31.1360 C   0  0  0  0  0  0  0  0  0  0  0  0
   35.8450   24.4170   31.2640 C   0  0  0  0  0  0  0  0  0  0  0  0
   36.6290   24.9650   32.2270 N   0  0  0  0  0  0  0  0  0  0  0  0
   37.3930   24.2370   33.0430 C   0  0  0  0  0  0  0  0  0  0  0  0
   37.4190   22.8860   32.9410 N   0  0  0  0  0  0  0  0  0  0  0  0
   38.2110   24.8630   34.0350 N   0  0  0  0  0  0  0  0  0  0  0  0
   38.2480   24.3420   35.3970 C   0  0  0  0  0  0  0  0  0  0  0  0
   38.4300   25.3920   36.4530 C   0  0  0  0  0  0  0  0  0  0  0  0
   38.0440   26.7270   35.8590 C   0  0  0  0  0  0  0  0  0  0  0  0
   39.0870   27.0420   34.7890 C   0  0  0  0  0  0  0  0  0  0  0  0
   39.0150   26.0060   33.7160 C   0  0  2  0  0  0  0  0  0  0  0  0
   36.6930   21.1830   31.9330 H   0  0  0  0  0  0  0  0  0  0  0  0
   35.2740   22.4900   30.4120 H   0  0  0  0  0  0  0  0  0  0  0  0
   35.2350   24.9980   30.6120 H   0  0  0  0  0  0  0  0  0  0  0  0
   37.3170   23.7440   35.5480 H   0  0  0  0  0  0  0  0  0  0  0  0
   39.0900   23.6050   35.5200 H   0  0  0  0  0  0  0  0  0  0  0  0
   37.8570   25.1610   37.3780 H   0  0  0  0  0  0  0  0  0  0  0  0
   39.4880   25.4730   36.7910 H   0  0  0  0  0  0  0  0  0  0  0  0
   37.9590   27.5230   36.6060 H   0  0  0  0  0  0  0  0  0  0  0  0
   37.0640   26.5640   35.3390 H   0  0  0  0  0  0  0  0  0  0  0  0
   39.0300   28.0770   34.4720 H   0  0  0  0  0  0  0  0  0  0  0  0
   40.0690   26.9680   35.3540 H   0  0  0  0  0  0  0  0  0  0  0  0
   40.0840   25.5720   33.6610 H   0  0  0  0  0  0  0  0  0  0  0  0
   39.2280   26.2760   31.1450 C   0  0  0  0  0  3  0  0  0  0  0  0
   38.7980   26.5950   32.3980 C   0  0  0  0  0  0  0  0  0  0  0  0
   37.9350   27.7020   32.4140 C   0  0  0  0  0  0  0  0  0  0  0  0
   37.4920   28.1020   33.3290 H   0  0  0  0  0  0  0  0  0  0  0  0
   37.5540   28.4020   31.2910 C   0  0  0  0  0  0  0  0  0  0  0  0
   36.7650   29.4620   31.0470 N   0  0  0  0  0  0  0  0  0  0  0  0
   36.2410   30.0000   31.7720 H   0  0  0  0  0  0  0  0  0  0  0  0
   36.7530   29.7180   29.7540 N   0  0  0  0  0  0  0  0  0  0  0  0
   37.5190   28.8570   29.0890 C   0  0  0  0  0  0  0  0  0  0  0  0
   37.7470   28.7580   28.0420 H   0  0  0  0  0  0  0  0  0  0  0  0
   38.0300   28.0200   30.0550 C   0  0  0  0  0  0  0  0  0  0  0  0
   38.8800   26.9370   29.9950 C   0  0  0  0  0  3  0  0  0  0  0  0
  1  6  1  0  0  0  0
  2  3  1  0  0  0  0
  2  1  2  0  0  0  0
  3  4  2  0  0  0  0
  4  5  1  0  0  0  0
  5  7  1  0  0  0  0
  6  5  2  0  0  0  0
  7  8  1  0  0  0  0
  8 17  1  0  0  0  0
  8 16  1  0  0  0  0
  8  9  1  0  0  0  0
  9 19  1  0  0  0  0
  9 18  1  0  0  0  0
 10  9  1  0  0  0  0
 10 20  1  0  0  0  0
 11 23  1  0  0  0  0
 11 10  1  0  0  0  0
 12 24  1  6  0  0  0
 12  7  1  0  0  0  0
 12 11  1  0  0  0  0
 13  1  1  0  0  0  0
 14  2  1  0  0  0  0
 15  3  1  0  0  0  0
 21 10  1  0  0  0  0
 22 11  1  0  0  0  0
 25 26  1  0  0  0  0
 26 27  2  0  0  0  0
 26 12  1  0  0  0  0
 27 28  1  0  0  0  0
 29 27  1  0  0  0  0
 30 29  1  0  0  0  0
 30 31  1  0  0  0  0
 32 30  1  0  0  0  0
 33 32  2  0  0  0  0
 33 35  1  0  0  0  0
 34 33  1  0  0  0  0
 35 29  2  0  0  0  0
 36 35  1  0  0  0  0
 36 25  2  0  0  0  0
M  END
>  <minimizedAffinity>
-5.48185349

$$$$

 OpenBabel03262523233D

 36 39  0  0  1  0  0  0  0  0999 V2000
   38.2300   26.6380   31.7520 C   0  0  0  0  0  0  0  0  0  0  0  0
   38.1710   27.1150   33.0900 C   0  0  0  0  0  0  0  0  0  0  0  0
   37.7770   26.2220   34.1020 C   0  0  0  0  0  0  0  0  0  0  0  0
   37.4750   24.9500   33.7360 N   0  0  0  0  0  0  0  0  0  0  0  0
   37.5370   24.5230   32.4720 C   0  0  0  0  0  0  0  0  0  0  0  0
   37.9140   25.3640   31.4790 N   0  0  0  0  0  0  0  0  0  0  0  0
   37.2210   23.1690   32.1380 N   0  0  0  0  0  0  0  0  0  0  0  0
   36.3670   22.8730   30.9940 C   0  0  0  0  0  0  0  0  0  0  0  0
   35.4970   21.6630   31.1720 C   0  0  0  0  0  0  0  0  0  0  0  0
   35.3940   21.3730   32.6520 C   0  0  0  0  0  0  0  0  0  0  0  0
   36.7860   20.9430   33.1070 C   0  0  0  0  0  0  0  0  0  0  0  0
   37.7370   22.0780   32.9110 C   0  0  2  0  0  0  0  0  0  0  0  0
   38.5310   27.3120   30.9610 H   0  0  0  0  0  0  0  0  0  0  0  0
   38.4280   28.1330   33.2730 H   0  0  0  0  0  0  0  0  0  0  0  0
   37.7270   26.5620   35.1100 H   0  0  0  0  0  0  0  0  0  0  0  0
   35.7740   23.7930   30.7750 H   0  0  0  0  0  0  0  0  0  0  0  0
   36.9850   22.6980   30.0690 H   0  0  0  0  0  0  0  0  0  0  0  0
   34.5000   21.7890   30.6960 H   0  0  0  0  0  0  0  0  0  0  0  0
   35.9290   20.7570   30.6870 H   0  0  0  0  0  0  0  0  0  0  0  0
   34.6280   20.6290   32.8930 H   0  0  0  0  0  0  0  0  0  0  0  0
   35.1630   22.3540   33.1440 H   0  0  0  0  0  0  0  0  0  0  0  0
   36.7600   20.4940   34.0940 H   0  0  0  0  0  0  0  0  0  0  0  0
   37.0350   20.0850   32.4070 H   0  0  0  0  0  0  0  0  0  0  0  0
   38.5680   21.6450   32.2370 H   0  0  0  0  0  0  0  0  0  0  0  0
   39.6900   22.8640   34.4270 C   0  0  0  0  0  3  0  0  0  0  0  0
   38.4260   22.4370   34.1470 C   0  0  0  0  0  0  0  0  0  0  0  0
   37.6100   22.3630   35.2860 C   0  0  0  0  0  0  0  0  0  0  0  0
   36.5660   22.0410   35.2540 H   0  0  0  0  0  0  0  0  0  0  0  0
   38.0260   22.6850   36.5590 C   0  0  0  0  0  0  0  0  0  0  0  0
   37.4570   22.7000   37.7760 N   0  0  0  0  0  0  0  0  0  0  0  0
   36.4700   22.4310   37.9800 H   0  0  0  0  0  0  0  0  0  0  0  0
   38.3350   23.1050   38.6710 N   0  0  0  0  0  0  0  0  0  0  0  0
   39.5090   23.3750   38.1030 C   0  0  0  0  0  0  0  0  0  0  0  0
   40.4420   23.7210   38.5110 H   0  0  0  0  0  0  0  0  0  0  0  0
   39.3210   23.1110   36.7640 C   0  0  0  0  0  0  0  0  0  0  0  0
   40.1560   23.1970   35.6720 C   0  0  0  0  0  3  0  0  0  0  0  0
  1  2  1  0  0  0  0
  2 14  1  0  0  0  0
  2  3  2  0  0  0  0
  3 15  1  0  0  0  0
  4  3  1  0  0  0  0
  5  4  2  0  0  0  0
  6  1  2  0  0  0  0
  6  5  1  0  0  0  0
  7  5  1  0  0  0  0
  7 12  1  0  0  0  0
  8  9  1  0  0  0  0
  8  7  1  0  0  0  0
  9 10  1  0  0  0  0
 10 20  1  0  0  0  0
 10 11  1  0  0  0  0
 10 21  1  0  0  0  0
 11 22  1  0  0  0  0
 12 24  1  6  0  0  0
 12 11  1  0  0  0  0
 12 26  1  0  0  0  0
 13  1  1  0  0  0  0
 16  8  1  0  0  0  0
 17  8  1  0  0  0  0
 18  9  1  0  0  0  0
 19  9  1  0  0  0  0
 23 11  1  0  0  0  0
 25 36  1  0  0  0  0
 26 25  2  0  0  0  0
 26 27  1  0  0  0  0
 27 29  2  0  0  0  0
 28 27  1  0  0  0  0
 29 35  1  0  0  0  0
 29 30  1  0  0  0  0
 30 31  1  0  0  0  0
 30 32  1  0  0  0  0
 33 34  1  0  0  0  0
 33 32  2  0  0  0  0
 35 33  1  0  0  0  0
 36 35  2  0  0  0  0
M  END
>  <minimizedAffinity>
-5.46746111

$$$$

 OpenBabel03262523233D

 36 39  0  0  1  0  0  0  0  0999 V2000
   37.1100   27.7050   33.4150 C   0  0  0  0  0  0  0  0  0  0  0  0
   37.4610   27.5810   34.7870 C   0  0  0  0  0  0  0  0  0  0  0  0
   37.7020   26.2950   35.3020 C   0  0  0  0  0  0  0  0  0  0  0  0
   37.5840   25.2440   34.4510 N   0  0  0  0  0  0  0  0  0  0  0  0
   37.2530   25.3840   33.1650 C   0  0  0  0  0  0  0  0  0  0  0  0
   37.0160   26.6130   32.6440 N   0  0  0  0  0  0  0  0  0  0  0  0
   37.1530   24.2470   32.3050 N   0  0  0  0  0  0  0  0  0  0  0  0
   36.0180   24.1040   31.4000 C   0  0  0  0  0  0  0  0  0  0  0  0
   35.5870   22.6850   31.1710 C   0  0  0  0  0  0  0  0  0  0  0  0
   36.1280   21.8430   32.3030 C   0  0  0  0  0  0  0  0  0  0  0  0
   37.6470   21.8350   32.1490 C   0  0  0  0  0  0  0  0  0  0  0  0
   38.1620   23.2290   32.3060 C   0  0  2  0  0  0  0  0  0  0  0  0
   36.9210   28.6880   33.0030 H   0  0  0  0  0  0  0  0  0  0  0  0
   37.5280   28.4700   35.3730 H   0  0  0  0  0  0  0  0  0  0  0  0
   37.9660   26.1820   36.3280 H   0  0  0  0  0  0  0  0  0  0  0  0
   35.1930   24.7400   31.8000 H   0  0  0  0  0  0  0  0  0  0  0  0
   36.2560   24.5400   30.3890 H   0  0  0  0  0  0  0  0  0  0  0  0
   34.4830   22.5940   31.0680 H   0  0  0  0  0  0  0  0  0  0  0  0
   35.9940   22.2670   30.2230 H   0  0  0  0  0  0  0  0  0  0  0  0
   35.7070   20.8330   32.3290 H   0  0  0  0  0  0  0  0  0  0  0  0
   35.8860   22.3980   33.2470 H   0  0  0  0  0  0  0  0  0  0  0  0
   38.1050   21.0730   32.7700 H   0  0  0  0  0  0  0  0  0  0  0  0
   37.7990   21.4690   31.0850 H   0  0  0  0  0  0  0  0  0  0  0  0
   38.7460   23.4330   31.3310 H   0  0  0  0  0  0  0  0  0  0  0  0
   40.3030   24.0690   33.5050 C   0  0  0  0  0  3  0  0  0  0  0  0
   39.1700   23.3260   33.3570 C   0  0  0  0  0  0  0  0  0  0  0  0
   38.9020   22.5120   34.4680 C   0  0  0  0  0  0  0  0  0  0  0  0
   38.0370   21.8470   34.5280 H   0  0  0  0  0  0  0  0  0  0  0  0
   39.6900   22.4580   35.5970 C   0  0  0  0  0  0  0  0  0  0  0  0
   39.6530   21.7840   36.7590 N   0  0  0  0  0  0  0  0  0  0  0  0
   38.9170   21.0970   37.0290 H   0  0  0  0  0  0  0  0  0  0  0  0
   40.6860   22.1250   37.5030 N   0  0  0  0  0  0  0  0  0  0  0  0
   41.4460   23.0240   36.8830 C   0  0  0  0  0  0  0  0  0  0  0  0
   42.3540   23.5230   37.1760 H   0  0  0  0  0  0  0  0  0  0  0  0
   40.8220   23.2410   35.6740 C   0  0  0  0  0  0  0  0  0  0  0  0
   41.1220   24.0560   34.6040 C   0  0  0  0  0  3  0  0  0  0  0  0
  1  2  1  0  0  0  0
  2  3  2  0  0  0  0
  2 14  1  0  0  0  0
  3 15  1  0  0  0  0
  4  3  1  0  0  0  0
  5  4  2  0  0  0  0
  6  5  1  0  0  0  0
  6  1  2  0  0  0  0
  7 12  1  0  0  0  0
  7  5  1  0  0  0  0
  8 16  1  0  0  0  0
  8  7  1  0  0  0  0
  9  8  1  0  0  0  0
  9 10  1  0  0  0  0
 10 20  1  0  0  0  0
 10 21  1  0  0  0  0
 11 10  1  0  0  0  0
 11 12  1  0  0  0  0
 11 22  1  0  0  0  0
 12 24  1  6  0  0  0
 12 26  1  0  0  0  0
 13  1  1  0  0  0  0
 17  8  1  0  0  0  0
 18  9  1  0  0  0  0
 19  9  1  0  0  0  0
 23 11  1  0  0  0  0
 25 36  1  0  0  0  0
 26 25  2  0  0  0  0
 26 27  1  0  0  0  0
 27 28  1  0  0  0  0
 27 29  2  0  0  0  0
 29 35  1  0  0  0  0
 29 30  1  0  0  0  0
 30 31  1  0  0  0  0
 30 32  1  0  0  0  0
 33 34  1  0  0  0  0
 33 32  2  0  0  0  0
 35 33  1  0  0  0  0
 36 35  2  0  0  0  0
M  END
>  <minimizedAffinity>
-5.37645626

$$$$

 OpenBabel03262523233D

 36 39  0  0  1  0  0  0  0  0999 V2000
   35.6760   22.5160   31.9010 C   0  0  0  0  0  0  0  0  0  0  0  0
   36.5950   21.5070   32.3000 C   0  0  0  0  0  0  0  0  0  0  0  0
   37.8970   21.8940   32.6630 C   0  0  0  0  0  0  0  0  0  0  0  0
   38.1970   23.2170   32.6100 N   0  0  0  0  0  0  0  0  0  0  0  0
   37.3180   24.1480   32.2330 C   0  0  0  0  0  0  0  0  0  0  0  0
   36.0570   23.8000   31.8780 N   0  0  0  0  0  0  0  0  0  0  0  0
   37.6790   25.5310   32.2050 N   0  0  0  0  0  0  0  0  0  0  0  0
   37.3230   26.3630   31.0620 C   0  0  0  0  0  0  0  0  0  0  0  0
   38.3240   27.4360   30.7460 C   0  0  0  0  0  0  0  0  0  0  0  0
   39.6380   27.0550   31.3880 C   0  0  0  0  0  0  0  0  0  0  0  0
   39.4210   27.1340   32.8980 C   0  0  0  0  0  0  0  0  0  0  0  0
   38.3890   26.1300   33.2970 C   0  0  2  0  0  0  0  0  0  0  0  0
   34.6700   22.2350   31.6170 H   0  0  0  0  0  0  0  0  0  0  0  0
   36.2600   20.4940   32.3070 H   0  0  0  0  0  0  0  0  0  0  0  0
   38.5990   21.1520   32.9640 H   0  0  0  0  0  0  0  0  0  0  0  0
   37.1460   25.6800   30.1970 H   0  0  0  0  0  0  0  0  0  0  0  0
   36.3360   26.8770   31.2340 H   0  0  0  0  0  0  0  0  0  0  0  0
   38.4240   27.6070   29.6520 H   0  0  0  0  0  0  0  0  0  0  0  0
   38.0270   28.4260   31.1610 H   0  0  0  0  0  0  0  0  0  0  0  0
   40.4770   27.6750   31.0550 H   0  0  0  0  0  0  0  0  0  0  0  0
   39.8110   25.9780   31.1270 H   0  0  0  0  0  0  0  0  0  0  0  0
   40.3620   27.1060   33.4360 H   0  0  0  0  0  0  0  0  0  0  0  0
   39.0330   28.1900   33.0500 H   0  0  0  0  0  0  0  0  0  0  0  0
   37.5760   26.7490   33.8340 H   0  0  0  0  0  0  0  0  0  0  0  0
   40.0100   24.4620   34.4450 C   0  0  0  0  0  3  0  0  0  0  0  0
   38.8810   25.2150   34.3220 C   0  0  0  0  0  0  0  0  0  0  0  0
   38.0320   25.1130   35.4360 C   0  0  0  0  0  0  0  0  0  0  0  0
   37.0820   25.6460   35.5150 H   0  0  0  0  0  0  0  0  0  0  0  0
   38.2990   24.3400   36.5440 C   0  0  0  0  0  0  0  0  0  0  0  0
   37.6710   24.0800   37.7030 N   0  0  0  0  0  0  0  0  0  0  0  0
   36.7510   24.4800   37.9890 H   0  0  0  0  0  0  0  0  0  0  0  0
   38.3940   23.2460   38.4220 N   0  0  0  0  0  0  0  0  0  0  0  0
   39.5170   22.9160   37.7880 C   0  0  0  0  0  0  0  0  0  0  0  0
   40.3330   22.2700   38.0600 H   0  0  0  0  0  0  0  0  0  0  0  0
   39.4640   23.6050   36.5970 C   0  0  0  0  0  0  0  0  0  0  0  0
   40.3250   23.6760   35.5230 C   0  0  0  0  0  3  0  0  0  0  0  0
  1  2  1  0  0  0  0
  2 14  1  0  0  0  0
  2  3  2  0  0  0  0
  3 15  1  0  0  0  0
  4  3  1  0  0  0  0
  5  4  2  0  0  0  0
  6  1  2  0  0  0  0
  6  5  1  0  0  0  0
  7  5  1  0  0  0  0
  7 12  1  0  0  0  0
  8 17  1  0  0  0  0
  8  7  1  0  0  0  0
  9  8  1  0  0  0  0
  9 19  1  0  0  0  0
  9 10  1  0  0  0  0
 10 11  1  0  0  0  0
 11 23  1  0  0  0  0
 11 12  1  0  0  0  0
 11 22  1  0  0  0  0
 12 24  1  1  0  0  0
 12 26  1  0  0  0  0
 13  1  1  0  0  0  0
 16  8  1  0  0  0  0
 18  9  1  0  0  0  0
 20 10  1  0  0  0  0
 21 10  1  0  0  0  0
 25 36  1  0  0  0  0
 26 25  2  0  0  0  0
 26 27  1  0  0  0  0
 27 28  1  0  0  0  0
 27 29  2  0  0  0  0
 29 35  1  0  0  0  0
 29 30  1  0  0  0  0
 30 31  1  0  0  0  0
 30 32  1  0  0  0  0
 33 34  1  0  0  0  0
 33 32  2  0  0  0  0
 35 33  1  0  0  0  0
 36 35  2  0  0  0  0
M  END
>  <minimizedAffinity>
-5.37143707

$$$$

 OpenBabel03262523233D

 36 39  0  0  1  0  0  0  0  0999 V2000
   35.6540   23.5690   31.5400 C   0  0  0  0  0  0  0  0  0  0  0  0
   36.1400   22.4080   32.2000 C   0  0  0  0  0  0  0  0  0  0  0  0
   37.3740   22.4860   32.8700 C   0  0  0  0  0  0  0  0  0  0  0  0
   38.0290   23.6750   32.8450 N   0  0  0  0  0  0  0  0  0  0  0  0
   37.5530   24.7540   32.2190 C   0  0  0  0  0  0  0  0  0  0  0  0
   36.3670   24.7040   31.5660 N   0  0  0  0  0  0  0  0  0  0  0  0
   38.2750   25.9880   32.2310 N   0  0  0  0  0  0  0  0  0  0  0  0
   38.4430   26.7570   31.0030 C   0  0  0  0  0  0  0  0  0  0  0  0
   39.7440   27.4980   30.9140 C   0  0  0  0  0  0  0  0  0  0  0  0
   40.7130   26.8650   31.8860 C   0  0  0  0  0  0  0  0  0  0  0  0
   40.1740   27.1580   33.2850 C   0  0  0  0  0  0  0  0  0  0  0  0
   38.8430   26.4990   33.4440 C   0  0  2  0  0  0  0  0  0  0  0  0
   34.7070   23.5260   31.0190 H   0  0  0  0  0  0  0  0  0  0  0  0
   35.5490   21.5210   32.1600 H   0  0  0  0  0  0  0  0  0  0  0  0
   37.7530   21.6260   33.3700 H   0  0  0  0  0  0  0  0  0  0  0  0
   38.2950   26.0530   30.1490 H   0  0  0  0  0  0  0  0  0  0  0  0
   37.6230   27.5210   30.8960 H   0  0  0  0  0  0  0  0  0  0  0  0
   40.1440   27.5210   29.8760 H   0  0  0  0  0  0  0  0  0  0  0  0
   39.6410   28.5700   31.1990 H   0  0  0  0  0  0  0  0  0  0  0  0
   41.7430   27.2110   31.7560 H   0  0  0  0  0  0  0  0  0  0  0  0
   40.6410   25.7590   31.7200 H   0  0  0  0  0  0  0  0  0  0  0  0
   40.9160   26.9480   34.0470 H   0  0  0  0  0  0  0  0  0  0  0  0
   40.0660   28.2880   33.2910 H   0  0  0  0  0  0  0  0  0  0  0  0
   38.1270   27.3590   33.7300 H   0  0  0  0  0  0  0  0  0  0  0  0
   37.8500   25.2930   35.5150 C   0  0  0  0  0  3  0  0  0  0  0  0
   38.8080   25.6040   34.5960 C   0  0  0  0  0  0  0  0  0  0  0  0
   39.9960   24.8800   34.7800 C   0  0  0  0  0  0  0  0  0  0  0  0
   40.8730   24.9970   34.1390 H   0  0  0  0  0  0  0  0  0  0  0  0
   40.1890   23.9500   35.7780 C   0  0  0  0  0  0  0  0  0  0  0  0
   41.2000   23.1480   36.1560 N   0  0  0  0  0  0  0  0  0  0  0  0
   42.1300   23.0950   35.6870 H   0  0  0  0  0  0  0  0  0  0  0  0
   40.8360   22.4410   37.2060 N   0  0  0  0  0  0  0  0  0  0  0  0
   39.5890   22.7320   37.5710 C   0  0  0  0  0  0  0  0  0  0  0  0
   38.9680   22.3620   38.3670 H   0  0  0  0  0  0  0  0  0  0  0  0
   39.1730   23.6880   36.6710 C   0  0  0  0  0  0  0  0  0  0  0  0
   37.9880   24.3770   36.5260 C   0  0  0  0  0  3  0  0  0  0  0  0
  1  6  2  0  0  0  0
  1  2  1  0  0  0  0
  2  3  2  0  0  0  0
  3 15  1  0  0  0  0
  4  3  1  0  0  0  0
  5  7  1  0  0  0  0
  5  4  2  0  0  0  0
  6  5  1  0  0  0  0
  7 12  1  0  0  0  0
  8  7  1  0  0  0  0
  9  8  1  0  0  0  0
  9 19  1  0  0  0  0
  9 10  1  0  0  0  0
 10 11  1  0  0  0  0
 11 23  1  0  0  0  0
 11 12  1  0  0  0  0
 11 22  1  0  0  0  0
 12 24  1  1  0  0  0
 12 26  1  0  0  0  0
 13  1  1  0  0  0  0
 14  2  1  0  0  0  0
 16  8  1  0  0  0  0
 17  8  1  0  0  0  0
 18  9  1  0  0  0  0
 20 10  1  0  0  0  0
 21 10  1  0  0  0  0
 25 36  1  0  0  0  0
 26 27  1  0  0  0  0
 26 25  2  0  0  0  0
 27 29  2  0  0  0  0
 28 27  1  0  0  0  0
 29 30  1  0  0  0  0
 29 35  1  0  0  0  0
 30 32  1  0  0  0  0
 31 30  1  0  0  0  0
 32 33  2  0  0  0  0
 33 34  1  0  0  0  0
 35 33  1  0  0  0  0
 36 35  2  0  0  0  0
M  END
>  <minimizedAffinity>
-5.28697538

$$$$

 OpenBabel03262523233D

 36 39  0  0  1  0  0  0  0  0999 V2000
   36.9020   23.0010   30.9840 C   0  0  0  0  0  0  0  0  0  0  0  0
   35.7360   23.7540   30.6760 C   0  0  0  0  0  0  0  0  0  0  0  0
   35.4910   24.9340   31.4010 C   0  0  0  0  0  0  0  0  0  0  0  0
   36.3900   25.2830   32.3560 N   0  0  0  0  0  0  0  0  0  0  0  0
   37.4790   24.5610   32.6280 C   0  0  0  0  0  0  0  0  0  0  0  0
   37.7380   23.4200   31.9440 N   0  0  0  0  0  0  0  0  0  0  0  0
   38.4030   24.9780   33.6360 N   0  0  0  0  0  0  0  0  0  0  0  0
   38.9200   24.0180   34.6050 C   0  0  0  0  0  0  0  0  0  0  0  0
   39.1820   24.5960   35.9650 C   0  0  0  0  0  0  0  0  0  0  0  0
   38.3930   25.8790   36.0890 C   0  0  0  0  0  0  0  0  0  0  0  0
   39.0130   26.8660   35.1020 C   0  0  0  0  0  0  0  0  0  0  0  0
   38.8470   26.3380   33.7140 C   0  0  2  0  0  0  0  0  0  0  0  0
   37.1050   22.0900   30.4360 H   0  0  0  0  0  0  0  0  0  0  0  0
   35.0920   23.3930   29.9070 H   0  0  0  0  0  0  0  0  0  0  0  0
   34.6220   25.5110   31.1840 H   0  0  0  0  0  0  0  0  0  0  0  0
   38.2030   23.1630   34.6390 H   0  0  0  0  0  0  0  0  0  0  0  0
   39.8900   23.5720   34.2480 H   0  0  0  0  0  0  0  0  0  0  0  0
   38.9460   23.8770   36.7790 H   0  0  0  0  0  0  0  0  0  0  0  0
   40.2550   24.8510   36.1160 H   0  0  0  0  0  0  0  0  0  0  0  0
   38.3670   26.2730   37.1100 H   0  0  0  0  0  0  0  0  0  0  0  0
   37.3580   25.6440   35.7270 H   0  0  0  0  0  0  0  0  0  0  0  0
   38.6690   27.8780   35.2830 H   0  0  0  0  0  0  0  0  0  0  0  0
   40.1090   26.8760   35.3990 H   0  0  0  0  0  0  0  0  0  0  0  0
   39.9210   26.2910   33.2920 H   0  0  0  0  0  0  0  0  0  0  0  0
   38.3620   27.7020   31.5620 C   0  0  0  0  0  3  0  0  0  0  0  0
   38.1600   27.2880   32.8440 C   0  0  0  0  0  0  0  0  0  0  0  0
   37.0310   27.8760   33.4370 C   0  0  0  0  0  0  0  0  0  0  0  0
   36.7140   27.6630   34.4610 H   0  0  0  0  0  0  0  0  0  0  0  0
   36.2040   28.7750   32.8020 C   0  0  0  0  0  0  0  0  0  0  0  0
   35.0970   29.4590   33.1380 N   0  0  0  0  0  0  0  0  0  0  0  0
   34.6200   29.4090   34.0640 H   0  0  0  0  0  0  0  0  0  0  0  0
   34.7060   30.1990   32.1200 N   0  0  0  0  0  0  0  0  0  0  0  0
   35.5200   30.0460   31.0770 C   0  0  0  0  0  0  0  0  0  0  0  0
   35.5160   30.4820   30.0930 H   0  0  0  0  0  0  0  0  0  0  0  0
   36.4720   29.1460   31.5010 C   0  0  0  0  0  0  0  0  0  0  0  0
   37.5710   28.5920   30.8830 C   0  0  0  0  0  3  0  0  0  0  0  0
  1  6  1  0  0  0  0
  2  1  2  0  0  0  0
  2  3  1  0  0  0  0
  3  4  2  0  0  0  0
  4  5  1  0  0  0  0
  5  7  1  0  0  0  0
  6  5  2  0  0  0  0
  7 12  1  0  0  0  0
  7  8  1  0  0  0  0
  8 16  1  0  0  0  0
  8  9  1  0  0  0  0
  9 10  1  0  0  0  0
  9 19  1  0  0  0  0
  9 18  1  0  0  0  0
 10 20  1  0  0  0  0
 11 22  1  0  0  0  0
 11 23  1  0  0  0  0
 11 10  1  0  0  0  0
 12 24  1  6  0  0  0
 12 11  1  0  0  0  0
 13  1  1  0  0  0  0
 14  2  1  0  0  0  0
 15  3  1  0  0  0  0
 17  8  1  0  0  0  0
 21 10  1  0  0  0  0
 25 26  1  0  0  0  0
 26 27  2  0  0  0  0
 26 12  1  0  0  0  0
 27 28  1  0  0  0  0
 29 30  1  0  0  0  0
 29 27  1  0  0  0  0
 30 31  1  0  0  0  0
 32 30  1  0  0  0  0
 33 35  1  0  0  0  0
 33 32  2  0  0  0  0
 34 33  1  0  0  0  0
 35 29  2  0  0  0  0
 36 35  1  0  0  0  0
 36 25  2  0  0  0  0
M  END
>  <minimizedAffinity>
-5.26683187

$$$$
