
 OpenBabel03262521533D

 26 28  0  0  0  0  0  0  0  0999 V2000
   34.7480   29.4230   50.1200 C   0  0  0  0  0  0  0  0  0  0  0  0
   34.0830   29.1730   50.9830 H   0  0  0  0  0  0  0  0  0  0  0  0
   34.3640   30.3600   49.6670 H   0  0  0  0  0  0  0  0  0  0  0  0
   36.4490   29.6700   50.6640 S   0  0  0  0  0  0  0  0  0  0  0  0
   37.2800   30.7110   49.4670 C   0  0  0  0  0  0  0  0  0  0  0  0
   37.4320   32.0220   49.8830 C   0  0  0  0  0  0  0  0  0  0  0  0
   38.0780   32.9010   48.9950 C   0  0  0  0  0  0  0  0  0  0  0  0
   38.5130   32.4150   47.7890 N   0  0  0  0  0  0  0  0  0  0  0  0
   38.3310   31.1320   47.4520 C   0  0  0  0  0  0  0  0  0  0  0  0
   37.7200   30.2840   48.2830 N   0  0  0  0  0  0  0  0  0  0  0  0
   37.1070   32.4480   50.8230 H   0  0  0  0  0  0  0  0  0  0  0  0
   38.2270   33.9310   49.2580 H   0  0  0  0  0  0  0  0  0  0  0  0
   38.6960   30.8070   46.4850 H   0  0  0  0  0  0  0  0  0  0  0  0
   34.5860   28.0630   48.9330 S   0  0  0  0  0  0  0  0  0  0  0  0
   32.8620   28.9120   46.9770 C   0  0  0  0  0  3  0  0  0  0  0  0
   32.9740   28.2160   48.1770 C   0  0  0  0  0  0  0  0  0  0  0  0
   31.8100   27.6770   48.7220 C   0  0  0  0  0  0  0  0  0  0  0  0
   31.9010   27.1450   49.6420 H   0  0  0  0  0  0  0  0  0  0  0  0
   30.5900   27.8320   48.0860 C   0  0  0  0  0  0  0  0  0  0  0  0
   29.3540   27.3920   48.4410 N   0  0  0  0  0  0  0  0  0  0  0  0
   29.0540   26.8390   49.2760 H   0  0  0  0  0  0  0  0  0  0  0  0
   28.5090   27.8000   47.4970 N   0  0  0  0  0  0  0  0  0  0  0  0
   29.2010   28.4820   46.5670 C   0  0  0  0  0  0  0  0  0  0  0  0
   28.7250   28.9220   45.6820 H   0  0  0  0  0  0  0  0  0  0  0  0
   30.5430   28.5310   46.8990 C   0  0  0  0  0  0  0  0  0  0  0  0
   31.6490   29.0860   46.3110 C   0  0  0  0  0  3  0  0  0  0  0  0
  1  4  1  0  0  0  0
  1  2  1  0  0  0  0
  3  1  1  0  0  0  0
  5  6  1  0  0  0  0
  5  4  1  0  0  0  0
  6 11  1  0  0  0  0
  7 12  1  0  0  0  0
  7  6  2  0  0  0  0
  8  7  1  0  0  0  0
  9  8  2  0  0  0  0
  9 10  1  0  0  0  0
 10  5  2  0  0  0  0
 13  9  1  0  0  0  0
 14  1  1  0  0  0  0
 15 16  1  0  0  0  0
 16 17  2  0  0  0  0
 16 14  1  0  0  0  0
 17 18  1  0  0  0  0
 19 20  1  0  0  0  0
 19 17  1  0  0  0  0
 20 21  1  0  0  0  0
 22 20  1  0  0  0  0
 23 25  1  0  0  0  0
 23 22  2  0  0  0  0
 24 23  1  0  0  0  0
 25 19  2  0  0  0  0
 26 25  1  0  0  0  0
 26 15  2  0  0  0  0
M  END
>  <minimizedAffinity>
-4.51135015

>  <minimizedRMSD>
2.09110355

$$$$
