
 OpenBabel03272506463D

 45 49  0  0  1  0  0  0  0  0999 V2000
   31.3590   26.8440   45.8860 O   0  0  0  0  0  0  0  0  0  0  0  0
   32.1630   28.4230   47.5360 C   0  0  2  0  0  0  0  0  0  0  0  0
   33.4250   28.3320   48.3390 C   0  0  1  0  0  0  0  0  0  0  0  0
   33.8570   27.0410   48.3020 O   0  0  0  0  0  0  0  0  0  0  0  0
   33.1590   26.3550   47.3130 C   0  0  0  0  0  0  0  0  0  0  0  0
   32.5040   27.3790   46.4250 C   0  0  1  0  0  0  0  0  0  0  0  0
   31.2430   28.1610   48.0480 H   0  0  0  0  0  0  0  0  0  0  0  0
   33.2830   28.7430   49.3570 H   0  0  0  0  0  0  0  0  0  0  0  0
   32.5100   25.6480   47.8010 H   0  0  0  0  0  0  0  0  0  0  0  0
   33.9580   25.8680   46.6910 H   0  0  0  0  0  0  0  0  0  0  0  0
   33.1850   27.9050   45.7630 H   0  0  0  0  0  0  0  0  0  0  0  0
   32.0380   29.6990   46.9480 O   0  0  0  0  0  0  0  0  0  0  0  0
   32.7860   29.7820   46.3010 H   0  0  0  0  0  0  0  0  0  0  0  0
   34.6870   29.3820   47.5070 S   0  0  0  0  0  0  0  0  0  0  0  0
   37.2120   29.3370   50.5620 C   0  0  0  0  0  0  0  0  0  0  0  0
   37.7450   30.6290   50.6020 C   0  0  0  0  0  0  0  0  0  0  0  0
   37.3120   31.5440   49.6570 C   0  0  0  0  0  0  0  0  0  0  0  0
   36.3890   31.1470   48.7320 N   0  0  0  0  0  0  0  0  0  0  0  0
   35.8960   29.8890   48.7250 C   0  0  0  0  0  0  0  0  0  0  0  0
   36.2990   28.9680   49.6370 N   0  0  0  0  0  0  0  0  0  0  0  0
   37.4890   28.5580   51.2570 H   0  0  0  0  0  0  0  0  0  0  0  0
   38.4730   30.8760   51.3630 H   0  0  0  0  0  0  0  0  0  0  0  0
   37.6880   32.5440   49.6440 H   0  0  0  0  0  0  0  0  0  0  0  0
   30.0440   28.6870   44.0050 Cl  0  0  0  0  0  0  0  0  0  0  0  0
   29.3980   27.9740   45.4640 C   0  0  0  0  0  0  0  0  0  0  0  0
   30.1110   27.1110   46.2610 C   0  0  0  0  0  0  0  0  0  0  0  0
   29.4780   26.5840   47.3900 C   0  0  0  0  0  0  0  0  0  0  0  0
   28.1760   26.9260   47.6870 C   0  0  0  0  0  0  0  0  0  0  0  0
   27.4490   27.7930   46.8910 C   0  0  0  0  0  0  0  0  0  0  0  0
   28.0770   28.3190   45.7660 C   0  0  0  0  0  0  0  0  0  0  0  0
   29.9600   25.8990   48.0660 H   0  0  0  0  0  0  0  0  0  0  0  0
   27.6930   26.5210   48.5530 H   0  0  0  0  0  0  0  0  0  0  0  0
   26.4300   28.0580   47.1280 H   0  0  0  0  0  0  0  0  0  0  0  0
   27.4990   30.5790   45.2040 C   0  0  0  0  0  3  0  0  0  0  0  0
   27.2970   29.2150   44.9560 C   0  0  0  0  0  0  0  0  0  0  0  0
   26.3810   28.9100   43.9760 C   0  0  0  0  0  0  0  0  0  0  0  0
   26.2310   27.8740   43.7930 H   0  0  0  0  0  0  0  0  0  0  0  0
   25.6970   29.8780   43.2710 C   0  0  0  0  0  0  0  0  0  0  0  0
   24.7800   29.7600   42.2950 N   0  0  0  0  0  0  0  0  0  0  0  0
   24.4450   28.8430   41.9170 H   0  0  0  0  0  0  0  0  0  0  0  0
   24.4430   30.9950   41.9650 N   0  0  0  0  0  0  0  0  0  0  0  0
   25.1070   31.8970   42.6930 C   0  0  0  0  0  0  0  0  0  0  0  0
   25.0550   32.9740   42.6630 H   0  0  0  0  0  0  0  0  0  0  0  0
   25.9340   31.2070   43.5540 C   0  0  0  0  0  0  0  0  0  0  0  0
   26.8400   31.5840   44.5280 C   0  0  0  0  0  3  0  0  0  0  0  0
  1 26  1  0  0  0  0
  1  6  1  0  0  0  0
  2  7  1  1  0  0  0
  2  3  1  0  0  0  0
  3  8  1  1  0  0  0
  4  3  1  0  0  0  0
  5  9  1  0  0  0  0
  5  4  1  0  0  0  0
  6 11  1  6  0  0  0
  6  5  1  0  0  0  0
  6  2  1  0  0  0  0
 10  5  1  0  0  0  0
 12  2  1  0  0  0  0
 13 12  1  0  0  0  0
 14  3  1  0  0  0  0
 14 19  1  0  0  0  0
 15 16  1  0  0  0  0
 15 21  1  0  0  0  0
 16 22  1  0  0  0  0
 17 16  2  0  0  0  0
 18 17  1  0  0  0  0
 19 18  2  0  0  0  0
 19 20  1  0  0  0  0
 20 15  2  0  0  0  0
 23 17  1  0  0  0  0
 24 25  1  0  0  0  0
 25 30  2  0  0  0  0
 25 26  1  0  0  0  0
 26 27  2  0  0  0  0
 27 28  1  0  0  0  0
 27 31  1  0  0  0  0
 28 32  1  0  0  0  0
 29 33  1  0  0  0  0
 29 28  2  0  0  0  0
 30 29  1  0  0  0  0
 35 34  1  0  0  0  0
 35 30  1  0  0  0  0
 36 35  2  0  0  0  0
 37 36  1  0  0  0  0
 38 44  2  0  0  0  0
 38 36  1  0  0  0  0
 39 38  1  0  0  0  0
 40 39  1  0  0  0  0
 41 39  1  0  0  0  0
 41 42  2  0  0  0  0
 42 44  1  0  0  0  0
 43 42  1  0  0  0  0
 44 45  1  0  0  0  0
 45 34  2  0  0  0  0
M  END
>  <minimizedAffinity>
-5.90047503

>  <minimizedRMSD>
0.771051049

$$$$
