
 OpenBabel03272506463D

 45 49  0  0  1  0  0  0  0  0999 V2000
   32.0430   27.0240   45.4650 O   0  0  0  0  0  0  0  0  0  0  0  0
   32.5120   28.6070   47.2360 C   0  0  2  0  0  0  0  0  0  0  0  0
   33.6930   28.6100   48.1600 C   0  0  1  0  0  0  0  0  0  0  0  0
   34.2580   27.3710   48.1270 O   0  0  0  0  0  0  0  0  0  0  0  0
   33.7350   26.6600   47.0510 C   0  0  0  0  0  0  0  0  0  0  0  0
   33.0670   27.6490   46.1330 C   0  0  1  0  0  0  0  0  0  0  0  0
   31.5790   28.2320   47.6430 H   0  0  0  0  0  0  0  0  0  0  0  0
   33.4090   28.9620   49.1710 H   0  0  0  0  0  0  0  0  0  0  0  0
   33.1190   25.8720   47.4490 H   0  0  0  0  0  0  0  0  0  0  0  0
   34.6380   26.2820   46.4980 H   0  0  0  0  0  0  0  0  0  0  0  0
   33.7510   28.2680   45.5610 H   0  0  0  0  0  0  0  0  0  0  0  0
   32.3130   29.8860   46.6770 O   0  0  0  0  0  0  0  0  0  0  0  0
   33.1080   30.0720   46.1130 H   0  0  0  0  0  0  0  0  0  0  0  0
   34.9130   29.8140   47.4920 S   0  0  0  0  0  0  0  0  0  0  0  0
   37.3010   29.4160   50.6310 C   0  0  0  0  0  0  0  0  0  0  0  0
   37.9820   30.6340   50.7170 C   0  0  0  0  0  0  0  0  0  0  0  0
   37.6970   31.6100   49.7770 C   0  0  0  0  0  0  0  0  0  0  0  0
   36.7670   31.3420   48.8120 N   0  0  0  0  0  0  0  0  0  0  0  0
   36.1290   30.1530   48.7620 C   0  0  0  0  0  0  0  0  0  0  0  0
   36.3860   29.1740   49.6670 N   0  0  0  0  0  0  0  0  0  0  0  0
   37.4580   28.5970   51.3190 H   0  0  0  0  0  0  0  0  0  0  0  0
   38.7060   30.7790   51.5070 H   0  0  0  0  0  0  0  0  0  0  0  0
   38.1890   32.5580   49.7990 H   0  0  0  0  0  0  0  0  0  0  0  0
   30.1430   26.7470   43.2330 Cl  0  0  0  0  0  0  0  0  0  0  0  0
   29.8180   26.7320   44.9500 C   0  0  0  0  0  0  0  0  0  0  0  0
   30.7980   26.8600   45.9040 C   0  0  0  0  0  0  0  0  0  0  0  0
   30.4170   26.8080   47.2480 C   0  0  0  0  0  0  0  0  0  0  0  0
   29.0950   26.6320   47.5960 C   0  0  0  0  0  0  0  0  0  0  0  0
   28.1000   26.5010   46.6430 C   0  0  0  0  0  0  0  0  0  0  0  0
   28.4760   26.5540   45.3040 C   0  0  0  0  0  0  0  0  0  0  0  0
   31.1180   26.8950   48.0600 H   0  0  0  0  0  0  0  0  0  0  0  0
   28.8060   26.5920   48.6270 H   0  0  0  0  0  0  0  0  0  0  0  0
   27.0660   26.3640   46.9200 H   0  0  0  0  0  0  0  0  0  0  0  0
   26.5650   27.5130   44.2180 C   0  0  0  0  0  3  0  0  0  0  0  0
   27.4230   26.4130   44.3360 C   0  0  0  0  0  0  0  0  0  0  0  0
   27.1490   25.3430   43.5160 C   0  0  0  0  0  0  0  0  0  0  0  0
   27.8020   24.5110   43.6100 H   0  0  0  0  0  0  0  0  0  0  0  0
   26.0950   25.3410   42.6260 C   0  0  0  0  0  0  0  0  0  0  0  0
   25.6870   24.3950   41.7610 N   0  0  0  0  0  0  0  0  0  0  0  0
   26.1570   23.4680   41.6470 H   0  0  0  0  0  0  0  0  0  0  0  0
   24.6300   24.8990   41.1470 N   0  0  0  0  0  0  0  0  0  0  0  0
   24.3460   26.1280   41.5850 C   0  0  0  0  0  0  0  0  0  0  0  0
   23.5530   26.7970   41.2860 H   0  0  0  0  0  0  0  0  0  0  0  0
   25.2800   26.4500   42.5490 C   0  0  0  0  0  0  0  0  0  0  0  0
   25.4980   27.5600   43.3450 C   0  0  0  0  0  3  0  0  0  0  0  0
  1 26  1  0  0  0  0
  1  6  1  0  0  0  0
  2  7  1  1  0  0  0
  2  3  1  0  0  0  0
  3  8  1  1  0  0  0
  4  3  1  0  0  0  0
  5  9  1  0  0  0  0
  5  4  1  0  0  0  0
  6 11  1  6  0  0  0
  6  5  1  0  0  0  0
  6  2  1  0  0  0  0
 10  5  1  0  0  0  0
 12  2  1  0  0  0  0
 13 12  1  0  0  0  0
 14  3  1  0  0  0  0
 14 19  1  0  0  0  0
 15 16  1  0  0  0  0
 15 21  1  0  0  0  0
 16 22  1  0  0  0  0
 17 23  1  0  0  0  0
 17 16  2  0  0  0  0
 18 17  1  0  0  0  0
 19 18  2  0  0  0  0
 19 20  1  0  0  0  0
 20 15  2  0  0  0  0
 24 25  1  0  0  0  0
 25 30  2  0  0  0  0
 25 26  1  0  0  0  0
 26 27  2  0  0  0  0
 27 28  1  0  0  0  0
 27 31  1  0  0  0  0
 28 32  1  0  0  0  0
 29 33  1  0  0  0  0
 29 28  2  0  0  0  0
 30 29  1  0  0  0  0
 34 35  1  0  0  0  0
 35 30  1  0  0  0  0
 36 37  1  0  0  0  0
 36 35  2  0  0  0  0
 38 36  1  0  0  0  0
 39 38  1  0  0  0  0
 40 39  1  0  0  0  0
 41 42  2  0  0  0  0
 41 39  1  0  0  0  0
 42 44  1  0  0  0  0
 43 42  1  0  0  0  0
 44 38  2  0  0  0  0
 44 45  1  0  0  0  0
 45 34  2  0  0  0  0
M  END
>  <minimizedAffinity>
-5.60714674

>  <minimizedRMSD>
3.00575185

$$$$
