
 OpenBabel03272510253D

 35 39  0  0  0  0  0  0  0  0999 V2000
   38.2870   24.1410   33.7190 C   0  0  0  0  0  0  0  0  0  0  0  0
   38.5190   24.6530   34.9850 C   0  0  0  0  0  0  0  0  0  0  0  0
   38.0580   25.9140   35.3340 C   0  0  0  0  0  0  0  0  0  0  0  0
   37.3590   26.6200   34.3490 C   0  0  0  0  0  0  0  0  0  0  0  0
   36.8120   27.8590   34.4400 N   0  0  0  0  0  0  0  0  0  0  0  0
   36.2460   28.1230   33.2550 C   0  0  0  0  0  0  0  0  0  0  0  0
   36.4170   27.0970   32.4220 N   0  0  0  0  0  0  0  0  0  0  0  0
   37.1090   26.1450   33.0800 C   0  0  0  0  0  0  0  0  0  0  0  0
   37.5850   24.8730   32.7600 C   0  0  0  0  0  0  0  0  0  0  0  0
   38.6410   23.1710   33.4520 H   0  0  0  0  0  0  0  0  0  0  0  0
   38.2390   26.3040   36.3080 H   0  0  0  0  0  0  0  0  0  0  0  0
   36.8330   28.4900   35.2870 H   0  0  0  0  0  0  0  0  0  0  0  0
   37.4030   24.4720   31.7650 H   0  0  0  0  0  0  0  0  0  0  0  0
   41.0100   22.3740   36.6400 C   0  0  0  0  0  0  0  0  0  0  0  0
   40.4120   23.1190   35.6370 C   0  0  0  0  0  0  0  0  0  0  0  0
   39.2590   23.8280   35.9310 C   0  0  0  0  0  0  0  0  0  0  0  0
   38.7670   23.7510   37.2100 N   0  0  0  0  0  0  0  0  0  0  0  0
   39.3810   23.0130   38.1560 C   0  0  0  0  0  0  0  0  0  0  0  0
   40.4810   22.3380   37.8760 N   0  0  0  0  0  0  0  0  0  0  0  0
   41.9140   21.8460   36.3290 H   0  0  0  0  0  0  0  0  0  0  0  0
   40.7870   23.1920   34.6150 H   0  0  0  0  0  0  0  0  0  0  0  0
   38.9860   22.9560   39.1740 H   0  0  0  0  0  0  0  0  0  0  0  0
   35.5870   29.3290   33.0040 O   0  0  0  0  0  0  0  0  0  0  0  0
   33.6980   29.6850   34.3120 C   0  0  0  0  0  3  0  0  0  0  0  0
   35.0320   30.0150   34.0680 C   0  0  0  0  0  0  0  0  0  0  0  0
   35.6220   30.9650   34.9020 C   0  0  0  0  0  0  0  0  0  0  0  0
   36.6390   31.1660   34.6580 H   0  0  0  0  0  0  0  0  0  0  0  0
   34.8790   31.5310   35.9140 C   0  0  0  0  0  0  0  0  0  0  0  0
   35.2490   32.4530   36.8190 N   0  0  0  0  0  0  0  0  0  0  0  0
   36.1790   32.9140   36.9190 H   0  0  0  0  0  0  0  0  0  0  0  0
   34.2210   32.7250   37.6220 N   0  0  0  0  0  0  0  0  0  0  0  0
   33.1630   31.9860   37.2560 C   0  0  0  0  0  0  0  0  0  0  0  0
   32.1490   31.8910   37.6220 H   0  0  0  0  0  0  0  0  0  0  0  0
   33.5620   31.2160   36.1670 C   0  0  0  0  0  0  0  0  0  0  0  0
   32.9700   30.2630   35.3310 C   0  0  0  0  0  3  0  0  0  0  0  0
  1  2  1  0  0  0  0
  2  3  2  0  0  0  0
  2 16  1  0  0  0  0
  3 11  1  0  0  0  0
  4  5  1  0  0  0  0
  4  3  1  0  0  0  0
  5 12  1  0  0  0  0
  6  5  1  0  0  0  0
  7  8  1  0  0  0  0
  7  6  2  0  0  0  0
  8  4  2  0  0  0  0
  9  8  1  0  0  0  0
  9  1  2  0  0  0  0
 10  1  1  0  0  0  0
 13  9  1  0  0  0  0
 14 19  1  0  0  0  0
 15 16  1  0  0  0  0
 15 14  2  0  0  0  0
 16 17  2  0  0  0  0
 17 18  1  0  0  0  0
 18 22  1  0  0  0  0
 19 18  2  0  0  0  0
 20 14  1  0  0  0  0
 21 15  1  0  0  0  0
 23  6  1  0  0  0  0
 23 25  1  0  0  0  0
 24 35  1  0  0  0  0
 25 24  2  0  0  0  0
 25 26  1  0  0  0  0
 26 28  2  0  0  0  0
 27 26  1  0  0  0  0
 28 34  1  0  0  0  0
 28 29  1  0  0  0  0
 29 30  1  0  0  0  0
 29 31  1  0  0  0  0
 32 31  2  0  0  0  0
 32 33  1  0  0  0  0
 34 32  1  0  0  0  0
 35 34  2  0  0  0  0
M  END
>  <minimizedAffinity>
-6.24725389

$$$$

 OpenBabel03272510253D

 35 39  0  0  0  0  0  0  0  0999 V2000
   35.7030   30.4210   32.9110 C   0  0  0  0  0  0  0  0  0  0  0  0
   35.6070   29.9180   34.1980 C   0  0  0  0  0  0  0  0  0  0  0  0
   36.0600   28.6420   34.4950 C   0  0  0  0  0  0  0  0  0  0  0  0
   36.6090   27.9100   33.4370 C   0  0  0  0  0  0  0  0  0  0  0  0
   37.1180   26.6510   33.4670 N   0  0  0  0  0  0  0  0  0  0  0  0
   37.5270   26.3670   32.2240 C   0  0  0  0  0  0  0  0  0  0  0  0
   37.2950   27.3970   31.4130 N   0  0  0  0  0  0  0  0  0  0  0  0
   36.7220   28.3750   32.1440 C   0  0  0  0  0  0  0  0  0  0  0  0
   36.2570   29.6630   31.8770 C   0  0  0  0  0  0  0  0  0  0  0  0
   35.3550   31.4030   32.6840 H   0  0  0  0  0  0  0  0  0  0  0  0
   35.9840   28.2590   35.4860 H   0  0  0  0  0  0  0  0  0  0  0  0
   37.1760   26.0230   34.3140 H   0  0  0  0  0  0  0  0  0  0  0  0
   36.3330   30.0570   30.8670 H   0  0  0  0  0  0  0  0  0  0  0  0
   35.0130   32.4580   36.9060 C   0  0  0  0  0  0  0  0  0  0  0  0
   35.7050   31.7180   35.9630 C   0  0  0  0  0  0  0  0  0  0  0  0
   35.0170   30.7710   35.2220 C   0  0  0  0  0  0  0  0  0  0  0  0
   33.6760   30.6160   35.4660 N   0  0  0  0  0  0  0  0  0  0  0  0
   33.0390   31.3580   36.3940 C   0  0  0  0  0  0  0  0  0  0  0  0
   33.6960   32.2620   37.1000 N   0  0  0  0  0  0  0  0  0  0  0  0
   35.6240   33.1830   37.4480 H   0  0  0  0  0  0  0  0  0  0  0  0
   36.7720   31.8260   35.7550 H   0  0  0  0  0  0  0  0  0  0  0  0
   31.9710   31.2320   36.5840 H   0  0  0  0  0  0  0  0  0  0  0  0
   38.1060   25.1370   31.9020 O   0  0  0  0  0  0  0  0  0  0  0  0
   36.3130   23.8850   31.1110 C   0  0  0  0  0  3  0  0  0  0  0  0
   37.3480   23.9890   32.0420 C   0  0  0  0  0  0  0  0  0  0  0  0
   37.4860   22.9550   32.9680 C   0  0  0  0  0  0  0  0  0  0  0  0
   38.2940   23.1020   33.6450 H   0  0  0  0  0  0  0  0  0  0  0  0
   36.6110   21.8920   32.9290 C   0  0  0  0  0  0  0  0  0  0  0  0
   36.5680   20.8050   33.7190 N   0  0  0  0  0  0  0  0  0  0  0  0
   37.1980   20.5680   34.5150 H   0  0  0  0  0  0  0  0  0  0  0  0
   35.5610   20.0200   33.3380 N   0  0  0  0  0  0  0  0  0  0  0  0
   34.9300   20.5780   32.2950 C   0  0  0  0  0  0  0  0  0  0  0  0
   34.0830   20.2910   31.6870 H   0  0  0  0  0  0  0  0  0  0  0  0
   35.5850   21.7750   32.0170 C   0  0  0  0  0  0  0  0  0  0  0  0
   35.4470   22.8120   31.0890 C   0  0  0  0  0  3  0  0  0  0  0  0
  1  2  1  0  0  0  0
  2  3  2  0  0  0  0
  2 16  1  0  0  0  0
  3 11  1  0  0  0  0
  4  5  1  0  0  0  0
  4  3  1  0  0  0  0
  5 12  1  0  0  0  0
  6  5  1  0  0  0  0
  7  8  1  0  0  0  0
  7  6  2  0  0  0  0
  8  4  2  0  0  0  0
  9  8  1  0  0  0  0
  9  1  2  0  0  0  0
 10  1  1  0  0  0  0
 13  9  1  0  0  0  0
 14 19  1  0  0  0  0
 14 20  1  0  0  0  0
 15 14  2  0  0  0  0
 16 17  2  0  0  0  0
 16 15  1  0  0  0  0
 17 18  1  0  0  0  0
 18 22  1  0  0  0  0
 18 19  2  0  0  0  0
 21 15  1  0  0  0  0
 23 25  1  0  0  0  0
 23  6  1  0  0  0  0
 24 25  1  0  0  0  0
 25 26  2  0  0  0  0
 26 27  1  0  0  0  0
 28 26  1  0  0  0  0
 28 29  1  0  0  0  0
 29 30  1  0  0  0  0
 31 29  1  0  0  0  0
 32 31  2  0  0  0  0
 33 32  1  0  0  0  0
 34 32  1  0  0  0  0
 34 28  2  0  0  0  0
 35 24  2  0  0  0  0
 35 34  1  0  0  0  0
M  END
>  <minimizedAffinity>
-6.2432127

$$$$

 OpenBabel03272510253D

 35 39  0  0  0  0  0  0  0  0999 V2000
   38.2710   24.1760   33.8220 C   0  0  0  0  0  0  0  0  0  0  0  0
   38.4910   24.6690   35.0970 C   0  0  0  0  0  0  0  0  0  0  0  0
   38.0590   25.9380   35.4500 C   0  0  0  0  0  0  0  0  0  0  0  0
   37.4010   26.6740   34.4600 C   0  0  0  0  0  0  0  0  0  0  0  0
   36.8870   27.9270   34.5540 N   0  0  0  0  0  0  0  0  0  0  0  0
   36.3520   28.2190   33.3600 C   0  0  0  0  0  0  0  0  0  0  0  0
   36.5100   27.1970   32.5200 N   0  0  0  0  0  0  0  0  0  0  0  0
   37.1630   26.2190   33.1810 C   0  0  0  0  0  0  0  0  0  0  0  0
   37.6100   24.9380   32.8560 C   0  0  0  0  0  0  0  0  0  0  0  0
   38.6030   23.2000   33.5510 H   0  0  0  0  0  0  0  0  0  0  0  0
   38.2320   26.3130   36.4330 H   0  0  0  0  0  0  0  0  0  0  0  0
   36.9080   28.5480   35.4080 H   0  0  0  0  0  0  0  0  0  0  0  0
   37.4350   24.5520   31.8540 H   0  0  0  0  0  0  0  0  0  0  0  0
   39.5920   22.7960   38.1670 C   0  0  0  0  0  0  0  0  0  0  0  0
   38.8340   23.6440   37.3770 C   0  0  0  0  0  0  0  0  0  0  0  0
   39.1890   23.8130   36.0480 C   0  0  0  0  0  0  0  0  0  0  0  0
   40.2830   23.1260   35.5850 N   0  0  0  0  0  0  0  0  0  0  0  0
   40.9930   22.3090   36.3880 C   0  0  0  0  0  0  0  0  0  0  0  0
   40.6540   22.1480   37.6550 N   0  0  0  0  0  0  0  0  0  0  0  0
   39.2470   22.7160   39.2000 H   0  0  0  0  0  0  0  0  0  0  0  0
   37.9620   24.2000   37.7270 H   0  0  0  0  0  0  0  0  0  0  0  0
   41.8620   21.7630   36.0140 H   0  0  0  0  0  0  0  0  0  0  0  0
   35.7330   29.4460   33.1100 O   0  0  0  0  0  0  0  0  0  0  0  0
   35.7350   31.0330   34.8090 C   0  0  0  0  0  3  0  0  0  0  0  0
   35.0180   30.0480   34.1290 C   0  0  0  0  0  0  0  0  0  0  0  0
   33.7100   29.8010   34.5460 C   0  0  0  0  0  0  0  0  0  0  0  0
   33.2250   29.0390   33.9830 H   0  0  0  0  0  0  0  0  0  0  0  0
   33.1870   30.5250   35.5950 C   0  0  0  0  0  0  0  0  0  0  0  0
   31.9640   30.4470   36.1480 N   0  0  0  0  0  0  0  0  0  0  0  0
   31.1800   29.8140   35.8800 H   0  0  0  0  0  0  0  0  0  0  0  0
   31.8700   31.3290   37.1420 N   0  0  0  0  0  0  0  0  0  0  0  0
   33.0270   31.9980   37.2560 C   0  0  0  0  0  0  0  0  0  0  0  0
   33.3810   32.7830   37.9110 H   0  0  0  0  0  0  0  0  0  0  0  0
   33.8820   31.5000   36.2760 C   0  0  0  0  0  0  0  0  0  0  0  0
   35.1940   31.7470   35.8570 C   0  0  0  0  0  3  0  0  0  0  0  0
  1  2  1  0  0  0  0
  2  3  2  0  0  0  0
  2 16  1  0  0  0  0
  3 11  1  0  0  0  0
  4  5  1  0  0  0  0
  4  3  1  0  0  0  0
  5 12  1  0  0  0  0
  6  5  1  0  0  0  0
  7  8  1  0  0  0  0
  7  6  2  0  0  0  0
  8  4  2  0  0  0  0
  9  8  1  0  0  0  0
  9  1  2  0  0  0  0
 10  1  1  0  0  0  0
 13  9  1  0  0  0  0
 14 20  1  0  0  0  0
 15 21  1  0  0  0  0
 15 14  2  0  0  0  0
 16 15  1  0  0  0  0
 17 16  2  0  0  0  0
 17 18  1  0  0  0  0
 18 19  2  0  0  0  0
 19 14  1  0  0  0  0
 22 18  1  0  0  0  0
 23  6  1  0  0  0  0
 23 25  1  0  0  0  0
 24 35  1  0  0  0  0
 25 26  1  0  0  0  0
 25 24  2  0  0  0  0
 26 28  2  0  0  0  0
 27 26  1  0  0  0  0
 28 29  1  0  0  0  0
 28 34  1  0  0  0  0
 29 31  1  0  0  0  0
 30 29  1  0  0  0  0
 31 32  2  0  0  0  0
 32 33  1  0  0  0  0
 34 32  1  0  0  0  0
 35 34  2  0  0  0  0
M  END
>  <minimizedAffinity>
-6.12825012

$$$$

 OpenBabel03272510253D

 35 39  0  0  0  0  0  0  0  0999 V2000
   36.9330   28.2070   35.1130 C   0  0  0  0  0  0  0  0  0  0  0  0
   36.1400   28.9100   34.2230 C   0  0  0  0  0  0  0  0  0  0  0  0
   35.8750   28.4050   32.9590 C   0  0  0  0  0  0  0  0  0  0  0  0
   36.4480   27.1680   32.6460 C   0  0  0  0  0  0  0  0  0  0  0  0
   36.3420   26.4670   31.4880 N   0  0  0  0  0  0  0  0  0  0  0  0
   37.0540   25.3440   31.6460 C   0  0  0  0  0  0  0  0  0  0  0  0
   37.6040   25.3120   32.8590 N   0  0  0  0  0  0  0  0  0  0  0  0
   37.2420   26.4390   33.5040 C   0  0  0  0  0  0  0  0  0  0  0  0
   37.4890   26.9740   34.7690 C   0  0  0  0  0  0  0  0  0  0  0  0
   37.1350   28.5960   36.0860 H   0  0  0  0  0  0  0  0  0  0  0  0
   35.2650   28.9500   32.2760 H   0  0  0  0  0  0  0  0  0  0  0  0
   35.7990   26.7590   30.6300 H   0  0  0  0  0  0  0  0  0  0  0  0
   38.1120   26.4200   35.4680 H   0  0  0  0  0  0  0  0  0  0  0  0
   35.4820   32.1630   35.9910 C   0  0  0  0  0  0  0  0  0  0  0  0
   36.1040   30.9640   35.6880 C   0  0  0  0  0  0  0  0  0  0  0  0
   35.5960   30.1910   34.6560 C   0  0  0  0  0  0  0  0  0  0  0  0
   34.4930   30.6600   33.9870 N   0  0  0  0  0  0  0  0  0  0  0  0
   33.9180   31.8340   34.3140 C   0  0  0  0  0  0  0  0  0  0  0  0
   34.4040   32.5710   35.2970 N   0  0  0  0  0  0  0  0  0  0  0  0
   35.9420   32.7140   36.8150 H   0  0  0  0  0  0  0  0  0  0  0  0
   36.9800   30.5740   36.2090 H   0  0  0  0  0  0  0  0  0  0  0  0
   33.0410   32.2040   33.7770 H   0  0  0  0  0  0  0  0  0  0  0  0
   37.1580   24.3880   30.6320 O   0  0  0  0  0  0  0  0  0  0  0  0
   37.9140   22.1920   30.7320 C   0  0  0  0  0  3  0  0  0  0  0  0
   36.8500   23.0730   30.9260 C   0  0  0  0  0  0  0  0  0  0  0  0
   35.6440   22.5360   31.3780 C   0  0  0  0  0  0  0  0  0  0  0  0
   34.8790   23.2650   31.5030 H   0  0  0  0  0  0  0  0  0  0  0  0
   35.5540   21.1820   31.6110 C   0  0  0  0  0  0  0  0  0  0  0  0
   34.4990   20.4680   32.0430 N   0  0  0  0  0  0  0  0  0  0  0  0
   33.5460   20.8160   32.2830 H   0  0  0  0  0  0  0  0  0  0  0  0
   34.8400   19.1830   32.1330 N   0  0  0  0  0  0  0  0  0  0  0  0
   36.1200   19.0340   31.7620 C   0  0  0  0  0  0  0  0  0  0  0  0
   36.7880   18.1860   31.6850 H   0  0  0  0  0  0  0  0  0  0  0  0
   36.5950   20.2990   31.4240 C   0  0  0  0  0  0  0  0  0  0  0  0
   37.8030   20.8380   30.9710 C   0  0  0  0  0  3  0  0  0  0  0  0
  1 10  1  0  0  0  0
  2 16  1  0  0  0  0
  2  1  2  0  0  0  0
  3  2  1  0  0  0  0
  4  3  2  0  0  0  0
  4  8  1  0  0  0  0
  5  6  1  0  0  0  0
  5  4  1  0  0  0  0
  6  7  2  0  0  0  0
  7  8  1  0  0  0  0
  8  9  2  0  0  0  0
  9  1  1  0  0  0  0
  9 13  1  0  0  0  0
 11  3  1  0  0  0  0
 12  5  1  0  0  0  0
 14 20  1  0  0  0  0
 15 14  1  0  0  0  0
 15 21  1  0  0  0  0
 16 15  2  0  0  0  0
 17 18  2  0  0  0  0
 17 16  1  0  0  0  0
 18 19  1  0  0  0  0
 19 14  2  0  0  0  0
 22 18  1  0  0  0  0
 23 25  1  0  0  0  0
 23  6  1  0  0  0  0
 24 25  2  0  0  0  0
 24 35  1  0  0  0  0
 25 26  1  0  0  0  0
 26 27  1  0  0  0  0
 26 28  2  0  0  0  0
 28 29  1  0  0  0  0
 29 31  1  0  0  0  0
 29 30  1  0  0  0  0
 32 31  2  0  0  0  0
 33 32  1  0  0  0  0
 34 28  1  0  0  0  0
 34 32  1  0  0  0  0
 35 34  2  0  0  0  0
M  END
>  <minimizedAffinity>
-6.01643896

$$$$

 OpenBabel03272510253D

 35 39  0  0  0  0  0  0  0  0999 V2000
   35.8690   29.8900   32.5170 C   0  0  0  0  0  0  0  0  0  0  0  0
   35.8150   29.7440   33.8930 C   0  0  0  0  0  0  0  0  0  0  0  0
   36.2120   28.5590   34.4950 C   0  0  0  0  0  0  0  0  0  0  0  0
   36.6610   27.5440   33.6440 C   0  0  0  0  0  0  0  0  0  0  0  0
   37.1000   26.3040   33.9830 N   0  0  0  0  0  0  0  0  0  0  0  0
   37.4250   25.6820   32.8420 C   0  0  0  0  0  0  0  0  0  0  0  0
   37.2080   26.4820   31.8000 N   0  0  0  0  0  0  0  0  0  0  0  0
   36.7300   27.6510   32.2720 C   0  0  0  0  0  0  0  0  0  0  0  0
   36.3240   28.8560   31.6960 C   0  0  0  0  0  0  0  0  0  0  0  0
   35.5640   30.8020   32.0550 H   0  0  0  0  0  0  0  0  0  0  0  0
   36.1680   28.4510   35.5540 H   0  0  0  0  0  0  0  0  0  0  0  0
   37.1690   25.9130   34.9610 H   0  0  0  0  0  0  0  0  0  0  0  0
   36.3670   28.9700   30.6160 H   0  0  0  0  0  0  0  0  0  0  0  0
   35.3330   32.4110   36.4990 C   0  0  0  0  0  0  0  0  0  0  0  0
   35.9050   31.3270   35.8540 C   0  0  0  0  0  0  0  0  0  0  0  0
   35.3290   30.8690   34.6810 C   0  0  0  0  0  0  0  0  0  0  0  0
   34.2130   31.5200   34.2180 N   0  0  0  0  0  0  0  0  0  0  0  0
   33.6880   32.5720   34.8770 C   0  0  0  0  0  0  0  0  0  0  0  0
   34.2380   33.0090   35.9960 N   0  0  0  0  0  0  0  0  0  0  0  0
   35.8450   32.7110   37.4160 H   0  0  0  0  0  0  0  0  0  0  0  0
   36.7920   30.7960   36.2070 H   0  0  0  0  0  0  0  0  0  0  0  0
   32.8000   33.0880   34.5030 H   0  0  0  0  0  0  0  0  0  0  0  0
   37.9170   24.3750   32.8300 O   0  0  0  0  0  0  0  0  0  0  0  0
   40.0610   24.4780   33.7240 C   0  0  0  0  0  3  0  0  0  0  0  0
   38.7650   23.9750   33.8460 C   0  0  0  0  0  0  0  0  0  0  0  0
   38.4940   23.1590   34.9440 C   0  0  0  0  0  0  0  0  0  0  0  0
   37.4870   22.8120   34.9730 H   0  0  0  0  0  0  0  0  0  0  0  0
   39.4960   22.8850   35.8470 C   0  0  0  0  0  0  0  0  0  0  0  0
   39.4490   22.1310   36.9600 N   0  0  0  0  0  0  0  0  0  0  0  0
   38.6310   21.6100   37.3440 H   0  0  0  0  0  0  0  0  0  0  0  0
   40.6450   22.1300   37.5470 N   0  0  0  0  0  0  0  0  0  0  0  0
   41.4930   22.8820   36.8310 C   0  0  0  0  0  0  0  0  0  0  0  0
   42.5360   23.1500   36.9390 H   0  0  0  0  0  0  0  0  0  0  0  0
   40.7800   23.3740   35.7410 C   0  0  0  0  0  0  0  0  0  0  0  0
   41.0520   24.1930   34.6400 C   0  0  0  0  0  3  0  0  0  0  0  0
  1  2  1  0  0  0  0
  2  3  2  0  0  0  0
  2 16  1  0  0  0  0
  3 11  1  0  0  0  0
  4  5  1  0  0  0  0
  4  3  1  0  0  0  0
  5 12  1  0  0  0  0
  6  5  1  0  0  0  0
  7  8  1  0  0  0  0
  7  6  2  0  0  0  0
  8  4  2  0  0  0  0
  9  8  1  0  0  0  0
  9  1  2  0  0  0  0
 10  1  1  0  0  0  0
 13  9  1  0  0  0  0
 14 20  1  0  0  0  0
 15 21  1  0  0  0  0
 15 14  2  0  0  0  0
 16 15  1  0  0  0  0
 17 16  2  0  0  0  0
 17 18  1  0  0  0  0
 18 19  2  0  0  0  0
 19 14  1  0  0  0  0
 22 18  1  0  0  0  0
 23  6  1  0  0  0  0
 23 25  1  0  0  0  0
 24 25  2  0  0  0  0
 24 35  1  0  0  0  0
 25 26  1  0  0  0  0
 26 27  1  0  0  0  0
 26 28  2  0  0  0  0
 28 29  1  0  0  0  0
 29 30  1  0  0  0  0
 29 31  1  0  0  0  0
 32 33  1  0  0  0  0
 32 31  2  0  0  0  0
 34 28  1  0  0  0  0
 34 32  1  0  0  0  0
 35 34  2  0  0  0  0
M  END
>  <minimizedAffinity>
-6.00833654

$$$$

 OpenBabel03272510253D

 35 39  0  0  0  0  0  0  0  0999 V2000
   37.9570   24.7060   33.8850 C   0  0  0  0  0  0  0  0  0  0  0  0
   38.1240   25.1760   35.1770 C   0  0  0  0  0  0  0  0  0  0  0  0
   37.6850   26.4430   35.5320 C   0  0  0  0  0  0  0  0  0  0  0  0
   37.0760   27.1990   34.5250 C   0  0  0  0  0  0  0  0  0  0  0  0
   36.5660   28.4540   34.6170 N   0  0  0  0  0  0  0  0  0  0  0  0
   36.0870   28.7690   33.4060 C   0  0  0  0  0  0  0  0  0  0  0  0
   36.2760   27.7600   32.5570 N   0  0  0  0  0  0  0  0  0  0  0  0
   36.8920   26.7670   33.2300 C   0  0  0  0  0  0  0  0  0  0  0  0
   37.3450   25.4880   32.9040 C   0  0  0  0  0  0  0  0  0  0  0  0
   38.2950   23.7320   33.6140 H   0  0  0  0  0  0  0  0  0  0  0  0
   37.8160   26.8000   36.5270 H   0  0  0  0  0  0  0  0  0  0  0  0
   36.5530   29.0610   35.4810 H   0  0  0  0  0  0  0  0  0  0  0  0
   37.2130   25.1200   31.8890 H   0  0  0  0  0  0  0  0  0  0  0  0
   39.0380   23.1960   38.2410 C   0  0  0  0  0  0  0  0  0  0  0  0
   38.3160   24.0540   37.4280 C   0  0  0  0  0  0  0  0  0  0  0  0
   38.7730   24.3000   36.1440 C   0  0  0  0  0  0  0  0  0  0  0  0
   39.9280   23.6750   35.7440 N   0  0  0  0  0  0  0  0  0  0  0  0
   40.6010   22.8470   36.5670 C   0  0  0  0  0  0  0  0  0  0  0  0
   40.1640   22.6120   37.7910 N   0  0  0  0  0  0  0  0  0  0  0  0
   38.6120   23.0530   39.2360 H   0  0  0  0  0  0  0  0  0  0  0  0
   37.3960   24.5610   37.7280 H   0  0  0  0  0  0  0  0  0  0  0  0
   41.5190   22.3500   36.2430 H   0  0  0  0  0  0  0  0  0  0  0  0
   35.4870   30.0040   33.1490 O   0  0  0  0  0  0  0  0  0  0  0  0
   33.5960   29.7240   34.4730 C   0  0  0  0  0  3  0  0  0  0  0  0
   34.1110   30.1040   33.2320 C   0  0  0  0  0  0  0  0  0  0  0  0
   33.2020   30.5250   32.2610 C   0  0  0  0  0  0  0  0  0  0  0  0
   33.6650   30.7990   31.3420 H   0  0  0  0  0  0  0  0  0  0  0  0
   31.8580   30.5480   32.5580 C   0  0  0  0  0  0  0  0  0  0  0  0
   30.8270   30.9140   31.7770 N   0  0  0  0  0  0  0  0  0  0  0  0
   30.8600   31.2520   30.7910 H   0  0  0  0  0  0  0  0  0  0  0  0
   29.6880   30.7860   32.4560 N   0  0  0  0  0  0  0  0  0  0  0  0
   29.9540   30.3350   33.6910 C   0  0  0  0  0  0  0  0  0  0  0  0
   29.3440   30.0950   34.5520 H   0  0  0  0  0  0  0  0  0  0  0  0
   31.3340   30.1760   33.7770 C   0  0  0  0  0  0  0  0  0  0  0  0
   32.2460   29.7540   34.7510 C   0  0  0  0  0  3  0  0  0  0  0  0
  1  2  1  0  0  0  0
  2  3  2  0  0  0  0
  2 16  1  0  0  0  0
  3 11  1  0  0  0  0
  4  5  1  0  0  0  0
  4  3  1  0  0  0  0
  5 12  1  0  0  0  0
  6  5  1  0  0  0  0
  7  8  1  0  0  0  0
  7  6  2  0  0  0  0
  8  4  2  0  0  0  0
  9  8  1  0  0  0  0
  9  1  2  0  0  0  0
 10  1  1  0  0  0  0
 13  9  1  0  0  0  0
 14 20  1  0  0  0  0
 15 21  1  0  0  0  0
 15 14  2  0  0  0  0
 16 15  1  0  0  0  0
 17 16  2  0  0  0  0
 17 18  1  0  0  0  0
 18 19  2  0  0  0  0
 19 14  1  0  0  0  0
 22 18  1  0  0  0  0
 23 25  1  0  0  0  0
 23  6  1  0  0  0  0
 24 35  1  0  0  0  0
 25 24  2  0  0  0  0
 26 28  2  0  0  0  0
 26 25  1  0  0  0  0
 27 26  1  0  0  0  0
 28 34  1  0  0  0  0
 29 31  1  0  0  0  0
 29 28  1  0  0  0  0
 30 29  1  0  0  0  0
 31 32  2  0  0  0  0
 32 34  1  0  0  0  0
 32 33  1  0  0  0  0
 34 35  2  0  0  0  0
M  END
>  <minimizedAffinity>
-6.00533581

$$$$

 OpenBabel03272510253D

 35 39  0  0  0  0  0  0  0  0999 V2000
   37.5690   23.3690   32.8800 C   0  0  0  0  0  0  0  0  0  0  0  0
   36.5670   23.0910   31.9660 C   0  0  0  0  0  0  0  0  0  0  0  0
   35.7800   24.1070   31.4460 C   0  0  0  0  0  0  0  0  0  0  0  0
   36.0560   25.4040   31.8930 C   0  0  0  0  0  0  0  0  0  0  0  0
   35.4350   26.5590   31.5400 N   0  0  0  0  0  0  0  0  0  0  0  0
   36.0350   27.5460   32.2190 C   0  0  0  0  0  0  0  0  0  0  0  0
   37.0080   27.0560   32.9850 N   0  0  0  0  0  0  0  0  0  0  0  0
   37.0430   25.7210   32.8010 C   0  0  0  0  0  0  0  0  0  0  0  0
   37.8180   24.6750   33.3060 C   0  0  0  0  0  0  0  0  0  0  0  0
   38.1740   22.5860   33.2790 H   0  0  0  0  0  0  0  0  0  0  0  0
   35.0100   23.8880   30.7430 H   0  0  0  0  0  0  0  0  0  0  0  0
   34.6330   26.6530   30.8590 H   0  0  0  0  0  0  0  0  0  0  0  0
   38.6040   24.8960   34.0240 H   0  0  0  0  0  0  0  0  0  0  0  0
   35.3060   19.5680   31.5890 C   0  0  0  0  0  0  0  0  0  0  0  0
   35.3740   20.8700   32.0560 C   0  0  0  0  0  0  0  0  0  0  0  0
   36.3690   21.7020   31.5710 C   0  0  0  0  0  0  0  0  0  0  0  0
   37.2430   21.1850   30.6470 N   0  0  0  0  0  0  0  0  0  0  0  0
   37.1420   19.9110   30.2190 C   0  0  0  0  0  0  0  0  0  0  0  0
   36.1920   19.1180   30.6820 N   0  0  0  0  0  0  0  0  0  0  0  0
   34.4940   18.9770   32.0190 H   0  0  0  0  0  0  0  0  0  0  0  0
   34.6890   21.2990   32.7900 H   0  0  0  0  0  0  0  0  0  0  0  0
   37.8390   19.5040   29.4830 H   0  0  0  0  0  0  0  0  0  0  0  0
   35.6360   28.8780   32.0870 O   0  0  0  0  0  0  0  0  0  0  0  0
   33.8180   29.4920   33.4000 C   0  0  0  0  0  3  0  0  0  0  0  0
   35.2000   29.5540   33.2110 C   0  0  0  0  0  0  0  0  0  0  0  0
   35.9460   30.2680   34.1490 C   0  0  0  0  0  0  0  0  0  0  0  0
   36.9900   30.2730   33.9410 H   0  0  0  0  0  0  0  0  0  0  0  0
   35.3020   30.8720   35.2060 C   0  0  0  0  0  0  0  0  0  0  0  0
   35.8240   31.5990   36.2090 N   0  0  0  0  0  0  0  0  0  0  0  0
   36.8260   31.8390   36.3700 H   0  0  0  0  0  0  0  0  0  0  0  0
   34.8480   31.9990   37.0230 N   0  0  0  0  0  0  0  0  0  0  0  0
   33.6720   31.5420   36.5670 C   0  0  0  0  0  0  0  0  0  0  0  0
   32.6490   31.6270   36.9070 H   0  0  0  0  0  0  0  0  0  0  0  0
   33.9400   30.8200   35.4070 C   0  0  0  0  0  0  0  0  0  0  0  0
   33.1920   30.1040   34.4650 C   0  0  0  0  0  3  0  0  0  0  0  0
  1 10  1  0  0  0  0
  1  9  1  0  0  0  0
  2  1  2  0  0  0  0
  3  4  2  0  0  0  0
  3  2  1  0  0  0  0
  4  8  1  0  0  0  0
  5  4  1  0  0  0  0
  5  6  1  0  0  0  0
  6  7  2  0  0  0  0
  8  7  1  0  0  0  0
  8  9  2  0  0  0  0
  9 13  1  0  0  0  0
 11  3  1  0  0  0  0
 12  5  1  0  0  0  0
 14 20  1  0  0  0  0
 14 15  1  0  0  0  0
 15 21  1  0  0  0  0
 16  2  1  0  0  0  0
 16 15  2  0  0  0  0
 17 16  1  0  0  0  0
 18 17  2  0  0  0  0
 18 19  1  0  0  0  0
 19 14  2  0  0  0  0
 22 18  1  0  0  0  0
 23  6  1  0  0  0  0
 23 25  1  0  0  0  0
 24 35  1  0  0  0  0
 25 24  2  0  0  0  0
 25 26  1  0  0  0  0
 26 28  2  0  0  0  0
 27 26  1  0  0  0  0
 28 34  1  0  0  0  0
 28 29  1  0  0  0  0
 29 30  1  0  0  0  0
 29 31  1  0  0  0  0
 32 33  1  0  0  0  0
 32 31  2  0  0  0  0
 34 32  1  0  0  0  0
 35 34  2  0  0  0  0
M  END
>  <minimizedAffinity>
-5.97445345

$$$$

 OpenBabel03272510253D

 35 39  0  0  0  0  0  0  0  0999 V2000
   38.1790   24.8600   33.7530 C   0  0  0  0  0  0  0  0  0  0  0  0
   38.0220   25.2520   35.0720 C   0  0  0  0  0  0  0  0  0  0  0  0
   37.3430   26.4190   35.3880 C   0  0  0  0  0  0  0  0  0  0  0  0
   36.8380   27.1600   34.3140 C   0  0  0  0  0  0  0  0  0  0  0  0
   36.1440   28.3270   34.3580 N   0  0  0  0  0  0  0  0  0  0  0  0
   35.8690   28.6630   33.0910 C   0  0  0  0  0  0  0  0  0  0  0  0
   36.3630   27.7540   32.2530 N   0  0  0  0  0  0  0  0  0  0  0  0
   36.9740   26.8040   32.9900 C   0  0  0  0  0  0  0  0  0  0  0  0
   37.6620   25.6240   32.7050 C   0  0  0  0  0  0  0  0  0  0  0  0
   38.7010   23.9620   33.5110 H   0  0  0  0  0  0  0  0  0  0  0  0
   37.2250   26.7170   36.4040 H   0  0  0  0  0  0  0  0  0  0  0  0
   35.8760   28.8610   35.2290 H   0  0  0  0  0  0  0  0  0  0  0  0
   37.7840   25.3180   31.6690 H   0  0  0  0  0  0  0  0  0  0  0  0
   38.7080   23.3840   38.2630 C   0  0  0  0  0  0  0  0  0  0  0  0
   38.0580   24.2270   37.3760 C   0  0  0  0  0  0  0  0  0  0  0  0
   38.5900   24.4010   36.1090 C   0  0  0  0  0  0  0  0  0  0  0  0
   39.7430   23.7240   35.7990 N   0  0  0  0  0  0  0  0  0  0  0  0
   40.3450   22.9130   36.6920 C   0  0  0  0  0  0  0  0  0  0  0  0
   39.8360   22.7470   37.9000 N   0  0  0  0  0  0  0  0  0  0  0  0
   38.2270   23.3000   39.2390 H   0  0  0  0  0  0  0  0  0  0  0  0
   37.1410   24.7740   37.6040 H   0  0  0  0  0  0  0  0  0  0  0  0
   41.2620   22.3750   36.4400 H   0  0  0  0  0  0  0  0  0  0  0  0
   35.1580   29.8230   32.7740 O   0  0  0  0  0  0  0  0  0  0  0  0
   36.2580   31.7540   32.0880 C   0  0  0  0  0  3  0  0  0  0  0  0
   35.6840   31.0460   33.1460 C   0  0  0  0  0  0  0  0  0  0  0  0
   35.7110   31.6420   34.4070 C   0  0  0  0  0  0  0  0  0  0  0  0
   35.2560   31.0460   35.1640 H   0  0  0  0  0  0  0  0  0  0  0  0
   36.2920   32.8810   34.5570 C   0  0  0  0  0  0  0  0  0  0  0  0
   36.4230   33.6240   35.6700 N   0  0  0  0  0  0  0  0  0  0  0  0
   36.1040   33.3910   36.6350 H   0  0  0  0  0  0  0  0  0  0  0  0
   37.0490   34.7620   35.3740 N   0  0  0  0  0  0  0  0  0  0  0  0
   37.3370   34.7840   34.0640 C   0  0  0  0  0  0  0  0  0  0  0  0
   37.8260   35.4960   33.4130 H   0  0  0  0  0  0  0  0  0  0  0  0
   36.8620   33.5920   33.5230 C   0  0  0  0  0  0  0  0  0  0  0  0
   36.8350   32.9940   32.2590 C   0  0  0  0  0  3  0  0  0  0  0  0
  1  2  1  0  0  0  0
  2  3  2  0  0  0  0
  2 16  1  0  0  0  0
  3 11  1  0  0  0  0
  4  5  1  0  0  0  0
  4  3  1  0  0  0  0
  5 12  1  0  0  0  0
  6  5  1  0  0  0  0
  7  8  1  0  0  0  0
  7  6  2  0  0  0  0
  8  4  2  0  0  0  0
  9  8  1  0  0  0  0
  9  1  2  0  0  0  0
 10  1  1  0  0  0  0
 13  9  1  0  0  0  0
 14 20  1  0  0  0  0
 15 21  1  0  0  0  0
 15 14  2  0  0  0  0
 16 15  1  0  0  0  0
 17 16  2  0  0  0  0
 17 18  1  0  0  0  0
 18 19  2  0  0  0  0
 19 14  1  0  0  0  0
 22 18  1  0  0  0  0
 23  6  1  0  0  0  0
 23 25  1  0  0  0  0
 24 35  2  0  0  0  0
 24 25  1  0  0  0  0
 25 26  2  0  0  0  0
 26 28  1  0  0  0  0
 26 27  1  0  0  0  0
 28 29  1  0  0  0  0
 29 30  1  0  0  0  0
 31 29  1  0  0  0  0
 32 31  2  0  0  0  0
 33 32  1  0  0  0  0
 34 32  1  0  0  0  0
 34 28  2  0  0  0  0
 35 34  1  0  0  0  0
M  END
>  <minimizedAffinity>
-5.911623

$$$$

 OpenBabel03272510253D

 35 39  0  0  0  0  0  0  0  0999 V2000
   37.2910   23.5160   32.7520 C   0  0  0  0  0  0  0  0  0  0  0  0
   36.3520   23.1420   31.8060 C   0  0  0  0  0  0  0  0  0  0  0  0
   35.7400   24.0910   31.0010 C   0  0  0  0  0  0  0  0  0  0  0  0
   36.1240   25.4220   31.2000 C   0  0  0  0  0  0  0  0  0  0  0  0
   35.6780   26.5260   30.5470 N   0  0  0  0  0  0  0  0  0  0  0  0
   36.3240   27.5750   31.0720 C   0  0  0  0  0  0  0  0  0  0  0  0
   37.1590   27.1740   32.0290 N   0  0  0  0  0  0  0  0  0  0  0  0
   37.0540   25.8330   32.1300 C   0  0  0  0  0  0  0  0  0  0  0  0
   37.6510   24.8540   32.9250 C   0  0  0  0  0  0  0  0  0  0  0  0
   37.7610   22.7850   33.3700 H   0  0  0  0  0  0  0  0  0  0  0  0
   35.0180   23.7990   30.2750 H   0  0  0  0  0  0  0  0  0  0  0  0
   34.9580   26.5450   29.7740 H   0  0  0  0  0  0  0  0  0  0  0  0
   38.3890   25.1490   33.6670 H   0  0  0  0  0  0  0  0  0  0  0  0
   34.8580   19.7130   32.1990 C   0  0  0  0  0  0  0  0  0  0  0  0
   35.0560   21.0660   32.4180 C   0  0  0  0  0  0  0  0  0  0  0  0
   36.0290   21.7260   31.6870 C   0  0  0  0  0  0  0  0  0  0  0  0
   36.7530   20.9950   30.7770 N   0  0  0  0  0  0  0  0  0  0  0  0
   36.5290   19.6790   30.5940 C   0  0  0  0  0  0  0  0  0  0  0  0
   35.5990   19.0510   31.2920 N   0  0  0  0  0  0  0  0  0  0  0  0
   34.0740   19.2670   32.8130 H   0  0  0  0  0  0  0  0  0  0  0  0
   34.4920   21.6630   33.1370 H   0  0  0  0  0  0  0  0  0  0  0  0
   37.1060   19.1020   29.8680 H   0  0  0  0  0  0  0  0  0  0  0  0
   36.0990   28.8790   30.6230 O   0  0  0  0  0  0  0  0  0  0  0  0
   37.3370   30.7770   30.1050 C   0  0  0  0  0  3  0  0  0  0  0  0
   37.0230   29.4580   29.7740 C   0  0  0  0  0  0  0  0  0  0  0  0
   37.6620   28.9050   28.6640 C   0  0  0  0  0  0  0  0  0  0  0  0
   37.3740   27.8970   28.4720 H   0  0  0  0  0  0  0  0  0  0  0  0
   38.5590   29.6670   27.9510 C   0  0  0  0  0  0  0  0  0  0  0  0
   39.2750   29.3320   26.8630 N   0  0  0  0  0  0  0  0  0  0  0  0
   39.2790   28.4210   26.3560 H   0  0  0  0  0  0  0  0  0  0  0  0
   40.0240   30.3680   26.4880 N   0  0  0  0  0  0  0  0  0  0  0  0
   39.8120   31.3970   27.3230 C   0  0  0  0  0  0  0  0  0  0  0  0
   40.2000   32.4040   27.3890 H   0  0  0  0  0  0  0  0  0  0  0  0
   38.8800   30.9700   28.2650 C   0  0  0  0  0  0  0  0  0  0  0  0
   38.2390   31.5250   29.3780 C   0  0  0  0  0  3  0  0  0  0  0  0
  1  9  1  0  0  0  0
  1 10  1  0  0  0  0
  2  1  2  0  0  0  0
  3  4  2  0  0  0  0
  3  2  1  0  0  0  0
  4  8  1  0  0  0  0
  5  6  1  0  0  0  0
  5  4  1  0  0  0  0
  6  7  2  0  0  0  0
  7  8  1  0  0  0  0
  8  9  2  0  0  0  0
  9 13  1  0  0  0  0
 11  3  1  0  0  0  0
 12  5  1  0  0  0  0
 14 15  1  0  0  0  0
 14 20  1  0  0  0  0
 15 21  1  0  0  0  0
 16  2  1  0  0  0  0
 16 15  2  0  0  0  0
 17 16  1  0  0  0  0
 18 17  2  0  0  0  0
 18 19  1  0  0  0  0
 19 14  2  0  0  0  0
 22 18  1  0  0  0  0
 23  6  1  0  0  0  0
 25 24  1  0  0  0  0
 25 23  1  0  0  0  0
 26 25  2  0  0  0  0
 27 26  1  0  0  0  0
 28 34  2  0  0  0  0
 28 26  1  0  0  0  0
 29 28  1  0  0  0  0
 30 29  1  0  0  0  0
 31 29  1  0  0  0  0
 31 32  2  0  0  0  0
 32 33  1  0  0  0  0
 32 34  1  0  0  0  0
 34 35  1  0  0  0  0
 35 24  2  0  0  0  0
M  END
>  <minimizedAffinity>
-5.86809492

$$$$
