
 OpenBabel03262521473D

 33 35  0  0  0  0  0  0  0  0999 V2000
   34.7320   30.5440   49.1530 O   0  0  0  0  0  0  0  0  0  0  0  0
   34.4770   29.4160   50.1390 P   0  0  2  0  0  0  0  0  0  0  0  0
   33.0250   29.7740   50.9040 O   0  0  0  0  0  0  0  0  0  0  0  0
   33.0810   29.4600   51.8340 H   0  0  0  0  0  0  0  0  0  0  0  0
   35.7620   29.3790   51.2470 O   0  0  0  0  0  0  0  0  0  0  0  0
   36.9910   29.2590   50.5880 C   0  0  0  0  0  0  0  0  0  0  0  0
   36.8400   29.0940   49.5200 H   0  0  0  0  0  0  0  0  0  0  0  0
   37.5340   28.3530   50.9790 H   0  0  0  0  0  0  0  0  0  0  0  0
   37.7580   30.5190   50.8070 C   0  0  0  0  0  0  0  0  0  0  0  0
   38.6870   30.2800   51.3950 H   0  0  0  0  0  0  0  0  0  0  0  0
   37.2080   31.2530   51.4590 H   0  0  0  0  0  0  0  0  0  0  0  0
   38.1420   31.2340   49.5870 C   0  0  0  0  0  0  0  0  0  0  0  0
   38.5640   32.5590   49.6010 C   0  0  0  0  0  0  0  0  0  0  0  0
   38.9050   33.1350   48.3690 C   0  0  0  0  0  0  0  0  0  0  0  0
   38.8080   32.3760   47.2330 N   0  0  0  0  0  0  0  0  0  0  0  0
   38.3850   31.0740   47.2800 C   0  0  0  0  0  0  0  0  0  0  0  0
   38.0550   30.5110   48.4630 N   0  0  0  0  0  0  0  0  0  0  0  0
   38.6210   33.1110   50.5280 H   0  0  0  0  0  0  0  0  0  0  0  0
   39.2390   34.1630   48.3220 H   0  0  0  0  0  0  0  0  0  0  0  0
   38.3300   30.5250   46.3460 H   0  0  0  0  0  0  0  0  0  0  0  0
   34.3260   27.9480   49.3340 O   0  0  0  0  0  0  0  0  0  0  0  0
   33.7430   27.8710   47.0150 C   0  0  0  0  0  3  0  0  0  0  0  0
   33.3580   27.8270   48.3440 C   0  0  0  0  0  0  0  0  0  0  0  0
   32.0120   27.6640   48.5700 C   0  0  0  0  0  0  0  0  0  0  0  0
   31.6880   27.6270   49.5990 H   0  0  0  0  0  0  0  0  0  0  0  0
   31.1130   27.5510   47.5230 C   0  0  0  0  0  0  0  0  0  0  0  0
   29.7960   27.3900   47.5190 N   0  0  0  0  0  0  0  0  0  0  0  0
   29.1130   27.3100   48.3210 H   0  0  0  0  0  0  0  0  0  0  0  0
   29.3600   27.3340   46.2550 N   0  0  0  0  0  0  0  0  0  0  0  0
   30.4210   27.4610   45.4190 C   0  0  0  0  0  0  0  0  0  0  0  0
   30.4350   27.4600   44.3220 H   0  0  0  0  0  0  0  0  0  0  0  0
   31.5460   27.6010   46.2020 C   0  0  0  0  0  0  0  0  0  0  0  0
   32.8770   27.7620   45.9380 C   0  0  0  0  0  3  0  0  0  0  0  0
  2  1  2  6  0  0  0
  2  3  1  0  0  0  0
  2  5  1  0  0  0  0
  3  4  1  0  0  0  0
  6  9  1  0  0  0  0
  6  8  1  0  0  0  0
  6  5  1  0  0  0  0
  7  6  1  0  0  0  0
  9 10  1  0  0  0  0
  9 11  1  0  0  0  0
 12 13  1  0  0  0  0
 12  9  1  0  0  0  0
 13 18  1  0  0  0  0
 14 13  2  0  0  0  0
 15 16  2  0  0  0  0
 15 14  1  0  0  0  0
 16 17  1  0  0  0  0
 17 12  2  0  0  0  0
 19 14  1  0  0  0  0
 20 16  1  0  0  0  0
 21  2  1  0  0  0  0
 22 23  1  0  0  0  0
 23 24  2  0  0  0  0
 23 21  1  0  0  0  0
 24 25  1  0  0  0  0
 26 24  1  0  0  0  0
 27 26  1  0  0  0  0
 27 28  1  0  0  0  0
 29 27  1  0  0  0  0
 30 32  1  0  0  0  0
 30 29  2  0  0  0  0
 31 30  1  0  0  0  0
 32 26  2  0  0  0  0
 33 32  1  0  0  0  0
 33 22  2  0  0  0  0
M  END
>  <minimizedAffinity>
-5.52883339

>  <minimizedRMSD>
1.45891023

$$$$
