
 OpenBabel03262521473D

 33 35  0  0  0  0  0  0  0  0999 V2000
   34.7050   30.6160   49.2350 O   0  0  0  0  0  0  0  0  0  0  0  0
   34.4750   29.4380   50.1680 P   0  0  2  0  0  0  0  0  0  0  0  0
   32.9920   29.7040   50.9100 O   0  0  0  0  0  0  0  0  0  0  0  0
   33.0390   29.3550   51.8270 H   0  0  0  0  0  0  0  0  0  0  0  0
   35.7350   29.4100   51.3060 O   0  0  0  0  0  0  0  0  0  0  0  0
   36.9750   29.2430   50.6790 C   0  0  0  0  0  0  0  0  0  0  0  0
   36.8440   29.0210   49.6190 H   0  0  0  0  0  0  0  0  0  0  0  0
   37.5020   28.3560   51.1300 H   0  0  0  0  0  0  0  0  0  0  0  0
   37.7500   30.5070   50.8430 C   0  0  0  0  0  0  0  0  0  0  0  0
   38.6890   30.2840   51.4210 H   0  0  0  0  0  0  0  0  0  0  0  0
   37.2130   31.2630   51.4820 H   0  0  0  0  0  0  0  0  0  0  0  0
   38.1110   31.1820   49.5940 C   0  0  0  0  0  0  0  0  0  0  0  0
   38.5540   32.5000   49.5600 C   0  0  0  0  0  0  0  0  0  0  0  0
   38.8710   33.0370   48.3040 C   0  0  0  0  0  0  0  0  0  0  0  0
   38.7310   32.2490   47.1920 N   0  0  0  0  0  0  0  0  0  0  0  0
   38.2900   30.9550   47.2860 C   0  0  0  0  0  0  0  0  0  0  0  0
   37.9820   30.4310   48.4930 N   0  0  0  0  0  0  0  0  0  0  0  0
   38.6450   33.0760   50.4690 H   0  0  0  0  0  0  0  0  0  0  0  0
   39.2200   34.0570   48.2190 H   0  0  0  0  0  0  0  0  0  0  0  0
   38.2000   30.3820   46.3700 H   0  0  0  0  0  0  0  0  0  0  0  0
   34.4070   28.0000   49.3010 O   0  0  0  0  0  0  0  0  0  0  0  0
   32.2460   27.5020   48.4030 C   0  0  0  0  0  3  0  0  0  0  0  0
   33.5520   27.9210   48.2090 C   0  0  0  0  0  0  0  0  0  0  0  0
   33.8930   28.2300   46.9130 C   0  0  0  0  0  0  0  0  0  0  0  0
   34.9050   28.5600   46.7370 H   0  0  0  0  0  0  0  0  0  0  0  0
   32.9750   28.1230   45.8820 C   0  0  0  0  0  0  0  0  0  0  0  0
   33.0930   28.3680   44.5810 N   0  0  0  0  0  0  0  0  0  0  0  0
   33.9220   28.7040   44.0200 H   0  0  0  0  0  0  0  0  0  0  0  0
   31.9250   28.1170   43.9760 N   0  0  0  0  0  0  0  0  0  0  0  0
   31.0300   27.7020   44.9060 C   0  0  0  0  0  0  0  0  0  0  0  0
   29.9800   27.4120   44.7670 H   0  0  0  0  0  0  0  0  0  0  0  0
   31.6730   27.6980   46.1240 C   0  0  0  0  0  0  0  0  0  0  0  0
   31.2970   27.3800   47.3990 C   0  0  0  0  0  3  0  0  0  0  0  0
  2  1  2  6  0  0  0
  2  3  1  0  0  0  0
  2  5  1  0  0  0  0
  3  4  1  0  0  0  0
  6  9  1  0  0  0  0
  6  8  1  0  0  0  0
  6  5  1  0  0  0  0
  7  6  1  0  0  0  0
  9 10  1  0  0  0  0
  9 11  1  0  0  0  0
 12  9  1  0  0  0  0
 13 12  1  0  0  0  0
 13 18  1  0  0  0  0
 14 13  2  0  0  0  0
 15 16  2  0  0  0  0
 15 14  1  0  0  0  0
 16 17  1  0  0  0  0
 17 12  2  0  0  0  0
 19 14  1  0  0  0  0
 20 16  1  0  0  0  0
 21  2  1  0  0  0  0
 23 22  1  0  0  0  0
 23 21  1  0  0  0  0
 24 23  2  0  0  0  0
 25 24  1  0  0  0  0
 26 32  2  0  0  0  0
 26 24  1  0  0  0  0
 27 26  1  0  0  0  0
 28 27  1  0  0  0  0
 29 27  1  0  0  0  0
 29 30  2  0  0  0  0
 30 32  1  0  0  0  0
 31 30  1  0  0  0  0
 32 33  1  0  0  0  0
 33 22  2  0  0  0  0
M  END
>  <minimizedAffinity>
-5.37334633

>  <minimizedRMSD>
0.844778299

$$$$
