
 OpenBabel03272510243D

 35 39  0  0  0  0  0  0  0  0999 V2000
   36.0120   30.0600   46.5570 C   0  0  0  0  0  0  0  0  0  0  0  0
   36.9220   30.6710   47.4030 C   0  0  0  0  0  0  0  0  0  0  0  0
   37.8770   31.5440   46.9030 C   0  0  0  0  0  0  0  0  0  0  0  0
   37.8630   31.7650   45.5220 C   0  0  0  0  0  0  0  0  0  0  0  0
   38.6840   32.5660   44.7960 N   0  0  0  0  0  0  0  0  0  0  0  0
   38.2970   32.4620   43.5180 C   0  0  0  0  0  0  0  0  0  0  0  0
   37.2660   31.6270   43.4120 N   0  0  0  0  0  0  0  0  0  0  0  0
   36.9740   31.1760   44.6490 C   0  0  0  0  0  0  0  0  0  0  0  0
   36.0250   30.3030   45.1830 C   0  0  0  0  0  0  0  0  0  0  0  0
   35.2780   29.3890   46.9430 H   0  0  0  0  0  0  0  0  0  0  0  0
   38.5760   32.0110   47.5580 H   0  0  0  0  0  0  0  0  0  0  0  0
   39.4740   33.1550   45.1740 H   0  0  0  0  0  0  0  0  0  0  0  0
   35.3100   29.8240   44.5170 H   0  0  0  0  0  0  0  0  0  0  0  0
   37.5680   30.3970   51.0980 C   0  0  0  0  0  0  0  0  0  0  0  0
   37.7710   30.7600   49.7770 C   0  0  0  0  0  0  0  0  0  0  0  0
   36.8440   30.3660   48.8260 C   0  0  0  0  0  0  0  0  0  0  0  0
   35.7650   29.6300   49.2480 N   0  0  0  0  0  0  0  0  0  0  0  0
   35.6040   29.2990   50.5450 C   0  0  0  0  0  0  0  0  0  0  0  0
   36.4890   29.6750   51.4510 N   0  0  0  0  0  0  0  0  0  0  0  0
   38.3410   30.7450   51.7850 H   0  0  0  0  0  0  0  0  0  0  0  0
   38.6230   31.3430   49.4210 H   0  0  0  0  0  0  0  0  0  0  0  0
   34.7430   28.7140   50.8770 H   0  0  0  0  0  0  0  0  0  0  0  0
   38.9390   33.1640   42.4950 O   0  0  0  0  0  0  0  0  0  0  0  0
   36.8490   33.7660   41.6710 C   0  0  0  0  0  3  0  0  0  0  0  0
   38.2010   33.5550   41.3930 C   0  0  0  0  0  0  0  0  0  0  0  0
   38.6260   33.7580   40.0800 C   0  0  0  0  0  0  0  0  0  0  0  0
   39.6680   33.5780   39.9430 H   0  0  0  0  0  0  0  0  0  0  0  0
   37.7140   34.1510   39.1260 C   0  0  0  0  0  0  0  0  0  0  0  0
   37.9120   34.3990   37.8200 N   0  0  0  0  0  0  0  0  0  0  0  0
   38.8050   34.3360   37.2860 H   0  0  0  0  0  0  0  0  0  0  0  0
   36.7580   34.7540   37.2560 N   0  0  0  0  0  0  0  0  0  0  0  0
   35.7890   34.7460   38.1830 C   0  0  0  0  0  0  0  0  0  0  0  0
   34.7290   34.9640   38.1640 H   0  0  0  0  0  0  0  0  0  0  0  0
   36.3780   34.3640   39.3850 C   0  0  0  0  0  0  0  0  0  0  0  0
   35.9510   34.1600   40.7020 C   0  0  0  0  0  3  0  0  0  0  0  0
  1 10  1  0  0  0  0
  1  2  1  0  0  0  0
  2 16  1  0  0  0  0
  3  2  2  0  0  0  0
  3 11  1  0  0  0  0
  4  3  1  0  0  0  0
  5 12  1  0  0  0  0
  5  4  1  0  0  0  0
  6  5  1  0  0  0  0
  7  6  2  0  0  0  0
  7  8  1  0  0  0  0
  8  9  1  0  0  0  0
  8  4  2  0  0  0  0
  9  1  2  0  0  0  0
 13  9  1  0  0  0  0
 14 19  1  0  0  0  0
 14 20  1  0  0  0  0
 15 14  2  0  0  0  0
 16 17  2  0  0  0  0
 16 15  1  0  0  0  0
 17 18  1  0  0  0  0
 18 22  1  0  0  0  0
 18 19  2  0  0  0  0
 21 15  1  0  0  0  0
 23  6  1  0  0  0  0
 25 24  1  0  0  0  0
 25 23  1  0  0  0  0
 26 25  2  0  0  0  0
 27 26  1  0  0  0  0
 28 34  2  0  0  0  0
 28 26  1  0  0  0  0
 29 28  1  0  0  0  0
 30 29  1  0  0  0  0
 31 29  1  0  0  0  0
 31 32  2  0  0  0  0
 32 34  1  0  0  0  0
 33 32  1  0  0  0  0
 34 35  1  0  0  0  0
 35 24  2  0  0  0  0
M  END
>  <minimizedAffinity>
-5.50435019

>  <minimizedRMSD>
2.35704565

$$$$
