
 OpenBabel03262521473D

 33 35  0  0  0  0  0  0  0  0999 V2000
   34.7320   30.5420   49.1520 O   0  0  0  0  0  0  0  0  0  0  0  0
   34.4760   29.4150   50.1390 P   0  0  2  0  0  0  0  0  0  0  0  0
   33.0250   29.7760   50.9040 O   0  0  0  0  0  0  0  0  0  0  0  0
   33.0820   29.4620   51.8340 H   0  0  0  0  0  0  0  0  0  0  0  0
   35.7630   29.3780   51.2460 O   0  0  0  0  0  0  0  0  0  0  0  0
   36.9920   29.2590   50.5860 C   0  0  0  0  0  0  0  0  0  0  0  0
   36.8400   29.0960   49.5170 H   0  0  0  0  0  0  0  0  0  0  0  0
   37.5350   28.3530   50.9750 H   0  0  0  0  0  0  0  0  0  0  0  0
   37.7580   30.5200   50.8050 C   0  0  0  0  0  0  0  0  0  0  0  0
   38.6860   30.2810   51.3940 H   0  0  0  0  0  0  0  0  0  0  0  0
   37.2070   31.2540   51.4570 H   0  0  0  0  0  0  0  0  0  0  0  0
   38.1430   31.2350   49.5850 C   0  0  0  0  0  0  0  0  0  0  0  0
   38.5640   32.5600   49.6000 C   0  0  0  0  0  0  0  0  0  0  0  0
   38.9070   33.1360   48.3680 C   0  0  0  0  0  0  0  0  0  0  0  0
   38.8100   32.3780   47.2320 N   0  0  0  0  0  0  0  0  0  0  0  0
   38.3870   31.0750   47.2780 C   0  0  0  0  0  0  0  0  0  0  0  0
   38.0560   30.5130   48.4610 N   0  0  0  0  0  0  0  0  0  0  0  0
   38.6210   33.1120   50.5270 H   0  0  0  0  0  0  0  0  0  0  0  0
   39.2410   34.1640   48.3220 H   0  0  0  0  0  0  0  0  0  0  0  0
   38.3330   30.5270   46.3450 H   0  0  0  0  0  0  0  0  0  0  0  0
   34.3240   27.9470   49.3350 O   0  0  0  0  0  0  0  0  0  0  0  0
   33.7430   27.8700   47.0160 C   0  0  0  0  0  3  0  0  0  0  0  0
   33.3570   27.8260   48.3450 C   0  0  0  0  0  0  0  0  0  0  0  0
   32.0110   27.6630   48.5710 C   0  0  0  0  0  0  0  0  0  0  0  0
   31.6860   27.6250   49.5990 H   0  0  0  0  0  0  0  0  0  0  0  0
   31.1120   27.5510   47.5230 C   0  0  0  0  0  0  0  0  0  0  0  0
   29.7940   27.3900   47.5180 N   0  0  0  0  0  0  0  0  0  0  0  0
   29.1110   27.3090   48.3190 H   0  0  0  0  0  0  0  0  0  0  0  0
   29.3590   27.3340   46.2530 N   0  0  0  0  0  0  0  0  0  0  0  0
   30.4200   27.4620   45.4180 C   0  0  0  0  0  0  0  0  0  0  0  0
   30.4350   27.4610   44.3200 H   0  0  0  0  0  0  0  0  0  0  0  0
   31.5460   27.6010   46.2020 C   0  0  0  0  0  0  0  0  0  0  0  0
   32.8770   27.7630   45.9370 C   0  0  0  0  0  3  0  0  0  0  0  0
  2  1  2  6  0  0  0
  2  3  1  0  0  0  0
  2  5  1  0  0  0  0
  3  4  1  0  0  0  0
  6  9  1  0  0  0  0
  6  8  1  0  0  0  0
  6  5  1  0  0  0  0
  7  6  1  0  0  0  0
  9 10  1  0  0  0  0
  9 11  1  0  0  0  0
 12 13  1  0  0  0  0
 12  9  1  0  0  0  0
 13 18  1  0  0  0  0
 14 13  2  0  0  0  0
 15 16  2  0  0  0  0
 15 14  1  0  0  0  0
 16 17  1  0  0  0  0
 17 12  2  0  0  0  0
 19 14  1  0  0  0  0
 20 16  1  0  0  0  0
 21  2  1  0  0  0  0
 22 23  1  0  0  0  0
 23 24  2  0  0  0  0
 23 21  1  0  0  0  0
 24 25  1  0  0  0  0
 26 24  1  0  0  0  0
 27 26  1  0  0  0  0
 27 28  1  0  0  0  0
 29 27  1  0  0  0  0
 30 32  1  0  0  0  0
 30 29  2  0  0  0  0
 31 30  1  0  0  0  0
 32 26  2  0  0  0  0
 33 32  1  0  0  0  0
 33 22  2  0  0  0  0
M  END
>  <minimizedAffinity>
-5.5309453

>  <minimizedRMSD>
1.26099312

$$$$
