
 OpenBabel03272506083D

 47 51  0  0  0  0  0  0  0  0999 V2000
   34.6700   28.2510   49.0540 C   0  0  0  0  0  0  0  0  0  0  0  0
   34.7540   27.3180   49.6680 H   0  0  0  0  0  0  0  0  0  0  0  0
   35.5270   28.1930   48.3480 H   0  0  0  0  0  0  0  0  0  0  0  0
   33.3760   28.2070   48.2800 C   0  0  0  0  0  0  0  0  0  0  0  0
   33.3760   28.5740   46.8830 C   0  0  0  0  0  0  0  0  0  0  0  0
   31.6730   28.3530   46.4830 S   0  0  0  0  0  0  0  0  0  0  0  0
   31.1660   27.8020   48.2080 C   0  0  0  0  0  0  0  0  0  0  0  0
   32.2170   27.8580   48.7590 N   0  0  0  0  0  0  0  0  0  0  0  0
   29.8820   27.4110   48.7620 N   0  0  0  0  0  0  0  0  0  0  0  0
   28.9650   26.7920   47.8500 C   0  0  0  0  0  0  0  0  0  0  0  0
   27.5430   26.8060   48.3140 C   0  0  0  0  0  0  0  0  0  0  0  0
   27.3290   27.5790   49.5310 N   0  0  0  0  0  0  0  0  0  0  0  0
   28.2860   27.0600   50.5130 C   0  0  0  0  0  0  0  0  0  0  0  0
   29.6140   27.6590   50.1500 C   0  0  0  0  0  0  0  0  0  0  0  0
   34.2020   28.8820   46.3180 H   0  0  0  0  0  0  0  0  0  0  0  0
   29.2590   25.7360   47.6030 H   0  0  0  0  0  0  0  0  0  0  0  0
   29.0200   27.3400   46.8860 H   0  0  0  0  0  0  0  0  0  0  0  0
   26.8610   27.2390   47.5460 H   0  0  0  0  0  0  0  0  0  0  0  0
   27.1780   25.7720   48.5070 H   0  0  0  0  0  0  0  0  0  0  0  0
   26.3860   27.3860   49.8800 H   0  0  0  0  0  0  0  0  0  0  0  0
   28.3120   25.9710   50.4760 H   0  0  0  0  0  0  0  0  0  0  0  0
   27.9430   27.4180   51.5180 H   0  0  0  0  0  0  0  0  0  0  0  0
   30.3960   27.1190   50.7440 H   0  0  0  0  0  0  0  0  0  0  0  0
   29.6590   28.7290   50.4230 H   0  0  0  0  0  0  0  0  0  0  0  0
   34.7340   29.4290   49.9360 C   0  0  0  0  0  0  0  0  0  0  0  0
   34.9020   29.1590   50.9920 H   0  0  0  0  0  0  0  0  0  0  0  0
   33.7830   30.0200   49.9040 H   0  0  0  0  0  0  0  0  0  0  0  0
   37.3640   32.0590   49.8970 C   0  0  0  0  0  0  0  0  0  0  0  0
   37.8800   31.9640   48.5930 C   0  0  0  0  0  0  0  0  0  0  0  0
   37.3080   31.0000   47.7700 C   0  0  0  0  0  0  0  0  0  0  0  0
   36.3140   30.2190   48.2350 N   0  0  0  0  0  0  0  0  0  0  0  0
   35.8550   30.3600   49.5160 C   0  0  0  0  0  0  0  0  0  0  0  0
   36.3770   31.2660   50.3240 N   0  0  0  0  0  0  0  0  0  0  0  0
   37.8200   32.8150   50.5270 H   0  0  0  0  0  0  0  0  0  0  0  0
   38.6640   32.5850   48.2350 H   0  0  0  0  0  0  0  0  0  0  0  0
   39.0970   30.8080   46.1430 C   0  0  0  0  0  3  0  0  0  0  0  0
   37.7420   30.7880   46.3950 C   0  0  0  0  0  0  0  0  0  0  0  0
   36.8980   30.5720   45.3350 C   0  0  0  0  0  0  0  0  0  0  0  0
   35.8500   30.5530   45.5020 H   0  0  0  0  0  0  0  0  0  0  0  0
   37.3710   30.3790   44.0540 C   0  0  0  0  0  0  0  0  0  0  0  0
   36.8110   30.1510   42.8490 N   0  0  0  0  0  0  0  0  0  0  0  0
   35.7830   30.0730   42.6610 H   0  0  0  0  0  0  0  0  0  0  0  0
   37.7470   30.0360   41.9080 N   0  0  0  0  0  0  0  0  0  0  0  0
   38.9700   30.1800   42.4310 C   0  0  0  0  0  0  0  0  0  0  0  0
   39.9340   30.1460   41.9640 H   0  0  0  0  0  0  0  0  0  0  0  0
   38.7200   30.3930   43.7710 C   0  0  0  0  0  0  0  0  0  0  0  0
   39.5830   30.6130   44.8440 C   0  0  0  0  0  3  0  0  0  0  0  0
  1  2  1  0  0  0  0
  1 25  1  0  0  0  0
  3  1  1  0  0  0  0
  4  8  1  0  0  0  0
  4  1  1  0  0  0  0
  5  4  2  0  0  0  0
  6  5  1  0  0  0  0
  6  7  1  0  0  0  0
  7  8  2  0  0  0  0
  7  9  1  0  0  0  0
  9 14  1  0  0  0  0
 10 11  1  0  0  0  0
 10  9  1  0  0  0  0
 11 19  1  0  0  0  0
 11 12  1  0  0  0  0
 12 20  1  0  0  0  0
 12 13  1  0  0  0  0
 13 22  1  0  0  0  0
 14 24  1  0  0  0  0
 14 13  1  0  0  0  0
 14 23  1  0  0  0  0
 15  5  1  0  0  0  0
 16 10  1  0  0  0  0
 17 10  1  0  0  0  0
 18 11  1  0  0  0  0
 21 13  1  0  0  0  0
 25 26  1  0  0  0  0
 27 25  1  0  0  0  0
 28 33  1  0  0  0  0
 28 34  1  0  0  0  0
 29 28  2  0  0  0  0
 30 31  2  0  0  0  0
 30 29  1  0  0  0  0
 31 32  1  0  0  0  0
 32 25  1  0  0  0  0
 32 33  2  0  0  0  0
 35 29  1  0  0  0  0
 36 37  1  0  0  0  0
 37 30  1  0  0  0  0
 38 39  1  0  0  0  0
 38 37  2  0  0  0  0
 40 38  1  0  0  0  0
 41 40  1  0  0  0  0
 42 41  1  0  0  0  0
 43 44  2  0  0  0  0
 43 41  1  0  0  0  0
 44 46  1  0  0  0  0
 45 44  1  0  0  0  0
 46 40  2  0  0  0  0
 46 47  1  0  0  0  0
 47 36  2  0  0  0  0
M  END
>  <minimizedAffinity>
-6.92220306

>  <minimizedRMSD>
1.50770891

$$$$
