
 OpenBabel03272506083D

 47 51  0  0  0  0  0  0  0  0999 V2000
   34.1790   28.0130   48.9080 C   0  0  0  0  0  0  0  0  0  0  0  0
   34.3670   26.9480   49.1960 H   0  0  0  0  0  0  0  0  0  0  0  0
   34.9850   28.2470   48.1780 H   0  0  0  0  0  0  0  0  0  0  0  0
   32.8380   28.1010   48.2240 C   0  0  0  0  0  0  0  0  0  0  0  0
   32.7630   28.6290   46.8810 C   0  0  0  0  0  0  0  0  0  0  0  0
   31.0310   28.5110   46.5750 S   0  0  0  0  0  0  0  0  0  0  0  0
   30.6130   27.7780   48.2560 C   0  0  0  0  0  0  0  0  0  0  0  0
   31.6990   27.7360   48.7370 N   0  0  0  0  0  0  0  0  0  0  0  0
   29.3530   27.3650   48.8470 N   0  0  0  0  0  0  0  0  0  0  0  0
   28.3570   26.8860   47.9340 C   0  0  0  0  0  0  0  0  0  0  0  0
   26.9680   26.8910   48.4910 C   0  0  0  0  0  0  0  0  0  0  0  0
   26.8630   27.5230   49.8010 N   0  0  0  0  0  0  0  0  0  0  0  0
   27.8590   26.8620   50.6500 C   0  0  0  0  0  0  0  0  0  0  0  0
   29.1840   27.4570   50.2690 C   0  0  0  0  0  0  0  0  0  0  0  0
   33.5630   28.9740   46.3010 H   0  0  0  0  0  0  0  0  0  0  0  0
   28.5920   25.8580   47.5480 H   0  0  0  0  0  0  0  0  0  0  0  0
   28.3710   27.5420   47.0380 H   0  0  0  0  0  0  0  0  0  0  0  0
   26.2560   27.4330   47.8270 H   0  0  0  0  0  0  0  0  0  0  0  0
   26.5760   25.8540   48.5890 H   0  0  0  0  0  0  0  0  0  0  0  0
   25.9370   27.3200   50.1890 H   0  0  0  0  0  0  0  0  0  0  0  0
   27.8400   25.7850   50.4870 H   0  0  0  0  0  0  0  0  0  0  0  0
   27.5960   27.1110   51.7110 H   0  0  0  0  0  0  0  0  0  0  0  0
   29.9800   26.8270   50.7430 H   0  0  0  0  0  0  0  0  0  0  0  0
   29.2880   28.4860   50.6600 H   0  0  0  0  0  0  0  0  0  0  0  0
   34.2320   28.8650   50.1090 C   0  0  0  0  0  0  0  0  0  0  0  0
   34.0280   28.3040   51.0360 H   0  0  0  0  0  0  0  0  0  0  0  0
   33.4760   29.6910   50.0620 H   0  0  0  0  0  0  0  0  0  0  0  0
   37.4590   30.1270   51.4630 C   0  0  0  0  0  0  0  0  0  0  0  0
   38.0540   30.7270   50.3410 C   0  0  0  0  0  0  0  0  0  0  0  0
   37.3280   30.6790   49.1550 C   0  0  0  0  0  0  0  0  0  0  0  0
   36.1220   30.0800   49.1260 N   0  0  0  0  0  0  0  0  0  0  0  0
   35.5960   29.5130   50.2550 C   0  0  0  0  0  0  0  0  0  0  0  0
   36.2590   29.5410   51.3970 N   0  0  0  0  0  0  0  0  0  0  0  0
   38.0370   30.1720   52.3800 H   0  0  0  0  0  0  0  0  0  0  0  0
   39.0060   31.1980   50.3740 H   0  0  0  0  0  0  0  0  0  0  0  0
   38.9050   32.1070   47.9900 C   0  0  0  0  0  3  0  0  0  0  0  0
   37.8210   31.2590   47.9120 C   0  0  0  0  0  0  0  0  0  0  0  0
   37.2820   31.0230   46.6730 C   0  0  0  0  0  0  0  0  0  0  0  0
   36.4460   30.3750   46.5870 H   0  0  0  0  0  0  0  0  0  0  0  0
   37.7950   31.6040   45.5330 C   0  0  0  0  0  0  0  0  0  0  0  0
   37.4930   31.5670   44.2180 N   0  0  0  0  0  0  0  0  0  0  0  0
   36.7130   31.0150   43.7890 H   0  0  0  0  0  0  0  0  0  0  0  0
   38.3290   32.3370   43.5220 N   0  0  0  0  0  0  0  0  0  0  0  0
   39.2220   32.9210   44.3260 C   0  0  0  0  0  0  0  0  0  0  0  0
   40.0270   33.5930   44.1000 H   0  0  0  0  0  0  0  0  0  0  0  0
   38.8770   32.4550   45.5780 C   0  0  0  0  0  0  0  0  0  0  0  0
   39.4300   32.7000   46.8350 C   0  0  0  0  0  3  0  0  0  0  0  0
  1  2  1  0  0  0  0
  1 25  1  0  0  0  0
  3  1  1  0  0  0  0
  4  8  1  0  0  0  0
  4  1  1  0  0  0  0
  5  4  2  0  0  0  0
  6  5  1  0  0  0  0
  6  7  1  0  0  0  0
  7  8  2  0  0  0  0
  7  9  1  0  0  0  0
  9 14  1  0  0  0  0
 10 11  1  0  0  0  0
 10  9  1  0  0  0  0
 11 19  1  0  0  0  0
 11 12  1  0  0  0  0
 12 20  1  0  0  0  0
 12 13  1  0  0  0  0
 13 22  1  0  0  0  0
 14 13  1  0  0  0  0
 14 24  1  0  0  0  0
 14 23  1  0  0  0  0
 15  5  1  0  0  0  0
 16 10  1  0  0  0  0
 17 10  1  0  0  0  0
 18 11  1  0  0  0  0
 21 13  1  0  0  0  0
 25 32  1  0  0  0  0
 25 26  1  0  0  0  0
 27 25  1  0  0  0  0
 28 34  1  0  0  0  0
 29 35  1  0  0  0  0
 29 28  2  0  0  0  0
 30 29  1  0  0  0  0
 31 30  2  0  0  0  0
 31 32  1  0  0  0  0
 32 33  2  0  0  0  0
 33 28  1  0  0  0  0
 37 36  1  0  0  0  0
 37 30  1  0  0  0  0
 38 37  2  0  0  0  0
 39 38  1  0  0  0  0
 40 46  2  0  0  0  0
 40 38  1  0  0  0  0
 41 40  1  0  0  0  0
 42 41  1  0  0  0  0
 43 41  1  0  0  0  0
 43 44  2  0  0  0  0
 44 46  1  0  0  0  0
 45 44  1  0  0  0  0
 46 47  1  0  0  0  0
 47 36  2  0  0  0  0
M  END
>  <minimizedAffinity>
-8.19499111

>  <minimizedRMSD>
2.5467329

$$$$
