
 OpenBabel03272503193D

 38 42  0  0  0  0  0  0  0  0999 V2000
   37.2230   29.7630   50.5610 C   0  0  0  0  0  0  0  0  0  0  0  0
   37.9140   30.4010   49.5060 C   0  0  0  0  0  0  0  0  0  0  0  0
   37.3320   30.3300   48.2230 C   0  0  0  0  0  0  0  0  0  0  0  0
   36.1790   29.6800   48.0620 N   0  0  0  0  0  0  0  0  0  0  0  0
   35.5520   29.0860   49.0950 C   0  0  0  0  0  0  0  0  0  0  0  0
   36.0710   29.1300   50.3230 N   0  0  0  0  0  0  0  0  0  0  0  0
   37.7280   29.8570   51.5210 H   0  0  0  0  0  0  0  0  0  0  0  0
   38.8520   30.9270   49.6480 H   0  0  0  0  0  0  0  0  0  0  0  0
   34.2170   27.3490   47.9550 C   0  0  0  0  0  0  0  0  0  0  0  0
   34.2940   28.3910   48.8490 C   0  0  0  0  0  0  0  0  0  0  0  0
   33.1460   28.7690   49.5140 C   0  0  0  0  0  0  0  0  0  0  0  0
   33.1300   29.5740   50.2260 H   0  0  0  0  0  0  0  0  0  0  0  0
   31.9600   28.0820   49.2530 C   0  0  0  0  0  0  0  0  0  0  0  0
   30.7000   28.1830   49.7080 N   0  0  0  0  0  0  0  0  0  0  0  0
   30.3450   28.8640   50.4100 H   0  0  0  0  0  0  0  0  0  0  0  0
   29.9160   27.2770   49.1380 N   0  0  0  0  0  0  0  0  0  0  0  0
   30.6520   26.5330   48.2710 C   0  0  0  0  0  0  0  0  0  0  0  0
   30.3490   25.7120   47.6360 H   0  0  0  0  0  0  0  0  0  0  0  0
   31.9400   27.0370   48.3410 C   0  0  0  0  0  0  0  0  0  0  0  0
   33.0760   26.6510   47.6730 C   0  0  0  0  0  0  0  0  0  0  0  0
   37.9850   30.9650   47.0730 C   0  0  0  0  0  0  0  0  0  0  0  0
   39.0380   31.7780   46.9820 C   0  0  0  0  0  0  0  0  0  0  0  0
   39.4360   32.2260   45.7740 C   0  0  0  0  0  0  0  0  0  0  0  0
   38.7130   31.8060   44.6740 C   0  0  0  0  0  0  0  0  0  0  0  0
   37.4250   30.7370   45.4170 S   0  0  0  0  0  0  0  0  0  0  0  0
   39.5470   32.0570   47.9000 H   0  0  0  0  0  0  0  0  0  0  0  0
   40.2680   32.8840   45.5560 H   0  0  0  0  0  0  0  0  0  0  0  0
   40.8800   30.2380   43.2160 Cl  0  0  0  0  0  0  0  0  0  0  0  0
   39.7830   31.4050   42.5410 C   0  0  0  0  0  0  0  0  0  0  0  0
   38.8350   32.0690   43.2560 C   0  0  0  0  0  0  0  0  0  0  0  0
   37.9510   32.9910   42.7810 C   0  0  0  0  0  0  0  0  0  0  0  0
   38.0050   33.3020   41.4180 C   0  0  0  0  0  0  0  0  0  0  0  0
   38.9420   32.6660   40.6310 C   0  0  0  0  0  0  0  0  0  0  0  0
   39.0500   33.0200   38.9170 Cl  0  0  0  0  0  0  0  0  0  0  0  0
   39.8180   31.7330   41.1790 C   0  0  0  0  0  0  0  0  0  0  0  0
   37.2060   33.5030   43.3860 H   0  0  0  0  0  0  0  0  0  0  0  0
   37.3120   34.0340   41.0100 H   0  0  0  0  0  0  0  0  0  0  0  0
   40.5280   31.2670   40.5180 H   0  0  0  0  0  0  0  0  0  0  0  0
  1  7  1  0  0  0  0
  2  8  1  0  0  0  0
  2  1  2  0  0  0  0
  3  2  1  0  0  0  0
  4  3  2  0  0  0  0
  4  5  1  0  0  0  0
  5  6  2  0  0  0  0
  6  1  1  0  0  0  0
  9 10  1  0  0  0  0
 10  5  1  0  0  0  0
 10 11  2  0  0  0  0
 11 12  1  0  0  0  0
 13 11  1  0  0  0  0
 13 14  1  0  0  0  0
 14 15  1  0  0  0  0
 16 14  1  0  0  0  0
 17 19  1  0  0  0  0
 17 16  2  0  0  0  0
 18 17  1  0  0  0  0
 19 13  2  0  0  0  0
 20  9  2  0  0  0  0
 20 19  1  0  0  0  0
 21  3  1  0  0  0  0
 22 21  2  0  0  0  0
 22 26  1  0  0  0  0
 23 22  1  0  0  0  0
 24 25  1  0  0  0  0
 24 23  2  0  0  0  0
 25 21  1  0  0  0  0
 27 23  1  0  0  0  0
 29 28  1  0  0  0  0
 29 30  1  0  0  0  0
 30 24  1  0  0  0  0
 31 30  2  0  0  0  0
 31 36  1  0  0  0  0
 32 31  1  0  0  0  0
 33 35  1  0  0  0  0
 33 32  2  0  0  0  0
 34 33  1  0  0  0  0
 35 29  2  0  0  0  0
 37 32  1  0  0  0  0
 38 35  1  0  0  0  0
M  END
>  <minimizedAffinity>
-6.74272776

>  <minimizedRMSD>
1.60481393

$$$$
