
 OpenBabel03272505343D

 38 41  0  0  1  0  0  0  0  0999 V2000
   37.3030   30.4740   49.3490 C   0  0  0  0  0  0  0  0  0  0  0  0
   37.2730   31.7110   49.9930 C   0  0  0  0  0  0  0  0  0  0  0  0
   37.7810   32.8300   49.3180 C   0  0  0  0  0  0  0  0  0  0  0  0
   38.2790   32.6330   48.0570 N   0  0  0  0  0  0  0  0  0  0  0  0
   38.2860   31.4190   47.4760 C   0  0  0  0  0  0  0  0  0  0  0  0
   37.8050   30.3530   48.1100 N   0  0  0  0  0  0  0  0  0  0  0  0
   38.8280   31.3400   46.1640 N   0  0  0  0  0  0  0  0  0  0  0  0
   40.2510   31.0660   45.9910 C   0  0  0  0  0  0  0  0  0  0  0  0
   40.8590   31.9370   44.9180 C   0  0  0  0  0  0  0  0  0  0  0  0
   40.0530   31.9950   43.7300 N   0  0  0  0  0  0  0  0  0  0  0  0
   38.8720   31.1790   43.7720 C   0  0  0  0  0  0  0  0  0  0  0  0
   38.0080   31.5230   44.9800 C   0  0  1  0  0  0  0  0  0  0  0  0
   36.8650   31.8250   51.0070 H   0  0  0  0  0  0  0  0  0  0  0  0
   37.7890   33.8050   49.7510 H   0  0  0  0  0  0  0  0  0  0  0  0
   40.3400   30.0140   45.6500 H   0  0  0  0  0  0  0  0  0  0  0  0
   40.8100   31.1890   46.9250 H   0  0  0  0  0  0  0  0  0  0  0  0
   41.8250   31.4630   44.6370 H   0  0  0  0  0  0  0  0  0  0  0  0
   41.0890   32.9670   45.2640 H   0  0  0  0  0  0  0  0  0  0  0  0
   40.5580   31.7780   42.8560 H   0  0  0  0  0  0  0  0  0  0  0  0
   39.1150   30.1160   43.8650 H   0  0  0  0  0  0  0  0  0  0  0  0
   38.2640   31.4360   42.8790 H   0  0  0  0  0  0  0  0  0  0  0  0
   37.6540   32.5760   44.9040 H   0  0  0  0  0  0  0  0  0  0  0  0
   35.8390   30.6880   45.8770 C   0  0  0  0  0  3  0  0  0  0  0  0
   36.8470   30.5960   44.9290 C   0  0  0  0  0  0  0  0  0  0  0  0
   36.7720   29.6420   43.9360 C   0  0  0  0  0  0  0  0  0  0  0  0
   37.5350   29.5280   43.1670 H   0  0  0  0  0  0  0  0  0  0  0  0
   35.6980   28.7770   43.8790 C   0  0  0  0  0  0  0  0  0  0  0  0
   35.2740   27.7560   43.1050 N   0  0  0  0  0  0  0  0  0  0  0  0
   35.8160   27.4100   42.2670 H   0  0  0  0  0  0  0  0  0  0  0  0
   34.1240   27.2700   43.5340 N   0  0  0  0  0  0  0  0  0  0  0  0
   33.6970   27.9370   44.6300 C   0  0  0  0  0  0  0  0  0  0  0  0
   32.8070   27.7790   45.2040 H   0  0  0  0  0  0  0  0  0  0  0  0
   34.6930   28.8730   44.8310 C   0  0  0  0  0  0  0  0  0  0  0  0
   34.7560   29.8310   45.8390 C   0  0  0  0  0  3  0  0  0  0  0  0
   36.7630   29.2810   50.0630 C   0  0  0  0  0  0  0  0  0  0  0  0
   36.0260   29.6930   51.1730 F   0  0  0  0  0  0  0  0  0  0  0  0
   36.0700   28.5320   49.1820 F   0  0  0  0  0  0  0  0  0  0  0  0
   37.8750   28.5970   50.5860 F   0  0  0  0  0  0  0  0  0  0  0  0
  1  2  1  0  0  0  0
  1 35  1  0  0  0  0
  2 13  1  0  0  0  0
  3 14  1  0  0  0  0
  3  2  2  0  0  0  0
  4  3  1  0  0  0  0
  5  4  2  0  0  0  0
  5  6  1  0  0  0  0
  6  1  2  0  0  0  0
  7  5  1  0  0  0  0
  8  7  1  0  0  0  0
  8 16  1  0  0  0  0
  9 18  1  0  0  0  0
  9  8  1  0  0  0  0
 10 11  1  0  0  0  0
 10  9  1  0  0  0  0
 11 20  1  0  0  0  0
 11 12  1  0  0  0  0
 12 22  1  6  0  0  0
 12  7  1  0  0  0  0
 15  8  1  0  0  0  0
 17  9  1  0  0  0  0
 19 10  1  0  0  0  0
 21 11  1  0  0  0  0
 24 12  1  0  0  0  0
 24 23  2  0  0  0  0
 25 24  1  0  0  0  0
 26 25  1  0  0  0  0
 27 25  2  0  0  0  0
 27 33  1  0  0  0  0
 28 30  1  0  0  0  0
 28 27  1  0  0  0  0
 29 28  1  0  0  0  0
 30 31  2  0  0  0  0
 31 33  1  0  0  0  0
 31 32  1  0  0  0  0
 33 34  2  0  0  0  0
 34 23  1  0  0  0  0
 35 38  1  0  0  0  0
 35 36  1  0  0  0  0
 37 35  1  0  0  0  0
M  END
>  <minimizedAffinity>
-6.40138721

>  <minimizedRMSD>
1.76523256

$$$$
