
 OpenBabel03262521483D

 35 38  0  0  1  0  0  0  0  0999 V2000
   37.1680   29.6630   50.3000 C   0  0  0  0  0  0  0  0  0  0  0  0
   37.8990   30.8640   50.2840 C   0  0  0  0  0  0  0  0  0  0  0  0
   37.7740   31.6780   49.1490 C   0  0  0  0  0  0  0  0  0  0  0  0
   36.9570   31.2480   48.1500 N   0  0  0  0  0  0  0  0  0  0  0  0
   36.2760   30.1000   48.2010 C   0  0  0  0  0  0  0  0  0  0  0  0
   36.3800   29.3010   49.2800 N   0  0  0  0  0  0  0  0  0  0  0  0
   35.4620   29.7220   47.1320 N   0  0  0  0  0  0  0  0  0  0  0  0
   34.2490   28.9160   47.3310 C   0  0  0  0  0  0  0  0  0  0  0  0
   33.0730   29.5880   46.7310 C   0  0  0  0  0  0  0  0  0  0  0  0
   33.3220   30.6360   45.8540 N   0  0  0  0  0  0  0  0  0  0  0  0
   34.5500   30.7230   45.1450 C   0  0  0  0  0  0  0  0  0  0  0  0
   35.7390   30.0780   45.7690 C   0  0  1  0  0  0  0  0  0  0  0  0
   37.2980   29.0670   51.2010 H   0  0  0  0  0  0  0  0  0  0  0  0
   38.5380   31.1560   51.1130 H   0  0  0  0  0  0  0  0  0  0  0  0
   38.3200   32.6210   49.0870 H   0  0  0  0  0  0  0  0  0  0  0  0
   34.1260   28.7630   48.4280 H   0  0  0  0  0  0  0  0  0  0  0  0
   34.4360   27.9200   46.9110 H   0  0  0  0  0  0  0  0  0  0  0  0
   32.3900   29.9240   47.5600 H   0  0  0  0  0  0  0  0  0  0  0  0
   32.4800   28.7960   46.1950 H   0  0  0  0  0  0  0  0  0  0  0  0
   32.5470   30.8300   45.2040 H   0  0  0  0  0  0  0  0  0  0  0  0
   34.3940   30.3100   44.1280 H   0  0  0  0  0  0  0  0  0  0  0  0
   34.7480   31.8020   44.9780 H   0  0  0  0  0  0  0  0  0  0  0  0
   35.8240   29.0310   45.2630 H   0  0  0  0  0  0  0  0  0  0  0  0
   38.0560   29.7760   45.3560 C   0  0  0  0  0  3  0  0  0  0  0  0
   37.0370   30.7250   45.5420 C   0  0  0  0  0  0  0  0  0  0  0  0
   37.4430   32.0390   45.4760 C   0  0  0  0  0  0  0  0  0  0  0  0
   36.6280   32.7300   45.6240 H   0  0  0  0  0  0  0  0  0  0  0  0
   38.7560   32.3930   45.2440 C   0  0  0  0  0  0  0  0  0  0  0  0
   39.2620   33.6300   45.1600 N   0  0  0  0  0  0  0  0  0  0  0  0
   38.7970   34.5600   45.2480 H   0  0  0  0  0  0  0  0  0  0  0  0
   40.5600   33.5380   44.9280 N   0  0  0  0  0  0  0  0  0  0  0  0
   40.8990   32.2270   44.8620 C   0  0  0  0  0  0  0  0  0  0  0  0
   41.8610   31.7400   44.6870 H   0  0  0  0  0  0  0  0  0  0  0  0
   39.7620   31.4740   45.0600 C   0  0  0  0  0  0  0  0  0  0  0  0
   39.3610   30.1570   45.1250 C   0  0  0  0  0  3  0  0  0  0  0  0
  1 13  1  0  0  0  0
  2  1  1  0  0  0  0
  2 14  1  0  0  0  0
  3  2  2  0  0  0  0
  4  5  2  0  0  0  0
  4  3  1  0  0  0  0
  5  6  1  0  0  0  0
  6  1  2  0  0  0  0
  7  8  1  0  0  0  0
  7  5  1  0  0  0  0
  8 16  1  0  0  0  0
  9  8  1  0  0  0  0
  9 18  1  0  0  0  0
 10  9  1  0  0  0  0
 11 12  1  0  0  0  0
 11 10  1  0  0  0  0
 12 23  1  6  0  0  0
 12  7  1  0  0  0  0
 15  3  1  0  0  0  0
 17  8  1  0  0  0  0
 19  9  1  0  0  0  0
 20 10  1  0  0  0  0
 21 11  1  0  0  0  0
 22 11  1  0  0  0  0
 24 25  1  0  0  0  0
 25 12  1  0  0  0  0
 26 25  2  0  0  0  0
 26 27  1  0  0  0  0
 28 26  1  0  0  0  0
 29 28  1  0  0  0  0
 29 30  1  0  0  0  0
 31 29  1  0  0  0  0
 32 31  2  0  0  0  0
 32 34  1  0  0  0  0
 33 32  1  0  0  0  0
 34 35  1  0  0  0  0
 34 28  2  0  0  0  0
 35 24  2  0  0  0  0
M  END
>  <minimizedAffinity>
-5.307827

>  <minimizedRMSD>
2.16453505

$$$$
