
 OpenBabel03272503213D

 38 42  0  0  0  0  0  0  0  0999 V2000
   35.8550   27.9010   31.7070 C   0  0  0  0  0  0  0  0  0  0  0  0
   36.9530   27.1660   32.2090 C   0  0  0  0  0  0  0  0  0  0  0  0
   37.2980   27.3720   33.5610 C   0  0  0  0  0  0  0  0  0  0  0  0
   36.5890   28.2320   34.2940 N   0  0  0  0  0  0  0  0  0  0  0  0
   35.5490   28.9120   33.7770 C   0  0  0  0  0  0  0  0  0  0  0  0
   35.1920   28.7450   32.5020 N   0  0  0  0  0  0  0  0  0  0  0  0
   35.6450   27.6930   30.6590 H   0  0  0  0  0  0  0  0  0  0  0  0
   37.5230   26.4690   31.6030 H   0  0  0  0  0  0  0  0  0  0  0  0
   33.4420   29.8510   34.6590 C   0  0  0  0  0  3  0  0  0  0  0  0
   34.8170   29.8370   34.6340 C   0  0  0  0  0  0  0  0  0  0  0  0
   35.4950   30.7220   35.4450 C   0  0  0  0  0  0  0  0  0  0  0  0
   36.5680   30.7680   35.4780 H   0  0  0  0  0  0  0  0  0  0  0  0
   34.7620   31.5930   36.2530 C   0  0  0  0  0  0  0  0  0  0  0  0
   35.0900   32.5520   37.1350 N   0  0  0  0  0  0  0  0  0  0  0  0
   36.0510   32.8490   37.4010 H   0  0  0  0  0  0  0  0  0  0  0  0
   34.0040   33.1080   37.6550 N   0  0  0  0  0  0  0  0  0  0  0  0
   32.9010   32.5180   37.1220 C   0  0  0  0  0  0  0  0  0  0  0  0
   31.8550   32.7140   37.3100 H   0  0  0  0  0  0  0  0  0  0  0  0
   33.3750   31.5630   36.2380 C   0  0  0  0  0  0  0  0  0  0  0  0
   32.6880   30.6860   35.4360 C   0  0  0  0  0  3  0  0  0  0  0  0
   38.4250   26.6490   34.1610 C   0  0  0  0  0  0  0  0  0  0  0  0
   39.6410   27.0480   34.5380 C   0  0  0  0  0  0  0  0  0  0  0  0
   40.5010   26.1580   35.0740 C   0  0  0  0  0  0  0  0  0  0  0  0
   40.0620   24.8540   35.2040 C   0  0  0  0  0  0  0  0  0  0  0  0
   38.3610   24.9270   34.5310 S   0  0  0  0  0  0  0  0  0  0  0  0
   39.9000   28.0930   34.3980 H   0  0  0  0  0  0  0  0  0  0  0  0
   41.5100   26.3440   35.4200 H   0  0  0  0  0  0  0  0  0  0  0  0
   38.7370   23.6180   37.6520 Cl  0  0  0  0  0  0  0  0  0  0  0  0
   40.1470   23.0480   36.8110 C   0  0  0  0  0  0  0  0  0  0  0  0
   40.6840   23.6540   35.7190 C   0  0  0  0  0  0  0  0  0  0  0  0
   41.7840   23.2510   35.0210 C   0  0  0  0  0  0  0  0  0  0  0  0
   42.4450   22.0980   35.4560 C   0  0  0  0  0  0  0  0  0  0  0  0
   41.9540   21.4310   36.5600 C   0  0  0  0  0  0  0  0  0  0  0  0
   42.7450   19.9800   37.1440 Cl  0  0  0  0  0  0  0  0  0  0  0  0
   40.8250   21.8940   37.2280 C   0  0  0  0  0  0  0  0  0  0  0  0
   42.1860   23.7650   34.1500 H   0  0  0  0  0  0  0  0  0  0  0  0
   43.3260   21.7520   34.9200 H   0  0  0  0  0  0  0  0  0  0  0  0
   40.4860   21.3340   38.0830 H   0  0  0  0  0  0  0  0  0  0  0  0
  1  2  2  0  0  0  0
  1  6  1  0  0  0  0
  2  3  1  0  0  0  0
  3 21  1  0  0  0  0
  3  4  2  0  0  0  0
  5  4  1  0  0  0  0
  5 10  1  0  0  0  0
  6  5  2  0  0  0  0
  7  1  1  0  0  0  0
  8  2  1  0  0  0  0
  9 20  1  0  0  0  0
 10  9  2  0  0  0  0
 10 11  1  0  0  0  0
 11 12  1  0  0  0  0
 11 13  2  0  0  0  0
 13 14  1  0  0  0  0
 14 15  1  0  0  0  0
 14 16  1  0  0  0  0
 17 18  1  0  0  0  0
 17 16  2  0  0  0  0
 19 13  1  0  0  0  0
 19 17  1  0  0  0  0
 20 19  2  0  0  0  0
 21 25  1  0  0  0  0
 21 22  2  0  0  0  0
 22 23  1  0  0  0  0
 23 24  2  0  0  0  0
 23 27  1  0  0  0  0
 24 30  1  0  0  0  0
 25 24  1  0  0  0  0
 26 22  1  0  0  0  0
 29 35  1  0  0  0  0
 29 28  1  0  0  0  0
 30 29  2  0  0  0  0
 31 32  2  0  0  0  0
 31 30  1  0  0  0  0
 32 33  1  0  0  0  0
 33 34  1  0  0  0  0
 33 35  2  0  0  0  0
 35 38  1  0  0  0  0
 36 31  1  0  0  0  0
 37 32  1  0  0  0  0
M  END
>  <minimizedAffinity>
-7.11393452

$$$$

 OpenBabel03272503213D

 38 42  0  0  0  0  0  0  0  0999 V2000
   36.4980   29.1820   31.2460 C   0  0  0  0  0  0  0  0  0  0  0  0
   37.0420   27.9160   31.5610 C   0  0  0  0  0  0  0  0  0  0  0  0
   36.9260   27.4830   32.8990 C   0  0  0  0  0  0  0  0  0  0  0  0
   36.3200   28.2690   33.7910 N   0  0  0  0  0  0  0  0  0  0  0  0
   35.8150   29.4690   33.4490 C   0  0  0  0  0  0  0  0  0  0  0  0
   35.9050   29.9130   32.1940 N   0  0  0  0  0  0  0  0  0  0  0  0
   36.6230   29.4520   30.1980 H   0  0  0  0  0  0  0  0  0  0  0  0
   37.5330   27.2860   30.8270 H   0  0  0  0  0  0  0  0  0  0  0  0
   35.8990   31.0450   35.3480 C   0  0  0  0  0  3  0  0  0  0  0  0
   35.1660   30.2770   34.4740 C   0  0  0  0  0  0  0  0  0  0  0  0
   33.7920   30.2870   34.5880 C   0  0  0  0  0  0  0  0  0  0  0  0
   33.1540   29.7120   33.9410 H   0  0  0  0  0  0  0  0  0  0  0  0
   33.2040   31.0720   35.5810 C   0  0  0  0  0  0  0  0  0  0  0  0
   31.9370   31.3080   35.9610 N   0  0  0  0  0  0  0  0  0  0  0  0
   31.0760   30.9060   35.5380 H   0  0  0  0  0  0  0  0  0  0  0  0
   31.8990   32.1520   36.9840 N   0  0  0  0  0  0  0  0  0  0  0  0
   33.1680   32.5070   37.3180 C   0  0  0  0  0  0  0  0  0  0  0  0
   33.5170   33.1710   38.0950 H   0  0  0  0  0  0  0  0  0  0  0  0
   33.9930   31.8280   36.4360 C   0  0  0  0  0  0  0  0  0  0  0  0
   35.3620   31.8270   36.3320 C   0  0  0  0  0  3  0  0  0  0  0  0
   37.4640   26.1830   33.3100 C   0  0  0  0  0  0  0  0  0  0  0  0
   37.2570   24.9470   32.8530 C   0  0  0  0  0  0  0  0  0  0  0  0
   37.8940   23.9050   33.4250 C   0  0  0  0  0  0  0  0  0  0  0  0
   38.7450   24.1850   34.4780 C   0  0  0  0  0  0  0  0  0  0  0  0
   38.6120   26.0050   34.6360 S   0  0  0  0  0  0  0  0  0  0  0  0
   36.5710   24.8200   32.0210 H   0  0  0  0  0  0  0  0  0  0  0  0
   37.8200   22.8590   33.1560 H   0  0  0  0  0  0  0  0  0  0  0  0
   37.7750   23.7970   37.3400 Cl  0  0  0  0  0  0  0  0  0  0  0  0
   39.2070   23.1370   36.6090 C   0  0  0  0  0  0  0  0  0  0  0  0
   39.5780   23.3530   35.3180 C   0  0  0  0  0  0  0  0  0  0  0  0
   40.6860   22.8610   34.6950 C   0  0  0  0  0  0  0  0  0  0  0  0
   41.5450   22.0470   35.4390 C   0  0  0  0  0  0  0  0  0  0  0  0
   41.2300   21.7840   36.7570 C   0  0  0  0  0  0  0  0  0  0  0  0
   42.2740   20.7680   37.7330 Cl  0  0  0  0  0  0  0  0  0  0  0  0
   40.0820   22.3180   37.3350 C   0  0  0  0  0  0  0  0  0  0  0  0
   40.9500   23.0590   33.6570 H   0  0  0  0  0  0  0  0  0  0  0  0
   42.4370   21.6400   34.9690 H   0  0  0  0  0  0  0  0  0  0  0  0
   39.8860   22.0790   38.3660 H   0  0  0  0  0  0  0  0  0  0  0  0
  1  2  2  0  0  0  0
  1  6  1  0  0  0  0
  2  3  1  0  0  0  0
  3 21  1  0  0  0  0
  3  4  2  0  0  0  0
  5  4  1  0  0  0  0
  5 10  1  0  0  0  0
  6  5  2  0  0  0  0
  7  1  1  0  0  0  0
  8  2  1  0  0  0  0
  9 20  1  0  0  0  0
 10 11  1  0  0  0  0
 10  9  2  0  0  0  0
 11 13  2  0  0  0  0
 12 11  1  0  0  0  0
 13 14  1  0  0  0  0
 13 19  1  0  0  0  0
 14 16  1  0  0  0  0
 15 14  1  0  0  0  0
 16 17  2  0  0  0  0
 17 18  1  0  0  0  0
 19 17  1  0  0  0  0
 20 19  2  0  0  0  0
 21 25  1  0  0  0  0
 22 21  2  0  0  0  0
 22 23  1  0  0  0  0
 23 24  2  0  0  0  0
 24 25  1  0  0  0  0
 24 30  1  0  0  0  0
 26 22  1  0  0  0  0
 27 23  1  0  0  0  0
 29 35  1  0  0  0  0
 29 28  1  0  0  0  0
 30 29  2  0  0  0  0
 31 30  1  0  0  0  0
 31 32  2  0  0  0  0
 32 33  1  0  0  0  0
 33 35  2  0  0  0  0
 33 34  1  0  0  0  0
 35 38  1  0  0  0  0
 36 31  1  0  0  0  0
 37 32  1  0  0  0  0
M  END
>  <minimizedAffinity>
-6.84122849

$$$$

 OpenBabel03272503213D

 38 42  0  0  0  0  0  0  0  0999 V2000
   37.9570   23.5930   38.1490 C   0  0  0  0  0  0  0  0  0  0  0  0
   37.5470   24.5830   37.2270 C   0  0  0  0  0  0  0  0  0  0  0  0
   38.3800   24.8040   36.1100 C   0  0  0  0  0  0  0  0  0  0  0  0
   39.4960   24.0860   35.9730 N   0  0  0  0  0  0  0  0  0  0  0  0
   39.8510   23.1520   36.8750 C   0  0  0  0  0  0  0  0  0  0  0  0
   39.0890   22.9140   37.9450 N   0  0  0  0  0  0  0  0  0  0  0  0
   37.2690   23.4760   38.9840 H   0  0  0  0  0  0  0  0  0  0  0  0
   36.6360   25.1610   37.3490 H   0  0  0  0  0  0  0  0  0  0  0  0
   42.0150   22.8080   35.7370 C   0  0  0  0  0  3  0  0  0  0  0  0
   41.0840   22.4030   36.6640 C   0  0  0  0  0  0  0  0  0  0  0  0
   41.3430   21.2650   37.3970 C   0  0  0  0  0  0  0  0  0  0  0  0
   40.6620   20.8880   38.1390 H   0  0  0  0  0  0  0  0  0  0  0  0
   42.5330   20.5730   37.1690 C   0  0  0  0  0  0  0  0  0  0  0  0
   43.0870   19.4640   37.6870 N   0  0  0  0  0  0  0  0  0  0  0  0
   42.6840   18.8570   38.4300 H   0  0  0  0  0  0  0  0  0  0  0  0
   44.2600   19.2110   37.1220 N   0  0  0  0  0  0  0  0  0  0  0  0
   44.5240   20.1680   36.1930 C   0  0  0  0  0  0  0  0  0  0  0  0
   45.3800   20.2820   35.5440 H   0  0  0  0  0  0  0  0  0  0  0  0
   43.4380   21.0280   36.2200 C   0  0  0  0  0  0  0  0  0  0  0  0
   43.1910   22.1600   35.4840 C   0  0  0  0  0  3  0  0  0  0  0  0
   38.0270   25.8130   35.1060 C   0  0  0  0  0  0  0  0  0  0  0  0
   37.1860   26.8480   35.1390 C   0  0  0  0  0  0  0  0  0  0  0  0
   37.0490   27.6340   34.0520 C   0  0  0  0  0  0  0  0  0  0  0  0
   37.8050   27.3140   32.9400 C   0  0  0  0  0  0  0  0  0  0  0  0
   38.7350   25.8360   33.4920 S   0  0  0  0  0  0  0  0  0  0  0  0
   36.6320   27.0250   36.0560 H   0  0  0  0  0  0  0  0  0  0  0  0
   36.4090   28.5010   33.9420 H   0  0  0  0  0  0  0  0  0  0  0  0
   35.3600   28.8340   31.9460 Cl  0  0  0  0  0  0  0  0  0  0  0  0
   36.8690   28.6010   31.1180 C   0  0  0  0  0  0  0  0  0  0  0  0
   37.9230   27.9080   31.6260 C   0  0  0  0  0  0  0  0  0  0  0  0
   39.1270   27.6940   31.0230 C   0  0  0  0  0  0  0  0  0  0  0  0
   39.3220   28.2360   29.7480 C   0  0  0  0  0  0  0  0  0  0  0  0
   38.2940   28.9520   29.1700 C   0  0  0  0  0  0  0  0  0  0  0  0
   38.4880   29.6520   27.5740 Cl  0  0  0  0  0  0  0  0  0  0  0  0
   37.0880   29.1340   29.8400 C   0  0  0  0  0  0  0  0  0  0  0  0
   39.9480   27.1310   31.4630 H   0  0  0  0  0  0  0  0  0  0  0  0
   40.2720   28.0820   29.2420 H   0  0  0  0  0  0  0  0  0  0  0  0
   36.3210   29.7020   29.3410 H   0  0  0  0  0  0  0  0  0  0  0  0
  1  7  1  0  0  0  0
  2  8  1  0  0  0  0
  2  1  2  0  0  0  0
  3  2  1  0  0  0  0
  4  3  2  0  0  0  0
  4  5  1  0  0  0  0
  5  6  2  0  0  0  0
  6  1  1  0  0  0  0
  9 10  1  0  0  0  0
 10  5  1  0  0  0  0
 10 11  2  0  0  0  0
 11 12  1  0  0  0  0
 13 11  1  0  0  0  0
 13 14  1  0  0  0  0
 14 15  1  0  0  0  0
 16 14  1  0  0  0  0
 17 19  1  0  0  0  0
 17 16  2  0  0  0  0
 18 17  1  0  0  0  0
 19 13  2  0  0  0  0
 20  9  2  0  0  0  0
 20 19  1  0  0  0  0
 21 22  2  0  0  0  0
 21  3  1  0  0  0  0
 22 26  1  0  0  0  0
 23 22  1  0  0  0  0
 24 25  1  0  0  0  0
 24 23  2  0  0  0  0
 25 21  1  0  0  0  0
 27 23  1  0  0  0  0
 29 30  1  0  0  0  0
 29 28  1  0  0  0  0
 30 24  1  0  0  0  0
 31 36  1  0  0  0  0
 31 30  2  0  0  0  0
 32 31  1  0  0  0  0
 33 32  2  0  0  0  0
 33 35  1  0  0  0  0
 34 33  1  0  0  0  0
 35 29  2  0  0  0  0
 37 32  1  0  0  0  0
 38 35  1  0  0  0  0
M  END
>  <minimizedAffinity>
-6.68089962

$$$$

 OpenBabel03272503213D

 38 42  0  0  0  0  0  0  0  0999 V2000
   38.3420   23.7570   38.2750 C   0  0  0  0  0  0  0  0  0  0  0  0
   37.8050   24.5640   37.2480 C   0  0  0  0  0  0  0  0  0  0  0  0
   38.4660   24.5400   36.0010 C   0  0  0  0  0  0  0  0  0  0  0  0
   39.5470   23.7730   35.8480 N   0  0  0  0  0  0  0  0  0  0  0  0
   40.0260   23.0180   36.8540 C   0  0  0  0  0  0  0  0  0  0  0  0
   39.4290   23.0140   38.0470 N   0  0  0  0  0  0  0  0  0  0  0  0
   37.7830   23.8240   39.2070 H   0  0  0  0  0  0  0  0  0  0  0  0
   36.9250   25.1850   37.3830 H   0  0  0  0  0  0  0  0  0  0  0  0
   42.0760   22.4810   35.5850 C   0  0  0  0  0  3  0  0  0  0  0  0
   41.2110   22.2020   36.6180 C   0  0  0  0  0  0  0  0  0  0  0  0
   41.4920   21.1260   37.4330 C   0  0  0  0  0  0  0  0  0  0  0  0
   40.8620   20.8480   38.2590 H   0  0  0  0  0  0  0  0  0  0  0  0
   42.6350   20.3680   37.1780 C   0  0  0  0  0  0  0  0  0  0  0  0
   43.1910   19.2890   37.7540 N   0  0  0  0  0  0  0  0  0  0  0  0
   42.8310   18.7710   38.5810 H   0  0  0  0  0  0  0  0  0  0  0  0
   44.3050   18.9360   37.1240 N   0  0  0  0  0  0  0  0  0  0  0  0
   44.5230   19.7930   36.0910 C   0  0  0  0  0  0  0  0  0  0  0  0
   45.3260   19.8110   35.3680 H   0  0  0  0  0  0  0  0  0  0  0  0
   43.4730   20.6960   36.1210 C   0  0  0  0  0  0  0  0  0  0  0  0
   43.2050   21.7650   35.3030 C   0  0  0  0  0  3  0  0  0  0  0  0
   37.9740   25.3490   34.8810 C   0  0  0  0  0  0  0  0  0  0  0  0
   37.8110   25.0740   33.5860 C   0  0  0  0  0  0  0  0  0  0  0  0
   37.3290   26.0210   32.7560 C   0  0  0  0  0  0  0  0  0  0  0  0
   37.0260   27.2520   33.3080 C   0  0  0  0  0  0  0  0  0  0  0  0
   37.4530   27.0220   35.0740 S   0  0  0  0  0  0  0  0  0  0  0  0
   38.0760   24.0800   33.2400 H   0  0  0  0  0  0  0  0  0  0  0  0
   37.1480   25.9340   31.6920 H   0  0  0  0  0  0  0  0  0  0  0  0
   38.1400   28.0480   30.5860 Cl  0  0  0  0  0  0  0  0  0  0  0  0
   36.9580   28.8970   31.5350 C   0  0  0  0  0  0  0  0  0  0  0  0
   36.5050   28.4790   32.7480 C   0  0  0  0  0  0  0  0  0  0  0  0
   35.5820   29.1030   33.5330 C   0  0  0  0  0  0  0  0  0  0  0  0
   35.0280   30.2990   33.0640 C   0  0  0  0  0  0  0  0  0  0  0  0
   35.4410   30.7820   31.8390 C   0  0  0  0  0  0  0  0  0  0  0  0
   34.7780   32.2760   31.2050 Cl  0  0  0  0  0  0  0  0  0  0  0  0
   36.3890   30.0960   31.0850 C   0  0  0  0  0  0  0  0  0  0  0  0
   35.2450   28.7370   34.5010 H   0  0  0  0  0  0  0  0  0  0  0  0
   34.2890   30.8190   33.6680 H   0  0  0  0  0  0  0  0  0  0  0  0
   36.6740   30.5200   30.1370 H   0  0  0  0  0  0  0  0  0  0  0  0
  1  7  1  0  0  0  0
  2  8  1  0  0  0  0
  2  1  2  0  0  0  0
  3  2  1  0  0  0  0
  4  3  2  0  0  0  0
  4  5  1  0  0  0  0
  5  6  2  0  0  0  0
  6  1  1  0  0  0  0
  9 10  1  0  0  0  0
 10  5  1  0  0  0  0
 10 11  2  0  0  0  0
 11 12  1  0  0  0  0
 13 11  1  0  0  0  0
 13 14  1  0  0  0  0
 14 15  1  0  0  0  0
 16 14  1  0  0  0  0
 17 19  1  0  0  0  0
 17 16  2  0  0  0  0
 18 17  1  0  0  0  0
 19 13  2  0  0  0  0
 20  9  2  0  0  0  0
 20 19  1  0  0  0  0
 21 25  1  0  0  0  0
 21  3  1  0  0  0  0
 22 21  2  0  0  0  0
 23 24  2  0  0  0  0
 23 22  1  0  0  0  0
 24 25  1  0  0  0  0
 26 22  1  0  0  0  0
 27 23  1  0  0  0  0
 28 29  1  0  0  0  0
 29 30  1  0  0  0  0
 30 24  1  0  0  0  0
 30 31  2  0  0  0  0
 31 36  1  0  0  0  0
 32 31  1  0  0  0  0
 32 37  1  0  0  0  0
 33 32  2  0  0  0  0
 34 33  1  0  0  0  0
 35 29  2  0  0  0  0
 35 33  1  0  0  0  0
 38 35  1  0  0  0  0
M  END
>  <minimizedAffinity>
-6.62311888

$$$$

 OpenBabel03272503213D

 38 42  0  0  0  0  0  0  0  0999 V2000
   37.3630   24.7990   31.0530 C   0  0  0  0  0  0  0  0  0  0  0  0
   36.6950   26.0130   31.3290 C   0  0  0  0  0  0  0  0  0  0  0  0
   36.9470   26.6130   32.5810 C   0  0  0  0  0  0  0  0  0  0  0  0
   37.7870   26.0230   33.4330 N   0  0  0  0  0  0  0  0  0  0  0  0
   38.4040   24.8650   33.1300 C   0  0  0  0  0  0  0  0  0  0  0  0
   38.1910   24.2670   31.9570 N   0  0  0  0  0  0  0  0  0  0  0  0
   37.1220   24.3930   30.0720 H   0  0  0  0  0  0  0  0  0  0  0  0
   36.0140   26.4850   30.6280 H   0  0  0  0  0  0  0  0  0  0  0  0
   40.6720   24.4220   33.9990 C   0  0  0  0  0  3  0  0  0  0  0  0
   39.3090   24.2740   34.1080 C   0  0  0  0  0  0  0  0  0  0  0  0
   38.8130   23.5500   35.1710 C   0  0  0  0  0  0  0  0  0  0  0  0
   37.7600   23.3920   35.3200 H   0  0  0  0  0  0  0  0  0  0  0  0
   39.7090   22.9980   36.0870 C   0  0  0  0  0  0  0  0  0  0  0  0
   39.5730   22.2600   37.2020 N   0  0  0  0  0  0  0  0  0  0  0  0
   38.6820   21.9320   37.6250 H   0  0  0  0  0  0  0  0  0  0  0  0
   40.7570   21.9790   37.7310 N   0  0  0  0  0  0  0  0  0  0  0  0
   41.7320   22.5370   36.9650 C   0  0  0  0  0  0  0  0  0  0  0  0
   42.8050   22.5150   37.0900 H   0  0  0  0  0  0  0  0  0  0  0  0
   41.0750   23.1800   35.9290 C   0  0  0  0  0  0  0  0  0  0  0  0
   41.5820   23.9000   34.8750 C   0  0  0  0  0  3  0  0  0  0  0  0
   36.2950   27.8750   32.9470 C   0  0  0  0  0  0  0  0  0  0  0  0
   35.6290   28.7780   32.2250 C   0  0  0  0  0  0  0  0  0  0  0  0
   35.1200   29.8720   32.8250 C   0  0  0  0  0  0  0  0  0  0  0  0
   35.3210   29.9980   34.1860 C   0  0  0  0  0  0  0  0  0  0  0  0
   36.2740   28.4900   34.5990 S   0  0  0  0  0  0  0  0  0  0  0  0
   35.5190   28.5960   31.1600 H   0  0  0  0  0  0  0  0  0  0  0  0
   34.5620   30.6770   32.3630 H   0  0  0  0  0  0  0  0  0  0  0  0
   32.6100   29.5940   35.5150 Cl  0  0  0  0  0  0  0  0  0  0  0  0
   33.7350   30.8910   35.7810 C   0  0  0  0  0  0  0  0  0  0  0  0
   34.9340   31.0070   35.1490 C   0  0  0  0  0  0  0  0  0  0  0  0
   35.8540   31.9990   35.3190 C   0  0  0  0  0  0  0  0  0  0  0  0
   35.5550   33.0140   36.2330 C   0  0  0  0  0  0  0  0  0  0  0  0
   34.3540   32.9610   36.9110 C   0  0  0  0  0  0  0  0  0  0  0  0
   33.9330   34.2090   38.0680 Cl  0  0  0  0  0  0  0  0  0  0  0  0
   33.4580   31.9190   36.6920 C   0  0  0  0  0  0  0  0  0  0  0  0
   36.8040   32.0580   34.7920 H   0  0  0  0  0  0  0  0  0  0  0  0
   36.2690   33.8200   36.3890 H   0  0  0  0  0  0  0  0  0  0  0  0
   32.5370   31.9280   37.2490 H   0  0  0  0  0  0  0  0  0  0  0  0
  1  2  2  0  0  0  0
  1  6  1  0  0  0  0
  2  3  1  0  0  0  0
  3 21  1  0  0  0  0
  3  4  2  0  0  0  0
  5  4  1  0  0  0  0
  5 10  1  0  0  0  0
  6  5  2  0  0  0  0
  7  1  1  0  0  0  0
  8  2  1  0  0  0  0
  9 10  2  0  0  0  0
  9 20  1  0  0  0  0
 10 11  1  0  0  0  0
 11 12  1  0  0  0  0
 11 13  2  0  0  0  0
 13 14  1  0  0  0  0
 14 15  1  0  0  0  0
 14 16  1  0  0  0  0
 17 18  1  0  0  0  0
 17 16  2  0  0  0  0
 19 13  1  0  0  0  0
 19 17  1  0  0  0  0
 20 19  2  0  0  0  0
 21 25  1  0  0  0  0
 22 23  1  0  0  0  0
 22 21  2  0  0  0  0
 23 24  2  0  0  0  0
 24 25  1  0  0  0  0
 24 30  1  0  0  0  0
 26 22  1  0  0  0  0
 27 23  1  0  0  0  0
 28 29  1  0  0  0  0
 29 35  1  0  0  0  0
 30 31  1  0  0  0  0
 30 29  2  0  0  0  0
 31 32  2  0  0  0  0
 32 37  1  0  0  0  0
 32 33  1  0  0  0  0
 33 34  1  0  0  0  0
 35 33  2  0  0  0  0
 35 38  1  0  0  0  0
 36 31  1  0  0  0  0
M  END
>  <minimizedAffinity>
-6.59756708

$$$$

 OpenBabel03272503213D

 38 42  0  0  0  0  0  0  0  0999 V2000
   39.5100   25.1580   31.5840 C   0  0  0  0  0  0  0  0  0  0  0  0
   38.8210   26.3450   31.9210 C   0  0  0  0  0  0  0  0  0  0  0  0
   37.4630   26.2190   32.2800 C   0  0  0  0  0  0  0  0  0  0  0  0
   36.8970   25.0110   32.2870 N   0  0  0  0  0  0  0  0  0  0  0  0
   37.5890   23.9040   31.9600 C   0  0  0  0  0  0  0  0  0  0  0  0
   38.8760   23.9820   31.6150 N   0  0  0  0  0  0  0  0  0  0  0  0
   40.5510   25.3290   31.3180 H   0  0  0  0  0  0  0  0  0  0  0  0
   39.2920   27.3230   31.9120 H   0  0  0  0  0  0  0  0  0  0  0  0
   35.5420   22.5310   32.1220 C   0  0  0  0  0  3  0  0  0  0  0  0
   36.9090   22.6150   31.9890 C   0  0  0  0  0  0  0  0  0  0  0  0
   37.6280   21.4430   31.8810 C   0  0  0  0  0  0  0  0  0  0  0  0
   38.6970   21.4300   31.7750 H   0  0  0  0  0  0  0  0  0  0  0  0
   36.9440   20.2270   31.9130 C   0  0  0  0  0  0  0  0  0  0  0  0
   37.3180   18.9400   31.8360 N   0  0  0  0  0  0  0  0  0  0  0  0
   38.2880   18.5800   31.7280 H   0  0  0  0  0  0  0  0  0  0  0  0
   36.2670   18.1340   31.9170 N   0  0  0  0  0  0  0  0  0  0  0  0
   35.1400   18.8840   32.0500 C   0  0  0  0  0  0  0  0  0  0  0  0
   34.1100   18.5710   32.1440 H   0  0  0  0  0  0  0  0  0  0  0  0
   35.5630   20.2030   32.0480 C   0  0  0  0  0  0  0  0  0  0  0  0
   34.8360   21.3620   32.1560 C   0  0  0  0  0  3  0  0  0  0  0  0
   36.6750   27.4020   32.6430 C   0  0  0  0  0  0  0  0  0  0  0  0
   35.8980   28.2120   31.9220 C   0  0  0  0  0  0  0  0  0  0  0  0
   35.2750   29.2480   32.5190 C   0  0  0  0  0  0  0  0  0  0  0  0
   35.4840   29.4160   33.8750 C   0  0  0  0  0  0  0  0  0  0  0  0
   36.6110   28.0330   34.2880 S   0  0  0  0  0  0  0  0  0  0  0  0
   35.7920   28.0040   30.8610 H   0  0  0  0  0  0  0  0  0  0  0  0
   34.6210   29.9780   32.0580 H   0  0  0  0  0  0  0  0  0  0  0  0
   32.5280   29.2180   34.5860 Cl  0  0  0  0  0  0  0  0  0  0  0  0
   33.6890   30.3580   35.1960 C   0  0  0  0  0  0  0  0  0  0  0  0
   34.9990   30.3860   34.8320 C   0  0  0  0  0  0  0  0  0  0  0  0
   35.9510   31.2550   35.2780 C   0  0  0  0  0  0  0  0  0  0  0  0
   35.5630   32.2260   36.2060 C   0  0  0  0  0  0  0  0  0  0  0  0
   34.2480   32.2560   36.6210 C   0  0  0  0  0  0  0  0  0  0  0  0
   33.7110   33.4530   37.7840 Cl  0  0  0  0  0  0  0  0  0  0  0  0
   33.3240   31.3390   36.1270 C   0  0  0  0  0  0  0  0  0  0  0  0
   36.9930   31.2470   34.9610 H   0  0  0  0  0  0  0  0  0  0  0  0
   36.3010   32.9330   36.5800 H   0  0  0  0  0  0  0  0  0  0  0  0
   32.3110   31.4090   36.4860 H   0  0  0  0  0  0  0  0  0  0  0  0
  1  6  2  0  0  0  0
  1  2  1  0  0  0  0
  2  3  2  0  0  0  0
  3  4  1  0  0  0  0
  3 21  1  0  0  0  0
  5 10  1  0  0  0  0
  5  4  2  0  0  0  0
  6  5  1  0  0  0  0
  7  1  1  0  0  0  0
  8  2  1  0  0  0  0
  9 20  1  0  0  0  0
 10  9  2  0  0  0  0
 11 13  2  0  0  0  0
 11 10  1  0  0  0  0
 12 11  1  0  0  0  0
 13 19  1  0  0  0  0
 14 13  1  0  0  0  0
 14 16  1  0  0  0  0
 15 14  1  0  0  0  0
 16 17  2  0  0  0  0
 17 18  1  0  0  0  0
 19 17  1  0  0  0  0
 19 20  2  0  0  0  0
 21 25  1  0  0  0  0
 22 23  1  0  0  0  0
 22 21  2  0  0  0  0
 23 24  2  0  0  0  0
 24 25  1  0  0  0  0
 24 30  1  0  0  0  0
 26 22  1  0  0  0  0
 27 23  1  0  0  0  0
 28 29  1  0  0  0  0
 29 35  1  0  0  0  0
 30 29  2  0  0  0  0
 30 31  1  0  0  0  0
 31 32  2  0  0  0  0
 32 37  1  0  0  0  0
 32 33  1  0  0  0  0
 33 34  1  0  0  0  0
 35 38  1  0  0  0  0
 35 33  2  0  0  0  0
 36 31  1  0  0  0  0
M  END
>  <minimizedAffinity>
-6.55072927

$$$$

 OpenBabel03272503213D

 38 42  0  0  0  0  0  0  0  0999 V2000
   35.8740   29.3420   31.3500 C   0  0  0  0  0  0  0  0  0  0  0  0
   36.7890   28.5950   32.1260 C   0  0  0  0  0  0  0  0  0  0  0  0
   36.3990   28.2740   33.4440 C   0  0  0  0  0  0  0  0  0  0  0  0
   35.2110   28.6800   33.8930 N   0  0  0  0  0  0  0  0  0  0  0  0
   34.3680   29.3910   33.1200 C   0  0  0  0  0  0  0  0  0  0  0  0
   34.7010   29.7140   31.8680 N   0  0  0  0  0  0  0  0  0  0  0  0
   36.2390   29.5530   30.3460 H   0  0  0  0  0  0  0  0  0  0  0  0
   37.7530   28.2690   31.7510 H   0  0  0  0  0  0  0  0  0  0  0  0
   31.9670   29.9150   32.8790 C   0  0  0  0  0  3  0  0  0  0  0  0
   33.0840   29.8040   33.6740 C   0  0  0  0  0  0  0  0  0  0  0  0
   32.9640   30.0920   35.0160 C   0  0  0  0  0  0  0  0  0  0  0  0
   33.7930   30.0270   35.6970 H   0  0  0  0  0  0  0  0  0  0  0  0
   31.7200   30.4840   35.5120 C   0  0  0  0  0  0  0  0  0  0  0  0
   31.2620   30.8270   36.7280 N   0  0  0  0  0  0  0  0  0  0  0  0
   31.8110   30.8670   37.6100 H   0  0  0  0  0  0  0  0  0  0  0  0
   29.9700   31.1250   36.6810 N   0  0  0  0  0  0  0  0  0  0  0  0
   29.5250   30.9830   35.4040 C   0  0  0  0  0  0  0  0  0  0  0  0
   28.5370   31.1390   34.9950 H   0  0  0  0  0  0  0  0  0  0  0  0
   30.6250   30.5790   34.6650 C   0  0  0  0  0  0  0  0  0  0  0  0
   30.7320   30.2940   33.3260 C   0  0  0  0  0  3  0  0  0  0  0  0
   37.2890   27.5010   34.3160 C   0  0  0  0  0  0  0  0  0  0  0  0
   37.8430   27.7790   35.4980 C   0  0  0  0  0  0  0  0  0  0  0  0
   38.6390   26.8700   36.0950 C   0  0  0  0  0  0  0  0  0  0  0  0
   38.8400   25.6730   35.4340 C   0  0  0  0  0  0  0  0  0  0  0  0
   37.8480   25.8800   33.9080 S   0  0  0  0  0  0  0  0  0  0  0  0
   37.6300   28.7460   35.9450 H   0  0  0  0  0  0  0  0  0  0  0  0
   39.1480   26.9640   37.0470 H   0  0  0  0  0  0  0  0  0  0  0  0
   37.4790   23.6630   37.2730 Cl  0  0  0  0  0  0  0  0  0  0  0  0
   39.0630   23.5490   36.5700 C   0  0  0  0  0  0  0  0  0  0  0  0
   39.6080   24.4900   35.7520 C   0  0  0  0  0  0  0  0  0  0  0  0
   40.8420   24.4520   35.1740 C   0  0  0  0  0  0  0  0  0  0  0  0
   41.6490   23.3390   35.4330 C   0  0  0  0  0  0  0  0  0  0  0  0
   41.1600   22.3440   36.2540 C   0  0  0  0  0  0  0  0  0  0  0  0
   42.1310   20.9290   36.6100 Cl  0  0  0  0  0  0  0  0  0  0  0  0
   39.8900   22.4440   36.8140 C   0  0  0  0  0  0  0  0  0  0  0  0
   41.2450   25.2270   34.5250 H   0  0  0  0  0  0  0  0  0  0  0  0
   42.6390   23.2810   34.9850 H   0  0  0  0  0  0  0  0  0  0  0  0
   39.5590   21.6380   37.4470 H   0  0  0  0  0  0  0  0  0  0  0  0
  1  6  2  0  0  0  0
  1  2  1  0  0  0  0
  2  3  2  0  0  0  0
  3  4  1  0  0  0  0
  3 21  1  0  0  0  0
  5 10  1  0  0  0  0
  5  4  2  0  0  0  0
  6  5  1  0  0  0  0
  7  1  1  0  0  0  0
  8  2  1  0  0  0  0
  9 20  2  0  0  0  0
  9 10  1  0  0  0  0
 10 11  2  0  0  0  0
 11 13  1  0  0  0  0
 11 12  1  0  0  0  0
 13 14  1  0  0  0  0
 14 15  1  0  0  0  0
 16 14  1  0  0  0  0
 17 16  2  0  0  0  0
 18 17  1  0  0  0  0
 19 17  1  0  0  0  0
 19 13  2  0  0  0  0
 20 19  1  0  0  0  0
 21 22  2  0  0  0  0
 22 26  1  0  0  0  0
 22 23  1  0  0  0  0
 23 27  1  0  0  0  0
 24 30  1  0  0  0  0
 24 23  2  0  0  0  0
 25 21  1  0  0  0  0
 25 24  1  0  0  0  0
 29 35  1  0  0  0  0
 29 28  1  0  0  0  0
 30 29  2  0  0  0  0
 31 32  2  0  0  0  0
 31 30  1  0  0  0  0
 32 33  1  0  0  0  0
 33 34  1  0  0  0  0
 33 35  2  0  0  0  0
 35 38  1  0  0  0  0
 36 31  1  0  0  0  0
 37 32  1  0  0  0  0
M  END
>  <minimizedAffinity>
-6.47096109

$$$$

 OpenBabel03272503213D

 38 42  0  0  0  0  0  0  0  0999 V2000
   36.7420   29.9980   30.6660 C   0  0  0  0  0  0  0  0  0  0  0  0
   36.7440   28.6030   30.4390 C   0  0  0  0  0  0  0  0  0  0  0  0
   36.1210   27.7940   31.4140 C   0  0  0  0  0  0  0  0  0  0  0  0
   35.5680   28.3670   32.4840 N   0  0  0  0  0  0  0  0  0  0  0  0
   35.5890   29.7020   32.6620 C   0  0  0  0  0  0  0  0  0  0  0  0
   36.1680   30.4990   31.7630 N   0  0  0  0  0  0  0  0  0  0  0  0
   37.2380   30.5590   29.8760 H   0  0  0  0  0  0  0  0  0  0  0  0
   37.1960   28.1480   29.5650 H   0  0  0  0  0  0  0  0  0  0  0  0
   33.7740   29.7720   34.3350 C   0  0  0  0  0  3  0  0  0  0  0  0
   34.9660   30.2620   33.8550 C   0  0  0  0  0  0  0  0  0  0  0  0
   35.5670   31.3010   34.5330 C   0  0  0  0  0  0  0  0  0  0  0  0
   36.4980   31.7350   34.2180 H   0  0  0  0  0  0  0  0  0  0  0  0
   34.9420   31.8130   35.6720 C   0  0  0  0  0  0  0  0  0  0  0  0
   35.2400   32.7910   36.5440 N   0  0  0  0  0  0  0  0  0  0  0  0
   36.0770   33.4080   36.5240 H   0  0  0  0  0  0  0  0  0  0  0  0
   34.3050   32.8920   37.4790 N   0  0  0  0  0  0  0  0  0  0  0  0
   33.3400   31.9620   37.2490 C   0  0  0  0  0  0  0  0  0  0  0  0
   32.4350   31.7540   37.8020 H   0  0  0  0  0  0  0  0  0  0  0  0
   33.7390   31.2800   36.1110 C   0  0  0  0  0  0  0  0  0  0  0  0
   33.1310   30.2440   35.4450 C   0  0  0  0  0  3  0  0  0  0  0  0
   36.0780   26.3370   31.2560 C   0  0  0  0  0  0  0  0  0  0  0  0
   35.0780   25.4980   30.9820 C   0  0  0  0  0  0  0  0  0  0  0  0
   35.3190   24.1750   30.8900 C   0  0  0  0  0  0  0  0  0  0  0  0
   36.6200   23.7540   31.0900 C   0  0  0  0  0  0  0  0  0  0  0  0
   37.5090   25.3210   31.4190 S   0  0  0  0  0  0  0  0  0  0  0  0
   34.0860   25.9180   30.8400 H   0  0  0  0  0  0  0  0  0  0  0  0
   34.6060   23.3880   30.6750 H   0  0  0  0  0  0  0  0  0  0  0  0
   35.0990   21.5320   32.5160 Cl  0  0  0  0  0  0  0  0  0  0  0  0
   36.6240   21.4100   31.6910 C   0  0  0  0  0  0  0  0  0  0  0  0
   37.2460   22.4500   31.0730 C   0  0  0  0  0  0  0  0  0  0  0  0
   38.4380   22.4110   30.4120 C   0  0  0  0  0  0  0  0  0  0  0  0
   39.1080   21.1850   30.3500 C   0  0  0  0  0  0  0  0  0  0  0  0
   38.5350   20.0860   30.9560 C   0  0  0  0  0  0  0  0  0  0  0  0
   39.3350   18.5270   30.9060 Cl  0  0  0  0  0  0  0  0  0  0  0  0
   37.3140   20.1930   31.6160 C   0  0  0  0  0  0  0  0  0  0  0  0
   38.9060   23.2670   29.9300 H   0  0  0  0  0  0  0  0  0  0  0  0
   40.0620   21.1230   29.8300 H   0  0  0  0  0  0  0  0  0  0  0  0
   36.9130   19.3030   32.0700 H   0  0  0  0  0  0  0  0  0  0  0  0
  1  6  1  0  0  0  0
  2  1  2  0  0  0  0
  2  3  1  0  0  0  0
  3  4  2  0  0  0  0
  4  5  1  0  0  0  0
  5 10  1  0  0  0  0
  6  5  2  0  0  0  0
  7  1  1  0  0  0  0
  8  2  1  0  0  0  0
  9 20  1  0  0  0  0
 10  9  2  0  0  0  0
 10 11  1  0  0  0  0
 11 13  2  0  0  0  0
 12 11  1  0  0  0  0
 13 19  1  0  0  0  0
 13 14  1  0  0  0  0
 14 16  1  0  0  0  0
 15 14  1  0  0  0  0
 17 16  2  0  0  0  0
 17 18  1  0  0  0  0
 19 17  1  0  0  0  0
 20 19  2  0  0  0  0
 21  3  1  0  0  0  0
 21 25  1  0  0  0  0
 22 21  2  0  0  0  0
 23 22  1  0  0  0  0
 23 24  2  0  0  0  0
 24 25  1  0  0  0  0
 26 22  1  0  0  0  0
 27 23  1  0  0  0  0
 29 28  1  0  0  0  0
 30 24  1  0  0  0  0
 30 29  2  0  0  0  0
 31 30  1  0  0  0  0
 32 31  2  0  0  0  0
 32 33  1  0  0  0  0
 33 35  2  0  0  0  0
 34 33  1  0  0  0  0
 35 29  1  0  0  0  0
 35 38  1  0  0  0  0
 36 31  1  0  0  0  0
 37 32  1  0  0  0  0
M  END
>  <minimizedAffinity>
-6.44078398

$$$$

 OpenBabel03272503213D

 38 42  0  0  0  0  0  0  0  0999 V2000
   36.1740   29.8980   30.7240 C   0  0  0  0  0  0  0  0  0  0  0  0
   36.5290   28.5320   30.8030 C   0  0  0  0  0  0  0  0  0  0  0  0
   36.3520   27.8940   32.0480 C   0  0  0  0  0  0  0  0  0  0  0  0
   35.8670   28.5900   33.0780 N   0  0  0  0  0  0  0  0  0  0  0  0
   35.5400   29.8910   32.9600 C   0  0  0  0  0  0  0  0  0  0  0  0
   35.6930   30.5300   31.7990 N   0  0  0  0  0  0  0  0  0  0  0  0
   36.3360   30.3250   29.7360 H   0  0  0  0  0  0  0  0  0  0  0  0
   36.9230   27.9760   29.9590 H   0  0  0  0  0  0  0  0  0  0  0  0
   35.8450   31.0260   35.1320 C   0  0  0  0  0  3  0  0  0  0  0  0
   35.0150   30.5920   34.1260 C   0  0  0  0  0  0  0  0  0  0  0  0
   33.6630   30.8370   34.2430 C   0  0  0  0  0  0  0  0  0  0  0  0
   32.9540   30.5270   33.4970 H   0  0  0  0  0  0  0  0  0  0  0  0
   33.1950   31.5100   35.3710 C   0  0  0  0  0  0  0  0  0  0  0  0
   31.9810   31.9010   35.7930 N   0  0  0  0  0  0  0  0  0  0  0  0
   31.0760   31.7560   35.3010 H   0  0  0  0  0  0  0  0  0  0  0  0
   32.0620   32.5230   36.9620 N   0  0  0  0  0  0  0  0  0  0  0  0
   33.3630   32.5630   37.3560 C   0  0  0  0  0  0  0  0  0  0  0  0
   33.8010   32.9870   38.2490 H   0  0  0  0  0  0  0  0  0  0  0  0
   34.0800   31.9260   36.3570 C   0  0  0  0  0  0  0  0  0  0  0  0
   35.4270   31.6890   36.2520 C   0  0  0  0  0  3  0  0  0  0  0  0
   36.6960   26.4780   32.2160 C   0  0  0  0  0  0  0  0  0  0  0  0
   37.5460   25.8580   33.0360 C   0  0  0  0  0  0  0  0  0  0  0  0
   37.6720   24.5170   32.9800 C   0  0  0  0  0  0  0  0  0  0  0  0
   36.8940   23.8460   32.0550 C   0  0  0  0  0  0  0  0  0  0  0  0
   35.9610   25.2010   31.2490 S   0  0  0  0  0  0  0  0  0  0  0  0
   38.1180   26.4650   33.7310 H   0  0  0  0  0  0  0  0  0  0  0  0
   38.3180   23.8900   33.5830 H   0  0  0  0  0  0  0  0  0  0  0  0
   38.9410   22.7600   30.0770 Cl  0  0  0  0  0  0  0  0  0  0  0  0
   37.6380   21.8940   30.8340 C   0  0  0  0  0  0  0  0  0  0  0  0
   36.7590   22.4470   31.7130 C   0  0  0  0  0  0  0  0  0  0  0  0
   35.7220   21.8180   32.3350 C   0  0  0  0  0  0  0  0  0  0  0  0
   35.5220   20.4620   32.0570 C   0  0  0  0  0  0  0  0  0  0  0  0
   36.3780   19.8350   31.1740 C   0  0  0  0  0  0  0  0  0  0  0  0
   36.1700   18.1360   30.7920 Cl  0  0  0  0  0  0  0  0  0  0  0  0
   37.4180   20.5350   30.5710 C   0  0  0  0  0  0  0  0  0  0  0  0
   35.0370   22.2960   33.0330 H   0  0  0  0  0  0  0  0  0  0  0  0
   34.7030   19.9320   32.5380 H   0  0  0  0  0  0  0  0  0  0  0  0
   38.0550   19.9960   29.8910 H   0  0  0  0  0  0  0  0  0  0  0  0
  1  2  2  0  0  0  0
  1  6  1  0  0  0  0
  2  3  1  0  0  0  0
  3 21  1  0  0  0  0
  3  4  2  0  0  0  0
  5  4  1  0  0  0  0
  5 10  1  0  0  0  0
  6  5  2  0  0  0  0
  7  1  1  0  0  0  0
  8  2  1  0  0  0  0
  9 20  1  0  0  0  0
 10 11  1  0  0  0  0
 10  9  2  0  0  0  0
 11 13  2  0  0  0  0
 12 11  1  0  0  0  0
 13 14  1  0  0  0  0
 13 19  1  0  0  0  0
 14 16  1  0  0  0  0
 15 14  1  0  0  0  0
 16 17  2  0  0  0  0
 17 18  1  0  0  0  0
 19 17  1  0  0  0  0
 20 19  2  0  0  0  0
 21 22  2  0  0  0  0
 22 26  1  0  0  0  0
 23 22  1  0  0  0  0
 23 27  1  0  0  0  0
 24 23  2  0  0  0  0
 25 24  1  0  0  0  0
 25 21  1  0  0  0  0
 28 29  1  0  0  0  0
 29 30  1  0  0  0  0
 30 24  1  0  0  0  0
 30 31  2  0  0  0  0
 31 36  1  0  0  0  0
 32 31  1  0  0  0  0
 32 37  1  0  0  0  0
 33 32  2  0  0  0  0
 34 33  1  0  0  0  0
 35 29  2  0  0  0  0
 35 33  1  0  0  0  0
 38 35  1  0  0  0  0
M  END
>  <minimizedAffinity>
-6.36052084

$$$$
