
 OpenBabel03272508433D

 30 33  0  0  0  0  0  0  0  0999 V2000
   34.1230   28.9000   48.1880 C   0  0  0  0  0  0  0  0  0  0  0  0
   34.7360   28.1690   49.1970 C   0  0  0  0  0  0  0  0  0  0  0  0
   35.8360   28.9530   49.5380 C   0  0  0  0  0  0  0  0  0  0  0  0
   35.8420   30.0800   48.7540 C   0  0  0  0  0  0  0  0  0  0  0  0
   34.7980   30.0130   47.9540 O   0  0  0  0  0  0  0  0  0  0  0  0
   34.4170   27.2330   49.5950 H   0  0  0  0  0  0  0  0  0  0  0  0
   36.5650   28.7040   50.3040 H   0  0  0  0  0  0  0  0  0  0  0  0
   36.9370   31.9380   49.9230 C   0  0  0  0  0  3  0  0  0  0  0  0
   36.8140   31.1660   48.7790 C   0  0  0  0  0  0  0  0  0  0  0  0
   37.5940   31.3990   47.6530 C   0  0  0  0  0  0  0  0  0  0  0  0
   37.4950   30.7910   46.7570 H   0  0  0  0  0  0  0  0  0  0  0  0
   38.5270   32.4280   47.6530 C   0  0  0  0  0  0  0  0  0  0  0  0
   39.4100   32.9000   46.7530 N   0  0  0  0  0  0  0  0  0  0  0  0
   39.5090   32.4760   45.7940 H   0  0  0  0  0  0  0  0  0  0  0  0
   40.0460   33.9170   47.3230 N   0  0  0  0  0  0  0  0  0  0  0  0
   39.5850   34.1070   48.5750 C   0  0  0  0  0  0  0  0  0  0  0  0
   39.9460   34.8770   49.2460 H   0  0  0  0  0  0  0  0  0  0  0  0
   38.6040   33.1610   48.8200 C   0  0  0  0  0  0  0  0  0  0  0  0
   37.8650   32.9860   49.9660 C   0  0  0  0  0  3  0  0  0  0  0  0
   32.9080   28.4750   47.5010 C   0  0  0  0  0  0  0  0  0  0  0  0
   32.1730   27.6420   48.0580 O   0  0  0  0  0  0  0  0  0  0  0  0
   31.2270   30.4450   44.9350 C   0  0  0  0  0  0  0  0  0  0  0  0
   31.9360   30.1400   43.7800 C   0  0  0  0  0  0  0  0  0  0  0  0
   32.9960   29.2590   43.8580 C   0  0  0  0  0  0  0  0  0  0  0  0
   33.2970   28.7300   45.0650 N   0  0  0  0  0  0  0  0  0  0  0  0
   32.5940   29.0390   46.1890 C   0  0  0  0  0  0  0  0  0  0  0  0
   31.5600   29.8990   46.1100 N   0  0  0  0  0  0  0  0  0  0  0  0
   30.3930   31.1350   44.8870 H   0  0  0  0  0  0  0  0  0  0  0  0
   31.6580   30.5880   42.8300 H   0  0  0  0  0  0  0  0  0  0  0  0
   33.5770   28.9870   42.9990 H   0  0  0  0  0  0  0  0  0  0  0  0
  1  2  2  0  0  0  0
  2  3  1  0  0  0  0
  2  6  1  0  0  0  0
  3  7  1  0  0  0  0
  4  9  1  0  0  0  0
  4  3  2  0  0  0  0
  5  1  1  0  0  0  0
  5  4  1  0  0  0  0
  8 19  1  0  0  0  0
  9  8  2  0  0  0  0
 10  9  1  0  0  0  0
 11 10  1  0  0  0  0
 12 10  2  0  0  0  0
 12 18  1  0  0  0  0
 13 15  1  0  0  0  0
 13 12  1  0  0  0  0
 14 13  1  0  0  0  0
 15 16  2  0  0  0  0
 16 18  1  0  0  0  0
 16 17  1  0  0  0  0
 18 19  2  0  0  0  0
 20 21  2  0  0  0  0
 20  1  1  0  0  0  0
 22 27  1  0  0  0  0
 23 24  1  0  0  0  0
 23 22  2  0  0  0  0
 24 25  2  0  0  0  0
 25 26  1  0  0  0  0
 26 20  1  0  0  0  0
 27 26  2  0  0  0  0
 28 22  1  0  0  0  0
 29 23  1  0  0  0  0
 30 24  1  0  0  0  0
M  END
>  <minimizedAffinity>
-5.91705227

>  <minimizedRMSD>
3.23851705

$$$$
