
 OpenBabel03272505343D

 38 41  0  0  1  0  0  0  0  0999 V2000
   37.4900   30.4140   49.5430 C   0  0  0  0  0  0  0  0  0  0  0  0
   37.6250   31.6690   50.1390 C   0  0  0  0  0  0  0  0  0  0  0  0
   38.0670   32.7410   49.3510 C   0  0  0  0  0  0  0  0  0  0  0  0
   38.3420   32.4830   48.0340 N   0  0  0  0  0  0  0  0  0  0  0  0
   38.1970   31.2550   47.5030 C   0  0  0  0  0  0  0  0  0  0  0  0
   37.7780   30.2330   48.2450 N   0  0  0  0  0  0  0  0  0  0  0  0
   38.5140   31.1110   46.1250 N   0  0  0  0  0  0  0  0  0  0  0  0
   39.8750   30.7590   45.7330 C   0  0  0  0  0  0  0  0  0  0  0  0
   40.3400   31.5680   44.5460 C   0  0  0  0  0  0  0  0  0  0  0  0
   39.3540   31.6340   43.5030 N   0  0  0  0  0  0  0  0  0  0  0  0
   38.1580   30.8820   43.7640 C   0  0  0  0  0  0  0  0  0  0  0  0
   37.5210   31.3040   45.0830 C   0  0  1  0  0  0  0  0  0  0  0  0
   37.3930   31.8310   51.2010 H   0  0  0  0  0  0  0  0  0  0  0  0
   38.1920   33.7250   49.7420 H   0  0  0  0  0  0  0  0  0  0  0  0
   39.8570   29.6950   45.4200 H   0  0  0  0  0  0  0  0  0  0  0  0
   40.5840   30.8790   46.5590 H   0  0  0  0  0  0  0  0  0  0  0  0
   41.2230   31.0360   44.1290 H   0  0  0  0  0  0  0  0  0  0  0  0
   40.6710   32.5930   44.8130 H   0  0  0  0  0  0  0  0  0  0  0  0
   39.6980   31.3670   42.5670 H   0  0  0  0  0  0  0  0  0  0  0  0
   38.3630   29.8110   43.8550 H   0  0  0  0  0  0  0  0  0  0  0  0
   37.4260   31.1450   42.9730 H   0  0  0  0  0  0  0  0  0  0  0  0
   37.2090   32.3710   45.0280 H   0  0  0  0  0  0  0  0  0  0  0  0
   35.9910   29.5110   44.2770 C   0  0  0  0  0  0  0  0  0  0  0  0
   36.3240   30.4380   45.2540 C   0  0  0  0  0  0  0  0  0  0  0  0
   35.5460   30.5550   46.3860 C   0  0  0  0  0  0  0  0  0  0  0  0
   35.7640   31.2660   47.1810 H   0  0  0  0  0  0  0  0  0  0  0  0
   34.4330   29.7550   46.5520 C   0  0  0  0  0  0  0  0  0  0  0  0
   33.4610   29.5720   47.4700 N   0  0  0  0  0  0  0  0  0  0  0  0
   33.4070   30.1270   48.3670 H   0  0  0  0  0  0  0  0  0  0  0  0
   32.6150   28.6280   47.0950 N   0  0  0  0  0  0  0  0  0  0  0  0
   32.9670   28.1150   45.8960 C   0  0  0  0  0  0  0  0  0  0  0  0
   32.4850   27.3420   45.3320 H   0  0  0  0  0  0  0  0  0  0  0  0
   34.1040   28.8300   45.5730 C   0  0  0  0  0  0  0  0  0  0  0  0
   34.8820   28.7000   44.4250 C   0  0  0  0  0  0  0  0  0  0  0  0
   37.0200   29.2710   50.3780 C   0  0  0  0  0  0  0  0  0  0  0  0
   36.0420   28.5570   49.6840 F   0  0  0  0  0  0  0  0  0  0  0  0
   38.0910   28.5370   50.7410 F   0  0  0  0  0  0  0  0  0  0  0  0
   36.3590   29.8330   51.4830 F   0  0  0  0  0  0  0  0  0  0  0  0
  1  2  1  0  0  0  0
  1 35  1  0  0  0  0
  2 13  1  0  0  0  0
  3 14  1  0  0  0  0
  3  2  2  0  0  0  0
  4  3  1  0  0  0  0
  5  4  2  0  0  0  0
  5  6  1  0  0  0  0
  6  1  2  0  0  0  0
  7  5  1  0  0  0  0
  8  7  1  0  0  0  0
  8 16  1  0  0  0  0
  9 18  1  0  0  0  0
  9  8  1  0  0  0  0
 10 11  1  0  0  0  0
 10  9  1  0  0  0  0
 11 20  1  0  0  0  0
 11 12  1  0  0  0  0
 12 22  1  6  0  0  0
 12 24  1  0  0  0  0
 12  7  1  0  0  0  0
 15  8  1  0  0  0  0
 17  9  1  0  0  0  0
 19 10  1  0  0  0  0
 21 11  1  0  0  0  0
 23 34  2  0  0  0  0
 23 24  1  0  0  0  0
 24 25  2  0  0  0  0
 25 27  1  0  0  0  0
 25 26  1  0  0  0  0
 27 28  1  0  0  0  0
 28 29  1  0  0  0  0
 30 28  1  0  0  0  0
 31 30  2  0  0  0  0
 32 31  1  0  0  0  0
 33 31  1  0  0  0  0
 33 27  2  0  0  0  0
 34 33  1  0  0  0  0
 35 37  1  0  0  0  0
 35 38  1  0  0  0  0
 36 35  1  0  0  0  0
M  END
>  <minimizedAffinity>
-6.73997736

>  <minimizedRMSD>
1.9093312

$$$$
