
 OpenBabel03262521483D

 35 38  0  0  1  0  0  0  0  0999 V2000
   36.8670   29.9810   50.3450 C   0  0  0  0  0  0  0  0  0  0  0  0
   37.6240   31.1650   50.2830 C   0  0  0  0  0  0  0  0  0  0  0  0
   37.6060   31.8770   49.0760 C   0  0  0  0  0  0  0  0  0  0  0  0
   36.8610   31.3730   48.0560 N   0  0  0  0  0  0  0  0  0  0  0  0
   36.1530   30.2440   48.1510 C   0  0  0  0  0  0  0  0  0  0  0  0
   36.1540   29.5420   49.3000 N   0  0  0  0  0  0  0  0  0  0  0  0
   35.4170   29.7860   47.0570 N   0  0  0  0  0  0  0  0  0  0  0  0
   34.1750   29.0190   47.2270 C   0  0  0  0  0  0  0  0  0  0  0  0
   33.0650   29.6540   46.4790 C   0  0  0  0  0  0  0  0  0  0  0  0
   33.4050   30.6150   45.5370 N   0  0  0  0  0  0  0  0  0  0  0  0
   34.6870   30.6220   44.9240 C   0  0  0  0  0  0  0  0  0  0  0  0
   35.8080   30.0160   45.6950 C   0  0  1  0  0  0  0  0  0  0  0  0
   36.9130   29.4650   51.3020 H   0  0  0  0  0  0  0  0  0  0  0  0
   38.2020   31.5190   51.1320 H   0  0  0  0  0  0  0  0  0  0  0  0
   38.1770   32.8020   48.9760 H   0  0  0  0  0  0  0  0  0  0  0  0
   33.9630   28.9650   48.3200 H   0  0  0  0  0  0  0  0  0  0  0  0
   34.3720   27.9880   46.9110 H   0  0  0  0  0  0  0  0  0  0  0  0
   32.3260   30.0710   47.2180 H   0  0  0  0  0  0  0  0  0  0  0  0
   32.4980   28.8260   45.9680 H   0  0  0  0  0  0  0  0  0  0  0  0
   32.6870   30.7640   44.8130 H   0  0  0  0  0  0  0  0  0  0  0  0
   34.6020   30.1230   43.9370 H   0  0  0  0  0  0  0  0  0  0  0  0
   34.9200   31.6780   44.6800 H   0  0  0  0  0  0  0  0  0  0  0  0
   35.9100   28.9270   45.2900 H   0  0  0  0  0  0  0  0  0  0  0  0
   37.0490   31.8520   44.8490 C   0  0  0  0  0  0  0  0  0  0  0  0
   37.1340   30.6210   45.5180 C   0  0  0  0  0  0  0  0  0  0  0  0
   38.4080   30.2330   45.8680 C   0  0  0  0  0  0  0  0  0  0  0  0
   38.4240   29.2830   46.3790 H   0  0  0  0  0  0  0  0  0  0  0  0
   39.5160   31.0010   45.5810 C   0  0  0  0  0  0  0  0  0  0  0  0
   40.7950   30.7270   45.8710 N   0  0  0  0  0  0  0  0  0  0  0  0
   41.2160   29.9060   46.3580 H   0  0  0  0  0  0  0  0  0  0  0  0
   41.5480   31.7160   45.4250 N   0  0  0  0  0  0  0  0  0  0  0  0
   40.7520   32.6430   44.8400 C   0  0  0  0  0  0  0  0  0  0  0  0
   40.9870   33.5930   44.3580 H   0  0  0  0  0  0  0  0  0  0  0  0
   39.4460   32.2100   44.9260 C   0  0  0  0  0  0  0  0  0  0  0  0
   38.1730   32.6020   44.5740 C   0  0  0  0  0  0  0  0  0  0  0  0
  1 13  1  0  0  0  0
  2  1  1  0  0  0  0
  2 14  1  0  0  0  0
  3  2  2  0  0  0  0
  4  5  2  0  0  0  0
  4  3  1  0  0  0  0
  5  6  1  0  0  0  0
  6  1  2  0  0  0  0
  7  8  1  0  0  0  0
  7  5  1  0  0  0  0
  8 16  1  0  0  0  0
  9 18  1  0  0  0  0
  9  8  1  0  0  0  0
 10  9  1  0  0  0  0
 11 10  1  0  0  0  0
 11 12  1  0  0  0  0
 12 23  1  6  0  0  0
 12  7  1  0  0  0  0
 15  3  1  0  0  0  0
 17  8  1  0  0  0  0
 19  9  1  0  0  0  0
 20 10  1  0  0  0  0
 21 11  1  0  0  0  0
 22 11  1  0  0  0  0
 24 25  1  0  0  0  0
 25 12  1  0  0  0  0
 25 26  2  0  0  0  0
 26 27  1  0  0  0  0
 28 26  1  0  0  0  0
 28 29  1  0  0  0  0
 29 30  1  0  0  0  0
 31 29  1  0  0  0  0
 32 34  1  0  0  0  0
 32 31  2  0  0  0  0
 33 32  1  0  0  0  0
 34 28  2  0  0  0  0
 35 24  2  0  0  0  0
 35 34  1  0  0  0  0
M  END
>  <minimizedAffinity>
-5.77547216

>  <minimizedRMSD>
2.25049758

$$$$
