
 OpenBabel03272508433D

 30 33  0  0  0  0  0  0  0  0999 V2000
   34.2290   28.8330   48.4700 C   0  0  0  0  0  0  0  0  0  0  0  0
   34.8270   28.2980   49.6040 C   0  0  0  0  0  0  0  0  0  0  0  0
   35.9570   29.0950   49.7760 C   0  0  0  0  0  0  0  0  0  0  0  0
   35.9940   30.0400   48.7800 C   0  0  0  0  0  0  0  0  0  0  0  0
   34.9400   29.8510   48.0140 O   0  0  0  0  0  0  0  0  0  0  0  0
   34.4800   27.4740   50.1830 H   0  0  0  0  0  0  0  0  0  0  0  0
   36.6850   28.9790   50.5740 H   0  0  0  0  0  0  0  0  0  0  0  0
   37.2910   31.9460   49.6190 C   0  0  0  0  0  3  0  0  0  0  0  0
   37.0030   31.0730   48.5830 C   0  0  0  0  0  0  0  0  0  0  0  0
   37.6530   31.1560   47.3580 C   0  0  0  0  0  0  0  0  0  0  0  0
   37.4260   30.4680   46.5450 H   0  0  0  0  0  0  0  0  0  0  0  0
   38.6180   32.1310   47.1460 C   0  0  0  0  0  0  0  0  0  0  0  0
   39.4060   32.4680   46.1080 N   0  0  0  0  0  0  0  0  0  0  0  0
   39.3750   31.9470   45.1920 H   0  0  0  0  0  0  0  0  0  0  0  0
   40.1430   33.5040   46.4930 N   0  0  0  0  0  0  0  0  0  0  0  0
   39.8400   33.8360   47.7640 C   0  0  0  0  0  0  0  0  0  0  0  0
   40.3080   34.6500   48.3070 H   0  0  0  0  0  0  0  0  0  0  0  0
   38.8600   32.9710   48.2150 C   0  0  0  0  0  0  0  0  0  0  0  0
   38.2570   32.9450   49.4490 C   0  0  0  0  0  3  0  0  0  0  0  0
   32.9930   28.3230   47.8870 C   0  0  0  0  0  0  0  0  0  0  0  0
   32.2720   27.5840   48.5790 O   0  0  0  0  0  0  0  0  0  0  0  0
   31.1810   29.8340   45.1080 C   0  0  0  0  0  0  0  0  0  0  0  0
   31.9100   29.4360   43.9940 C   0  0  0  0  0  0  0  0  0  0  0  0
   33.0290   28.6470   44.1740 C   0  0  0  0  0  0  0  0  0  0  0  0
   33.3650   28.2960   45.4350 N   0  0  0  0  0  0  0  0  0  0  0  0
   32.6410   28.6940   46.5170 C   0  0  0  0  0  0  0  0  0  0  0  0
   31.5500   29.4640   46.3390 N   0  0  0  0  0  0  0  0  0  0  0  0
   30.3020   30.4540   44.9800 H   0  0  0  0  0  0  0  0  0  0  0  0
   31.6030   29.7410   42.9970 H   0  0  0  0  0  0  0  0  0  0  0  0
   33.6290   28.3100   43.3510 H   0  0  0  0  0  0  0  0  0  0  0  0
  1  2  2  0  0  0  0
  2  3  1  0  0  0  0
  2  6  1  0  0  0  0
  3  7  1  0  0  0  0
  4  3  2  0  0  0  0
  5  1  1  0  0  0  0
  5  4  1  0  0  0  0
  9  4  1  0  0  0  0
  9  8  2  0  0  0  0
 10  9  1  0  0  0  0
 11 10  1  0  0  0  0
 12 10  2  0  0  0  0
 12 18  1  0  0  0  0
 13 15  1  0  0  0  0
 13 12  1  0  0  0  0
 14 13  1  0  0  0  0
 15 16  2  0  0  0  0
 16 18  1  0  0  0  0
 16 17  1  0  0  0  0
 18 19  2  0  0  0  0
 19  8  1  0  0  0  0
 20  1  1  0  0  0  0
 20 21  2  0  0  0  0
 22 27  1  0  0  0  0
 23 24  1  0  0  0  0
 23 22  2  0  0  0  0
 24 25  2  0  0  0  0
 25 26  1  0  0  0  0
 26 20  1  0  0  0  0
 27 26  2  0  0  0  0
 28 22  1  0  0  0  0
 29 23  1  0  0  0  0
 30 24  1  0  0  0  0
M  END
>  <minimizedAffinity>
-5.77400637

>  <minimizedRMSD>
3.19342279

$$$$
