
 OpenBabel03272505343D

 38 41  0  0  1  0  0  0  0  0999 V2000
   36.8620   31.0900   49.0640 C   0  0  0  0  0  0  0  0  0  0  0  0
   37.1110   32.2810   49.7480 C   0  0  0  0  0  0  0  0  0  0  0  0
   37.9680   33.2240   49.1620 C   0  0  0  0  0  0  0  0  0  0  0  0
   38.5100   32.9110   47.9430 N   0  0  0  0  0  0  0  0  0  0  0  0
   38.2400   31.7490   47.3210 C   0  0  0  0  0  0  0  0  0  0  0  0
   37.4280   30.8490   47.8710 N   0  0  0  0  0  0  0  0  0  0  0  0
   38.8610   31.5380   46.0600 N   0  0  0  0  0  0  0  0  0  0  0  0
   40.1650   30.8840   46.0030 C   0  0  0  0  0  0  0  0  0  0  0  0
   41.0870   31.5660   45.0210 C   0  0  0  0  0  0  0  0  0  0  0  0
   40.4440   31.8560   43.7700 N   0  0  0  0  0  0  0  0  0  0  0  0
   39.0860   31.3970   43.6770 C   0  0  0  0  0  0  0  0  0  0  0  0
   38.2390   31.9520   44.8160 C   0  0  1  0  0  0  0  0  0  0  0  0
   36.6550   32.4910   50.7250 H   0  0  0  0  0  0  0  0  0  0  0  0
   38.2010   34.1530   49.6300 H   0  0  0  0  0  0  0  0  0  0  0  0
   39.9950   29.8520   45.6330 H   0  0  0  0  0  0  0  0  0  0  0  0
   40.6450   30.8370   46.9870 H   0  0  0  0  0  0  0  0  0  0  0  0
   41.9090   30.8460   44.8090 H   0  0  0  0  0  0  0  0  0  0  0  0
   41.5560   32.4880   45.4240 H   0  0  0  0  0  0  0  0  0  0  0  0
   40.9510   31.5180   42.9360 H   0  0  0  0  0  0  0  0  0  0  0  0
   39.0190   30.3070   43.7520 H   0  0  0  0  0  0  0  0  0  0  0  0
   38.6600   31.8210   42.7440 H   0  0  0  0  0  0  0  0  0  0  0  0
   38.1950   33.0630   44.7480 H   0  0  0  0  0  0  0  0  0  0  0  0
   36.4430   30.3410   45.4340 C   0  0  0  0  0  3  0  0  0  0  0  0
   36.8790   31.3830   44.6290 C   0  0  0  0  0  0  0  0  0  0  0  0
   36.0490   31.8900   43.6500 C   0  0  0  0  0  0  0  0  0  0  0  0
   36.3430   32.7060   42.9920 H   0  0  0  0  0  0  0  0  0  0  0  0
   34.7840   31.3670   43.4690 C   0  0  0  0  0  0  0  0  0  0  0  0
   33.7220   31.5740   42.6630 N   0  0  0  0  0  0  0  0  0  0  0  0
   33.7100   32.3150   41.9090 H   0  0  0  0  0  0  0  0  0  0  0  0
   32.7340   30.7460   42.9450 N   0  0  0  0  0  0  0  0  0  0  0  0
   33.0700   29.9230   43.9630 C   0  0  0  0  0  0  0  0  0  0  0  0
   32.4870   29.1480   44.4170 H   0  0  0  0  0  0  0  0  0  0  0  0
   34.3530   30.3250   44.2770 C   0  0  0  0  0  0  0  0  0  0  0  0
   35.1810   29.8030   45.2680 C   0  0  0  0  0  3  0  0  0  0  0  0
   35.9520   30.0840   49.6830 C   0  0  0  0  0  0  0  0  0  0  0  0
   34.6560   30.5970   49.7400 F   0  0  0  0  0  0  0  0  0  0  0  0
   36.0620   28.9290   48.9980 F   0  0  0  0  0  0  0  0  0  0  0  0
   36.3610   29.9520   51.0220 F   0  0  0  0  0  0  0  0  0  0  0  0
  1 35  1  0  0  0  0
  1  2  1  0  0  0  0
  2 13  1  0  0  0  0
  3 14  1  0  0  0  0
  3  2  2  0  0  0  0
  4  3  1  0  0  0  0
  5  6  1  0  0  0  0
  5  4  2  0  0  0  0
  6  1  2  0  0  0  0
  7  5  1  0  0  0  0
  8  7  1  0  0  0  0
  8 16  1  0  0  0  0
  9 18  1  0  0  0  0
  9  8  1  0  0  0  0
 10  9  1  0  0  0  0
 11 20  1  0  0  0  0
 11 10  1  0  0  0  0
 11 12  1  0  0  0  0
 12 22  1  6  0  0  0
 12  7  1  0  0  0  0
 15  8  1  0  0  0  0
 17  9  1  0  0  0  0
 19 10  1  0  0  0  0
 21 11  1  0  0  0  0
 24 12  1  0  0  0  0
 24 23  2  0  0  0  0
 25 24  1  0  0  0  0
 26 25  1  0  0  0  0
 27 25  2  0  0  0  0
 27 33  1  0  0  0  0
 28 30  1  0  0  0  0
 28 27  1  0  0  0  0
 29 28  1  0  0  0  0
 30 31  2  0  0  0  0
 31 33  1  0  0  0  0
 31 32  1  0  0  0  0
 33 34  2  0  0  0  0
 34 23  1  0  0  0  0
 35 36  1  0  0  0  0
 35 38  1  0  0  0  0
 37 35  1  0  0  0  0
M  END
>  <minimizedAffinity>
-6.21626997

>  <minimizedRMSD>
0.678630412

$$$$
