
 OpenBabel03272508433D

 30 33  0  0  0  0  0  0  0  0999 V2000
   34.8160   28.7430   48.8300 C   0  0  0  0  0  0  0  0  0  0  0  0
   35.4040   28.7250   50.0890 C   0  0  0  0  0  0  0  0  0  0  0  0
   36.4990   29.5740   49.9430 C   0  0  0  0  0  0  0  0  0  0  0  0
   36.5260   30.0510   48.6560 C   0  0  0  0  0  0  0  0  0  0  0  0
   35.5000   29.5290   48.0160 O   0  0  0  0  0  0  0  0  0  0  0  0
   35.0730   28.1800   50.9430 H   0  0  0  0  0  0  0  0  0  0  0  0
   37.2100   29.8140   50.7280 H   0  0  0  0  0  0  0  0  0  0  0  0
   38.0000   32.0030   48.8470 C   0  0  0  0  0  3  0  0  0  0  0  0
   37.5010   30.9670   48.0760 C   0  0  0  0  0  0  0  0  0  0  0  0
   37.9050   30.7780   46.7600 C   0  0  0  0  0  0  0  0  0  0  0  0
   37.5110   29.9620   46.1560 H   0  0  0  0  0  0  0  0  0  0  0  0
   38.8320   31.6360   46.1850 C   0  0  0  0  0  0  0  0  0  0  0  0
   39.4130   31.7230   44.9750 N   0  0  0  0  0  0  0  0  0  0  0  0
   39.1960   31.0410   44.2010 H   0  0  0  0  0  0  0  0  0  0  0  0
   40.2320   32.7690   45.0060 N   0  0  0  0  0  0  0  0  0  0  0  0
   40.1860   33.3550   46.2180 C   0  0  0  0  0  0  0  0  0  0  0  0
   40.7660   34.2280   46.4940 H   0  0  0  0  0  0  0  0  0  0  0  0
   39.2920   32.6480   47.0040 C   0  0  0  0  0  0  0  0  0  0  0  0
   38.9370   32.8940   48.3090 C   0  0  0  0  0  3  0  0  0  0  0  0
   33.6150   27.9900   48.4850 C   0  0  0  0  0  0  0  0  0  0  0  0
   32.6410   28.0420   49.2540 O   0  0  0  0  0  0  0  0  0  0  0  0
   33.0720   27.1210   44.9860 C   0  0  0  0  0  0  0  0  0  0  0  0
   33.5190   25.8070   44.9070 C   0  0  0  0  0  0  0  0  0  0  0  0
   34.0120   25.1990   46.0450 C   0  0  0  0  0  0  0  0  0  0  0  0
   34.0360   25.9160   47.1910 N   0  0  0  0  0  0  0  0  0  0  0  0
   33.5950   27.2020   47.2520 C   0  0  0  0  0  0  0  0  0  0  0  0
   33.1150   27.7930   46.1410 N   0  0  0  0  0  0  0  0  0  0  0  0
   32.6840   27.6090   44.1000 H   0  0  0  0  0  0  0  0  0  0  0  0
   33.4810   25.2680   43.9650 H   0  0  0  0  0  0  0  0  0  0  0  0
   34.3700   24.1890   46.0430 H   0  0  0  0  0  0  0  0  0  0  0  0
  1  2  2  0  0  0  0
  2  6  1  0  0  0  0
  3  2  1  0  0  0  0
  3  7  1  0  0  0  0
  4  3  2  0  0  0  0
  5  4  1  0  0  0  0
  5  1  1  0  0  0  0
  9  4  1  0  0  0  0
  9  8  2  0  0  0  0
 10  9  1  0  0  0  0
 11 10  1  0  0  0  0
 12 10  2  0  0  0  0
 12 18  1  0  0  0  0
 13 15  1  0  0  0  0
 13 12  1  0  0  0  0
 14 13  1  0  0  0  0
 15 16  2  0  0  0  0
 16 17  1  0  0  0  0
 16 18  1  0  0  0  0
 18 19  2  0  0  0  0
 19  8  1  0  0  0  0
 20  1  1  0  0  0  0
 20 21  2  0  0  0  0
 22 27  1  0  0  0  0
 23 22  2  0  0  0  0
 23 24  1  0  0  0  0
 24 25  2  0  0  0  0
 25 26  1  0  0  0  0
 26 20  1  0  0  0  0
 27 26  2  0  0  0  0
 28 22  1  0  0  0  0
 29 23  1  0  0  0  0
 30 24  1  0  0  0  0
M  END
>  <minimizedAffinity>
-5.82824421

>  <minimizedRMSD>
3.7624476

$$$$
