
 OpenBabel03272509063D

 43 47  0  0  0  0  0  0  0  0999 V2000
   33.6070   26.9930   46.8570 C   0  0  0  0  0  0  0  0  0  0  0  0
   33.7820   25.6780   47.2830 C   0  0  0  0  0  0  0  0  0  0  0  0
   34.1760   24.6970   46.4140 C   0  0  0  0  0  0  0  0  0  0  0  0
   34.4120   24.9760   45.0890 C   0  0  0  0  0  0  0  0  0  0  0  0
   34.2430   26.2720   44.6590 C   0  0  0  0  0  0  0  0  0  0  0  0
   33.8440   27.2840   45.5220 C   0  0  0  0  0  0  0  0  0  0  0  0
   33.5730   25.5570   48.3360 H   0  0  0  0  0  0  0  0  0  0  0  0
   34.2600   23.7500   46.9100 H   0  0  0  0  0  0  0  0  0  0  0  0
   34.7190   24.1400   44.4820 H   0  0  0  0  0  0  0  0  0  0  0  0
   34.4600   26.3620   43.5920 H   0  0  0  0  0  0  0  0  0  0  0  0
   32.7520   29.1440   44.1280 C   0  0  0  0  0  3  0  0  0  0  0  0
   33.7690   28.5400   44.7970 C   0  0  0  0  0  0  0  0  0  0  0  0
   34.9730   29.2590   44.7490 C   0  0  0  0  0  0  0  0  0  0  0  0
   35.8780   28.8850   45.2500 H   0  0  0  0  0  0  0  0  0  0  0  0
   35.1700   30.4620   44.1040 C   0  0  0  0  0  0  0  0  0  0  0  0
   36.2070   31.2870   43.9410 N   0  0  0  0  0  0  0  0  0  0  0  0
   37.1690   31.1440   44.3250 H   0  0  0  0  0  0  0  0  0  0  0  0
   35.7980   32.3130   43.2120 N   0  0  0  0  0  0  0  0  0  0  0  0
   34.4990   32.1970   42.8770 C   0  0  0  0  0  0  0  0  0  0  0  0
   33.8650   32.8510   42.2960 H   0  0  0  0  0  0  0  0  0  0  0  0
   34.0960   31.0200   43.4440 C   0  0  0  0  0  0  0  0  0  0  0  0
   32.8960   30.3420   43.4690 C   0  0  0  0  0  3  0  0  0  0  0  0
   33.1750   28.1220   47.7250 C   0  0  0  0  0  0  0  0  0  0  0  0
   32.5330   27.6570   48.5240 H   0  0  0  0  0  0  0  0  0  0  0  0
   32.5150   28.7860   47.1740 H   0  0  0  0  0  0  0  0  0  0  0  0
   34.9910   28.4260   49.4310 C   0  0  0  0  0  3  0  0  0  0  0  0
   34.2840   28.8220   48.4020 C   0  0  0  0  0  3  0  0  0  0  0  0
   37.3900   30.1660   51.5630 C   0  0  0  0  0  0  0  0  0  0  0  0
   38.0980   30.9380   50.6230 C   0  0  0  0  0  0  0  0  0  0  0  0
   37.7250   30.8420   49.2750 C   0  0  0  0  0  0  0  0  0  0  0  0
   36.6880   29.9990   48.9490 N   0  0  0  0  0  0  0  0  0  0  0  0
   36.0530   29.2860   49.9100 C   0  0  0  0  0  0  0  0  0  0  0  0
   36.3890   29.3620   51.1890 N   0  0  0  0  0  0  0  0  0  0  0  0
   37.6600   30.2260   52.5990 H   0  0  0  0  0  0  0  0  0  0  0  0
   38.8990   31.5840   50.8930 H   0  0  0  0  0  0  0  0  0  0  0  0
   38.3870   31.6010   48.2120 C   0  0  0  0  0  0  0  0  0  0  0  0
   38.6040   31.0830   46.9560 C   0  0  0  0  0  0  0  0  0  0  0  0
   39.2540   32.0750   46.2060 C   0  0  0  0  0  0  0  0  0  0  0  0
   39.4000   33.1380   47.0340 N   0  0  0  0  0  0  0  0  0  0  0  0
   38.8830   32.8490   48.2230 N   0  0  0  0  0  0  0  0  0  0  0  0
   38.3440   30.1090   46.5710 H   0  0  0  0  0  0  0  0  0  0  0  0
   39.5570   31.9630   45.1720 H   0  0  0  0  0  0  0  0  0  0  0  0
   39.8550   34.0130   46.7230 H   0  0  0  0  0  0  0  0  0  0  0  0
  1  2  1  0  0  0  0
  1 23  1  0  0  0  0
  2  7  1  0  0  0  0
  3  8  1  0  0  0  0
  3  2  2  0  0  0  0
  4  3  1  0  0  0  0
  5  4  2  0  0  0  0
  5  6  1  0  0  0  0
  6  1  2  0  0  0  0
  9  4  1  0  0  0  0
 10  5  1  0  0  0  0
 11 12  1  0  0  0  0
 12  6  1  0  0  0  0
 13 12  2  0  0  0  0
 13 14  1  0  0  0  0
 15 13  1  0  0  0  0
 16 15  1  0  0  0  0
 16 17  1  0  0  0  0
 18 16  1  0  0  0  0
 19 18  2  0  0  0  0
 19 21  1  0  0  0  0
 20 19  1  0  0  0  0
 21 22  1  0  0  0  0
 21 15  2  0  0  0  0
 22 11  2  0  0  0  0
 23 27  1  0  0  0  0
 23 24  1  0  0  0  0
 25 23  1  0  0  0  0
 26 32  1  0  0  0  0
 27 26  2  0  0  0  0
 28 34  1  0  0  0  0
 29 35  1  0  0  0  0
 29 28  2  0  0  0  0
 30 29  1  0  0  0  0
 31 30  2  0  0  0  0
 31 32  1  0  0  0  0
 32 33  2  0  0  0  0
 33 28  1  0  0  0  0
 36 40  2  0  0  0  0
 36 30  1  0  0  0  0
 37 36  1  0  0  0  0
 38 37  2  0  0  0  0
 38 39  1  0  0  0  0
 39 40  1  0  0  0  0
 41 37  1  0  0  0  0
 42 38  1  0  0  0  0
 43 39  1  0  0  0  0
M  END
>  <minimizedAffinity>
-6.76197767

>  <minimizedRMSD>
0.273596346

$$$$
