
 OpenBabel03272509063D

 43 47  0  0  0  0  0  0  0  0999 V2000
   33.6040   26.9950   46.8600 C   0  0  0  0  0  0  0  0  0  0  0  0
   33.7780   25.6800   47.2860 C   0  0  0  0  0  0  0  0  0  0  0  0
   34.1720   24.6990   46.4180 C   0  0  0  0  0  0  0  0  0  0  0  0
   34.4100   24.9770   45.0920 C   0  0  0  0  0  0  0  0  0  0  0  0
   34.2410   26.2730   44.6620 C   0  0  0  0  0  0  0  0  0  0  0  0
   33.8420   27.2850   45.5240 C   0  0  0  0  0  0  0  0  0  0  0  0
   33.5680   25.5600   48.3390 H   0  0  0  0  0  0  0  0  0  0  0  0
   34.2550   23.7520   46.9140 H   0  0  0  0  0  0  0  0  0  0  0  0
   34.7170   24.1410   44.4860 H   0  0  0  0  0  0  0  0  0  0  0  0
   34.4590   26.3620   43.5950 H   0  0  0  0  0  0  0  0  0  0  0  0
   32.7510   29.1460   44.1290 C   0  0  0  0  0  3  0  0  0  0  0  0
   33.7680   28.5410   44.7990 C   0  0  0  0  0  0  0  0  0  0  0  0
   34.9720   29.2600   44.7500 C   0  0  0  0  0  0  0  0  0  0  0  0
   35.8770   28.8860   45.2510 H   0  0  0  0  0  0  0  0  0  0  0  0
   35.1710   30.4620   44.1050 C   0  0  0  0  0  0  0  0  0  0  0  0
   36.2080   31.2870   43.9420 N   0  0  0  0  0  0  0  0  0  0  0  0
   37.1700   31.1420   44.3260 H   0  0  0  0  0  0  0  0  0  0  0  0
   35.8000   32.3120   43.2130 N   0  0  0  0  0  0  0  0  0  0  0  0
   34.5010   32.1970   42.8770 C   0  0  0  0  0  0  0  0  0  0  0  0
   33.8670   32.8520   42.2950 H   0  0  0  0  0  0  0  0  0  0  0  0
   34.0970   31.0190   43.4450 C   0  0  0  0  0  0  0  0  0  0  0  0
   32.8970   30.3430   43.4700 C   0  0  0  0  0  3  0  0  0  0  0  0
   33.1720   28.1250   47.7260 C   0  0  0  0  0  0  0  0  0  0  0  0
   32.5300   27.6600   48.5250 H   0  0  0  0  0  0  0  0  0  0  0  0
   32.5130   28.7880   47.1740 H   0  0  0  0  0  0  0  0  0  0  0  0
   34.9950   28.4230   49.4260 C   0  0  0  0  0  3  0  0  0  0  0  0
   34.2810   28.8250   48.4040 C   0  0  0  0  0  3  0  0  0  0  0  0
   37.3880   30.1670   51.5620 C   0  0  0  0  0  0  0  0  0  0  0  0
   38.0960   30.9400   50.6240 C   0  0  0  0  0  0  0  0  0  0  0  0
   37.7260   30.8440   49.2740 C   0  0  0  0  0  0  0  0  0  0  0  0
   36.6910   29.9990   48.9470 N   0  0  0  0  0  0  0  0  0  0  0  0
   36.0550   29.2850   49.9060 C   0  0  0  0  0  0  0  0  0  0  0  0
   36.3890   29.3610   51.1860 N   0  0  0  0  0  0  0  0  0  0  0  0
   37.6560   30.2260   52.5980 H   0  0  0  0  0  0  0  0  0  0  0  0
   38.8960   31.5870   50.8950 H   0  0  0  0  0  0  0  0  0  0  0  0
   38.3890   31.6030   48.2130 C   0  0  0  0  0  0  0  0  0  0  0  0
   38.6080   31.0870   46.9570 C   0  0  0  0  0  0  0  0  0  0  0  0
   39.2580   32.0800   46.2080 C   0  0  0  0  0  0  0  0  0  0  0  0
   39.4010   33.1420   47.0370 N   0  0  0  0  0  0  0  0  0  0  0  0
   38.8830   32.8530   48.2250 N   0  0  0  0  0  0  0  0  0  0  0  0
   38.3500   30.1130   46.5710 H   0  0  0  0  0  0  0  0  0  0  0  0
   39.5630   31.9690   45.1740 H   0  0  0  0  0  0  0  0  0  0  0  0
   39.8550   34.0180   46.7270 H   0  0  0  0  0  0  0  0  0  0  0  0
  1  2  1  0  0  0  0
  1 23  1  0  0  0  0
  2  7  1  0  0  0  0
  3  8  1  0  0  0  0
  3  2  2  0  0  0  0
  4  3  1  0  0  0  0
  5  4  2  0  0  0  0
  5  6  1  0  0  0  0
  6  1  2  0  0  0  0
  9  4  1  0  0  0  0
 10  5  1  0  0  0  0
 11 12  1  0  0  0  0
 12  6  1  0  0  0  0
 13 12  2  0  0  0  0
 13 14  1  0  0  0  0
 15 13  1  0  0  0  0
 16 15  1  0  0  0  0
 16 17  1  0  0  0  0
 18 16  1  0  0  0  0
 19 18  2  0  0  0  0
 19 21  1  0  0  0  0
 20 19  1  0  0  0  0
 21 22  1  0  0  0  0
 21 15  2  0  0  0  0
 22 11  2  0  0  0  0
 23 27  1  0  0  0  0
 23 24  1  0  0  0  0
 25 23  1  0  0  0  0
 26 32  1  0  0  0  0
 27 26  2  0  0  0  0
 28 34  1  0  0  0  0
 29 35  1  0  0  0  0
 29 28  2  0  0  0  0
 30 29  1  0  0  0  0
 31 30  2  0  0  0  0
 31 32  1  0  0  0  0
 32 33  2  0  0  0  0
 33 28  1  0  0  0  0
 36 40  2  0  0  0  0
 36 30  1  0  0  0  0
 37 36  1  0  0  0  0
 38 37  2  0  0  0  0
 38 39  1  0  0  0  0
 39 40  1  0  0  0  0
 41 37  1  0  0  0  0
 42 38  1  0  0  0  0
 43 39  1  0  0  0  0
M  END
>  <minimizedAffinity>
-6.76189566

>  <minimizedRMSD>
0.0874251649

$$$$
