
 OpenBabel03272509063D

 43 47  0  0  0  0  0  0  0  0999 V2000
   33.4900   26.9550   47.0250 C   0  0  0  0  0  0  0  0  0  0  0  0
   33.5180   25.6220   47.4300 C   0  0  0  0  0  0  0  0  0  0  0  0
   33.9030   24.6280   46.5720 C   0  0  0  0  0  0  0  0  0  0  0  0
   34.2730   24.9100   45.2780 C   0  0  0  0  0  0  0  0  0  0  0  0
   34.2480   26.2230   44.8700 C   0  0  0  0  0  0  0  0  0  0  0  0
   33.8620   27.2490   45.7210 C   0  0  0  0  0  0  0  0  0  0  0  0
   33.2110   25.5000   48.4580 H   0  0  0  0  0  0  0  0  0  0  0  0
   33.8650   23.6680   47.0500 H   0  0  0  0  0  0  0  0  0  0  0  0
   34.5600   24.0620   44.6790 H   0  0  0  0  0  0  0  0  0  0  0  0
   34.5630   26.3140   43.8260 H   0  0  0  0  0  0  0  0  0  0  0  0
   34.9860   29.3880   44.8490 C   0  0  0  0  0  3  0  0  0  0  0  0
   33.9540   28.5200   45.0260 C   0  0  0  0  0  0  0  0  0  0  0  0
   32.7520   28.9600   44.4480 C   0  0  0  0  0  0  0  0  0  0  0  0
   31.8360   28.3550   44.5150 H   0  0  0  0  0  0  0  0  0  0  0  0
   32.5700   30.1400   43.7590 C   0  0  0  0  0  0  0  0  0  0  0  0
   31.5390   30.7290   43.1490 N   0  0  0  0  0  0  0  0  0  0  0  0
   30.5680   30.3440   43.0820 H   0  0  0  0  0  0  0  0  0  0  0  0
   31.9650   31.8770   42.6510 N   0  0  0  0  0  0  0  0  0  0  0  0
   33.2710   32.0780   42.9120 C   0  0  0  0  0  0  0  0  0  0  0  0
   33.9180   32.9030   42.6500 H   0  0  0  0  0  0  0  0  0  0  0  0
   33.6590   30.9730   43.6170 C   0  0  0  0  0  0  0  0  0  0  0  0
   34.8570   30.5760   44.1710 C   0  0  0  0  0  3  0  0  0  0  0  0
   33.0800   28.1010   47.8820 C   0  0  0  0  0  0  0  0  0  0  0  0
   32.4520   27.6520   48.7000 H   0  0  0  0  0  0  0  0  0  0  0  0
   32.4140   28.7580   47.3330 H   0  0  0  0  0  0  0  0  0  0  0  0
   35.0080   28.3730   49.4670 C   0  0  0  0  0  3  0  0  0  0  0  0
   34.2060   28.8050   48.5260 C   0  0  0  0  0  3  0  0  0  0  0  0
   37.3980   30.1640   51.5650 C   0  0  0  0  0  0  0  0  0  0  0  0
   38.0960   30.9290   50.6120 C   0  0  0  0  0  0  0  0  0  0  0  0
   37.7190   30.8110   49.2660 C   0  0  0  0  0  0  0  0  0  0  0  0
   36.6880   29.9540   48.9560 N   0  0  0  0  0  0  0  0  0  0  0  0
   36.0630   29.2490   49.9300 C   0  0  0  0  0  0  0  0  0  0  0  0
   36.4030   29.3460   51.2070 N   0  0  0  0  0  0  0  0  0  0  0  0
   37.6720   30.2410   52.5990 H   0  0  0  0  0  0  0  0  0  0  0  0
   38.8920   31.5860   50.8700 H   0  0  0  0  0  0  0  0  0  0  0  0
   38.3710   31.5600   48.1910 C   0  0  0  0  0  0  0  0  0  0  0  0
   38.5560   31.0400   46.9310 C   0  0  0  0  0  0  0  0  0  0  0  0
   39.2040   32.0230   46.1670 C   0  0  0  0  0  0  0  0  0  0  0  0
   39.3800   33.0830   46.9920 N   0  0  0  0  0  0  0  0  0  0  0  0
   38.8830   32.8020   48.1910 N   0  0  0  0  0  0  0  0  0  0  0  0
   38.2760   30.0690   46.5510 H   0  0  0  0  0  0  0  0  0  0  0  0
   39.4860   31.9060   45.1280 H   0  0  0  0  0  0  0  0  0  0  0  0
   39.8410   33.9520   46.6710 H   0  0  0  0  0  0  0  0  0  0  0  0
  1  2  1  0  0  0  0
  1 23  1  0  0  0  0
  2  7  1  0  0  0  0
  3  8  1  0  0  0  0
  3  2  2  0  0  0  0
  4  3  1  0  0  0  0
  5  4  2  0  0  0  0
  5  6  1  0  0  0  0
  6  1  2  0  0  0  0
  9  4  1  0  0  0  0
 10  5  1  0  0  0  0
 11 12  1  0  0  0  0
 12  6  1  0  0  0  0
 13 14  1  0  0  0  0
 13 12  2  0  0  0  0
 15 13  1  0  0  0  0
 16 15  1  0  0  0  0
 17 16  1  0  0  0  0
 18 19  2  0  0  0  0
 18 16  1  0  0  0  0
 19 21  1  0  0  0  0
 20 19  1  0  0  0  0
 21 15  2  0  0  0  0
 21 22  1  0  0  0  0
 22 11  2  0  0  0  0
 23 27  1  0  0  0  0
 23 24  1  0  0  0  0
 25 23  1  0  0  0  0
 26 32  1  0  0  0  0
 27 26  2  0  0  0  0
 28 34  1  0  0  0  0
 29 35  1  0  0  0  0
 29 28  2  0  0  0  0
 30 29  1  0  0  0  0
 31 30  2  0  0  0  0
 31 32  1  0  0  0  0
 32 33  2  0  0  0  0
 33 28  1  0  0  0  0
 36 30  1  0  0  0  0
 37 36  1  0  0  0  0
 38 37  2  0  0  0  0
 38 39  1  0  0  0  0
 39 40  1  0  0  0  0
 40 36  2  0  0  0  0
 41 37  1  0  0  0  0
 42 38  1  0  0  0  0
 43 39  1  0  0  0  0
M  END
>  <minimizedAffinity>
-6.61719656

>  <minimizedRMSD>
0.426709533

$$$$
