
 OpenBabel03262523493D

 41 45  0  0  0  0  0  0  0  0999 V2000
   38.5060   27.1420   34.2860 Cl  0  0  0  0  0  0  0  0  0  0  0  0
   37.5480   26.1270   33.2050 C   0  0  0  0  0  0  0  0  0  0  0  0
   36.6400   26.8050   32.4190 C   0  0  0  0  0  0  0  0  0  0  0  0
   35.8330   26.0930   31.5290 C   0  0  0  0  0  0  0  0  0  0  0  0
   35.9350   24.7090   31.4290 C   0  0  0  0  0  0  0  0  0  0  0  0
   36.8640   24.0690   32.2410 C   0  0  0  0  0  0  0  0  0  0  0  0
   37.6760   24.7710   33.1340 C   0  0  0  0  0  0  0  0  0  0  0  0
   35.1030   26.5660   30.8860 H   0  0  0  0  0  0  0  0  0  0  0  0
   35.3020   24.1670   30.7340 H   0  0  0  0  0  0  0  0  0  0  0  0
   36.9480   23.0020   32.1710 H   0  0  0  0  0  0  0  0  0  0  0  0
   39.9310   23.9310   33.4520 C   0  0  0  0  0  3  0  0  0  0  0  0
   38.6490   24.1060   33.9880 C   0  0  0  0  0  0  0  0  0  0  0  0
   38.4360   23.6290   35.2650 C   0  0  0  0  0  0  0  0  0  0  0  0
   37.4420   23.7720   35.6630 H   0  0  0  0  0  0  0  0  0  0  0  0
   39.4420   23.0120   35.9820 C   0  0  0  0  0  0  0  0  0  0  0  0
   39.3950   22.4930   37.2380 N   0  0  0  0  0  0  0  0  0  0  0  0
   38.5450   22.4930   37.8650 H   0  0  0  0  0  0  0  0  0  0  0  0
   40.6060   22.0120   37.4830 N   0  0  0  0  0  0  0  0  0  0  0  0
   41.4180   22.2080   36.4210 C   0  0  0  0  0  0  0  0  0  0  0  0
   42.4670   21.9220   36.3240 H   0  0  0  0  0  0  0  0  0  0  0  0
   40.6930   22.8590   35.4200 C   0  0  0  0  0  0  0  0  0  0  0  0
   40.9540   23.3140   34.1550 C   0  0  0  0  0  3  0  0  0  0  0  0
   35.5550   32.6660   32.6020 Cl  0  0  0  0  0  0  0  0  0  0  0  0
   35.8710   30.9500   32.5530 C   0  0  0  0  0  0  0  0  0  0  0  0
   35.5230   30.1340   33.6040 C   0  0  0  0  0  0  0  0  0  0  0  0
   35.7970   28.7880   33.5060 C   0  0  0  0  0  0  0  0  0  0  0  0
   36.4040   28.2500   32.3970 C   0  0  0  0  0  0  0  0  0  0  0  0
   36.7470   29.0990   31.3440 C   0  0  0  0  0  0  0  0  0  0  0  0
   37.5130   28.3580   29.9670 Cl  0  0  0  0  0  0  0  0  0  0  0  0
   36.4870   30.4460   31.4110 C   0  0  0  0  0  0  0  0  0  0  0  0
   35.5140   28.1670   34.3450 H   0  0  0  0  0  0  0  0  0  0  0  0
   36.7660   31.0750   30.5800 H   0  0  0  0  0  0  0  0  0  0  0  0
   34.9500   31.9820   36.8690 C   0  0  0  0  0  0  0  0  0  0  0  0
   35.6140   31.3740   35.7870 C   0  0  0  0  0  0  0  0  0  0  0  0
   34.8740   30.7860   34.7620 C   0  0  0  0  0  0  0  0  0  0  0  0
   33.5120   30.8350   34.8710 N   0  0  0  0  0  0  0  0  0  0  0  0
   32.9190   31.4280   35.9260 C   0  0  0  0  0  0  0  0  0  0  0  0
   33.6160   31.9870   36.8990 N   0  0  0  0  0  0  0  0  0  0  0  0
   35.5430   32.4310   37.6510 H   0  0  0  0  0  0  0  0  0  0  0  0
   36.6950   31.3420   35.7130 H   0  0  0  0  0  0  0  0  0  0  0  0
   31.8400   31.3520   35.8090 H   0  0  0  0  0  0  0  0  0  0  0  0
  2  1  1  0  0  0  0
  3  2  2  0  0  0  0
  4  3  1  0  0  0  0
  5  4  2  0  0  0  0
  5  6  1  0  0  0  0
  6  7  2  0  0  0  0
  7  2  1  0  0  0  0
  7 12  1  0  0  0  0
  8  4  1  0  0  0  0
  9  5  1  0  0  0  0
 10  6  1  0  0  0  0
 11 12  2  0  0  0  0
 11 22  1  0  0  0  0
 12 13  1  0  0  0  0
 13 14  1  0  0  0  0
 13 15  2  0  0  0  0
 15 16  1  0  0  0  0
 16 18  1  0  0  0  0
 16 17  1  0  0  0  0
 19 18  2  0  0  0  0
 20 19  1  0  0  0  0
 21 15  1  0  0  0  0
 21 19  1  0  0  0  0
 22 21  2  0  0  0  0
 24 23  1  0  0  0  0
 24 25  1  0  0  0  0
 25 35  1  0  0  0  0
 26 25  2  0  0  0  0
 26 31  1  0  0  0  0
 27  3  1  0  0  0  0
 27 26  1  0  0  0  0
 28 30  1  0  0  0  0
 28 27  2  0  0  0  0
 29 28  1  0  0  0  0
 30 24  2  0  0  0  0
 32 30  1  0  0  0  0
 33 38  1  0  0  0  0
 33 39  1  0  0  0  0
 34 33  2  0  0  0  0
 35 36  2  0  0  0  0
 35 34  1  0  0  0  0
 36 37  1  0  0  0  0
 37 38  2  0  0  0  0
 40 34  1  0  0  0  0
 41 37  1  0  0  0  0
M  END
>  <minimizedAffinity>
-7.16703796

$$$$

 OpenBabel03262523493D

 41 45  0  0  0  0  0  0  0  0999 V2000
   35.8170   25.0270   31.7800 Cl  0  0  0  0  0  0  0  0  0  0  0  0
   37.3160   25.0180   32.7130 C   0  0  0  0  0  0  0  0  0  0  0  0
   37.7940   26.2630   33.0630 C   0  0  0  0  0  0  0  0  0  0  0  0
   38.9740   26.3650   33.8020 C   0  0  0  0  0  0  0  0  0  0  0  0
   39.6710   25.2240   34.1870 C   0  0  0  0  0  0  0  0  0  0  0  0
   39.1530   23.9910   33.8100 C   0  0  0  0  0  0  0  0  0  0  0  0
   37.9730   23.8770   33.0720 C   0  0  0  0  0  0  0  0  0  0  0  0
   39.3990   27.3110   34.1080 H   0  0  0  0  0  0  0  0  0  0  0  0
   40.5880   25.3160   34.7600 H   0  0  0  0  0  0  0  0  0  0  0  0
   39.6850   23.1070   34.1020 H   0  0  0  0  0  0  0  0  0  0  0  0
   37.6960   22.1750   31.3650 C   0  0  0  0  0  3  0  0  0  0  0  0
   37.4250   22.5890   32.6740 C   0  0  0  0  0  0  0  0  0  0  0  0
   36.6670   21.7400   33.4540 C   0  0  0  0  0  0  0  0  0  0  0  0
   36.4680   22.0750   34.4620 H   0  0  0  0  0  0  0  0  0  0  0  0
   36.2000   20.5360   32.9650 C   0  0  0  0  0  0  0  0  0  0  0  0
   35.4490   19.5960   33.5980 N   0  0  0  0  0  0  0  0  0  0  0  0
   35.1060   19.6610   34.5950 H   0  0  0  0  0  0  0  0  0  0  0  0
   35.2560   18.6240   32.7160 N   0  0  0  0  0  0  0  0  0  0  0  0
   35.8610   18.9200   31.5450 C   0  0  0  0  0  0  0  0  0  0  0  0
   35.8790   18.3170   30.6350 H   0  0  0  0  0  0  0  0  0  0  0  0
   36.4880   20.1620   31.6680 C   0  0  0  0  0  0  0  0  0  0  0  0
   37.2370   20.9710   30.8550 C   0  0  0  0  0  3  0  0  0  0  0  0
   35.2270   31.5500   32.0490 Cl  0  0  0  0  0  0  0  0  0  0  0  0
   35.9770   30.0020   32.3500 C   0  0  0  0  0  0  0  0  0  0  0  0
   35.9010   29.4060   33.5870 C   0  0  0  0  0  0  0  0  0  0  0  0
   36.5120   28.1840   33.7630 C   0  0  0  0  0  0  0  0  0  0  0  0
   37.1890   27.5570   32.7440 C   0  0  0  0  0  0  0  0  0  0  0  0
   37.2510   28.1830   31.4980 C   0  0  0  0  0  0  0  0  0  0  0  0
   38.1210   27.3400   30.2480 Cl  0  0  0  0  0  0  0  0  0  0  0  0
   36.6520   29.4020   31.2910 C   0  0  0  0  0  0  0  0  0  0  0  0
   36.4380   27.7360   34.7440 H   0  0  0  0  0  0  0  0  0  0  0  0
   36.7200   29.8600   30.3160 H   0  0  0  0  0  0  0  0  0  0  0  0
   35.0340   31.7240   36.4640 C   0  0  0  0  0  0  0  0  0  0  0  0
   35.7850   31.0490   35.4830 C   0  0  0  0  0  0  0  0  0  0  0  0
   35.1570   30.1410   34.6320 C   0  0  0  0  0  0  0  0  0  0  0  0
   33.8140   29.9540   34.8050 N   0  0  0  0  0  0  0  0  0  0  0  0
   33.1340   30.6230   35.7570 C   0  0  0  0  0  0  0  0  0  0  0  0
   33.7250   31.4840   36.5660 N   0  0  0  0  0  0  0  0  0  0  0  0
   35.5410   32.4230   37.1110 H   0  0  0  0  0  0  0  0  0  0  0  0
   36.8510   31.2080   35.3580 H   0  0  0  0  0  0  0  0  0  0  0  0
   32.0890   30.3240   35.7170 H   0  0  0  0  0  0  0  0  0  0  0  0
  1  2  1  0  0  0  0
  2  3  2  0  0  0  0
  2  7  1  0  0  0  0
  3  4  1  0  0  0  0
  4  8  1  0  0  0  0
  4  5  2  0  0  0  0
  5  9  1  0  0  0  0
  6 10  1  0  0  0  0
  6  5  1  0  0  0  0
  7  6  2  0  0  0  0
 11 12  1  0  0  0  0
 12  7  1  0  0  0  0
 12 13  2  0  0  0  0
 13 14  1  0  0  0  0
 15 13  1  0  0  0  0
 15 16  1  0  0  0  0
 16 17  1  0  0  0  0
 18 16  1  0  0  0  0
 19 21  1  0  0  0  0
 19 18  2  0  0  0  0
 20 19  1  0  0  0  0
 21 15  2  0  0  0  0
 22 11  2  0  0  0  0
 22 21  1  0  0  0  0
 23 24  1  0  0  0  0
 24 25  1  0  0  0  0
 25 26  2  0  0  0  0
 25 35  1  0  0  0  0
 26 31  1  0  0  0  0
 27  3  1  0  0  0  0
 27 26  1  0  0  0  0
 28 27  2  0  0  0  0
 29 28  1  0  0  0  0
 30 28  1  0  0  0  0
 30 24  2  0  0  0  0
 32 30  1  0  0  0  0
 33 38  1  0  0  0  0
 33 39  1  0  0  0  0
 34 33  2  0  0  0  0
 35 36  2  0  0  0  0
 35 34  1  0  0  0  0
 36 37  1  0  0  0  0
 37 38  2  0  0  0  0
 40 34  1  0  0  0  0
 41 37  1  0  0  0  0
M  END
>  <minimizedAffinity>
-6.96671581

$$$$

 OpenBabel03262523493D

 41 45  0  0  0  0  0  0  0  0999 V2000
   38.4990   27.2060   34.6480 Cl  0  0  0  0  0  0  0  0  0  0  0  0
   37.6640   26.1250   33.5280 C   0  0  0  0  0  0  0  0  0  0  0  0
   36.7810   26.7430   32.6700 C   0  0  0  0  0  0  0  0  0  0  0  0
   36.0690   25.9770   31.7440 C   0  0  0  0  0  0  0  0  0  0  0  0
   36.2430   24.5980   31.6820 C   0  0  0  0  0  0  0  0  0  0  0  0
   37.1430   24.0190   32.5680 C   0  0  0  0  0  0  0  0  0  0  0  0
   37.8600   24.7750   33.4970 C   0  0  0  0  0  0  0  0  0  0  0  0
   35.3640   26.4020   31.0430 H   0  0  0  0  0  0  0  0  0  0  0  0
   35.6840   24.0130   30.9580 H   0  0  0  0  0  0  0  0  0  0  0  0
   37.2820   22.9560   32.5270 H   0  0  0  0  0  0  0  0  0  0  0  0
   38.2690   23.6760   35.6210 C   0  0  0  0  0  3  0  0  0  0  0  0
   38.8030   24.1740   34.4270 C   0  0  0  0  0  0  0  0  0  0  0  0
   40.1670   24.0480   34.2530 C   0  0  0  0  0  0  0  0  0  0  0  0
   40.5630   24.4380   33.3260 H   0  0  0  0  0  0  0  0  0  0  0  0
   40.9640   23.4560   35.2120 C   0  0  0  0  0  0  0  0  0  0  0  0
   42.3090   23.2570   35.1930 N   0  0  0  0  0  0  0  0  0  0  0  0
   42.9550   23.5400   34.4070 H   0  0  0  0  0  0  0  0  0  0  0  0
   42.6080   22.6530   36.3350 N   0  0  0  0  0  0  0  0  0  0  0  0
   41.4950   22.4640   37.0770 C   0  0  0  0  0  0  0  0  0  0  0  0
   41.4230   21.9960   38.0600 H   0  0  0  0  0  0  0  0  0  0  0  0
   40.4000   22.9770   36.3760 C   0  0  0  0  0  0  0  0  0  0  0  0
   39.0520   23.0780   36.5960 C   0  0  0  0  0  3  0  0  0  0  0  0
   35.4330   32.5530   32.6590 Cl  0  0  0  0  0  0  0  0  0  0  0  0
   35.8260   30.8520   32.6660 C   0  0  0  0  0  0  0  0  0  0  0  0
   35.5140   30.0560   33.7440 C   0  0  0  0  0  0  0  0  0  0  0  0
   35.8480   28.7210   33.6900 C   0  0  0  0  0  0  0  0  0  0  0  0
   36.4800   28.1750   32.5990 C   0  0  0  0  0  0  0  0  0  0  0  0
   36.7860   29.0030   31.5190 C   0  0  0  0  0  0  0  0  0  0  0  0
   37.5850   28.2520   30.1660 Cl  0  0  0  0  0  0  0  0  0  0  0  0
   36.4640   30.3390   31.5410 C   0  0  0  0  0  0  0  0  0  0  0  0
   35.5930   28.1170   34.5500 H   0  0  0  0  0  0  0  0  0  0  0  0
   36.7150   30.9520   30.6890 H   0  0  0  0  0  0  0  0  0  0  0  0
   34.8520   32.0300   36.9170 C   0  0  0  0  0  0  0  0  0  0  0  0
   35.5430   31.4190   35.8540 C   0  0  0  0  0  0  0  0  0  0  0  0
   34.8350   30.7160   34.8800 C   0  0  0  0  0  0  0  0  0  0  0  0
   33.4760   30.6600   35.0180 N   0  0  0  0  0  0  0  0  0  0  0  0
   32.8560   31.2600   36.0530 C   0  0  0  0  0  0  0  0  0  0  0  0
   33.5230   31.9270   36.9790 N   0  0  0  0  0  0  0  0  0  0  0  0
   35.4200   32.5690   37.6600 H   0  0  0  0  0  0  0  0  0  0  0  0
   36.6220   31.4720   35.7570 H   0  0  0  0  0  0  0  0  0  0  0  0
   31.7850   31.0900   35.9660 H   0  0  0  0  0  0  0  0  0  0  0  0
  2  1  1  0  0  0  0
  3  2  2  0  0  0  0
  4  3  1  0  0  0  0
  5  4  2  0  0  0  0
  5  6  1  0  0  0  0
  6  7  2  0  0  0  0
  7  2  1  0  0  0  0
  7 12  1  0  0  0  0
  8  4  1  0  0  0  0
  9  5  1  0  0  0  0
 10  6  1  0  0  0  0
 11 22  1  0  0  0  0
 12 11  2  0  0  0  0
 13 12  1  0  0  0  0
 13 15  2  0  0  0  0
 14 13  1  0  0  0  0
 15 21  1  0  0  0  0
 16 15  1  0  0  0  0
 16 18  1  0  0  0  0
 17 16  1  0  0  0  0
 18 19  2  0  0  0  0
 19 20  1  0  0  0  0
 21 22  2  0  0  0  0
 21 19  1  0  0  0  0
 23 24  1  0  0  0  0
 24 25  1  0  0  0  0
 25 35  1  0  0  0  0
 26 25  2  0  0  0  0
 26 31  1  0  0  0  0
 27  3  1  0  0  0  0
 27 26  1  0  0  0  0
 28 30  1  0  0  0  0
 28 27  2  0  0  0  0
 29 28  1  0  0  0  0
 30 24  2  0  0  0  0
 32 30  1  0  0  0  0
 33 38  1  0  0  0  0
 33 39  1  0  0  0  0
 34 33  2  0  0  0  0
 35 36  2  0  0  0  0
 35 34  1  0  0  0  0
 36 37  1  0  0  0  0
 37 38  2  0  0  0  0
 40 34  1  0  0  0  0
 41 37  1  0  0  0  0
M  END
>  <minimizedAffinity>
-6.94511652

$$$$

 OpenBabel03262523493D

 41 45  0  0  0  0  0  0  0  0999 V2000
   36.6020   27.1740   34.9270 Cl  0  0  0  0  0  0  0  0  0  0  0  0
   36.5580   27.8440   33.2940 C   0  0  0  0  0  0  0  0  0  0  0  0
   37.2030   27.0920   32.3360 C   0  0  0  0  0  0  0  0  0  0  0  0
   37.2260   27.5350   31.0120 C   0  0  0  0  0  0  0  0  0  0  0  0
   36.6050   28.7260   30.6520 C   0  0  0  0  0  0  0  0  0  0  0  0
   35.9670   29.4520   31.6510 C   0  0  0  0  0  0  0  0  0  0  0  0
   35.9380   29.0180   32.9780 C   0  0  0  0  0  0  0  0  0  0  0  0
   37.7130   26.9900   30.2150 H   0  0  0  0  0  0  0  0  0  0  0  0
   36.6300   29.0600   29.6190 H   0  0  0  0  0  0  0  0  0  0  0  0
   35.4870   30.3720   31.3820 H   0  0  0  0  0  0  0  0  0  0  0  0
   33.9120   29.5090   34.2200 C   0  0  0  0  0  3  0  0  0  0  0  0
   35.2730   29.7730   34.0290 C   0  0  0  0  0  0  0  0  0  0  0  0
   35.8460   30.7220   34.8510 C   0  0  0  0  0  0  0  0  0  0  0  0
   36.8970   30.9140   34.6910 H   0  0  0  0  0  0  0  0  0  0  0  0
   35.1100   31.3770   35.8180 C   0  0  0  0  0  0  0  0  0  0  0  0
   35.5210   32.3280   36.7000 N   0  0  0  0  0  0  0  0  0  0  0  0
   36.5030   32.7100   36.7680 H   0  0  0  0  0  0  0  0  0  0  0  0
   34.4540   32.6480   37.4200 N   0  0  0  0  0  0  0  0  0  0  0  0
   33.3810   31.9300   37.0220 C   0  0  0  0  0  0  0  0  0  0  0  0
   32.3670   31.9720   37.4230 H   0  0  0  0  0  0  0  0  0  0  0  0
   33.7700   31.0890   35.9760 C   0  0  0  0  0  0  0  0  0  0  0  0
   33.1560   30.1560   35.1850 C   0  0  0  0  0  3  0  0  0  0  0  0
   39.7910   21.7730   33.1040 Cl  0  0  0  0  0  0  0  0  0  0  0  0
   39.0290   23.3290   32.8780 C   0  0  0  0  0  0  0  0  0  0  0  0
   37.7030   23.4250   32.5250 C   0  0  0  0  0  0  0  0  0  0  0  0
   37.1590   24.6790   32.3620 C   0  0  0  0  0  0  0  0  0  0  0  0
   37.9020   25.8210   32.5410 C   0  0  0  0  0  0  0  0  0  0  0  0
   39.2450   25.6970   32.8990 C   0  0  0  0  0  0  0  0  0  0  0  0
   40.1330   27.1800   33.1120 Cl  0  0  0  0  0  0  0  0  0  0  0  0
   39.8170   24.4600   33.0700 C   0  0  0  0  0  0  0  0  0  0  0  0
   36.1150   24.7280   32.0850 H   0  0  0  0  0  0  0  0  0  0  0  0
   40.8580   24.3980   33.3460 H   0  0  0  0  0  0  0  0  0  0  0  0
   36.0890   20.3560   30.9810 C   0  0  0  0  0  0  0  0  0  0  0  0
   36.7950   21.5690   31.0960 C   0  0  0  0  0  0  0  0  0  0  0  0
   36.9700   22.1520   32.3510 C   0  0  0  0  0  0  0  0  0  0  0  0
   36.4320   21.4970   33.4220 N   0  0  0  0  0  0  0  0  0  0  0  0
   35.7630   20.3370   33.2660 C   0  0  0  0  0  0  0  0  0  0  0  0
   35.5940   19.7800   32.0790 N   0  0  0  0  0  0  0  0  0  0  0  0
   35.9650   19.9220   30.0010 H   0  0  0  0  0  0  0  0  0  0  0  0
   37.2170   22.0770   30.2370 H   0  0  0  0  0  0  0  0  0  0  0  0
   35.4240   19.9940   34.2400 H   0  0  0  0  0  0  0  0  0  0  0  0
  2  1  1  0  0  0  0
  3 27  1  0  0  0  0
  3  2  2  0  0  0  0
  4  3  1  0  0  0  0
  5  4  2  0  0  0  0
  5  6  1  0  0  0  0
  6  7  2  0  0  0  0
  7  2  1  0  0  0  0
  7 12  1  0  0  0  0
  8  4  1  0  0  0  0
  9  5  1  0  0  0  0
 10  6  1  0  0  0  0
 11 22  1  0  0  0  0
 12 11  2  0  0  0  0
 12 13  1  0  0  0  0
 13 15  2  0  0  0  0
 14 13  1  0  0  0  0
 15 21  1  0  0  0  0
 15 16  1  0  0  0  0
 16 17  1  0  0  0  0
 16 18  1  0  0  0  0
 19 18  2  0  0  0  0
 19 20  1  0  0  0  0
 21 19  1  0  0  0  0
 22 21  2  0  0  0  0
 24 30  1  0  0  0  0
 24 23  1  0  0  0  0
 25 24  2  0  0  0  0
 26 25  1  0  0  0  0
 26 27  2  0  0  0  0
 27 28  1  0  0  0  0
 28 30  2  0  0  0  0
 28 29  1  0  0  0  0
 30 32  1  0  0  0  0
 31 26  1  0  0  0  0
 33 34  2  0  0  0  0
 33 38  1  0  0  0  0
 34 35  1  0  0  0  0
 35 25  1  0  0  0  0
 35 36  2  0  0  0  0
 37 36  1  0  0  0  0
 37 41  1  0  0  0  0
 38 37  2  0  0  0  0
 39 33  1  0  0  0  0
 40 34  1  0  0  0  0
M  END
>  <minimizedAffinity>
-6.8711791

$$$$

 OpenBabel03262523493D

 41 45  0  0  0  0  0  0  0  0999 V2000
   36.6160   27.2150   34.9810 Cl  0  0  0  0  0  0  0  0  0  0  0  0
   36.5290   27.9130   33.3610 C   0  0  0  0  0  0  0  0  0  0  0  0
   37.1420   27.1740   32.3730 C   0  0  0  0  0  0  0  0  0  0  0  0
   37.1290   27.6390   31.0560 C   0  0  0  0  0  0  0  0  0  0  0  0
   36.5060   28.8410   30.7340 C   0  0  0  0  0  0  0  0  0  0  0  0
   35.9020   29.5520   31.7640 C   0  0  0  0  0  0  0  0  0  0  0  0
   35.9080   29.0960   33.0830 C   0  0  0  0  0  0  0  0  0  0  0  0
   37.5900   27.1060   30.2360 H   0  0  0  0  0  0  0  0  0  0  0  0
   36.5030   29.1920   29.7070 H   0  0  0  0  0  0  0  0  0  0  0  0
   35.4200   30.4800   31.5240 H   0  0  0  0  0  0  0  0  0  0  0  0
   36.0940   30.7360   34.8630 C   0  0  0  0  0  3  0  0  0  0  0  0
   35.2780   29.8370   34.1650 C   0  0  0  0  0  0  0  0  0  0  0  0
   33.9630   29.7420   34.5740 C   0  0  0  0  0  0  0  0  0  0  0  0
   33.3470   29.0440   34.0250 H   0  0  0  0  0  0  0  0  0  0  0  0
   33.4760   30.5000   35.6190 C   0  0  0  0  0  0  0  0  0  0  0  0
   32.2190   30.5240   36.1380 N   0  0  0  0  0  0  0  0  0  0  0  0
   31.4090   29.9410   35.7960 H   0  0  0  0  0  0  0  0  0  0  0  0
   32.2460   31.4090   37.1260 N   0  0  0  0  0  0  0  0  0  0  0  0
   33.4800   31.9450   37.2490 C   0  0  0  0  0  0  0  0  0  0  0  0
   33.8090   32.6970   37.9690 H   0  0  0  0  0  0  0  0  0  0  0  0
   34.3120   31.3760   36.2820 C   0  0  0  0  0  0  0  0  0  0  0  0
   35.6250   31.5060   35.9150 C   0  0  0  0  0  3  0  0  0  0  0  0
   39.7190   21.8280   32.9650 Cl  0  0  0  0  0  0  0  0  0  0  0  0
   38.9610   23.3910   32.7900 C   0  0  0  0  0  0  0  0  0  0  0  0
   37.6350   23.5010   32.4390 C   0  0  0  0  0  0  0  0  0  0  0  0
   37.0930   24.7620   32.3170 C   0  0  0  0  0  0  0  0  0  0  0  0
   37.8380   25.8960   32.5350 C   0  0  0  0  0  0  0  0  0  0  0  0
   39.1800   25.7570   32.8910 C   0  0  0  0  0  0  0  0  0  0  0  0
   40.0700   27.2300   33.1550 Cl  0  0  0  0  0  0  0  0  0  0  0  0
   39.7500   24.5130   33.0210 C   0  0  0  0  0  0  0  0  0  0  0  0
   36.0500   24.8220   32.0400 H   0  0  0  0  0  0  0  0  0  0  0  0
   40.7910   24.4410   33.2960 H   0  0  0  0  0  0  0  0  0  0  0  0
   35.5390   20.3870   32.9960 C   0  0  0  0  0  0  0  0  0  0  0  0
   36.2250   21.5890   33.2540 C   0  0  0  0  0  0  0  0  0  0  0  0
   36.9000   22.2370   32.2200 C   0  0  0  0  0  0  0  0  0  0  0  0
   36.8570   21.6510   30.9860 N   0  0  0  0  0  0  0  0  0  0  0  0
   36.1880   20.4980   30.7850 C   0  0  0  0  0  0  0  0  0  0  0  0
   35.5460   19.8810   31.7610 N   0  0  0  0  0  0  0  0  0  0  0  0
   35.0230   19.9030   33.8110 H   0  0  0  0  0  0  0  0  0  0  0  0
   36.2500   22.0430   34.2380 H   0  0  0  0  0  0  0  0  0  0  0  0
   36.2850   20.2150   29.7390 H   0  0  0  0  0  0  0  0  0  0  0  0
  2  1  1  0  0  0  0
  3 27  1  0  0  0  0
  3  2  2  0  0  0  0
  4  3  1  0  0  0  0
  5  4  2  0  0  0  0
  5  6  1  0  0  0  0
  6  7  2  0  0  0  0
  7  2  1  0  0  0  0
  7 12  1  0  0  0  0
  8  4  1  0  0  0  0
  9  5  1  0  0  0  0
 10  6  1  0  0  0  0
 11 22  1  0  0  0  0
 12 13  1  0  0  0  0
 12 11  2  0  0  0  0
 13 15  2  0  0  0  0
 14 13  1  0  0  0  0
 15 16  1  0  0  0  0
 15 21  1  0  0  0  0
 16 18  1  0  0  0  0
 17 16  1  0  0  0  0
 18 19  2  0  0  0  0
 19 20  1  0  0  0  0
 21 19  1  0  0  0  0
 22 21  2  0  0  0  0
 24 23  1  0  0  0  0
 24 30  1  0  0  0  0
 25 24  2  0  0  0  0
 26 25  1  0  0  0  0
 26 27  2  0  0  0  0
 27 28  1  0  0  0  0
 28 30  2  0  0  0  0
 28 29  1  0  0  0  0
 30 32  1  0  0  0  0
 31 26  1  0  0  0  0
 33 34  1  0  0  0  0
 33 39  1  0  0  0  0
 34 40  1  0  0  0  0
 35 25  1  0  0  0  0
 35 34  2  0  0  0  0
 36 35  1  0  0  0  0
 37 36  2  0  0  0  0
 37 38  1  0  0  0  0
 38 33  2  0  0  0  0
 41 37  1  0  0  0  0
M  END
>  <minimizedAffinity>
-6.72781849

$$$$

 OpenBabel03262523493D

 41 45  0  0  0  0  0  0  0  0999 V2000
   38.3470   27.0250   33.6920 Cl  0  0  0  0  0  0  0  0  0  0  0  0
   37.4280   25.8190   32.7870 C   0  0  0  0  0  0  0  0  0  0  0  0
   36.5410   26.3320   31.8650 C   0  0  0  0  0  0  0  0  0  0  0  0
   35.7660   25.4610   31.0970 C   0  0  0  0  0  0  0  0  0  0  0  0
   35.8800   24.0830   31.2540 C   0  0  0  0  0  0  0  0  0  0  0  0
   36.7860   23.6120   32.1960 C   0  0  0  0  0  0  0  0  0  0  0  0
   37.5670   24.4740   32.9690 C   0  0  0  0  0  0  0  0  0  0  0  0
   35.0540   25.8000   30.3570 H   0  0  0  0  0  0  0  0  0  0  0  0
   35.2710   23.4160   30.6510 H   0  0  0  0  0  0  0  0  0  0  0  0
   36.8790   22.5520   32.3240 H   0  0  0  0  0  0  0  0  0  0  0  0
   39.8470   23.8680   33.5380 C   0  0  0  0  0  3  0  0  0  0  0  0
   38.5170   23.9870   33.9580 C   0  0  0  0  0  0  0  0  0  0  0  0
   38.2400   23.6290   35.2610 C   0  0  0  0  0  0  0  0  0  0  0  0
   37.2080   23.7260   35.5690 H   0  0  0  0  0  0  0  0  0  0  0  0
   39.2300   23.1770   36.1110 C   0  0  0  0  0  0  0  0  0  0  0  0
   39.1220   22.7900   37.4100 N   0  0  0  0  0  0  0  0  0  0  0  0
   38.2270   22.7810   37.9710 H   0  0  0  0  0  0  0  0  0  0  0  0
   40.3440   22.4410   37.7930 N   0  0  0  0  0  0  0  0  0  0  0  0
   41.2200   22.5960   36.7760 C   0  0  0  0  0  0  0  0  0  0  0  0
   42.2930   22.3920   36.7870 H   0  0  0  0  0  0  0  0  0  0  0  0
   40.5300   23.0750   35.6610 C   0  0  0  0  0  0  0  0  0  0  0  0
   40.8550   23.4180   34.3750 C   0  0  0  0  0  3  0  0  0  0  0  0
   35.3200   32.0840   30.8690 Cl  0  0  0  0  0  0  0  0  0  0  0  0
   35.6740   30.4000   31.1630 C   0  0  0  0  0  0  0  0  0  0  0  0
   34.9310   29.6640   32.0570 C   0  0  0  0  0  0  0  0  0  0  0  0
   35.2580   28.3390   32.2460 C   0  0  0  0  0  0  0  0  0  0  0  0
   36.2980   27.7450   31.5720 C   0  0  0  0  0  0  0  0  0  0  0  0
   37.0360   28.5130   30.6710 C   0  0  0  0  0  0  0  0  0  0  0  0
   38.3400   27.7040   29.8470 Cl  0  0  0  0  0  0  0  0  0  0  0  0
   36.7350   29.8370   30.4590 C   0  0  0  0  0  0  0  0  0  0  0  0
   34.6590   27.7830   32.9540 H   0  0  0  0  0  0  0  0  0  0  0  0
   37.3260   30.4030   29.7560 H   0  0  0  0  0  0  0  0  0  0  0  0
   32.9310   31.6560   34.5930 C   0  0  0  0  0  0  0  0  0  0  0  0
   34.0100   30.9950   33.9790 C   0  0  0  0  0  0  0  0  0  0  0  0
   33.8300   30.3730   32.7440 C   0  0  0  0  0  0  0  0  0  0  0  0
   32.5830   30.4430   32.1890 N   0  0  0  0  0  0  0  0  0  0  0  0
   31.5770   31.0880   32.8130 C   0  0  0  0  0  0  0  0  0  0  0  0
   31.7440   31.6790   33.9830 N   0  0  0  0  0  0  0  0  0  0  0  0
   33.0930   32.1310   35.5490 H   0  0  0  0  0  0  0  0  0  0  0  0
   34.9940   30.9470   34.4310 H   0  0  0  0  0  0  0  0  0  0  0  0
   30.6830   31.0210   32.1980 H   0  0  0  0  0  0  0  0  0  0  0  0
  2  7  1  0  0  0  0
  2  1  1  0  0  0  0
  3  2  2  0  0  0  0
  4  5  2  0  0  0  0
  4  3  1  0  0  0  0
  5  6  1  0  0  0  0
  6 10  1  0  0  0  0
  6  7  2  0  0  0  0
  7 12  1  0  0  0  0
  8  4  1  0  0  0  0
  9  5  1  0  0  0  0
 11 12  2  0  0  0  0
 11 22  1  0  0  0  0
 12 13  1  0  0  0  0
 13 14  1  0  0  0  0
 13 15  2  0  0  0  0
 15 16  1  0  0  0  0
 16 18  1  0  0  0  0
 16 17  1  0  0  0  0
 19 20  1  0  0  0  0
 19 18  2  0  0  0  0
 21 15  1  0  0  0  0
 21 19  1  0  0  0  0
 22 21  2  0  0  0  0
 23 24  1  0  0  0  0
 24 25  1  0  0  0  0
 25 26  2  0  0  0  0
 25 35  1  0  0  0  0
 26 31  1  0  0  0  0
 27  3  1  0  0  0  0
 27 26  1  0  0  0  0
 28 27  2  0  0  0  0
 29 28  1  0  0  0  0
 30 28  1  0  0  0  0
 30 24  2  0  0  0  0
 32 30  1  0  0  0  0
 33 39  1  0  0  0  0
 34 40  1  0  0  0  0
 34 33  2  0  0  0  0
 35 34  1  0  0  0  0
 36 35  2  0  0  0  0
 36 37  1  0  0  0  0
 37 38  2  0  0  0  0
 38 33  1  0  0  0  0
 41 37  1  0  0  0  0
M  END
>  <minimizedAffinity>
-6.59787703

$$$$

 OpenBabel03262523493D

 41 45  0  0  0  0  0  0  0  0999 V2000
   37.6830   28.2500   35.3280 Cl  0  0  0  0  0  0  0  0  0  0  0  0
   36.9240   28.0690   33.7430 C   0  0  0  0  0  0  0  0  0  0  0  0
   37.5940   27.2430   32.8660 C   0  0  0  0  0  0  0  0  0  0  0  0
   37.0760   27.0330   31.5860 C   0  0  0  0  0  0  0  0  0  0  0  0
   35.8930   27.6500   31.1890 C   0  0  0  0  0  0  0  0  0  0  0  0
   35.2540   28.4750   32.1070 C   0  0  0  0  0  0  0  0  0  0  0  0
   35.7630   28.6910   33.3900 C   0  0  0  0  0  0  0  0  0  0  0  0
   37.5520   26.3970   30.8530 H   0  0  0  0  0  0  0  0  0  0  0  0
   35.5010   27.4800   30.1920 H   0  0  0  0  0  0  0  0  0  0  0  0
   34.3430   28.9540   31.8080 H   0  0  0  0  0  0  0  0  0  0  0  0
   33.7400   29.3030   34.5830 C   0  0  0  0  0  3  0  0  0  0  0  0
   35.0980   29.5540   34.3540 C   0  0  0  0  0  0  0  0  0  0  0  0
   35.6690   30.5930   35.0620 C   0  0  0  0  0  0  0  0  0  0  0  0
   36.7180   30.7730   34.8730 H   0  0  0  0  0  0  0  0  0  0  0  0
   34.9340   31.3460   35.9550 C   0  0  0  0  0  0  0  0  0  0  0  0
   35.3430   32.3920   36.7220 N   0  0  0  0  0  0  0  0  0  0  0  0
   36.3220   32.7870   36.7410 H   0  0  0  0  0  0  0  0  0  0  0  0
   34.2780   32.7820   37.4100 N   0  0  0  0  0  0  0  0  0  0  0  0
   33.2080   32.0170   37.1020 C   0  0  0  0  0  0  0  0  0  0  0  0
   32.1960   32.0960   37.5040 H   0  0  0  0  0  0  0  0  0  0  0  0
   33.5970   31.0680   36.1540 C   0  0  0  0  0  0  0  0  0  0  0  0
   32.9850   30.0470   35.4760 C   0  0  0  0  0  3  0  0  0  0  0  0
   42.5350   24.1500   34.1250 Cl  0  0  0  0  0  0  0  0  0  0  0  0
   41.0860   25.0540   33.7590 C   0  0  0  0  0  0  0  0  0  0  0  0
   39.9350   24.8740   34.4900 C   0  0  0  0  0  0  0  0  0  0  0  0
   38.8240   25.6160   34.1550 C   0  0  0  0  0  0  0  0  0  0  0  0
   38.8410   26.5190   33.1190 C   0  0  0  0  0  0  0  0  0  0  0  0
   40.0210   26.6830   32.3930 C   0  0  0  0  0  0  0  0  0  0  0  0
   39.9790   27.8420   31.0940 Cl  0  0  0  0  0  0  0  0  0  0  0  0
   41.1460   25.9580   32.7030 C   0  0  0  0  0  0  0  0  0  0  0  0
   37.9320   25.4570   34.7440 H   0  0  0  0  0  0  0  0  0  0  0  0
   42.0430   26.1080   32.1220 H   0  0  0  0  0  0  0  0  0  0  0  0
   39.3690   23.0860   37.7900 C   0  0  0  0  0  0  0  0  0  0  0  0
   39.2790   24.0550   36.7730 C   0  0  0  0  0  0  0  0  0  0  0  0
   39.9950   23.8850   35.5880 C   0  0  0  0  0  0  0  0  0  0  0  0
   40.7620   22.7590   35.4810 N   0  0  0  0  0  0  0  0  0  0  0  0
   40.8180   21.8560   36.4810 C   0  0  0  0  0  0  0  0  0  0  0  0
   40.1420   22.0130   37.6050 N   0  0  0  0  0  0  0  0  0  0  0  0
   38.8060   23.2370   38.6980 H   0  0  0  0  0  0  0  0  0  0  0  0
   38.6660   24.9440   36.8720 H   0  0  0  0  0  0  0  0  0  0  0  0
   41.4820   21.0470   36.1850 H   0  0  0  0  0  0  0  0  0  0  0  0
  2  1  1  0  0  0  0
  3 27  1  0  0  0  0
  3  2  2  0  0  0  0
  4  3  1  0  0  0  0
  5  4  2  0  0  0  0
  5  6  1  0  0  0  0
  6  7  2  0  0  0  0
  7  2  1  0  0  0  0
  7 12  1  0  0  0  0
  8  4  1  0  0  0  0
  9  5  1  0  0  0  0
 10  6  1  0  0  0  0
 11 22  1  0  0  0  0
 12 11  2  0  0  0  0
 12 13  1  0  0  0  0
 13 15  2  0  0  0  0
 14 13  1  0  0  0  0
 15 21  1  0  0  0  0
 15 16  1  0  0  0  0
 16 17  1  0  0  0  0
 16 18  1  0  0  0  0
 19 18  2  0  0  0  0
 19 20  1  0  0  0  0
 21 19  1  0  0  0  0
 22 21  2  0  0  0  0
 24 23  1  0  0  0  0
 24 25  1  0  0  0  0
 25 35  1  0  0  0  0
 26 25  2  0  0  0  0
 26 31  1  0  0  0  0
 27 26  1  0  0  0  0
 28 30  1  0  0  0  0
 28 27  2  0  0  0  0
 29 28  1  0  0  0  0
 30 24  2  0  0  0  0
 32 30  1  0  0  0  0
 33 39  1  0  0  0  0
 34 40  1  0  0  0  0
 34 33  2  0  0  0  0
 35 34  1  0  0  0  0
 36 35  2  0  0  0  0
 36 37  1  0  0  0  0
 37 38  2  0  0  0  0
 38 33  1  0  0  0  0
 41 37  1  0  0  0  0
M  END
>  <minimizedAffinity>
-6.47242498

$$$$

 OpenBabel03262523493D

 41 45  0  0  0  0  0  0  0  0999 V2000
   36.6750   27.2730   34.8930 Cl  0  0  0  0  0  0  0  0  0  0  0  0
   36.6690   28.0280   33.2970 C   0  0  0  0  0  0  0  0  0  0  0  0
   37.4010   27.3660   32.3350 C   0  0  0  0  0  0  0  0  0  0  0  0
   37.4600   27.8820   31.0380 C   0  0  0  0  0  0  0  0  0  0  0  0
   36.7890   29.0550   30.7100 C   0  0  0  0  0  0  0  0  0  0  0  0
   36.0640   29.6880   31.7120 C   0  0  0  0  0  0  0  0  0  0  0  0
   35.9980   29.1820   33.0120 C   0  0  0  0  0  0  0  0  0  0  0  0
   38.0160   27.4100   30.2400 H   0  0  0  0  0  0  0  0  0  0  0  0
   36.8430   29.4460   29.6990 H   0  0  0  0  0  0  0  0  0  0  0  0
   35.5450   30.5940   31.4670 H   0  0  0  0  0  0  0  0  0  0  0  0
   33.8830   29.5120   34.1560 C   0  0  0  0  0  3  0  0  0  0  0  0
   35.2410   29.8400   34.0650 C   0  0  0  0  0  0  0  0  0  0  0  0
   35.7240   30.7550   34.9790 C   0  0  0  0  0  0  0  0  0  0  0  0
   36.7740   30.9980   34.8940 H   0  0  0  0  0  0  0  0  0  0  0  0
   34.9060   31.3170   35.9390 C   0  0  0  0  0  0  0  0  0  0  0  0
   35.2250   32.2230   36.9010 N   0  0  0  0  0  0  0  0  0  0  0  0
   36.1840   32.6380   37.0530 H   0  0  0  0  0  0  0  0  0  0  0  0
   34.1050   32.4530   37.5750 N   0  0  0  0  0  0  0  0  0  0  0  0
   33.0880   31.7220   37.0680 C   0  0  0  0  0  0  0  0  0  0  0  0
   32.0520   31.6990   37.4090 H   0  0  0  0  0  0  0  0  0  0  0  0
   33.5730   30.9670   35.9970 C   0  0  0  0  0  0  0  0  0  0  0  0
   33.0460   30.0640   35.1120 C   0  0  0  0  0  3  0  0  0  0  0  0
   40.7380   22.4870   33.1220 Cl  0  0  0  0  0  0  0  0  0  0  0  0
   39.7650   23.9180   32.8930 C   0  0  0  0  0  0  0  0  0  0  0  0
   40.2830   25.1720   33.1180 C   0  0  0  0  0  0  0  0  0  0  0  0
   39.4660   26.2630   32.9190 C   0  0  0  0  0  0  0  0  0  0  0  0
   38.1620   26.1270   32.5080 C   0  0  0  0  0  0  0  0  0  0  0  0
   37.6600   24.8440   32.2860 C   0  0  0  0  0  0  0  0  0  0  0  0
   36.0020   24.7380   31.7660 Cl  0  0  0  0  0  0  0  0  0  0  0  0
   38.4500   23.7360   32.4750 C   0  0  0  0  0  0  0  0  0  0  0  0
   39.8960   27.2380   33.1030 H   0  0  0  0  0  0  0  0  0  0  0  0
   38.0310   22.7580   32.2960 H   0  0  0  0  0  0  0  0  0  0  0  0
   43.4020   25.2680   35.2770 C   0  0  0  0  0  0  0  0  0  0  0  0
   42.0460   25.2030   34.9070 C   0  0  0  0  0  0  0  0  0  0  0  0
   41.6930   25.2370   33.5590 C   0  0  0  0  0  0  0  0  0  0  0  0
   42.7110   25.3340   32.6520 N   0  0  0  0  0  0  0  0  0  0  0  0
   43.9970   25.3940   33.0520 C   0  0  0  0  0  0  0  0  0  0  0  0
   44.3360   25.3620   34.3280 N   0  0  0  0  0  0  0  0  0  0  0  0
   43.6530   25.2400   36.3270 H   0  0  0  0  0  0  0  0  0  0  0  0
   41.2490   25.1250   35.6380 H   0  0  0  0  0  0  0  0  0  0  0  0
   44.6330   25.4680   32.1730 H   0  0  0  0  0  0  0  0  0  0  0  0
  2  1  1  0  0  0  0
  3 27  1  0  0  0  0
  3  2  2  0  0  0  0
  4  3  1  0  0  0  0
  5  4  2  0  0  0  0
  5  6  1  0  0  0  0
  6  7  2  0  0  0  0
  7  2  1  0  0  0  0
  7 12  1  0  0  0  0
  8  4  1  0  0  0  0
  9  5  1  0  0  0  0
 10  6  1  0  0  0  0
 11 22  1  0  0  0  0
 12 11  2  0  0  0  0
 12 13  1  0  0  0  0
 13 15  2  0  0  0  0
 14 13  1  0  0  0  0
 15 21  1  0  0  0  0
 15 16  1  0  0  0  0
 16 17  1  0  0  0  0
 16 18  1  0  0  0  0
 19 20  1  0  0  0  0
 19 18  2  0  0  0  0
 21 19  1  0  0  0  0
 22 21  2  0  0  0  0
 24 25  1  0  0  0  0
 24 23  1  0  0  0  0
 25 35  1  0  0  0  0
 26 31  1  0  0  0  0
 26 25  2  0  0  0  0
 27 26  1  0  0  0  0
 28 30  1  0  0  0  0
 28 27  2  0  0  0  0
 29 28  1  0  0  0  0
 30 24  2  0  0  0  0
 32 30  1  0  0  0  0
 33 39  1  0  0  0  0
 34 33  1  0  0  0  0
 34 40  1  0  0  0  0
 35 34  2  0  0  0  0
 36 37  2  0  0  0  0
 36 35  1  0  0  0  0
 37 38  1  0  0  0  0
 38 33  2  0  0  0  0
 41 37  1  0  0  0  0
M  END
>  <minimizedAffinity>
-6.41801262

$$$$

 OpenBabel03262523493D

 41 45  0  0  0  0  0  0  0  0999 V2000
   36.0480   27.8560   34.3420 Cl  0  0  0  0  0  0  0  0  0  0  0  0
   36.3310   28.4070   32.6880 C   0  0  0  0  0  0  0  0  0  0  0  0
   36.7550   27.4310   31.8130 C   0  0  0  0  0  0  0  0  0  0  0  0
   37.0070   27.7640   30.4800 C   0  0  0  0  0  0  0  0  0  0  0  0
   36.8360   29.0690   30.0300 C   0  0  0  0  0  0  0  0  0  0  0  0
   36.4080   30.0190   30.9490 C   0  0  0  0  0  0  0  0  0  0  0  0
   36.1520   29.6980   32.2830 C   0  0  0  0  0  0  0  0  0  0  0  0
   37.3410   27.0450   29.7440 H   0  0  0  0  0  0  0  0  0  0  0  0
   37.0350   29.3160   28.9920 H   0  0  0  0  0  0  0  0  0  0  0  0
   36.2740   31.0280   30.6100 H   0  0  0  0  0  0  0  0  0  0  0  0
   35.1330   31.8550   32.7280 C   0  0  0  0  0  3  0  0  0  0  0  0
   35.7040   30.6880   33.2500 C   0  0  0  0  0  0  0  0  0  0  0  0
   35.7880   30.5950   34.6250 C   0  0  0  0  0  0  0  0  0  0  0  0
   36.2310   29.6890   35.0110 H   0  0  0  0  0  0  0  0  0  0  0  0
   35.3270   31.6060   35.4450 C   0  0  0  0  0  0  0  0  0  0  0  0
   35.3350   31.6670   36.8040 N   0  0  0  0  0  0  0  0  0  0  0  0
   35.7120   30.9170   37.4440 H   0  0  0  0  0  0  0  0  0  0  0  0
   34.7870   32.8320   37.1230 N   0  0  0  0  0  0  0  0  0  0  0  0
   34.4320   33.5100   36.0090 C   0  0  0  0  0  0  0  0  0  0  0  0
   33.9610   34.4930   35.9510 H   0  0  0  0  0  0  0  0  0  0  0  0
   34.7700   32.7410   34.8920 C   0  0  0  0  0  0  0  0  0  0  0  0
   34.6650   32.8800   33.5340 C   0  0  0  0  0  3  0  0  0  0  0  0
   37.9410   21.7530   33.1980 Cl  0  0  0  0  0  0  0  0  0  0  0  0
   37.5980   23.4170   32.7940 C   0  0  0  0  0  0  0  0  0  0  0  0
   38.4330   24.4320   33.2000 C   0  0  0  0  0  0  0  0  0  0  0  0
   38.1090   25.7240   32.8500 C   0  0  0  0  0  0  0  0  0  0  0  0
   36.9850   26.0170   32.1170 C   0  0  0  0  0  0  0  0  0  0  0  0
   36.1540   24.9700   31.7170 C   0  0  0  0  0  0  0  0  0  0  0  0
   34.7460   25.4050   30.7890 Cl  0  0  0  0  0  0  0  0  0  0  0  0
   36.4500   23.6700   32.0490 C   0  0  0  0  0  0  0  0  0  0  0  0
   38.7810   26.5040   33.1810 H   0  0  0  0  0  0  0  0  0  0  0  0
   35.7860   22.8820   31.7260 H   0  0  0  0  0  0  0  0  0  0  0  0
   41.9790   23.5140   34.1900 C   0  0  0  0  0  0  0  0  0  0  0  0
   40.8780   23.8910   33.3990 C   0  0  0  0  0  0  0  0  0  0  0  0
   39.6210   24.0380   33.9860 C   0  0  0  0  0  0  0  0  0  0  0  0
   39.5310   23.8000   35.3290 N   0  0  0  0  0  0  0  0  0  0  0  0
   40.6130   23.4410   36.0480 C   0  0  0  0  0  0  0  0  0  0  0  0
   41.8060   23.3000   35.4960 N   0  0  0  0  0  0  0  0  0  0  0  0
   42.9430   23.4060   33.7150 H   0  0  0  0  0  0  0  0  0  0  0  0
   40.9640   24.0770   32.3350 H   0  0  0  0  0  0  0  0  0  0  0  0
   40.3150   23.3040   37.0850 H   0  0  0  0  0  0  0  0  0  0  0  0
  2  1  1  0  0  0  0
  3 27  1  0  0  0  0
  3  2  2  0  0  0  0
  4  3  1  0  0  0  0
  5  4  2  0  0  0  0
  5  6  1  0  0  0  0
  6  7  2  0  0  0  0
  7  2  1  0  0  0  0
  7 12  1  0  0  0  0
  8  4  1  0  0  0  0
  9  5  1  0  0  0  0
 10  6  1  0  0  0  0
 11 12  2  0  0  0  0
 11 22  1  0  0  0  0
 12 13  1  0  0  0  0
 13 14  1  0  0  0  0
 13 15  2  0  0  0  0
 15 16  1  0  0  0  0
 16 18  1  0  0  0  0
 16 17  1  0  0  0  0
 19 18  2  0  0  0  0
 20 19  1  0  0  0  0
 21 15  1  0  0  0  0
 21 19  1  0  0  0  0
 22 21  2  0  0  0  0
 24 23  1  0  0  0  0
 24 25  1  0  0  0  0
 25 35  1  0  0  0  0
 26 31  1  0  0  0  0
 26 25  2  0  0  0  0
 27 26  1  0  0  0  0
 28 30  1  0  0  0  0
 28 27  2  0  0  0  0
 29 28  1  0  0  0  0
 30 24  2  0  0  0  0
 32 30  1  0  0  0  0
 33 38  1  0  0  0  0
 34 35  1  0  0  0  0
 34 33  2  0  0  0  0
 35 36  2  0  0  0  0
 36 37  1  0  0  0  0
 37 41  1  0  0  0  0
 38 37  2  0  0  0  0
 39 33  1  0  0  0  0
 40 34  1  0  0  0  0
M  END
>  <minimizedAffinity>
-6.3485713

$$$$
