
 OpenBabel03272501383D

 48 53  0  0  1  0  0  0  0  0999 V2000
   37.6690   30.7400   50.6720 C   0  0  0  0  0  0  0  0  0  0  0  0
   38.4040   31.4150   49.7180 C   0  0  0  0  0  0  0  0  0  0  0  0
   38.0650   31.4040   48.3600 C   0  0  0  0  0  0  0  0  0  0  0  0
   37.0020   30.7220   48.0180 N   0  0  0  0  0  0  0  0  0  0  0  0
   36.2810   30.0560   48.9740 C   0  0  0  0  0  0  0  0  0  0  0  0
   36.6040   30.0640   50.2620 N   0  0  0  0  0  0  0  0  0  0  0  0
   37.9570   30.7670   51.7110 H   0  0  0  0  0  0  0  0  0  0  0  0
   39.2730   31.9600   50.0950 H   0  0  0  0  0  0  0  0  0  0  0  0
   35.0820   29.3070   48.6120 C   0  0  0  0  0  0  0  0  0  0  0  0
   34.5550   28.1360   49.0960 C   0  0  0  0  0  0  0  0  0  0  0  0
   33.4060   27.6380   48.6180 C   0  0  0  0  0  0  0  0  0  0  0  0
   32.8020   28.3880   47.6080 C   0  0  0  0  0  0  0  0  0  0  0  0
   33.9330   29.8200   47.3750 S   0  0  0  0  0  0  0  0  0  0  0  0
   35.1370   27.6500   49.8930 H   0  0  0  0  0  0  0  0  0  0  0  0
   32.9280   26.7290   48.9430 H   0  0  0  0  0  0  0  0  0  0  0  0
   31.6660   28.2460   45.4570 C   0  0  0  0  0  0  0  0  0  0  0  0
   31.5830   28.2190   46.8300 C   0  0  0  0  0  0  0  0  0  0  0  0
   30.4630   28.0480   47.6080 C   0  0  0  0  0  0  0  0  0  0  0  0
   30.4500   28.0340   48.6690 H   0  0  0  0  0  0  0  0  0  0  0  0
   29.2610   27.8790   46.9150 C   0  0  0  0  0  0  0  0  0  0  0  0
   27.9780   27.6880   47.2700 N   0  0  0  0  0  0  0  0  0  0  0  0
   27.6910   27.6360   48.2740 H   0  0  0  0  0  0  0  0  0  0  0  0
   27.2270   27.5910   46.1840 N   0  0  0  0  0  0  0  0  0  0  0  0
   27.9880   27.7140   45.0620 C   0  0  0  0  0  0  0  0  0  0  0  0
   27.6500   27.6760   44.0320 H   0  0  0  0  0  0  0  0  0  0  0  0
   29.2650   27.8950   45.5250 C   0  0  0  0  0  0  0  0  0  0  0  0
   30.4500   28.0750   44.8130 C   0  0  0  0  0  0  0  0  0  0  0  0
   38.9870   32.0690   47.4860 C   0  0  1  0  0  0  0  0  0  0  0  0
   39.9740   31.7470   48.0170 H   0  0  0  0  0  0  0  0  0  0  0  0
   39.0940   31.5360   46.0740 C   0  0  2  0  0  0  0  0  0  0  0  0
   40.5660   31.1910   45.8460 C   0  0  0  0  0  0  0  0  0  0  0  0
   39.8530   32.2490   45.0780 C   0  0  1  0  0  0  0  0  0  0  0  0
   38.3400   30.7690   45.8530 H   0  0  0  0  0  0  0  0  0  0  0  0
   41.3820   31.5410   46.4650 H   0  0  0  0  0  0  0  0  0  0  0  0
   40.7110   30.1960   45.3820 H   0  0  0  0  0  0  0  0  0  0  0  0
   39.9920   33.3280   45.2970 H   0  0  0  0  0  0  0  0  0  0  0  0
   39.8070   31.9960   43.6300 C   0  0  0  0  0  0  0  0  0  0  0  0
   39.1220   32.8840   42.8430 C   0  0  0  0  0  0  0  0  0  0  0  0
   39.1180   32.6370   41.4950 C   0  0  0  0  0  0  0  0  0  0  0  0
   39.7590   31.5580   40.9140 C   0  0  0  0  0  0  0  0  0  0  0  0
   40.4430   30.6790   41.7470 C   0  0  0  0  0  0  0  0  0  0  0  0
   40.4520   30.9140   43.0700 N   0  0  0  0  0  0  0  0  0  0  0  0
   38.5940   33.7530   43.2100 H   0  0  0  0  0  0  0  0  0  0  0  0
   38.5790   33.3290   40.8370 H   0  0  0  0  0  0  0  0  0  0  0  0
   39.7670   31.3490   39.8670 H   0  0  0  0  0  0  0  0  0  0  0  0
   40.9800   29.8030   41.4160 H   0  0  0  0  0  0  0  0  0  0  0  0
   39.2280   33.3510   47.5810 O   0  0  0  0  0  0  0  0  0  0  0  0
   38.4560   33.9290   47.3540 H   0  0  0  0  0  0  0  0  0  0  0  0
  1  7  1  0  0  0  0
  2  8  1  0  0  0  0
  2  1  2  0  0  0  0
  3  2  1  0  0  0  0
  4  3  2  0  0  0  0
  4  5  1  0  0  0  0
  5  6  2  0  0  0  0
  6  1  1  0  0  0  0
  9  5  1  0  0  0  0
  9 10  2  0  0  0  0
 10 14  1  0  0  0  0
 11 15  1  0  0  0  0
 11 10  1  0  0  0  0
 12 11  2  0  0  0  0
 13 12  1  0  0  0  0
 13  9  1  0  0  0  0
 16 17  1  0  0  0  0
 17 18  2  0  0  0  0
 17 12  1  0  0  0  0
 18 19  1  0  0  0  0
 20 21  1  0  0  0  0
 20 18  1  0  0  0  0
 21 22  1  0  0  0  0
 23 21  1  0  0  0  0
 24 26  1  0  0  0  0
 24 23  2  0  0  0  0
 25 24  1  0  0  0  0
 26 20  2  0  0  0  0
 27 16  2  0  0  0  0
 27 26  1  0  0  0  0
 28 47  1  0  0  0  0
 28 29  1  1  0  0  0
 28  3  1  0  0  0  0
 30 33  1  6  0  0  0
 30 28  1  0  0  0  0
 31 30  1  0  0  0  0
 31 34  1  0  0  0  0
 32 36  1  1  0  0  0
 32 31  1  0  0  0  0
 32 30  1  0  0  0  0
 35 31  1  0  0  0  0
 37 32  1  0  0  0  0
 38 43  1  0  0  0  0
 38 37  2  0  0  0  0
 39 38  1  0  0  0  0
 40 39  2  0  0  0  0
 40 41  1  0  0  0  0
 41 42  2  0  0  0  0
 42 37  1  0  0  0  0
 44 39  1  0  0  0  0
 45 40  1  0  0  0  0
 46 41  1  0  0  0  0
 48 47  1  0  0  0  0
M  END
>  <minimizedAffinity>
-7.17649317

>  <minimizedRMSD>
0.282337397

$$$$
