
 OpenBabel03272504493D

 45 49  0  0  1  0  0  0  0  0999 V2000
   37.4810   31.2990   48.7080 N   0  0  0  0  0  0  0  0  0  0  0  0
   38.2080   31.2330   49.9630 C   0  0  0  0  0  0  0  0  0  0  0  0
   39.2670   32.2770   50.1030 C   0  0  0  0  0  0  0  0  0  0  0  0
   38.8120   33.5770   49.4490 C   0  0  0  0  0  0  0  0  0  0  0  0
   38.7370   33.2920   47.9790 C   0  0  0  0  0  0  0  0  0  0  0  0
   37.7480   32.2130   47.6470 C   0  0  1  0  0  0  0  0  0  0  0  0
   38.7050   30.2360   50.0060 H   0  0  0  0  0  0  0  0  0  0  0  0
   37.4720   31.2410   50.8070 H   0  0  0  0  0  0  0  0  0  0  0  0
   40.2410   31.9820   49.6990 H   0  0  0  0  0  0  0  0  0  0  0  0
   39.3680   32.5030   51.2040 H   0  0  0  0  0  0  0  0  0  0  0  0
   37.7640   33.7370   49.7940 H   0  0  0  0  0  0  0  0  0  0  0  0
   39.4750   34.4090   49.6740 H   0  0  0  0  0  0  0  0  0  0  0  0
   38.5760   34.1740   47.3460 H   0  0  0  0  0  0  0  0  0  0  0  0
   39.7460   32.8790   47.6900 H   0  0  0  0  0  0  0  0  0  0  0  0
   36.8030   32.7310   47.3830 H   0  0  0  0  0  0  0  0  0  0  0  0
   38.9870   30.3920   46.2330 C   0  0  0  0  0  0  0  0  0  0  0  0
   38.2180   31.5230   46.4050 C   0  0  0  0  0  0  0  0  0  0  0  0
   37.7480   32.2140   45.2870 C   0  0  0  0  0  0  0  0  0  0  0  0
   37.1380   33.1100   45.2610 H   0  0  0  0  0  0  0  0  0  0  0  0
   38.0500   31.7690   44.0000 C   0  0  0  0  0  0  0  0  0  0  0  0
   37.7820   32.1650   42.7490 N   0  0  0  0  0  0  0  0  0  0  0  0
   37.2130   33.0010   42.5030 H   0  0  0  0  0  0  0  0  0  0  0  0
   38.3300   31.3590   41.8560 N   0  0  0  0  0  0  0  0  0  0  0  0
   38.9880   30.3900   42.5160 C   0  0  0  0  0  0  0  0  0  0  0  0
   39.5620   29.5470   42.1150 H   0  0  0  0  0  0  0  0  0  0  0  0
   38.8190   30.6380   43.8470 C   0  0  0  0  0  0  0  0  0  0  0  0
   39.2730   29.9700   44.9520 C   0  0  0  0  0  0  0  0  0  0  0  0
   36.3390   29.2370   49.3640 C   0  0  0  0  0  0  0  0  0  0  0  0
   36.4230   30.3690   48.5470 C   0  0  0  0  0  0  0  0  0  0  0  0
   35.4350   30.5240   47.5910 C   0  0  0  0  0  0  0  0  0  0  0  0
   34.4450   29.5960   47.4840 N   0  0  0  0  0  0  0  0  0  0  0  0
   34.3970   28.5160   48.2880 C   0  0  0  0  0  0  0  0  0  0  0  0
   35.3530   28.3490   49.2270 N   0  0  0  0  0  0  0  0  0  0  0  0
   37.0770   29.0500   50.1320 H   0  0  0  0  0  0  0  0  0  0  0  0
   35.4270   31.3740   46.9240 H   0  0  0  0  0  0  0  0  0  0  0  0
   33.3350   27.5450   48.1520 C   0  0  0  0  0  0  0  0  0  0  0  0
   33.5520   26.3460   47.5450 C   0  0  0  0  0  0  0  0  0  0  0  0
   32.6070   25.3680   47.3710 C   0  0  0  0  0  0  0  0  0  0  0  0
   31.3680   25.7040   47.8810 C   0  0  0  0  0  0  0  0  0  0  0  0
   31.0700   26.9310   48.5240 C   0  0  0  0  0  0  0  0  0  0  0  0
   32.1130   27.8130   48.6250 N   0  0  0  0  0  0  0  0  0  0  0  0
   34.5670   26.1540   47.1660 H   0  0  0  0  0  0  0  0  0  0  0  0
   32.7540   24.4240   46.9010 H   0  0  0  0  0  0  0  0  0  0  0  0
   30.5290   25.0110   47.8070 H   0  0  0  0  0  0  0  0  0  0  0  0
   30.0890   27.1200   48.8910 H   0  0  0  0  0  0  0  0  0  0  0  0
  1  2  1  0  0  0  0
  2  7  1  0  0  0  0
  2  3  1  0  0  0  0
  2  8  1  0  0  0  0
  3 10  1  0  0  0  0
  4 12  1  0  0  0  0
  4 11  1  0  0  0  0
  4  3  1  0  0  0  0
  5  4  1  0  0  0  0
  6 15  1  6  0  0  0
  6  5  1  0  0  0  0
  6  1  1  0  0  0  0
  9  3  1  0  0  0  0
 13  5  1  0  0  0  0
 14  5  1  0  0  0  0
 16 17  1  0  0  0  0
 17  6  1  0  0  0  0
 18 17  2  0  0  0  0
 19 18  1  0  0  0  0
 20 18  1  0  0  0  0
 21 20  1  0  0  0  0
 22 21  1  0  0  0  0
 23 24  2  0  0  0  0
 23 21  1  0  0  0  0
 24 26  1  0  0  0  0
 25 24  1  0  0  0  0
 26 20  2  0  0  0  0
 26 27  1  0  0  0  0
 27 16  2  0  0  0  0
 28 34  1  0  0  0  0
 29  1  1  0  0  0  0
 29 28  2  0  0  0  0
 30 29  1  0  0  0  0
 31 30  2  0  0  0  0
 31 32  1  0  0  0  0
 32 33  2  0  0  0  0
 33 28  1  0  0  0  0
 35 30  1  0  0  0  0
 36 32  1  0  0  0  0
 36 41  1  0  0  0  0
 37 36  2  0  0  0  0
 38 37  1  0  0  0  0
 38 39  2  0  0  0  0
 39 40  1  0  0  0  0
 40 41  2  0  0  0  0
 40 45  1  0  0  0  0
 42 37  1  0  0  0  0
 43 38  1  0  0  0  0
 44 39  1  0  0  0  0
M  END
>  <minimizedAffinity>
-6.08698654

>  <minimizedRMSD>
2.27338934

$$$$
