
 OpenBabel03272508303D

 35 38  0  0  1  0  0  0  0  0999 V2000
   35.3060   30.0180   47.2190 N   0  0  0  0  0  0  0  0  0  0  0  0
   34.1170   30.1380   46.3830 C   0  0  0  0  0  0  0  0  0  0  0  0
   34.4390   30.3380   44.9500 C   0  0  0  0  0  0  0  0  0  0  0  0
   35.6880   29.6780   44.6600 N   0  0  0  0  0  0  0  0  0  0  0  0
   36.7070   30.5220   45.2710 C   0  0  0  0  0  0  0  0  0  0  0  0
   36.6720   30.1770   46.7370 C   0  0  1  0  0  0  0  0  0  0  0  0
   33.4070   30.8780   46.8030 H   0  0  0  0  0  0  0  0  0  0  0  0
   33.5940   29.1500   46.4900 H   0  0  0  0  0  0  0  0  0  0  0  0
   33.6480   29.9480   44.2880 H   0  0  0  0  0  0  0  0  0  0  0  0
   34.5720   31.4170   44.6780 H   0  0  0  0  0  0  0  0  0  0  0  0
   35.8500   29.6670   43.6320 H   0  0  0  0  0  0  0  0  0  0  0  0
   37.7050   30.3060   44.8560 H   0  0  0  0  0  0  0  0  0  0  0  0
   36.4390   31.6020   45.1990 H   0  0  0  0  0  0  0  0  0  0  0  0
   37.1920   29.2290   46.8930 H   0  0  0  0  0  0  0  0  0  0  0  0
   37.1980   31.5570   48.7870 C   0  0  0  0  0  0  0  0  0  0  0  0
   37.3970   31.2510   47.4530 C   0  0  0  0  0  0  0  0  0  0  0  0
   38.3390   32.0120   46.7610 C   0  0  0  0  0  0  0  0  0  0  0  0
   38.5650   31.8480   45.7140 H   0  0  0  0  0  0  0  0  0  0  0  0
   39.0310   33.0240   47.4110 C   0  0  0  0  0  0  0  0  0  0  0  0
   39.9810   33.9190   47.0430 N   0  0  0  0  0  0  0  0  0  0  0  0
   40.4010   34.0090   46.1010 H   0  0  0  0  0  0  0  0  0  0  0  0
   40.3180   34.6880   48.0610 N   0  0  0  0  0  0  0  0  0  0  0  0
   39.6140   34.3450   49.1520 C   0  0  0  0  0  0  0  0  0  0  0  0
   39.6680   34.7900   50.1400 H   0  0  0  0  0  0  0  0  0  0  0  0
   38.8110   33.3040   48.7400 C   0  0  0  0  0  0  0  0  0  0  0  0
   37.8890   32.5660   49.4290 C   0  0  0  0  0  0  0  0  0  0  0  0
   35.9960   28.8280   49.2550 C   0  0  0  0  0  0  0  0  0  0  0  0
   35.1220   29.7280   48.5970 C   0  0  0  0  0  0  0  0  0  0  0  0
   34.1040   30.2970   49.3420 C   0  0  0  0  0  0  0  0  0  0  0  0
   33.9980   29.9600   50.6700 N   0  0  0  0  0  0  0  0  0  0  0  0
   34.8600   29.0930   51.2530 C   0  0  0  0  0  0  0  0  0  0  0  0
   35.8740   28.5140   50.5520 N   0  0  0  0  0  0  0  0  0  0  0  0
   36.8140   28.3530   48.7100 H   0  0  0  0  0  0  0  0  0  0  0  0
   33.4110   30.9880   48.8890 H   0  0  0  0  0  0  0  0  0  0  0  0
   34.6600   28.9200   52.3030 H   0  0  0  0  0  0  0  0  0  0  0  0
  1 28  1  0  0  0  0
  2  8  1  0  0  0  0
  2  7  1  0  0  0  0
  2  1  1  0  0  0  0
  3  2  1  0  0  0  0
  4  3  1  0  0  0  0
  4  5  1  0  0  0  0
  5  6  1  0  0  0  0
  6 14  1  1  0  0  0
  6  1  1  0  0  0  0
  6 16  1  0  0  0  0
  9  3  1  0  0  0  0
 10  3  1  0  0  0  0
 11  4  1  0  0  0  0
 12  5  1  0  0  0  0
 13  5  1  0  0  0  0
 15 26  1  0  0  0  0
 16 15  2  0  0  0  0
 17 19  2  0  0  0  0
 17 16  1  0  0  0  0
 18 17  1  0  0  0  0
 19 25  1  0  0  0  0
 20 19  1  0  0  0  0
 20 22  1  0  0  0  0
 21 20  1  0  0  0  0
 22 23  2  0  0  0  0
 23 24  1  0  0  0  0
 25 23  1  0  0  0  0
 25 26  2  0  0  0  0
 27 32  1  0  0  0  0
 28 27  2  0  0  0  0
 28 29  1  0  0  0  0
 29 30  2  0  0  0  0
 30 31  1  0  0  0  0
 31 35  1  0  0  0  0
 32 31  2  0  0  0  0
 33 27  1  0  0  0  0
 34 29  1  0  0  0  0
M  END
>  <minimizedAffinity>
-4.89810658

>  <minimizedRMSD>
3.84290457

$$$$
