
 OpenBabel03272509073D

 43 47  0  0  0  0  0  0  0  0999 V2000
   33.6050   26.9940   46.8590 C   0  0  0  0  0  0  0  0  0  0  0  0
   33.7800   25.6790   47.2850 C   0  0  0  0  0  0  0  0  0  0  0  0
   34.1740   24.6980   46.4160 C   0  0  0  0  0  0  0  0  0  0  0  0
   34.4110   24.9760   45.0910 C   0  0  0  0  0  0  0  0  0  0  0  0
   34.2410   26.2720   44.6610 C   0  0  0  0  0  0  0  0  0  0  0  0
   33.8430   27.2840   45.5230 C   0  0  0  0  0  0  0  0  0  0  0  0
   33.5710   25.5580   48.3380 H   0  0  0  0  0  0  0  0  0  0  0  0
   34.2570   23.7510   46.9130 H   0  0  0  0  0  0  0  0  0  0  0  0
   34.7180   24.1400   44.4840 H   0  0  0  0  0  0  0  0  0  0  0  0
   34.4590   26.3620   43.5930 H   0  0  0  0  0  0  0  0  0  0  0  0
   32.7510   29.1450   44.1290 C   0  0  0  0  0  3  0  0  0  0  0  0
   33.7690   28.5400   44.7990 C   0  0  0  0  0  0  0  0  0  0  0  0
   34.9730   29.2590   44.7500 C   0  0  0  0  0  0  0  0  0  0  0  0
   35.8770   28.8860   45.2500 H   0  0  0  0  0  0  0  0  0  0  0  0
   35.1700   30.4620   44.1040 C   0  0  0  0  0  0  0  0  0  0  0  0
   36.2070   31.2870   43.9410 N   0  0  0  0  0  0  0  0  0  0  0  0
   37.1690   31.1420   44.3250 H   0  0  0  0  0  0  0  0  0  0  0  0
   35.7980   32.3120   43.2120 N   0  0  0  0  0  0  0  0  0  0  0  0
   34.4980   32.1960   42.8770 C   0  0  0  0  0  0  0  0  0  0  0  0
   33.8640   32.8510   42.2960 H   0  0  0  0  0  0  0  0  0  0  0  0
   34.0970   31.0190   43.4440 C   0  0  0  0  0  0  0  0  0  0  0  0
   32.8960   30.3430   43.4700 C   0  0  0  0  0  3  0  0  0  0  0  0
   33.1730   28.1230   47.7260 C   0  0  0  0  0  0  0  0  0  0  0  0
   32.5320   27.6580   48.5250 H   0  0  0  0  0  0  0  0  0  0  0  0
   32.5140   28.7870   47.1750 H   0  0  0  0  0  0  0  0  0  0  0  0
   34.9930   28.4250   49.4290 C   0  0  0  0  0  3  0  0  0  0  0  0
   34.2820   28.8230   48.4030 C   0  0  0  0  0  3  0  0  0  0  0  0
   37.3890   30.1670   51.5630 C   0  0  0  0  0  0  0  0  0  0  0  0
   38.0970   30.9390   50.6230 C   0  0  0  0  0  0  0  0  0  0  0  0
   37.7250   30.8430   49.2740 C   0  0  0  0  0  0  0  0  0  0  0  0
   36.6890   29.9990   48.9480 N   0  0  0  0  0  0  0  0  0  0  0  0
   36.0540   29.2860   49.9080 C   0  0  0  0  0  0  0  0  0  0  0  0
   36.3890   29.3620   51.1880 N   0  0  0  0  0  0  0  0  0  0  0  0
   37.6580   30.2260   52.5980 H   0  0  0  0  0  0  0  0  0  0  0  0
   38.8970   31.5860   50.8940 H   0  0  0  0  0  0  0  0  0  0  0  0
   38.3880   31.6020   48.2130 C   0  0  0  0  0  0  0  0  0  0  0  0
   38.6050   31.0850   46.9560 C   0  0  0  0  0  0  0  0  0  0  0  0
   39.2550   32.0770   46.2060 C   0  0  0  0  0  0  0  0  0  0  0  0
   39.4010   33.1390   47.0350 N   0  0  0  0  0  0  0  0  0  0  0  0
   38.8840   32.8500   48.2240 N   0  0  0  0  0  0  0  0  0  0  0  0
   38.3450   30.1110   46.5710 H   0  0  0  0  0  0  0  0  0  0  0  0
   39.5580   31.9650   45.1720 H   0  0  0  0  0  0  0  0  0  0  0  0
   39.8560   34.0140   46.7240 H   0  0  0  0  0  0  0  0  0  0  0  0
  1  2  1  0  0  0  0
  1 23  1  0  0  0  0
  2  7  1  0  0  0  0
  3  8  1  0  0  0  0
  3  2  2  0  0  0  0
  4  3  1  0  0  0  0
  5  4  2  0  0  0  0
  5  6  1  0  0  0  0
  6  1  2  0  0  0  0
  9  4  1  0  0  0  0
 10  5  1  0  0  0  0
 11 12  1  0  0  0  0
 12  6  1  0  0  0  0
 13 12  2  0  0  0  0
 13 14  1  0  0  0  0
 15 13  1  0  0  0  0
 16 15  1  0  0  0  0
 16 17  1  0  0  0  0
 18 16  1  0  0  0  0
 19 18  2  0  0  0  0
 19 21  1  0  0  0  0
 20 19  1  0  0  0  0
 21 22  1  0  0  0  0
 21 15  2  0  0  0  0
 22 11  2  0  0  0  0
 23 27  1  0  0  0  0
 23 24  1  0  0  0  0
 25 23  1  0  0  0  0
 26 32  1  0  0  0  0
 27 26  2  0  0  0  0
 28 34  1  0  0  0  0
 29 35  1  0  0  0  0
 29 28  2  0  0  0  0
 30 29  1  0  0  0  0
 31 30  2  0  0  0  0
 31 32  1  0  0  0  0
 32 33  2  0  0  0  0
 33 28  1  0  0  0  0
 36 40  2  0  0  0  0
 36 30  1  0  0  0  0
 37 36  1  0  0  0  0
 38 37  2  0  0  0  0
 38 39  1  0  0  0  0
 39 40  1  0  0  0  0
 41 37  1  0  0  0  0
 42 38  1  0  0  0  0
 43 39  1  0  0  0  0
M  END
>  <minimizedAffinity>
-6.76178217

>  <minimizedRMSD>
0.680196464

$$$$
