
 OpenBabel03272507113D

 30 33  0  0  0  0  0  0  0  0999 V2000
   38.0510   25.3240   35.7850 C   0  0  0  0  0  0  0  0  0  0  0  0
   38.3520   26.5180   36.3610 C   0  0  0  0  0  0  0  0  0  0  0  0
   38.1970   27.5040   35.3760 C   0  0  0  0  0  0  0  0  0  0  0  0
   37.7970   26.8090   34.2260 C   0  0  0  0  0  0  0  0  0  0  0  0
   37.7340   25.5430   34.5400 O   0  0  0  0  0  0  0  0  0  0  0  0
   38.6580   26.7170   37.3890 H   0  0  0  0  0  0  0  0  0  0  0  0
   38.3740   28.5590   35.5700 H   0  0  0  0  0  0  0  0  0  0  0  0
   36.5670   28.4660   32.8240 C   0  0  0  0  0  3  0  0  0  0  0  0
   37.5280   27.4840   32.9590 C   0  0  0  0  0  0  0  0  0  0  0  0
   38.2960   27.0830   31.8840 C   0  0  0  0  0  0  0  0  0  0  0  0
   39.0660   26.3080   31.9500 H   0  0  0  0  0  0  0  0  0  0  0  0
   38.0870   27.6850   30.6590 C   0  0  0  0  0  0  0  0  0  0  0  0
   38.6770   27.4940   29.4700 N   0  0  0  0  0  0  0  0  0  0  0  0
   39.4270   26.8390   29.2350 H   0  0  0  0  0  0  0  0  0  0  0  0
   38.1020   28.3380   28.6040 N   0  0  0  0  0  0  0  0  0  0  0  0
   37.1600   29.0510   29.2450 C   0  0  0  0  0  0  0  0  0  0  0  0
   36.5400   29.8150   28.7590 H   0  0  0  0  0  0  0  0  0  0  0  0
   37.1150   28.6640   30.5700 C   0  0  0  0  0  0  0  0  0  0  0  0
   36.3320   29.0830   31.6330 C   0  0  0  0  0  3  0  0  0  0  0  0
   38.1090   24.0740   36.5280 C   0  0  0  0  0  0  0  0  0  0  0  0
   37.1490   23.7560   37.2640 O   0  0  0  0  0  0  0  0  0  0  0  0
   39.2900   23.2610   36.3690 C   0  0  0  0  0  0  0  0  0  0  0  0
   39.8720   22.7460   37.5190 C   0  0  0  0  0  0  0  0  0  0  0  0
   41.0140   21.9550   37.4120 C   0  0  0  0  0  0  0  0  0  0  0  0
   41.4970   21.7340   36.1550 N   0  0  0  0  0  0  0  0  0  0  0  0
   40.9290   22.2360   35.0610 C   0  0  0  0  0  0  0  0  0  0  0  0
   39.8280   22.9960   35.1760 N   0  0  0  0  0  0  0  0  0  0  0  0
   39.4770   22.9290   38.5290 H   0  0  0  0  0  0  0  0  0  0  0  0
   41.4980   21.5350   38.2820 H   0  0  0  0  0  0  0  0  0  0  0  0
   41.3010   22.0690   34.0580 H   0  0  0  0  0  0  0  0  0  0  0  0
  1  2  2  0  0  0  0
  1 20  1  0  0  0  0
  2  6  1  0  0  0  0
  3  7  1  0  0  0  0
  3  2  1  0  0  0  0
  4  5  1  0  0  0  0
  4  3  2  0  0  0  0
  5  1  1  0  0  0  0
  8  9  1  0  0  0  0
  9  4  1  0  0  0  0
 10 11  1  0  0  0  0
 10  9  2  0  0  0  0
 12 10  1  0  0  0  0
 13 12  1  0  0  0  0
 14 13  1  0  0  0  0
 15 16  2  0  0  0  0
 15 13  1  0  0  0  0
 16 18  1  0  0  0  0
 17 16  1  0  0  0  0
 18 12  2  0  0  0  0
 18 19  1  0  0  0  0
 19  8  2  0  0  0  0
 20 21  2  0  0  0  0
 22 20  1  0  0  0  0
 22 23  1  0  0  0  0
 23 28  1  0  0  0  0
 24 23  2  0  0  0  0
 24 29  1  0  0  0  0
 25 24  1  0  0  0  0
 26 27  1  0  0  0  0
 26 25  2  0  0  0  0
 27 22  2  0  0  0  0
 30 26  1  0  0  0  0
M  END
>  <minimizedAffinity>
-5.74509859

$$$$

 OpenBabel03272507113D

 30 33  0  0  0  0  0  0  0  0999 V2000
   36.4000   27.8810   32.4550 C   0  0  0  0  0  0  0  0  0  0  0  0
   37.0890   27.4110   33.5290 C   0  0  0  0  0  0  0  0  0  0  0  0
   36.7320   28.2070   34.6290 C   0  0  0  0  0  0  0  0  0  0  0  0
   35.8160   29.1390   34.1220 C   0  0  0  0  0  0  0  0  0  0  0  0
   35.6720   28.8880   32.8480 O   0  0  0  0  0  0  0  0  0  0  0  0
   37.7920   26.5790   33.5730 H   0  0  0  0  0  0  0  0  0  0  0  0
   37.1410   28.0470   35.6240 H   0  0  0  0  0  0  0  0  0  0  0  0
   35.9320   31.0950   35.6660 C   0  0  0  0  0  3  0  0  0  0  0  0
   35.1980   30.1620   34.9600 C   0  0  0  0  0  0  0  0  0  0  0  0
   33.8180   30.1500   35.0130 C   0  0  0  0  0  0  0  0  0  0  0  0
   33.2010   29.4270   34.4700 H   0  0  0  0  0  0  0  0  0  0  0  0
   33.1770   31.0940   35.7910 C   0  0  0  0  0  0  0  0  0  0  0  0
   31.8740   31.3080   36.0210 N   0  0  0  0  0  0  0  0  0  0  0  0
   31.0720   30.7920   35.6480 H   0  0  0  0  0  0  0  0  0  0  0  0
   31.7870   32.3540   36.8540 N   0  0  0  0  0  0  0  0  0  0  0  0
   33.0250   32.7900   37.1420 C   0  0  0  0  0  0  0  0  0  0  0  0
   33.2310   33.6390   37.8040 H   0  0  0  0  0  0  0  0  0  0  0  0
   33.9520   32.0080   36.4800 C   0  0  0  0  0  0  0  0  0  0  0  0
   35.3350   32.0410   36.4430 C   0  0  0  0  0  3  0  0  0  0  0  0
   36.5320   27.2830   31.1350 C   0  0  0  0  0  0  0  0  0  0  0  0
   36.5460   28.0230   30.1280 O   0  0  0  0  0  0  0  0  0  0  0  0
   36.6390   25.8460   31.0650 C   0  0  0  0  0  0  0  0  0  0  0  0
   35.4860   25.1050   31.2860 C   0  0  0  0  0  0  0  0  0  0  0  0
   35.5440   23.7140   31.2270 C   0  0  0  0  0  0  0  0  0  0  0  0
   36.7600   23.1580   30.9510 N   0  0  0  0  0  0  0  0  0  0  0  0
   37.8580   23.8810   30.7430 C   0  0  0  0  0  0  0  0  0  0  0  0
   37.7890   25.2210   30.8010 N   0  0  0  0  0  0  0  0  0  0  0  0
   34.5100   25.5610   31.5080 H   0  0  0  0  0  0  0  0  0  0  0  0
   34.6700   23.1020   31.3930 H   0  0  0  0  0  0  0  0  0  0  0  0
   38.8280   23.4530   30.5230 H   0  0  0  0  0  0  0  0  0  0  0  0
  1  5  1  0  0  0  0
  1  2  2  0  0  0  0
  2  6  1  0  0  0  0
  2  3  1  0  0  0  0
  3  7  1  0  0  0  0
  4  3  2  0  0  0  0
  4  9  1  0  0  0  0
  5  4  1  0  0  0  0
  8 19  1  0  0  0  0
  9 10  1  0  0  0  0
  9  8  2  0  0  0  0
 10 12  2  0  0  0  0
 11 10  1  0  0  0  0
 12 13  1  0  0  0  0
 12 18  1  0  0  0  0
 13 15  1  0  0  0  0
 14 13  1  0  0  0  0
 15 16  2  0  0  0  0
 16 17  1  0  0  0  0
 18 16  1  0  0  0  0
 19 18  2  0  0  0  0
 20  1  1  0  0  0  0
 21 20  2  0  0  0  0
 22 20  1  0  0  0  0
 22 23  1  0  0  0  0
 23 28  1  0  0  0  0
 24 23  2  0  0  0  0
 24 29  1  0  0  0  0
 25 24  1  0  0  0  0
 26 27  1  0  0  0  0
 26 25  2  0  0  0  0
 27 22  2  0  0  0  0
 30 26  1  0  0  0  0
M  END
>  <minimizedAffinity>
-5.71968746

$$$$

 OpenBabel03272507113D

 30 33  0  0  0  0  0  0  0  0999 V2000
   38.0580   24.9110   35.9040 C   0  0  0  0  0  0  0  0  0  0  0  0
   38.3570   26.0210   36.6310 C   0  0  0  0  0  0  0  0  0  0  0  0
   38.1590   27.1290   35.7950 C   0  0  0  0  0  0  0  0  0  0  0  0
   37.7380   26.5910   34.5710 C   0  0  0  0  0  0  0  0  0  0  0  0
   37.7030   25.2930   34.7100 O   0  0  0  0  0  0  0  0  0  0  0  0
   38.6890   26.0820   37.6680 H   0  0  0  0  0  0  0  0  0  0  0  0
   38.3270   28.1510   36.1280 H   0  0  0  0  0  0  0  0  0  0  0  0
   38.1590   27.4000   32.2490 C   0  0  0  0  0  3  0  0  0  0  0  0
   37.4230   27.4290   33.4170 C   0  0  0  0  0  0  0  0  0  0  0  0
   36.3330   28.2660   33.5550 C   0  0  0  0  0  0  0  0  0  0  0  0
   35.7260   28.3190   34.4640 H   0  0  0  0  0  0  0  0  0  0  0  0
   35.9870   29.0830   32.4970 C   0  0  0  0  0  0  0  0  0  0  0  0
   34.9970   29.9760   32.3600 N   0  0  0  0  0  0  0  0  0  0  0  0
   34.2780   30.2330   33.0420 H   0  0  0  0  0  0  0  0  0  0  0  0
   35.1050   30.4990   31.1310 N   0  0  0  0  0  0  0  0  0  0  0  0
   36.1540   29.9390   30.5060 C   0  0  0  0  0  0  0  0  0  0  0  0
   36.4590   30.1940   29.4840 H   0  0  0  0  0  0  0  0  0  0  0  0
   36.7520   29.0200   31.3470 C   0  0  0  0  0  0  0  0  0  0  0  0
   37.8480   28.1900   31.1840 C   0  0  0  0  0  3  0  0  0  0  0  0
   38.1550   23.5730   36.4660 C   0  0  0  0  0  0  0  0  0  0  0  0
   37.1670   23.0870   37.0600 O   0  0  0  0  0  0  0  0  0  0  0  0
   39.4060   22.8730   36.3030 C   0  0  0  0  0  0  0  0  0  0  0  0
   40.0860   22.5010   37.4540 C   0  0  0  0  0  0  0  0  0  0  0  0
   41.2980   21.8220   37.3440 C   0  0  0  0  0  0  0  0  0  0  0  0
   41.7480   21.5640   36.0810 N   0  0  0  0  0  0  0  0  0  0  0  0
   41.0850   21.9280   34.9860 C   0  0  0  0  0  0  0  0  0  0  0  0
   39.9170   22.5810   35.1050 N   0  0  0  0  0  0  0  0  0  0  0  0
   39.7170   22.7130   38.4680 H   0  0  0  0  0  0  0  0  0  0  0  0
   41.8590   21.5150   38.2140 H   0  0  0  0  0  0  0  0  0  0  0  0
   41.4300   21.7290   33.9790 H   0  0  0  0  0  0  0  0  0  0  0  0
  1 20  1  0  0  0  0
  1  2  2  0  0  0  0
  2  6  1  0  0  0  0
  3  7  1  0  0  0  0
  3  2  1  0  0  0  0
  4  5  1  0  0  0  0
  4  3  2  0  0  0  0
  5  1  1  0  0  0  0
  8  9  1  0  0  0  0
  9 10  2  0  0  0  0
  9  4  1  0  0  0  0
 10 11  1  0  0  0  0
 12 10  1  0  0  0  0
 13 12  1  0  0  0  0
 13 14  1  0  0  0  0
 15 13  1  0  0  0  0
 16 15  2  0  0  0  0
 16 18  1  0  0  0  0
 17 16  1  0  0  0  0
 18 12  2  0  0  0  0
 19 18  1  0  0  0  0
 19  8  2  0  0  0  0
 20 21  2  0  0  0  0
 22 20  1  0  0  0  0
 22 23  1  0  0  0  0
 23 28  1  0  0  0  0
 24 23  2  0  0  0  0
 24 29  1  0  0  0  0
 25 24  1  0  0  0  0
 26 27  1  0  0  0  0
 26 25  2  0  0  0  0
 27 22  2  0  0  0  0
 30 26  1  0  0  0  0
M  END
>  <minimizedAffinity>
-5.69955349

$$$$

 OpenBabel03272507113D

 30 33  0  0  0  0  0  0  0  0999 V2000
   36.1780   28.5010   33.3130 C   0  0  0  0  0  0  0  0  0  0  0  0
   37.0610   28.2830   32.3020 C   0  0  0  0  0  0  0  0  0  0  0  0
   37.9050   27.2380   32.7080 C   0  0  0  0  0  0  0  0  0  0  0  0
   37.4540   26.8830   33.9880 C   0  0  0  0  0  0  0  0  0  0  0  0
   36.4460   27.6620   34.2730 O   0  0  0  0  0  0  0  0  0  0  0  0
   37.1350   28.7970   31.3430 H   0  0  0  0  0  0  0  0  0  0  0  0
   38.7090   26.8580   32.0830 H   0  0  0  0  0  0  0  0  0  0  0  0
   39.0540   24.9870   34.2540 C   0  0  0  0  0  3  0  0  0  0  0  0
   38.0780   25.8180   34.7680 C   0  0  0  0  0  0  0  0  0  0  0  0
   37.6350   25.6810   36.0690 C   0  0  0  0  0  0  0  0  0  0  0  0
   36.8630   26.3190   36.5120 H   0  0  0  0  0  0  0  0  0  0  0  0
   38.1880   24.6910   36.8560 C   0  0  0  0  0  0  0  0  0  0  0  0
   37.9500   24.3400   38.1280 N   0  0  0  0  0  0  0  0  0  0  0  0
   37.2860   24.7570   38.7850 H   0  0  0  0  0  0  0  0  0  0  0  0
   38.7590   23.3100   38.4110 N   0  0  0  0  0  0  0  0  0  0  0  0
   39.4960   23.0190   37.3260 C   0  0  0  0  0  0  0  0  0  0  0  0
   40.2400   22.2140   37.2940 H   0  0  0  0  0  0  0  0  0  0  0  0
   39.1620   23.8820   36.3000 C   0  0  0  0  0  0  0  0  0  0  0  0
   39.6230   24.0000   35.0000 C   0  0  0  0  0  3  0  0  0  0  0  0
   35.1490   29.5260   33.2280 C   0  0  0  0  0  0  0  0  0  0  0  0
   34.5850   29.7350   32.1310 O   0  0  0  0  0  0  0  0  0  0  0  0
   34.8340   30.2520   34.4330 C   0  0  0  0  0  0  0  0  0  0  0  0
   35.8590   30.9680   35.0370 C   0  0  0  0  0  0  0  0  0  0  0  0
   35.6000   31.6850   36.2030 C   0  0  0  0  0  0  0  0  0  0  0  0
   34.3250   31.6340   36.6880 N   0  0  0  0  0  0  0  0  0  0  0  0
   33.3520   30.9430   36.1000 C   0  0  0  0  0  0  0  0  0  0  0  0
   33.6140   30.2560   34.9750 N   0  0  0  0  0  0  0  0  0  0  0  0
   36.8840   31.0040   34.6390 H   0  0  0  0  0  0  0  0  0  0  0  0
   36.3690   32.2550   36.7030 H   0  0  0  0  0  0  0  0  0  0  0  0
   32.3370   30.8940   36.4730 H   0  0  0  0  0  0  0  0  0  0  0  0
  1  5  1  0  0  0  0
  2  3  1  0  0  0  0
  2  1  2  0  0  0  0
  3  4  2  0  0  0  0
  4  5  1  0  0  0  0
  4  9  1  0  0  0  0
  6  2  1  0  0  0  0
  7  3  1  0  0  0  0
  8  9  2  0  0  0  0
  8 19  1  0  0  0  0
  9 10  1  0  0  0  0
 10 11  1  0  0  0  0
 10 12  2  0  0  0  0
 12 13  1  0  0  0  0
 13 15  1  0  0  0  0
 13 14  1  0  0  0  0
 16 15  2  0  0  0  0
 17 16  1  0  0  0  0
 18 12  1  0  0  0  0
 18 16  1  0  0  0  0
 19 18  2  0  0  0  0
 20  1  1  0  0  0  0
 20 22  1  0  0  0  0
 21 20  2  0  0  0  0
 22 27  2  0  0  0  0
 22 23  1  0  0  0  0
 23 24  2  0  0  0  0
 24 25  1  0  0  0  0
 24 29  1  0  0  0  0
 26 30  1  0  0  0  0
 26 25  2  0  0  0  0
 27 26  1  0  0  0  0
 28 23  1  0  0  0  0
M  END
>  <minimizedAffinity>
-5.64003468

$$$$

 OpenBabel03272507113D

 30 33  0  0  0  0  0  0  0  0999 V2000
   36.5630   25.8460   31.7850 C   0  0  0  0  0  0  0  0  0  0  0  0
   35.3710   25.8570   31.1290 C   0  0  0  0  0  0  0  0  0  0  0  0
   34.9770   24.5210   30.9660 C   0  0  0  0  0  0  0  0  0  0  0  0
   35.9980   23.7650   31.5580 C   0  0  0  0  0  0  0  0  0  0  0  0
   36.8890   24.6050   32.0130 O   0  0  0  0  0  0  0  0  0  0  0  0
   34.7970   26.7160   30.7810 H   0  0  0  0  0  0  0  0  0  0  0  0
   34.0510   24.2410   30.4690 H   0  0  0  0  0  0  0  0  0  0  0  0
   34.9640   21.5960   32.2270 C   0  0  0  0  0  3  0  0  0  0  0  0
   35.9670   22.3050   31.5980 C   0  0  0  0  0  0  0  0  0  0  0  0
   37.0100   21.6590   30.9630 C   0  0  0  0  0  0  0  0  0  0  0  0
   37.8230   22.1860   30.4540 H   0  0  0  0  0  0  0  0  0  0  0  0
   37.0350   20.2790   30.9680 C   0  0  0  0  0  0  0  0  0  0  0  0
   37.9100   19.4110   30.4410 N   0  0  0  0  0  0  0  0  0  0  0  0
   38.7620   19.6150   29.9110 H   0  0  0  0  0  0  0  0  0  0  0  0
   37.4690   18.1800   30.7310 N   0  0  0  0  0  0  0  0  0  0  0  0
   36.3280   18.2770   31.4340 C   0  0  0  0  0  0  0  0  0  0  0  0
   35.7610   17.4100   31.7950 H   0  0  0  0  0  0  0  0  0  0  0  0
   36.0090   19.6090   31.6100 C   0  0  0  0  0  0  0  0  0  0  0  0
   34.9540   20.2340   32.2530 C   0  0  0  0  0  3  0  0  0  0  0  0
   37.2670   27.0730   32.1220 C   0  0  0  0  0  0  0  0  0  0  0  0
   37.1830   28.0570   31.3550 O   0  0  0  0  0  0  0  0  0  0  0  0
   38.0350   27.0840   33.3440 C   0  0  0  0  0  0  0  0  0  0  0  0
   37.3540   27.3320   34.5270 C   0  0  0  0  0  0  0  0  0  0  0  0
   38.0560   27.3510   35.7300 C   0  0  0  0  0  0  0  0  0  0  0  0
   39.4000   27.1190   35.6650 N   0  0  0  0  0  0  0  0  0  0  0  0
   40.0400   26.8830   34.5220 C   0  0  0  0  0  0  0  0  0  0  0  0
   39.3520   26.8670   33.3680 N   0  0  0  0  0  0  0  0  0  0  0  0
   36.2710   27.5170   34.5710 H   0  0  0  0  0  0  0  0  0  0  0  0
   37.5640   27.5400   36.6730 H   0  0  0  0  0  0  0  0  0  0  0  0
   41.1050   26.6980   34.4560 H   0  0  0  0  0  0  0  0  0  0  0  0
  1  5  1  0  0  0  0
  1 20  1  0  0  0  0
  2  1  2  0  0  0  0
  3  2  1  0  0  0  0
  3  4  2  0  0  0  0
  4  9  1  0  0  0  0
  4  5  1  0  0  0  0
  6  2  1  0  0  0  0
  7  3  1  0  0  0  0
  8 19  1  0  0  0  0
  9  8  2  0  0  0  0
 10 12  2  0  0  0  0
 10  9  1  0  0  0  0
 11 10  1  0  0  0  0
 12 18  1  0  0  0  0
 13 15  1  0  0  0  0
 13 12  1  0  0  0  0
 14 13  1  0  0  0  0
 15 16  2  0  0  0  0
 16 18  1  0  0  0  0
 16 17  1  0  0  0  0
 18 19  2  0  0  0  0
 20 22  1  0  0  0  0
 21 20  2  0  0  0  0
 22 27  2  0  0  0  0
 22 23  1  0  0  0  0
 23 28  1  0  0  0  0
 23 24  2  0  0  0  0
 24 29  1  0  0  0  0
 25 24  1  0  0  0  0
 26 25  2  0  0  0  0
 27 26  1  0  0  0  0
 30 26  1  0  0  0  0
M  END
>  <minimizedAffinity>
-5.57996941

$$$$

 OpenBabel03272507113D

 30 33  0  0  0  0  0  0  0  0999 V2000
   38.1170   25.1220   34.0830 C   0  0  0  0  0  0  0  0  0  0  0  0
   39.1890   25.7520   33.5310 C   0  0  0  0  0  0  0  0  0  0  0  0
   38.7690   27.0390   33.1660 C   0  0  0  0  0  0  0  0  0  0  0  0
   37.4180   27.1010   33.5380 C   0  0  0  0  0  0  0  0  0  0  0  0
   37.1090   25.9470   34.0660 O   0  0  0  0  0  0  0  0  0  0  0  0
   40.1980   25.3670   33.3820 H   0  0  0  0  0  0  0  0  0  0  0  0
   39.4330   27.7610   32.6980 H   0  0  0  0  0  0  0  0  0  0  0  0
   35.9580   28.9530   34.3520 C   0  0  0  0  0  3  0  0  0  0  0  0
   36.6030   28.2930   33.3250 C   0  0  0  0  0  0  0  0  0  0  0  0
   36.5070   28.7350   32.0200 C   0  0  0  0  0  0  0  0  0  0  0  0
   37.0020   28.2400   31.1780 H   0  0  0  0  0  0  0  0  0  0  0  0
   35.7490   29.8590   31.7550 C   0  0  0  0  0  0  0  0  0  0  0  0
   35.4870   30.4950   30.6050 N   0  0  0  0  0  0  0  0  0  0  0  0
   35.8150   30.2600   29.6640 H   0  0  0  0  0  0  0  0  0  0  0  0
   34.6950   31.5340   30.8990 N   0  0  0  0  0  0  0  0  0  0  0  0
   34.4620   31.5480   32.2230 C   0  0  0  0  0  0  0  0  0  0  0  0
   33.8410   32.3010   32.7230 H   0  0  0  0  0  0  0  0  0  0  0  0
   35.1210   30.4870   32.8150 C   0  0  0  0  0  0  0  0  0  0  0  0
   35.2020   30.0630   34.1300 C   0  0  0  0  0  3  0  0  0  0  0  0
   38.1980   23.7560   34.5770 C   0  0  0  0  0  0  0  0  0  0  0  0
   37.9760   22.8080   33.7920 O   0  0  0  0  0  0  0  0  0  0  0  0
   38.5340   23.5710   35.9680 C   0  0  0  0  0  0  0  0  0  0  0  0
   37.6720   24.1110   36.9130 C   0  0  0  0  0  0  0  0  0  0  0  0
   37.9580   23.9560   38.2680 C   0  0  0  0  0  0  0  0  0  0  0  0
   39.0940   23.2690   38.5840 N   0  0  0  0  0  0  0  0  0  0  0  0
   39.9120   22.7570   37.6680 C   0  0  0  0  0  0  0  0  0  0  0  0
   39.6260   22.9130   36.3640 N   0  0  0  0  0  0  0  0  0  0  0  0
   36.7590   24.6630   36.6490 H   0  0  0  0  0  0  0  0  0  0  0  0
   37.3130   24.3600   39.0340 H   0  0  0  0  0  0  0  0  0  0  0  0
   40.8160   22.2100   37.9050 H   0  0  0  0  0  0  0  0  0  0  0  0
  1 20  1  0  0  0  0
  2  1  2  0  0  0  0
  3  2  1  0  0  0  0
  3  4  2  0  0  0  0
  4  5  1  0  0  0  0
  5  1  1  0  0  0  0
  6  2  1  0  0  0  0
  7  3  1  0  0  0  0
  9  4  1  0  0  0  0
  9  8  2  0  0  0  0
 10  9  1  0  0  0  0
 11 10  1  0  0  0  0
 12 10  2  0  0  0  0
 12 18  1  0  0  0  0
 13 15  1  0  0  0  0
 13 12  1  0  0  0  0
 14 13  1  0  0  0  0
 15 16  2  0  0  0  0
 16 17  1  0  0  0  0
 16 18  1  0  0  0  0
 18 19  2  0  0  0  0
 19  8  1  0  0  0  0
 20 22  1  0  0  0  0
 21 20  2  0  0  0  0
 22 27  2  0  0  0  0
 22 23  1  0  0  0  0
 23 24  2  0  0  0  0
 24 25  1  0  0  0  0
 24 29  1  0  0  0  0
 26 30  1  0  0  0  0
 26 25  2  0  0  0  0
 27 26  1  0  0  0  0
 28 23  1  0  0  0  0
M  END
>  <minimizedAffinity>
-5.57990265

$$$$

 OpenBabel03272507113D

 30 33  0  0  0  0  0  0  0  0999 V2000
   36.1490   28.5000   33.4440 C   0  0  0  0  0  0  0  0  0  0  0  0
   36.8640   28.1870   32.3300 C   0  0  0  0  0  0  0  0  0  0  0  0
   37.7060   27.1170   32.6660 C   0  0  0  0  0  0  0  0  0  0  0  0
   37.4300   26.8460   34.0140 C   0  0  0  0  0  0  0  0  0  0  0  0
   36.5130   27.6930   34.3990 O   0  0  0  0  0  0  0  0  0  0  0  0
   36.8210   28.6520   31.3440 H   0  0  0  0  0  0  0  0  0  0  0  0
   38.3910   26.6650   31.9530 H   0  0  0  0  0  0  0  0  0  0  0  0
   39.1320   25.0330   34.2100 C   0  0  0  0  0  3  0  0  0  0  0  0
   38.1100   25.7850   34.7520 C   0  0  0  0  0  0  0  0  0  0  0  0
   37.6690   25.5680   36.0430 C   0  0  0  0  0  0  0  0  0  0  0  0
   36.8610   26.1420   36.5080 H   0  0  0  0  0  0  0  0  0  0  0  0
   38.2730   24.5770   36.7910 C   0  0  0  0  0  0  0  0  0  0  0  0
   38.0500   24.1590   38.0450 N   0  0  0  0  0  0  0  0  0  0  0  0
   37.3600   24.5100   38.7150 H   0  0  0  0  0  0  0  0  0  0  0  0
   38.9130   23.1640   38.2890 N   0  0  0  0  0  0  0  0  0  0  0  0
   39.6700   22.9610   37.1970 C   0  0  0  0  0  0  0  0  0  0  0  0
   40.4580   22.2010   37.1370 H   0  0  0  0  0  0  0  0  0  0  0  0
   39.2930   23.8480   36.2070 C   0  0  0  0  0  0  0  0  0  0  0  0
   39.7520   24.0470   34.9160 C   0  0  0  0  0  3  0  0  0  0  0  0
   35.1690   29.5760   33.4530 C   0  0  0  0  0  0  0  0  0  0  0  0
   34.0130   29.3520   33.0320 O   0  0  0  0  0  0  0  0  0  0  0  0
   35.5970   30.8590   33.9540 C   0  0  0  0  0  0  0  0  0  0  0  0
   35.7130   31.0030   35.3300 C   0  0  0  0  0  0  0  0  0  0  0  0
   36.1240   32.2260   35.8580 C   0  0  0  0  0  0  0  0  0  0  0  0
   36.3890   33.2250   34.9670 N   0  0  0  0  0  0  0  0  0  0  0  0
   36.2720   33.0730   33.6500 C   0  0  0  0  0  0  0  0  0  0  0  0
   35.8760   31.8890   33.1530 N   0  0  0  0  0  0  0  0  0  0  0  0
   35.4970   30.1920   36.0410 H   0  0  0  0  0  0  0  0  0  0  0  0
   36.2270   32.3790   36.9220 H   0  0  0  0  0  0  0  0  0  0  0  0
   36.4800   33.8570   32.9320 H   0  0  0  0  0  0  0  0  0  0  0  0
  1 20  1  0  0  0  0
  1  5  1  0  0  0  0
  2  3  1  0  0  0  0
  2  1  2  0  0  0  0
  3  4  2  0  0  0  0
  4  5  1  0  0  0  0
  4  9  1  0  0  0  0
  6  2  1  0  0  0  0
  7  3  1  0  0  0  0
  8  9  2  0  0  0  0
  8 19  1  0  0  0  0
  9 10  1  0  0  0  0
 10 11  1  0  0  0  0
 10 12  2  0  0  0  0
 12 13  1  0  0  0  0
 13 15  1  0  0  0  0
 13 14  1  0  0  0  0
 16 15  2  0  0  0  0
 17 16  1  0  0  0  0
 18 12  1  0  0  0  0
 18 16  1  0  0  0  0
 19 18  2  0  0  0  0
 20 22  1  0  0  0  0
 21 20  2  0  0  0  0
 22 23  1  0  0  0  0
 23 24  2  0  0  0  0
 23 28  1  0  0  0  0
 24 29  1  0  0  0  0
 25 24  1  0  0  0  0
 26 25  2  0  0  0  0
 27 26  1  0  0  0  0
 27 22  2  0  0  0  0
 30 26  1  0  0  0  0
M  END
>  <minimizedAffinity>
-5.49869156

$$$$

 OpenBabel03272507113D

 30 33  0  0  0  0  0  0  0  0999 V2000
   36.0180   28.7090   33.5870 C   0  0  0  0  0  0  0  0  0  0  0  0
   36.6610   28.3840   32.4340 C   0  0  0  0  0  0  0  0  0  0  0  0
   37.4750   27.2750   32.7130 C   0  0  0  0  0  0  0  0  0  0  0  0
   37.2570   26.9960   34.0700 C   0  0  0  0  0  0  0  0  0  0  0  0
   36.3960   27.8730   34.5130 O   0  0  0  0  0  0  0  0  0  0  0  0
   36.5890   28.8650   31.4580 H   0  0  0  0  0  0  0  0  0  0  0  0
   38.1040   26.8070   31.9600 H   0  0  0  0  0  0  0  0  0  0  0  0
   38.8460   25.0740   34.1370 C   0  0  0  0  0  3  0  0  0  0  0  0
   37.9280   25.8970   34.7590 C   0  0  0  0  0  0  0  0  0  0  0  0
   37.5930   25.7200   36.0870 C   0  0  0  0  0  0  0  0  0  0  0  0
   36.8700   26.3510   36.6150 H   0  0  0  0  0  0  0  0  0  0  0  0
   38.1950   24.6970   36.7910 C   0  0  0  0  0  0  0  0  0  0  0  0
   38.0590   24.3040   38.0660 N   0  0  0  0  0  0  0  0  0  0  0  0
   37.4580   24.7060   38.7900 H   0  0  0  0  0  0  0  0  0  0  0  0
   38.8730   23.2560   38.2450 N   0  0  0  0  0  0  0  0  0  0  0  0
   39.5130   22.9950   37.0930 C   0  0  0  0  0  0  0  0  0  0  0  0
   40.2400   22.1820   36.9720 H   0  0  0  0  0  0  0  0  0  0  0  0
   39.1080   23.8970   36.1280 C   0  0  0  0  0  0  0  0  0  0  0  0
   39.4600   24.0540   34.7990 C   0  0  0  0  0  3  0  0  0  0  0  0
   35.0850   29.8220   33.6600 C   0  0  0  0  0  0  0  0  0  0  0  0
   35.5140   30.9890   33.5230 O   0  0  0  0  0  0  0  0  0  0  0  0
   33.6950   29.5110   33.8910 C   0  0  0  0  0  0  0  0  0  0  0  0
   33.2120   29.6540   35.1840 C   0  0  0  0  0  0  0  0  0  0  0  0
   31.8760   29.3640   35.4520 C   0  0  0  0  0  0  0  0  0  0  0  0
   31.1120   28.9480   34.4000 N   0  0  0  0  0  0  0  0  0  0  0  0
   31.5880   28.8140   33.1650 C   0  0  0  0  0  0  0  0  0  0  0  0
   32.8790   29.0970   32.9190 N   0  0  0  0  0  0  0  0  0  0  0  0
   33.8350   29.9910   36.0260 H   0  0  0  0  0  0  0  0  0  0  0  0
   31.4610   29.4630   36.4440 H   0  0  0  0  0  0  0  0  0  0  0  0
   30.9940   28.4840   32.3220 H   0  0  0  0  0  0  0  0  0  0  0  0
  1 20  1  0  0  0  0
  1  5  1  0  0  0  0
  2  3  1  0  0  0  0
  2  1  2  0  0  0  0
  3  4  2  0  0  0  0
  4  5  1  0  0  0  0
  4  9  1  0  0  0  0
  6  2  1  0  0  0  0
  7  3  1  0  0  0  0
  8  9  2  0  0  0  0
  8 19  1  0  0  0  0
  9 10  1  0  0  0  0
 10 11  1  0  0  0  0
 10 12  2  0  0  0  0
 12 13  1  0  0  0  0
 13 15  1  0  0  0  0
 13 14  1  0  0  0  0
 16 15  2  0  0  0  0
 17 16  1  0  0  0  0
 18 12  1  0  0  0  0
 18 16  1  0  0  0  0
 19 18  2  0  0  0  0
 20 22  1  0  0  0  0
 21 20  2  0  0  0  0
 22 23  1  0  0  0  0
 23 24  2  0  0  0  0
 23 28  1  0  0  0  0
 24 29  1  0  0  0  0
 25 24  1  0  0  0  0
 26 25  2  0  0  0  0
 27 26  1  0  0  0  0
 27 22  2  0  0  0  0
 30 26  1  0  0  0  0
M  END
>  <minimizedAffinity>
-5.48460245

$$$$

 OpenBabel03272507113D

 30 33  0  0  0  0  0  0  0  0999 V2000
   37.1040   27.7020   32.4210 C   0  0  0  0  0  0  0  0  0  0  0  0
   36.8820   28.6940   31.5180 C   0  0  0  0  0  0  0  0  0  0  0  0
   36.0410   29.6330   32.1340 C   0  0  0  0  0  0  0  0  0  0  0  0
   35.8040   29.1220   33.4180 C   0  0  0  0  0  0  0  0  0  0  0  0
   36.4560   27.9950   33.5130 O   0  0  0  0  0  0  0  0  0  0  0  0
   37.2640   28.7830   30.5010 H   0  0  0  0  0  0  0  0  0  0  0  0
   35.7030   30.5350   31.6300 H   0  0  0  0  0  0  0  0  0  0  0  0
   33.6260   29.5120   34.5710 C   0  0  0  0  0  3  0  0  0  0  0  0
   34.9610   29.8140   34.3900 C   0  0  0  0  0  0  0  0  0  0  0  0
   35.5780   30.8020   35.1320 C   0  0  0  0  0  0  0  0  0  0  0  0
   36.6330   31.0710   35.0170 H   0  0  0  0  0  0  0  0  0  0  0  0
   34.8320   31.4910   36.0670 C   0  0  0  0  0  0  0  0  0  0  0  0
   35.1680   32.4800   36.9080 N   0  0  0  0  0  0  0  0  0  0  0  0
   36.0800   32.9300   37.0220 H   0  0  0  0  0  0  0  0  0  0  0  0
   34.0680   32.7950   37.6050 N   0  0  0  0  0  0  0  0  0  0  0  0
   33.0540   32.0110   37.2040 C   0  0  0  0  0  0  0  0  0  0  0  0
   32.0410   32.0680   37.6200 H   0  0  0  0  0  0  0  0  0  0  0  0
   33.4990   31.1560   36.2150 C   0  0  0  0  0  0  0  0  0  0  0  0
   32.8580   30.1700   35.4840 C   0  0  0  0  0  3  0  0  0  0  0  0
   37.9420   26.5540   32.1130 C   0  0  0  0  0  0  0  0  0  0  0  0
   39.1640   26.7260   31.9090 O   0  0  0  0  0  0  0  0  0  0  0  0
   37.3040   25.2610   32.0590 C   0  0  0  0  0  0  0  0  0  0  0  0
   36.2140   25.1190   31.2110 C   0  0  0  0  0  0  0  0  0  0  0  0
   35.5680   23.8880   31.1270 C   0  0  0  0  0  0  0  0  0  0  0  0
   36.0590   22.8780   31.9030 N   0  0  0  0  0  0  0  0  0  0  0  0
   37.1050   23.0290   32.7130 C   0  0  0  0  0  0  0  0  0  0  0  0
   37.7210   24.2210   32.7850 N   0  0  0  0  0  0  0  0  0  0  0  0
   35.8240   25.9380   30.5890 H   0  0  0  0  0  0  0  0  0  0  0  0
   34.7160   23.7360   30.4800 H   0  0  0  0  0  0  0  0  0  0  0  0
   37.5050   22.2370   33.3330 H   0  0  0  0  0  0  0  0  0  0  0  0
  1  5  1  0  0  0  0
  2  3  1  0  0  0  0
  2  1  2  0  0  0  0
  3  4  2  0  0  0  0
  4  5  1  0  0  0  0
  4  9  1  0  0  0  0
  6  2  1  0  0  0  0
  7  3  1  0  0  0  0
  8 19  1  0  0  0  0
  9  8  2  0  0  0  0
  9 10  1  0  0  0  0
 10 12  2  0  0  0  0
 11 10  1  0  0  0  0
 12 18  1  0  0  0  0
 12 13  1  0  0  0  0
 13 14  1  0  0  0  0
 13 15  1  0  0  0  0
 16 15  2  0  0  0  0
 16 17  1  0  0  0  0
 18 16  1  0  0  0  0
 19 18  2  0  0  0  0
 20  1  1  0  0  0  0
 21 20  2  0  0  0  0
 22 20  1  0  0  0  0
 22 27  1  0  0  0  0
 23 22  2  0  0  0  0
 24 23  1  0  0  0  0
 24 25  2  0  0  0  0
 25 26  1  0  0  0  0
 26 27  2  0  0  0  0
 26 30  1  0  0  0  0
 28 23  1  0  0  0  0
 29 24  1  0  0  0  0
M  END
>  <minimizedAffinity>
-5.4538126

$$$$
