
 OpenBabel03272508113D

 37 40  0  0  0  0  0  0  0  0999 V2000
   36.7180   29.4380   44.0060 Cl  0  0  0  0  0  0  0  0  0  0  0  0
   38.3880   29.8280   43.5320 C   0  0  0  0  0  0  0  0  0  0  0  0
   39.3410   30.3220   44.4060 C   0  0  0  0  0  0  0  0  0  0  0  0
   40.6060   30.5840   43.9050 C   0  0  0  0  0  0  0  0  0  0  0  0
   40.8990   30.3620   42.5850 C   0  0  0  0  0  0  0  0  0  0  0  0
   39.9670   29.8750   41.7080 C   0  0  0  0  0  0  0  0  0  0  0  0
   38.7110   29.6090   42.1880 C   0  0  0  0  0  0  0  0  0  0  0  0
   41.2900   30.9660   44.6470 H   0  0  0  0  0  0  0  0  0  0  0  0
   41.9070   30.5890   42.2600 H   0  0  0  0  0  0  0  0  0  0  0  0
   40.2560   29.7190   40.6750 H   0  0  0  0  0  0  0  0  0  0  0  0
   37.7600   27.7020   41.0350 C   0  0  0  0  0  3  0  0  0  0  0  0
   37.7510   29.0900   41.2130 C   0  0  0  0  0  0  0  0  0  0  0  0
   36.8400   29.7900   40.4490 C   0  0  0  0  0  0  0  0  0  0  0  0
   36.8600   30.8570   40.6130 H   0  0  0  0  0  0  0  0  0  0  0  0
   36.0130   29.1120   39.5810 C   0  0  0  0  0  0  0  0  0  0  0  0
   35.0650   29.5860   38.7520 N   0  0  0  0  0  0  0  0  0  0  0  0
   34.8030   30.5930   38.6400 H   0  0  0  0  0  0  0  0  0  0  0  0
   34.5180   28.5900   38.1030 N   0  0  0  0  0  0  0  0  0  0  0  0
   35.0870   27.4140   38.4810 C   0  0  0  0  0  0  0  0  0  0  0  0
   34.8620   26.4120   38.1340 H   0  0  0  0  0  0  0  0  0  0  0  0
   36.0440   27.7440   39.4260 C   0  0  0  0  0  0  0  0  0  0  0  0
   36.9390   27.0060   40.1690 C   0  0  0  0  0  3  0  0  0  0  0  0
   38.8600   30.4740   45.6710 O   0  0  0  0  0  0  0  0  0  0  0  0
   39.4270   32.5340   47.1280 O   0  0  0  0  0  0  0  0  0  0  0  0
   38.2940   31.8480   46.4450 P   0  0  1  0  0  0  0  0  0  0  0  0
   37.6920   32.8390   45.1860 O   0  0  0  0  0  0  0  0  0  0  0  0
   38.4460   33.2100   44.6630 H   0  0  0  0  0  0  0  0  0  0  0  0
   37.0070   31.4340   47.4750 O   0  0  0  0  0  0  0  0  0  0  0  0
   37.6050   30.5200   51.0010 C   0  0  0  0  0  0  0  0  0  0  0  0
   37.6920   31.3040   49.8510 C   0  0  0  0  0  0  0  0  0  0  0  0
   37.0660   30.8640   48.6950 C   0  0  0  0  0  0  0  0  0  0  0  0
   36.3880   29.6650   48.7520 N   0  0  0  0  0  0  0  0  0  0  0  0
   36.3310   28.9400   49.8870 C   0  0  0  0  0  0  0  0  0  0  0  0
   36.9360   29.3660   51.0050 N   0  0  0  0  0  0  0  0  0  0  0  0
   38.1350   30.9710   51.8410 H   0  0  0  0  0  0  0  0  0  0  0  0
   38.2010   32.2440   49.7370 H   0  0  0  0  0  0  0  0  0  0  0  0
   35.7980   27.9980   49.9270 H   0  0  0  0  0  0  0  0  0  0  0  0
  2  1  1  0  0  0  0
  2  3  1  0  0  0  0
  3 23  1  0  0  0  0
  4  3  2  0  0  0  0
  4  8  1  0  0  0  0
  5  4  1  0  0  0  0
  6  7  1  0  0  0  0
  6  5  2  0  0  0  0
  7  2  2  0  0  0  0
  9  5  1  0  0  0  0
 10  6  1  0  0  0  0
 11 12  1  0  0  0  0
 12  7  1  0  0  0  0
 13 14  1  0  0  0  0
 13 12  2  0  0  0  0
 15 13  1  0  0  0  0
 16 15  1  0  0  0  0
 17 16  1  0  0  0  0
 18 19  2  0  0  0  0
 18 16  1  0  0  0  0
 19 21  1  0  0  0  0
 20 19  1  0  0  0  0
 21 15  2  0  0  0  0
 21 22  1  0  0  0  0
 22 11  2  0  0  0  0
 23 25  1  0  0  0  0
 25 24  2  1  0  0  0
 25 28  1  0  0  0  0
 26 25  1  0  0  0  0
 27 26  1  0  0  0  0
 28 31  1  0  0  0  0
 29 34  1  0  0  0  0
 29 35  1  0  0  0  0
 30 29  2  0  0  0  0
 31 32  2  0  0  0  0
 31 30  1  0  0  0  0
 32 33  1  0  0  0  0
 33 37  1  0  0  0  0
 33 34  2  0  0  0  0
 36 30  1  0  0  0  0
M  END
>  <minimizedAffinity>
-4.80641747

>  <minimizedRMSD>
0.664364398

$$$$
