
 OpenBabel03272505103D

 42 46  0  0  0  0  0  0  0  0999 V2000
   34.0010   29.1810   44.5240 Cl  0  0  0  0  0  0  0  0  0  0  0  0
   33.9340   27.9680   45.7860 C   0  0  0  0  0  0  0  0  0  0  0  0
   33.9690   28.2410   47.1580 C   0  0  0  0  0  0  0  0  0  0  0  0
   33.9100   27.2100   48.0610 C   0  0  0  0  0  0  0  0  0  0  0  0
   33.8180   25.9160   47.6430 C   0  0  0  0  0  0  0  0  0  0  0  0
   33.7790   25.5860   46.2850 C   0  0  0  0  0  0  0  0  0  0  0  0
   33.8400   26.6440   45.3900 C   0  0  0  0  0  0  0  0  0  0  0  0
   33.9430   27.5130   49.1040 H   0  0  0  0  0  0  0  0  0  0  0  0
   33.7750   25.1540   48.3860 H   0  0  0  0  0  0  0  0  0  0  0  0
   33.7060   24.5570   45.9940 H   0  0  0  0  0  0  0  0  0  0  0  0
   35.0020   25.9540   43.3500 C   0  0  0  0  0  0  0  0  0  0  0  0
   33.7960   26.2280   43.9920 C   0  0  0  0  0  0  0  0  0  0  0  0
   32.6570   26.0740   43.2290 C   0  0  0  0  0  0  0  0  0  0  0  0
   31.7280   26.2780   43.7000 H   0  0  0  0  0  0  0  0  0  0  0  0
   32.7190   25.6750   41.9100 C   0  0  0  0  0  0  0  0  0  0  0  0
   31.7510   25.4660   40.9990 N   0  0  0  0  0  0  0  0  0  0  0  0
   30.7030   25.5750   41.1280 H   0  0  0  0  0  0  0  0  0  0  0  0
   32.3030   25.0880   39.8570 N   0  0  0  0  0  0  0  0  0  0  0  0
   33.6460   25.0350   39.9830 C   0  0  0  0  0  0  0  0  0  0  0  0
   34.4170   24.7700   39.2700 H   0  0  0  0  0  0  0  0  0  0  0  0
   33.9210   25.4080   41.2880 C   0  0  0  0  0  0  0  0  0  0  0  0
   35.0740   25.5540   42.0310 C   0  0  0  0  0  0  0  0  0  0  0  0
   34.0910   29.9790   47.5610 S   0  0  0  0  0  0  0  0  0  0  0  0
   36.4400   30.9170   45.7220 Cl  0  0  0  0  0  0  0  0  0  0  0  0
   36.7220   30.8090   47.4430 C   0  0  0  0  0  0  0  0  0  0  0  0
   37.9770   31.1470   47.8970 C   0  0  0  0  0  0  0  0  0  0  0  0
   38.2180   31.0680   49.2600 C   0  0  0  0  0  0  0  0  0  0  0  0
   37.2250   30.6640   50.1080 C   0  0  0  0  0  0  0  0  0  0  0  0
   35.9760   30.3350   49.5830 C   0  0  0  0  0  0  0  0  0  0  0  0
   35.6700   30.3910   48.2520 C   0  0  0  0  0  0  0  0  0  0  0  0
   39.2120   31.3360   49.6140 H   0  0  0  0  0  0  0  0  0  0  0  0
   37.4220   30.6040   51.1700 H   0  0  0  0  0  0  0  0  0  0  0  0
   35.2010   30.0160   50.2790 H   0  0  0  0  0  0  0  0  0  0  0  0
   40.2360   33.3450   46.0650 C   0  0  0  0  0  0  0  0  0  0  0  0
   40.9510   32.4810   45.2170 C   0  0  0  0  0  0  0  0  0  0  0  0
   40.6400   31.1230   45.2880 C   0  0  0  0  0  0  0  0  0  0  0  0
   39.6750   30.7070   46.1600 N   0  0  0  0  0  0  0  0  0  0  0  0
   39.0220   31.5790   46.9490 C   0  0  0  0  0  0  0  0  0  0  0  0
   39.3070   32.8800   46.8940 N   0  0  0  0  0  0  0  0  0  0  0  0
   40.5090   34.3880   45.9780 H   0  0  0  0  0  0  0  0  0  0  0  0
   41.7220   32.7640   44.5110 H   0  0  0  0  0  0  0  0  0  0  0  0
   41.0770   30.3360   44.7250 H   0  0  0  0  0  0  0  0  0  0  0  0
  1  2  1  0  0  0  0
  2  3  1  0  0  0  0
  3 23  1  0  0  0  0
  3  4  2  0  0  0  0
  4  8  1  0  0  0  0
  5  4  1  0  0  0  0
  5  9  1  0  0  0  0
  6  5  2  0  0  0  0
  7  2  2  0  0  0  0
  7  6  1  0  0  0  0
 10  6  1  0  0  0  0
 11 12  1  0  0  0  0
 12  7  1  0  0  0  0
 13 14  1  0  0  0  0
 13 12  2  0  0  0  0
 15 13  1  0  0  0  0
 16 17  1  0  0  0  0
 16 15  1  0  0  0  0
 18 19  2  0  0  0  0
 18 16  1  0  0  0  0
 19 21  1  0  0  0  0
 20 19  1  0  0  0  0
 21 15  2  0  0  0  0
 21 22  1  0  0  0  0
 22 11  2  0  0  0  0
 23 30  1  0  0  0  0
 24 25  1  0  0  0  0
 25 26  2  0  0  0  0
 25 30  1  0  0  0  0
 26 27  1  0  0  0  0
 27 31  1  0  0  0  0
 27 28  2  0  0  0  0
 28 32  1  0  0  0  0
 29 28  1  0  0  0  0
 29 33  1  0  0  0  0
 30 29  2  0  0  0  0
 34 39  1  0  0  0  0
 35 36  1  0  0  0  0
 35 34  2  0  0  0  0
 36 37  2  0  0  0  0
 37 38  1  0  0  0  0
 38 26  1  0  0  0  0
 39 38  2  0  0  0  0
 40 34  1  0  0  0  0
 41 35  1  0  0  0  0
 42 36  1  0  0  0  0
M  END
>  <minimizedAffinity>
-5.7421093

>  <minimizedRMSD>
0.739412904

$$$$
