
 OpenBabel03272509013D

 34 37  0  0  0  0  0  0  0  0999 V2000
   39.3500   31.5310   50.8180 Cl  0  0  0  0  0  0  0  0  0  0  0  0
   37.8400   31.0430   50.1130 C   0  0  0  0  0  0  0  0  0  0  0  0
   37.5060   31.4760   48.8340 C   0  0  0  0  0  0  0  0  0  0  0  0
   36.3220   31.1250   48.2400 C   0  0  0  0  0  0  0  0  0  0  0  0
   35.4140   30.3240   48.8970 C   0  0  0  0  0  0  0  0  0  0  0  0
   35.7030   29.8720   50.1650 C   0  0  0  0  0  0  0  0  0  0  0  0
   34.6410   28.8530   51.1190 Cl  0  0  0  0  0  0  0  0  0  0  0  0
   36.9180   30.2480   50.7380 C   0  0  0  0  0  0  0  0  0  0  0  0
   36.0770   31.4700   47.2420 H   0  0  0  0  0  0  0  0  0  0  0  0
   34.4660   30.0180   48.4740 H   0  0  0  0  0  0  0  0  0  0  0  0
   39.8010   34.2140   47.9910 C   0  0  0  0  0  0  0  0  0  0  0  0
   40.2180   33.8960   46.6910 C   0  0  0  0  0  0  0  0  0  0  0  0
   39.6890   32.7190   46.1290 C   0  0  0  0  0  0  0  0  0  0  0  0
   38.8220   31.9800   46.8700 N   0  0  0  0  0  0  0  0  0  0  0  0
   38.4410   32.3150   48.1160 C   0  0  0  0  0  0  0  0  0  0  0  0
   38.9490   33.4270   48.6340 N   0  0  0  0  0  0  0  0  0  0  0  0
   40.1020   35.0730   48.5730 H   0  0  0  0  0  0  0  0  0  0  0  0
   40.9110   34.5990   46.2530 H   0  0  0  0  0  0  0  0  0  0  0  0
   40.0280   32.5120   45.1430 H   0  0  0  0  0  0  0  0  0  0  0  0
   37.2720   29.7500   52.0960 C   0  0  0  0  0  0  0  0  0  0  0  0
   36.3270   29.5060   52.6250 H   0  0  0  0  0  0  0  0  0  0  0  0
   37.8790   30.5100   52.6360 H   0  0  0  0  0  0  0  0  0  0  0  0
   38.2470   27.9870   50.6510 C   0  0  0  0  0  3  0  0  0  0  0  0
   38.0590   28.5060   51.9360 C   0  0  0  0  0  0  0  0  0  0  0  0
   38.6310   27.8110   52.9740 C   0  0  0  0  0  0  0  0  0  0  0  0
   38.4610   28.2440   53.9410 H   0  0  0  0  0  0  0  0  0  0  0  0
   39.3740   26.6490   52.8480 C   0  0  0  0  0  0  0  0  0  0  0  0
   40.0110   25.8250   53.7120 N   0  0  0  0  0  0  0  0  0  0  0  0
   40.0340   25.9750   54.7580 H   0  0  0  0  0  0  0  0  0  0  0  0
   40.5650   24.8460   53.0170 N   0  0  0  0  0  0  0  0  0  0  0  0
   40.2930   25.0280   51.6960 C   0  0  0  0  0  0  0  0  0  0  0  0
   40.6430   24.3500   50.9260 H   0  0  0  0  0  0  0  0  0  0  0  0
   39.5350   26.1670   51.5440 C   0  0  0  0  0  0  0  0  0  0  0  0
   38.9840   26.8180   50.4610 C   0  0  0  0  0  3  0  0  0  0  0  0
  2  8  1  0  0  0  0
  2  1  1  0  0  0  0
  3  2  2  0  0  0  0
  4  3  1  0  0  0  0
  4  5  2  0  0  0  0
  5  6  1  0  0  0  0
  6  8  2  0  0  0  0
  6  7  1  0  0  0  0
  8 20  1  0  0  0  0
  9  4  1  0  0  0  0
 10  5  1  0  0  0  0
 11 17  1  0  0  0  0
 11 16  1  0  0  0  0
 12 11  2  0  0  0  0
 13 12  1  0  0  0  0
 13 14  2  0  0  0  0
 14 15  1  0  0  0  0
 15 16  2  0  0  0  0
 15  3  1  0  0  0  0
 18 12  1  0  0  0  0
 19 13  1  0  0  0  0
 20 21  1  0  0  0  0
 20 22  1  0  0  0  0
 23 24  1  0  0  0  0
 24 20  1  0  0  0  0
 24 25  2  0  0  0  0
 25 26  1  0  0  0  0
 27 25  1  0  0  0  0
 27 28  1  0  0  0  0
 28 29  1  0  0  0  0
 30 28  1  0  0  0  0
 31 30  2  0  0  0  0
 32 31  1  0  0  0  0
 33 31  1  0  0  0  0
 33 27  2  0  0  0  0
 34 23  2  0  0  0  0
 34 33  1  0  0  0  0
M  END
>  <minimizedAffinity>
0.225826442

>  <minimizedRMSD>
1.59467459

$$$$
