
 OpenBabel03272509013D

 34 37  0  0  0  0  0  0  0  0999 V2000
   38.2700   32.1960   48.6410 Cl  0  0  0  0  0  0  0  0  0  0  0  0
   37.1260   31.3400   47.6540 C   0  0  0  0  0  0  0  0  0  0  0  0
   37.3860   31.1600   46.3000 C   0  0  0  0  0  0  0  0  0  0  0  0
   36.5090   30.4990   45.4790 C   0  0  0  0  0  0  0  0  0  0  0  0
   35.3300   29.9870   45.9740 C   0  0  0  0  0  0  0  0  0  0  0  0
   35.0320   30.1420   47.3090 C   0  0  0  0  0  0  0  0  0  0  0  0
   33.5690   29.5480   48.0730 Cl  0  0  0  0  0  0  0  0  0  0  0  0
   35.9480   30.8190   48.1150 C   0  0  0  0  0  0  0  0  0  0  0  0
   36.7260   30.3650   44.4250 H   0  0  0  0  0  0  0  0  0  0  0  0
   34.6040   29.4580   45.3700 H   0  0  0  0  0  0  0  0  0  0  0  0
   39.8010   33.3400   44.6010 C   0  0  0  0  0  0  0  0  0  0  0  0
   41.0040   32.6280   44.7020 C   0  0  0  0  0  0  0  0  0  0  0  0
   40.9510   31.3910   45.3710 C   0  0  0  0  0  0  0  0  0  0  0  0
   39.7570   30.9730   45.8660 N   0  0  0  0  0  0  0  0  0  0  0  0
   38.6180   31.6810   45.7510 C   0  0  0  0  0  0  0  0  0  0  0  0
   38.6840   32.8460   45.1180 N   0  0  0  0  0  0  0  0  0  0  0  0
   39.6570   34.2980   44.1240 H   0  0  0  0  0  0  0  0  0  0  0  0
   41.8560   33.1130   44.2490 H   0  0  0  0  0  0  0  0  0  0  0  0
   41.8820   30.8810   45.4270 H   0  0  0  0  0  0  0  0  0  0  0  0
   35.6680   30.9760   49.5690 C   0  0  0  0  0  0  0  0  0  0  0  0
   34.5950   30.7460   49.7350 H   0  0  0  0  0  0  0  0  0  0  0  0
   35.9410   32.0020   49.9030 H   0  0  0  0  0  0  0  0  0  0  0  0
   36.6790   28.7190   49.7320 C   0  0  0  0  0  3  0  0  0  0  0  0
   36.4830   29.9800   50.3020 C   0  0  0  0  0  0  0  0  0  0  0  0
   37.0730   30.2070   51.5210 C   0  0  0  0  0  0  0  0  0  0  0  0
   36.8960   31.1870   51.9210 H   0  0  0  0  0  0  0  0  0  0  0  0
   37.8420   29.2930   52.2220 C   0  0  0  0  0  0  0  0  0  0  0  0
   38.4990   29.3070   53.4050 N   0  0  0  0  0  0  0  0  0  0  0  0
   38.5210   30.1410   54.0550 H   0  0  0  0  0  0  0  0  0  0  0  0
   39.0750   28.1280   53.5730 N   0  0  0  0  0  0  0  0  0  0  0  0
   38.7950   27.3400   52.4990 C   0  0  0  0  0  0  0  0  0  0  0  0
   39.1590   26.3230   52.4070 H   0  0  0  0  0  0  0  0  0  0  0  0
   38.0110   28.0450   51.6140 C   0  0  0  0  0  0  0  0  0  0  0  0
   37.4430   27.7550   50.3910 C   0  0  0  0  0  3  0  0  0  0  0  0
  2  8  1  0  0  0  0
  2  1  1  0  0  0  0
  3  2  2  0  0  0  0
  4  5  2  0  0  0  0
  4  3  1  0  0  0  0
  5  6  1  0  0  0  0
  6  7  1  0  0  0  0
  6  8  2  0  0  0  0
  8 20  1  0  0  0  0
  9  4  1  0  0  0  0
 10  5  1  0  0  0  0
 11 12  2  0  0  0  0
 11 16  1  0  0  0  0
 12 13  1  0  0  0  0
 13 19  1  0  0  0  0
 13 14  2  0  0  0  0
 15 14  1  0  0  0  0
 15  3  1  0  0  0  0
 16 15  2  0  0  0  0
 17 11  1  0  0  0  0
 18 12  1  0  0  0  0
 20 21  1  0  0  0  0
 20 22  1  0  0  0  0
 20 24  1  0  0  0  0
 23 24  2  0  0  0  0
 23 34  1  0  0  0  0
 24 25  1  0  0  0  0
 25 26  1  0  0  0  0
 25 27  2  0  0  0  0
 27 28  1  0  0  0  0
 28 30  1  0  0  0  0
 28 29  1  0  0  0  0
 31 30  2  0  0  0  0
 32 31  1  0  0  0  0
 33 27  1  0  0  0  0
 33 31  1  0  0  0  0
 34 33  2  0  0  0  0
M  END
>  <minimizedAffinity>
-0.752379715

>  <minimizedRMSD>
1.89995432

$$$$
