
 OpenBabel03272508113D

 37 40  0  0  0  0  0  0  0  0999 V2000
   36.7180   29.4380   44.0050 Cl  0  0  0  0  0  0  0  0  0  0  0  0
   38.3870   29.8280   43.5310 C   0  0  0  0  0  0  0  0  0  0  0  0
   39.3400   30.3220   44.4050 C   0  0  0  0  0  0  0  0  0  0  0  0
   40.6050   30.5850   43.9030 C   0  0  0  0  0  0  0  0  0  0  0  0
   40.8980   30.3630   42.5830 C   0  0  0  0  0  0  0  0  0  0  0  0
   39.9660   29.8750   41.7060 C   0  0  0  0  0  0  0  0  0  0  0  0
   38.7100   29.6100   42.1870 C   0  0  0  0  0  0  0  0  0  0  0  0
   41.2890   30.9660   44.6460 H   0  0  0  0  0  0  0  0  0  0  0  0
   41.9060   30.5900   42.2590 H   0  0  0  0  0  0  0  0  0  0  0  0
   40.2540   29.7200   40.6730 H   0  0  0  0  0  0  0  0  0  0  0  0
   37.7580   27.7010   41.0340 C   0  0  0  0  0  3  0  0  0  0  0  0
   37.7500   29.0900   41.2120 C   0  0  0  0  0  0  0  0  0  0  0  0
   36.8380   29.7900   40.4490 C   0  0  0  0  0  0  0  0  0  0  0  0
   36.8590   30.8560   40.6120 H   0  0  0  0  0  0  0  0  0  0  0  0
   36.0120   29.1120   39.5800 C   0  0  0  0  0  0  0  0  0  0  0  0
   35.0640   29.5870   38.7510 N   0  0  0  0  0  0  0  0  0  0  0  0
   34.8010   30.5930   38.6400 H   0  0  0  0  0  0  0  0  0  0  0  0
   34.5170   28.5900   38.1030 N   0  0  0  0  0  0  0  0  0  0  0  0
   35.0860   27.4140   38.4800 C   0  0  0  0  0  0  0  0  0  0  0  0
   34.8610   26.4120   38.1340 H   0  0  0  0  0  0  0  0  0  0  0  0
   36.0430   27.7440   39.4260 C   0  0  0  0  0  0  0  0  0  0  0  0
   36.9380   27.0060   40.1680 C   0  0  0  0  0  3  0  0  0  0  0  0
   38.8600   30.4740   45.6700 O   0  0  0  0  0  0  0  0  0  0  0  0
   39.4270   32.5330   47.1280 O   0  0  0  0  0  0  0  0  0  0  0  0
   38.2940   31.8480   46.4450 P   0  0  1  0  0  0  0  0  0  0  0  0
   37.6920   32.8390   45.1850 O   0  0  0  0  0  0  0  0  0  0  0  0
   38.4460   33.2100   44.6630 H   0  0  0  0  0  0  0  0  0  0  0  0
   37.0070   31.4330   47.4750 O   0  0  0  0  0  0  0  0  0  0  0  0
   37.6050   30.5210   51.0010 C   0  0  0  0  0  0  0  0  0  0  0  0
   37.6920   31.3040   49.8500 C   0  0  0  0  0  0  0  0  0  0  0  0
   37.0660   30.8630   48.6940 C   0  0  0  0  0  0  0  0  0  0  0  0
   36.3880   29.6640   48.7520 N   0  0  0  0  0  0  0  0  0  0  0  0
   36.3310   28.9400   49.8880 C   0  0  0  0  0  0  0  0  0  0  0  0
   36.9360   29.3660   51.0050 N   0  0  0  0  0  0  0  0  0  0  0  0
   38.1350   30.9720   51.8410 H   0  0  0  0  0  0  0  0  0  0  0  0
   38.2010   32.2450   49.7360 H   0  0  0  0  0  0  0  0  0  0  0  0
   35.7980   27.9980   49.9280 H   0  0  0  0  0  0  0  0  0  0  0  0
  2  1  1  0  0  0  0
  2  3  1  0  0  0  0
  3 23  1  0  0  0  0
  4  3  2  0  0  0  0
  4  8  1  0  0  0  0
  5  4  1  0  0  0  0
  6  7  1  0  0  0  0
  6  5  2  0  0  0  0
  7  2  2  0  0  0  0
  9  5  1  0  0  0  0
 10  6  1  0  0  0  0
 11 12  1  0  0  0  0
 12  7  1  0  0  0  0
 13 14  1  0  0  0  0
 13 12  2  0  0  0  0
 15 13  1  0  0  0  0
 16 15  1  0  0  0  0
 17 16  1  0  0  0  0
 18 19  2  0  0  0  0
 18 16  1  0  0  0  0
 19 21  1  0  0  0  0
 20 19  1  0  0  0  0
 21 15  2  0  0  0  0
 21 22  1  0  0  0  0
 22 11  2  0  0  0  0
 23 25  1  0  0  0  0
 25 24  2  1  0  0  0
 25 28  1  0  0  0  0
 26 25  1  0  0  0  0
 27 26  1  0  0  0  0
 28 31  1  0  0  0  0
 29 34  1  0  0  0  0
 29 35  1  0  0  0  0
 30 29  2  0  0  0  0
 31 32  2  0  0  0  0
 31 30  1  0  0  0  0
 32 33  1  0  0  0  0
 33 37  1  0  0  0  0
 33 34  2  0  0  0  0
 36 30  1  0  0  0  0
M  END
>  <minimizedAffinity>
-4.80716944

>  <minimizedRMSD>
0.532476544

$$$$
