
 OpenBabel03272501243D

 43 47  0  0  0  0  0  0  0  0999 V2000
   36.6590   27.2140   34.8450 Cl  0  0  0  0  0  0  0  0  0  0  0  0
   36.6450   27.9390   33.2650 C   0  0  0  0  0  0  0  0  0  0  0  0
   37.4130   27.3090   32.2970 C   0  0  0  0  0  0  0  0  0  0  0  0
   37.4080   27.8770   31.0410 C   0  0  0  0  0  0  0  0  0  0  0  0
   36.6970   29.0090   30.7070 C   0  0  0  0  0  0  0  0  0  0  0  0
   35.9340   29.6280   31.6810 C   0  0  0  0  0  0  0  0  0  0  0  0
   35.9260   29.0690   32.9570 C   0  0  0  0  0  0  0  0  0  0  0  0
   37.9730   27.4670   30.2130 H   0  0  0  0  0  0  0  0  0  0  0  0
   36.7010   29.4450   29.7170 H   0  0  0  0  0  0  0  0  0  0  0  0
   35.3500   30.5190   31.4960 H   0  0  0  0  0  0  0  0  0  0  0  0
   33.8030   29.4430   34.2330 C   0  0  0  0  0  3  0  0  0  0  0  0
   35.1250   29.7140   33.9910 C   0  0  0  0  0  0  0  0  0  0  0  0
   35.7840   30.6680   34.7700 C   0  0  0  0  0  0  0  0  0  0  0  0
   36.8340   30.8980   34.5950 H   0  0  0  0  0  0  0  0  0  0  0  0
   35.1320   31.3560   35.7900 C   0  0  0  0  0  0  0  0  0  0  0  0
   35.4700   32.2990   36.6890 N   0  0  0  0  0  0  0  0  0  0  0  0
   36.4450   32.7020   36.7330 H   0  0  0  0  0  0  0  0  0  0  0  0
   34.4280   32.6020   37.4430 N   0  0  0  0  0  0  0  0  0  0  0  0
   33.4030   31.8430   37.0280 C   0  0  0  0  0  0  0  0  0  0  0  0
   32.4290   31.9060   37.4940 H   0  0  0  0  0  0  0  0  0  0  0  0
   33.7950   31.0210   35.9670 C   0  0  0  0  0  0  0  0  0  0  0  0
   33.1010   30.0910   35.2280 C   0  0  0  0  0  3  0  0  0  0  0  0
   38.1860   26.1770   32.4420 O   0  0  0  0  0  0  0  0  0  0  0  0
   39.6020   24.9840   33.9900 C   0  0  0  0  0  0  0  0  0  0  0  0
   40.7250   24.8280   34.7930 C   0  0  0  0  0  0  0  0  0  0  0  0
   41.6070   25.8950   34.7810 C   0  0  0  0  0  0  0  0  0  0  0  0
   41.3570   27.0370   34.0070 C   0  0  0  0  0  0  0  0  0  0  0  0
   40.2190   27.1240   33.2320 C   0  0  0  0  0  0  0  0  0  0  0  0
   39.3290   26.0800   33.2250 C   0  0  0  0  0  0  0  0  0  0  0  0
   42.5190   25.8710   35.3780 H   0  0  0  0  0  0  0  0  0  0  0  0
   42.0450   27.8790   33.9940 H   0  0  0  0  0  0  0  0  0  0  0  0
   39.9960   27.9880   32.6230 H   0  0  0  0  0  0  0  0  0  0  0  0
   41.9820   22.7630   35.2430 C   0  0  0  0  0  0  0  0  0  0  0  0
   40.9630   23.6590   35.5750 C   0  0  0  0  0  0  0  0  0  0  0  0
   40.1860   23.3520   36.7120 C   0  0  0  0  0  0  0  0  0  0  0  0
   40.4840   22.2140   37.4020 N   0  0  0  0  0  0  0  0  0  0  0  0
   41.4810   21.3830   37.0370 C   0  0  0  0  0  0  0  0  0  0  0  0
   42.2430   21.6560   35.9430 N   0  0  0  0  0  0  0  0  0  0  0  0
   42.5790   22.9960   34.3700 H   0  0  0  0  0  0  0  0  0  0  0  0
   39.3960   24.0220   36.9940 H   0  0  0  0  0  0  0  0  0  0  0  0
   41.6500   20.5000   37.6390 H   0  0  0  0  0  0  0  0  0  0  0  0
   38.6460   23.9510   33.9360 O   0  0  0  0  0  0  0  0  0  0  0  0
   39.0080   23.0040   34.0640 H   0  0  0  0  0  0  0  0  0  0  0  0
  2  1  1  0  0  0  0
  3 23  1  0  0  0  0
  3  2  2  0  0  0  0
  4  3  1  0  0  0  0
  5  4  2  0  0  0  0
  5  6  1  0  0  0  0
  6  7  2  0  0  0  0
  7  2  1  0  0  0  0
  7 12  1  0  0  0  0
  8  4  1  0  0  0  0
  9  5  1  0  0  0  0
 10  6  1  0  0  0  0
 11 22  1  0  0  0  0
 12 11  2  0  0  0  0
 12 13  1  0  0  0  0
 13 15  2  0  0  0  0
 14 13  1  0  0  0  0
 15 21  1  0  0  0  0
 15 16  1  0  0  0  0
 16 17  1  0  0  0  0
 16 18  1  0  0  0  0
 19 18  2  0  0  0  0
 19 20  1  0  0  0  0
 21 19  1  0  0  0  0
 22 21  2  0  0  0  0
 23 29  1  0  0  0  0
 24 25  1  0  0  0  0
 25 34  1  0  0  0  0
 26 25  2  0  0  0  0
 26 30  1  0  0  0  0
 27 26  1  0  0  0  0
 28 27  2  0  0  0  0
 29 28  1  0  0  0  0
 29 24  2  0  0  0  0
 31 27  1  0  0  0  0
 32 28  1  0  0  0  0
 33 34  2  0  0  0  0
 33 38  1  0  0  0  0
 34 35  1  0  0  0  0
 35 40  1  0  0  0  0
 35 36  2  0  0  0  0
 37 36  1  0  0  0  0
 37 41  1  0  0  0  0
 38 37  2  0  0  0  0
 39 33  1  0  0  0  0
 42 24  1  0  0  0  0
 42 43  1  0  0  0  0
M  END
>  <minimizedAffinity>
-6.85211945

$$$$

 OpenBabel03272501243D

 43 47  0  0  0  0  0  0  0  0999 V2000
   36.8170   27.5000   34.9970 Cl  0  0  0  0  0  0  0  0  0  0  0  0
   36.6320   28.1770   33.4070 C   0  0  0  0  0  0  0  0  0  0  0  0
   37.2570   27.4910   32.3750 C   0  0  0  0  0  0  0  0  0  0  0  0
   37.1150   28.0210   31.1100 C   0  0  0  0  0  0  0  0  0  0  0  0
   36.4030   29.1660   30.8260 C   0  0  0  0  0  0  0  0  0  0  0  0
   35.7840   29.8400   31.8640 C   0  0  0  0  0  0  0  0  0  0  0  0
   35.9150   29.3200   33.1500 C   0  0  0  0  0  0  0  0  0  0  0  0
   37.5610   27.5670   30.2350 H   0  0  0  0  0  0  0  0  0  0  0  0
   36.2990   29.5710   29.8290 H   0  0  0  0  0  0  0  0  0  0  0  0
   35.2080   30.7440   31.7200 H   0  0  0  0  0  0  0  0  0  0  0  0
   35.8920   30.9260   35.0730 C   0  0  0  0  0  3  0  0  0  0  0  0
   35.2670   30.0240   34.2510 C   0  0  0  0  0  0  0  0  0  0  0  0
   33.9150   29.7330   34.4520 C   0  0  0  0  0  0  0  0  0  0  0  0
   33.4000   29.0200   33.8100 H   0  0  0  0  0  0  0  0  0  0  0  0
   33.1810   30.3370   35.4690 C   0  0  0  0  0  0  0  0  0  0  0  0
   31.9120   30.2760   35.9110 N   0  0  0  0  0  0  0  0  0  0  0  0
   31.1940   29.6500   35.4570 H   0  0  0  0  0  0  0  0  0  0  0  0
   31.7500   31.0860   36.9430 N   0  0  0  0  0  0  0  0  0  0  0  0
   32.9320   31.6790   37.1710 C   0  0  0  0  0  0  0  0  0  0  0  0
   33.0590   32.3950   37.9720 H   0  0  0  0  0  0  0  0  0  0  0  0
   33.8910   31.2370   36.2540 C   0  0  0  0  0  0  0  0  0  0  0  0
   35.2200   31.5580   36.0990 C   0  0  0  0  0  3  0  0  0  0  0  0
   38.0060   26.3390   32.4640 O   0  0  0  0  0  0  0  0  0  0  0  0
   39.4130   25.1130   33.9960 C   0  0  0  0  0  0  0  0  0  0  0  0
   40.5580   24.9130   34.7550 C   0  0  0  0  0  0  0  0  0  0  0  0
   41.5040   25.9200   34.6650 C   0  0  0  0  0  0  0  0  0  0  0  0
   41.2930   27.0460   33.8580 C   0  0  0  0  0  0  0  0  0  0  0  0
   40.1290   27.1800   33.1300 C   0  0  0  0  0  0  0  0  0  0  0  0
   39.1750   26.1960   33.2010 C   0  0  0  0  0  0  0  0  0  0  0  0
   42.4390   25.8580   35.2230 H   0  0  0  0  0  0  0  0  0  0  0  0
   42.0320   27.8420   33.7830 H   0  0  0  0  0  0  0  0  0  0  0  0
   39.9340   28.0330   32.4980 H   0  0  0  0  0  0  0  0  0  0  0  0
   41.7860   22.8540   35.3040 C   0  0  0  0  0  0  0  0  0  0  0  0
   40.7570   23.7610   35.5710 C   0  0  0  0  0  0  0  0  0  0  0  0
   39.9280   23.4790   36.6790 C   0  0  0  0  0  0  0  0  0  0  0  0
   40.1900   22.3550   37.4050 N   0  0  0  0  0  0  0  0  0  0  0  0
   41.2000   21.5140   37.1020 C   0  0  0  0  0  0  0  0  0  0  0  0
   42.0110   21.7620   36.0380 N   0  0  0  0  0  0  0  0  0  0  0  0
   42.4220   23.0670   34.4540 H   0  0  0  0  0  0  0  0  0  0  0  0
   39.1290   24.1570   36.9100 H   0  0  0  0  0  0  0  0  0  0  0  0
   41.3380   20.6430   37.7290 H   0  0  0  0  0  0  0  0  0  0  0  0
   38.3910   24.1430   34.0220 O   0  0  0  0  0  0  0  0  0  0  0  0
   38.6980   23.1790   34.1720 H   0  0  0  0  0  0  0  0  0  0  0  0
  2  1  1  0  0  0  0
  3 23  1  0  0  0  0
  3  2  2  0  0  0  0
  4  3  1  0  0  0  0
  5  4  2  0  0  0  0
  5  6  1  0  0  0  0
  6  7  2  0  0  0  0
  7  2  1  0  0  0  0
  7 12  1  0  0  0  0
  8  4  1  0  0  0  0
  9  5  1  0  0  0  0
 10  6  1  0  0  0  0
 11 22  1  0  0  0  0
 12 13  1  0  0  0  0
 12 11  2  0  0  0  0
 13 15  2  0  0  0  0
 14 13  1  0  0  0  0
 15 16  1  0  0  0  0
 15 21  1  0  0  0  0
 16 18  1  0  0  0  0
 17 16  1  0  0  0  0
 18 19  2  0  0  0  0
 19 20  1  0  0  0  0
 21 19  1  0  0  0  0
 22 21  2  0  0  0  0
 23 29  1  0  0  0  0
 24 42  1  0  0  0  0
 24 25  1  0  0  0  0
 25 34  1  0  0  0  0
 26 25  2  0  0  0  0
 26 30  1  0  0  0  0
 27 26  1  0  0  0  0
 28 29  1  0  0  0  0
 28 27  2  0  0  0  0
 29 24  2  0  0  0  0
 31 27  1  0  0  0  0
 32 28  1  0  0  0  0
 33 34  2  0  0  0  0
 33 38  1  0  0  0  0
 34 35  1  0  0  0  0
 35 40  1  0  0  0  0
 35 36  2  0  0  0  0
 37 36  1  0  0  0  0
 37 41  1  0  0  0  0
 38 37  2  0  0  0  0
 39 33  1  0  0  0  0
 42 43  1  0  0  0  0
M  END
>  <minimizedAffinity>
-6.8408246

$$$$

 OpenBabel03272501243D

 43 47  0  0  0  0  0  0  0  0999 V2000
   36.9780   27.7080   34.8260 Cl  0  0  0  0  0  0  0  0  0  0  0  0
   36.7120   28.3220   33.2220 C   0  0  0  0  0  0  0  0  0  0  0  0
   37.4930   27.7660   32.2180 C   0  0  0  0  0  0  0  0  0  0  0  0
   37.2880   28.2470   30.9430 C   0  0  0  0  0  0  0  0  0  0  0  0
   36.3730   29.2260   30.6220 C   0  0  0  0  0  0  0  0  0  0  0  0
   35.6000   29.7720   31.6320 C   0  0  0  0  0  0  0  0  0  0  0  0
   35.7920   29.2980   32.9280 C   0  0  0  0  0  0  0  0  0  0  0  0
   37.8430   27.8840   30.0870 H   0  0  0  0  0  0  0  0  0  0  0  0
   36.2210   29.5950   29.6170 H   0  0  0  0  0  0  0  0  0  0  0  0
   34.8610   30.5420   31.4590 H   0  0  0  0  0  0  0  0  0  0  0  0
   33.6820   29.5190   34.2620 C   0  0  0  0  0  3  0  0  0  0  0  0
   34.9820   29.8680   34.0000 C   0  0  0  0  0  0  0  0  0  0  0  0
   35.6080   30.8310   34.7950 C   0  0  0  0  0  0  0  0  0  0  0  0
   36.6400   31.1220   34.6040 H   0  0  0  0  0  0  0  0  0  0  0  0
   34.9450   31.4510   35.8500 C   0  0  0  0  0  0  0  0  0  0  0  0
   35.2530   32.3830   36.7710 N   0  0  0  0  0  0  0  0  0  0  0  0
   36.2060   32.8360   36.8070 H   0  0  0  0  0  0  0  0  0  0  0  0
   34.2150   32.6050   37.5580 N   0  0  0  0  0  0  0  0  0  0  0  0
   33.2220   31.8060   37.1410 C   0  0  0  0  0  0  0  0  0  0  0  0
   32.2570   31.8020   37.6300 H   0  0  0  0  0  0  0  0  0  0  0  0
   33.6320   31.0390   36.0460 C   0  0  0  0  0  0  0  0  0  0  0  0
   32.9710   30.0970   35.2930 C   0  0  0  0  0  3  0  0  0  0  0  0
   38.4530   26.7860   32.3450 O   0  0  0  0  0  0  0  0  0  0  0  0
   38.8820   24.9200   33.8150 C   0  0  0  0  0  0  0  0  0  0  0  0
   38.6940   23.6260   34.2810 C   0  0  0  0  0  0  0  0  0  0  0  0
   37.7470   22.8870   33.5920 C   0  0  0  0  0  0  0  0  0  0  0  0
   37.0460   23.4340   32.5070 C   0  0  0  0  0  0  0  0  0  0  0  0
   37.2850   24.7290   32.0980 C   0  0  0  0  0  0  0  0  0  0  0  0
   38.2190   25.4830   32.7640 C   0  0  0  0  0  0  0  0  0  0  0  0
   37.5240   21.8590   33.8790 H   0  0  0  0  0  0  0  0  0  0  0  0
   36.3010   22.8580   31.9610 H   0  0  0  0  0  0  0  0  0  0  0  0
   36.7630   25.1810   31.2680 H   0  0  0  0  0  0  0  0  0  0  0  0
   40.5600   22.3080   35.1900 C   0  0  0  0  0  0  0  0  0  0  0  0
   39.4160   23.0850   35.3860 C   0  0  0  0  0  0  0  0  0  0  0  0
   39.0110   23.3040   36.7200 C   0  0  0  0  0  0  0  0  0  0  0  0
   39.7600   22.7500   37.7150 N   0  0  0  0  0  0  0  0  0  0  0  0
   40.8590   22.0080   37.4690 C   0  0  0  0  0  0  0  0  0  0  0  0
   41.2690   21.7810   36.1910 N   0  0  0  0  0  0  0  0  0  0  0  0
   40.8720   22.1380   34.1680 H   0  0  0  0  0  0  0  0  0  0  0  0
   38.1350   23.8980   36.9030 H   0  0  0  0  0  0  0  0  0  0  0  0
   41.3960   21.6030   38.3170 H   0  0  0  0  0  0  0  0  0  0  0  0
   39.8260   25.7500   34.4520 O   0  0  0  0  0  0  0  0  0  0  0  0
   39.9630   25.5820   35.4510 H   0  0  0  0  0  0  0  0  0  0  0  0
  2  1  1  0  0  0  0
  3 23  1  0  0  0  0
  3  2  2  0  0  0  0
  4  3  1  0  0  0  0
  5  4  2  0  0  0  0
  5  6  1  0  0  0  0
  6  7  2  0  0  0  0
  7  2  1  0  0  0  0
  7 12  1  0  0  0  0
  8  4  1  0  0  0  0
  9  5  1  0  0  0  0
 10  6  1  0  0  0  0
 11 22  1  0  0  0  0
 12 11  2  0  0  0  0
 12 13  1  0  0  0  0
 13 15  2  0  0  0  0
 14 13  1  0  0  0  0
 15 21  1  0  0  0  0
 15 16  1  0  0  0  0
 16 17  1  0  0  0  0
 16 18  1  0  0  0  0
 19 18  2  0  0  0  0
 19 20  1  0  0  0  0
 21 19  1  0  0  0  0
 22 21  2  0  0  0  0
 23 29  1  0  0  0  0
 24 25  1  0  0  0  0
 24 42  1  0  0  0  0
 25 34  1  0  0  0  0
 26 30  1  0  0  0  0
 26 25  2  0  0  0  0
 27 26  1  0  0  0  0
 28 27  2  0  0  0  0
 28 29  1  0  0  0  0
 29 24  2  0  0  0  0
 31 27  1  0  0  0  0
 32 28  1  0  0  0  0
 33 34  2  0  0  0  0
 33 38  1  0  0  0  0
 34 35  1  0  0  0  0
 35 40  1  0  0  0  0
 35 36  2  0  0  0  0
 37 36  1  0  0  0  0
 37 41  1  0  0  0  0
 38 37  2  0  0  0  0
 39 33  1  0  0  0  0
 42 43  1  0  0  0  0
M  END
>  <minimizedAffinity>
-6.83369541

$$$$

 OpenBabel03272501243D

 43 47  0  0  0  0  0  0  0  0999 V2000
   37.1900   27.8170   34.8950 Cl  0  0  0  0  0  0  0  0  0  0  0  0
   36.8110   28.3490   33.2850 C   0  0  0  0  0  0  0  0  0  0  0  0
   37.5110   27.7330   32.2570 C   0  0  0  0  0  0  0  0  0  0  0  0
   37.2160   28.1490   30.9770 C   0  0  0  0  0  0  0  0  0  0  0  0
   36.2870   29.1190   30.6720 C   0  0  0  0  0  0  0  0  0  0  0  0
   35.5940   29.7260   31.7060 C   0  0  0  0  0  0  0  0  0  0  0  0
   35.8780   29.3190   33.0080 C   0  0  0  0  0  0  0  0  0  0  0  0
   37.7040   27.7360   30.1030 H   0  0  0  0  0  0  0  0  0  0  0  0
   36.0640   29.4370   29.6630 H   0  0  0  0  0  0  0  0  0  0  0  0
   34.8500   30.4940   31.5470 H   0  0  0  0  0  0  0  0  0  0  0  0
   35.6570   30.9540   34.8930 C   0  0  0  0  0  3  0  0  0  0  0  0
   35.1540   29.9520   34.1050 C   0  0  0  0  0  0  0  0  0  0  0  0
   33.8600   29.4790   34.3390 C   0  0  0  0  0  0  0  0  0  0  0  0
   33.4410   28.6840   33.7240 H   0  0  0  0  0  0  0  0  0  0  0  0
   33.0640   29.9990   35.3550 C   0  0  0  0  0  0  0  0  0  0  0  0
   31.8230   29.7720   35.8230 N   0  0  0  0  0  0  0  0  0  0  0  0
   31.1940   29.0390   35.3970 H   0  0  0  0  0  0  0  0  0  0  0  0
   31.5650   30.5770   36.8380 N   0  0  0  0  0  0  0  0  0  0  0  0
   32.6540   31.3360   37.0300 C   0  0  0  0  0  0  0  0  0  0  0  0
   32.6910   32.0830   37.8110 H   0  0  0  0  0  0  0  0  0  0  0  0
   33.6520   31.0110   36.1050 C   0  0  0  0  0  0  0  0  0  0  0  0
   34.9190   31.5110   35.9170 C   0  0  0  0  0  3  0  0  0  0  0  0
   38.4710   26.7510   32.3650 O   0  0  0  0  0  0  0  0  0  0  0  0
   38.9090   24.8780   33.8230 C   0  0  0  0  0  0  0  0  0  0  0  0
   38.7240   23.5810   34.2830 C   0  0  0  0  0  0  0  0  0  0  0  0
   37.7750   22.8440   33.5930 C   0  0  0  0  0  0  0  0  0  0  0  0
   37.0700   23.3960   32.5140 C   0  0  0  0  0  0  0  0  0  0  0  0
   37.3060   24.6930   32.1110 C   0  0  0  0  0  0  0  0  0  0  0  0
   38.2410   25.4450   32.7780 C   0  0  0  0  0  0  0  0  0  0  0  0
   37.5550   21.8140   33.8760 H   0  0  0  0  0  0  0  0  0  0  0  0
   36.3240   22.8220   31.9680 H   0  0  0  0  0  0  0  0  0  0  0  0
   36.7800   25.1500   31.2850 H   0  0  0  0  0  0  0  0  0  0  0  0
   40.5980   22.2640   35.1790 C   0  0  0  0  0  0  0  0  0  0  0  0
   39.4500   23.0350   35.3820 C   0  0  0  0  0  0  0  0  0  0  0  0
   39.0480   23.2440   36.7190 C   0  0  0  0  0  0  0  0  0  0  0  0
   39.8020   22.6850   37.7080 N   0  0  0  0  0  0  0  0  0  0  0  0
   40.9030   21.9490   37.4550 C   0  0  0  0  0  0  0  0  0  0  0  0
   41.3100   21.7320   36.1750 N   0  0  0  0  0  0  0  0  0  0  0  0
   40.9080   22.1020   34.1540 H   0  0  0  0  0  0  0  0  0  0  0  0
   38.1710   23.8320   36.9080 H   0  0  0  0  0  0  0  0  0  0  0  0
   41.4440   21.5410   38.2980 H   0  0  0  0  0  0  0  0  0  0  0  0
   39.8540   25.7060   34.4610 O   0  0  0  0  0  0  0  0  0  0  0  0
   39.9940   25.5320   35.4590 H   0  0  0  0  0  0  0  0  0  0  0  0
  2  1  1  0  0  0  0
  3 23  1  0  0  0  0
  3  2  2  0  0  0  0
  4  3  1  0  0  0  0
  5  4  2  0  0  0  0
  5  6  1  0  0  0  0
  6  7  2  0  0  0  0
  7  2  1  0  0  0  0
  7 12  1  0  0  0  0
  8  4  1  0  0  0  0
  9  5  1  0  0  0  0
 10  6  1  0  0  0  0
 11 22  1  0  0  0  0
 12 13  1  0  0  0  0
 12 11  2  0  0  0  0
 13 15  2  0  0  0  0
 14 13  1  0  0  0  0
 15 16  1  0  0  0  0
 15 21  1  0  0  0  0
 16 18  1  0  0  0  0
 17 16  1  0  0  0  0
 18 19  2  0  0  0  0
 19 20  1  0  0  0  0
 21 19  1  0  0  0  0
 22 21  2  0  0  0  0
 23 29  1  0  0  0  0
 24 25  1  0  0  0  0
 24 42  1  0  0  0  0
 25 34  1  0  0  0  0
 26 30  1  0  0  0  0
 26 25  2  0  0  0  0
 27 26  1  0  0  0  0
 28 27  2  0  0  0  0
 28 29  1  0  0  0  0
 29 24  2  0  0  0  0
 31 27  1  0  0  0  0
 32 28  1  0  0  0  0
 33 34  2  0  0  0  0
 33 38  1  0  0  0  0
 34 35  1  0  0  0  0
 35 40  1  0  0  0  0
 35 36  2  0  0  0  0
 37 36  1  0  0  0  0
 37 41  1  0  0  0  0
 38 37  2  0  0  0  0
 39 33  1  0  0  0  0
 42 43  1  0  0  0  0
M  END
>  <minimizedAffinity>
-6.64526129

$$$$

 OpenBabel03272501243D

 43 47  0  0  0  0  0  0  0  0999 V2000
   37.5190   27.8730   35.4760 Cl  0  0  0  0  0  0  0  0  0  0  0  0
   36.8810   27.9960   33.8640 C   0  0  0  0  0  0  0  0  0  0  0  0
   37.4050   27.1130   32.9300 C   0  0  0  0  0  0  0  0  0  0  0  0
   36.9040   27.2040   31.6490 C   0  0  0  0  0  0  0  0  0  0  0  0
   35.9350   28.1010   31.2580 C   0  0  0  0  0  0  0  0  0  0  0  0
   35.4190   28.9770   32.1980 C   0  0  0  0  0  0  0  0  0  0  0  0
   35.9130   28.9010   33.4990 C   0  0  0  0  0  0  0  0  0  0  0  0
   37.2430   26.5640   30.8440 H   0  0  0  0  0  0  0  0  0  0  0  0
   35.5500   28.1620   30.2490 H   0  0  0  0  0  0  0  0  0  0  0  0
   34.6580   29.7090   31.9690 H   0  0  0  0  0  0  0  0  0  0  0  0
   36.1210   30.7440   35.1840 C   0  0  0  0  0  3  0  0  0  0  0  0
   35.3760   29.8190   34.4980 C   0  0  0  0  0  0  0  0  0  0  0  0
   34.0050   29.7200   34.7470 C   0  0  0  0  0  0  0  0  0  0  0  0
   33.3960   28.9930   34.2130 H   0  0  0  0  0  0  0  0  0  0  0  0
   33.3700   30.5390   35.6760 C   0  0  0  0  0  0  0  0  0  0  0  0
   32.1130   30.6900   36.1320 N   0  0  0  0  0  0  0  0  0  0  0  0
   31.3160   30.0970   35.7730 H   0  0  0  0  0  0  0  0  0  0  0  0
   32.0710   31.6450   37.0440 N   0  0  0  0  0  0  0  0  0  0  0  0
   33.3180   32.1200   37.1800 C   0  0  0  0  0  0  0  0  0  0  0  0
   33.5460   32.9170   37.8740 H   0  0  0  0  0  0  0  0  0  0  0  0
   34.1980   31.4470   36.3260 C   0  0  0  0  0  0  0  0  0  0  0  0
   35.5510   31.5840   36.1180 C   0  0  0  0  0  3  0  0  0  0  0  0
   38.3720   26.1530   33.1320 O   0  0  0  0  0  0  0  0  0  0  0  0
   37.7000   23.8360   33.0350 C   0  0  0  0  0  0  0  0  0  0  0  0
   37.4710   22.5770   33.5730 C   0  0  0  0  0  0  0  0  0  0  0  0
   37.7480   22.4580   34.9240 C   0  0  0  0  0  0  0  0  0  0  0  0
   38.2250   23.5460   35.6670 C   0  0  0  0  0  0  0  0  0  0  0  0
   38.4300   24.7700   35.0670 C   0  0  0  0  0  0  0  0  0  0  0  0
   38.1620   24.9160   33.7290 C   0  0  0  0  0  0  0  0  0  0  0  0
   37.6010   21.5090   35.4420 H   0  0  0  0  0  0  0  0  0  0  0  0
   38.4440   23.4590   36.7300 H   0  0  0  0  0  0  0  0  0  0  0  0
   38.7960   25.6300   35.6090 H   0  0  0  0  0  0  0  0  0  0  0  0
   35.6140   21.2600   32.6410 C   0  0  0  0  0  0  0  0  0  0  0  0
   36.9850   21.4800   32.8020 C   0  0  0  0  0  0  0  0  0  0  0  0
   37.8570   20.5680   32.1700 C   0  0  0  0  0  0  0  0  0  0  0  0
   37.3070   19.5480   31.4520 N   0  0  0  0  0  0  0  0  0  0  0  0
   35.9740   19.3830   31.3290 C   0  0  0  0  0  0  0  0  0  0  0  0
   35.1120   20.2480   31.9300 N   0  0  0  0  0  0  0  0  0  0  0  0
   34.9430   21.9580   33.1250 H   0  0  0  0  0  0  0  0  0  0  0  0
   38.9160   20.7100   32.2750 H   0  0  0  0  0  0  0  0  0  0  0  0
   35.6200   18.5460   30.7420 H   0  0  0  0  0  0  0  0  0  0  0  0
   37.4460   24.0570   31.6660 O   0  0  0  0  0  0  0  0  0  0  0  0
   37.5790   23.2490   31.0540 H   0  0  0  0  0  0  0  0  0  0  0  0
  2  1  1  0  0  0  0
  3 23  1  0  0  0  0
  3  2  2  0  0  0  0
  4  3  1  0  0  0  0
  5  4  2  0  0  0  0
  5  6  1  0  0  0  0
  6  7  2  0  0  0  0
  7  2  1  0  0  0  0
  7 12  1  0  0  0  0
  8  4  1  0  0  0  0
  9  5  1  0  0  0  0
 10  6  1  0  0  0  0
 11 22  1  0  0  0  0
 12 13  1  0  0  0  0
 12 11  2  0  0  0  0
 13 15  2  0  0  0  0
 14 13  1  0  0  0  0
 15 16  1  0  0  0  0
 15 21  1  0  0  0  0
 16 18  1  0  0  0  0
 17 16  1  0  0  0  0
 18 19  2  0  0  0  0
 19 20  1  0  0  0  0
 21 19  1  0  0  0  0
 22 21  2  0  0  0  0
 23 29  1  0  0  0  0
 24 25  2  0  0  0  0
 24 29  1  0  0  0  0
 25 26  1  0  0  0  0
 26 30  1  0  0  0  0
 26 27  2  0  0  0  0
 27 31  1  0  0  0  0
 28 32  1  0  0  0  0
 28 27  1  0  0  0  0
 29 28  2  0  0  0  0
 33 34  1  0  0  0  0
 33 39  1  0  0  0  0
 34 25  1  0  0  0  0
 35 40  1  0  0  0  0
 35 34  2  0  0  0  0
 36 35  1  0  0  0  0
 37 36  2  0  0  0  0
 37 38  1  0  0  0  0
 38 33  2  0  0  0  0
 41 37  1  0  0  0  0
 42 24  1  0  0  0  0
 43 42  1  0  0  0  0
M  END
>  <minimizedAffinity>
-6.63828182

$$$$

 OpenBabel03272501243D

 43 47  0  0  0  0  0  0  0  0999 V2000
   34.8120   25.2680   30.7090 Cl  0  0  0  0  0  0  0  0  0  0  0  0
   36.1830   25.6940   31.6900 C   0  0  0  0  0  0  0  0  0  0  0  0
   36.2940   27.0330   32.0370 C   0  0  0  0  0  0  0  0  0  0  0  0
   37.3780   27.3790   32.8150 C   0  0  0  0  0  0  0  0  0  0  0  0
   38.3310   26.4870   33.2550 C   0  0  0  0  0  0  0  0  0  0  0  0
   38.2090   25.1540   32.9030 C   0  0  0  0  0  0  0  0  0  0  0  0
   37.1200   24.7840   32.1170 C   0  0  0  0  0  0  0  0  0  0  0  0
   37.5600   28.3950   33.1410 H   0  0  0  0  0  0  0  0  0  0  0  0
   39.1770   26.7710   33.8660 H   0  0  0  0  0  0  0  0  0  0  0  0
   38.9160   24.3950   33.2090 H   0  0  0  0  0  0  0  0  0  0  0  0
   37.8390   22.7130   30.9040 C   0  0  0  0  0  3  0  0  0  0  0  0
   36.9820   23.3820   31.7400 C   0  0  0  0  0  0  0  0  0  0  0  0
   35.8910   22.7040   32.2890 C   0  0  0  0  0  0  0  0  0  0  0  0
   35.1990   23.2160   32.9560 H   0  0  0  0  0  0  0  0  0  0  0  0
   35.6470   21.3630   32.0090 C   0  0  0  0  0  0  0  0  0  0  0  0
   34.7190   20.4540   32.3630 N   0  0  0  0  0  0  0  0  0  0  0  0
   33.9230   20.6970   33.0130 H   0  0  0  0  0  0  0  0  0  0  0  0
   34.9760   19.2930   31.7870 N   0  0  0  0  0  0  0  0  0  0  0  0
   36.0850   19.4520   31.0500 C   0  0  0  0  0  0  0  0  0  0  0  0
   36.5030   18.6360   30.4750 H   0  0  0  0  0  0  0  0  0  0  0  0
   36.5630   20.7630   31.1530 C   0  0  0  0  0  0  0  0  0  0  0  0
   37.6520   21.3840   30.5860 C   0  0  0  0  0  3  0  0  0  0  0  0
   35.4450   28.0630   31.6940 O   0  0  0  0  0  0  0  0  0  0  0  0
   35.1510   29.9770   33.1340 C   0  0  0  0  0  0  0  0  0  0  0  0
   35.3160   31.3070   33.4960 C   0  0  0  0  0  0  0  0  0  0  0  0
   36.0470   32.0710   32.6010 C   0  0  0  0  0  0  0  0  0  0  0  0
   36.5680   31.5140   31.4260 C   0  0  0  0  0  0  0  0  0  0  0  0
   36.3650   30.1820   31.1300 C   0  0  0  0  0  0  0  0  0  0  0  0
   35.6450   29.4030   32.0000 C   0  0  0  0  0  0  0  0  0  0  0  0
   36.2330   33.1290   32.7930 H   0  0  0  0  0  0  0  0  0  0  0  0
   37.1430   32.1090   30.7180 H   0  0  0  0  0  0  0  0  0  0  0  0
   36.7530   29.7210   30.2340 H   0  0  0  0  0  0  0  0  0  0  0  0
   35.4860   31.7990   35.9000 C   0  0  0  0  0  0  0  0  0  0  0  0
   34.7780   31.8580   34.6960 C   0  0  0  0  0  0  0  0  0  0  0  0
   33.5130   32.4830   34.7280 C   0  0  0  0  0  0  0  0  0  0  0  0
   33.0760   32.9820   35.9190 N   0  0  0  0  0  0  0  0  0  0  0  0
   33.8020   32.8980   37.0530 C   0  0  0  0  0  0  0  0  0  0  0  0
   35.0240   32.2990   37.0480 N   0  0  0  0  0  0  0  0  0  0  0  0
   36.4560   31.3190   35.8780 H   0  0  0  0  0  0  0  0  0  0  0  0
   32.9450   32.5440   33.8200 H   0  0  0  0  0  0  0  0  0  0  0  0
   33.3810   33.3200   37.9560 H   0  0  0  0  0  0  0  0  0  0  0  0
   34.4220   29.1190   33.9810 O   0  0  0  0  0  0  0  0  0  0  0  0
   34.4660   29.3370   34.9790 H   0  0  0  0  0  0  0  0  0  0  0  0
  1  2  1  0  0  0  0
  2  3  2  0  0  0  0
  2  7  1  0  0  0  0
  3  4  1  0  0  0  0
  4  8  1  0  0  0  0
  4  5  2  0  0  0  0
  5  9  1  0  0  0  0
  6 10  1  0  0  0  0
  6  5  1  0  0  0  0
  7  6  2  0  0  0  0
 11 12  1  0  0  0  0
 12  7  1  0  0  0  0
 12 13  2  0  0  0  0
 13 14  1  0  0  0  0
 15 13  1  0  0  0  0
 15 16  1  0  0  0  0
 16 17  1  0  0  0  0
 18 16  1  0  0  0  0
 19 21  1  0  0  0  0
 19 18  2  0  0  0  0
 20 19  1  0  0  0  0
 21 15  2  0  0  0  0
 22 11  2  0  0  0  0
 22 21  1  0  0  0  0
 23 29  1  0  0  0  0
 23  3  1  0  0  0  0
 24 25  1  0  0  0  0
 24 42  1  0  0  0  0
 25 34  1  0  0  0  0
 26 30  1  0  0  0  0
 26 25  2  0  0  0  0
 27 26  1  0  0  0  0
 28 27  2  0  0  0  0
 28 29  1  0  0  0  0
 29 24  2  0  0  0  0
 31 27  1  0  0  0  0
 32 28  1  0  0  0  0
 33 38  1  0  0  0  0
 34 35  1  0  0  0  0
 34 33  2  0  0  0  0
 35 36  2  0  0  0  0
 36 37  1  0  0  0  0
 37 41  1  0  0  0  0
 38 37  2  0  0  0  0
 39 33  1  0  0  0  0
 40 35  1  0  0  0  0
 42 43  1  0  0  0  0
M  END
>  <minimizedAffinity>
-6.50382566

$$$$

 OpenBabel03272501243D

 43 47  0  0  0  0  0  0  0  0999 V2000
   36.9660   27.6620   34.6930 Cl  0  0  0  0  0  0  0  0  0  0  0  0
   36.7630   28.3880   33.1280 C   0  0  0  0  0  0  0  0  0  0  0  0
   37.5660   27.8870   32.1130 C   0  0  0  0  0  0  0  0  0  0  0  0
   37.4110   28.4570   30.8670 C   0  0  0  0  0  0  0  0  0  0  0  0
   36.5230   29.4720   30.5860 C   0  0  0  0  0  0  0  0  0  0  0  0
   35.7270   29.9640   31.6060 C   0  0  0  0  0  0  0  0  0  0  0  0
   35.8690   29.4000   32.8730 C   0  0  0  0  0  0  0  0  0  0  0  0
   37.9860   28.1420   30.0060 H   0  0  0  0  0  0  0  0  0  0  0  0
   36.4100   29.9120   29.6040 H   0  0  0  0  0  0  0  0  0  0  0  0
   35.0080   30.7580   31.4640 H   0  0  0  0  0  0  0  0  0  0  0  0
   33.7430   29.5180   34.1930 C   0  0  0  0  0  3  0  0  0  0  0  0
   35.0350   29.9100   33.9550 C   0  0  0  0  0  0  0  0  0  0  0  0
   35.6280   30.8630   34.7880 C   0  0  0  0  0  0  0  0  0  0  0  0
   36.6530   31.1880   34.6160 H   0  0  0  0  0  0  0  0  0  0  0  0
   34.9390   31.4290   35.8570 C   0  0  0  0  0  0  0  0  0  0  0  0
   35.2140   32.3370   36.8110 N   0  0  0  0  0  0  0  0  0  0  0  0
   36.1540   32.8140   36.8710 H   0  0  0  0  0  0  0  0  0  0  0  0
   34.1640   32.5050   37.5950 N   0  0  0  0  0  0  0  0  0  0  0  0
   33.1960   31.6930   37.1430 C   0  0  0  0  0  0  0  0  0  0  0  0
   32.2280   31.6470   37.6220 H   0  0  0  0  0  0  0  0  0  0  0  0
   33.6370   30.9750   36.0260 C   0  0  0  0  0  0  0  0  0  0  0  0
   33.0070   30.0410   35.2360 C   0  0  0  0  0  3  0  0  0  0  0  0
   38.5040   26.8820   32.2020 O   0  0  0  0  0  0  0  0  0  0  0  0
   37.8320   24.6040   31.7750 C   0  0  0  0  0  0  0  0  0  0  0  0
   37.8100   23.4220   31.0460 C   0  0  0  0  0  0  0  0  0  0  0  0
   38.5620   23.4360   29.8840 C   0  0  0  0  0  0  0  0  0  0  0  0
   39.2820   24.5750   29.4980 C   0  0  0  0  0  0  0  0  0  0  0  0
   39.2590   25.7160   30.2720 C   0  0  0  0  0  0  0  0  0  0  0  0
   38.5220   25.7290   31.4290 C   0  0  0  0  0  0  0  0  0  0  0  0
   38.6100   22.5570   29.2400 H   0  0  0  0  0  0  0  0  0  0  0  0
   39.8750   24.5920   28.5850 H   0  0  0  0  0  0  0  0  0  0  0  0
   39.8020   26.6110   30.0040 H   0  0  0  0  0  0  0  0  0  0  0  0
   37.6820   21.2360   32.1660 C   0  0  0  0  0  0  0  0  0  0  0  0
   37.0710   22.2720   31.4540 C   0  0  0  0  0  0  0  0  0  0  0  0
   35.6990   22.1240   31.1590 C   0  0  0  0  0  0  0  0  0  0  0  0
   35.0710   20.9920   31.5880 N   0  0  0  0  0  0  0  0  0  0  0  0
   35.7100   20.0220   32.2730 C   0  0  0  0  0  0  0  0  0  0  0  0
   37.0330   20.1410   32.5690 N   0  0  0  0  0  0  0  0  0  0  0  0
   38.7350   21.3470   32.3930 H   0  0  0  0  0  0  0  0  0  0  0  0
   35.2010   22.9030   30.6140 H   0  0  0  0  0  0  0  0  0  0  0  0
   35.1380   19.1550   32.5760 H   0  0  0  0  0  0  0  0  0  0  0  0
   37.0980   24.6870   32.9750 O   0  0  0  0  0  0  0  0  0  0  0  0
   36.2460   24.1220   33.0140 H   0  0  0  0  0  0  0  0  0  0  0  0
  2  1  1  0  0  0  0
  3 23  1  0  0  0  0
  3  2  2  0  0  0  0
  4  3  1  0  0  0  0
  5  4  2  0  0  0  0
  5  6  1  0  0  0  0
  6  7  2  0  0  0  0
  7  2  1  0  0  0  0
  7 12  1  0  0  0  0
  8  4  1  0  0  0  0
  9  5  1  0  0  0  0
 10  6  1  0  0  0  0
 11 22  1  0  0  0  0
 12 11  2  0  0  0  0
 12 13  1  0  0  0  0
 13 15  2  0  0  0  0
 14 13  1  0  0  0  0
 15 21  1  0  0  0  0
 15 16  1  0  0  0  0
 16 17  1  0  0  0  0
 16 18  1  0  0  0  0
 19 18  2  0  0  0  0
 19 20  1  0  0  0  0
 21 19  1  0  0  0  0
 22 21  2  0  0  0  0
 24 42  1  0  0  0  0
 25 34  1  0  0  0  0
 25 24  2  0  0  0  0
 26 25  1  0  0  0  0
 27 26  2  0  0  0  0
 27 28  1  0  0  0  0
 28 29  2  0  0  0  0
 29 24  1  0  0  0  0
 29 23  1  0  0  0  0
 30 26  1  0  0  0  0
 31 27  1  0  0  0  0
 32 28  1  0  0  0  0
 33 39  1  0  0  0  0
 33 38  1  0  0  0  0
 34 33  2  0  0  0  0
 35 34  1  0  0  0  0
 35 36  2  0  0  0  0
 36 37  1  0  0  0  0
 37 38  2  0  0  0  0
 37 41  1  0  0  0  0
 40 35  1  0  0  0  0
 42 43  1  0  0  0  0
M  END
>  <minimizedAffinity>
-6.4712739

$$$$

 OpenBabel03272501243D

 43 47  0  0  0  0  0  0  0  0999 V2000
   39.0350   27.0660   34.8140 Cl  0  0  0  0  0  0  0  0  0  0  0  0
   38.0960   26.1200   33.6990 C   0  0  0  0  0  0  0  0  0  0  0  0
   37.4630   26.8230   32.6830 C   0  0  0  0  0  0  0  0  0  0  0  0
   36.7160   26.0810   31.7940 C   0  0  0  0  0  0  0  0  0  0  0  0
   36.5700   24.7130   31.8600 C   0  0  0  0  0  0  0  0  0  0  0  0
   37.2050   24.0220   32.8770 C   0  0  0  0  0  0  0  0  0  0  0  0
   37.9660   24.7550   33.7860 C   0  0  0  0  0  0  0  0  0  0  0  0
   36.1820   26.5280   30.9660 H   0  0  0  0  0  0  0  0  0  0  0  0
   35.9810   24.1410   31.1550 H   0  0  0  0  0  0  0  0  0  0  0  0
   37.1380   22.9500   32.9950 H   0  0  0  0  0  0  0  0  0  0  0  0
   38.1960   23.9830   36.1590 C   0  0  0  0  0  3  0  0  0  0  0  0
   38.6400   24.0370   34.8620 C   0  0  0  0  0  0  0  0  0  0  0  0
   39.8160   23.3690   34.5110 C   0  0  0  0  0  0  0  0  0  0  0  0
   40.1850   23.3990   33.4870 H   0  0  0  0  0  0  0  0  0  0  0  0
   40.5540   22.6480   35.4440 C   0  0  0  0  0  0  0  0  0  0  0  0
   41.6860   21.9200   35.4280 N   0  0  0  0  0  0  0  0  0  0  0  0
   42.2490   21.7880   34.5450 H   0  0  0  0  0  0  0  0  0  0  0  0
   41.9370   21.4430   36.6340 N   0  0  0  0  0  0  0  0  0  0  0  0
   40.9540   21.8660   37.4420 C   0  0  0  0  0  0  0  0  0  0  0  0
   40.9330   21.6040   38.4920 H   0  0  0  0  0  0  0  0  0  0  0  0
   40.0340   22.6460   36.7330 C   0  0  0  0  0  0  0  0  0  0  0  0
   38.8830   23.2860   37.1310 C   0  0  0  0  0  3  0  0  0  0  0  0
   37.4930   28.1820   32.4570 O   0  0  0  0  0  0  0  0  0  0  0  0
   35.7010   29.3180   33.6080 C   0  0  0  0  0  0  0  0  0  0  0  0
   34.5910   30.1490   33.6820 C   0  0  0  0  0  0  0  0  0  0  0  0
   34.1850   30.6940   32.4760 C   0  0  0  0  0  0  0  0  0  0  0  0
   34.8660   30.4110   31.2840 C   0  0  0  0  0  0  0  0  0  0  0  0
   35.9640   29.5760   31.2850 C   0  0  0  0  0  0  0  0  0  0  0  0
   36.3870   29.0220   32.4670 C   0  0  0  0  0  0  0  0  0  0  0  0
   33.3230   31.3600   32.4270 H   0  0  0  0  0  0  0  0  0  0  0  0
   34.5530   30.8360   30.3330 H   0  0  0  0  0  0  0  0  0  0  0  0
   36.5120   29.3370   30.3850 H   0  0  0  0  0  0  0  0  0  0  0  0
   34.3390   31.4470   35.7560 C   0  0  0  0  0  0  0  0  0  0  0  0
   33.9090   30.4260   34.9040 C   0  0  0  0  0  0  0  0  0  0  0  0
   32.7780   29.6870   35.3110 C   0  0  0  0  0  0  0  0  0  0  0  0
   32.1870   30.0200   36.4940 N   0  0  0  0  0  0  0  0  0  0  0  0
   32.6450   31.0180   37.2780 C   0  0  0  0  0  0  0  0  0  0  0  0
   33.7350   31.7430   36.9090 N   0  0  0  0  0  0  0  0  0  0  0  0
   35.2070   32.0140   35.4460 H   0  0  0  0  0  0  0  0  0  0  0  0
   32.4230   28.8960   34.6780 H   0  0  0  0  0  0  0  0  0  0  0  0
   32.1180   31.2160   38.2030 H   0  0  0  0  0  0  0  0  0  0  0  0
   36.1900   28.7150   34.7840 O   0  0  0  0  0  0  0  0  0  0  0  0
   36.0530   29.2470   35.6460 H   0  0  0  0  0  0  0  0  0  0  0  0
  2  7  1  0  0  0  0
  2  1  1  0  0  0  0
  3  2  2  0  0  0  0
  4  5  2  0  0  0  0
  4  3  1  0  0  0  0
  5  6  1  0  0  0  0
  6 10  1  0  0  0  0
  6  7  2  0  0  0  0
  7 12  1  0  0  0  0
  8  4  1  0  0  0  0
  9  5  1  0  0  0  0
 11 22  1  0  0  0  0
 12 11  2  0  0  0  0
 13 12  1  0  0  0  0
 13 15  2  0  0  0  0
 14 13  1  0  0  0  0
 15 21  1  0  0  0  0
 16 15  1  0  0  0  0
 16 18  1  0  0  0  0
 17 16  1  0  0  0  0
 18 19  2  0  0  0  0
 19 20  1  0  0  0  0
 21 22  2  0  0  0  0
 21 19  1  0  0  0  0
 23 29  1  0  0  0  0
 23  3  1  0  0  0  0
 24 25  1  0  0  0  0
 24 42  1  0  0  0  0
 25 34  1  0  0  0  0
 26 25  2  0  0  0  0
 27 28  2  0  0  0  0
 27 26  1  0  0  0  0
 28 29  1  0  0  0  0
 29 24  2  0  0  0  0
 30 26  1  0  0  0  0
 31 27  1  0  0  0  0
 32 28  1  0  0  0  0
 33 38  1  0  0  0  0
 34 35  1  0  0  0  0
 34 33  2  0  0  0  0
 35 36  2  0  0  0  0
 36 37  1  0  0  0  0
 37 41  1  0  0  0  0
 38 37  2  0  0  0  0
 39 33  1  0  0  0  0
 40 35  1  0  0  0  0
 42 43  1  0  0  0  0
M  END
>  <minimizedAffinity>
-6.42162514

$$$$

 OpenBabel03272501243D

 43 47  0  0  0  0  0  0  0  0999 V2000
   36.6270   27.6760   34.4680 Cl  0  0  0  0  0  0  0  0  0  0  0  0
   36.5060   28.6220   33.0150 C   0  0  0  0  0  0  0  0  0  0  0  0
   37.0920   28.0780   31.8810 C   0  0  0  0  0  0  0  0  0  0  0  0
   37.0000   28.8210   30.7240 C   0  0  0  0  0  0  0  0  0  0  0  0
   36.3720   30.0440   30.6380 C   0  0  0  0  0  0  0  0  0  0  0  0
   35.7910   30.5760   31.7750 C   0  0  0  0  0  0  0  0  0  0  0  0
   35.8730   29.8400   32.9550 C   0  0  0  0  0  0  0  0  0  0  0  0
   37.4230   28.4900   29.7840 H   0  0  0  0  0  0  0  0  0  0  0  0
   36.3060   30.6180   29.7230 H   0  0  0  0  0  0  0  0  0  0  0  0
   35.2810   31.5300   31.7870 H   0  0  0  0  0  0  0  0  0  0  0  0
   35.9230   31.1650   35.0810 C   0  0  0  0  0  3  0  0  0  0  0  0
   35.2640   30.3920   34.1600 C   0  0  0  0  0  0  0  0  0  0  0  0
   33.9130   30.0920   34.3570 C   0  0  0  0  0  0  0  0  0  0  0  0
   33.3710   29.4790   33.6370 H   0  0  0  0  0  0  0  0  0  0  0  0
   33.2150   30.5580   35.4670 C   0  0  0  0  0  0  0  0  0  0  0  0
   31.9560   30.4510   35.9310 N   0  0  0  0  0  0  0  0  0  0  0  0
   31.2180   29.9020   35.4150 H   0  0  0  0  0  0  0  0  0  0  0  0
   31.8340   31.1130   37.0690 N   0  0  0  0  0  0  0  0  0  0  0  0
   33.0290   31.6550   37.3440 C   0  0  0  0  0  0  0  0  0  0  0  0
   33.1880   32.2520   38.2320 H   0  0  0  0  0  0  0  0  0  0  0  0
   33.9580   31.3330   36.3490 C   0  0  0  0  0  0  0  0  0  0  0  0
   35.2870   31.6570   36.2020 C   0  0  0  0  0  3  0  0  0  0  0  0
   37.7590   26.8770   31.7740 O   0  0  0  0  0  0  0  0  0  0  0  0
   37.8720   24.4800   31.5070 C   0  0  0  0  0  0  0  0  0  0  0  0
   37.3330   23.2180   31.2940 C   0  0  0  0  0  0  0  0  0  0  0  0
   35.9590   23.1890   31.1250 C   0  0  0  0  0  0  0  0  0  0  0  0
   35.1960   24.3640   31.1710 C   0  0  0  0  0  0  0  0  0  0  0  0
   35.7990   25.5850   31.3870 C   0  0  0  0  0  0  0  0  0  0  0  0
   37.1600   25.6420   31.5570 C   0  0  0  0  0  0  0  0  0  0  0  0
   35.4380   22.2470   30.9520 H   0  0  0  0  0  0  0  0  0  0  0  0
   34.1160   24.3480   31.0390 H   0  0  0  0  0  0  0  0  0  0  0  0
   35.2420   26.5100   31.4280 H   0  0  0  0  0  0  0  0  0  0  0  0
   38.6990   21.5910   30.0560 C   0  0  0  0  0  0  0  0  0  0  0  0
   38.1250   22.0330   31.2510 C   0  0  0  0  0  0  0  0  0  0  0  0
   38.3630   21.2530   32.4020 C   0  0  0  0  0  0  0  0  0  0  0  0
   39.1320   20.1340   32.2690 N   0  0  0  0  0  0  0  0  0  0  0  0
   39.6630   19.7540   31.0890 C   0  0  0  0  0  0  0  0  0  0  0  0
   39.4460   20.4890   29.9640 N   0  0  0  0  0  0  0  0  0  0  0  0
   38.5170   22.1880   29.1710 H   0  0  0  0  0  0  0  0  0  0  0  0
   37.9360   21.5660   33.3360 H   0  0  0  0  0  0  0  0  0  0  0  0
   40.2610   18.8520   31.0710 H   0  0  0  0  0  0  0  0  0  0  0  0
   39.2630   24.6130   31.6900 O   0  0  0  0  0  0  0  0  0  0  0  0
   39.7310   23.8170   32.1300 H   0  0  0  0  0  0  0  0  0  0  0  0
  2  1  1  0  0  0  0
  3  2  2  0  0  0  0
  4  3  1  0  0  0  0
  5  4  2  0  0  0  0
  5  6  1  0  0  0  0
  6 10  1  0  0  0  0
  6  7  2  0  0  0  0
  7  2  1  0  0  0  0
  7 12  1  0  0  0  0
  8  4  1  0  0  0  0
  9  5  1  0  0  0  0
 11 22  1  0  0  0  0
 12 13  1  0  0  0  0
 12 11  2  0  0  0  0
 13 15  2  0  0  0  0
 14 13  1  0  0  0  0
 15 16  1  0  0  0  0
 15 21  1  0  0  0  0
 16 18  1  0  0  0  0
 17 16  1  0  0  0  0
 18 19  2  0  0  0  0
 19 20  1  0  0  0  0
 21 19  1  0  0  0  0
 22 21  2  0  0  0  0
 23  3  1  0  0  0  0
 24 29  1  0  0  0  0
 24 42  1  0  0  0  0
 25 24  2  0  0  0  0
 26 27  2  0  0  0  0
 26 25  1  0  0  0  0
 27 28  1  0  0  0  0
 28 32  1  0  0  0  0
 28 29  2  0  0  0  0
 29 23  1  0  0  0  0
 30 26  1  0  0  0  0
 31 27  1  0  0  0  0
 33 34  1  0  0  0  0
 34 25  1  0  0  0  0
 34 35  2  0  0  0  0
 35 40  1  0  0  0  0
 36 35  1  0  0  0  0
 37 36  2  0  0  0  0
 38 33  2  0  0  0  0
 38 37  1  0  0  0  0
 39 33  1  0  0  0  0
 41 37  1  0  0  0  0
 42 43  1  0  0  0  0
M  END
>  <minimizedAffinity>
-6.37649345

$$$$
