
 OpenBabel03272509013D

 34 37  0  0  0  0  0  0  0  0999 V2000
   38.8050   32.2990   48.9830 Cl  0  0  0  0  0  0  0  0  0  0  0  0
   37.4870   31.3470   48.3720 C   0  0  0  0  0  0  0  0  0  0  0  0
   37.4250   31.0510   47.0140 C   0  0  0  0  0  0  0  0  0  0  0  0
   36.4000   30.3110   46.4840 C   0  0  0  0  0  0  0  0  0  0  0  0
   35.3870   29.8330   47.2870 C   0  0  0  0  0  0  0  0  0  0  0  0
   35.4080   30.1020   48.6360 C   0  0  0  0  0  0  0  0  0  0  0  0
   34.1860   29.5630   49.7720 Cl  0  0  0  0  0  0  0  0  0  0  0  0
   36.4680   30.8570   49.1420 C   0  0  0  0  0  0  0  0  0  0  0  0
   36.3660   30.0880   45.4230 H   0  0  0  0  0  0  0  0  0  0  0  0
   34.5560   29.2460   46.9190 H   0  0  0  0  0  0  0  0  0  0  0  0
   39.2640   33.0340   44.5330 C   0  0  0  0  0  0  0  0  0  0  0  0
   40.5200   32.4110   44.4890 C   0  0  0  0  0  0  0  0  0  0  0  0
   40.7040   31.3040   45.3370 C   0  0  0  0  0  0  0  0  0  0  0  0
   39.6710   30.9150   46.1300 N   0  0  0  0  0  0  0  0  0  0  0  0
   38.4760   31.5340   46.1470 C   0  0  0  0  0  0  0  0  0  0  0  0
   38.3170   32.5780   45.3420 N   0  0  0  0  0  0  0  0  0  0  0  0
   38.9490   33.8890   43.9550 H   0  0  0  0  0  0  0  0  0  0  0  0
   41.2210   32.8550   43.7990 H   0  0  0  0  0  0  0  0  0  0  0  0
   41.6680   30.8580   45.2760 H   0  0  0  0  0  0  0  0  0  0  0  0
   36.5340   31.1380   50.6020 C   0  0  0  0  0  0  0  0  0  0  0  0
   35.4950   31.1590   50.9910 H   0  0  0  0  0  0  0  0  0  0  0  0
   37.0770   32.0930   50.7830 H   0  0  0  0  0  0  0  0  0  0  0  0
   37.4200   30.0380   52.6390 C   0  0  0  0  0  3  0  0  0  0  0  0
   37.2600   30.0220   51.2510 C   0  0  0  0  0  0  0  0  0  0  0  0
   37.7930   28.9500   50.5770 C   0  0  0  0  0  0  0  0  0  0  0  0
   37.6470   28.9800   49.5150 H   0  0  0  0  0  0  0  0  0  0  0  0
   38.4720   27.8930   51.1620 C   0  0  0  0  0  0  0  0  0  0  0  0
   39.0620   26.7670   50.7010 N   0  0  0  0  0  0  0  0  0  0  0  0
   39.0940   26.4950   49.6800 H   0  0  0  0  0  0  0  0  0  0  0  0
   39.5660   26.1110   51.7330 N   0  0  0  0  0  0  0  0  0  0  0  0
   39.3060   26.8080   52.8720 C   0  0  0  0  0  0  0  0  0  0  0  0
   39.6210   26.4700   53.8530 H   0  0  0  0  0  0  0  0  0  0  0  0
   38.6080   27.9520   52.5520 C   0  0  0  0  0  0  0  0  0  0  0  0
   38.0950   29.0020   53.2850 C   0  0  0  0  0  3  0  0  0  0  0  0
  2  1  1  0  0  0  0
  2  8  1  0  0  0  0
  3  2  2  0  0  0  0
  4  3  1  0  0  0  0
  4  5  2  0  0  0  0
  5  6  1  0  0  0  0
  6  8  2  0  0  0  0
  6  7  1  0  0  0  0
  8 20  1  0  0  0  0
  9  4  1  0  0  0  0
 10  5  1  0  0  0  0
 11 16  1  0  0  0  0
 12 11  2  0  0  0  0
 12 13  1  0  0  0  0
 13 14  2  0  0  0  0
 14 15  1  0  0  0  0
 15  3  1  0  0  0  0
 16 15  2  0  0  0  0
 17 11  1  0  0  0  0
 18 12  1  0  0  0  0
 19 13  1  0  0  0  0
 20 22  1  0  0  0  0
 20 21  1  0  0  0  0
 20 24  1  0  0  0  0
 23 34  1  0  0  0  0
 24 23  2  0  0  0  0
 25 27  2  0  0  0  0
 25 24  1  0  0  0  0
 26 25  1  0  0  0  0
 27 33  1  0  0  0  0
 28 27  1  0  0  0  0
 28 30  1  0  0  0  0
 29 28  1  0  0  0  0
 30 31  2  0  0  0  0
 31 32  1  0  0  0  0
 33 31  1  0  0  0  0
 33 34  2  0  0  0  0
M  END
>  <minimizedAffinity>
-2.14630079

>  <minimizedRMSD>
1.65587854

$$$$
