
 OpenBabel03272508113D

 37 40  0  0  0  0  0  0  0  0999 V2000
   36.7170   29.4390   44.0060 Cl  0  0  0  0  0  0  0  0  0  0  0  0
   38.3880   29.8290   43.5330 C   0  0  0  0  0  0  0  0  0  0  0  0
   39.3400   30.3220   44.4070 C   0  0  0  0  0  0  0  0  0  0  0  0
   40.6050   30.5840   43.9060 C   0  0  0  0  0  0  0  0  0  0  0  0
   40.9000   30.3610   42.5860 C   0  0  0  0  0  0  0  0  0  0  0  0
   39.9670   29.8740   41.7090 C   0  0  0  0  0  0  0  0  0  0  0  0
   38.7110   29.6090   42.1890 C   0  0  0  0  0  0  0  0  0  0  0  0
   41.2900   30.9650   44.6490 H   0  0  0  0  0  0  0  0  0  0  0  0
   41.9070   30.5880   42.2620 H   0  0  0  0  0  0  0  0  0  0  0  0
   40.2560   29.7180   40.6760 H   0  0  0  0  0  0  0  0  0  0  0  0
   37.7600   27.7010   41.0360 C   0  0  0  0  0  3  0  0  0  0  0  0
   37.7510   29.0900   41.2140 C   0  0  0  0  0  0  0  0  0  0  0  0
   36.8410   29.7910   40.4500 C   0  0  0  0  0  0  0  0  0  0  0  0
   36.8610   30.8570   40.6130 H   0  0  0  0  0  0  0  0  0  0  0  0
   36.0130   29.1130   39.5810 C   0  0  0  0  0  0  0  0  0  0  0  0
   35.0660   29.5880   38.7520 N   0  0  0  0  0  0  0  0  0  0  0  0
   34.8050   30.5940   38.6410 H   0  0  0  0  0  0  0  0  0  0  0  0
   34.5190   28.5920   38.1030 N   0  0  0  0  0  0  0  0  0  0  0  0
   35.0880   27.4140   38.4810 C   0  0  0  0  0  0  0  0  0  0  0  0
   34.8620   26.4130   38.1350 H   0  0  0  0  0  0  0  0  0  0  0  0
   36.0450   27.7450   39.4270 C   0  0  0  0  0  0  0  0  0  0  0  0
   36.9390   27.0060   40.1690 C   0  0  0  0  0  3  0  0  0  0  0  0
   38.8600   30.4750   45.6720 O   0  0  0  0  0  0  0  0  0  0  0  0
   39.4280   32.5340   47.1280 O   0  0  0  0  0  0  0  0  0  0  0  0
   38.2950   31.8490   46.4460 P   0  0  1  0  0  0  0  0  0  0  0  0
   37.6920   32.8400   45.1860 O   0  0  0  0  0  0  0  0  0  0  0  0
   38.4470   33.2110   44.6630 H   0  0  0  0  0  0  0  0  0  0  0  0
   37.0080   31.4360   47.4770 O   0  0  0  0  0  0  0  0  0  0  0  0
   37.6050   30.5200   51.0020 C   0  0  0  0  0  0  0  0  0  0  0  0
   37.6920   31.3050   49.8520 C   0  0  0  0  0  0  0  0  0  0  0  0
   37.0670   30.8650   48.6960 C   0  0  0  0  0  0  0  0  0  0  0  0
   36.3890   29.6650   48.7520 N   0  0  0  0  0  0  0  0  0  0  0  0
   36.3320   28.9400   49.8870 C   0  0  0  0  0  0  0  0  0  0  0  0
   36.9370   29.3660   51.0050 N   0  0  0  0  0  0  0  0  0  0  0  0
   38.1350   30.9720   51.8420 H   0  0  0  0  0  0  0  0  0  0  0  0
   38.2010   32.2460   49.7390 H   0  0  0  0  0  0  0  0  0  0  0  0
   35.8000   27.9980   49.9270 H   0  0  0  0  0  0  0  0  0  0  0  0
  2  1  1  0  0  0  0
  2  3  1  0  0  0  0
  3 23  1  0  0  0  0
  4  3  2  0  0  0  0
  4  8  1  0  0  0  0
  5  4  1  0  0  0  0
  6  7  1  0  0  0  0
  6  5  2  0  0  0  0
  7  2  2  0  0  0  0
  9  5  1  0  0  0  0
 10  6  1  0  0  0  0
 11 12  1  0  0  0  0
 12  7  1  0  0  0  0
 13 14  1  0  0  0  0
 13 12  2  0  0  0  0
 15 13  1  0  0  0  0
 16 15  1  0  0  0  0
 17 16  1  0  0  0  0
 18 19  2  0  0  0  0
 18 16  1  0  0  0  0
 19 21  1  0  0  0  0
 20 19  1  0  0  0  0
 21 15  2  0  0  0  0
 21 22  1  0  0  0  0
 22 11  2  0  0  0  0
 23 25  1  0  0  0  0
 25 24  2  1  0  0  0
 25 28  1  0  0  0  0
 26 25  1  0  0  0  0
 27 26  1  0  0  0  0
 28 31  1  0  0  0  0
 29 34  1  0  0  0  0
 29 35  1  0  0  0  0
 30 29  2  0  0  0  0
 31 32  2  0  0  0  0
 31 30  1  0  0  0  0
 32 33  1  0  0  0  0
 33 37  1  0  0  0  0
 33 34  2  0  0  0  0
 36 30  1  0  0  0  0
M  END
>  <minimizedAffinity>
-4.8080554

>  <minimizedRMSD>
0.789900124

$$$$
