
 OpenBabel03272506073D

 33 36  0  0  0  0  0  0  0  0999 V2000
   36.3210   27.9370   32.8070 C   0  0  0  0  0  0  0  0  0  0  0  0
   36.1870   27.1810   31.5840 C   0  0  0  0  0  0  0  0  0  0  0  0
   36.9760   25.6550   32.0480 S   0  0  0  0  0  0  0  0  0  0  0  0
   37.3680   26.2340   33.7860 C   0  0  0  0  0  0  0  0  0  0  0  0
   36.9210   27.3430   33.8010 N   0  0  0  0  0  0  0  0  0  0  0  0
   35.7230   27.5150   30.6770 H   0  0  0  0  0  0  0  0  0  0  0  0
   39.0440   24.4270   34.2340 C   0  0  0  0  0  3  0  0  0  0  0  0
   38.0760   25.2740   34.6630 C   0  0  0  0  0  0  0  0  0  0  0  0
   37.6100   25.3700   35.9570 C   0  0  0  0  0  0  0  0  0  0  0  0
   36.8440   26.0340   36.3190 H   0  0  0  0  0  0  0  0  0  0  0  0
   38.1640   24.5360   36.9330 C   0  0  0  0  0  0  0  0  0  0  0  0
   38.0210   24.3030   38.2520 N   0  0  0  0  0  0  0  0  0  0  0  0
   37.3220   24.8460   38.7970 H   0  0  0  0  0  0  0  0  0  0  0  0
   38.8650   23.3500   38.6290 N   0  0  0  0  0  0  0  0  0  0  0  0
   39.5950   22.9200   37.5800 C   0  0  0  0  0  0  0  0  0  0  0  0
   40.3420   22.1440   37.6760 H   0  0  0  0  0  0  0  0  0  0  0  0
   39.1560   23.6670   36.4990 C   0  0  0  0  0  0  0  0  0  0  0  0
   39.6080   23.5880   35.1960 C   0  0  0  0  0  3  0  0  0  0  0  0
   35.7640   29.3340   32.8480 C   0  0  0  0  0  0  0  0  0  0  0  0
   36.4800   30.0250   33.3380 H   0  0  0  0  0  0  0  0  0  0  0  0
   35.6590   29.7290   31.7980 H   0  0  0  0  0  0  0  0  0  0  0  0
   34.4650   29.3940   33.5570 C   0  0  0  0  0  0  0  0  0  0  0  0
   34.0950   28.4210   33.9290 H   0  0  0  0  0  0  0  0  0  0  0  0
   33.7020   29.8550   32.8900 H   0  0  0  0  0  0  0  0  0  0  0  0
   33.6040   31.4780   36.4950 C   0  0  0  0  0  0  0  0  0  0  0  0
   34.8260   32.0730   36.8240 C   0  0  0  0  0  0  0  0  0  0  0  0
   35.9350   31.7510   36.0320 C   0  0  0  0  0  0  0  0  0  0  0  0
   35.7840   30.8920   34.9960 N   0  0  0  0  0  0  0  0  0  0  0  0
   34.5620   30.3490   34.7330 C   0  0  0  0  0  0  0  0  0  0  0  0
   33.4810   30.6320   35.4660 N   0  0  0  0  0  0  0  0  0  0  0  0
   32.7580   31.7370   37.1180 H   0  0  0  0  0  0  0  0  0  0  0  0
   34.8720   32.7530   37.6710 H   0  0  0  0  0  0  0  0  0  0  0  0
   36.8920   32.1990   36.2680 H   0  0  0  0  0  0  0  0  0  0  0  0
  1 19  1  0  0  0  0
  1  5  1  0  0  0  0
  2  3  1  0  0  0  0
  2  1  2  0  0  0  0
  3  4  1  0  0  0  0
  4  5  2  0  0  0  0
  4  8  1  0  0  0  0
  6  2  1  0  0  0  0
  7  8  2  0  0  0  0
  7 18  1  0  0  0  0
  8  9  1  0  0  0  0
  9 10  1  0  0  0  0
  9 11  2  0  0  0  0
 11 12  1  0  0  0  0
 12 14  1  0  0  0  0
 12 13  1  0  0  0  0
 15 16  1  0  0  0  0
 15 14  2  0  0  0  0
 17 11  1  0  0  0  0
 17 15  1  0  0  0  0
 18 17  2  0  0  0  0
 19 20  1  0  0  0  0
 19 22  1  0  0  0  0
 21 19  1  0  0  0  0
 22 23  1  0  0  0  0
 22 29  1  0  0  0  0
 24 22  1  0  0  0  0
 25 26  1  0  0  0  0
 25 31  1  0  0  0  0
 26 32  1  0  0  0  0
 27 33  1  0  0  0  0
 27 26  2  0  0  0  0
 28 27  1  0  0  0  0
 29 28  2  0  0  0  0
 29 30  1  0  0  0  0
 30 25  2  0  0  0  0
M  END
>  <minimizedAffinity>
-5.6090107

$$$$

 OpenBabel03272506073D

 33 36  0  0  0  0  0  0  0  0999 V2000
   37.5250   27.6180   32.9680 C   0  0  0  0  0  0  0  0  0  0  0  0
   37.2240   28.0200   31.6130 C   0  0  0  0  0  0  0  0  0  0  0  0
   35.9020   29.1770   31.8970 S   0  0  0  0  0  0  0  0  0  0  0  0
   35.9370   28.9640   33.7570 C   0  0  0  0  0  0  0  0  0  0  0  0
   36.8130   28.1640   33.9140 N   0  0  0  0  0  0  0  0  0  0  0  0
   37.7100   27.6730   30.7240 H   0  0  0  0  0  0  0  0  0  0  0  0
   33.6170   29.6500   34.4070 C   0  0  0  0  0  3  0  0  0  0  0  0
   34.9630   29.7600   34.5370 C   0  0  0  0  0  0  0  0  0  0  0  0
   35.6190   30.6130   35.3990 C   0  0  0  0  0  0  0  0  0  0  0  0
   36.6830   30.7160   35.5190 H   0  0  0  0  0  0  0  0  0  0  0  0
   34.8580   31.4490   36.2220 C   0  0  0  0  0  0  0  0  0  0  0  0
   35.0660   32.3890   37.1640 N   0  0  0  0  0  0  0  0  0  0  0  0
   36.0390   32.6420   37.4310 H   0  0  0  0  0  0  0  0  0  0  0  0
   33.9000   32.8470   37.6030 N   0  0  0  0  0  0  0  0  0  0  0  0
   32.8810   32.2300   36.9710 C   0  0  0  0  0  0  0  0  0  0  0  0
   31.8460   32.4600   37.1840 H   0  0  0  0  0  0  0  0  0  0  0  0
   33.4800   31.3410   36.0930 C   0  0  0  0  0  0  0  0  0  0  0  0
   32.8440   30.4780   35.2210 C   0  0  0  0  0  3  0  0  0  0  0  0
   38.6240   26.6140   33.1870 C   0  0  0  0  0  0  0  0  0  0  0  0
   38.2220   25.5810   33.1500 H   0  0  0  0  0  0  0  0  0  0  0  0
   39.3580   26.6660   32.3350 H   0  0  0  0  0  0  0  0  0  0  0  0
   39.3170   26.8220   34.4800 C   0  0  0  0  0  0  0  0  0  0  0  0
   38.9640   27.6960   35.0590 H   0  0  0  0  0  0  0  0  0  0  0  0
   40.4120   26.9080   34.3020 H   0  0  0  0  0  0  0  0  0  0  0  0
   39.9150   23.5250   36.0570 C   0  0  0  0  0  0  0  0  0  0  0  0
   38.8380   23.4020   36.9400 C   0  0  0  0  0  0  0  0  0  0  0  0
   37.9160   24.4540   36.9850 C   0  0  0  0  0  0  0  0  0  0  0  0
   38.1000   25.5320   36.1860 N   0  0  0  0  0  0  0  0  0  0  0  0
   39.1730   25.5850   35.3480 C   0  0  0  0  0  0  0  0  0  0  0  0
   40.0740   24.6010   35.2770 N   0  0  0  0  0  0  0  0  0  0  0  0
   40.6170   22.7030   36.0350 H   0  0  0  0  0  0  0  0  0  0  0  0
   38.7550   22.5070   37.5520 H   0  0  0  0  0  0  0  0  0  0  0  0
   37.0740   24.3820   37.6620 H   0  0  0  0  0  0  0  0  0  0  0  0
  1 19  1  0  0  0  0
  1  5  1  0  0  0  0
  2  3  1  0  0  0  0
  2  1  2  0  0  0  0
  3  4  1  0  0  0  0
  4  5  2  0  0  0  0
  4  8  1  0  0  0  0
  6  2  1  0  0  0  0
  7  8  2  0  0  0  0
  7 18  1  0  0  0  0
  8  9  1  0  0  0  0
  9 10  1  0  0  0  0
  9 11  2  0  0  0  0
 11 12  1  0  0  0  0
 12 13  1  0  0  0  0
 12 14  1  0  0  0  0
 15 16  1  0  0  0  0
 15 14  2  0  0  0  0
 17 11  1  0  0  0  0
 17 15  1  0  0  0  0
 18 17  2  0  0  0  0
 19 22  1  0  0  0  0
 20 19  1  0  0  0  0
 21 19  1  0  0  0  0
 22 23  1  0  0  0  0
 22 29  1  0  0  0  0
 24 22  1  0  0  0  0
 25 26  1  0  0  0  0
 26 27  2  0  0  0  0
 26 32  1  0  0  0  0
 27 33  1  0  0  0  0
 28 27  1  0  0  0  0
 29 28  2  0  0  0  0
 30 29  1  0  0  0  0
 30 25  2  0  0  0  0
 31 25  1  0  0  0  0
M  END
>  <minimizedAffinity>
-5.48197412

$$$$

 OpenBabel03272506073D

 33 36  0  0  0  0  0  0  0  0999 V2000
   36.5320   28.0070   33.9340 C   0  0  0  0  0  0  0  0  0  0  0  0
   36.5110   27.3680   32.6390 C   0  0  0  0  0  0  0  0  0  0  0  0
   37.2680   25.8060   33.0270 S   0  0  0  0  0  0  0  0  0  0  0  0
   37.5030   26.2210   34.8390 C   0  0  0  0  0  0  0  0  0  0  0  0
   37.0480   27.3240   34.9170 N   0  0  0  0  0  0  0  0  0  0  0  0
   36.1250   27.7850   31.7300 H   0  0  0  0  0  0  0  0  0  0  0  0
   37.6030   24.7110   36.8360 C   0  0  0  0  0  3  0  0  0  0  0  0
   38.1390   25.1840   35.6820 C   0  0  0  0  0  0  0  0  0  0  0  0
   39.3360   24.7810   35.1290 C   0  0  0  0  0  0  0  0  0  0  0  0
   39.7790   25.1400   34.2180 H   0  0  0  0  0  0  0  0  0  0  0  0
   40.0840   23.8010   35.7910 C   0  0  0  0  0  0  0  0  0  0  0  0
   41.2460   23.1420   35.6220 N   0  0  0  0  0  0  0  0  0  0  0  0
   41.8360   23.3460   34.7910 H   0  0  0  0  0  0  0  0  0  0  0  0
   41.4280   22.2950   36.6270 N   0  0  0  0  0  0  0  0  0  0  0  0
   40.3970   22.3590   37.4950 C   0  0  0  0  0  0  0  0  0  0  0  0
   40.3530   21.7470   38.3850 H   0  0  0  0  0  0  0  0  0  0  0  0
   39.5400   23.3140   36.9710 C   0  0  0  0  0  0  0  0  0  0  0  0
   38.3380   23.7340   37.5080 C   0  0  0  0  0  3  0  0  0  0  0  0
   35.9640   29.3960   34.0540 C   0  0  0  0  0  0  0  0  0  0  0  0
   36.5070   29.9740   34.8300 H   0  0  0  0  0  0  0  0  0  0  0  0
   36.1440   29.9610   33.0970 H   0  0  0  0  0  0  0  0  0  0  0  0
   34.5190   29.3780   34.3820 C   0  0  0  0  0  0  0  0  0  0  0  0
   34.1390   28.4060   34.7470 H   0  0  0  0  0  0  0  0  0  0  0  0
   33.9350   29.6970   33.4900 H   0  0  0  0  0  0  0  0  0  0  0  0
   34.8640   32.1860   36.7720 C   0  0  0  0  0  0  0  0  0  0  0  0
   33.5790   32.2970   37.3100 C   0  0  0  0  0  0  0  0  0  0  0  0
   32.6050   31.4050   36.8450 C   0  0  0  0  0  0  0  0  0  0  0  0
   32.9400   30.4850   35.9090 N   0  0  0  0  0  0  0  0  0  0  0  0
   34.2140   30.4340   35.4290 C   0  0  0  0  0  0  0  0  0  0  0  0
   35.1710   31.2670   35.8470 N   0  0  0  0  0  0  0  0  0  0  0  0
   35.6040   32.8830   37.1420 H   0  0  0  0  0  0  0  0  0  0  0  0
   33.3830   33.0610   38.0580 H   0  0  0  0  0  0  0  0  0  0  0  0
   31.6020   31.4720   37.2470 H   0  0  0  0  0  0  0  0  0  0  0  0
  1 19  1  0  0  0  0
  1  5  1  0  0  0  0
  2  3  1  0  0  0  0
  2  1  2  0  0  0  0
  3  4  1  0  0  0  0
  4  5  2  0  0  0  0
  4  8  1  0  0  0  0
  6  2  1  0  0  0  0
  7 18  1  0  0  0  0
  8  7  2  0  0  0  0
  9  8  1  0  0  0  0
  9 11  2  0  0  0  0
 10  9  1  0  0  0  0
 11 17  1  0  0  0  0
 12 11  1  0  0  0  0
 12 14  1  0  0  0  0
 13 12  1  0  0  0  0
 14 15  2  0  0  0  0
 15 16  1  0  0  0  0
 17 15  1  0  0  0  0
 17 18  2  0  0  0  0
 19 22  1  0  0  0  0
 19 20  1  0  0  0  0
 21 19  1  0  0  0  0
 22 23  1  0  0  0  0
 22 29  1  0  0  0  0
 24 22  1  0  0  0  0
 25 31  1  0  0  0  0
 25 26  1  0  0  0  0
 26 32  1  0  0  0  0
 27 33  1  0  0  0  0
 27 26  2  0  0  0  0
 28 27  1  0  0  0  0
 29 30  1  0  0  0  0
 29 28  2  0  0  0  0
 30 25  2  0  0  0  0
M  END
>  <minimizedAffinity>
-5.45484972

$$$$

 OpenBabel03272506073D

 33 36  0  0  0  0  0  0  0  0999 V2000
   37.2250   25.4570   33.0430 C   0  0  0  0  0  0  0  0  0  0  0  0
   36.6350   25.1810   31.7540 C   0  0  0  0  0  0  0  0  0  0  0  0
   35.9100   26.7620   31.3770 S   0  0  0  0  0  0  0  0  0  0  0  0
   36.4890   27.5560   32.9710 C   0  0  0  0  0  0  0  0  0  0  0  0
   37.0720   26.6640   33.5130 N   0  0  0  0  0  0  0  0  0  0  0  0
   36.6660   24.2500   31.2260 H   0  0  0  0  0  0  0  0  0  0  0  0
   35.8780   29.8500   32.1710 C   0  0  0  0  0  3  0  0  0  0  0  0
   36.1260   28.9760   33.1790 C   0  0  0  0  0  0  0  0  0  0  0  0
   36.0810   29.2700   34.5250 C   0  0  0  0  0  0  0  0  0  0  0  0
   36.2730   28.5950   35.3390 H   0  0  0  0  0  0  0  0  0  0  0  0
   35.7530   30.5730   34.9160 C   0  0  0  0  0  0  0  0  0  0  0  0
   35.5980   31.2680   36.0590 N   0  0  0  0  0  0  0  0  0  0  0  0
   35.7420   30.7920   36.9720 H   0  0  0  0  0  0  0  0  0  0  0  0
   35.2680   32.5220   35.7770 N   0  0  0  0  0  0  0  0  0  0  0  0
   35.1910   32.7030   34.4420 C   0  0  0  0  0  0  0  0  0  0  0  0
   34.9350   33.6580   34.0030 H   0  0  0  0  0  0  0  0  0  0  0  0
   35.4970   31.4710   33.8880 C   0  0  0  0  0  0  0  0  0  0  0  0
   35.5490   31.1540   32.5450 C   0  0  0  0  0  3  0  0  0  0  0  0
   37.9640   24.3470   33.7420 C   0  0  0  0  0  0  0  0  0  0  0  0
   37.2740   23.7600   34.3810 H   0  0  0  0  0  0  0  0  0  0  0  0
   38.3450   23.6100   32.9800 H   0  0  0  0  0  0  0  0  0  0  0  0
   39.0800   24.8600   34.5700 C   0  0  0  0  0  0  0  0  0  0  0  0
   39.1550   25.9620   34.6170 H   0  0  0  0  0  0  0  0  0  0  0  0
   40.0400   24.4350   34.2000 H   0  0  0  0  0  0  0  0  0  0  0  0
   37.9450   24.3230   38.0540 C   0  0  0  0  0  0  0  0  0  0  0  0
   38.8070   23.3230   38.5120 C   0  0  0  0  0  0  0  0  0  0  0  0
   39.7710   22.8420   37.6190 C   0  0  0  0  0  0  0  0  0  0  0  0
   39.8300   23.3550   36.3670 N   0  0  0  0  0  0  0  0  0  0  0  0
   38.9570   24.3300   35.9870 C   0  0  0  0  0  0  0  0  0  0  0  0
   38.0240   24.8150   36.8120 N   0  0  0  0  0  0  0  0  0  0  0  0
   37.2060   24.6830   38.7580 H   0  0  0  0  0  0  0  0  0  0  0  0
   38.7010   22.9590   39.5310 H   0  0  0  0  0  0  0  0  0  0  0  0
   40.4500   22.0670   37.9510 H   0  0  0  0  0  0  0  0  0  0  0  0
  1  5  1  0  0  0  0
  1 19  1  0  0  0  0
  2  1  2  0  0  0  0
  3  2  1  0  0  0  0
  3  4  1  0  0  0  0
  4  8  1  0  0  0  0
  4  5  2  0  0  0  0
  6  2  1  0  0  0  0
  7 18  2  0  0  0  0
  7  8  1  0  0  0  0
  8  9  2  0  0  0  0
  9 11  1  0  0  0  0
  9 10  1  0  0  0  0
 11 12  1  0  0  0  0
 12 13  1  0  0  0  0
 14 12  1  0  0  0  0
 15 14  2  0  0  0  0
 16 15  1  0  0  0  0
 17 15  1  0  0  0  0
 17 11  2  0  0  0  0
 18 17  1  0  0  0  0
 19 20  1  0  0  0  0
 19 22  1  0  0  0  0
 21 19  1  0  0  0  0
 22 23  1  0  0  0  0
 22 29  1  0  0  0  0
 24 22  1  0  0  0  0
 25 26  1  0  0  0  0
 25 31  1  0  0  0  0
 26 32  1  0  0  0  0
 27 33  1  0  0  0  0
 27 26  2  0  0  0  0
 28 27  1  0  0  0  0
 29 28  2  0  0  0  0
 29 30  1  0  0  0  0
 30 25  2  0  0  0  0
M  END
>  <minimizedAffinity>
-5.40467548

$$$$

 OpenBabel03272506073D

 33 36  0  0  0  0  0  0  0  0999 V2000
   36.6890   27.7370   34.2540 C   0  0  0  0  0  0  0  0  0  0  0  0
   36.7660   27.1800   32.9230 C   0  0  0  0  0  0  0  0  0  0  0  0
   37.6030   25.6450   33.2540 S   0  0  0  0  0  0  0  0  0  0  0  0
   37.7300   25.9590   35.0960 C   0  0  0  0  0  0  0  0  0  0  0  0
   37.2030   27.0260   35.2190 N   0  0  0  0  0  0  0  0  0  0  0  0
   36.3950   27.6280   32.0230 H   0  0  0  0  0  0  0  0  0  0  0  0
   37.9330   24.4780   37.1070 C   0  0  0  0  0  3  0  0  0  0  0  0
   38.3930   24.9120   35.9070 C   0  0  0  0  0  0  0  0  0  0  0  0
   39.5260   24.4550   35.2690 C   0  0  0  0  0  0  0  0  0  0  0  0
   39.9090   24.7840   34.3190 H   0  0  0  0  0  0  0  0  0  0  0  0
   40.2880   23.4580   35.8880 C   0  0  0  0  0  0  0  0  0  0  0  0
   41.4080   22.7530   35.6400 N   0  0  0  0  0  0  0  0  0  0  0  0
   41.9380   22.9230   34.7620 H   0  0  0  0  0  0  0  0  0  0  0  0
   41.6380   21.9160   36.6440 N   0  0  0  0  0  0  0  0  0  0  0  0
   40.6820   22.0320   37.5880 C   0  0  0  0  0  0  0  0  0  0  0  0
   40.6860   21.4360   38.4900 H   0  0  0  0  0  0  0  0  0  0  0  0
   39.8210   23.0100   37.1160 C   0  0  0  0  0  0  0  0  0  0  0  0
   38.6820   23.4840   37.7370 C   0  0  0  0  0  3  0  0  0  0  0  0
   36.0290   29.0780   34.4290 C   0  0  0  0  0  0  0  0  0  0  0  0
   35.4030   29.0890   35.3450 H   0  0  0  0  0  0  0  0  0  0  0  0
   36.8150   29.8640   34.6110 H   0  0  0  0  0  0  0  0  0  0  0  0
   35.1930   29.4420   33.2620 C   0  0  0  0  0  0  0  0  0  0  0  0
   35.3020   28.7740   32.3880 H   0  0  0  0  0  0  0  0  0  0  0  0
   35.4140   30.4910   32.9620 H   0  0  0  0  0  0  0  0  0  0  0  0
   31.4920   29.4870   33.1230 C   0  0  0  0  0  0  0  0  0  0  0  0
   31.1300   29.5160   34.4720 C   0  0  0  0  0  0  0  0  0  0  0  0
   32.1620   29.5180   35.4180 C   0  0  0  0  0  0  0  0  0  0  0  0
   33.4480   29.4940   34.9970 N   0  0  0  0  0  0  0  0  0  0  0  0
   33.7290   29.4680   33.6640 C   0  0  0  0  0  0  0  0  0  0  0  0
   32.7720   29.4640   32.7310 N   0  0  0  0  0  0  0  0  0  0  0  0
   30.6820   29.4860   32.4060 H   0  0  0  0  0  0  0  0  0  0  0  0
   30.0760   29.5330   34.7370 H   0  0  0  0  0  0  0  0  0  0  0  0
   31.9060   29.5390   36.4700 H   0  0  0  0  0  0  0  0  0  0  0  0
  1 19  1  0  0  0  0
  1  5  1  0  0  0  0
  2  3  1  0  0  0  0
  2  1  2  0  0  0  0
  3  4  1  0  0  0  0
  4  5  2  0  0  0  0
  4  8  1  0  0  0  0
  6  2  1  0  0  0  0
  7 18  1  0  0  0  0
  8  7  2  0  0  0  0
  9 11  2  0  0  0  0
  9  8  1  0  0  0  0
 10  9  1  0  0  0  0
 11 17  1  0  0  0  0
 12 11  1  0  0  0  0
 12 14  1  0  0  0  0
 13 12  1  0  0  0  0
 14 15  2  0  0  0  0
 15 16  1  0  0  0  0
 17 15  1  0  0  0  0
 17 18  2  0  0  0  0
 19 21  1  0  0  0  0
 19 20  1  0  0  0  0
 22 29  1  0  0  0  0
 22 19  1  0  0  0  0
 23 22  1  0  0  0  0
 24 22  1  0  0  0  0
 25 26  1  0  0  0  0
 26 32  1  0  0  0  0
 26 27  2  0  0  0  0
 27 33  1  0  0  0  0
 28 27  1  0  0  0  0
 29 28  2  0  0  0  0
 30 25  2  0  0  0  0
 30 29  1  0  0  0  0
 31 25  1  0  0  0  0
M  END
>  <minimizedAffinity>
-5.39934444

$$$$

 OpenBabel03272506073D

 33 36  0  0  0  0  0  0  0  0999 V2000
   36.7410   27.4800   33.0640 C   0  0  0  0  0  0  0  0  0  0  0  0
   35.9630   27.6970   31.8660 C   0  0  0  0  0  0  0  0  0  0  0  0
   34.9700   29.0880   32.3630 S   0  0  0  0  0  0  0  0  0  0  0  0
   35.7240   29.1820   34.0750 C   0  0  0  0  0  0  0  0  0  0  0  0
   36.5160   28.2860   34.0650 N   0  0  0  0  0  0  0  0  0  0  0  0
   36.0220   27.1320   30.9580 H   0  0  0  0  0  0  0  0  0  0  0  0
   36.0100   31.1110   35.6480 C   0  0  0  0  0  3  0  0  0  0  0  0
   35.2150   30.2470   34.9690 C   0  0  0  0  0  0  0  0  0  0  0  0
   33.8370   30.2250   35.0080 C   0  0  0  0  0  0  0  0  0  0  0  0
   33.1880   29.5510   34.4790 H   0  0  0  0  0  0  0  0  0  0  0  0
   33.1740   31.1640   35.8050 C   0  0  0  0  0  0  0  0  0  0  0  0
   31.9080   31.4930   36.1250 N   0  0  0  0  0  0  0  0  0  0  0  0
   31.1190   30.9540   35.7150 H   0  0  0  0  0  0  0  0  0  0  0  0
   31.9130   32.5180   36.9670 N   0  0  0  0  0  0  0  0  0  0  0  0
   33.1760   32.9060   37.2350 C   0  0  0  0  0  0  0  0  0  0  0  0
   33.3990   33.7280   37.9010 H   0  0  0  0  0  0  0  0  0  0  0  0
   33.9830   32.0510   36.5010 C   0  0  0  0  0  0  0  0  0  0  0  0
   35.3640   32.0540   36.4480 C   0  0  0  0  0  3  0  0  0  0  0  0
   37.7440   26.3580   33.0710 C   0  0  0  0  0  0  0  0  0  0  0  0
   37.2290   25.3750   33.0510 H   0  0  0  0  0  0  0  0  0  0  0  0
   38.3460   26.3850   32.1200 H   0  0  0  0  0  0  0  0  0  0  0  0
   38.6360   26.4180   34.2510 C   0  0  0  0  0  0  0  0  0  0  0  0
   38.5570   27.3460   34.8460 H   0  0  0  0  0  0  0  0  0  0  0  0
   39.6900   26.2710   33.9250 H   0  0  0  0  0  0  0  0  0  0  0  0
   37.9190   24.3700   37.2530 C   0  0  0  0  0  0  0  0  0  0  0  0
   37.8700   23.0710   36.7390 C   0  0  0  0  0  0  0  0  0  0  0  0
   38.0830   22.9110   35.3650 C   0  0  0  0  0  0  0  0  0  0  0  0
   38.3250   24.0020   34.6000 N   0  0  0  0  0  0  0  0  0  0  0  0
   38.3590   25.2400   35.1680 C   0  0  0  0  0  0  0  0  0  0  0  0
   38.1610   25.4320   36.4750 N   0  0  0  0  0  0  0  0  0  0  0  0
   37.7520   24.4750   38.3160 H   0  0  0  0  0  0  0  0  0  0  0  0
   37.6700   22.2420   37.4140 H   0  0  0  0  0  0  0  0  0  0  0  0
   38.0500   21.9140   34.9440 H   0  0  0  0  0  0  0  0  0  0  0  0
  1 19  1  0  0  0  0
  1  5  1  0  0  0  0
  2  3  1  0  0  0  0
  2  1  2  0  0  0  0
  3  4  1  0  0  0  0
  4  8  1  0  0  0  0
  5  4  2  0  0  0  0
  6  2  1  0  0  0  0
  7 18  1  0  0  0  0
  8  9  1  0  0  0  0
  8  7  2  0  0  0  0
  9 11  2  0  0  0  0
 10  9  1  0  0  0  0
 11 12  1  0  0  0  0
 11 17  1  0  0  0  0
 12 14  1  0  0  0  0
 13 12  1  0  0  0  0
 14 15  2  0  0  0  0
 15 16  1  0  0  0  0
 17 15  1  0  0  0  0
 18 17  2  0  0  0  0
 19 22  1  0  0  0  0
 20 19  1  0  0  0  0
 21 19  1  0  0  0  0
 22 23  1  0  0  0  0
 22 29  1  0  0  0  0
 24 22  1  0  0  0  0
 25 31  1  0  0  0  0
 26 25  1  0  0  0  0
 26 32  1  0  0  0  0
 27 26  2  0  0  0  0
 28 29  2  0  0  0  0
 28 27  1  0  0  0  0
 29 30  1  0  0  0  0
 30 25  2  0  0  0  0
 33 27  1  0  0  0  0
M  END
>  <minimizedAffinity>
-5.38359499

$$$$

 OpenBabel03272506073D

 33 36  0  0  0  0  0  0  0  0999 V2000
   37.5060   24.7370   32.9040 C   0  0  0  0  0  0  0  0  0  0  0  0
   36.7630   24.2720   31.7560 C   0  0  0  0  0  0  0  0  0  0  0  0
   35.8690   25.7470   31.3190 S   0  0  0  0  0  0  0  0  0  0  0  0
   36.6030   26.7630   32.7110 C   0  0  0  0  0  0  0  0  0  0  0  0
   37.3260   25.9810   33.2550 N   0  0  0  0  0  0  0  0  0  0  0  0
   36.7920   23.2870   31.3350 H   0  0  0  0  0  0  0  0  0  0  0  0
   35.9590   28.8210   33.9850 C   0  0  0  0  0  3  0  0  0  0  0  0
   36.1620   28.1720   32.8110 C   0  0  0  0  0  0  0  0  0  0  0  0
   35.9910   28.7140   31.5550 C   0  0  0  0  0  0  0  0  0  0  0  0
   36.1460   28.2200   30.6130 H   0  0  0  0  0  0  0  0  0  0  0  0
   35.5740   30.0450   31.4500 C   0  0  0  0  0  0  0  0  0  0  0  0
   35.2950   30.9360   30.4790 N   0  0  0  0  0  0  0  0  0  0  0  0
   35.3830   30.6520   29.4830 H   0  0  0  0  0  0  0  0  0  0  0  0
   34.9330   32.0900   31.0230 N   0  0  0  0  0  0  0  0  0  0  0  0
   34.9600   32.0100   32.3690 C   0  0  0  0  0  0  0  0  0  0  0  0
   34.6990   32.8450   33.0040 H   0  0  0  0  0  0  0  0  0  0  0  0
   35.3660   30.7140   32.6490 C   0  0  0  0  0  0  0  0  0  0  0  0
   35.5430   30.1500   33.8980 C   0  0  0  0  0  3  0  0  0  0  0  0
   38.4220   23.7690   33.6020 C   0  0  0  0  0  0  0  0  0  0  0  0
   37.8380   23.0460   34.2070 H   0  0  0  0  0  0  0  0  0  0  0  0
   38.9550   23.1370   32.8380 H   0  0  0  0  0  0  0  0  0  0  0  0
   39.3980   24.4600   34.4760 C   0  0  0  0  0  0  0  0  0  0  0  0
   39.3920   25.5630   34.3960 H   0  0  0  0  0  0  0  0  0  0  0  0
   40.4200   24.0750   34.2630 H   0  0  0  0  0  0  0  0  0  0  0  0
   37.9400   24.2700   37.8750 C   0  0  0  0  0  0  0  0  0  0  0  0
   38.7760   23.3560   38.5220 C   0  0  0  0  0  0  0  0  0  0  0  0
   39.8340   22.8130   37.7840 C   0  0  0  0  0  0  0  0  0  0  0  0
   40.0030   23.1880   36.4930 N   0  0  0  0  0  0  0  0  0  0  0  0
   39.1490   24.0850   35.9260 C   0  0  0  0  0  0  0  0  0  0  0  0
   38.1280   24.6250   36.5980 N   0  0  0  0  0  0  0  0  0  0  0  0
   37.1270   24.6790   38.4610 H   0  0  0  0  0  0  0  0  0  0  0  0
   38.5790   23.1020   39.5610 H   0  0  0  0  0  0  0  0  0  0  0  0
   40.4950   22.1030   38.2640 H   0  0  0  0  0  0  0  0  0  0  0  0
  1  5  1  0  0  0  0
  1 19  1  0  0  0  0
  2  1  2  0  0  0  0
  3  2  1  0  0  0  0
  3  4  1  0  0  0  0
  4  8  1  0  0  0  0
  4  5  2  0  0  0  0
  6  2  1  0  0  0  0
  8  7  2  0  0  0  0
  9  8  1  0  0  0  0
 10  9  1  0  0  0  0
 11  9  2  0  0  0  0
 11 17  1  0  0  0  0
 12 14  1  0  0  0  0
 12 11  1  0  0  0  0
 13 12  1  0  0  0  0
 14 15  2  0  0  0  0
 15 17  1  0  0  0  0
 15 16  1  0  0  0  0
 17 18  2  0  0  0  0
 18  7  1  0  0  0  0
 19 20  1  0  0  0  0
 19 22  1  0  0  0  0
 21 19  1  0  0  0  0
 22 29  1  0  0  0  0
 23 22  1  0  0  0  0
 24 22  1  0  0  0  0
 25 31  1  0  0  0  0
 25 26  1  0  0  0  0
 26 32  1  0  0  0  0
 27 33  1  0  0  0  0
 27 26  2  0  0  0  0
 28 27  1  0  0  0  0
 29 28  2  0  0  0  0
 29 30  1  0  0  0  0
 30 25  2  0  0  0  0
M  END
>  <minimizedAffinity>
-5.35432339

$$$$

 OpenBabel03272506073D

 33 36  0  0  0  0  0  0  0  0999 V2000
   36.2890   28.1450   33.0170 C   0  0  0  0  0  0  0  0  0  0  0  0
   36.1720   27.4540   31.7540 C   0  0  0  0  0  0  0  0  0  0  0  0
   36.9780   25.9150   32.1430 S   0  0  0  0  0  0  0  0  0  0  0  0
   37.3520   26.4070   33.9120 C   0  0  0  0  0  0  0  0  0  0  0  0
   36.8910   27.5080   33.9820 N   0  0  0  0  0  0  0  0  0  0  0  0
   35.7100   27.8280   30.8630 H   0  0  0  0  0  0  0  0  0  0  0  0
   39.0380   24.5890   34.2730 C   0  0  0  0  0  3  0  0  0  0  0  0
   38.0660   25.4110   34.7420 C   0  0  0  0  0  0  0  0  0  0  0  0
   37.6030   25.4460   36.0400 C   0  0  0  0  0  0  0  0  0  0  0  0
   36.8350   26.0880   36.4340 H   0  0  0  0  0  0  0  0  0  0  0  0
   38.1640   24.5700   36.9760 C   0  0  0  0  0  0  0  0  0  0  0  0
   38.0250   24.2750   38.2830 N   0  0  0  0  0  0  0  0  0  0  0  0
   37.3240   24.7890   38.8530 H   0  0  0  0  0  0  0  0  0  0  0  0
   38.8730   23.3100   38.6140 N   0  0  0  0  0  0  0  0  0  0  0  0
   39.6030   22.9320   37.5450 C   0  0  0  0  0  0  0  0  0  0  0  0
   40.3540   22.1560   37.6040 H   0  0  0  0  0  0  0  0  0  0  0  0
   39.1580   23.7270   36.5000 C   0  0  0  0  0  0  0  0  0  0  0  0
   39.6070   23.7100   35.1940 C   0  0  0  0  0  3  0  0  0  0  0  0
   35.7150   29.5320   33.1260 C   0  0  0  0  0  0  0  0  0  0  0  0
   36.4950   30.2950   32.9240 H   0  0  0  0  0  0  0  0  0  0  0  0
   34.9470   29.6880   32.3180 H   0  0  0  0  0  0  0  0  0  0  0  0
   35.1210   29.7830   34.4600 C   0  0  0  0  0  0  0  0  0  0  0  0
   35.3380   30.7810   34.8840 H   0  0  0  0  0  0  0  0  0  0  0  0
   35.4590   28.9940   35.1690 H   0  0  0  0  0  0  0  0  0  0  0  0
   31.6930   29.1100   33.2320 C   0  0  0  0  0  0  0  0  0  0  0  0
   30.9070   29.3210   34.3680 C   0  0  0  0  0  0  0  0  0  0  0  0
   31.5640   29.6930   35.5470 C   0  0  0  0  0  0  0  0  0  0  0  0
   32.9110   29.8310   35.5410 N   0  0  0  0  0  0  0  0  0  0  0  0
   33.6150   29.6090   34.3950 C   0  0  0  0  0  0  0  0  0  0  0  0
   33.0240   29.2540   33.2510 N   0  0  0  0  0  0  0  0  0  0  0  0
   31.1690   28.8230   32.3300 H   0  0  0  0  0  0  0  0  0  0  0  0
   29.8300   29.1900   34.2990 H   0  0  0  0  0  0  0  0  0  0  0  0
   30.9770   29.8610   36.4410 H   0  0  0  0  0  0  0  0  0  0  0  0
  1 19  1  0  0  0  0
  1  5  1  0  0  0  0
  2  3  1  0  0  0  0
  2  1  2  0  0  0  0
  3  4  1  0  0  0  0
  4  5  2  0  0  0  0
  4  8  1  0  0  0  0
  6  2  1  0  0  0  0
  7  8  2  0  0  0  0
  7 18  1  0  0  0  0
  8  9  1  0  0  0  0
  9 10  1  0  0  0  0
  9 11  2  0  0  0  0
 11 12  1  0  0  0  0
 12 14  1  0  0  0  0
 12 13  1  0  0  0  0
 15 16  1  0  0  0  0
 15 14  2  0  0  0  0
 17 11  1  0  0  0  0
 17 15  1  0  0  0  0
 18 17  2  0  0  0  0
 19 22  1  0  0  0  0
 20 19  1  0  0  0  0
 21 19  1  0  0  0  0
 22 23  1  0  0  0  0
 22 24  1  0  0  0  0
 25 30  2  0  0  0  0
 25 26  1  0  0  0  0
 26 27  2  0  0  0  0
 27 33  1  0  0  0  0
 28 27  1  0  0  0  0
 29 22  1  0  0  0  0
 29 28  2  0  0  0  0
 30 29  1  0  0  0  0
 31 25  1  0  0  0  0
 32 26  1  0  0  0  0
M  END
>  <minimizedAffinity>
-5.30205631

$$$$

 OpenBabel03272506073D

 33 36  0  0  0  0  0  0  0  0999 V2000
   39.1500   24.3700   33.6640 C   0  0  0  0  0  0  0  0  0  0  0  0
   40.4340   25.0100   33.8310 C   0  0  0  0  0  0  0  0  0  0  0  0
   39.9590   26.7240   33.7760 S   0  0  0  0  0  0  0  0  0  0  0  0
   38.1390   26.3490   33.5410 C   0  0  0  0  0  0  0  0  0  0  0  0
   38.1160   25.1530   33.5340 N   0  0  0  0  0  0  0  0  0  0  0  0
   41.3790   24.5200   33.9510 H   0  0  0  0  0  0  0  0  0  0  0  0
   36.5620   28.0560   34.4750 C   0  0  0  0  0  3  0  0  0  0  0  0
   37.2290   27.5110   33.4270 C   0  0  0  0  0  0  0  0  0  0  0  0
   37.1620   27.9440   32.1210 C   0  0  0  0  0  0  0  0  0  0  0  0
   37.6800   27.5280   31.2750 H   0  0  0  0  0  0  0  0  0  0  0  0
   36.3450   29.0390   31.8190 C   0  0  0  0  0  0  0  0  0  0  0  0
   35.9970   29.7630   30.7370 N   0  0  0  0  0  0  0  0  0  0  0  0
   36.3930   29.5200   29.8080 H   0  0  0  0  0  0  0  0  0  0  0  0
   35.1490   30.7190   31.0950 N   0  0  0  0  0  0  0  0  0  0  0  0
   34.9060   30.6660   32.4210 C   0  0  0  0  0  0  0  0  0  0  0  0
   34.2400   31.3600   32.9140 H   0  0  0  0  0  0  0  0  0  0  0  0
   35.6610   29.6010   32.8880 C   0  0  0  0  0  0  0  0  0  0  0  0
   35.7430   29.1490   34.1910 C   0  0  0  0  0  3  0  0  0  0  0  0
   39.0990   22.8660   33.6530 C   0  0  0  0  0  0  0  0  0  0  0  0
   38.8800   22.4900   32.6330 H   0  0  0  0  0  0  0  0  0  0  0  0
   40.1170   22.4520   33.8980 H   0  0  0  0  0  0  0  0  0  0  0  0
   38.0840   22.3380   34.5950 C   0  0  0  0  0  0  0  0  0  0  0  0
   37.9190   21.2470   34.5350 H   0  0  0  0  0  0  0  0  0  0  0  0
   37.1210   22.8730   34.4370 H   0  0  0  0  0  0  0  0  0  0  0  0
   39.9930   22.6780   37.7510 C   0  0  0  0  0  0  0  0  0  0  0  0
   39.0920   23.3400   38.5900 C   0  0  0  0  0  0  0  0  0  0  0  0
   37.8360   23.6640   38.0630 C   0  0  0  0  0  0  0  0  0  0  0  0
   37.5480   23.3300   36.7820 N   0  0  0  0  0  0  0  0  0  0  0  0
   38.4750   22.6840   36.0210 C   0  0  0  0  0  0  0  0  0  0  0  0
   39.6830   22.3570   36.4890 N   0  0  0  0  0  0  0  0  0  0  0  0
   40.9580   22.4350   38.1750 H   0  0  0  0  0  0  0  0  0  0  0  0
   39.3930   23.5780   39.6070 H   0  0  0  0  0  0  0  0  0  0  0  0
   37.1220   24.1780   38.6940 H   0  0  0  0  0  0  0  0  0  0  0  0
  1  2  2  0  0  0  0
  2  6  1  0  0  0  0
  3  2  1  0  0  0  0
  4  3  1  0  0  0  0
  5  4  2  0  0  0  0
  5  1  1  0  0  0  0
  8  4  1  0  0  0  0
  8  7  2  0  0  0  0
  9  8  1  0  0  0  0
 10  9  1  0  0  0  0
 11  9  2  0  0  0  0
 11 17  1  0  0  0  0
 12 14  1  0  0  0  0
 12 11  1  0  0  0  0
 13 12  1  0  0  0  0
 14 15  2  0  0  0  0
 15 17  1  0  0  0  0
 15 16  1  0  0  0  0
 17 18  2  0  0  0  0
 18  7  1  0  0  0  0
 19  1  1  0  0  0  0
 19 21  1  0  0  0  0
 19 22  1  0  0  0  0
 20 19  1  0  0  0  0
 22 29  1  0  0  0  0
 23 22  1  0  0  0  0
 24 22  1  0  0  0  0
 25 31  1  0  0  0  0
 25 26  1  0  0  0  0
 26 32  1  0  0  0  0
 27 26  2  0  0  0  0
 27 33  1  0  0  0  0
 28 27  1  0  0  0  0
 29 30  1  0  0  0  0
 29 28  2  0  0  0  0
 30 25  2  0  0  0  0
M  END
>  <minimizedAffinity>
-5.29758549

$$$$
