
 OpenBabel03272508103D

 37 40  0  0  0  0  0  0  0  0999 V2000
   36.7070   29.4340   44.0500 Cl  0  0  0  0  0  0  0  0  0  0  0  0
   38.3710   29.8170   43.5520 C   0  0  0  0  0  0  0  0  0  0  0  0
   39.3360   30.3170   44.4100 C   0  0  0  0  0  0  0  0  0  0  0  0
   40.5940   30.5730   43.8900 C   0  0  0  0  0  0  0  0  0  0  0  0
   40.8710   30.3400   42.5680 C   0  0  0  0  0  0  0  0  0  0  0  0
   39.9260   29.8470   41.7070 C   0  0  0  0  0  0  0  0  0  0  0  0
   38.6760   29.5870   42.2060 C   0  0  0  0  0  0  0  0  0  0  0  0
   41.2890   30.9590   44.6200 H   0  0  0  0  0  0  0  0  0  0  0  0
   41.8740   30.5630   42.2290 H   0  0  0  0  0  0  0  0  0  0  0  0
   40.2010   29.6830   40.6720 H   0  0  0  0  0  0  0  0  0  0  0  0
   36.9910   30.0220   40.5180 C   0  0  0  0  0  3  0  0  0  0  0  0
   37.7020   29.0610   41.2470 C   0  0  0  0  0  0  0  0  0  0  0  0
   37.3970   27.7460   40.9710 C   0  0  0  0  0  0  0  0  0  0  0  0
   37.9630   27.0330   41.5500 H   0  0  0  0  0  0  0  0  0  0  0  0
   36.4400   27.4520   40.0230 C   0  0  0  0  0  0  0  0  0  0  0  0
   35.9890   26.2550   39.6010 N   0  0  0  0  0  0  0  0  0  0  0  0
   36.3180   25.3260   39.9470 H   0  0  0  0  0  0  0  0  0  0  0  0
   35.0730   26.4380   38.6830 N   0  0  0  0  0  0  0  0  0  0  0  0
   34.8820   27.7660   38.4650 C   0  0  0  0  0  0  0  0  0  0  0  0
   34.2000   28.2470   37.7740 H   0  0  0  0  0  0  0  0  0  0  0  0
   35.7560   28.4190   39.3200 C   0  0  0  0  0  0  0  0  0  0  0  0
   36.0290   29.7450   39.5660 C   0  0  0  0  0  3  0  0  0  0  0  0
   38.8720   30.4800   45.6790 O   0  0  0  0  0  0  0  0  0  0  0  0
   39.4450   32.5440   47.1270 O   0  0  0  0  0  0  0  0  0  0  0  0
   38.3100   31.8590   46.4470 P   0  0  1  0  0  0  0  0  0  0  0  0
   37.7110   32.8460   45.1830 O   0  0  0  0  0  0  0  0  0  0  0  0
   38.4670   33.2120   44.6590 H   0  0  0  0  0  0  0  0  0  0  0  0
   37.0220   31.4530   47.4790 O   0  0  0  0  0  0  0  0  0  0  0  0
   37.6130   30.5200   51.0020 C   0  0  0  0  0  0  0  0  0  0  0  0
   37.7030   31.3100   49.8550 C   0  0  0  0  0  0  0  0  0  0  0  0
   37.0780   30.8770   48.6960 C   0  0  0  0  0  0  0  0  0  0  0  0
   36.3990   29.6780   48.7460 N   0  0  0  0  0  0  0  0  0  0  0  0
   36.3390   28.9480   49.8780 C   0  0  0  0  0  0  0  0  0  0  0  0
   36.9430   29.3670   50.9980 N   0  0  0  0  0  0  0  0  0  0  0  0
   38.1430   30.9670   51.8440 H   0  0  0  0  0  0  0  0  0  0  0  0
   38.2130   32.2510   49.7470 H   0  0  0  0  0  0  0  0  0  0  0  0
   35.8050   28.0070   49.9120 H   0  0  0  0  0  0  0  0  0  0  0  0
  2  1  1  0  0  0  0
  2  3  1  0  0  0  0
  3 23  1  0  0  0  0
  4  3  2  0  0  0  0
  4  8  1  0  0  0  0
  5  4  1  0  0  0  0
  6  7  1  0  0  0  0
  6  5  2  0  0  0  0
  7  2  2  0  0  0  0
  9  5  1  0  0  0  0
 10  6  1  0  0  0  0
 11 12  1  0  0  0  0
 12  7  1  0  0  0  0
 13 12  2  0  0  0  0
 13 14  1  0  0  0  0
 15 13  1  0  0  0  0
 16 17  1  0  0  0  0
 16 15  1  0  0  0  0
 18 16  1  0  0  0  0
 19 18  2  0  0  0  0
 19 21  1  0  0  0  0
 20 19  1  0  0  0  0
 21 22  1  0  0  0  0
 21 15  2  0  0  0  0
 22 11  2  0  0  0  0
 23 25  1  0  0  0  0
 25 24  2  1  0  0  0
 25 28  1  0  0  0  0
 26 25  1  0  0  0  0
 27 26  1  0  0  0  0
 28 31  1  0  0  0  0
 29 35  1  0  0  0  0
 30 29  2  0  0  0  0
 31 32  2  0  0  0  0
 31 30  1  0  0  0  0
 32 33  1  0  0  0  0
 33 37  1  0  0  0  0
 33 34  2  0  0  0  0
 34 29  1  0  0  0  0
 36 30  1  0  0  0  0
M  END
>  <minimizedAffinity>
-4.8146677

>  <minimizedRMSD>
0.399259776

$$$$
