
 OpenBabel03272508133D

 37 40  0  0  0  0  0  0  0  0999 V2000
   37.4300   27.8400   35.3330 Cl  0  0  0  0  0  0  0  0  0  0  0  0
   37.0920   28.0260   33.5960 C   0  0  0  0  0  0  0  0  0  0  0  0
   37.7680   27.3390   32.6030 C   0  0  0  0  0  0  0  0  0  0  0  0
   37.4040   27.5780   31.2880 C   0  0  0  0  0  0  0  0  0  0  0  0
   36.4070   28.4690   30.9840 C   0  0  0  0  0  0  0  0  0  0  0  0
   35.7300   29.1560   31.9560 C   0  0  0  0  0  0  0  0  0  0  0  0
   36.0770   28.9300   33.2620 C   0  0  0  0  0  0  0  0  0  0  0  0
   37.9770   27.0060   30.5740 H   0  0  0  0  0  0  0  0  0  0  0  0
   36.1750   28.6080   29.9360 H   0  0  0  0  0  0  0  0  0  0  0  0
   34.9510   29.8480   31.6570 H   0  0  0  0  0  0  0  0  0  0  0  0
   33.9610   29.3840   34.3520 C   0  0  0  0  0  3  0  0  0  0  0  0
   35.3250   29.6870   34.2640 C   0  0  0  0  0  0  0  0  0  0  0  0
   35.7840   30.6570   35.1290 C   0  0  0  0  0  0  0  0  0  0  0  0
   36.8390   30.8650   35.0350 H   0  0  0  0  0  0  0  0  0  0  0  0
   34.9080   31.2590   36.0070 C   0  0  0  0  0  0  0  0  0  0  0  0
   35.1380   32.2160   36.9260 N   0  0  0  0  0  0  0  0  0  0  0  0
   36.0610   32.6660   37.1180 H   0  0  0  0  0  0  0  0  0  0  0  0
   34.0190   32.4990   37.5450 N   0  0  0  0  0  0  0  0  0  0  0  0
   33.0050   31.7350   37.0560 C   0  0  0  0  0  0  0  0  0  0  0  0
   31.9620   31.7260   37.3520 H   0  0  0  0  0  0  0  0  0  0  0  0
   33.5710   30.9410   36.0710 C   0  0  0  0  0  0  0  0  0  0  0  0
   33.0700   29.9770   35.2250 C   0  0  0  0  0  3  0  0  0  0  0  0
   38.7200   26.5030   33.1010 O   0  0  0  0  0  0  0  0  0  0  0  0
   38.2270   24.2040   32.0260 O   0  0  0  0  0  0  0  0  0  0  0  0
   38.6920   24.8380   33.2900 P   0  0  1  0  0  0  0  0  0  0  0  0
   40.3230   24.4090   33.5890 O   0  0  0  0  0  0  0  0  0  0  0  0
   40.8500   24.4980   32.7560 H   0  0  0  0  0  0  0  0  0  0  0  0
   37.7640   24.4330   34.6550 O   0  0  0  0  0  0  0  0  0  0  0  0
   38.3880   23.9120   38.2560 C   0  0  0  0  0  0  0  0  0  0  0  0
   37.7740   24.4620   37.1310 C   0  0  0  0  0  0  0  0  0  0  0  0
   38.1950   24.0540   35.8740 C   0  0  0  0  0  0  0  0  0  0  0  0
   39.2060   23.1190   35.8120 N   0  0  0  0  0  0  0  0  0  0  0  0
   39.7710   22.6150   36.9270 C   0  0  0  0  0  0  0  0  0  0  0  0
   39.3640   23.0090   38.1410 N   0  0  0  0  0  0  0  0  0  0  0  0
   37.9710   24.3100   39.1810 H   0  0  0  0  0  0  0  0  0  0  0  0
   36.9830   25.1910   37.1080 H   0  0  0  0  0  0  0  0  0  0  0  0
   40.5660   21.8820   36.8730 H   0  0  0  0  0  0  0  0  0  0  0  0
  2  1  1  0  0  0  0
  3 23  1  0  0  0  0
  3  2  2  0  0  0  0
  4  3  1  0  0  0  0
  5  4  2  0  0  0  0
  5  6  1  0  0  0  0
  6  7  2  0  0  0  0
  7  2  1  0  0  0  0
  7 12  1  0  0  0  0
  8  4  1  0  0  0  0
  9  5  1  0  0  0  0
 10  6  1  0  0  0  0
 11 22  1  0  0  0  0
 12 11  2  0  0  0  0
 12 13  1  0  0  0  0
 13 15  2  0  0  0  0
 14 13  1  0  0  0  0
 15 21  1  0  0  0  0
 15 16  1  0  0  0  0
 16 17  1  0  0  0  0
 16 18  1  0  0  0  0
 19 20  1  0  0  0  0
 19 18  2  0  0  0  0
 21 19  1  0  0  0  0
 22 21  2  0  0  0  0
 23 25  1  0  0  0  0
 25 24  2  6  0  0  0
 25 26  1  0  0  0  0
 25 28  1  0  0  0  0
 27 26  1  0  0  0  0
 28 31  1  0  0  0  0
 29 35  1  0  0  0  0
 30 29  2  0  0  0  0
 31 30  1  0  0  0  0
 32 31  2  0  0  0  0
 32 33  1  0  0  0  0
 33 34  2  0  0  0  0
 34 29  1  0  0  0  0
 36 30  1  0  0  0  0
 37 33  1  0  0  0  0
M  END
>  <minimizedAffinity>
-6.21817446

$$$$

 OpenBabel03272508133D

 37 40  0  0  0  0  0  0  0  0999 V2000
   38.2050   23.3740   33.3430 Cl  0  0  0  0  0  0  0  0  0  0  0  0
   38.1320   25.0030   34.0540 C   0  0  0  0  0  0  0  0  0  0  0  0
   37.2590   25.9900   33.6290 C   0  0  0  0  0  0  0  0  0  0  0  0
   37.3070   27.2170   34.2700 C   0  0  0  0  0  0  0  0  0  0  0  0
   38.1940   27.4440   35.2900 C   0  0  0  0  0  0  0  0  0  0  0  0
   39.0640   26.4780   35.7210 C   0  0  0  0  0  0  0  0  0  0  0  0
   39.0280   25.2580   35.0970 C   0  0  0  0  0  0  0  0  0  0  0  0
   36.5960   27.9310   33.8820 H   0  0  0  0  0  0  0  0  0  0  0  0
   38.1780   28.4250   35.7460 H   0  0  0  0  0  0  0  0  0  0  0  0
   39.7440   26.7140   36.5310 H   0  0  0  0  0  0  0  0  0  0  0  0
   41.2450   24.2820   35.0000 C   0  0  0  0  0  3  0  0  0  0  0  0
   39.9770   24.2590   35.5930 C   0  0  0  0  0  0  0  0  0  0  0  0
   39.7850   23.3020   36.5670 C   0  0  0  0  0  0  0  0  0  0  0  0
   38.7970   23.3140   37.0040 H   0  0  0  0  0  0  0  0  0  0  0  0
   40.8130   22.4460   36.8960 C   0  0  0  0  0  0  0  0  0  0  0  0
   40.8440   21.4520   37.8030 N   0  0  0  0  0  0  0  0  0  0  0  0
   40.0520   21.1690   38.4230 H   0  0  0  0  0  0  0  0  0  0  0  0
   42.0270   20.8900   37.7890 N   0  0  0  0  0  0  0  0  0  0  0  0
   42.8240   21.4960   36.8680 C   0  0  0  0  0  0  0  0  0  0  0  0
   43.8530   21.2700   36.6120 H   0  0  0  0  0  0  0  0  0  0  0  0
   42.0500   22.4920   36.2950 C   0  0  0  0  0  0  0  0  0  0  0  0
   42.2860   23.4320   35.3170 C   0  0  0  0  0  3  0  0  0  0  0  0
   36.4590   25.5750   32.6080 O   0  0  0  0  0  0  0  0  0  0  0  0
   37.1210   24.2750   30.4740 O   0  0  0  0  0  0  0  0  0  0  0  0
   36.7180   25.6260   30.9540 P   0  0  1  0  0  0  0  0  0  0  0  0
   35.1970   26.0480   30.2890 O   0  0  0  0  0  0  0  0  0  0  0  0
   34.5770   25.2800   30.3630 H   0  0  0  0  0  0  0  0  0  0  0  0
   37.8320   26.8570   30.5880 O   0  0  0  0  0  0  0  0  0  0  0  0
   37.6410   29.9950   28.6540 C   0  0  0  0  0  0  0  0  0  0  0  0
   38.0500   28.6930   28.9420 C   0  0  0  0  0  0  0  0  0  0  0  0
   37.5840   28.0880   30.0990 C   0  0  0  0  0  0  0  0  0  0  0  0
   36.7340   28.8170   30.9030 N   0  0  0  0  0  0  0  0  0  0  0  0
   36.3650   30.0740   30.5840 C   0  0  0  0  0  0  0  0  0  0  0  0
   36.8160   30.6580   29.4660 N   0  0  0  0  0  0  0  0  0  0  0  0
   38.0730   30.3590   27.7210 H   0  0  0  0  0  0  0  0  0  0  0  0
   38.7070   28.0700   28.3610 H   0  0  0  0  0  0  0  0  0  0  0  0
   35.6980   30.6420   31.2200 H   0  0  0  0  0  0  0  0  0  0  0  0
  1  2  1  0  0  0  0
  2  7  1  0  0  0  0
  3  2  2  0  0  0  0
  3  4  1  0  0  0  0
  4  5  2  0  0  0  0
  5  6  1  0  0  0  0
  5  9  1  0  0  0  0
  6 10  1  0  0  0  0
  7 12  1  0  0  0  0
  7  6  2  0  0  0  0
  8  4  1  0  0  0  0
 11 22  2  0  0  0  0
 11 12  1  0  0  0  0
 12 13  2  0  0  0  0
 13 15  1  0  0  0  0
 13 14  1  0  0  0  0
 15 16  1  0  0  0  0
 16 17  1  0  0  0  0
 18 16  1  0  0  0  0
 19 18  2  0  0  0  0
 20 19  1  0  0  0  0
 21 19  1  0  0  0  0
 21 15  2  0  0  0  0
 22 21  1  0  0  0  0
 23  3  1  0  0  0  0
 25 24  2  6  0  0  0
 25 23  1  0  0  0  0
 26 27  1  0  0  0  0
 26 25  1  0  0  0  0
 28 25  1  0  0  0  0
 29 30  2  0  0  0  0
 29 34  1  0  0  0  0
 30 31  1  0  0  0  0
 31 28  1  0  0  0  0
 31 32  2  0  0  0  0
 33 32  1  0  0  0  0
 33 37  1  0  0  0  0
 34 33  2  0  0  0  0
 35 29  1  0  0  0  0
 36 30  1  0  0  0  0
M  END
>  <minimizedAffinity>
-6.17434263

$$$$

 OpenBabel03272508133D

 37 40  0  0  0  0  0  0  0  0999 V2000
   36.6240   27.7510   34.6210 Cl  0  0  0  0  0  0  0  0  0  0  0  0
   36.6160   28.5510   33.0320 C   0  0  0  0  0  0  0  0  0  0  0  0
   37.2860   28.0660   31.9220 C   0  0  0  0  0  0  0  0  0  0  0  0
   37.1970   28.7890   30.7440 C   0  0  0  0  0  0  0  0  0  0  0  0
   36.4680   29.9480   30.6830 C   0  0  0  0  0  0  0  0  0  0  0  0
   35.8000   30.4410   31.7730 C   0  0  0  0  0  0  0  0  0  0  0  0
   35.8780   29.7370   32.9460 C   0  0  0  0  0  0  0  0  0  0  0  0
   37.7450   28.3460   29.9260 H   0  0  0  0  0  0  0  0  0  0  0  0
   36.4410   30.4630   29.7310 H   0  0  0  0  0  0  0  0  0  0  0  0
   35.2410   31.3630   31.6660 H   0  0  0  0  0  0  0  0  0  0  0  0
   35.9090   31.0800   34.9630 C   0  0  0  0  0  3  0  0  0  0  0  0
   35.1480   30.3040   34.0810 C   0  0  0  0  0  0  0  0  0  0  0  0
   33.8100   30.1740   34.3910 C   0  0  0  0  0  0  0  0  0  0  0  0
   33.2550   29.5700   33.6900 H   0  0  0  0  0  0  0  0  0  0  0  0
   33.3070   30.7920   35.5160 C   0  0  0  0  0  0  0  0  0  0  0  0
   32.0520   30.7980   36.0020 N   0  0  0  0  0  0  0  0  0  0  0  0
   31.2330   30.3090   35.5760 H   0  0  0  0  0  0  0  0  0  0  0  0
   32.0160   31.5140   37.0980 N   0  0  0  0  0  0  0  0  0  0  0  0
   33.2510   32.0100   37.3760 C   0  0  0  0  0  0  0  0  0  0  0  0
   33.5570   32.6360   38.2070 H   0  0  0  0  0  0  0  0  0  0  0  0
   34.0800   31.5490   36.3660 C   0  0  0  0  0  0  0  0  0  0  0  0
   35.4210   31.7060   36.0930 C   0  0  0  0  0  3  0  0  0  0  0  0
   37.9510   26.9060   32.1800 O   0  0  0  0  0  0  0  0  0  0  0  0
   36.0750   25.1360   31.9940 O   0  0  0  0  0  0  0  0  0  0  0  0
   37.5390   25.3260   31.8000 P   0  0  1  0  0  0  0  0  0  0  0  0
   37.9310   25.1620   30.1420 O   0  0  0  0  0  0  0  0  0  0  0  0
   37.2800   25.6670   29.5930 H   0  0  0  0  0  0  0  0  0  0  0  0
   38.5050   24.2530   32.6970 O   0  0  0  0  0  0  0  0  0  0  0  0
   37.7110   22.1340   35.6130 C   0  0  0  0  0  0  0  0  0  0  0  0
   37.9160   22.4310   34.2650 C   0  0  0  0  0  0  0  0  0  0  0  0
   38.2590   23.7270   33.9130 C   0  0  0  0  0  0  0  0  0  0  0  0
   38.3780   24.6540   34.9260 N   0  0  0  0  0  0  0  0  0  0  0  0
   38.1700   24.3210   36.2160 C   0  0  0  0  0  0  0  0  0  0  0  0
   37.8380   23.0680   36.5560 N   0  0  0  0  0  0  0  0  0  0  0  0
   37.4470   21.0850   35.7610 H   0  0  0  0  0  0  0  0  0  0  0  0
   37.8410   21.7590   33.4280 H   0  0  0  0  0  0  0  0  0  0  0  0
   38.2640   25.0530   37.0080 H   0  0  0  0  0  0  0  0  0  0  0  0
  2  1  1  0  0  0  0
  3 23  1  0  0  0  0
  3  2  2  0  0  0  0
  4  3  1  0  0  0  0
  5  4  2  0  0  0  0
  5  6  1  0  0  0  0
  6  7  2  0  0  0  0
  7  2  1  0  0  0  0
  7 12  1  0  0  0  0
  8  4  1  0  0  0  0
  9  5  1  0  0  0  0
 10  6  1  0  0  0  0
 11 22  1  0  0  0  0
 12 13  1  0  0  0  0
 12 11  2  0  0  0  0
 13 15  2  0  0  0  0
 14 13  1  0  0  0  0
 15 16  1  0  0  0  0
 15 21  1  0  0  0  0
 16 18  1  0  0  0  0
 17 16  1  0  0  0  0
 18 19  2  0  0  0  0
 19 20  1  0  0  0  0
 21 19  1  0  0  0  0
 22 21  2  0  0  0  0
 25 24  2  1  0  0  0
 25 23  1  0  0  0  0
 25 28  1  0  0  0  0
 26 25  1  0  0  0  0
 27 26  1  0  0  0  0
 28 31  1  0  0  0  0
 29 35  1  0  0  0  0
 29 34  1  0  0  0  0
 30 29  2  0  0  0  0
 31 30  1  0  0  0  0
 31 32  2  0  0  0  0
 32 33  1  0  0  0  0
 33 34  2  0  0  0  0
 33 37  1  0  0  0  0
 36 30  1  0  0  0  0
M  END
>  <minimizedAffinity>
-6.04728031

$$$$

 OpenBabel03272508133D

 37 40  0  0  0  0  0  0  0  0999 V2000
   38.8140   26.5720   32.8080 Cl  0  0  0  0  0  0  0  0  0  0  0  0
   37.4690   25.5960   32.1710 C   0  0  0  0  0  0  0  0  0  0  0  0
   37.4580   24.2120   32.1630 C   0  0  0  0  0  0  0  0  0  0  0  0
   36.3450   23.5760   31.6360 C   0  0  0  0  0  0  0  0  0  0  0  0
   35.2920   24.2980   31.1380 C   0  0  0  0  0  0  0  0  0  0  0  0
   35.2890   25.6680   31.1390 C   0  0  0  0  0  0  0  0  0  0  0  0
   36.3820   26.3120   31.6570 C   0  0  0  0  0  0  0  0  0  0  0  0
   36.4130   22.4990   31.6660 H   0  0  0  0  0  0  0  0  0  0  0  0
   34.4560   23.7380   30.7410 H   0  0  0  0  0  0  0  0  0  0  0  0
   34.4290   26.1860   30.7310 H   0  0  0  0  0  0  0  0  0  0  0  0
   36.7300   28.3770   30.4360 C   0  0  0  0  0  3  0  0  0  0  0  0
   36.3310   27.7750   31.6360 C   0  0  0  0  0  0  0  0  0  0  0  0
   35.9400   28.6350   32.6400 C   0  0  0  0  0  0  0  0  0  0  0  0
   35.6380   28.1380   33.5490 H   0  0  0  0  0  0  0  0  0  0  0  0
   35.9620   29.9960   32.4220 C   0  0  0  0  0  0  0  0  0  0  0  0
   35.6280   31.0020   33.2510 N   0  0  0  0  0  0  0  0  0  0  0  0
   35.2870   30.8940   34.2320 H   0  0  0  0  0  0  0  0  0  0  0  0
   35.8010   32.1450   32.6350 N   0  0  0  0  0  0  0  0  0  0  0  0
   36.2550   31.9340   31.3700 C   0  0  0  0  0  0  0  0  0  0  0  0
   36.4960   32.6650   30.6070 H   0  0  0  0  0  0  0  0  0  0  0  0
   36.3610   30.5590   31.2310 C   0  0  0  0  0  0  0  0  0  0  0  0
   36.7580   29.7370   30.2000 C   0  0  0  0  0  3  0  0  0  0  0  0
   38.5900   23.6780   32.6990 O   0  0  0  0  0  0  0  0  0  0  0  0
   38.5430   21.1070   32.4260 O   0  0  0  0  0  0  0  0  0  0  0  0
   38.8360   22.1820   33.4140 P   0  0  1  0  0  0  0  0  0  0  0  0
   40.4990   22.1630   33.8170 O   0  0  0  0  0  0  0  0  0  0  0  0
   41.0410   22.0730   32.9940 H   0  0  0  0  0  0  0  0  0  0  0  0
   37.9260   22.0780   34.8470 O   0  0  0  0  0  0  0  0  0  0  0  0
   38.0380   23.6250   38.1960 C   0  0  0  0  0  0  0  0  0  0  0  0
   37.4700   23.2520   36.9780 C   0  0  0  0  0  0  0  0  0  0  0  0
   38.2430   22.5440   36.0710 C   0  0  0  0  0  0  0  0  0  0  0  0
   39.5400   22.2470   36.4320 N   0  0  0  0  0  0  0  0  0  0  0  0
   40.0470   22.6280   37.6210 C   0  0  0  0  0  0  0  0  0  0  0  0
   39.2990   23.3130   38.4980 N   0  0  0  0  0  0  0  0  0  0  0  0
   37.3320   24.1750   38.8210 H   0  0  0  0  0  0  0  0  0  0  0  0
   36.4700   23.4490   36.6340 H   0  0  0  0  0  0  0  0  0  0  0  0
   41.0660   22.3930   37.9000 H   0  0  0  0  0  0  0  0  0  0  0  0
  2  1  1  0  0  0  0
  3  2  1  0  0  0  0
  3 23  1  0  0  0  0
  4  8  1  0  0  0  0
  4  3  2  0  0  0  0
  5  6  2  0  0  0  0
  5  4  1  0  0  0  0
  6  7  1  0  0  0  0
  7  2  2  0  0  0  0
  9  5  1  0  0  0  0
 10  6  1  0  0  0  0
 11 12  1  0  0  0  0
 12  7  1  0  0  0  0
 12 13  2  0  0  0  0
 13 14  1  0  0  0  0
 15 13  1  0  0  0  0
 15 16  1  0  0  0  0
 16 17  1  0  0  0  0
 18 16  1  0  0  0  0
 19 18  2  0  0  0  0
 20 19  1  0  0  0  0
 21 19  1  0  0  0  0
 21 15  2  0  0  0  0
 22 11  2  0  0  0  0
 22 21  1  0  0  0  0
 23 25  1  0  0  0  0
 25 24  2  6  0  0  0
 25 26  1  0  0  0  0
 25 28  1  0  0  0  0
 27 26  1  0  0  0  0
 28 31  1  0  0  0  0
 29 34  1  0  0  0  0
 29 35  1  0  0  0  0
 30 29  2  0  0  0  0
 31 32  2  0  0  0  0
 31 30  1  0  0  0  0
 32 33  1  0  0  0  0
 33 37  1  0  0  0  0
 33 34  2  0  0  0  0
 36 30  1  0  0  0  0
M  END
>  <minimizedAffinity>
-5.92281961

$$$$

 OpenBabel03272508133D

 37 40  0  0  0  0  0  0  0  0999 V2000
   38.0050   22.9560   33.9960 Cl  0  0  0  0  0  0  0  0  0  0  0  0
   38.5690   24.6430   34.0080 C   0  0  0  0  0  0  0  0  0  0  0  0
   37.8680   25.6930   33.4420 C   0  0  0  0  0  0  0  0  0  0  0  0
   38.4220   26.9610   33.5210 C   0  0  0  0  0  0  0  0  0  0  0  0
   39.6280   27.1630   34.1400 C   0  0  0  0  0  0  0  0  0  0  0  0
   40.3340   26.1340   34.7040 C   0  0  0  0  0  0  0  0  0  0  0  0
   39.7990   24.8740   34.6340 C   0  0  0  0  0  0  0  0  0  0  0  0
   37.8160   27.7230   33.0570 H   0  0  0  0  0  0  0  0  0  0  0  0
   40.0030   28.1780   34.1650 H   0  0  0  0  0  0  0  0  0  0  0  0
   41.2830   26.3540   35.1800 H   0  0  0  0  0  0  0  0  0  0  0  0
   41.7810   23.4800   34.5920 C   0  0  0  0  0  3  0  0  0  0  0  0
   40.5900   23.8090   35.2520 C   0  0  0  0  0  0  0  0  0  0  0  0
   40.3170   23.0910   36.3970 C   0  0  0  0  0  0  0  0  0  0  0  0
   39.3940   23.3710   36.8800 H   0  0  0  0  0  0  0  0  0  0  0  0
   41.1980   22.1180   36.8190 C   0  0  0  0  0  0  0  0  0  0  0  0
   41.1300   21.3080   37.8920 N   0  0  0  0  0  0  0  0  0  0  0  0
   40.3600   21.2970   38.5980 H   0  0  0  0  0  0  0  0  0  0  0  0
   42.1830   20.5300   37.9140 N   0  0  0  0  0  0  0  0  0  0  0  0
   42.9890   20.8000   36.8530 C   0  0  0  0  0  0  0  0  0  0  0  0
   43.9320   20.3360   36.5830 H   0  0  0  0  0  0  0  0  0  0  0  0
   42.3610   21.8150   36.1490 C   0  0  0  0  0  0  0  0  0  0  0  0
   42.6730   22.5090   35.0010 C   0  0  0  0  0  3  0  0  0  0  0  0
   36.6950   25.2930   32.8760 O   0  0  0  0  0  0  0  0  0  0  0  0
   35.5590   26.3720   30.8200 O   0  0  0  0  0  0  0  0  0  0  0  0
   36.2790   25.1450   31.2600 P   0  0  1  0  0  0  0  0  0  0  0  0
   37.7760   25.0250   30.4360 O   0  0  0  0  0  0  0  0  0  0  0  0
   38.2290   25.9050   30.4380 H   0  0  0  0  0  0  0  0  0  0  0  0
   35.4100   23.7040   31.0230 O   0  0  0  0  0  0  0  0  0  0  0  0
   35.6370   20.3300   32.5020 C   0  0  0  0  0  0  0  0  0  0  0  0
   35.0770   21.5840   32.2570 C   0  0  0  0  0  0  0  0  0  0  0  0
   35.7430   22.4570   31.4100 C   0  0  0  0  0  0  0  0  0  0  0  0
   36.9300   22.0290   30.8560 N   0  0  0  0  0  0  0  0  0  0  0  0
   37.4330   20.8070   31.1220 C   0  0  0  0  0  0  0  0  0  0  0  0
   36.7900   19.9630   31.9400 N   0  0  0  0  0  0  0  0  0  0  0  0
   35.0220   19.7370   33.1810 H   0  0  0  0  0  0  0  0  0  0  0  0
   34.1590   21.9800   32.6540 H   0  0  0  0  0  0  0  0  0  0  0  0
   38.3670   20.4750   30.6850 H   0  0  0  0  0  0  0  0  0  0  0  0
  1  2  1  0  0  0  0
  2  7  1  0  0  0  0
  3  4  1  0  0  0  0
  3  2  2  0  0  0  0
  4  5  2  0  0  0  0
  5  9  1  0  0  0  0
  5  6  1  0  0  0  0
  6 10  1  0  0  0  0
  7  6  2  0  0  0  0
  7 12  1  0  0  0  0
  8  4  1  0  0  0  0
 11 22  2  0  0  0  0
 11 12  1  0  0  0  0
 12 13  2  0  0  0  0
 13 15  1  0  0  0  0
 13 14  1  0  0  0  0
 15 16  1  0  0  0  0
 16 18  1  0  0  0  0
 16 17  1  0  0  0  0
 19 18  2  0  0  0  0
 20 19  1  0  0  0  0
 21 15  2  0  0  0  0
 21 19  1  0  0  0  0
 22 21  1  0  0  0  0
 23  3  1  0  0  0  0
 25 24  2  6  0  0  0
 25 23  1  0  0  0  0
 26 27  1  0  0  0  0
 26 25  1  0  0  0  0
 28 25  1  0  0  0  0
 28 31  1  0  0  0  0
 29 35  1  0  0  0  0
 30 29  1  0  0  0  0
 30 36  1  0  0  0  0
 31 30  2  0  0  0  0
 32 33  2  0  0  0  0
 32 31  1  0  0  0  0
 33 34  1  0  0  0  0
 34 29  2  0  0  0  0
 37 33  1  0  0  0  0
M  END
>  <minimizedAffinity>
-5.90237331

$$$$

 OpenBabel03272508133D

 37 40  0  0  0  0  0  0  0  0999 V2000
   36.2610   27.4290   34.5000 Cl  0  0  0  0  0  0  0  0  0  0  0  0
   36.2980   28.2290   32.9110 C   0  0  0  0  0  0  0  0  0  0  0  0
   36.8150   27.6450   31.7680 C   0  0  0  0  0  0  0  0  0  0  0  0
   36.7820   28.3800   30.5940 C   0  0  0  0  0  0  0  0  0  0  0  0
   36.2540   29.6450   30.5700 C   0  0  0  0  0  0  0  0  0  0  0  0
   35.7390   30.2360   31.6940 C   0  0  0  0  0  0  0  0  0  0  0  0
   35.7640   29.5210   32.8630 C   0  0  0  0  0  0  0  0  0  0  0  0
   37.2030   27.8570   29.7490 H   0  0  0  0  0  0  0  0  0  0  0  0
   36.2600   30.1620   29.6190 H   0  0  0  0  0  0  0  0  0  0  0  0
   35.3350   31.2380   31.6150 H   0  0  0  0  0  0  0  0  0  0  0  0
   36.0920   31.0020   34.7540 C   0  0  0  0  0  3  0  0  0  0  0  0
   35.2010   30.1950   34.0350 C   0  0  0  0  0  0  0  0  0  0  0  0
   33.9120   30.1390   34.5200 C   0  0  0  0  0  0  0  0  0  0  0  0
   33.2530   29.5090   33.9420 H   0  0  0  0  0  0  0  0  0  0  0  0
   33.5760   30.8540   35.6490 C   0  0  0  0  0  0  0  0  0  0  0  0
   32.3940   30.9430   36.2870 N   0  0  0  0  0  0  0  0  0  0  0  0
   31.5130   30.4570   36.0060 H   0  0  0  0  0  0  0  0  0  0  0  0
   32.5190   31.7360   37.3220 N   0  0  0  0  0  0  0  0  0  0  0  0
   33.7940   32.2020   37.4050 C   0  0  0  0  0  0  0  0  0  0  0  0
   34.2220   32.8740   38.1410 H   0  0  0  0  0  0  0  0  0  0  0  0
   34.4730   31.6390   36.3360 C   0  0  0  0  0  0  0  0  0  0  0  0
   35.7720   31.7240   35.8860 C   0  0  0  0  0  3  0  0  0  0  0  0
   37.2910   26.3900   31.9920 O   0  0  0  0  0  0  0  0  0  0  0  0
   35.4400   25.0530   30.7780 O   0  0  0  0  0  0  0  0  0  0  0  0
   36.8230   24.9280   31.3180 P   0  0  1  0  0  0  0  0  0  0  0  0
   37.9250   24.6700   30.0340 O   0  0  0  0  0  0  0  0  0  0  0  0
   37.7270   25.2950   29.2930 H   0  0  0  0  0  0  0  0  0  0  0  0
   37.0160   23.6850   32.4610 O   0  0  0  0  0  0  0  0  0  0  0  0
   37.2340   20.0330   31.9670 C   0  0  0  0  0  0  0  0  0  0  0  0
   37.7130   21.3350   32.1100 C   0  0  0  0  0  0  0  0  0  0  0  0
   36.8030   22.3640   32.2990 C   0  0  0  0  0  0  0  0  0  0  0  0
   35.4640   22.0350   32.3340 N   0  0  0  0  0  0  0  0  0  0  0  0
   35.0470   20.7610   32.1900 C   0  0  0  0  0  0  0  0  0  0  0  0
   35.9270   19.7670   32.0080 N   0  0  0  0  0  0  0  0  0  0  0  0
   38.0440   19.3160   31.8250 H   0  0  0  0  0  0  0  0  0  0  0  0
   38.7380   21.6610   32.0940 H   0  0  0  0  0  0  0  0  0  0  0  0
   33.9950   20.5070   32.2180 H   0  0  0  0  0  0  0  0  0  0  0  0
  2  1  1  0  0  0  0
  3 23  1  0  0  0  0
  3  2  2  0  0  0  0
  4  3  1  0  0  0  0
  5  4  2  0  0  0  0
  5  6  1  0  0  0  0
  6  7  2  0  0  0  0
  7  2  1  0  0  0  0
  7 12  1  0  0  0  0
  8  4  1  0  0  0  0
  9  5  1  0  0  0  0
 10  6  1  0  0  0  0
 11 22  1  0  0  0  0
 12 13  1  0  0  0  0
 12 11  2  0  0  0  0
 13 15  2  0  0  0  0
 14 13  1  0  0  0  0
 15 16  1  0  0  0  0
 15 21  1  0  0  0  0
 16 18  1  0  0  0  0
 17 16  1  0  0  0  0
 18 19  2  0  0  0  0
 19 20  1  0  0  0  0
 21 19  1  0  0  0  0
 22 21  2  0  0  0  0
 25 24  2  6  0  0  0
 25 23  1  0  0  0  0
 25 28  1  0  0  0  0
 26 25  1  0  0  0  0
 27 26  1  0  0  0  0
 29 34  2  0  0  0  0
 29 30  1  0  0  0  0
 30 31  2  0  0  0  0
 31 32  1  0  0  0  0
 31 28  1  0  0  0  0
 33 37  1  0  0  0  0
 33 32  2  0  0  0  0
 34 33  1  0  0  0  0
 35 29  1  0  0  0  0
 36 30  1  0  0  0  0
M  END
>  <minimizedAffinity>
-5.81332159

$$$$

 OpenBabel03272508133D

 37 40  0  0  0  0  0  0  0  0999 V2000
   34.8790   25.3480   31.0150 Cl  0  0  0  0  0  0  0  0  0  0  0  0
   36.3660   25.7750   31.8930 C   0  0  0  0  0  0  0  0  0  0  0  0
   36.7230   27.0720   32.2190 C   0  0  0  0  0  0  0  0  0  0  0  0
   37.9100   27.2640   32.9050 C   0  0  0  0  0  0  0  0  0  0  0  0
   38.7050   26.2010   33.2480 C   0  0  0  0  0  0  0  0  0  0  0  0
   38.3650   24.9120   32.9320 C   0  0  0  0  0  0  0  0  0  0  0  0
   37.1930   24.7050   32.2540 C   0  0  0  0  0  0  0  0  0  0  0  0
   38.1170   28.3010   33.1220 H   0  0  0  0  0  0  0  0  0  0  0  0
   39.6190   26.4230   33.7830 H   0  0  0  0  0  0  0  0  0  0  0  0
   39.0320   24.1110   33.2290 H   0  0  0  0  0  0  0  0  0  0  0  0
   37.7240   22.6890   31.0190 C   0  0  0  0  0  3  0  0  0  0  0  0
   36.8740   23.3110   31.9400 C   0  0  0  0  0  0  0  0  0  0  0  0
   35.8480   22.5340   32.4350 C   0  0  0  0  0  0  0  0  0  0  0  0
   35.2130   23.0450   33.1420 H   0  0  0  0  0  0  0  0  0  0  0  0
   35.7150   21.2290   32.0120 C   0  0  0  0  0  0  0  0  0  0  0  0
   34.8000   20.3040   32.3580 N   0  0  0  0  0  0  0  0  0  0  0  0
   34.0150   20.4480   33.0330 H   0  0  0  0  0  0  0  0  0  0  0  0
   35.0450   19.1910   31.7130 N   0  0  0  0  0  0  0  0  0  0  0  0
   36.1360   19.3400   30.9150 C   0  0  0  0  0  0  0  0  0  0  0  0
   36.5970   18.6120   30.2570 H   0  0  0  0  0  0  0  0  0  0  0  0
   36.5670   20.6430   31.1030 C   0  0  0  0  0  0  0  0  0  0  0  0
   37.6060   21.3830   30.5840 C   0  0  0  0  0  3  0  0  0  0  0  0
   35.8080   27.9870   31.7950 O   0  0  0  0  0  0  0  0  0  0  0  0
   36.2270   30.5220   31.5040 O   0  0  0  0  0  0  0  0  0  0  0  0
   35.5020   29.5370   32.3540 P   0  0  1  0  0  0  0  0  0  0  0  0
   33.8130   29.7400   32.1660 O   0  0  0  0  0  0  0  0  0  0  0  0
   33.5930   29.8360   31.2060 H   0  0  0  0  0  0  0  0  0  0  0  0
   35.8820   29.6320   34.0080 O   0  0  0  0  0  0  0  0  0  0  0  0
   35.1170   32.0440   36.6960 C   0  0  0  0  0  0  0  0  0  0  0  0
   35.9220   31.3390   35.8010 C   0  0  0  0  0  0  0  0  0  0  0  0
   35.3270   30.4230   34.9470 C   0  0  0  0  0  0  0  0  0  0  0  0
   33.9600   30.2630   35.0340 N   0  0  0  0  0  0  0  0  0  0  0  0
   33.2220   30.9670   35.9160 C   0  0  0  0  0  0  0  0  0  0  0  0
   33.7980   31.8520   36.7410 N   0  0  0  0  0  0  0  0  0  0  0  0
   35.7000   32.7310   37.3110 H   0  0  0  0  0  0  0  0  0  0  0  0
   36.9880   31.4140   35.6800 H   0  0  0  0  0  0  0  0  0  0  0  0
   32.1490   30.8370   35.9810 H   0  0  0  0  0  0  0  0  0  0  0  0
  1  2  1  0  0  0  0
  2  3  2  0  0  0  0
  2  7  1  0  0  0  0
  3  4  1  0  0  0  0
  4  8  1  0  0  0  0
  4  5  2  0  0  0  0
  5  9  1  0  0  0  0
  6 10  1  0  0  0  0
  6  5  1  0  0  0  0
  7  6  2  0  0  0  0
 11 12  1  0  0  0  0
 12  7  1  0  0  0  0
 12 13  2  0  0  0  0
 13 14  1  0  0  0  0
 15 16  1  0  0  0  0
 15 13  1  0  0  0  0
 16 17  1  0  0  0  0
 18 16  1  0  0  0  0
 19 21  1  0  0  0  0
 19 18  2  0  0  0  0
 20 19  1  0  0  0  0
 21 15  2  0  0  0  0
 22 11  2  0  0  0  0
 22 21  1  0  0  0  0
 23  3  1  0  0  0  0
 23 25  1  0  0  0  0
 25 24  2  6  0  0  0
 25 28  1  0  0  0  0
 26 25  1  0  0  0  0
 27 26  1  0  0  0  0
 28 31  1  0  0  0  0
 29 34  1  0  0  0  0
 29 35  1  0  0  0  0
 30 29  2  0  0  0  0
 31 32  2  0  0  0  0
 31 30  1  0  0  0  0
 32 33  1  0  0  0  0
 33 37  1  0  0  0  0
 33 34  2  0  0  0  0
 36 30  1  0  0  0  0
M  END
>  <minimizedAffinity>
-5.75976181

$$$$

 OpenBabel03272508133D

 37 40  0  0  0  0  0  0  0  0999 V2000
   38.3540   27.4310   33.8900 Cl  0  0  0  0  0  0  0  0  0  0  0  0
   37.3300   26.4420   32.8230 C   0  0  0  0  0  0  0  0  0  0  0  0
   36.4730   26.9700   31.8730 C   0  0  0  0  0  0  0  0  0  0  0  0
   35.7320   26.0860   31.1070 C   0  0  0  0  0  0  0  0  0  0  0  0
   35.8440   24.7320   31.2880 C   0  0  0  0  0  0  0  0  0  0  0  0
   36.6880   24.1950   32.2240 C   0  0  0  0  0  0  0  0  0  0  0  0
   37.4290   25.0560   32.9890 C   0  0  0  0  0  0  0  0  0  0  0  0
   35.0890   26.5740   30.3900 H   0  0  0  0  0  0  0  0  0  0  0  0
   35.2350   24.0990   30.6560 H   0  0  0  0  0  0  0  0  0  0  0  0
   36.7360   23.1170   32.3230 H   0  0  0  0  0  0  0  0  0  0  0  0
   39.5840   24.0740   33.5050 C   0  0  0  0  0  3  0  0  0  0  0  0
   38.3150   24.4340   33.9750 C   0  0  0  0  0  0  0  0  0  0  0  0
   38.0630   24.1580   35.3020 C   0  0  0  0  0  0  0  0  0  0  0  0
   37.0770   24.4490   35.6300 H   0  0  0  0  0  0  0  0  0  0  0  0
   39.0380   23.5630   36.0730 C   0  0  0  0  0  0  0  0  0  0  0  0
   39.0070   23.2090   37.3720 N   0  0  0  0  0  0  0  0  0  0  0  0
   38.1970   23.3400   38.0180 H   0  0  0  0  0  0  0  0  0  0  0  0
   40.1540   22.6700   37.7010 N   0  0  0  0  0  0  0  0  0  0  0  0
   40.9890   22.6490   36.6270 C   0  0  0  0  0  0  0  0  0  0  0  0
   42.0040   22.2720   36.5670 H   0  0  0  0  0  0  0  0  0  0  0  0
   40.2780   23.2190   35.5840 C   0  0  0  0  0  0  0  0  0  0  0  0
   40.5720   23.4770   34.2630 C   0  0  0  0  0  3  0  0  0  0  0  0
   36.5010   28.3310   31.8430 O   0  0  0  0  0  0  0  0  0  0  0  0
   35.3300   30.6280   31.6420 O   0  0  0  0  0  0  0  0  0  0  0  0
   35.4520   29.4410   32.5330 P   0  0  1  0  0  0  0  0  0  0  0  0
   33.9510   28.6230   32.6190 O   0  0  0  0  0  0  0  0  0  0  0  0
   33.5660   28.5350   31.7110 H   0  0  0  0  0  0  0  0  0  0  0  0
   35.9640   29.8050   34.1130 O   0  0  0  0  0  0  0  0  0  0  0  0
   34.9870   32.1310   36.8070 C   0  0  0  0  0  0  0  0  0  0  0  0
   35.8570   31.4770   35.9350 C   0  0  0  0  0  0  0  0  0  0  0  0
   35.3370   30.5550   35.0400 C   0  0  0  0  0  0  0  0  0  0  0  0
   33.9760   30.3360   35.0670 N   0  0  0  0  0  0  0  0  0  0  0  0
   33.1730   30.9920   35.9280 C   0  0  0  0  0  0  0  0  0  0  0  0
   33.6760   31.8830   36.7930 N   0  0  0  0  0  0  0  0  0  0  0  0
   35.5140   32.8300   37.4580 H   0  0  0  0  0  0  0  0  0  0  0  0
   36.9230   31.6000   35.8610 H   0  0  0  0  0  0  0  0  0  0  0  0
   32.1050   30.8160   35.9450 H   0  0  0  0  0  0  0  0  0  0  0  0
  2  7  1  0  0  0  0
  2  1  1  0  0  0  0
  3  2  2  0  0  0  0
  4  5  2  0  0  0  0
  4  3  1  0  0  0  0
  5  6  1  0  0  0  0
  6 10  1  0  0  0  0
  6  7  2  0  0  0  0
  7 12  1  0  0  0  0
  8  4  1  0  0  0  0
  9  5  1  0  0  0  0
 11 12  2  0  0  0  0
 11 22  1  0  0  0  0
 12 13  1  0  0  0  0
 13 14  1  0  0  0  0
 13 15  2  0  0  0  0
 15 16  1  0  0  0  0
 16 18  1  0  0  0  0
 16 17  1  0  0  0  0
 19 18  2  0  0  0  0
 20 19  1  0  0  0  0
 21 15  1  0  0  0  0
 21 19  1  0  0  0  0
 22 21  2  0  0  0  0
 23  3  1  0  0  0  0
 23 25  1  0  0  0  0
 25 24  2  6  0  0  0
 25 26  1  0  0  0  0
 25 28  1  0  0  0  0
 27 26  1  0  0  0  0
 28 31  1  0  0  0  0
 29 35  1  0  0  0  0
 30 29  2  0  0  0  0
 31 32  2  0  0  0  0
 31 30  1  0  0  0  0
 32 33  1  0  0  0  0
 33 37  1  0  0  0  0
 33 34  2  0  0  0  0
 34 29  1  0  0  0  0
 36 30  1  0  0  0  0
M  END
>  <minimizedAffinity>
-5.73236275

$$$$

 OpenBabel03272508133D

 37 40  0  0  0  0  0  0  0  0999 V2000
   38.1380   27.3530   35.9920 Cl  0  0  0  0  0  0  0  0  0  0  0  0
   37.5800   26.8520   34.3790 C   0  0  0  0  0  0  0  0  0  0  0  0
   36.7120   27.5960   33.5980 C   0  0  0  0  0  0  0  0  0  0  0  0
   36.3570   27.0880   32.3590 C   0  0  0  0  0  0  0  0  0  0  0  0
   36.8510   25.8860   31.9240 C   0  0  0  0  0  0  0  0  0  0  0  0
   37.7110   25.1380   32.6850 C   0  0  0  0  0  0  0  0  0  0  0  0
   38.0720   25.6270   33.9130 C   0  0  0  0  0  0  0  0  0  0  0  0
   35.6790   27.7250   31.8130 H   0  0  0  0  0  0  0  0  0  0  0  0
   36.5330   25.5480   30.9460 H   0  0  0  0  0  0  0  0  0  0  0  0
   38.0690   24.1950   32.2900 H   0  0  0  0  0  0  0  0  0  0  0  0
   40.3520   24.9750   34.4120 C   0  0  0  0  0  3  0  0  0  0  0  0
   38.9920   24.7930   34.6880 C   0  0  0  0  0  0  0  0  0  0  0  0
   38.6930   23.8530   35.6520 C   0  0  0  0  0  0  0  0  0  0  0  0
   37.6360   23.7400   35.8400 H   0  0  0  0  0  0  0  0  0  0  0  0
   39.7120   23.1650   36.2740 C   0  0  0  0  0  0  0  0  0  0  0  0
   39.6490   22.2180   37.2290 N   0  0  0  0  0  0  0  0  0  0  0  0
   38.7730   21.8470   37.6610 H   0  0  0  0  0  0  0  0  0  0  0  0
   40.8620   21.8310   37.5340 N   0  0  0  0  0  0  0  0  0  0  0  0
   41.7750   22.5110   36.7900 C   0  0  0  0  0  0  0  0  0  0  0  0
   42.8560   22.4250   36.8010 H   0  0  0  0  0  0  0  0  0  0  0  0
   41.0420   23.3650   35.9810 C   0  0  0  0  0  0  0  0  0  0  0  0
   41.3850   24.2940   35.0250 C   0  0  0  0  0  3  0  0  0  0  0  0
   36.3330   28.7570   34.2010 O   0  0  0  0  0  0  0  0  0  0  0  0
   35.2790   31.0750   34.6490 O   0  0  0  0  0  0  0  0  0  0  0  0
   35.3460   29.9870   33.6340 P   0  0  1  0  0  0  0  0  0  0  0  0
   36.1300   30.5570   32.2230 O   0  0  0  0  0  0  0  0  0  0  0  0
   36.9420   31.0630   32.4740 H   0  0  0  0  0  0  0  0  0  0  0  0
   33.8320   29.3480   33.1960 O   0  0  0  0  0  0  0  0  0  0  0  0
   30.4730   30.7640   32.6140 C   0  0  0  0  0  0  0  0  0  0  0  0
   31.4370   29.9710   33.2380 C   0  0  0  0  0  0  0  0  0  0  0  0
   32.7400   30.0110   32.7680 C   0  0  0  0  0  0  0  0  0  0  0  0
   33.0090   30.8410   31.7000 N   0  0  0  0  0  0  0  0  0  0  0  0
   32.0450   31.5900   31.1280 C   0  0  0  0  0  0  0  0  0  0  0  0
   30.7850   31.5510   31.5830 N   0  0  0  0  0  0  0  0  0  0  0  0
   29.4910   30.6460   33.0740 H   0  0  0  0  0  0  0  0  0  0  0  0
   31.2970   29.3050   34.0710 H   0  0  0  0  0  0  0  0  0  0  0  0
   32.2610   32.2400   30.2890 H   0  0  0  0  0  0  0  0  0  0  0  0
  2  1  1  0  0  0  0
  3 23  1  0  0  0  0
  3  2  2  0  0  0  0
  4  3  1  0  0  0  0
  5  4  2  0  0  0  0
  5  6  1  0  0  0  0
  6  7  2  0  0  0  0
  7  2  1  0  0  0  0
  7 12  1  0  0  0  0
  8  4  1  0  0  0  0
  9  5  1  0  0  0  0
 10  6  1  0  0  0  0
 11 12  2  0  0  0  0
 11 22  1  0  0  0  0
 12 13  1  0  0  0  0
 13 14  1  0  0  0  0
 13 15  2  0  0  0  0
 15 16  1  0  0  0  0
 16 18  1  0  0  0  0
 16 17  1  0  0  0  0
 19 20  1  0  0  0  0
 19 18  2  0  0  0  0
 21 15  1  0  0  0  0
 21 19  1  0  0  0  0
 22 21  2  0  0  0  0
 25 23  1  0  0  0  0
 25 24  2  1  0  0  0
 26 27  1  0  0  0  0
 26 25  1  0  0  0  0
 28 25  1  0  0  0  0
 29 35  1  0  0  0  0
 29 30  1  0  0  0  0
 30 36  1  0  0  0  0
 31 28  1  0  0  0  0
 31 30  2  0  0  0  0
 32 31  1  0  0  0  0
 33 34  1  0  0  0  0
 33 32  2  0  0  0  0
 34 29  2  0  0  0  0
 37 33  1  0  0  0  0
M  END
>  <minimizedAffinity>
-5.61985397

$$$$
