
 OpenBabel03272509013D

 34 37  0  0  0  0  0  0  0  0999 V2000
   39.1920   31.4790   50.1720 Cl  0  0  0  0  0  0  0  0  0  0  0  0
   37.6200   30.9240   49.6870 C   0  0  0  0  0  0  0  0  0  0  0  0
   37.1600   31.1970   48.4030 C   0  0  0  0  0  0  0  0  0  0  0  0
   35.9220   30.7870   47.9790 C   0  0  0  0  0  0  0  0  0  0  0  0
   35.0860   30.0840   48.8180 C   0  0  0  0  0  0  0  0  0  0  0  0
   35.5000   29.7920   50.0980 C   0  0  0  0  0  0  0  0  0  0  0  0
   34.5410   28.9120   51.2730 Cl  0  0  0  0  0  0  0  0  0  0  0  0
   36.7660   30.2230   50.4960 C   0  0  0  0  0  0  0  0  0  0  0  0
   35.5780   31.0070   46.9740 H   0  0  0  0  0  0  0  0  0  0  0  0
   34.1010   29.7380   48.5330 H   0  0  0  0  0  0  0  0  0  0  0  0
   39.7430   33.4570   47.1050 C   0  0  0  0  0  0  0  0  0  0  0  0
   39.6230   33.3180   45.7150 C   0  0  0  0  0  0  0  0  0  0  0  0
   38.6370   32.4280   45.2520 C   0  0  0  0  0  0  0  0  0  0  0  0
   37.8760   31.7710   46.1670 N   0  0  0  0  0  0  0  0  0  0  0  0
   38.0170   31.9280   47.4960 C   0  0  0  0  0  0  0  0  0  0  0  0
   38.9520   32.7700   47.9180 N   0  0  0  0  0  0  0  0  0  0  0  0
   40.4400   34.0920   47.6310 H   0  0  0  0  0  0  0  0  0  0  0  0
   40.3120   33.9200   45.1390 H   0  0  0  0  0  0  0  0  0  0  0  0
   38.5760   32.3500   44.1940 H   0  0  0  0  0  0  0  0  0  0  0  0
   37.2550   29.8960   51.8630 C   0  0  0  0  0  0  0  0  0  0  0  0
   36.3680   29.7350   52.5110 H   0  0  0  0  0  0  0  0  0  0  0  0
   37.9160   30.7090   52.2380 H   0  0  0  0  0  0  0  0  0  0  0  0
   38.2420   28.0530   50.5310 C   0  0  0  0  0  3  0  0  0  0  0  0
   38.0180   28.6290   51.7850 C   0  0  0  0  0  0  0  0  0  0  0  0
   38.5330   27.9670   52.8730 C   0  0  0  0  0  0  0  0  0  0  0  0
   38.3370   28.4430   53.8130 H   0  0  0  0  0  0  0  0  0  0  0  0
   39.2530   26.7830   52.8230 C   0  0  0  0  0  0  0  0  0  0  0  0
   39.8360   25.9820   53.7440 N   0  0  0  0  0  0  0  0  0  0  0  0
   39.8230   26.1750   54.7840 H   0  0  0  0  0  0  0  0  0  0  0  0
   40.3940   24.9620   53.1120 N   0  0  0  0  0  0  0  0  0  0  0  0
   40.1770   25.0960   51.7760 C   0  0  0  0  0  0  0  0  0  0  0  0
   40.5400   24.3780   51.0480 H   0  0  0  0  0  0  0  0  0  0  0  0
   39.4510   26.2440   51.5480 C   0  0  0  0  0  0  0  0  0  0  0  0
   38.9580   26.8620   50.4180 C   0  0  0  0  0  3  0  0  0  0  0  0
  2  1  1  0  0  0  0
  2  8  1  0  0  0  0
  3  2  2  0  0  0  0
  4  3  1  0  0  0  0
  4  5  2  0  0  0  0
  5  6  1  0  0  0  0
  6  8  2  0  0  0  0
  6  7  1  0  0  0  0
  8 20  1  0  0  0  0
  9  4  1  0  0  0  0
 10  5  1  0  0  0  0
 11 17  1  0  0  0  0
 11 16  1  0  0  0  0
 12 11  2  0  0  0  0
 13 12  1  0  0  0  0
 13 14  2  0  0  0  0
 14 15  1  0  0  0  0
 15 16  2  0  0  0  0
 15  3  1  0  0  0  0
 18 12  1  0  0  0  0
 19 13  1  0  0  0  0
 20 22  1  0  0  0  0
 20 21  1  0  0  0  0
 23 24  1  0  0  0  0
 24 20  1  0  0  0  0
 24 25  2  0  0  0  0
 25 26  1  0  0  0  0
 27 25  1  0  0  0  0
 27 28  1  0  0  0  0
 28 29  1  0  0  0  0
 30 28  1  0  0  0  0
 31 30  2  0  0  0  0
 32 31  1  0  0  0  0
 33 31  1  0  0  0  0
 33 27  2  0  0  0  0
 34 23  2  0  0  0  0
 34 33  1  0  0  0  0
M  END
>  <minimizedAffinity>
-0.149830803

>  <minimizedRMSD>
1.44274533

$$$$
