
 OpenBabel03272508113D

 37 40  0  0  0  0  0  0  0  0999 V2000
   36.7070   29.4310   44.0500 Cl  0  0  0  0  0  0  0  0  0  0  0  0
   38.3710   29.8160   43.5510 C   0  0  0  0  0  0  0  0  0  0  0  0
   39.3360   30.3160   44.4090 C   0  0  0  0  0  0  0  0  0  0  0  0
   40.5940   30.5740   43.8890 C   0  0  0  0  0  0  0  0  0  0  0  0
   40.8700   30.3410   42.5670 C   0  0  0  0  0  0  0  0  0  0  0  0
   39.9250   29.8470   41.7060 C   0  0  0  0  0  0  0  0  0  0  0  0
   38.6760   29.5860   42.2050 C   0  0  0  0  0  0  0  0  0  0  0  0
   41.2880   30.9610   44.6190 H   0  0  0  0  0  0  0  0  0  0  0  0
   41.8730   30.5640   42.2270 H   0  0  0  0  0  0  0  0  0  0  0  0
   40.2010   29.6830   40.6710 H   0  0  0  0  0  0  0  0  0  0  0  0
   36.9900   30.0190   40.5170 C   0  0  0  0  0  3  0  0  0  0  0  0
   37.7030   29.0600   41.2470 C   0  0  0  0  0  0  0  0  0  0  0  0
   37.3970   27.7430   40.9700 C   0  0  0  0  0  0  0  0  0  0  0  0
   37.9640   27.0320   41.5490 H   0  0  0  0  0  0  0  0  0  0  0  0
   36.4400   27.4500   40.0230 C   0  0  0  0  0  0  0  0  0  0  0  0
   35.9920   26.2530   39.6000 N   0  0  0  0  0  0  0  0  0  0  0  0
   36.3210   25.3230   39.9470 H   0  0  0  0  0  0  0  0  0  0  0  0
   35.0750   26.4340   38.6830 N   0  0  0  0  0  0  0  0  0  0  0  0
   34.8830   27.7630   38.4650 C   0  0  0  0  0  0  0  0  0  0  0  0
   34.2000   28.2420   37.7740 H   0  0  0  0  0  0  0  0  0  0  0  0
   35.7560   28.4160   39.3200 C   0  0  0  0  0  0  0  0  0  0  0  0
   36.0300   29.7430   39.5650 C   0  0  0  0  0  3  0  0  0  0  0  0
   38.8720   30.4790   45.6780 O   0  0  0  0  0  0  0  0  0  0  0  0
   39.4440   32.5430   47.1270 O   0  0  0  0  0  0  0  0  0  0  0  0
   38.3100   31.8580   46.4470 P   0  0  1  0  0  0  0  0  0  0  0  0
   37.7100   32.8450   45.1830 O   0  0  0  0  0  0  0  0  0  0  0  0
   38.4660   33.2120   44.6590 H   0  0  0  0  0  0  0  0  0  0  0  0
   37.0220   31.4520   47.4790 O   0  0  0  0  0  0  0  0  0  0  0  0
   37.6130   30.5210   51.0010 C   0  0  0  0  0  0  0  0  0  0  0  0
   37.7020   31.3100   49.8540 C   0  0  0  0  0  0  0  0  0  0  0  0
   37.0780   30.8760   48.6950 C   0  0  0  0  0  0  0  0  0  0  0  0
   36.3990   29.6770   48.7460 N   0  0  0  0  0  0  0  0  0  0  0  0
   36.3390   28.9470   49.8780 C   0  0  0  0  0  0  0  0  0  0  0  0
   36.9430   29.3670   50.9980 N   0  0  0  0  0  0  0  0  0  0  0  0
   38.1430   30.9680   51.8440 H   0  0  0  0  0  0  0  0  0  0  0  0
   38.2130   32.2510   49.7460 H   0  0  0  0  0  0  0  0  0  0  0  0
   35.8050   28.0060   49.9130 H   0  0  0  0  0  0  0  0  0  0  0  0
  2  1  1  0  0  0  0
  2  3  1  0  0  0  0
  3 23  1  0  0  0  0
  4  3  2  0  0  0  0
  4  8  1  0  0  0  0
  5  4  1  0  0  0  0
  6  7  1  0  0  0  0
  6  5  2  0  0  0  0
  7  2  2  0  0  0  0
  9  5  1  0  0  0  0
 10  6  1  0  0  0  0
 11 12  1  0  0  0  0
 12  7  1  0  0  0  0
 13 12  2  0  0  0  0
 13 14  1  0  0  0  0
 15 13  1  0  0  0  0
 16 17  1  0  0  0  0
 16 15  1  0  0  0  0
 18 16  1  0  0  0  0
 19 18  2  0  0  0  0
 19 21  1  0  0  0  0
 20 19  1  0  0  0  0
 21 22  1  0  0  0  0
 21 15  2  0  0  0  0
 22 11  2  0  0  0  0
 23 25  1  0  0  0  0
 25 24  2  1  0  0  0
 25 28  1  0  0  0  0
 26 25  1  0  0  0  0
 27 26  1  0  0  0  0
 28 31  1  0  0  0  0
 29 35  1  0  0  0  0
 30 29  2  0  0  0  0
 31 32  2  0  0  0  0
 31 30  1  0  0  0  0
 32 33  1  0  0  0  0
 33 37  1  0  0  0  0
 33 34  2  0  0  0  0
 34 29  1  0  0  0  0
 36 30  1  0  0  0  0
M  END
>  <minimizedAffinity>
-4.81514835

>  <minimizedRMSD>
0.540004075

$$$$
