
 OpenBabel03272508103D

 37 40  0  0  0  0  0  0  0  0999 V2000
   36.6470   29.5210   44.0500 Cl  0  0  0  0  0  0  0  0  0  0  0  0
   38.2970   29.8890   43.4940 C   0  0  0  0  0  0  0  0  0  0  0  0
   39.3050   30.3490   44.3240 C   0  0  0  0  0  0  0  0  0  0  0  0
   40.5460   30.5960   43.7600 C   0  0  0  0  0  0  0  0  0  0  0  0
   40.7640   30.3920   42.4220 C   0  0  0  0  0  0  0  0  0  0  0  0
   39.7770   29.9370   41.5890 C   0  0  0  0  0  0  0  0  0  0  0  0
   38.5440   29.6870   42.1320 C   0  0  0  0  0  0  0  0  0  0  0  0
   41.2760   30.9520   44.4710 H   0  0  0  0  0  0  0  0  0  0  0  0
   41.7570   30.6060   42.0480 H   0  0  0  0  0  0  0  0  0  0  0  0
   40.0070   29.7950   40.5400 H   0  0  0  0  0  0  0  0  0  0  0  0
   37.4940   27.8170   41.0010 C   0  0  0  0  0  3  0  0  0  0  0  0
   37.5230   29.2030   41.2010 C   0  0  0  0  0  0  0  0  0  0  0  0
   36.5880   29.9340   40.4970 C   0  0  0  0  0  0  0  0  0  0  0  0
   36.6380   30.9960   40.6750 H   0  0  0  0  0  0  0  0  0  0  0  0
   35.7030   29.2850   39.6630 C   0  0  0  0  0  0  0  0  0  0  0  0
   34.7220   29.7930   38.8930 N   0  0  0  0  0  0  0  0  0  0  0  0
   34.4760   30.8040   38.8110 H   0  0  0  0  0  0  0  0  0  0  0  0
   34.1210   28.8170   38.2590 N   0  0  0  0  0  0  0  0  0  0  0  0
   34.6850   27.6240   38.5890 C   0  0  0  0  0  0  0  0  0  0  0  0
   34.4210   26.6320   38.2400 H   0  0  0  0  0  0  0  0  0  0  0  0
   35.6980   27.9190   39.4870 C   0  0  0  0  0  0  0  0  0  0  0  0
   36.6140   27.1530   40.1700 C   0  0  0  0  0  3  0  0  0  0  0  0
   38.8950   30.4880   45.6150 O   0  0  0  0  0  0  0  0  0  0  0  0
   39.4640   32.5070   47.1270 O   0  0  0  0  0  0  0  0  0  0  0  0
   38.3320   31.8450   46.4210 P   0  0  1  0  0  0  0  0  0  0  0  0
   37.7400   32.8700   45.1850 O   0  0  0  0  0  0  0  0  0  0  0  0
   38.4990   33.2510   44.6760 H   0  0  0  0  0  0  0  0  0  0  0  0
   37.0380   31.4110   47.4340 O   0  0  0  0  0  0  0  0  0  0  0  0
   37.6180   30.5330   50.9720 C   0  0  0  0  0  0  0  0  0  0  0  0
   37.7130   31.3030   49.8140 C   0  0  0  0  0  0  0  0  0  0  0  0
   37.0890   30.8530   48.6600 C   0  0  0  0  0  0  0  0  0  0  0  0
   36.4050   29.6580   48.7290 N   0  0  0  0  0  0  0  0  0  0  0  0
   36.3400   28.9470   49.8720 C   0  0  0  0  0  0  0  0  0  0  0  0
   36.9440   29.3820   50.9860 N   0  0  0  0  0  0  0  0  0  0  0  0
   38.1480   30.9910   51.8090 H   0  0  0  0  0  0  0  0  0  0  0  0
   38.2280   32.2400   49.6910 H   0  0  0  0  0  0  0  0  0  0  0  0
   35.8020   28.0080   49.9200 H   0  0  0  0  0  0  0  0  0  0  0  0
  2  1  1  0  0  0  0
  2  3  1  0  0  0  0
  3 23  1  0  0  0  0
  4  3  2  0  0  0  0
  4  8  1  0  0  0  0
  5  4  1  0  0  0  0
  6  7  1  0  0  0  0
  6  5  2  0  0  0  0
  7  2  2  0  0  0  0
  9  5  1  0  0  0  0
 10  6  1  0  0  0  0
 11 12  1  0  0  0  0
 12  7  1  0  0  0  0
 13 14  1  0  0  0  0
 13 12  2  0  0  0  0
 15 13  1  0  0  0  0
 16 15  1  0  0  0  0
 17 16  1  0  0  0  0
 18 19  2  0  0  0  0
 18 16  1  0  0  0  0
 19 21  1  0  0  0  0
 20 19  1  0  0  0  0
 21 15  2  0  0  0  0
 21 22  1  0  0  0  0
 22 11  2  0  0  0  0
 23 25  1  0  0  0  0
 25 24  2  1  0  0  0
 25 28  1  0  0  0  0
 26 25  1  0  0  0  0
 27 26  1  0  0  0  0
 28 31  1  0  0  0  0
 29 34  1  0  0  0  0
 29 35  1  0  0  0  0
 30 29  2  0  0  0  0
 31 32  2  0  0  0  0
 31 30  1  0  0  0  0
 32 33  1  0  0  0  0
 33 37  1  0  0  0  0
 33 34  2  0  0  0  0
 36 30  1  0  0  0  0
M  END
>  <minimizedAffinity>
-4.82829142

>  <minimizedRMSD>
0.157039672

$$$$
