
 OpenBabel03272506173D

 41 44  0  0  1  0  0  0  0  0999 V2000
   34.6550   29.4730   48.5720 C   0  0  0  0  0  0  0  0  0  0  0  0
   34.1660   30.1660   47.4510 C   0  0  0  0  0  0  0  0  0  0  0  0
   33.4640   29.4180   46.5040 C   0  0  0  0  0  0  0  0  0  0  0  0
   33.2820   28.0660   46.7040 N   0  0  0  0  0  0  0  0  0  0  0  0
   33.7790   27.4390   47.8150 C   0  0  0  0  0  0  0  0  0  0  0  0
   34.4530   28.1530   48.7230 N   0  0  0  0  0  0  0  0  0  0  0  0
   34.2830   31.2210   47.2530 H   0  0  0  0  0  0  0  0  0  0  0  0
   33.6070   26.3900   47.9150 H   0  0  0  0  0  0  0  0  0  0  0  0
   35.3940   30.2940   49.5810 C   0  0  0  0  0  0  0  0  0  0  0  0
   36.4510   31.1240   48.8790 C   0  0  0  0  0  0  0  0  0  0  0  0
   37.8460   30.6800   49.2050 C   0  0  0  0  0  0  0  0  0  0  0  0
   38.1150   30.6390   50.6870 C   0  0  0  0  0  0  0  0  0  0  0  0
   37.0060   30.0070   51.4710 C   0  0  0  0  0  0  0  0  0  0  0  0
   35.9510   29.3610   50.6020 C   0  0  0  0  0  0  0  0  0  0  0  0
   34.6710   30.9790   50.0510 H   0  0  0  0  0  0  0  0  0  0  0  0
   36.3300   32.1790   49.1440 H   0  0  0  0  0  0  0  0  0  0  0  0
   36.3410   30.9850   47.7700 H   0  0  0  0  0  0  0  0  0  0  0  0
   38.5220   31.4800   48.7870 H   0  0  0  0  0  0  0  0  0  0  0  0
   38.0320   29.6850   48.7510 H   0  0  0  0  0  0  0  0  0  0  0  0
   38.2930   31.6480   51.0860 H   0  0  0  0  0  0  0  0  0  0  0  0
   39.0840   30.0820   50.8140 H   0  0  0  0  0  0  0  0  0  0  0  0
   36.5550   30.7010   52.1950 H   0  0  0  0  0  0  0  0  0  0  0  0
   37.4440   29.1690   52.0750 H   0  0  0  0  0  0  0  0  0  0  0  0
   36.3370   28.4110   50.1790 H   0  0  0  0  0  0  0  0  0  0  0  0
   35.1320   29.0550   51.2880 H   0  0  0  0  0  0  0  0  0  0  0  0
   32.8790   30.0040   45.2540 C   0  0  0  0  0  0  0  0  0  0  0  0
   31.4170   30.0500   45.2520 C   0  0  0  0  0  0  0  0  0  0  0  0
   30.6990   31.1170   44.9410 C   0  0  0  0  0  0  0  0  0  0  0  0
   29.2940   31.0400   44.9740 N   0  0  0  0  0  0  0  0  0  0  0  0
   28.0720   31.4540   44.4330 C   0  0  0  0  0  0  0  0  0  0  0  0
   27.6340   32.4090   43.7190 O   0  0  0  0  0  0  0  0  0  0  0  0
   27.3380   30.3220   45.0010 C   0  0  0  0  0  0  0  0  0  0  0  0
   27.2110   29.5090   44.2650 H   0  0  0  0  0  0  0  0  0  0  0  0
   28.5460   30.2160   45.9070 C   0  0  1  0  0  0  0  0  0  0  0  0
   29.1900   28.5110   45.7930 S   0  0  0  0  0  0  0  0  0  0  0  0
   30.9870   28.6920   45.6560 C   0  0  0  0  0  0  0  0  0  0  0  0
   31.4360   27.8780   45.0510 H   0  0  0  0  0  0  0  0  0  0  0  0
   31.3000   32.3890   44.5590 C   0  0  0  0  0  0  0  0  0  0  0  0
   32.2550   32.8090   43.8680 O   0  0  0  0  0  0  0  0  0  0  0  0
   30.8140   33.6020   44.9890 O   0  0  0  0  0  0  0  0  0  0  0  0
   30.6390   34.4330   44.4350 H   0  0  0  0  0  0  0  0  0  0  0  0
  1  6  1  0  0  0  0
  1  9  1  0  0  0  0
  2  1  2  0  0  0  0
  3  4  2  0  0  0  0
  3  2  1  0  0  0  0
  4  5  1  0  0  0  0
  5  8  1  0  0  0  0
  5  6  2  0  0  0  0
  7  2  1  0  0  0  0
  9 15  1  0  0  0  0
  9 14  1  0  0  0  0
 10 16  1  0  0  0  0
 10 11  1  0  0  0  0
 10  9  1  0  0  0  0
 11 12  1  0  0  0  0
 12 21  1  0  0  0  0
 12 20  1  0  0  0  0
 12 13  1  0  0  0  0
 13 23  1  0  0  0  0
 13 22  1  0  0  0  0
 14 25  1  0  0  0  0
 14 13  1  0  0  0  0
 17 10  1  0  0  0  0
 18 11  1  0  0  0  0
 19 11  1  0  0  0  0
 24 14  1  0  0  0  0
 26  3  1  0  0  0  0
 27 26  1  0  0  0  0
 27 36  1  0  0  0  0
 28 29  1  0  0  0  0
 28 27  2  0  0  0  0
 29 34  1  0  0  0  0
 30 29  1  0  0  0  0
 30 32  1  0  0  0  0
 31 30  2  0  0  0  0
 33 32  1  0  0  0  0
 34 32  1  6  0  0  0
 35 34  1  0  0  0  0
 36 35  1  0  0  0  0
 37 36  1  0  0  0  0
 38 28  1  0  0  0  0
 38 40  1  0  0  0  0
 39 38  2  0  0  0  0
 41 40  1  0  0  0  0
M  END
>  <minimizedAffinity>
-5.99197245

>  <minimizedRMSD>
0.618788242

$$$$
