
 OpenBabel03272507333D

 43 48  0  0  1  0  0  0  0  0999 V2000
   33.6370   26.7500   46.9220 C   0  0  1  0  0  0  0  0  0  0  0  0
   33.4850   25.1840   47.0620 C   0  0  0  0  0  0  0  0  0  0  0  0
   32.7220   25.9810   46.0750 C   0  0  2  0  0  0  0  0  0  0  0  0
   34.7140   26.9550   46.7440 H   0  0  0  0  0  0  0  0  0  0  0  0
   32.9550   24.8030   47.9280 H   0  0  0  0  0  0  0  0  0  0  0  0
   34.3230   24.5750   46.7010 H   0  0  0  0  0  0  0  0  0  0  0  0
   31.6420   26.2010   46.2870 H   0  0  0  0  0  0  0  0  0  0  0  0
   33.1130   27.4130   48.1640 C   0  0  0  0  0  0  0  0  0  0  0  0
   31.8980   27.2850   48.5250 O   0  0  0  0  0  0  0  0  0  0  0  0
   35.8300   29.0980   49.7710 C   0  0  0  0  0  0  0  0  0  0  0  0
   34.7900   29.6000   50.5330 C   0  0  0  0  0  0  0  0  0  0  0  0
   33.6020   29.0400   50.0380 C   0  0  0  0  0  0  0  0  0  0  0  0
   33.9980   28.2250   48.9990 C   0  0  0  0  0  0  0  0  0  0  0  0
   35.3070   28.2940   48.8830 O   0  0  0  0  0  0  0  0  0  0  0  0
   34.7370   30.2950   51.3780 H   0  0  0  0  0  0  0  0  0  0  0  0
   32.5910   29.2110   50.3970 H   0  0  0  0  0  0  0  0  0  0  0  0
   37.2090   29.4720   50.0150 C   0  0  0  0  0  0  0  0  0  0  0  0
   37.8480   28.8920   50.9050 O   0  0  0  0  0  0  0  0  0  0  0  0
   37.7590   30.5120   49.1900 C   0  0  0  0  0  0  0  0  0  0  0  0
   38.1210   31.6910   49.8190 C   0  0  0  0  0  0  0  0  0  0  0  0
   38.6550   32.7230   49.0430 C   0  0  0  0  0  0  0  0  0  0  0  0
   38.7940   32.5140   47.6900 N   0  0  0  0  0  0  0  0  0  0  0  0
   38.4320   31.3600   47.1190 C   0  0  0  0  0  0  0  0  0  0  0  0
   37.9190   30.3650   47.8530 N   0  0  0  0  0  0  0  0  0  0  0  0
   38.0100   31.8490   50.8790 H   0  0  0  0  0  0  0  0  0  0  0  0
   38.9490   33.6640   49.5140 H   0  0  0  0  0  0  0  0  0  0  0  0
   38.5540   31.2260   46.0470 H   0  0  0  0  0  0  0  0  0  0  0  0
   33.0120   25.6780   44.6360 C   0  0  0  0  0  2  0  0  0  0  0  0
   34.0990   26.4770   44.0650 C   0  0  0  0  0  0  0  0  0  0  0  0
   35.3060   26.0440   43.7400 C   0  0  0  0  0  0  0  0  0  0  0  0
   36.2820   26.9270   43.2000 N   0  0  0  0  0  0  0  0  0  0  0  0
   37.5870   27.0690   42.6570 C   0  0  1  0  0  0  0  0  0  0  0  0
   38.7190   26.5200   42.8020 O   0  0  0  0  0  1  0  0  0  0  0  0
   37.0820   28.1700   41.8050 C   0  0  0  0  0  3  0  0  0  0  0  0
   36.5820   27.8860   40.8710 H   0  0  0  0  0  0  0  0  0  0  0  0
   36.1780   28.3440   43.0060 C   0  0  1  0  0  0  0  0  0  0  0  0
   34.4890   28.8000   42.6280 S   0  0  0  0  0  0  0  0  0  0  0  0
   33.6310   27.8620   43.9150 C   0  0  0  0  0  3  0  0  0  0  0  0
   33.7820   28.4240   44.8760 H   0  0  0  0  0  0  0  0  0  0  0  0
   35.7170   24.6320   43.9270 C   0  0  0  0  0  0  0  0  0  0  0  0
   35.7290   23.6520   43.1790 O   0  0  0  0  0  0  0  0  0  0  0  0
   36.2080   24.1530   45.1150 O   0  0  0  0  0  0  0  0  0  0  0  0
   36.9970   23.5510   45.1690 H   0  0  0  0  0  0  0  0  0  0  0  0
  1  4  1  6  0  0  0
  1  2  1  0  0  0  0
  1  8  1  0  0  0  0
  2  5  1  0  0  0  0
  3  7  1  1  0  0  0
  3  1  1  0  0  0  0
  3  2  1  0  0  0  0
  6  2  1  0  0  0  0
  8  9  2  0  0  0  0
  8 13  1  0  0  0  0
 10 17  1  0  0  0  0
 10 11  2  0  0  0  0
 11 15  1  0  0  0  0
 12 16  1  0  0  0  0
 12 11  1  0  0  0  0
 13 12  2  0  0  0  0
 14 13  1  0  0  0  0
 14 10  1  0  0  0  0
 17 18  2  0  0  0  0
 19 20  1  0  0  0  0
 19 17  1  0  0  0  0
 20 25  1  0  0  0  0
 21 26  1  0  0  0  0
 21 20  2  0  0  0  0
 22 21  1  0  0  0  0
 23 22  2  0  0  0  0
 23 24  1  0  0  0  0
 24 19  2  0  0  0  0
 27 23  1  0  0  0  0
 28  3  1  0  0  0  0
 29 28  1  0  0  0  0
 30 40  1  0  0  0  0
 30 29  2  0  0  0  0
 31 30  1  0  0  0  0
 32 33  1  1  0  0  0
 32 36  1  0  0  0  0
 32 31  1  0  0  0  0
 34 32  1  0  0  0  0
 35 34  1  0  0  0  0
 36 34  1  6  0  0  0
 36 31  1  0  0  0  0
 37 36  1  0  0  0  0
 37 38  1  0  0  0  0
 38 29  1  0  0  0  0
 38 39  1  0  0  0  0
 40 42  1  0  0  0  0
 41 40  2  0  0  0  0
 42 43  1  0  0  0  0
M  END
>  <minimizedAffinity>
-5.04752636

>  <minimizedRMSD>
2.5030992

$$$$
