
 OpenBabel03272507193D

 37 40  0  0  1  0  0  0  0  0999 V2000
   37.6960   31.4080   49.3950 C   0  0  0  0  0  0  0  0  0  0  0  0
   38.2200   32.6790   49.5940 C   0  0  0  0  0  0  0  0  0  0  0  0
   38.9230   33.1950   48.4890 C   0  0  0  0  0  0  0  0  0  0  0  0
   39.0550   32.4710   47.3360 N   0  0  0  0  0  0  0  0  0  0  0  0
   38.5220   31.2330   47.1930 C   0  0  0  0  0  0  0  0  0  0  0  0
   37.8310   30.6990   48.2510 N   0  0  0  0  0  0  0  0  0  0  0  0
   38.1090   33.2290   50.4960 H   0  0  0  0  0  0  0  0  0  0  0  0
   39.3750   34.1800   48.5370 H   0  0  0  0  0  0  0  0  0  0  0  0
   36.9180   30.8360   50.5400 C   0  0  1  0  0  0  0  0  0  0  0  0
   36.1110   29.6250   50.3970 C   0  0  2  0  0  0  0  0  0  0  0  0
   37.4720   29.4770   51.0030 C   0  0  0  0  0  0  0  0  0  0  0  0
   36.7320   31.5640   51.3810 H   0  0  0  0  0  0  0  0  0  0  0  0
   35.1810   29.6500   51.0370 H   0  0  0  0  0  0  0  0  0  0  0  0
   37.5500   29.3630   52.1030 H   0  0  0  0  0  0  0  0  0  0  0  0
   38.2660   28.9920   50.4050 H   0  0  0  0  0  0  0  0  0  0  0  0
   35.8860   29.1620   49.1090 O   0  0  0  0  0  0  0  0  0  0  0  0
   34.7220   28.9440   48.4490 C   0  0  0  0  0  0  0  0  0  0  0  0
   34.3330   27.7950   48.1450 O   0  0  0  0  0  0  0  0  0  0  0  0
   34.1210   30.1830   48.2120 N   0  0  0  0  0  0  0  0  0  0  0  0
   33.8890   30.9020   47.4840 H   0  0  0  0  0  0  0  0  0  0  0  0
   33.6990   30.6710   49.0550 H   0  0  0  0  0  0  0  0  0  0  0  0
   38.7040   30.4990   45.9070 C   0  0  0  0  0  2  0  0  0  0  0  0
   37.7980   31.0090   44.8550 C   0  0  0  0  0  0  0  0  0  0  0  0
   38.0770   31.9690   43.9970 C   0  0  0  0  0  0  0  0  0  0  0  0
   37.2490   32.4970   42.9740 N   0  0  0  0  0  0  0  0  0  0  0  0
   37.0850   33.2250   41.7660 C   0  0  0  0  0  0  0  0  0  0  0  0
   37.7550   34.1330   41.2420 O   0  0  0  0  0  0  0  0  0  0  0  0
   35.8590   32.4340   41.5010 C   0  0  0  0  0  3  0  0  0  0  0  0
   36.1380   31.4770   40.9730 H   0  0  0  0  0  0  0  0  0  0  0  0
   35.8210   32.3020   43.0070 C   0  0  1  0  0  3  0  0  0  0  0  0
   35.3960   30.6780   43.6230 S   0  0  0  0  0  0  0  0  0  0  0  0
   36.5350   30.2410   44.9570 C   0  0  0  0  0  3  0  0  0  0  0  0
   36.0710   30.3560   45.9580 H   0  0  0  0  0  0  0  0  0  0  0  0
   39.3960   32.5710   44.1090 C   0  0  0  0  0  0  0  0  0  0  0  0
   39.7890   33.5270   43.3800 O   0  0  0  0  0  0  0  0  0  0  0  0
   40.6850   32.9740   44.3960 O   0  0  0  0  0  0  0  0  0  0  0  0
   41.3530   32.3550   44.8520 H   0  0  0  0  0  0  0  0  0  0  0  0
  1  2  1  0  0  0  0
  1  9  1  0  0  0  0
  2  7  1  0  0  0  0
  3  8  1  0  0  0  0
  3  2  2  0  0  0  0
  4  3  1  0  0  0  0
  5  4  2  0  0  0  0
  5  6  1  0  0  0  0
  6  1  2  0  0  0  0
  9 11  1  0  0  0  0
  9 12  1  1  0  0  0
 10  9  1  0  0  0  0
 10 11  1  0  0  0  0
 10 13  1  1  0  0  0
 11 14  1  0  0  0  0
 15 11  1  0  0  0  0
 16 10  1  0  0  0  0
 17 16  1  0  0  0  0
 18 17  2  0  0  0  0
 19 17  1  0  0  0  0
 19 21  1  0  0  0  0
 20 19  1  0  0  0  0
 22  5  1  0  0  0  0
 23 32  1  0  0  0  0
 23 22  1  0  0  0  0
 24 34  1  0  0  0  0
 24 23  2  0  0  0  0
 25 30  1  0  0  0  0
 25 24  1  0  0  0  0
 26 25  1  0  0  0  0
 27 26  2  0  0  0  0
 28 26  1  0  0  0  0
 29 28  1  0  0  0  0
 30 28  1  6  0  0  0
 30 31  1  0  0  0  0
 31 32  1  0  0  0  0
 32 33  1  0  0  0  0
 34 36  1  0  0  0  0
 35 34  2  0  0  0  0
 36 37  1  0  0  0  0
M  END
>  <minimizedAffinity>
-6.17366791

>  <minimizedRMSD>
2.15915775

$$$$
