
 OpenBabel03272509403D

 42 45  0  0  1  0  0  0  0  0999 V2000
   37.1150   30.9600   48.9970 C   0  0  0  0  0  0  0  0  0  0  0  0
   36.9110   31.9370   49.9700 C   0  0  0  0  0  0  0  0  0  0  0  0
   37.5550   33.1690   49.9500 C   0  0  0  0  0  0  0  0  0  0  0  0
   38.4520   33.4520   48.9120 C   0  0  0  0  0  0  0  0  0  0  0  0
   38.6440   32.4840   47.9650 C   0  0  0  0  0  0  0  0  0  0  0  0
   37.9860   31.2730   48.0170 C   0  0  0  0  0  0  0  0  0  0  0  0
   36.2220   31.7770   50.8060 H   0  0  0  0  0  0  0  0  0  0  0  0
   37.3610   33.8940   50.7300 H   0  0  0  0  0  0  0  0  0  0  0  0
   38.9410   34.4160   48.9180 H   0  0  0  0  0  0  0  0  0  0  0  0
   39.3540   32.7910   47.2010 H   0  0  0  0  0  0  0  0  0  0  0  0
   36.3980   29.7150   49.1070 C   0  0  0  0  0  0  0  0  0  0  0  0
   36.9020   28.8830   49.9430 O   0  0  0  0  0  0  0  0  0  0  0  0
   33.6160   30.1790   46.8280 C   0  0  0  0  0  0  0  0  0  0  0  0
   32.9430   28.9680   46.8470 C   0  0  0  0  0  0  0  0  0  0  0  0
   33.4450   27.9750   47.6510 C   0  0  0  0  0  0  0  0  0  0  0  0
   34.5650   28.2060   48.3890 N   0  0  0  0  0  0  0  0  0  0  0  0
   35.1870   29.3700   48.3510 C   0  0  0  0  0  0  0  0  0  0  0  0
   34.7040   30.3580   47.5640 N   0  0  0  0  0  0  0  0  0  0  0  0
   33.2720   31.0210   46.2080 H   0  0  0  0  0  0  0  0  0  0  0  0
   32.0670   28.9220   46.2130 H   0  0  0  0  0  0  0  0  0  0  0  0
   32.9230   27.0460   47.6630 H   0  0  0  0  0  0  0  0  0  0  0  0
   38.3120   30.3640   46.9340 C   0  0  0  0  0  3  0  0  0  0  0  0
   38.7990   30.6820   45.7430 C   0  0  0  0  0  3  0  0  0  0  0  0
   39.1720   29.8700   44.5860 C   0  0  0  0  0  0  0  0  0  0  0  0
   40.2420   29.5950   44.6350 H   0  0  0  0  0  0  0  0  0  0  0  0
   38.6280   28.8850   44.6430 H   0  0  0  0  0  0  0  0  0  0  0  0
   36.4070   33.4390   41.6400 C   0  0  0  0  0  0  0  0  0  0  0  0
   36.0620   32.3260   42.2630 C   0  0  0  0  0  0  0  0  0  0  0  0
   37.1080   31.4240   42.6850 N   0  0  0  0  0  0  0  0  0  0  0  0
   37.5190   30.0420   42.7610 C   0  0  0  0  0  0  0  0  0  0  0  0
   37.0040   28.8970   42.5230 O   0  0  0  0  0  0  0  0  0  0  0  0
   38.8390   30.4930   43.2470 C   0  0  1  0  0  3  0  0  0  0  0  0
   38.3440   31.9040   43.3220 C   0  0  1  0  0  3  0  0  0  0  0  0
   39.0780   33.0690   42.1850 S   0  0  0  0  0  0  0  0  0  0  0  0
   37.7620   33.9150   41.2810 C   0  0  0  0  0  3  0  0  0  0  0  0
   37.9380   33.8500   40.1720 H   0  0  0  0  0  0  0  0  0  0  0  0
   35.3350   34.3450   41.2260 C   0  0  0  0  0  2  0  0  0  0  0  0
   34.7610   34.6490   42.1240 H   0  0  0  0  0  0  0  0  0  0  0  0
   34.6770   31.9660   42.5510 C   0  0  0  0  0  0  0  0  0  0  0  0
   33.9150   31.2840   41.8440 O   0  0  0  0  0  0  0  0  0  0  0  0
   34.0040   32.3430   43.6760 O   0  0  0  0  0  0  0  0  0  0  0  0
   33.4250   31.7110   44.1840 H   0  0  0  0  0  0  0  0  0  0  0  0
  1 11  1  0  0  0  0
  1  2  1  0  0  0  0
  2  7  1  0  0  0  0
  3  2  2  0  0  0  0
  3  8  1  0  0  0  0
  4  9  1  0  0  0  0
  4  3  1  0  0  0  0
  5  6  1  0  0  0  0
  5  4  2  0  0  0  0
  6  1  2  0  0  0  0
 10  5  1  0  0  0  0
 11 12  2  0  0  0  0
 13 14  2  0  0  0  0
 13 18  1  0  0  0  0
 14 15  1  0  0  0  0
 15 21  1  0  0  0  0
 15 16  2  0  0  0  0
 17 16  1  0  0  0  0
 17 11  1  0  0  0  0
 18 17  2  0  0  0  0
 19 13  1  0  0  0  0
 20 14  1  0  0  0  0
 22  6  1  0  0  0  0
 23 22  2  0  0  0  0
 24 25  1  0  0  0  0
 24 26  1  0  0  0  0
 24 23  1  0  0  0  0
 27 28  2  0  0  0  0
 28 39  1  0  0  0  0
 28 29  1  0  0  0  0
 29 30  1  0  0  0  0
 29 33  1  0  0  0  0
 30 32  1  0  0  0  0
 31 30  2  0  0  0  0
 32 33  1  0  0  0  0
 32 24  1  1  0  0  0
 33 34  1  6  0  0  0
 35 27  1  0  0  0  0
 35 34  1  0  0  0  0
 36 35  1  0  0  0  0
 37 27  1  0  0  0  0
 37 38  1  0  0  0  0
 39 41  1  0  0  0  0
 40 39  2  0  0  0  0
 41 42  1  0  0  0  0
M  END
>  <minimizedAffinity>
-6.43842506

>  <minimizedRMSD>
0.887161732

$$$$
