
 OpenBabel03262521123D

 38 41  0  0  1  0  0  0  0  0999 V2000
   32.1910   29.5950   45.9480 C   0  0  0  0  0  0  0  0  0  0  0  0
   31.6340   29.3720   44.7140 C   0  0  0  0  0  0  0  0  0  0  0  0
   30.7310   28.3900   44.7960 N   0  0  0  0  0  0  0  0  0  0  0  0
   30.6900   27.9650   46.0800 C   0  0  0  0  0  0  0  0  0  0  0  0
   31.5830   28.7070   46.7670 N   0  0  0  0  0  0  0  0  0  0  0  0
   31.9200   29.9400   43.8210 H   0  0  0  0  0  0  0  0  0  0  0  0
   30.1840   28.0620   43.9520 H   0  0  0  0  0  0  0  0  0  0  0  0
   33.1650   30.5100   46.3480 O   0  0  0  0  0  0  0  0  0  0  0  0
   35.7330   30.1860   46.3810 O   0  0  0  0  0  0  0  0  0  0  0  0
   34.4970   29.8870   47.2050 P   0  0  2  0  0  0  0  0  0  0  0  0
   34.3030   28.2110   47.4560 O   0  0  0  0  0  0  0  0  0  0  0  0
   34.8490   27.9640   48.2410 H   0  0  0  0  0  0  0  0  0  0  0  0
   34.5560   30.5980   48.7550 O   0  0  0  0  0  0  0  0  0  0  0  0
   35.6680   30.4710   49.5840 C   0  0  0  0  0  0  0  0  0  0  0  0
   35.8170   29.5180   50.5930 C   0  0  0  0  0  0  0  0  0  0  0  0
   36.9920   29.5330   51.3240 C   0  0  0  0  0  0  0  0  0  0  0  0
   37.9500   30.4490   51.0550 N   0  0  0  0  0  0  0  0  0  0  0  0
   37.7700   31.3790   50.0480 C   0  0  0  0  0  0  0  0  0  0  0  0
   36.6230   31.3650   49.3330 N   0  0  0  0  0  0  0  0  0  0  0  0
   34.9910   28.8280   50.7300 H   0  0  0  0  0  0  0  0  0  0  0  0
   37.1030   28.7940   52.1040 H   0  0  0  0  0  0  0  0  0  0  0  0
   38.5490   32.1020   49.8500 H   0  0  0  0  0  0  0  0  0  0  0  0
   29.8020   26.8820   46.5560 C   0  0  0  0  0  0  0  0  0  0  0  0
   29.0550   27.2590   47.7850 C   0  0  0  0  0  0  0  0  0  0  0  0
   27.9030   27.9040   47.7760 C   0  0  0  0  0  0  0  0  0  0  0  0
   27.1900   28.2650   48.9470 N   0  0  0  0  0  0  0  0  0  0  0  0
   26.0410   28.5070   49.7450 C   0  0  0  0  0  0  0  0  0  0  0  0
   24.8250   28.4960   49.3770 O   0  0  0  0  0  0  0  0  0  0  0  0
   26.7770   28.7400   50.9890 C   0  0  0  0  0  0  0  0  0  0  0  0
   26.6370   29.7120   51.4940 H   0  0  0  0  0  0  0  0  0  0  0  0
   27.9830   28.6300   50.1350 C   0  0  1  0  0  0  0  0  0  0  0  0
   28.8650   27.0630   50.5160 S   0  0  0  0  0  0  0  0  0  0  0  0
   29.7950   26.8050   48.9840 C   0  0  0  0  0  0  0  0  0  0  0  0
   30.6590   27.5290   49.0730 H   0  0  0  0  0  0  0  0  0  0  0  0
   27.3160   28.2740   46.4970 C   0  0  0  0  0  0  0  0  0  0  0  0
   26.6890   29.3450   46.2920 O   0  0  0  0  0  0  0  0  0  0  0  0
   26.8850   28.3300   45.1870 O   0  0  0  0  0  0  0  0  0  0  0  0
   27.2790   27.8050   44.4180 H   0  0  0  0  0  0  0  0  0  0  0  0
  1  8  1  0  0  0  0
  1  5  1  0  0  0  0
  2  3  1  0  0  0  0
  2  1  2  0  0  0  0
  3  4  1  0  0  0  0
  4 23  1  0  0  0  0
  4  5  2  0  0  0  0
  6  2  1  0  0  0  0
  7  3  1  0  0  0  0
  8 10  1  0  0  0  0
 10  9  2  6  0  0  0
 10 11  1  0  0  0  0
 10 13  1  0  0  0  0
 11 12  1  0  0  0  0
 13 14  1  0  0  0  0
 14 15  1  0  0  0  0
 15 20  1  0  0  0  0
 15 16  2  0  0  0  0
 16 21  1  0  0  0  0
 17 16  1  0  0  0  0
 18 17  2  0  0  0  0
 19 14  2  0  0  0  0
 19 18  1  0  0  0  0
 22 18  1  0  0  0  0
 23 24  1  0  0  0  0
 24 33  1  0  0  0  0
 25 24  2  0  0  0  0
 25 26  1  0  0  0  0
 26 27  1  0  0  0  0
 26 31  1  0  0  0  0
 27 29  1  0  0  0  0
 28 27  2  0  0  0  0
 29 30  1  0  0  0  0
 31 32  1  1  0  0  0
 31 29  1  0  0  0  0
 33 34  1  0  0  0  0
 33 32  1  0  0  0  0
 35 25  1  0  0  0  0
 36 35  2  0  0  0  0
 37 35  1  0  0  0  0
 38 37  1  0  0  0  0
M  END
>  <minimizedAffinity>
-5.70981741

>  <minimizedRMSD>
1.34143806

$$$$
