
 OpenBabel03272509533D

 50 54  0  0  1  0  0  0  0  0999 V2000
   32.6570   28.4180   46.7520 C   0  0  0  0  0  0  0  0  0  0  0  0
   33.0680   27.4130   46.4940 H   0  0  0  0  0  0  0  0  0  0  0  0
   32.4120   28.9020   45.7750 H   0  0  0  0  0  0  0  0  0  0  0  0
   31.3760   28.2650   47.4750 C   0  0  0  0  0  0  0  0  0  0  0  0
   31.3260   27.4080   48.5710 C   0  0  0  0  0  0  0  0  0  0  0  0
   30.2000   27.1950   49.3060 C   0  0  0  0  0  0  0  0  0  0  0  0
   29.0920   27.8390   48.9590 N   0  0  0  0  0  0  0  0  0  0  0  0
   29.1230   28.6830   47.8860 C   0  0  0  0  0  0  0  0  0  0  0  0
   30.2380   28.9100   47.1400 N   0  0  0  0  0  0  0  0  0  0  0  0
   32.2290   26.8770   48.8610 H   0  0  0  0  0  0  0  0  0  0  0  0
   30.2150   26.5170   50.1480 H   0  0  0  0  0  0  0  0  0  0  0  0
   27.8640   29.4150   47.4940 C   0  0  0  0  0  2  0  0  0  0  0  0
   27.3760   29.0570   46.1620 C   0  0  0  0  0  0  0  0  0  0  0  0
   27.0630   29.9840   45.2740 C   0  0  0  0  0  0  0  0  0  0  0  0
   26.5920   29.6240   43.9880 N   0  0  0  0  0  0  0  0  0  0  0  0
   25.6760   29.9100   42.9450 C   0  0  0  0  0  0  0  0  0  0  0  0
   24.8470   30.7710   42.6030 O   0  0  0  0  0  0  0  0  0  0  0  0
   26.0610   28.6620   42.2480 C   0  0  0  0  0  3  0  0  0  0  0  0
   26.3620   28.8780   41.2150 H   0  0  0  0  0  0  0  0  0  0  0  0
   27.1770   28.4880   43.2560 C   0  0  2  0  0  3  0  0  0  0  0  0
   27.0060   27.0500   44.3080 S   0  0  0  0  0  0  0  0  0  0  0  0
   27.2990   27.5900   46.0060 C   0  0  0  0  0  3  0  0  0  0  0  0
   26.5330   27.1320   46.6660 H   0  0  0  0  0  0  0  0  0  0  0  0
   27.1930   31.3980   45.5880 C   0  0  0  0  0  0  0  0  0  0  0  0
   28.0030   32.1690   45.0240 O   0  0  0  0  0  0  0  0  0  0  0  0
   27.0320   32.6380   46.1370 O   0  0  0  0  0  0  0  0  0  0  0  0
   26.9140   32.7280   47.1540 H   0  0  0  0  0  0  0  0  0  0  0  0
   33.6290   29.2960   47.4780 C   0  0  0  0  0  0  0  0  0  0  0  0
   34.1780   29.9590   46.7730 H   0  0  0  0  0  0  0  0  0  0  0  0
   33.1290   29.9700   48.2020 H   0  0  0  0  0  0  0  0  0  0  0  0
   34.6260   28.5060   48.1250 O   0  0  0  0  0  0  0  0  0  0  0  0
   36.6460   29.7760   50.8230 C   0  0  0  0  0  0  0  0  0  0  0  0
   37.5930   30.5450   50.0970 C   0  0  0  0  0  0  0  0  0  0  0  0
   37.4680   30.5710   48.7260 C   0  0  0  0  0  0  0  0  0  0  0  0
   36.4310   29.8460   48.1820 N   0  0  0  0  0  0  0  0  0  0  0  0
   35.5530   29.1300   48.8960 C   0  0  0  0  0  0  0  0  0  0  0  0
   35.6760   29.1050   50.2290 N   0  0  0  0  0  0  0  0  0  0  0  0
   36.8180   29.8120   51.8860 H   0  0  0  0  0  0  0  0  0  0  0  0
   38.3990   31.1100   50.5040 H   0  0  0  0  0  0  0  0  0  0  0  0
   38.5410   33.2420   49.0150 F   0  0  0  0  0  0  0  0  0  0  0  0
   38.8400   32.5390   47.9310 C   0  0  0  0  0  0  0  0  0  0  0  0
   38.3250   31.2890   47.8170 C   0  0  0  0  0  0  0  0  0  0  0  0
   38.7050   30.6400   46.6370 C   0  0  0  0  0  0  0  0  0  0  0  0
   39.5170   31.2120   45.6910 C   0  0  0  0  0  0  0  0  0  0  0  0
   40.0110   32.4850   45.8590 C   0  0  0  0  0  0  0  0  0  0  0  0
   39.6580   33.1480   47.0040 C   0  0  0  0  0  0  0  0  0  0  0  0
   38.3630   29.6250   46.4130 H   0  0  0  0  0  0  0  0  0  0  0  0
   39.8010   30.6950   44.7840 H   0  0  0  0  0  0  0  0  0  0  0  0
   40.6460   32.9400   45.1250 H   0  0  0  0  0  0  0  0  0  0  0  0
   40.0320   34.1500   47.1600 H   0  0  0  0  0  0  0  0  0  0  0  0
  1  4  1  0  0  0  0
  1 28  1  0  0  0  0
  2  1  1  0  0  0  0
  3  1  1  0  0  0  0
  4  5  1  0  0  0  0
  5 10  1  0  0  0  0
  5  6  2  0  0  0  0
  6 11  1  0  0  0  0
  7  6  1  0  0  0  0
  8  7  2  0  0  0  0
  9  4  2  0  0  0  0
  9  8  1  0  0  0  0
 12  8  1  0  0  0  0
 13 12  1  0  0  0  0
 14 24  1  0  0  0  0
 14 13  2  0  0  0  0
 15 14  1  0  0  0  0
 16 15  1  0  0  0  0
 17 16  2  0  0  0  0
 18 16  1  0  0  0  0
 19 18  1  0  0  0  0
 20 18  1  6  0  0  0
 20 15  1  0  0  0  0
 20 21  1  0  0  0  0
 21 22  1  0  0  0  0
 22 13  1  0  0  0  0
 22 23  1  0  0  0  0
 24 26  1  0  0  0  0
 25 24  2  0  0  0  0
 26 27  1  0  0  0  0
 28 31  1  0  0  0  0
 28 30  1  0  0  0  0
 29 28  1  0  0  0  0
 31 36  1  0  0  0  0
 32 38  1  0  0  0  0
 33 39  1  0  0  0  0
 33 32  2  0  0  0  0
 34 33  1  0  0  0  0
 35 34  2  0  0  0  0
 35 36  1  0  0  0  0
 36 37  2  0  0  0  0
 37 32  1  0  0  0  0
 41 40  1  0  0  0  0
 42 41  1  0  0  0  0
 42 34  1  0  0  0  0
 43 42  2  0  0  0  0
 44 45  2  0  0  0  0
 44 43  1  0  0  0  0
 45 46  1  0  0  0  0
 46 50  1  0  0  0  0
 46 41  2  0  0  0  0
 47 43  1  0  0  0  0
 48 44  1  0  0  0  0
 49 45  1  0  0  0  0
M  END
>  <minimizedAffinity>
-7.15881872

>  <minimizedRMSD>
2.15679479

$$$$
