
 OpenBabel03272501083D

 47 51  0  0  1  0  0  0  0  0999 V2000
   40.9800   31.4710   44.9410 Cl  0  0  0  0  0  0  0  0  0  0  0  0
   39.3770   30.8590   44.6180 C   0  0  0  0  0  0  0  0  0  0  0  0
   38.3960   31.4020   45.4360 C   0  0  0  0  0  0  0  0  0  0  0  0
   37.1120   30.9460   45.1970 C   0  0  0  0  0  0  0  0  0  0  0  0
   36.8200   30.0130   44.2120 C   0  0  0  0  0  0  0  0  0  0  0  0
   37.8460   29.5110   43.4320 C   0  0  0  0  0  0  0  0  0  0  0  0
   39.1220   29.9370   43.6390 C   0  0  0  0  0  0  0  0  0  0  0  0
   36.2210   31.2480   45.7250 H   0  0  0  0  0  0  0  0  0  0  0  0
   35.8320   29.6340   43.9950 H   0  0  0  0  0  0  0  0  0  0  0  0
   37.6460   28.7810   42.6700 H   0  0  0  0  0  0  0  0  0  0  0  0
   38.4190   32.3030   46.4440 O   0  0  0  0  0  0  0  0  0  0  0  0
   39.0140   32.4310   47.6510 C   0  0  2  0  0  0  0  0  0  0  0  0
   37.9750   32.6200   48.8060 C   0  0  2  0  0  0  0  0  0  0  0  0
   38.7800   33.3440   49.7770 C   0  0  0  0  0  0  0  0  0  0  0  0
   39.6270   34.2030   49.0810 O   0  0  0  0  0  0  0  0  0  0  0  0
   39.6190   33.8570   47.7650 C   0  0  0  0  0  0  0  0  0  0  0  0
   39.7840   31.7120   47.9100 H   0  0  0  0  0  0  0  0  0  0  0  0
   37.1860   33.2720   48.3700 H   0  0  0  0  0  0  0  0  0  0  0  0
   38.1020   34.0160   50.3820 H   0  0  0  0  0  0  0  0  0  0  0  0
   39.3230   32.7580   50.5290 H   0  0  0  0  0  0  0  0  0  0  0  0
   40.6510   33.7970   47.3850 H   0  0  0  0  0  0  0  0  0  0  0  0
   39.0600   34.5640   47.1550 H   0  0  0  0  0  0  0  0  0  0  0  0
   37.3450   29.3230   50.5170 C   0  0  0  0  0  0  0  0  0  0  0  0
   37.9850   30.5470   50.1770 C   0  0  0  0  0  0  0  0  0  0  0  0
   37.3770   31.3770   49.2040 C   0  0  0  0  0  0  0  0  0  0  0  0
   36.1860   30.9570   48.6280 N   0  0  0  0  0  0  0  0  0  0  0  0
   35.6220   29.7920   48.9830 C   0  0  0  0  0  0  0  0  0  0  0  0
   36.1860   28.9730   49.9170 N   0  0  0  0  0  0  0  0  0  0  0  0
   37.7660   28.6550   51.2510 H   0  0  0  0  0  0  0  0  0  0  0  0
   38.8930   30.8010   50.6590 H   0  0  0  0  0  0  0  0  0  0  0  0
   34.6990   29.6040   48.4450 H   0  0  0  0  0  0  0  0  0  0  0  0
   40.3400   29.5030   42.9090 C   0  0  0  0  0  2  0  0  0  0  0  0
   40.2950   29.5880   41.4640 C   0  0  0  0  0  0  0  0  0  0  0  0
   40.0880   28.5060   40.7680 C   0  0  0  0  0  0  0  0  0  0  0  0
   40.0620   28.5680   39.3300 N   0  0  0  0  0  0  0  0  0  0  0  0
   39.3830   28.2650   38.0930 C   0  0  0  0  0  0  0  0  0  0  0  0
   38.6200   27.3050   37.7380 O   0  0  0  0  0  0  0  0  0  0  0  0
   39.9860   29.5180   37.5560 C   0  0  0  0  0  3  0  0  0  0  0  0
   39.4570   30.4380   37.8570 H   0  0  0  0  0  0  0  0  0  0  0  0
   41.1070   29.1740   38.5070 C   0  0  1  0  0  3  0  0  0  0  0  0
   41.7140   30.6210   39.4030 S   0  0  0  0  0  0  0  0  0  0  0  0
   40.5000   30.8740   40.7610 C   0  0  0  0  0  3  0  0  0  0  0  0
   40.9770   31.6000   41.4410 H   0  0  0  0  0  0  0  0  0  0  0  0
   39.8810   27.1380   41.3030 C   0  0  0  0  0  0  0  0  0  0  0  0
   39.7980   26.0150   40.7660 O   0  0  0  0  0  0  0  0  0  0  0  0
   39.6890   26.3570   42.4270 O   0  0  0  0  0  0  0  0  0  0  0  0
   38.8310   26.3940   42.9980 H   0  0  0  0  0  0  0  0  0  0  0  0
  2  1  1  0  0  0  0
  2  3  1  0  0  0  0
  3 11  1  0  0  0  0
  4  3  2  0  0  0  0
  4  8  1  0  0  0  0
  5  4  1  0  0  0  0
  6  7  1  0  0  0  0
  6  5  2  0  0  0  0
  7  2  2  0  0  0  0
  9  5  1  0  0  0  0
 10  6  1  0  0  0  0
 11 12  1  0  0  0  0
 12 16  1  0  0  0  0
 12 17  1  1  0  0  0
 12 13  1  0  0  0  0
 13 18  1  6  0  0  0
 13 25  1  0  0  0  0
 13 14  1  0  0  0  0
 14 19  1  0  0  0  0
 14 20  1  0  0  0  0
 15 14  1  0  0  0  0
 16 15  1  0  0  0  0
 21 16  1  0  0  0  0
 22 16  1  0  0  0  0
 23 29  1  0  0  0  0
 24 23  1  0  0  0  0
 24 30  1  0  0  0  0
 25 24  2  0  0  0  0
 26 27  2  0  0  0  0
 26 25  1  0  0  0  0
 27 28  1  0  0  0  0
 28 23  2  0  0  0  0
 31 27  1  0  0  0  0
 32  7  1  0  0  0  0
 33 32  1  0  0  0  0
 34 44  1  0  0  0  0
 34 33  2  0  0  0  0
 35 34  1  0  0  0  0
 36 35  1  0  0  0  0
 37 36  2  0  0  0  0
 38 39  1  0  0  0  0
 38 36  1  0  0  0  0
 40 38  1  6  0  0  0
 40 35  1  0  0  0  0
 40 41  1  0  0  0  0
 41 42  1  0  0  0  0
 42 43  1  0  0  0  0
 42 33  1  0  0  0  0
 44 46  1  0  0  0  0
 45 44  2  0  0  0  0
 46 47  1  0  0  0  0
M  END
>  <minimizedAffinity>
-6.22106647

>  <minimizedRMSD>
0.81807512

$$$$
