
 OpenBabel03262521003D

 42 45  0  0  1  0  0  0  0  0999 V2000
   35.8130   25.9010   31.3650 C   0  0  0  0  0  0  0  0  0  0  0  0
   35.3470   24.6190   31.0830 C   0  0  0  0  0  0  0  0  0  0  0  0
   36.0640   23.5340   31.5080 C   0  0  0  0  0  0  0  0  0  0  0  0
   37.2360   23.7660   32.2080 N   0  0  0  0  0  0  0  0  0  0  0  0
   37.6380   25.0090   32.4520 C   0  0  0  0  0  0  0  0  0  0  0  0
   36.9360   26.0790   32.0370 N   0  0  0  0  0  0  0  0  0  0  0  0
   35.1870   26.7010   30.9940 H   0  0  0  0  0  0  0  0  0  0  0  0
   34.4560   24.3380   30.5500 H   0  0  0  0  0  0  0  0  0  0  0  0
   35.5990   21.8420   31.2250 S   0  0  0  0  0  0  0  0  0  0  0  0
   36.1400   19.9380   33.0720 N   0  0  0  0  0  0  0  0  0  0  0  0
   36.7920   20.7260   32.0750 C   0  0  1  0  0  0  0  0  0  0  0  0
   37.3710   19.8530   30.9870 C   0  0  0  0  0  0  0  0  0  0  0  0
   36.2680   19.0860   30.4140 N   0  0  0  0  0  0  0  0  0  0  0  0
   35.8800   18.1410   31.4840 C   0  0  0  0  0  0  0  0  0  0  0  0
   35.2060   18.9940   32.5510 C   0  0  2  0  0  0  0  0  0  0  0  0
   36.7880   19.5700   33.7650 H   0  0  0  0  0  0  0  0  0  0  0  0
   37.5840   21.3320   32.5650 H   0  0  0  0  0  0  0  0  0  0  0  0
   37.7770   20.5370   30.2050 H   0  0  0  0  0  0  0  0  0  0  0  0
   38.1750   19.1790   31.3410 H   0  0  0  0  0  0  0  0  0  0  0  0
   36.6900   18.5360   29.6120 H   0  0  0  0  0  0  0  0  0  0  0  0
   35.1440   17.4560   31.0330 H   0  0  0  0  0  0  0  0  0  0  0  0
   36.7700   17.6340   31.8760 H   0  0  0  0  0  0  0  0  0  0  0  0
   34.9260   18.2990   33.3650 H   0  0  0  0  0  0  0  0  0  0  0  0
   34.0280   19.6080   31.9980 N   0  0  0  0  0  0  0  0  0  0  0  0
   34.0790   19.7350   30.9640 H   0  0  0  0  0  0  0  0  0  0  0  0
   33.6680   20.4040   32.5340 H   0  0  0  0  0  0  0  0  0  0  0  0
   38.9230   25.2070   33.2200 C   0  0  0  0  0  2  0  0  0  0  0  0
   38.7140   24.5950   34.5280 C   0  0  0  0  0  0  0  0  0  0  0  0
   38.1440   25.2070   35.5620 C   0  0  0  0  0  0  0  0  0  0  0  0
   37.9860   24.4990   36.7870 N   0  0  0  0  0  0  0  0  0  0  0  0
   38.1010   24.4240   38.2030 C   0  0  0  0  0  0  0  0  0  0  0  0
   37.9510   25.2970   39.0960 O   0  0  0  0  0  0  0  0  0  0  0  0
   38.4360   22.9680   37.9860 C   0  0  0  0  0  3  0  0  0  0  0  0
   38.1060   22.3190   38.8210 H   0  0  0  0  0  0  0  0  0  0  0  0
   37.4540   23.1450   36.8500 C   0  0  2  0  0  3  0  0  0  0  0  0
   37.9720   22.1830   35.4080 S   0  0  0  0  0  0  0  0  0  0  0  0
   39.2330   23.2070   34.5650 C   0  0  0  0  0  3  0  0  0  0  0  0
   40.1630   23.1330   35.1700 H   0  0  0  0  0  0  0  0  0  0  0  0
   37.6540   26.6040   35.4900 C   0  0  0  0  0  0  0  0  0  0  0  0
   36.6690   27.1980   35.0190 O   0  0  0  0  0  0  0  0  0  0  0  0
   38.2980   27.6960   36.0140 O   0  0  0  0  0  0  0  0  0  0  0  0
   38.5820   28.4940   35.4670 H   0  0  0  0  0  0  0  0  0  0  0  0
  1  6  1  0  0  0  0
  2  1  2  0  0  0  0
  2  3  1  0  0  0  0
  3  4  2  0  0  0  0
  4  5  1  0  0  0  0
  5 27  1  0  0  0  0
  6  5  2  0  0  0  0
  7  1  1  0  0  0  0
  8  2  1  0  0  0  0
  9  3  1  0  0  0  0
  9 11  1  0  0  0  0
 10 16  1  0  0  0  0
 11 17  1  1  0  0  0
 11 10  1  0  0  0  0
 12 19  1  0  0  0  0
 12 11  1  0  0  0  0
 13 12  1  0  0  0  0
 13 14  1  0  0  0  0
 14 22  1  0  0  0  0
 14 15  1  0  0  0  0
 15 10  1  0  0  0  0
 15 23  1  1  0  0  0
 18 12  1  0  0  0  0
 20 13  1  0  0  0  0
 21 14  1  0  0  0  0
 24 26  1  0  0  0  0
 24 15  1  0  0  0  0
 25 24  1  0  0  0  0
 27 28  1  0  0  0  0
 28 37  1  0  0  0  0
 28 29  2  0  0  0  0
 29 30  1  0  0  0  0
 30 35  1  0  0  0  0
 30 31  1  0  0  0  0
 31 32  2  0  0  0  0
 33 31  1  0  0  0  0
 33 34  1  0  0  0  0
 35 36  1  6  0  0  0
 35 33  1  0  0  0  0
 37 38  1  0  0  0  0
 37 36  1  0  0  0  0
 39 29  1  0  0  0  0
 39 41  1  0  0  0  0
 40 39  2  0  0  0  0
 42 41  1  0  0  0  0
M  END
>  <minimizedAffinity>
-6.33125019

$$$$

 OpenBabel03262521003D

 42 45  0  0  1  0  0  0  0  0999 V2000
   35.8960   20.8990   32.6600 C   0  0  0  0  0  0  0  0  0  0  0  0
   35.4250   22.0380   32.0090 C   0  0  0  0  0  0  0  0  0  0  0  0
   36.2460   23.1260   31.8800 C   0  0  0  0  0  0  0  0  0  0  0  0
   37.5230   23.0410   32.4100 N   0  0  0  0  0  0  0  0  0  0  0  0
   37.9240   21.9320   33.0210 C   0  0  0  0  0  0  0  0  0  0  0  0
   37.1220   20.8590   33.1500 N   0  0  0  0  0  0  0  0  0  0  0  0
   35.1850   20.0870   32.7170 H   0  0  0  0  0  0  0  0  0  0  0  0
   34.4580   22.1990   31.5680 H   0  0  0  0  0  0  0  0  0  0  0  0
   35.7890   24.6450   31.0780 S   0  0  0  0  0  0  0  0  0  0  0  0
   37.7870   26.1110   32.1670 N   0  0  0  0  0  0  0  0  0  0  0  0
   36.3620   26.0720   32.0930 C   0  0  1  0  0  0  0  0  0  0  0  0
   35.8210   27.3000   31.4000 C   0  0  0  0  0  0  0  0  0  0  0  0
   36.4170   27.3440   30.0680 N   0  0  0  0  0  0  0  0  0  0  0  0
   37.8440   27.6510   30.3110 C   0  0  0  0  0  0  0  0  0  0  0  0
   38.4300   26.3850   30.9230 C   0  0  2  0  0  0  0  0  0  0  0  0
   38.1220   26.6570   32.9580 H   0  0  0  0  0  0  0  0  0  0  0  0
   35.9550   25.9820   33.1230 H   0  0  0  0  0  0  0  0  0  0  0  0
   34.7200   27.1540   31.2970 H   0  0  0  0  0  0  0  0  0  0  0  0
   36.0180   28.2410   31.9490 H   0  0  0  0  0  0  0  0  0  0  0  0
   35.9700   28.1730   29.5830 H   0  0  0  0  0  0  0  0  0  0  0  0
   38.2900   27.8280   29.3200 H   0  0  0  0  0  0  0  0  0  0  0  0
   37.9310   28.5060   30.9930 H   0  0  0  0  0  0  0  0  0  0  0  0
   39.4940   26.6090   31.1250 H   0  0  0  0  0  0  0  0  0  0  0  0
   38.3220   25.3040   29.9800 N   0  0  0  0  0  0  0  0  0  0  0  0
   37.5380   25.4270   29.3040 H   0  0  0  0  0  0  0  0  0  0  0  0
   38.4260   24.3690   30.3860 H   0  0  0  0  0  0  0  0  0  0  0  0
   39.3260   21.8910   33.5800 C   0  0  0  0  0  2  0  0  0  0  0  0
   39.7170   23.2790   33.7990 C   0  0  0  0  0  0  0  0  0  0  0  0
   39.4050   23.9880   34.8800 C   0  0  0  0  0  0  0  0  0  0  0  0
   39.8550   25.3340   34.9820 N   0  0  0  0  0  0  0  0  0  0  0  0
   39.6140   26.7080   35.2640 C   0  0  0  0  0  0  0  0  0  0  0  0
   38.8690   27.2640   36.1110 O   0  0  0  0  0  0  0  0  0  0  0  0
   40.5960   26.9920   34.1530 C   0  0  0  0  0  3  0  0  0  0  0  0
   41.1670   27.9290   34.3090 H   0  0  0  0  0  0  0  0  0  0  0  0
   41.2280   25.7290   34.6950 C   0  0  2  0  0  3  0  0  0  0  0  0
   41.9140   24.7350   33.3470 S   0  0  0  0  0  0  0  0  0  0  0  0
   40.4950   23.8080   32.6530 C   0  0  0  0  0  3  0  0  0  0  0  0
   39.9020   24.5330   32.0540 H   0  0  0  0  0  0  0  0  0  0  0  0
   38.6080   23.4270   35.9960 C   0  0  0  0  0  0  0  0  0  0  0  0
   37.4880   23.6190   36.5000 O   0  0  0  0  0  0  0  0  0  0  0  0
   39.0170   22.4190   36.8320 O   0  0  0  0  0  0  0  0  0  0  0  0
   39.0800   22.5130   37.8340 H   0  0  0  0  0  0  0  0  0  0  0  0
  1  7  1  0  0  0  0
  1  6  1  0  0  0  0
  2  1  2  0  0  0  0
  3  2  1  0  0  0  0
  3  4  2  0  0  0  0
  4  5  1  0  0  0  0
  5  6  2  0  0  0  0
  5 27  1  0  0  0  0
  8  2  1  0  0  0  0
  9  3  1  0  0  0  0
  9 11  1  0  0  0  0
 10 16  1  0  0  0  0
 11 10  1  0  0  0  0
 11 17  1  1  0  0  0
 12 19  1  0  0  0  0
 12 11  1  0  0  0  0
 13 14  1  0  0  0  0
 13 12  1  0  0  0  0
 14 15  1  0  0  0  0
 14 22  1  0  0  0  0
 15 23  1  1  0  0  0
 15 10  1  0  0  0  0
 18 12  1  0  0  0  0
 20 13  1  0  0  0  0
 21 14  1  0  0  0  0
 24 26  1  0  0  0  0
 24 15  1  0  0  0  0
 25 24  1  0  0  0  0
 27 28  1  0  0  0  0
 28 29  2  0  0  0  0
 29 30  1  0  0  0  0
 29 39  1  0  0  0  0
 30 31  1  0  0  0  0
 31 32  2  0  0  0  0
 33 34  1  0  0  0  0
 33 35  1  0  0  0  0
 33 31  1  0  0  0  0
 35 36  1  6  0  0  0
 35 30  1  0  0  0  0
 37 36  1  0  0  0  0
 37 28  1  0  0  0  0
 38 37  1  0  0  0  0
 39 40  2  0  0  0  0
 39 41  1  0  0  0  0
 41 42  1  0  0  0  0
M  END
>  <minimizedAffinity>
-5.93043041

$$$$

 OpenBabel03262521003D

 42 45  0  0  1  0  0  0  0  0999 V2000
   37.0430   27.6950   32.3340 C   0  0  0  0  0  0  0  0  0  0  0  0
   35.8960   28.4320   32.6200 C   0  0  0  0  0  0  0  0  0  0  0  0
   35.6500   28.8220   33.9080 C   0  0  0  0  0  0  0  0  0  0  0  0
   36.5670   28.4580   34.8810 N   0  0  0  0  0  0  0  0  0  0  0  0
   37.6460   27.7550   34.5570 C   0  0  0  0  0  0  0  0  0  0  0  0
   37.8930   27.3690   33.2910 N   0  0  0  0  0  0  0  0  0  0  0  0
   37.1610   27.4290   31.2920 H   0  0  0  0  0  0  0  0  0  0  0  0
   35.1310   28.7600   31.9390 H   0  0  0  0  0  0  0  0  0  0  0  0
   34.2350   29.7630   34.4260 S   0  0  0  0  0  0  0  0  0  0  0  0
   33.5670   32.3540   34.8360 N   0  0  0  0  0  0  0  0  0  0  0  0
   34.5830   31.5600   34.2220 C   0  0  1  0  0  0  0  0  0  0  0  0
   35.9220   31.7870   34.8820 C   0  0  0  0  0  0  0  0  0  0  0  0
   35.7720   31.4500   36.2940 N   0  0  0  0  0  0  0  0  0  0  0  0
   34.9020   32.5150   36.8390 C   0  0  0  0  0  0  0  0  0  0  0  0
   33.5210   32.2450   36.2580 C   0  0  2  0  0  0  0  0  0  0  0  0
   33.5420   33.3040   34.4720 H   0  0  0  0  0  0  0  0  0  0  0  0
   34.6230   31.8100   33.1400 H   0  0  0  0  0  0  0  0  0  0  0  0
   36.6380   31.0700   34.4150 H   0  0  0  0  0  0  0  0  0  0  0  0
   36.3040   32.8190   34.7630 H   0  0  0  0  0  0  0  0  0  0  0  0
   36.7380   31.5530   36.7160 H   0  0  0  0  0  0  0  0  0  0  0  0
   34.8840   32.3670   37.9300 H   0  0  0  0  0  0  0  0  0  0  0  0
   35.2810   33.4990   36.5340 H   0  0  0  0  0  0  0  0  0  0  0  0
   32.8640   33.0470   36.6450 H   0  0  0  0  0  0  0  0  0  0  0  0
   33.0540   30.9620   36.7120 N   0  0  0  0  0  0  0  0  0  0  0  0
   33.8290   30.3050   36.9480 H   0  0  0  0  0  0  0  0  0  0  0  0
   32.2790   30.5700   36.1680 H   0  0  0  0  0  0  0  0  0  0  0  0
   38.6150   27.3850   35.6550 C   0  0  0  0  0  2  0  0  0  0  0  0
   38.8850   25.9600   35.4980 C   0  0  0  0  0  0  0  0  0  0  0  0
   40.0260   25.4570   35.0340 C   0  0  0  0  0  0  0  0  0  0  0  0
   40.1720   24.0450   34.9360 N   0  0  0  0  0  0  0  0  0  0  0  0
   40.5510   22.8810   34.2100 C   0  0  0  0  0  0  0  0  0  0  0  0
   41.4820   22.6820   33.3880 O   0  0  0  0  0  0  0  0  0  0  0  0
   39.3900   22.2090   34.9010 C   0  0  0  0  0  3  0  0  0  0  0  0
   39.5580   21.1280   35.0760 H   0  0  0  0  0  0  0  0  0  0  0  0
   39.8090   23.1390   36.0180 C   0  0  2  0  0  3  0  0  0  0  0  0
   38.3590   23.7530   36.9100 S   0  0  0  0  0  0  0  0  0  0  0  0
   37.7180   25.1410   35.9040 C   0  0  0  0  0  3  0  0  0  0  0  0
   37.2070   24.6910   35.0240 H   0  0  0  0  0  0  0  0  0  0  0  0
   41.1630   26.3120   34.6210 C   0  0  0  0  0  0  0  0  0  0  0  0
   41.3500   27.2600   33.8390 O   0  0  0  0  0  0  0  0  0  0  0  0
   42.4450   26.2100   35.0990 O   0  0  0  0  0  0  0  0  0  0  0  0
   43.2490   26.0450   34.5140 H   0  0  0  0  0  0  0  0  0  0  0  0
  1  2  2  0  0  0  0
  1  6  1  0  0  0  0
  2  3  1  0  0  0  0
  3  9  1  0  0  0  0
  3  4  2  0  0  0  0
  5  4  1  0  0  0  0
  5 27  1  0  0  0  0
  6  5  2  0  0  0  0
  7  1  1  0  0  0  0
  8  2  1  0  0  0  0
 10 15  1  0  0  0  0
 11 17  1  6  0  0  0
 11  9  1  0  0  0  0
 11 10  1  0  0  0  0
 11 12  1  0  0  0  0
 12 13  1  0  0  0  0
 13 20  1  0  0  0  0
 13 14  1  0  0  0  0
 14 21  1  0  0  0  0
 15 23  1  1  0  0  0
 15 24  1  0  0  0  0
 15 14  1  0  0  0  0
 16 10  1  0  0  0  0
 18 12  1  0  0  0  0
 19 12  1  0  0  0  0
 22 14  1  0  0  0  0
 24 25  1  0  0  0  0
 26 24  1  0  0  0  0
 28 27  1  0  0  0  0
 28 37  1  0  0  0  0
 29 28  2  0  0  0  0
 30 29  1  0  0  0  0
 30 35  1  0  0  0  0
 31 33  1  0  0  0  0
 31 30  1  0  0  0  0
 32 31  2  0  0  0  0
 33 34  1  0  0  0  0
 35 33  1  6  0  0  0
 35 36  1  0  0  0  0
 37 36  1  0  0  0  0
 38 37  1  0  0  0  0
 39 29  1  0  0  0  0
 39 41  1  0  0  0  0
 40 39  2  0  0  0  0
 42 41  1  0  0  0  0
M  END
>  <minimizedAffinity>
-5.59111834

$$$$

 OpenBabel03262521003D

 42 45  0  0  1  0  0  0  0  0999 V2000
   36.9590   27.4790   32.2140 C   0  0  0  0  0  0  0  0  0  0  0  0
   35.8120   28.2440   32.4210 C   0  0  0  0  0  0  0  0  0  0  0  0
   35.5530   28.7430   33.6690 C   0  0  0  0  0  0  0  0  0  0  0  0
   36.4550   28.4580   34.6800 N   0  0  0  0  0  0  0  0  0  0  0  0
   37.5340   27.7250   34.4320 C   0  0  0  0  0  0  0  0  0  0  0  0
   37.7940   27.2320   33.2070 N   0  0  0  0  0  0  0  0  0  0  0  0
   37.0880   27.1250   31.2010 H   0  0  0  0  0  0  0  0  0  0  0  0
   35.0580   28.5170   31.7050 H   0  0  0  0  0  0  0  0  0  0  0  0
   34.1360   29.7310   34.0860 S   0  0  0  0  0  0  0  0  0  0  0  0
   31.9670   28.7060   32.8330 N   0  0  0  0  0  0  0  0  0  0  0  0
   32.9500   29.7310   32.6770 C   0  0  1  0  0  0  0  0  0  0  0  0
   32.3120   31.1000   32.6890 C   0  0  0  0  0  0  0  0  0  0  0  0
   31.6040   31.2380   33.9570 N   0  0  0  0  0  0  0  0  0  0  0  0
   30.4670   30.2980   33.8510 C   0  0  0  0  0  0  0  0  0  0  0  0
   31.0830   28.9080   33.9350 C   0  0  2  0  0  0  0  0  0  0  0  0
   31.5160   28.4620   31.9530 H   0  0  0  0  0  0  0  0  0  0  0  0
   33.5000   29.5540   31.7280 H   0  0  0  0  0  0  0  0  0  0  0  0
   33.1440   31.8440   32.6580 H   0  0  0  0  0  0  0  0  0  0  0  0
   31.6280   31.2770   31.8360 H   0  0  0  0  0  0  0  0  0  0  0  0
   31.2260   32.2280   33.9670 H   0  0  0  0  0  0  0  0  0  0  0  0
   29.8360   30.4810   34.7340 H   0  0  0  0  0  0  0  0  0  0  0  0
   29.9450   30.4500   32.8980 H   0  0  0  0  0  0  0  0  0  0  0  0
   30.2420   28.1950   33.8380 H   0  0  0  0  0  0  0  0  0  0  0  0
   31.7250   28.7460   35.2120 N   0  0  0  0  0  0  0  0  0  0  0  0
   32.0340   29.6490   35.6320 H   0  0  0  0  0  0  0  0  0  0  0  0
   32.3940   27.9720   35.2600 H   0  0  0  0  0  0  0  0  0  0  0  0
   38.4860   27.4450   35.5700 C   0  0  0  0  0  2  0  0  0  0  0  0
   38.8070   26.0240   35.4930 C   0  0  0  0  0  0  0  0  0  0  0  0
   39.9620   25.5360   35.0510 C   0  0  0  0  0  0  0  0  0  0  0  0
   40.1600   24.1270   35.0340 N   0  0  0  0  0  0  0  0  0  0  0  0
   40.5760   22.9370   34.3730 C   0  0  0  0  0  0  0  0  0  0  0  0
   41.5090   22.7250   33.5560 O   0  0  0  0  0  0  0  0  0  0  0  0
   39.4440   22.2650   35.1110 C   0  0  0  0  0  3  0  0  0  0  0  0
   39.6520   21.2030   35.3470 H   0  0  0  0  0  0  0  0  0  0  0  0
   39.8360   23.2720   36.1680 C   0  0  2  0  0  3  0  0  0  0  0  0
   38.3690   23.8850   37.0350 S   0  0  0  0  0  0  0  0  0  0  0  0
   37.6730   25.1890   35.9550 C   0  0  0  0  0  3  0  0  0  0  0  0
   37.1740   24.6700   35.1080 H   0  0  0  0  0  0  0  0  0  0  0  0
   41.0650   26.4060   34.5800 C   0  0  0  0  0  0  0  0  0  0  0  0
   41.2190   27.2980   33.7280 O   0  0  0  0  0  0  0  0  0  0  0  0
   42.3460   26.3980   35.0720 O   0  0  0  0  0  0  0  0  0  0  0  0
   43.1620   26.2230   34.5060 H   0  0  0  0  0  0  0  0  0  0  0  0
  1  2  2  0  0  0  0
  1  6  1  0  0  0  0
  2  3  1  0  0  0  0
  3  9  1  0  0  0  0
  3  4  2  0  0  0  0
  5  4  1  0  0  0  0
  5 27  1  0  0  0  0
  6  5  2  0  0  0  0
  7  1  1  0  0  0  0
  8  2  1  0  0  0  0
 10 15  1  0  0  0  0
 11 17  1  6  0  0  0
 11 12  1  0  0  0  0
 11 10  1  0  0  0  0
 11  9  1  0  0  0  0
 12 13  1  0  0  0  0
 13 20  1  0  0  0  0
 14 15  1  0  0  0  0
 14 13  1  0  0  0  0
 14 21  1  0  0  0  0
 15 23  1  6  0  0  0
 15 24  1  0  0  0  0
 16 10  1  0  0  0  0
 18 12  1  0  0  0  0
 19 12  1  0  0  0  0
 22 14  1  0  0  0  0
 24 26  1  0  0  0  0
 24 25  1  0  0  0  0
 28 27  1  0  0  0  0
 28 37  1  0  0  0  0
 29 28  2  0  0  0  0
 30 29  1  0  0  0  0
 30 35  1  0  0  0  0
 31 30  1  0  0  0  0
 31 33  1  0  0  0  0
 32 31  2  0  0  0  0
 33 34  1  0  0  0  0
 35 33  1  6  0  0  0
 35 36  1  0  0  0  0
 37 36  1  0  0  0  0
 38 37  1  0  0  0  0
 39 29  1  0  0  0  0
 39 41  1  0  0  0  0
 40 39  2  0  0  0  0
 42 41  1  0  0  0  0
M  END
>  <minimizedAffinity>
-5.58000469

$$$$

 OpenBabel03262521003D

 42 45  0  0  1  0  0  0  0  0999 V2000
   38.2430   26.5950   35.8740 C   0  0  0  0  0  0  0  0  0  0  0  0
   37.4620   27.4830   35.1370 C   0  0  0  0  0  0  0  0  0  0  0  0
   37.2650   27.2580   33.8020 C   0  0  0  0  0  0  0  0  0  0  0  0
   37.8620   26.1410   33.2390 N   0  0  0  0  0  0  0  0  0  0  0  0
   38.5970   25.3250   33.9840 C   0  0  0  0  0  0  0  0  0  0  0  0
   38.7930   25.5410   35.2980 N   0  0  0  0  0  0  0  0  0  0  0  0
   38.3470   26.8470   36.9200 H   0  0  0  0  0  0  0  0  0  0  0  0
   36.9620   28.3700   35.4820 H   0  0  0  0  0  0  0  0  0  0  0  0
   36.2970   28.2980   32.7340 S   0  0  0  0  0  0  0  0  0  0  0  0
   35.7790   30.9450   32.9610 N   0  0  0  0  0  0  0  0  0  0  0  0
   35.6450   29.7270   33.6950 C   0  0  1  0  0  0  0  0  0  0  0  0
   34.1920   29.4070   33.9540 C   0  0  0  0  0  0  0  0  0  0  0  0
   33.5300   29.3150   32.6570 N   0  0  0  0  0  0  0  0  0  0  0  0
   33.5210   30.7040   32.1460 C   0  0  0  0  0  0  0  0  0  0  0  0
   34.9690   31.0110   31.7880 C   0  0  2  0  0  0  0  0  0  0  0  0
   35.7440   31.7670   33.5600 H   0  0  0  0  0  0  0  0  0  0  0  0
   36.2090   29.8240   34.6480 H   0  0  0  0  0  0  0  0  0  0  0  0
   34.1640   28.4050   34.4450 H   0  0  0  0  0  0  0  0  0  0  0  0
   33.6840   30.1480   34.6020 H   0  0  0  0  0  0  0  0  0  0  0  0
   32.5330   29.0240   32.8650 H   0  0  0  0  0  0  0  0  0  0  0  0
   32.9060   30.6890   31.2330 H   0  0  0  0  0  0  0  0  0  0  0  0
   33.1440   31.3830   32.9210 H   0  0  0  0  0  0  0  0  0  0  0  0
   34.9770   32.0550   31.4210 H   0  0  0  0  0  0  0  0  0  0  0  0
   35.4040   30.1180   30.7480 N   0  0  0  0  0  0  0  0  0  0  0  0
   34.8830   29.2150   30.7400 H   0  0  0  0  0  0  0  0  0  0  0  0
   36.4210   30.0550   30.6350 H   0  0  0  0  0  0  0  0  0  0  0  0
   39.2240   24.1210   33.3210 C   0  0  0  0  0  2  0  0  0  0  0  0
   38.1190   23.2960   32.8480 C   0  0  0  0  0  0  0  0  0  0  0  0
   37.5050   22.3690   33.5780 C   0  0  0  0  0  0  0  0  0  0  0  0
   36.4300   21.6330   33.0060 N   0  0  0  0  0  0  0  0  0  0  0  0
   35.7670   20.4020   32.7400 C   0  0  0  0  0  0  0  0  0  0  0  0
   35.6530   19.3560   33.4290 O   0  0  0  0  0  0  0  0  0  0  0  0
   35.3870   21.0210   31.4180 C   0  0  0  0  0  3  0  0  0  0  0  0
   34.4130   20.6590   31.0350 H   0  0  0  0  0  0  0  0  0  0  0  0
   35.3440   22.2690   32.2710 C   0  0  2  0  0  3  0  0  0  0  0  0
   35.9500   23.6970   31.3380 S   0  0  0  0  0  0  0  0  0  0  0  0
   37.7760   23.6080   31.4400 C   0  0  0  0  0  3  0  0  0  0  0  0
   38.0960   22.7960   30.7500 H   0  0  0  0  0  0  0  0  0  0  0  0
   37.8920   22.0740   34.9780 C   0  0  0  0  0  0  0  0  0  0  0  0
   38.9410   22.0390   35.6430 O   0  0  0  0  0  0  0  0  0  0  0  0
   37.0250   21.7230   35.9810 O   0  0  0  0  0  0  0  0  0  0  0  0
   37.0940   20.8650   36.5070 H   0  0  0  0  0  0  0  0  0  0  0  0
  1  7  1  0  0  0  0
  2  8  1  0  0  0  0
  2  1  2  0  0  0  0
  3  2  1  0  0  0  0
  4  3  2  0  0  0  0
  4  5  1  0  0  0  0
  5  6  2  0  0  0  0
  6  1  1  0  0  0  0
  9 11  1  0  0  0  0
  9  3  1  0  0  0  0
 10 16  1  0  0  0  0
 10 11  1  0  0  0  0
 11 12  1  0  0  0  0
 11 17  1  1  0  0  0
 12 18  1  0  0  0  0
 12 19  1  0  0  0  0
 13 20  1  0  0  0  0
 13 12  1  0  0  0  0
 14 13  1  0  0  0  0
 14 22  1  0  0  0  0
 15 23  1  6  0  0  0
 15 14  1  0  0  0  0
 15 10  1  0  0  0  0
 21 14  1  0  0  0  0
 24 15  1  0  0  0  0
 25 24  1  0  0  0  0
 26 24  1  0  0  0  0
 27  5  1  0  0  0  0
 28 27  1  0  0  0  0
 28 29  2  0  0  0  0
 29 39  1  0  0  0  0
 30 29  1  0  0  0  0
 31 30  1  0  0  0  0
 31 32  2  0  0  0  0
 33 35  1  0  0  0  0
 33 31  1  0  0  0  0
 34 33  1  0  0  0  0
 35 36  1  6  0  0  0
 35 30  1  0  0  0  0
 36 37  1  0  0  0  0
 37 28  1  0  0  0  0
 38 37  1  0  0  0  0
 39 40  2  0  0  0  0
 39 41  1  0  0  0  0
 41 42  1  0  0  0  0
M  END
>  <minimizedAffinity>
-5.53167582

$$$$

 OpenBabel03262521003D

 42 45  0  0  1  0  0  0  0  0999 V2000
   36.1300   31.2740   31.4320 C   0  0  0  0  0  0  0  0  0  0  0  0
   36.6850   30.2170   30.7150 C   0  0  0  0  0  0  0  0  0  0  0  0
   36.7800   28.9830   31.3010 C   0  0  0  0  0  0  0  0  0  0  0  0
   36.3140   28.8450   32.5980 N   0  0  0  0  0  0  0  0  0  0  0  0
   35.7920   29.8840   33.2390 C   0  0  0  0  0  0  0  0  0  0  0  0
   35.6960   31.0990   32.6680 N   0  0  0  0  0  0  0  0  0  0  0  0
   36.0910   32.2120   30.8960 H   0  0  0  0  0  0  0  0  0  0  0  0
   37.0710   30.2250   29.7120 H   0  0  0  0  0  0  0  0  0  0  0  0
   37.4620   27.5430   30.5150 S   0  0  0  0  0  0  0  0  0  0  0  0
   36.8000   25.7310   32.4150 N   0  0  0  0  0  0  0  0  0  0  0  0
   37.9490   26.3150   31.7990 C   0  0  1  0  0  0  0  0  0  0  0  0
   38.7610   25.2710   31.0690 C   0  0  0  0  0  0  0  0  0  0  0  0
   37.8860   24.6570   30.0750 N   0  0  0  0  0  0  0  0  0  0  0  0
   36.9100   23.8800   30.8710 C   0  0  0  0  0  0  0  0  0  0  0  0
   36.0190   24.9180   31.5410 C   0  0  2  0  0  0  0  0  0  0  0  0
   37.0110   25.3170   33.3200 H   0  0  0  0  0  0  0  0  0  0  0  0
   38.5550   26.8170   32.5830 H   0  0  0  0  0  0  0  0  0  0  0  0
   39.5820   25.8120   30.5400 H   0  0  0  0  0  0  0  0  0  0  0  0
   39.1970   24.5030   31.7360 H   0  0  0  0  0  0  0  0  0  0  0  0
   38.4970   23.9810   29.5350 H   0  0  0  0  0  0  0  0  0  0  0  0
   36.3230   23.2950   30.1470 H   0  0  0  0  0  0  0  0  0  0  0  0
   37.4370   23.2650   31.6110 H   0  0  0  0  0  0  0  0  0  0  0  0
   35.2950   24.3480   32.1540 H   0  0  0  0  0  0  0  0  0  0  0  0
   35.3250   25.6750   30.5320 N   0  0  0  0  0  0  0  0  0  0  0  0
   35.8340   25.7070   29.6220 H   0  0  0  0  0  0  0  0  0  0  0  0
   34.9270   26.5600   30.8590 H   0  0  0  0  0  0  0  0  0  0  0  0
   35.2980   29.6780   34.6510 C   0  0  0  0  0  2  0  0  0  0  0  0
   33.9980   30.3360   34.7270 C   0  0  0  0  0  0  0  0  0  0  0  0
   33.7620   31.4600   35.3980 C   0  0  0  0  0  0  0  0  0  0  0  0
   32.4500   32.0110   35.3880 N   0  0  0  0  0  0  0  0  0  0  0  0
   31.3330   32.5760   36.0660 C   0  0  0  0  0  0  0  0  0  0  0  0
   31.2670   33.3400   37.0620 O   0  0  0  0  0  0  0  0  0  0  0  0
   30.4890   31.8400   35.0550 C   0  0  0  0  0  3  0  0  0  0  0  0
   29.5420   32.3630   34.8180 H   0  0  0  0  0  0  0  0  0  0  0  0
   31.6690   32.1660   34.1670 C   0  0  2  0  0  3  0  0  0  0  0  0
   31.9960   30.8050   33.0190 S   0  0  0  0  0  0  0  0  0  0  0  0
   32.9670   29.5820   33.9750 C   0  0  0  0  0  3  0  0  0  0  0  0
   32.2530   29.0710   34.6580 H   0  0  0  0  0  0  0  0  0  0  0  0
   34.8180   32.1730   36.1530 C   0  0  0  0  0  0  0  0  0  0  0  0
   35.7530   32.9500   35.8950 O   0  0  0  0  0  0  0  0  0  0  0  0
   35.0030   32.1060   37.5110 O   0  0  0  0  0  0  0  0  0  0  0  0
   35.8600   31.8000   37.9450 H   0  0  0  0  0  0  0  0  0  0  0  0
  1  6  1  0  0  0  0
  2  3  1  0  0  0  0
  2  1  2  0  0  0  0
  3  4  2  0  0  0  0
  4  5  1  0  0  0  0
  5 27  1  0  0  0  0
  6  5  2  0  0  0  0
  7  1  1  0  0  0  0
  8  2  1  0  0  0  0
  9  3  1  0  0  0  0
  9 11  1  0  0  0  0
 10 16  1  0  0  0  0
 11 10  1  0  0  0  0
 11 17  1  1  0  0  0
 12 19  1  0  0  0  0
 12 11  1  0  0  0  0
 13 14  1  0  0  0  0
 13 12  1  0  0  0  0
 14 15  1  0  0  0  0
 14 22  1  0  0  0  0
 15 23  1  1  0  0  0
 15 10  1  0  0  0  0
 18 12  1  0  0  0  0
 20 13  1  0  0  0  0
 21 14  1  0  0  0  0
 24 26  1  0  0  0  0
 24 15  1  0  0  0  0
 25 24  1  0  0  0  0
 27 28  1  0  0  0  0
 28 29  2  0  0  0  0
 29 39  1  0  0  0  0
 30 29  1  0  0  0  0
 30 31  1  0  0  0  0
 31 32  2  0  0  0  0
 33 31  1  0  0  0  0
 34 33  1  0  0  0  0
 35 36  1  6  0  0  0
 35 33  1  0  0  0  0
 35 30  1  0  0  0  0
 36 37  1  0  0  0  0
 37 38  1  0  0  0  0
 37 28  1  0  0  0  0
 39 41  1  0  0  0  0
 40 39  2  0  0  0  0
 41 42  1  0  0  0  0
M  END
>  <minimizedAffinity>
-5.48632002

$$$$

 OpenBabel03262521003D

 42 45  0  0  1  0  0  0  0  0999 V2000
   35.9910   23.5320   31.2350 C   0  0  0  0  0  0  0  0  0  0  0  0
   36.4930   22.7270   32.2550 C   0  0  0  0  0  0  0  0  0  0  0  0
   37.5910   23.1400   32.9600 C   0  0  0  0  0  0  0  0  0  0  0  0
   38.1580   24.3580   32.6190 N   0  0  0  0  0  0  0  0  0  0  0  0
   37.6410   25.0890   31.6390 C   0  0  0  0  0  0  0  0  0  0  0  0
   36.5620   24.6870   30.9430 N   0  0  0  0  0  0  0  0  0  0  0  0
   35.1230   23.1320   30.7300 H   0  0  0  0  0  0  0  0  0  0  0  0
   36.1250   21.7740   32.5910 H   0  0  0  0  0  0  0  0  0  0  0  0
   38.3440   22.2250   34.2840 S   0  0  0  0  0  0  0  0  0  0  0  0
   39.3950   24.3360   35.6140 N   0  0  0  0  0  0  0  0  0  0  0  0
   39.8010   23.1540   34.9220 C   0  0  1  0  0  0  0  0  0  0  0  0
   40.5110   22.1980   35.8510 C   0  0  0  0  0  0  0  0  0  0  0  0
   39.5880   21.8820   36.9360 N   0  0  0  0  0  0  0  0  0  0  0  0
   39.4780   23.1400   37.7070 C   0  0  0  0  0  0  0  0  0  0  0  0
   38.6790   24.0870   36.8230 C   0  0  2  0  0  0  0  0  0  0  0  0
   40.1440   25.0220   35.6860 H   0  0  0  0  0  0  0  0  0  0  0  0
   40.4560   23.4470   34.0740 H   0  0  0  0  0  0  0  0  0  0  0  0
   40.7120   21.2690   35.2670 H   0  0  0  0  0  0  0  0  0  0  0  0
   41.4650   22.5950   36.2500 H   0  0  0  0  0  0  0  0  0  0  0  0
   40.0840   21.1610   37.5330 H   0  0  0  0  0  0  0  0  0  0  0  0
   38.8980   22.8940   38.6110 H   0  0  0  0  0  0  0  0  0  0  0  0
   40.4790   23.5360   37.9210 H   0  0  0  0  0  0  0  0  0  0  0  0
   38.6060   25.0390   37.3830 H   0  0  0  0  0  0  0  0  0  0  0  0
   37.3660   23.5420   36.6010 N   0  0  0  0  0  0  0  0  0  0  0  0
   37.3370   22.5020   36.6770 H   0  0  0  0  0  0  0  0  0  0  0  0
   36.8600   23.9510   35.8100 H   0  0  0  0  0  0  0  0  0  0  0  0
   38.2970   26.4080   31.3080 C   0  0  0  0  0  2  0  0  0  0  0  0
   37.3080   27.4390   31.6000 C   0  0  0  0  0  0  0  0  0  0  0  0
   36.9700   27.8320   32.8250 C   0  0  0  0  0  0  0  0  0  0  0  0
   35.9960   28.8580   32.9810 N   0  0  0  0  0  0  0  0  0  0  0  0
   34.8210   29.3750   33.5960 C   0  0  0  0  0  0  0  0  0  0  0  0
   34.3820   29.2650   34.7700 O   0  0  0  0  0  0  0  0  0  0  0  0
   34.5210   29.9880   32.2500 C   0  0  0  0  0  3  0  0  0  0  0  0
   33.9640   30.9420   32.3240 H   0  0  0  0  0  0  0  0  0  0  0  0
   36.0290   30.0980   32.2170 C   0  0  2  0  0  3  0  0  0  0  0  0
   36.6510   29.8050   30.5430 S   0  0  0  0  0  0  0  0  0  0  0  0
   36.7130   27.9840   30.3570 C   0  0  0  0  0  3  0  0  0  0  0  0
   35.6640   27.6410   30.2200 H   0  0  0  0  0  0  0  0  0  0  0  0
   37.5770   27.2480   34.0440 C   0  0  0  0  0  0  0  0  0  0  0  0
   38.6360   27.3750   34.6830 O   0  0  0  0  0  0  0  0  0  0  0  0
   36.9930   26.2950   34.8400 O   0  0  0  0  0  0  0  0  0  0  0  0
   37.4090   25.3970   35.0360 H   0  0  0  0  0  0  0  0  0  0  0  0
  1  2  1  0  0  0  0
  2  8  1  0  0  0  0
  2  3  2  0  0  0  0
  3  9  1  0  0  0  0
  4  3  1  0  0  0  0
  5  4  2  0  0  0  0
  6  1  2  0  0  0  0
  6  5  1  0  0  0  0
  7  1  1  0  0  0  0
  9 11  1  0  0  0  0
 10 16  1  0  0  0  0
 10 15  1  0  0  0  0
 11 17  1  6  0  0  0
 11 10  1  0  0  0  0
 11 12  1  0  0  0  0
 12 19  1  0  0  0  0
 12 13  1  0  0  0  0
 13 20  1  0  0  0  0
 13 14  1  0  0  0  0
 14 22  1  0  0  0  0
 14 21  1  0  0  0  0
 15 23  1  1  0  0  0
 15 14  1  0  0  0  0
 18 12  1  0  0  0  0
 24 25  1  0  0  0  0
 24 15  1  0  0  0  0
 26 24  1  0  0  0  0
 27 28  1  0  0  0  0
 27  5  1  0  0  0  0
 28 29  2  0  0  0  0
 29 30  1  0  0  0  0
 29 39  1  0  0  0  0
 30 31  1  0  0  0  0
 31 32  2  0  0  0  0
 33 34  1  0  0  0  0
 33 31  1  0  0  0  0
 35 36  1  6  0  0  0
 35 33  1  0  0  0  0
 35 30  1  0  0  0  0
 37 36  1  0  0  0  0
 37 28  1  0  0  0  0
 38 37  1  0  0  0  0
 39 40  2  0  0  0  0
 39 41  1  0  0  0  0
 41 42  1  0  0  0  0
M  END
>  <minimizedAffinity>
-5.46388149

$$$$

 OpenBabel03262521003D

 42 45  0  0  1  0  0  0  0  0999 V2000
   36.7390   27.1950   32.4160 C   0  0  0  0  0  0  0  0  0  0  0  0
   36.7220   26.0760   31.5860 C   0  0  0  0  0  0  0  0  0  0  0  0
   37.0550   24.8520   32.1000 C   0  0  0  0  0  0  0  0  0  0  0  0
   37.3980   24.7850   33.4410 N   0  0  0  0  0  0  0  0  0  0  0  0
   37.3990   25.8810   34.1900 C   0  0  0  0  0  0  0  0  0  0  0  0
   37.0720   27.0870   33.6900 N   0  0  0  0  0  0  0  0  0  0  0  0
   36.4620   28.1210   31.9310 H   0  0  0  0  0  0  0  0  0  0  0  0
   36.4710   26.0280   30.5420 H   0  0  0  0  0  0  0  0  0  0  0  0
   37.0790   23.3390   31.1690 S   0  0  0  0  0  0  0  0  0  0  0  0
   37.4160   21.6470   33.2550 N   0  0  0  0  0  0  0  0  0  0  0  0
   38.0800   22.0810   32.0680 C   0  0  1  0  0  0  0  0  0  0  0  0
   38.2550   20.9370   31.0960 C   0  0  0  0  0  0  0  0  0  0  0  0
   36.9250   20.4170   30.7950 N   0  0  0  0  0  0  0  0  0  0  0  0
   36.4850   19.7740   32.0520 C   0  0  0  0  0  0  0  0  0  0  0  0
   36.2120   20.9190   33.0180 C   0  0  2  0  0  0  0  0  0  0  0  0
   38.0540   21.2240   33.9260 H   0  0  0  0  0  0  0  0  0  0  0  0
   39.0620   22.5180   32.3500 H   0  0  0  0  0  0  0  0  0  0  0  0
   38.6910   21.3690   30.1640 H   0  0  0  0  0  0  0  0  0  0  0  0
   38.9150   20.1330   31.4730 H   0  0  0  0  0  0  0  0  0  0  0  0
   37.0710   19.6660   30.0630 H   0  0  0  0  0  0  0  0  0  0  0  0
   35.5450   19.2520   31.8160 H   0  0  0  0  0  0  0  0  0  0  0  0
   37.2750   19.1110   32.4280 H   0  0  0  0  0  0  0  0  0  0  0  0
   35.8990   20.4490   33.9690 H   0  0  0  0  0  0  0  0  0  0  0  0
   35.1490   21.7380   32.4990 N   0  0  0  0  0  0  0  0  0  0  0  0
   35.0700   21.6970   31.4600 H   0  0  0  0  0  0  0  0  0  0  0  0
   35.0810   22.6700   32.9200 H   0  0  0  0  0  0  0  0  0  0  0  0
   37.7800   25.7520   35.6460 C   0  0  0  0  0  2  0  0  0  0  0  0
   39.0470   25.0300   35.6720 C   0  0  0  0  0  0  0  0  0  0  0  0
   39.1980   23.7890   36.1270 C   0  0  0  0  0  0  0  0  0  0  0  0
   40.4870   23.1880   36.0900 N   0  0  0  0  0  0  0  0  0  0  0  0
   41.5340   22.4520   36.7120 C   0  0  0  0  0  0  0  0  0  0  0  0
   41.5060   21.5110   37.5450 O   0  0  0  0  0  0  0  0  0  0  0  0
   42.4710   23.3250   35.9130 C   0  0  0  0  0  3  0  0  0  0  0  0
   43.4130   22.8110   35.6380 H   0  0  0  0  0  0  0  0  0  0  0  0
   41.3420   23.2300   34.9110 C   0  0  2  0  0  3  0  0  0  0  0  0
   41.1420   24.7970   34.0280 S   0  0  0  0  0  0  0  0  0  0  0  0
   40.1540   25.8620   35.1410 C   0  0  0  0  0  3  0  0  0  0  0  0
   40.8370   26.2000   35.9510 H   0  0  0  0  0  0  0  0  0  0  0  0
   38.0680   22.9970   36.6670 C   0  0  0  0  0  0  0  0  0  0  0  0
   37.1640   22.2770   36.2110 O   0  0  0  0  0  0  0  0  0  0  0  0
   37.7440   22.8840   37.9950 O   0  0  0  0  0  0  0  0  0  0  0  0
   36.8470   23.1420   38.3760 H   0  0  0  0  0  0  0  0  0  0  0  0
  1  6  1  0  0  0  0
  2  3  1  0  0  0  0
  2  1  2  0  0  0  0
  3  4  2  0  0  0  0
  4  5  1  0  0  0  0
  5 27  1  0  0  0  0
  6  5  2  0  0  0  0
  7  1  1  0  0  0  0
  8  2  1  0  0  0  0
  9 11  1  0  0  0  0
  9  3  1  0  0  0  0
 10 16  1  0  0  0  0
 11 17  1  1  0  0  0
 11 10  1  0  0  0  0
 12 19  1  0  0  0  0
 12 11  1  0  0  0  0
 13 12  1  0  0  0  0
 13 14  1  0  0  0  0
 14 22  1  0  0  0  0
 14 15  1  0  0  0  0
 15 10  1  0  0  0  0
 15 23  1  1  0  0  0
 18 12  1  0  0  0  0
 20 13  1  0  0  0  0
 21 14  1  0  0  0  0
 24 26  1  0  0  0  0
 24 15  1  0  0  0  0
 25 24  1  0  0  0  0
 27 28  1  0  0  0  0
 28 29  2  0  0  0  0
 29 39  1  0  0  0  0
 30 29  1  0  0  0  0
 30 31  1  0  0  0  0
 31 32  2  0  0  0  0
 33 31  1  0  0  0  0
 34 33  1  0  0  0  0
 35 36  1  6  0  0  0
 35 33  1  0  0  0  0
 35 30  1  0  0  0  0
 36 37  1  0  0  0  0
 37 28  1  0  0  0  0
 37 38  1  0  0  0  0
 39 41  1  0  0  0  0
 40 39  2  0  0  0  0
 41 42  1  0  0  0  0
M  END
>  <minimizedAffinity>
-5.44131136

$$$$

 OpenBabel03262521003D

 42 45  0  0  1  0  0  0  0  0999 V2000
   37.7470   22.9340   36.7210 C   0  0  0  0  0  0  0  0  0  0  0  0
   36.9630   21.9160   36.1810 C   0  0  0  0  0  0  0  0  0  0  0  0
   36.9290   21.7400   34.8250 C   0  0  0  0  0  0  0  0  0  0  0  0
   37.6870   22.5950   34.0420 N   0  0  0  0  0  0  0  0  0  0  0  0
   38.4190   23.5500   34.6040 C   0  0  0  0  0  0  0  0  0  0  0  0
   38.4560   23.7270   35.9380 N   0  0  0  0  0  0  0  0  0  0  0  0
   37.7180   23.0030   37.7990 H   0  0  0  0  0  0  0  0  0  0  0  0
   36.3450   21.2070   36.7030 H   0  0  0  0  0  0  0  0  0  0  0  0
   35.9790   20.4900   33.9920 S   0  0  0  0  0  0  0  0  0  0  0  0
   36.2630   21.6590   31.5670 N   0  0  0  0  0  0  0  0  0  0  0  0
   35.2460   21.1950   32.4570 C   0  0  1  0  0  0  0  0  0  0  0  0
   34.4550   20.0690   31.8350 C   0  0  0  0  0  0  0  0  0  0  0  0
   35.3980   19.0030   31.5120 N   0  0  0  0  0  0  0  0  0  0  0  0
   36.2070   19.5490   30.4000 C   0  0  0  0  0  0  0  0  0  0  0  0
   37.0830   20.6240   31.0280 C   0  0  2  0  0  0  0  0  0  0  0  0
   35.9110   22.3320   30.8890 H   0  0  0  0  0  0  0  0  0  0  0  0
   34.5870   22.0510   32.7180 H   0  0  0  0  0  0  0  0  0  0  0  0
   33.7490   19.7010   32.6170 H   0  0  0  0  0  0  0  0  0  0  0  0
   33.8830   20.3730   30.9370 H   0  0  0  0  0  0  0  0  0  0  0  0
   34.8090   18.2040   31.1420 H   0  0  0  0  0  0  0  0  0  0  0  0
   36.8340   18.7170   30.0420 H   0  0  0  0  0  0  0  0  0  0  0  0
   35.5470   19.9660   29.6290 H   0  0  0  0  0  0  0  0  0  0  0  0
   37.6810   21.0520   30.2010 H   0  0  0  0  0  0  0  0  0  0  0  0
   37.9510   20.0220   32.0060 N   0  0  0  0  0  0  0  0  0  0  0  0
   37.5630   19.1440   32.4120 H   0  0  0  0  0  0  0  0  0  0  0  0
   38.3710   20.6810   32.6690 H   0  0  0  0  0  0  0  0  0  0  0  0
   39.2270   24.4550   33.7050 C   0  0  0  0  0  2  0  0  0  0  0  0
   38.3230   25.5160   33.2770 C   0  0  0  0  0  0  0  0  0  0  0  0
   38.1670   26.6740   33.9140 C   0  0  0  0  0  0  0  0  0  0  0  0
   37.2590   27.6370   33.3900 N   0  0  0  0  0  0  0  0  0  0  0  0
   36.1970   28.5680   33.5630 C   0  0  0  0  0  0  0  0  0  0  0  0
   35.9160   29.3390   34.5160 O   0  0  0  0  0  0  0  0  0  0  0  0
   35.7410   28.1320   32.1920 C   0  0  0  0  0  3  0  0  0  0  0  0
   35.2320   28.9380   31.6280 H   0  0  0  0  0  0  0  0  0  0  0  0
   37.2340   28.0110   31.9820 C   0  0  2  0  0  3  0  0  0  0  0  0
   37.6140   26.5860   30.9320 S   0  0  0  0  0  0  0  0  0  0  0  0
   37.5860   25.1360   32.0490 C   0  0  0  0  0  3  0  0  0  0  0  0
   36.5170   24.9180   32.2630 H   0  0  0  0  0  0  0  0  0  0  0  0
   38.9100   27.0090   35.1510 C   0  0  0  0  0  0  0  0  0  0  0  0
   38.6430   27.1950   36.3500 O   0  0  0  0  0  0  0  0  0  0  0  0
   40.2650   27.2130   35.2290 O   0  0  0  0  0  0  0  0  0  0  0  0
   40.6840   28.0660   35.5670 H   0  0  0  0  0  0  0  0  0  0  0  0
  1  7  1  0  0  0  0
  2  8  1  0  0  0  0
  2  1  1  0  0  0  0
  3  2  2  0  0  0  0
  4  5  2  0  0  0  0
  4  3  1  0  0  0  0
  5  6  1  0  0  0  0
  6  1  2  0  0  0  0
  9  3  1  0  0  0  0
 10 11  1  0  0  0  0
 11 17  1  1  0  0  0
 11  9  1  0  0  0  0
 12 11  1  0  0  0  0
 12 18  1  0  0  0  0
 13 12  1  0  0  0  0
 14 15  1  0  0  0  0
 14 13  1  0  0  0  0
 15 23  1  6  0  0  0
 15 10  1  0  0  0  0
 15 24  1  0  0  0  0
 16 10  1  0  0  0  0
 19 12  1  0  0  0  0
 20 13  1  0  0  0  0
 21 14  1  0  0  0  0
 22 14  1  0  0  0  0
 24 25  1  0  0  0  0
 24 26  1  0  0  0  0
 27  5  1  0  0  0  0
 28 27  1  0  0  0  0
 28 29  2  0  0  0  0
 29 39  1  0  0  0  0
 30 31  1  0  0  0  0
 30 29  1  0  0  0  0
 31 32  2  0  0  0  0
 33 31  1  0  0  0  0
 34 33  1  0  0  0  0
 35 36  1  6  0  0  0
 35 33  1  0  0  0  0
 35 30  1  0  0  0  0
 36 37  1  0  0  0  0
 37 38  1  0  0  0  0
 37 28  1  0  0  0  0
 39 41  1  0  0  0  0
 39 40  2  0  0  0  0
 41 42  1  0  0  0  0
M  END
>  <minimizedAffinity>
-5.43470144

$$$$
