
 OpenBabel03272509403D

 42 45  0  0  1  0  0  0  0  0999 V2000
   36.9900   30.9540   49.0980 C   0  0  0  0  0  0  0  0  0  0  0  0
   36.6680   31.8630   50.1050 C   0  0  0  0  0  0  0  0  0  0  0  0
   37.2400   33.1280   50.1910 C   0  0  0  0  0  0  0  0  0  0  0  0
   38.1820   33.5160   49.2300 C   0  0  0  0  0  0  0  0  0  0  0  0
   38.4880   32.6150   48.2490 C   0  0  0  0  0  0  0  0  0  0  0  0
   37.9000   31.3680   48.1950 C   0  0  0  0  0  0  0  0  0  0  0  0
   35.9390   31.6190   50.8840 H   0  0  0  0  0  0  0  0  0  0  0  0
   36.9550   33.7970   50.9920 H   0  0  0  0  0  0  0  0  0  0  0  0
   38.6120   34.5050   49.3170 H   0  0  0  0  0  0  0  0  0  0  0  0
   39.2260   33.0010   47.5500 H   0  0  0  0  0  0  0  0  0  0  0  0
   36.3410   29.6670   49.0960 C   0  0  0  0  0  0  0  0  0  0  0  0
   36.9000   28.7890   49.8470 O   0  0  0  0  0  0  0  0  0  0  0  0
   33.6040   30.1450   46.7670 C   0  0  0  0  0  0  0  0  0  0  0  0
   32.9200   28.9390   46.7800 C   0  0  0  0  0  0  0  0  0  0  0  0
   33.4000   27.9460   47.5980 C   0  0  0  0  0  0  0  0  0  0  0  0
   34.5080   28.1700   48.3530 N   0  0  0  0  0  0  0  0  0  0  0  0
   35.1410   29.3290   48.3210 C   0  0  0  0  0  0  0  0  0  0  0  0
   34.6800   30.3180   47.5210 N   0  0  0  0  0  0  0  0  0  0  0  0
   33.2780   30.9860   46.1380 H   0  0  0  0  0  0  0  0  0  0  0  0
   32.0550   28.8980   46.1310 H   0  0  0  0  0  0  0  0  0  0  0  0
   32.8690   27.0210   47.6040 H   0  0  0  0  0  0  0  0  0  0  0  0
   38.3470   30.5400   47.0910 C   0  0  0  0  0  3  0  0  0  0  0  0
   39.1120   30.9090   46.0730 C   0  0  0  0  0  3  0  0  0  0  0  0
   39.6300   30.1770   44.9180 C   0  0  0  0  0  0  0  0  0  0  0  0
   40.6550   30.5150   44.6750 H   0  0  0  0  0  0  0  0  0  0  0  0
   39.7540   29.0930   45.2000 H   0  0  0  0  0  0  0  0  0  0  0  0
   38.7690   29.0670   39.7130 C   0  0  0  0  0  0  0  0  0  0  0  0
   39.5550   29.9310   40.3320 C   0  0  0  0  0  0  0  0  0  0  0  0
   39.3070   30.2090   41.7260 N   0  0  0  0  0  0  0  0  0  0  0  0
   39.2160   31.2430   42.7300 C   0  0  0  0  0  0  0  0  0  0  0  0
   39.4370   32.4990   42.8020 O   0  0  0  0  0  0  0  0  0  0  0  0
   38.7440   30.2260   43.6920 C   0  0  1  0  0  3  0  0  0  0  0  0
   39.0010   29.1410   42.6930 C   0  0  1  0  0  3  0  0  0  0  0  0
   37.5680   28.2830   42.0600 S   0  0  0  0  0  0  0  0  0  0  0  0
   37.6120   28.3190   40.2550 C   0  0  0  0  0  3  0  0  0  0  0  0
   36.6430   28.7100   39.8420 H   0  0  0  0  0  0  0  0  0  0  0  0
   39.0410   28.7930   38.3020 C   0  0  0  0  0  2  0  0  0  0  0  0
   40.0750   28.4060   38.2080 H   0  0  0  0  0  0  0  0  0  0  0  0
   40.6660   30.6150   39.6750 C   0  0  0  0  0  0  0  0  0  0  0  0
   41.8740   30.3350   39.7590 O   0  0  0  0  0  0  0  0  0  0  0  0
   40.5250   31.6940   38.8540 O   0  0  0  0  0  0  0  0  0  0  0  0
   41.0270   31.7760   37.9960 H   0  0  0  0  0  0  0  0  0  0  0  0
  1  2  1  0  0  0  0
  2  3  2  0  0  0  0
  2  7  1  0  0  0  0
  3  8  1  0  0  0  0
  4  9  1  0  0  0  0
  4  3  1  0  0  0  0
  5  4  2  0  0  0  0
  6  5  1  0  0  0  0
  6  1  2  0  0  0  0
 10  5  1  0  0  0  0
 11  1  1  0  0  0  0
 11 12  2  0  0  0  0
 13 14  2  0  0  0  0
 13 18  1  0  0  0  0
 14 15  1  0  0  0  0
 15 21  1  0  0  0  0
 15 16  2  0  0  0  0
 17 16  1  0  0  0  0
 17 11  1  0  0  0  0
 18 17  2  0  0  0  0
 19 13  1  0  0  0  0
 20 14  1  0  0  0  0
 22  6  1  0  0  0  0
 23 22  2  0  0  0  0
 24 26  1  0  0  0  0
 24 23  1  0  0  0  0
 25 24  1  0  0  0  0
 27 35  1  0  0  0  0
 27 28  2  0  0  0  0
 28 29  1  0  0  0  0
 29 33  1  0  0  0  0
 29 30  1  0  0  0  0
 30 31  2  0  0  0  0
 30 32  1  0  0  0  0
 32 24  1  1  0  0  0
 33 34  1  6  0  0  0
 33 32  1  0  0  0  0
 35 34  1  0  0  0  0
 36 35  1  0  0  0  0
 37 27  1  0  0  0  0
 38 37  1  0  0  0  0
 39 40  2  0  0  0  0
 39 28  1  0  0  0  0
 41 39  1  0  0  0  0
 42 41  1  0  0  0  0
M  END
>  <minimizedAffinity>
-6.00003624

>  <minimizedRMSD>
1.06582308

$$$$
