
 OpenBabel03272507113D

 34 37  0  0  1  0  0  0  0  0999 V2000
   37.4420   27.3420   34.3900 C   0  0  0  0  0  0  0  0  0  0  0  0
   37.7680   27.3720   33.0550 C   0  0  0  0  0  0  0  0  0  0  0  0
   36.7550   28.1210   32.4280 C   0  0  0  0  0  0  0  0  0  0  0  0
   35.8830   28.4950   33.4330 C   0  0  0  0  0  0  0  0  0  0  0  0
   36.3390   28.0090   34.5550 O   0  0  0  0  0  0  0  0  0  0  0  0
   38.6320   26.9140   32.5610 H   0  0  0  0  0  0  0  0  0  0  0  0
   36.6970   28.3480   31.3570 H   0  0  0  0  0  0  0  0  0  0  0  0
   38.2720   26.6470   35.3560 C   0  0  0  0  0  0  0  0  0  0  0  0
   39.0930   27.3030   36.0380 O   0  0  0  0  0  0  0  0  0  0  0  0
   38.1070   25.2170   35.4780 C   0  0  0  0  0  0  0  0  0  0  0  0
   37.8130   24.7090   36.7360 C   0  0  0  0  0  0  0  0  0  0  0  0
   37.6470   23.3390   36.8880 C   0  0  0  0  0  0  0  0  0  0  0  0
   37.7830   22.5540   35.7770 N   0  0  0  0  0  0  0  0  0  0  0  0
   38.0690   23.0680   34.5630 C   0  0  0  0  0  0  0  0  0  0  0  0
   38.2290   24.3850   34.4160 N   0  0  0  0  0  0  0  0  0  0  0  0
   37.7050   25.3220   37.6150 H   0  0  0  0  0  0  0  0  0  0  0  0
   37.4180   22.9140   37.8560 H   0  0  0  0  0  0  0  0  0  0  0  0
   38.1670   22.3910   33.7010 H   0  0  0  0  0  0  0  0  0  0  0  0
   34.6680   29.3130   33.1400 C   0  0  0  0  0  2  0  0  0  0  0  0
   34.5760   30.3380   34.1950 C   0  0  0  0  0  0  0  0  0  0  0  0
   33.6350   30.3850   35.1090 C   0  0  0  0  0  0  0  0  0  0  0  0
   33.6690   31.4190   36.0730 N   0  0  0  0  0  0  0  0  0  0  0  0
   32.9240   32.3910   36.8330 C   0  0  0  0  0  0  0  0  0  0  0  0
   31.6970   32.6410   37.0830 O   0  0  0  0  0  0  0  0  0  0  0  0
   34.1410   33.0880   37.2860 C   0  0  0  0  0  3  0  0  0  0  0  0
   34.2150   33.2510   38.3850 H   0  0  0  0  0  0  0  0  0  0  0  0
   34.8720   31.9020   36.7470 C   0  0  2  0  0  3  0  0  0  0  0  0
   36.0260   32.3420   35.4070 S   0  0  0  0  0  0  0  0  0  0  0  0
   35.7170   31.2570   33.9870 C   0  0  0  0  0  3  0  0  0  0  0  0
   36.6900   30.7040   33.8380 H   0  0  0  0  0  0  0  0  0  0  0  0
   32.5350   29.3990   35.1890 C   0  0  0  0  0  0  0  0  0  0  0  0
   32.2410   28.4630   35.9520 O   0  0  0  0  0  0  0  0  0  0  0  0
   31.4950   29.3510   34.2960 O   0  0  0  0  0  0  0  0  0  0  0  0
   31.2290   28.4940   33.8320 H   0  0  0  0  0  0  0  0  0  0  0  0
  1  5  1  0  0  0  0
  1  8  1  0  0  0  0
  2  1  2  0  0  0  0
  3  2  1  0  0  0  0
  3  4  2  0  0  0  0
  4  5  1  0  0  0  0
  6  2  1  0  0  0  0
  7  3  1  0  0  0  0
  8 10  1  0  0  0  0
  8  9  2  0  0  0  0
 10 11  1  0  0  0  0
 11 12  2  0  0  0  0
 11 16  1  0  0  0  0
 12 17  1  0  0  0  0
 13 12  1  0  0  0  0
 14 13  2  0  0  0  0
 15 14  1  0  0  0  0
 15 10  2  0  0  0  0
 18 14  1  0  0  0  0
 19  4  1  0  0  0  0
 19 20  1  0  0  0  0
 20 21  2  0  0  0  0
 21 31  1  0  0  0  0
 21 22  1  0  0  0  0
 22 27  1  0  0  0  0
 22 23  1  0  0  0  0
 23 24  2  0  0  0  0
 23 25  1  0  0  0  0
 25 26  1  0  0  0  0
 27 28  1  6  0  0  0
 27 25  1  0  0  0  0
 29 20  1  0  0  0  0
 29 28  1  0  0  0  0
 30 29  1  0  0  0  0
 31 32  2  0  0  0  0
 33 31  1  0  0  0  0
 34 33  1  0  0  0  0
M  END
>  <minimizedAffinity>
-5.79354239

$$$$

 OpenBabel03272507113D

 34 37  0  0  1  0  0  0  0  0999 V2000
   36.6610   25.7880   32.5630 C   0  0  0  0  0  0  0  0  0  0  0  0
   36.6270   27.1590   32.6660 C   0  0  0  0  0  0  0  0  0  0  0  0
   37.2450   27.4690   33.8900 C   0  0  0  0  0  0  0  0  0  0  0  0
   37.6120   26.2580   34.4470 C   0  0  0  0  0  0  0  0  0  0  0  0
   37.2440   25.3150   33.6240 O   0  0  0  0  0  0  0  0  0  0  0  0
   36.2090   27.8780   31.9530 H   0  0  0  0  0  0  0  0  0  0  0  0
   37.3920   28.4770   34.2960 H   0  0  0  0  0  0  0  0  0  0  0  0
   36.1040   25.1020   31.4120 C   0  0  0  0  0  0  0  0  0  0  0  0
   35.2750   25.7000   30.6880 O   0  0  0  0  0  0  0  0  0  0  0  0
   36.5400   23.7470   31.1630 C   0  0  0  0  0  0  0  0  0  0  0  0
   35.6140   22.7290   31.3420 C   0  0  0  0  0  0  0  0  0  0  0  0
   36.0000   21.4170   31.1100 C   0  0  0  0  0  0  0  0  0  0  0  0
   37.2890   21.1930   30.7110 N   0  0  0  0  0  0  0  0  0  0  0  0
   38.1750   22.1970   30.5430 C   0  0  0  0  0  0  0  0  0  0  0  0
   37.8040   23.4590   30.7660 N   0  0  0  0  0  0  0  0  0  0  0  0
   34.5970   22.8990   31.6550 H   0  0  0  0  0  0  0  0  0  0  0  0
   35.3000   20.6020   31.2420 H   0  0  0  0  0  0  0  0  0  0  0  0
   39.2000   21.9610   30.2210 H   0  0  0  0  0  0  0  0  0  0  0  0
   38.3060   26.1920   35.7680 C   0  0  0  0  0  2  0  0  0  0  0  0
   39.3230   25.1290   35.6660 C   0  0  0  0  0  0  0  0  0  0  0  0
   39.2610   23.9760   36.2890 C   0  0  0  0  0  0  0  0  0  0  0  0
   40.3020   23.0380   36.0970 N   0  0  0  0  0  0  0  0  0  0  0  0
   41.1810   22.0650   36.6940 C   0  0  0  0  0  0  0  0  0  0  0  0
   41.2780   21.4540   37.8110 O   0  0  0  0  0  0  0  0  0  0  0  0
   42.0310   21.9760   35.4930 C   0  0  0  0  0  3  0  0  0  0  0  0
   42.2140   20.9450   35.1150 H   0  0  0  0  0  0  0  0  0  0  0  0
   40.9400   22.7400   34.8160 C   0  0  2  0  0  3  0  0  0  0  0  0
   41.5060   24.3510   34.1790 S   0  0  0  0  0  0  0  0  0  0  0  0
   40.3760   25.6430   34.7620 C   0  0  0  0  0  3  0  0  0  0  0  0
   39.9470   26.0890   33.8180 H   0  0  0  0  0  0  0  0  0  0  0  0
   38.1460   23.5990   37.1850 C   0  0  0  0  0  0  0  0  0  0  0  0
   37.6970   24.0240   38.2630 O   0  0  0  0  0  0  0  0  0  0  0  0
   37.2920   22.5560   36.9330 O   0  0  0  0  0  0  0  0  0  0  0  0
   37.1020   21.8430   37.6240 H   0  0  0  0  0  0  0  0  0  0  0  0
  1  2  2  0  0  0  0
  1  5  1  0  0  0  0
  2  3  1  0  0  0  0
  3  7  1  0  0  0  0
  3  4  2  0  0  0  0
  4 19  1  0  0  0  0
  5  4  1  0  0  0  0
  6  2  1  0  0  0  0
  8  1  1  0  0  0  0
  9  8  2  0  0  0  0
 10 11  1  0  0  0  0
 10  8  1  0  0  0  0
 11 16  1  0  0  0  0
 12 17  1  0  0  0  0
 12 11  2  0  0  0  0
 13 12  1  0  0  0  0
 14 13  2  0  0  0  0
 14 15  1  0  0  0  0
 15 10  2  0  0  0  0
 18 14  1  0  0  0  0
 20 19  1  0  0  0  0
 20 21  2  0  0  0  0
 21 31  1  0  0  0  0
 22 21  1  0  0  0  0
 22 23  1  0  0  0  0
 23 24  2  0  0  0  0
 25 23  1  0  0  0  0
 26 25  1  0  0  0  0
 27 28  1  1  0  0  0
 27 25  1  0  0  0  0
 27 22  1  0  0  0  0
 28 29  1  0  0  0  0
 29 20  1  0  0  0  0
 30 29  1  0  0  0  0
 31 32  2  0  0  0  0
 33 31  1  0  0  0  0
 33 34  1  0  0  0  0
M  END
>  <minimizedAffinity>
-5.78146696

$$$$

 OpenBabel03272507113D

 34 37  0  0  1  0  0  0  0  0999 V2000
   38.0700   25.3870   35.9080 C   0  0  0  0  0  0  0  0  0  0  0  0
   38.3420   26.6420   36.3990 C   0  0  0  0  0  0  0  0  0  0  0  0
   38.1100   27.5320   35.3360 C   0  0  0  0  0  0  0  0  0  0  0  0
   37.7110   26.7500   34.2680 C   0  0  0  0  0  0  0  0  0  0  0  0
   37.7080   25.5070   34.6650 O   0  0  0  0  0  0  0  0  0  0  0  0
   38.6730   26.9130   37.4080 H   0  0  0  0  0  0  0  0  0  0  0  0
   38.2290   28.6210   35.3740 H   0  0  0  0  0  0  0  0  0  0  0  0
   38.2030   24.2040   36.7370 C   0  0  0  0  0  0  0  0  0  0  0  0
   37.3300   23.9650   37.6030 O   0  0  0  0  0  0  0  0  0  0  0  0
   39.3520   23.3560   36.5160 C   0  0  0  0  0  0  0  0  0  0  0  0
   39.9140   22.7340   37.6230 C   0  0  0  0  0  0  0  0  0  0  0  0
   41.0180   21.9110   37.4460 C   0  0  0  0  0  0  0  0  0  0  0  0
   41.4990   21.7550   36.1750 N   0  0  0  0  0  0  0  0  0  0  0  0
   40.9370   22.3690   35.1130 C   0  0  0  0  0  0  0  0  0  0  0  0
   39.8760   23.1590   35.2820 N   0  0  0  0  0  0  0  0  0  0  0  0
   39.5400   22.8530   38.6260 H   0  0  0  0  0  0  0  0  0  0  0  0
   41.4780   21.4140   38.2900 H   0  0  0  0  0  0  0  0  0  0  0  0
   41.3640   22.2080   34.1120 H   0  0  0  0  0  0  0  0  0  0  0  0
   37.3730   27.3580   32.9460 C   0  0  0  0  0  2  0  0  0  0  0  0
   38.2090   26.6840   31.9370 C   0  0  0  0  0  0  0  0  0  0  0  0
   37.7930   25.7210   31.1470 C   0  0  0  0  0  0  0  0  0  0  0  0
   38.6980   25.1640   30.2140 N   0  0  0  0  0  0  0  0  0  0  0  0
   39.2000   23.9730   29.5760 C   0  0  0  0  0  0  0  0  0  0  0  0
   38.8570   22.7470   29.4840 O   0  0  0  0  0  0  0  0  0  0  0  0
   40.3590   24.6760   28.9960 C   0  0  0  0  0  3  0  0  0  0  0  0
   40.5020   24.5340   27.9010 H   0  0  0  0  0  0  0  0  0  0  0  0
   39.6530   25.9250   29.4100 C   0  0  2  0  0  3  0  0  0  0  0  0
   40.6120   26.9060   30.6090 S   0  0  0  0  0  0  0  0  0  0  0  0
   39.5520   27.2980   32.0270 C   0  0  0  0  0  3  0  0  0  0  0  0
   39.5060   28.4250   32.0420 H   0  0  0  0  0  0  0  0  0  0  0  0
   36.4140   25.1890   31.1770 C   0  0  0  0  0  0  0  0  0  0  0  0
   35.8280   24.2890   31.8020 O   0  0  0  0  0  0  0  0  0  0  0  0
   35.3960   25.6780   30.3970 O   0  0  0  0  0  0  0  0  0  0  0  0
   34.8210   25.0710   29.8290 H   0  0  0  0  0  0  0  0  0  0  0  0
  1  2  2  0  0  0  0
  1  8  1  0  0  0  0
  2  6  1  0  0  0  0
  3  7  1  0  0  0  0
  3  2  1  0  0  0  0
  4  5  1  0  0  0  0
  4  3  2  0  0  0  0
  5  1  1  0  0  0  0
  8  9  2  0  0  0  0
 10  8  1  0  0  0  0
 10 11  1  0  0  0  0
 11 16  1  0  0  0  0
 12 11  2  0  0  0  0
 12 17  1  0  0  0  0
 13 12  1  0  0  0  0
 14 15  1  0  0  0  0
 14 13  2  0  0  0  0
 15 10  2  0  0  0  0
 18 14  1  0  0  0  0
 19  4  1  0  0  0  0
 20 29  1  0  0  0  0
 20 19  1  0  0  0  0
 21 31  1  0  0  0  0
 21 20  2  0  0  0  0
 22 21  1  0  0  0  0
 23 22  1  0  0  0  0
 24 23  2  0  0  0  0
 25 23  1  0  0  0  0
 26 25  1  0  0  0  0
 27 25  1  1  0  0  0
 27 22  1  0  0  0  0
 27 28  1  0  0  0  0
 28 29  1  0  0  0  0
 29 30  1  0  0  0  0
 31 32  2  0  0  0  0
 33 31  1  0  0  0  0
 34 33  1  0  0  0  0
M  END
>  <minimizedAffinity>
-5.64150333

$$$$

 OpenBabel03272507113D

 34 37  0  0  1  0  0  0  0  0999 V2000
   36.4910   25.7830   32.2480 C   0  0  0  0  0  0  0  0  0  0  0  0
   36.5640   27.1410   32.0430 C   0  0  0  0  0  0  0  0  0  0  0  0
   37.2180   27.6670   33.1710 C   0  0  0  0  0  0  0  0  0  0  0  0
   37.4980   26.5860   33.9860 C   0  0  0  0  0  0  0  0  0  0  0  0
   37.0490   25.5150   33.3920 O   0  0  0  0  0  0  0  0  0  0  0  0
   36.1940   27.7130   31.1850 H   0  0  0  0  0  0  0  0  0  0  0  0
   37.4460   28.7260   33.3430 H   0  0  0  0  0  0  0  0  0  0  0  0
   35.8710   24.9020   31.2770 C   0  0  0  0  0  0  0  0  0  0  0  0
   34.8460   25.2900   30.6700 O   0  0  0  0  0  0  0  0  0  0  0  0
   36.4760   23.6080   31.0610 C   0  0  0  0  0  0  0  0  0  0  0  0
   35.6880   22.4860   31.2760 C   0  0  0  0  0  0  0  0  0  0  0  0
   36.2380   21.2270   31.0770 C   0  0  0  0  0  0  0  0  0  0  0  0
   37.5430   21.1590   30.6730 N   0  0  0  0  0  0  0  0  0  0  0  0
   38.2920   22.2620   30.4700 C   0  0  0  0  0  0  0  0  0  0  0  0
   37.7640   23.4720   30.6610 N   0  0  0  0  0  0  0  0  0  0  0  0
   34.6600   22.5330   31.5940 H   0  0  0  0  0  0  0  0  0  0  0  0
   35.6480   20.3340   31.2370 H   0  0  0  0  0  0  0  0  0  0  0  0
   39.3370   22.1500   30.1450 H   0  0  0  0  0  0  0  0  0  0  0  0
   38.1990   26.7620   35.2930 C   0  0  0  0  0  2  0  0  0  0  0  0
   38.7520   25.4470   35.6640 C   0  0  0  0  0  0  0  0  0  0  0  0
   39.9200   24.9920   35.2720 C   0  0  0  0  0  0  0  0  0  0  0  0
   40.3360   23.7130   35.7090 N   0  0  0  0  0  0  0  0  0  0  0  0
   40.9700   22.4640   35.3690 C   0  0  0  0  0  0  0  0  0  0  0  0
   41.6590   22.0000   34.4000 O   0  0  0  0  0  0  0  0  0  0  0  0
   40.5350   21.8110   36.6170 C   0  0  0  0  0  3  0  0  0  0  0  0
   41.3420   21.3110   37.1980 H   0  0  0  0  0  0  0  0  0  0  0  0
   40.1610   23.1880   37.0620 C   0  0  2  0  0  3  0  0  0  0  0  0
   38.3800   23.3500   37.4100 S   0  0  0  0  0  0  0  0  0  0  0  0
   37.7370   24.7910   36.5170 C   0  0  0  0  0  3  0  0  0  0  0  0
   37.3520   25.4770   37.3270 H   0  0  0  0  0  0  0  0  0  0  0  0
   40.8340   25.7570   34.3970 C   0  0  0  0  0  0  0  0  0  0  0  0
   40.9780   25.8870   33.1690 O   0  0  0  0  0  0  0  0  0  0  0  0
   41.8270   26.5770   34.8700 O   0  0  0  0  0  0  0  0  0  0  0  0
   42.7810   26.5010   34.5450 H   0  0  0  0  0  0  0  0  0  0  0  0
  1  5  1  0  0  0  0
  2  1  2  0  0  0  0
  2  3  1  0  0  0  0
  3  7  1  0  0  0  0
  3  4  2  0  0  0  0
  4 19  1  0  0  0  0
  5  4  1  0  0  0  0
  6  2  1  0  0  0  0
  8  1  1  0  0  0  0
  9  8  2  0  0  0  0
 10 11  1  0  0  0  0
 10  8  1  0  0  0  0
 11 16  1  0  0  0  0
 12 17  1  0  0  0  0
 12 11  2  0  0  0  0
 13 12  1  0  0  0  0
 14 15  1  0  0  0  0
 14 13  2  0  0  0  0
 15 10  2  0  0  0  0
 18 14  1  0  0  0  0
 19 20  1  0  0  0  0
 20 29  1  0  0  0  0
 21 20  2  0  0  0  0
 21 22  1  0  0  0  0
 22 27  1  0  0  0  0
 23 22  1  0  0  0  0
 23 25  1  0  0  0  0
 24 23  2  0  0  0  0
 25 26  1  0  0  0  0
 27 25  1  6  0  0  0
 27 28  1  0  0  0  0
 29 30  1  0  0  0  0
 29 28  1  0  0  0  0
 31 33  1  0  0  0  0
 31 21  1  0  0  0  0
 32 31  2  0  0  0  0
 34 33  1  0  0  0  0
M  END
>  <minimizedAffinity>
-5.63202524

$$$$

 OpenBabel03272507113D

 34 37  0  0  1  0  0  0  0  0999 V2000
   37.1700   27.0900   34.5260 C   0  0  0  0  0  0  0  0  0  0  0  0
   37.9580   27.3720   35.6170 C   0  0  0  0  0  0  0  0  0  0  0  0
   38.4410   26.1330   36.0750 C   0  0  0  0  0  0  0  0  0  0  0  0
   37.9090   25.1820   35.2240 C   0  0  0  0  0  0  0  0  0  0  0  0
   37.1770   25.8030   34.3420 O   0  0  0  0  0  0  0  0  0  0  0  0
   38.1760   28.3530   36.0550 H   0  0  0  0  0  0  0  0  0  0  0  0
   39.1040   25.9830   36.9350 H   0  0  0  0  0  0  0  0  0  0  0  0
   36.4960   28.1410   33.7870 C   0  0  0  0  0  0  0  0  0  0  0  0
   35.5980   28.8040   34.3540 O   0  0  0  0  0  0  0  0  0  0  0  0
   36.9020   28.3660   32.4190 C   0  0  0  0  0  0  0  0  0  0  0  0
   36.1230   29.2190   31.6480 C   0  0  0  0  0  0  0  0  0  0  0  0
   36.4860   29.4570   30.3300 C   0  0  0  0  0  0  0  0  0  0  0  0
   37.6060   28.8330   29.8540 N   0  0  0  0  0  0  0  0  0  0  0  0
   38.3490   28.0080   30.6200 C   0  0  0  0  0  0  0  0  0  0  0  0
   38.0010   27.7780   31.8870 N   0  0  0  0  0  0  0  0  0  0  0  0
   35.2400   29.7130   32.0180 H   0  0  0  0  0  0  0  0  0  0  0  0
   35.8970   30.1170   29.7050 H   0  0  0  0  0  0  0  0  0  0  0  0
   39.2410   27.5310   30.1870 H   0  0  0  0  0  0  0  0  0  0  0  0
   38.2080   23.7290   35.4040 C   0  0  0  0  0  2  0  0  0  0  0  0
   39.6340   23.5420   35.0820 C   0  0  0  0  0  0  0  0  0  0  0  0
   40.5370   23.0990   35.9250 C   0  0  0  0  0  0  0  0  0  0  0  0
   41.8730   22.9570   35.4840 N   0  0  0  0  0  0  0  0  0  0  0  0
   43.2730   23.1280   35.7840 C   0  0  0  0  0  0  0  0  0  0  0  0
   43.9830   23.3850   36.8130 O   0  0  0  0  0  0  0  0  0  0  0  0
   43.6840   22.8880   34.3890 C   0  0  0  0  0  3  0  0  0  0  0  0
   44.4780   22.1190   34.2530 H   0  0  0  0  0  0  0  0  0  0  0  0
   42.2780   22.4240   34.1850 C   0  0  2  0  0  3  0  0  0  0  0  0
   41.3830   23.4290   32.9570 S   0  0  0  0  0  0  0  0  0  0  0  0
   39.8040   23.9610   33.6720 C   0  0  0  0  0  3  0  0  0  0  0  0
   39.0210   23.5090   32.9960 H   0  0  0  0  0  0  0  0  0  0  0  0
   40.2270   22.7300   37.3240 C   0  0  0  0  0  0  0  0  0  0  0  0
   39.5670   23.2390   38.2450 O   0  0  0  0  0  0  0  0  0  0  0  0
   40.6880   21.5870   37.9250 O   0  0  0  0  0  0  0  0  0  0  0  0
   41.1560   21.6060   38.8210 H   0  0  0  0  0  0  0  0  0  0  0  0
  1  2  2  0  0  0  0
  2  6  1  0  0  0  0
  2  3  1  0  0  0  0
  3  7  1  0  0  0  0
  4 19  1  0  0  0  0
  4  3  2  0  0  0  0
  5  1  1  0  0  0  0
  5  4  1  0  0  0  0
  8  9  2  0  0  0  0
  8  1  1  0  0  0  0
 10  8  1  0  0  0  0
 11 16  1  0  0  0  0
 11 10  2  0  0  0  0
 12 11  1  0  0  0  0
 13 12  2  0  0  0  0
 13 14  1  0  0  0  0
 14 15  2  0  0  0  0
 15 10  1  0  0  0  0
 17 12  1  0  0  0  0
 18 14  1  0  0  0  0
 20 19  1  0  0  0  0
 20 21  2  0  0  0  0
 21 31  1  0  0  0  0
 22 23  1  0  0  0  0
 22 21  1  0  0  0  0
 23 24  2  0  0  0  0
 25 23  1  0  0  0  0
 26 25  1  0  0  0  0
 27 28  1  6  0  0  0
 27 25  1  0  0  0  0
 27 22  1  0  0  0  0
 28 29  1  0  0  0  0
 29 20  1  0  0  0  0
 30 29  1  0  0  0  0
 31 33  1  0  0  0  0
 31 32  2  0  0  0  0
 33 34  1  0  0  0  0
M  END
>  <minimizedAffinity>
-5.601861

$$$$

 OpenBabel03272507113D

 34 37  0  0  1  0  0  0  0  0999 V2000
   38.5480   25.3720   35.2010 C   0  0  0  0  0  0  0  0  0  0  0  0
   39.4510   26.3890   34.9960 C   0  0  0  0  0  0  0  0  0  0  0  0
   39.0800   26.9950   33.7810 C   0  0  0  0  0  0  0  0  0  0  0  0
   37.9730   26.2980   33.3330 C   0  0  0  0  0  0  0  0  0  0  0  0
   37.7120   25.3640   34.2050 O   0  0  0  0  0  0  0  0  0  0  0  0
   40.2910   26.6830   35.6340 H   0  0  0  0  0  0  0  0  0  0  0  0
   39.5860   27.8460   33.3100 H   0  0  0  0  0  0  0  0  0  0  0  0
   38.6220   24.5190   36.3720 C   0  0  0  0  0  0  0  0  0  0  0  0
   37.8400   24.7270   37.3280 O   0  0  0  0  0  0  0  0  0  0  0  0
   39.6090   23.4640   36.3730 C   0  0  0  0  0  0  0  0  0  0  0  0
   40.1060   23.0470   35.1460 C   0  0  0  0  0  0  0  0  0  0  0  0
   41.0560   22.0360   35.1120 C   0  0  0  0  0  0  0  0  0  0  0  0
   41.4570   21.4980   36.3030 N   0  0  0  0  0  0  0  0  0  0  0  0
   40.9610   21.9180   37.4860 C   0  0  0  0  0  0  0  0  0  0  0  0
   40.0480   22.8890   37.5190 N   0  0  0  0  0  0  0  0  0  0  0  0
   39.7940   23.4670   34.2040 H   0  0  0  0  0  0  0  0  0  0  0  0
   41.4620   21.6900   34.1700 H   0  0  0  0  0  0  0  0  0  0  0  0
   41.3180   21.4500   38.4150 H   0  0  0  0  0  0  0  0  0  0  0  0
   37.2950   26.6640   32.0540 C   0  0  0  0  0  2  0  0  0  0  0  0
   36.8330   28.0560   32.1960 C   0  0  0  0  0  0  0  0  0  0  0  0
   36.9550   28.9800   31.2720 C   0  0  0  0  0  0  0  0  0  0  0  0
   36.4600   30.2790   31.5340 N   0  0  0  0  0  0  0  0  0  0  0  0
   36.6700   31.7000   31.4240 C   0  0  0  0  0  0  0  0  0  0  0  0
   37.4640   32.4820   30.8020 O   0  0  0  0  0  0  0  0  0  0  0  0
   35.5680   32.0160   32.3510 C   0  0  0  0  0  3  0  0  0  0  0  0
   34.8270   32.7570   31.9730 H   0  0  0  0  0  0  0  0  0  0  0  0
   35.1930   30.5780   32.2000 C   0  0  2  0  0  3  0  0  0  0  0  0
   35.2580   29.6700   33.7780 S   0  0  0  0  0  0  0  0  0  0  0  0
   36.2470   28.1670   33.5500 C   0  0  0  0  0  3  0  0  0  0  0  0
   35.5330   27.3220   33.7770 H   0  0  0  0  0  0  0  0  0  0  0  0
   37.5840   28.7320   29.9560 C   0  0  0  0  0  0  0  0  0  0  0  0
   38.7150   28.9020   29.4720 O   0  0  0  0  0  0  0  0  0  0  0  0
   36.9160   28.1850   28.8900 O   0  0  0  0  0  0  0  0  0  0  0  0
   36.9250   28.6170   27.9760 H   0  0  0  0  0  0  0  0  0  0  0  0
  1  8  1  0  0  0  0
  2  1  2  0  0  0  0
  2  6  1  0  0  0  0
  3  2  1  0  0  0  0
  4  3  2  0  0  0  0
  4  5  1  0  0  0  0
  5  1  1  0  0  0  0
  7  3  1  0  0  0  0
  8 10  1  0  0  0  0
  8  9  2  0  0  0  0
 10 15  1  0  0  0  0
 11 10  2  0  0  0  0
 12 11  1  0  0  0  0
 12 13  2  0  0  0  0
 13 14  1  0  0  0  0
 14 15  2  0  0  0  0
 14 18  1  0  0  0  0
 16 11  1  0  0  0  0
 17 12  1  0  0  0  0
 19 20  1  0  0  0  0
 19  4  1  0  0  0  0
 20 29  1  0  0  0  0
 21 22  1  0  0  0  0
 21 20  2  0  0  0  0
 22 27  1  0  0  0  0
 23 22  1  0  0  0  0
 23 25  1  0  0  0  0
 24 23  2  0  0  0  0
 26 25  1  0  0  0  0
 27 25  1  1  0  0  0
 27 28  1  0  0  0  0
 29 30  1  0  0  0  0
 29 28  1  0  0  0  0
 31 21  1  0  0  0  0
 32 31  2  0  0  0  0
 33 31  1  0  0  0  0
 34 33  1  0  0  0  0
M  END
>  <minimizedAffinity>
-5.44388771

$$$$

 OpenBabel03272507113D

 34 37  0  0  1  0  0  0  0  0999 V2000
   37.6410   26.6150   34.2190 C   0  0  0  0  0  0  0  0  0  0  0  0
   36.8840   27.7320   33.9540 C   0  0  0  0  0  0  0  0  0  0  0  0
   36.3440   27.5370   32.6700 C   0  0  0  0  0  0  0  0  0  0  0  0
   36.8140   26.3090   32.2440 C   0  0  0  0  0  0  0  0  0  0  0  0
   37.5660   25.8210   33.1910 O   0  0  0  0  0  0  0  0  0  0  0  0
   36.7220   28.6040   34.5980 H   0  0  0  0  0  0  0  0  0  0  0  0
   35.6850   28.2360   32.1400 H   0  0  0  0  0  0  0  0  0  0  0  0
   38.3580   26.4650   35.4700 C   0  0  0  0  0  0  0  0  0  0  0  0
   38.6760   27.4900   36.1170 O   0  0  0  0  0  0  0  0  0  0  0  0
   38.6730   25.1250   35.9080 C   0  0  0  0  0  0  0  0  0  0  0  0
   37.7700   24.4950   36.7530 C   0  0  0  0  0  0  0  0  0  0  0  0
   38.0420   23.2060   37.1910 C   0  0  0  0  0  0  0  0  0  0  0  0
   39.2000   22.6190   36.7610 N   0  0  0  0  0  0  0  0  0  0  0  0
   40.0650   23.2490   35.9400 C   0  0  0  0  0  0  0  0  0  0  0  0
   39.8040   24.4870   35.5180 N   0  0  0  0  0  0  0  0  0  0  0  0
   36.8570   24.9530   37.0940 H   0  0  0  0  0  0  0  0  0  0  0  0
   37.3570   22.6900   37.8500 H   0  0  0  0  0  0  0  0  0  0  0  0
   40.9820   22.7290   35.6240 H   0  0  0  0  0  0  0  0  0  0  0  0
   36.4430   25.7610   30.9050 C   0  0  0  0  0  2  0  0  0  0  0  0
   36.7130   24.3120   30.9450 C   0  0  0  0  0  0  0  0  0  0  0  0
   37.8310   23.7510   30.5490 C   0  0  0  0  0  0  0  0  0  0  0  0
   37.9650   22.3470   30.6490 N   0  0  0  0  0  0  0  0  0  0  0  0
   38.4230   21.1260   30.0350 C   0  0  0  0  0  0  0  0  0  0  0  0
   39.1530   20.7980   29.0400 O   0  0  0  0  0  0  0  0  0  0  0  0
   37.7160   20.2750   31.0090 C   0  0  0  0  0  3  0  0  0  0  0  0
   38.3400   19.4940   31.4980 H   0  0  0  0  0  0  0  0  0  0  0  0
   37.5190   21.5380   31.7820 C   0  0  2  0  0  3  0  0  0  0  0  0
   35.7590   21.9550   32.0030 S   0  0  0  0  0  0  0  0  0  0  0  0
   35.4940   23.6740   31.4900 C   0  0  0  0  0  3  0  0  0  0  0  0
   35.1200   24.1920   32.4200 H   0  0  0  0  0  0  0  0  0  0  0  0
   38.9730   24.5170   30.0040 C   0  0  0  0  0  0  0  0  0  0  0  0
   39.9850   25.0560   30.4840 O   0  0  0  0  0  0  0  0  0  0  0  0
   39.1270   24.8020   28.6700 O   0  0  0  0  0  0  0  0  0  0  0  0
   39.3030   25.7410   28.3420 H   0  0  0  0  0  0  0  0  0  0  0  0
  1  8  1  0  0  0  0
  2  1  2  0  0  0  0
  2  6  1  0  0  0  0
  3  2  1  0  0  0  0
  4  3  2  0  0  0  0
  4  5  1  0  0  0  0
  5  1  1  0  0  0  0
  7  3  1  0  0  0  0
  8 10  1  0  0  0  0
  8  9  2  0  0  0  0
 10 11  1  0  0  0  0
 11 16  1  0  0  0  0
 11 12  2  0  0  0  0
 12 17  1  0  0  0  0
 13 12  1  0  0  0  0
 14 13  2  0  0  0  0
 15 10  2  0  0  0  0
 15 14  1  0  0  0  0
 18 14  1  0  0  0  0
 19 20  1  0  0  0  0
 19  4  1  0  0  0  0
 20 29  1  0  0  0  0
 21 22  1  0  0  0  0
 21 20  2  0  0  0  0
 22 27  1  0  0  0  0
 23 22  1  0  0  0  0
 23 25  1  0  0  0  0
 24 23  2  0  0  0  0
 25 26  1  0  0  0  0
 27 25  1  6  0  0  0
 27 28  1  0  0  0  0
 29 28  1  0  0  0  0
 29 30  1  0  0  0  0
 31 32  2  0  0  0  0
 31 21  1  0  0  0  0
 33 31  1  0  0  0  0
 34 33  1  0  0  0  0
M  END
>  <minimizedAffinity>
-5.37699175

$$$$

 OpenBabel03272507113D

 34 37  0  0  1  0  0  0  0  0999 V2000
   35.5200   28.8420   33.0780 C   0  0  0  0  0  0  0  0  0  0  0  0
   35.8090   28.9650   31.7390 C   0  0  0  0  0  0  0  0  0  0  0  0
   37.0420   28.3160   31.5500 C   0  0  0  0  0  0  0  0  0  0  0  0
   37.4170   27.8440   32.7950 C   0  0  0  0  0  0  0  0  0  0  0  0
   36.4870   28.1830   33.6440 O   0  0  0  0  0  0  0  0  0  0  0  0
   35.2140   29.4610   30.9640 H   0  0  0  0  0  0  0  0  0  0  0  0
   37.5750   28.2200   30.5970 H   0  0  0  0  0  0  0  0  0  0  0  0
   34.3070   29.4010   33.6450 C   0  0  0  0  0  0  0  0  0  0  0  0
   33.2010   29.0900   33.1440 O   0  0  0  0  0  0  0  0  0  0  0  0
   34.4410   30.2970   34.7690 C   0  0  0  0  0  0  0  0  0  0  0  0
   35.6820   30.8840   34.9800 C   0  0  0  0  0  0  0  0  0  0  0  0
   35.8450   31.7510   36.0510 C   0  0  0  0  0  0  0  0  0  0  0  0
   34.7610   31.9850   36.8520 N   0  0  0  0  0  0  0  0  0  0  0  0
   33.5640   31.4040   36.6300 C   0  0  0  0  0  0  0  0  0  0  0  0
   33.4060   30.5700   35.6010 N   0  0  0  0  0  0  0  0  0  0  0  0
   36.5380   30.7040   34.3520 H   0  0  0  0  0  0  0  0  0  0  0  0
   36.8000   32.2230   36.2400 H   0  0  0  0  0  0  0  0  0  0  0  0
   32.7250   31.6270   37.3060 H   0  0  0  0  0  0  0  0  0  0  0  0
   38.6920   27.0910   32.9850 C   0  0  0  0  0  2  0  0  0  0  0  0
   38.3260   25.7210   33.3870 C   0  0  0  0  0  0  0  0  0  0  0  0
   38.0980   24.7340   32.5530 C   0  0  0  0  0  0  0  0  0  0  0  0
   37.7620   23.4620   33.0730 N   0  0  0  0  0  0  0  0  0  0  0  0
   36.9340   22.2880   32.9610 C   0  0  0  0  0  0  0  0  0  0  0  0
   36.1350   21.7870   32.1010 O   0  0  0  0  0  0  0  0  0  0  0  0
   37.3320   21.7830   34.2870 C   0  0  0  0  0  3  0  0  0  0  0  0
   37.6900   20.7290   34.3060 H   0  0  0  0  0  0  0  0  0  0  0  0
   38.3910   22.8360   34.2340 C   0  0  2  0  0  3  0  0  0  0  0  0
   38.2320   24.0550   35.5790 S   0  0  0  0  0  0  0  0  0  0  0  0
   38.2630   25.7220   34.8660 C   0  0  0  0  0  3  0  0  0  0  0  0
   39.1680   26.2110   35.3310 H   0  0  0  0  0  0  0  0  0  0  0  0
   38.1810   24.8810   31.0830 C   0  0  0  0  0  0  0  0  0  0  0  0
   39.1030   24.9560   30.2540 O   0  0  0  0  0  0  0  0  0  0  0  0
   37.0810   24.9720   30.2680 O   0  0  0  0  0  0  0  0  0  0  0  0
   36.9810   25.7130   29.5880 H   0  0  0  0  0  0  0  0  0  0  0  0
  1  5  1  0  0  0  0
  1  8  1  0  0  0  0
  2  1  2  0  0  0  0
  3  2  1  0  0  0  0
  3  4  2  0  0  0  0
  4 19  1  0  0  0  0
  4  5  1  0  0  0  0
  6  2  1  0  0  0  0
  7  3  1  0  0  0  0
  8 10  1  0  0  0  0
  9  8  2  0  0  0  0
 10 11  2  0  0  0  0
 10 15  1  0  0  0  0
 11 12  1  0  0  0  0
 12 17  1  0  0  0  0
 12 13  2  0  0  0  0
 14 13  1  0  0  0  0
 14 18  1  0  0  0  0
 15 14  2  0  0  0  0
 16 11  1  0  0  0  0
 19 20  1  0  0  0  0
 20 29  1  0  0  0  0
 21 22  1  0  0  0  0
 21 20  2  0  0  0  0
 22 27  1  0  0  0  0
 23 22  1  0  0  0  0
 23 25  1  0  0  0  0
 24 23  2  0  0  0  0
 25 26  1  0  0  0  0
 27 25  1  1  0  0  0
 27 28  1  0  0  0  0
 29 30  1  0  0  0  0
 29 28  1  0  0  0  0
 31 21  1  0  0  0  0
 32 31  2  0  0  0  0
 33 31  1  0  0  0  0
 34 33  1  0  0  0  0
M  END
>  <minimizedAffinity>
-5.35792303

$$$$

 OpenBabel03272507113D

 34 37  0  0  1  0  0  0  0  0999 V2000
   36.2790   28.5880   33.9770 C   0  0  0  0  0  0  0  0  0  0  0  0
   36.9070   27.6660   34.7820 C   0  0  0  0  0  0  0  0  0  0  0  0
   37.6820   26.8670   33.9220 C   0  0  0  0  0  0  0  0  0  0  0  0
   37.4670   27.3630   32.6490 C   0  0  0  0  0  0  0  0  0  0  0  0
   36.6390   28.3660   32.7480 O   0  0  0  0  0  0  0  0  0  0  0  0
   36.8330   27.5600   35.8700 H   0  0  0  0  0  0  0  0  0  0  0  0
   38.3170   26.0280   34.2270 H   0  0  0  0  0  0  0  0  0  0  0  0
   35.3850   29.5890   34.5280 C   0  0  0  0  0  0  0  0  0  0  0  0
   35.8630   30.5170   35.2210 O   0  0  0  0  0  0  0  0  0  0  0  0
   33.9750   29.4580   34.2460 C   0  0  0  0  0  0  0  0  0  0  0  0
   33.1080   29.3680   35.3260 C   0  0  0  0  0  0  0  0  0  0  0  0
   31.7460   29.2430   35.0890 C   0  0  0  0  0  0  0  0  0  0  0  0
   31.3250   29.2150   33.7880 N   0  0  0  0  0  0  0  0  0  0  0  0
   32.1850   29.3040   32.7520 C   0  0  0  0  0  0  0  0  0  0  0  0
   33.4940   29.4240   32.9790 N   0  0  0  0  0  0  0  0  0  0  0  0
   33.4330   29.3900   36.3520 H   0  0  0  0  0  0  0  0  0  0  0  0
   31.0460   29.1700   35.9110 H   0  0  0  0  0  0  0  0  0  0  0  0
   31.7930   29.2760   31.7240 H   0  0  0  0  0  0  0  0  0  0  0  0
   38.1350   26.7560   31.4590 C   0  0  0  0  0  2  0  0  0  0  0  0
   37.9620   25.2960   31.5690 C   0  0  0  0  0  0  0  0  0  0  0  0
   36.8370   24.6590   31.3420 C   0  0  0  0  0  0  0  0  0  0  0  0
   36.8080   23.2520   31.4750 N   0  0  0  0  0  0  0  0  0  0  0  0
   36.0890   22.0930   31.9410 C   0  0  0  0  0  0  0  0  0  0  0  0
   34.9130   21.8310   32.3620 O   0  0  0  0  0  0  0  0  0  0  0  0
   37.2500   21.2020   31.7650 C   0  0  0  0  0  3  0  0  0  0  0  0
   37.0540   20.2770   31.1770 H   0  0  0  0  0  0  0  0  0  0  0  0
   37.8550   22.3420   31.0130 C   0  0  2  0  0  3  0  0  0  0  0  0
   39.3900   22.9510   31.7830 S   0  0  0  0  0  0  0  0  0  0  0  0
   39.2720   24.7490   31.9850 C   0  0  0  0  0  3  0  0  0  0  0  0
   40.1220   25.1590   31.3670 H   0  0  0  0  0  0  0  0  0  0  0  0
   35.5860   25.3420   30.9440 C   0  0  0  0  0  0  0  0  0  0  0  0
   34.3830   25.2150   31.2240 O   0  0  0  0  0  0  0  0  0  0  0  0
   35.5450   26.3940   30.0640 O   0  0  0  0  0  0  0  0  0  0  0  0
   34.9210   26.3990   29.2680 H   0  0  0  0  0  0  0  0  0  0  0  0
  1  8  1  0  0  0  0
  1  2  2  0  0  0  0
  2  6  1  0  0  0  0
  3  7  1  0  0  0  0
  3  2  1  0  0  0  0
  4  5  1  0  0  0  0
  4  3  2  0  0  0  0
  5  1  1  0  0  0  0
  8  9  2  0  0  0  0
 10  8  1  0  0  0  0
 10 11  1  0  0  0  0
 11 16  1  0  0  0  0
 12 11  2  0  0  0  0
 12 17  1  0  0  0  0
 13 12  1  0  0  0  0
 14 15  1  0  0  0  0
 14 13  2  0  0  0  0
 15 10  2  0  0  0  0
 18 14  1  0  0  0  0
 19 20  1  0  0  0  0
 19  4  1  0  0  0  0
 20 29  1  0  0  0  0
 21 22  1  0  0  0  0
 21 20  2  0  0  0  0
 22 23  1  0  0  0  0
 23 24  2  0  0  0  0
 25 23  1  0  0  0  0
 26 25  1  0  0  0  0
 27 22  1  0  0  0  0
 27 25  1  1  0  0  0
 27 28  1  0  0  0  0
 28 29  1  0  0  0  0
 30 29  1  0  0  0  0
 31 32  2  0  0  0  0
 31 21  1  0  0  0  0
 33 31  1  0  0  0  0
 34 33  1  0  0  0  0
M  END
>  <minimizedAffinity>
-5.32126236

$$$$
