
 OpenBabel03262521233D

 54 58  0  0  1  0  0  0  0  0999 V2000
   39.8790   25.1580   53.3880 C   0  0  0  0  0  0  0  0  0  0  0  0
   39.6070   26.1480   52.4520 C   0  0  0  0  0  0  0  0  0  0  0  0
   40.1930   25.9550   51.1840 C   0  0  0  0  0  0  0  0  0  0  0  0
   40.9740   24.8860   50.8700 C   0  0  0  0  0  0  0  0  0  0  0  0
   41.6350   24.4680   49.7980 N   0  0  0  0  0  0  0  0  0  0  0  0
   42.2890   23.2770   50.0430 C   0  0  0  0  0  0  0  0  0  0  0  0
   42.0010   22.9400   51.3820 C   0  0  0  0  0  0  0  0  0  0  0  0
   41.2000   23.9470   51.8410 C   0  0  0  0  0  0  0  0  0  0  0  0
   40.6620   24.0820   53.0750 C   0  0  0  0  0  0  0  0  0  0  0  0
   39.3850   25.3960   54.3250 H   0  0  0  0  0  0  0  0  0  0  0  0
   40.0470   26.6770   50.3640 H   0  0  0  0  0  0  0  0  0  0  0  0
   41.6520   24.9860   48.8860 H   0  0  0  0  0  0  0  0  0  0  0  0
   42.8840   22.7430   49.3440 H   0  0  0  0  0  0  0  0  0  0  0  0
   42.4180   22.0380   51.7910 H   0  0  0  0  0  0  0  0  0  0  0  0
   38.6350   27.6080   52.6200 S   0  0  0  0  0  0  0  0  0  0  0  0
   38.0230   28.2910   51.0980 C   0  0  0  0  0  0  0  0  0  0  0  0
   38.8860   28.8070   50.5920 H   0  0  0  0  0  0  0  0  0  0  0  0
   37.7210   27.4770   50.4030 H   0  0  0  0  0  0  0  0  0  0  0  0
   36.9140   29.3090   51.2720 C   0  0  0  0  0  0  0  0  0  0  0  0
   36.0650   28.9400   50.6520 H   0  0  0  0  0  0  0  0  0  0  0  0
   36.5450   29.1450   52.3290 H   0  0  0  0  0  0  0  0  0  0  0  0
   37.3040   30.5930   51.0490 C   0  0  0  0  0  0  0  0  0  0  0  0
   38.4240   30.7420   51.0850 H   0  0  0  0  0  0  0  0  0  0  0  0
   36.8260   31.3760   51.6740 H   0  0  0  0  0  0  0  0  0  0  0  0
   36.8870   30.7110   49.7480 O   0  0  0  0  0  0  0  0  0  0  0  0
   37.7430   31.2750   48.8470 C   0  0  0  0  0  0  0  0  0  0  0  0
   38.1190   32.5530   49.1810 C   0  0  0  0  0  0  0  0  0  0  0  0
   39.0010   33.2500   48.3350 C   0  0  0  0  0  0  0  0  0  0  0  0
   39.4350   32.6020   47.2200 N   0  0  0  0  0  0  0  0  0  0  0  0
   39.0440   31.3240   46.9110 C   0  0  0  0  0  0  0  0  0  0  0  0
   38.1970   30.6790   47.7400 N   0  0  0  0  0  0  0  0  0  0  0  0
   40.3960   31.5890   44.9620 C   0  0  0  0  0  0  0  0  0  0  0  0
   40.7100   32.7750   45.2510 O   0  0  0  0  0  0  0  0  0  0  0  0
   39.5540   30.7420   45.7250 N   0  0  0  0  0  0  0  0  0  0  0  0
   37.8440   33.1660   50.0280 H   0  0  0  0  0  0  0  0  0  0  0  0
   39.3490   34.2440   48.5090 H   0  0  0  0  0  0  0  0  0  0  0  0
   40.8520   31.2520   44.0240 H   0  0  0  0  0  0  0  0  0  0  0  0
   39.3350   29.7850   45.4380 H   0  0  0  0  0  0  0  0  0  0  0  0
   40.7600   23.1660   54.2420 C   0  0  0  0  0  2  0  0  0  0  0  0
   42.0030   23.3110   55.0370 C   0  0  0  0  0  0  0  0  0  0  0  0
   42.7630   22.2220   55.1640 C   0  0  0  0  0  0  0  0  0  0  0  0
   43.9780   22.0420   55.8430 N   0  0  0  0  0  0  0  0  0  0  0  0
   44.9640   21.2350   56.4700 C   0  0  0  0  0  0  0  0  0  0  0  0
   45.3370   20.0420   56.2250 O   0  0  0  0  0  0  0  0  0  0  0  0
   45.2300   22.3770   57.3860 C   0  0  0  0  0  3  0  0  0  0  0  0
   46.2780   22.5360   57.6840 H   0  0  0  0  0  0  0  0  0  0  0  0
   44.7920   23.1720   56.1500 C   0  0  2  0  0  3  0  0  0  0  0  0
   43.8000   24.5700   56.6820 S   0  0  0  0  0  0  0  0  0  0  0  0
   42.3250   24.6270   55.6330 C   0  0  0  0  0  3  0  0  0  0  0  0
   42.5220   25.3040   54.7620 H   0  0  0  0  0  0  0  0  0  0  0  0
   42.2620   21.0000   54.4870 C   0  0  0  0  0  0  0  0  0  0  0  0
   42.9790   20.3710   53.6310 O   0  0  0  0  0  0  0  0  0  0  0  0
   41.5610   19.9070   54.0150 O   0  0  0  0  0  0  0  0  0  0  0  0
   40.6050   19.9790   53.6940 H   0  0  0  0  0  0  0  0  0  0  0  0
  1 10  1  0  0  0  0
  2 15  1  0  0  0  0
  2  1  2  0  0  0  0
  3  2  1  0  0  0  0
  4  3  2  0  0  0  0
  4  8  1  0  0  0  0
  5  6  1  0  0  0  0
  5  4  1  0  0  0  0
  6  7  2  0  0  0  0
  7 14  1  0  0  0  0
  7  8  1  0  0  0  0
  8  9  2  0  0  0  0
  9  1  1  0  0  0  0
  9 39  1  0  0  0  0
 11  3  1  0  0  0  0
 12  5  1  0  0  0  0
 13  6  1  0  0  0  0
 16 19  1  0  0  0  0
 16 15  1  0  0  0  0
 17 16  1  0  0  0  0
 18 16  1  0  0  0  0
 19 21  1  0  0  0  0
 20 19  1  0  0  0  0
 22 23  1  0  0  0  0
 22 19  1  0  0  0  0
 22 24  1  0  0  0  0
 25 22  1  0  0  0  0
 26 27  1  0  0  0  0
 26 25  1  0  0  0  0
 27 35  1  0  0  0  0
 28 36  1  0  0  0  0
 28 27  2  0  0  0  0
 29 28  1  0  0  0  0
 30 29  2  0  0  0  0
 30 31  1  0  0  0  0
 31 26  2  0  0  0  0
 32 33  2  0  0  0  0
 32 34  1  0  0  0  0
 34 30  1  0  0  0  0
 37 32  1  0  0  0  0
 38 34  1  0  0  0  0
 39 40  1  0  0  0  0
 40 41  2  0  0  0  0
 40 49  1  0  0  0  0
 41 42  1  0  0  0  0
 42 47  1  0  0  0  0
 42 43  1  0  0  0  0
 43 45  1  0  0  0  0
 44 43  2  0  0  0  0
 45 46  1  0  0  0  0
 47 48  1  1  0  0  0
 47 45  1  0  0  0  0
 49 48  1  0  0  0  0
 50 49  1  0  0  0  0
 51 41  1  0  0  0  0
 52 51  2  0  0  0  0
 53 51  1  0  0  0  0
 54 53  1  0  0  0  0
M  END
>  <minimizedAffinity>
-4.33553267

>  <minimizedRMSD>
1.13508081

$$$$
