
 OpenBabel03272506173D

 41 44  0  0  1  0  0  0  0  0999 V2000
   34.5530   29.6850   49.0320 C   0  0  0  0  0  0  0  0  0  0  0  0
   34.3880   30.2580   47.7590 C   0  0  0  0  0  0  0  0  0  0  0  0
   33.5520   29.5840   46.8680 C   0  0  0  0  0  0  0  0  0  0  0  0
   32.9350   28.4160   47.2640 N   0  0  0  0  0  0  0  0  0  0  0  0
   33.1290   27.9000   48.5170 C   0  0  0  0  0  0  0  0  0  0  0  0
   33.9320   28.5430   49.3720 N   0  0  0  0  0  0  0  0  0  0  0  0
   34.8490   31.1690   47.4060 H   0  0  0  0  0  0  0  0  0  0  0  0
   32.6260   26.9920   48.7660 H   0  0  0  0  0  0  0  0  0  0  0  0
   35.4440   30.4270   49.9770 C   0  0  0  0  0  0  0  0  0  0  0  0
   36.4410   31.2510   49.1870 C   0  0  0  0  0  0  0  0  0  0  0  0
   37.8460   30.7410   49.3190 C   0  0  0  0  0  0  0  0  0  0  0  0
   38.2910   30.6180   50.7530 C   0  0  0  0  0  0  0  0  0  0  0  0
   37.2600   29.9900   51.6390 C   0  0  0  0  0  0  0  0  0  0  0  0
   36.0800   29.4270   50.8800 C   0  0  0  0  0  0  0  0  0  0  0  0
   34.8130   31.1160   50.5620 H   0  0  0  0  0  0  0  0  0  0  0  0
   36.3990   32.2960   49.5110 H   0  0  0  0  0  0  0  0  0  0  0  0
   36.1920   31.1710   48.0950 H   0  0  0  0  0  0  0  0  0  0  0  0
   38.4990   31.5340   48.8550 H   0  0  0  0  0  0  0  0  0  0  0  0
   37.9320   29.7630   48.8020 H   0  0  0  0  0  0  0  0  0  0  0  0
   38.5590   31.5980   51.1710 H   0  0  0  0  0  0  0  0  0  0  0  0
   39.2440   30.0190   50.7340 H   0  0  0  0  0  0  0  0  0  0  0  0
   36.9300   30.6640   52.4430 H   0  0  0  0  0  0  0  0  0  0  0  0
   37.7320   29.1080   52.1470 H   0  0  0  0  0  0  0  0  0  0  0  0
   36.3710   28.4840   50.3720 H   0  0  0  0  0  0  0  0  0  0  0  0
   35.3380   29.1180   51.6480 H   0  0  0  0  0  0  0  0  0  0  0  0
   33.2710   30.0600   45.4740 C   0  0  0  0  0  2  0  0  0  0  0  0
   34.1100   29.4300   44.4550 C   0  0  0  0  0  0  0  0  0  0  0  0
   33.6970   28.4900   43.6180 C   0  0  0  0  0  0  0  0  0  0  0  0
   34.5980   27.9580   42.6780 N   0  0  0  0  0  0  0  0  0  0  0  0
   34.7990   27.4220   41.4010 C   0  0  0  0  0  0  0  0  0  0  0  0
   34.1020   26.8890   40.4830 O   0  0  0  0  0  0  0  0  0  0  0  0
   36.2400   27.6850   41.4210 C   0  0  0  0  0  3  0  0  0  0  0  0
   36.4880   28.6260   40.8990 H   0  0  0  0  0  0  0  0  0  0  0  0
   36.0220   27.7950   42.9170 C   0  0  1  0  0  3  0  0  0  0  0  0
   36.6870   29.4030   43.4680 S   0  0  0  0  0  0  0  0  0  0  0  0
   35.4350   30.0720   44.5950 C   0  0  0  0  0  3  0  0  0  0  0  0
   35.4060   31.1810   44.5630 H   0  0  0  0  0  0  0  0  0  0  0  0
   32.3350   27.9710   43.6250 C   0  0  0  0  0  0  0  0  0  0  0  0
   31.4810   27.5790   44.4500 O   0  0  0  0  0  0  0  0  0  0  0  0
   31.6030   27.7880   42.4750 O   0  0  0  0  0  0  0  0  0  0  0  0
   30.6440   28.0650   42.2980 H   0  0  0  0  0  0  0  0  0  0  0  0
  1  6  1  0  0  0  0
  1  9  1  0  0  0  0
  2  1  2  0  0  0  0
  3  4  2  0  0  0  0
  3  2  1  0  0  0  0
  4  5  1  0  0  0  0
  5  8  1  0  0  0  0
  5  6  2  0  0  0  0
  7  2  1  0  0  0  0
  9 15  1  0  0  0  0
  9 14  1  0  0  0  0
 10 11  1  0  0  0  0
 10 16  1  0  0  0  0
 10  9  1  0  0  0  0
 11 12  1  0  0  0  0
 12 20  1  0  0  0  0
 12 13  1  0  0  0  0
 13 23  1  0  0  0  0
 13 22  1  0  0  0  0
 14 13  1  0  0  0  0
 14 25  1  0  0  0  0
 17 10  1  0  0  0  0
 18 11  1  0  0  0  0
 19 11  1  0  0  0  0
 21 12  1  0  0  0  0
 24 14  1  0  0  0  0
 26  3  1  0  0  0  0
 27 36  1  0  0  0  0
 27 26  1  0  0  0  0
 28 38  1  0  0  0  0
 28 27  2  0  0  0  0
 29 34  1  0  0  0  0
 29 28  1  0  0  0  0
 30 32  1  0  0  0  0
 30 29  1  0  0  0  0
 31 30  2  0  0  0  0
 33 32  1  0  0  0  0
 34 32  1  6  0  0  0
 34 35  1  0  0  0  0
 35 36  1  0  0  0  0
 37 36  1  0  0  0  0
 38 39  2  0  0  0  0
 40 38  1  0  0  0  0
 41 40  1  0  0  0  0
M  END
>  <minimizedAffinity>
-4.93714809

>  <minimizedRMSD>
1.72195005

$$$$
