
 OpenBabel03272509403D

 42 45  0  0  1  0  0  0  0  0999 V2000
   37.0000   30.9970   49.1230 C   0  0  0  0  0  0  0  0  0  0  0  0
   36.6160   31.8650   50.1430 C   0  0  0  0  0  0  0  0  0  0  0  0
   37.1320   33.1500   50.2770 C   0  0  0  0  0  0  0  0  0  0  0  0
   38.0820   33.6010   49.3510 C   0  0  0  0  0  0  0  0  0  0  0  0
   38.4500   32.7380   48.3560 C   0  0  0  0  0  0  0  0  0  0  0  0
   37.9150   31.4710   48.2550 C   0  0  0  0  0  0  0  0  0  0  0  0
   35.8780   31.5720   50.8970 H   0  0  0  0  0  0  0  0  0  0  0  0
   36.8000   33.7850   51.0870 H   0  0  0  0  0  0  0  0  0  0  0  0
   38.4690   34.6030   49.4750 H   0  0  0  0  0  0  0  0  0  0  0  0
   39.1890   33.1730   47.6870 H   0  0  0  0  0  0  0  0  0  0  0  0
   36.4050   29.6850   49.0720 C   0  0  0  0  0  0  0  0  0  0  0  0
   37.0160   28.7970   49.7670 O   0  0  0  0  0  0  0  0  0  0  0  0
   33.6690   30.1190   46.7330 C   0  0  0  0  0  0  0  0  0  0  0  0
   32.9780   28.9180   46.7760 C   0  0  0  0  0  0  0  0  0  0  0  0
   33.4530   27.9430   47.6180 C   0  0  0  0  0  0  0  0  0  0  0  0
   34.5630   28.1800   48.3680 N   0  0  0  0  0  0  0  0  0  0  0  0
   35.2030   29.3350   48.3050 C   0  0  0  0  0  0  0  0  0  0  0  0
   34.7470   30.3050   47.4810 N   0  0  0  0  0  0  0  0  0  0  0  0
   33.3470   30.9460   46.0830 H   0  0  0  0  0  0  0  0  0  0  0  0
   32.1130   28.8650   46.1290 H   0  0  0  0  0  0  0  0  0  0  0  0
   32.9170   27.0220   47.6480 H   0  0  0  0  0  0  0  0  0  0  0  0
   38.4230   30.6900   47.1420 C   0  0  0  0  0  3  0  0  0  0  0  0
   39.3170   31.0720   46.2400 C   0  0  0  0  0  3  0  0  0  0  0  0
   39.9080   30.3860   45.0920 C   0  0  0  0  0  0  0  0  0  0  0  0
   40.5320   31.0840   44.5040 H   0  0  0  0  0  0  0  0  0  0  0  0
   40.6350   29.6110   45.4680 H   0  0  0  0  0  0  0  0  0  0  0  0
   38.5610   28.2940   40.3090 C   0  0  0  0  0  0  0  0  0  0  0  0
   38.7100   29.5350   40.7410 C   0  0  0  0  0  0  0  0  0  0  0  0
   38.7520   29.7660   42.1640 N   0  0  0  0  0  0  0  0  0  0  0  0
   38.2920   30.6110   43.2400 C   0  0  0  0  0  0  0  0  0  0  0  0
   37.6340   31.7000   43.3600 O   0  0  0  0  0  0  0  0  0  0  0  0
   38.9110   29.6760   44.2020 C   0  0  1  0  0  3  0  0  0  0  0  0
   39.5220   28.9020   43.0750 C   0  0  1  0  0  3  0  0  0  0  0  0
   38.9190   27.2400   42.8260 S   0  0  0  0  0  0  0  0  0  0  0  0
   38.4100   27.0520   41.1030 C   0  0  0  0  0  3  0  0  0  0  0  0
   37.3600   26.6530   41.0410 H   0  0  0  0  0  0  0  0  0  0  0  0
   38.5280   28.0770   38.8640 C   0  0  0  0  0  2  0  0  0  0  0  0
   39.4750   28.4540   38.4260 H   0  0  0  0  0  0  0  0  0  0  0  0
   38.8400   30.6810   39.8470 C   0  0  0  0  0  0  0  0  0  0  0  0
   39.8910   31.1580   39.3840 O   0  0  0  0  0  0  0  0  0  0  0  0
   37.7890   31.4130   39.3800 O   0  0  0  0  0  0  0  0  0  0  0  0
   37.7250   31.7040   38.4280 H   0  0  0  0  0  0  0  0  0  0  0  0
  1  2  1  0  0  0  0
  2  3  2  0  0  0  0
  2  7  1  0  0  0  0
  3  8  1  0  0  0  0
  4  9  1  0  0  0  0
  4  3  1  0  0  0  0
  5  4  2  0  0  0  0
  6  5  1  0  0  0  0
  6  1  2  0  0  0  0
 10  5  1  0  0  0  0
 11  1  1  0  0  0  0
 11 12  2  0  0  0  0
 13 14  2  0  0  0  0
 13 18  1  0  0  0  0
 14 15  1  0  0  0  0
 15 21  1  0  0  0  0
 15 16  2  0  0  0  0
 17 16  1  0  0  0  0
 17 11  1  0  0  0  0
 18 17  2  0  0  0  0
 19 13  1  0  0  0  0
 20 14  1  0  0  0  0
 22  6  1  0  0  0  0
 23 22  2  0  0  0  0
 24 26  1  0  0  0  0
 24 23  1  0  0  0  0
 25 24  1  0  0  0  0
 27 28  2  0  0  0  0
 27 35  1  0  0  0  0
 28 29  1  0  0  0  0
 29 33  1  0  0  0  0
 29 30  1  0  0  0  0
 30 31  2  0  0  0  0
 30 32  1  0  0  0  0
 32 24  1  1  0  0  0
 33 34  1  1  0  0  0
 33 32  1  0  0  0  0
 35 34  1  0  0  0  0
 36 35  1  0  0  0  0
 37 27  1  0  0  0  0
 38 37  1  0  0  0  0
 39 28  1  0  0  0  0
 40 39  2  0  0  0  0
 41 39  1  0  0  0  0
 42 41  1  0  0  0  0
M  END
>  <minimizedAffinity>
-5.86202574

>  <minimizedRMSD>
1.65189922

$$$$
