
 OpenBabel03272507333D

 43 48  0  0  1  0  0  0  0  0999 V2000
   33.2110   26.7490   47.2490 C   0  0  1  0  0  0  0  0  0  0  0  0
   33.8850   25.4260   47.7900 C   0  0  0  0  0  0  0  0  0  0  0  0
   32.5830   25.4350   47.0820 C   0  0  2  0  0  0  0  0  0  0  0  0
   33.9490   27.2370   46.5790 H   0  0  0  0  0  0  0  0  0  0  0  0
   33.8800   25.2590   48.8610 H   0  0  0  0  0  0  0  0  0  0  0  0
   34.7680   25.0690   47.2470 H   0  0  0  0  0  0  0  0  0  0  0  0
   31.6460   25.3180   47.6870 H   0  0  0  0  0  0  0  0  0  0  0  0
   32.8130   27.6150   48.4100 C   0  0  0  0  0  0  0  0  0  0  0  0
   31.6040   27.6800   48.8080 O   0  0  0  0  0  0  0  0  0  0  0  0
   35.7640   29.1600   49.7170 C   0  0  0  0  0  0  0  0  0  0  0  0
   34.8200   29.8300   50.4760 C   0  0  0  0  0  0  0  0  0  0  0  0
   33.5580   29.3480   50.0950 C   0  0  0  0  0  0  0  0  0  0  0  0
   33.8160   28.4080   49.1210 C   0  0  0  0  0  0  0  0  0  0  0  0
   35.1170   28.3350   48.9360 O   0  0  0  0  0  0  0  0  0  0  0  0
   34.8810   30.6010   51.2530 H   0  0  0  0  0  0  0  0  0  0  0  0
   32.5900   29.6510   50.4830 H   0  0  0  0  0  0  0  0  0  0  0  0
   37.1830   29.4160   49.8580 C   0  0  0  0  0  0  0  0  0  0  0  0
   37.8540   28.7130   50.6280 O   0  0  0  0  0  0  0  0  0  0  0  0
   37.7330   30.4920   49.0790 C   0  0  0  0  0  0  0  0  0  0  0  0
   38.0890   31.6450   49.7580 C   0  0  0  0  0  0  0  0  0  0  0  0
   38.6230   32.7090   49.0270 C   0  0  0  0  0  0  0  0  0  0  0  0
   38.7690   32.5560   47.6670 N   0  0  0  0  0  0  0  0  0  0  0  0
   38.4130   31.4250   47.0480 C   0  0  0  0  0  0  0  0  0  0  0  0
   37.9000   30.4000   47.7380 N   0  0  0  0  0  0  0  0  0  0  0  0
   37.9730   31.7580   50.8220 H   0  0  0  0  0  0  0  0  0  0  0  0
   38.9120   33.6310   49.5370 H   0  0  0  0  0  0  0  0  0  0  0  0
   38.5400   31.3360   45.9720 H   0  0  0  0  0  0  0  0  0  0  0  0
   32.5570   24.7110   45.7700 C   0  0  0  0  0  2  0  0  0  0  0  0
   31.8780   23.4130   45.8180 C   0  0  0  0  0  0  0  0  0  0  0  0
   30.5870   23.1940   45.6250 C   0  0  0  0  0  0  0  0  0  0  0  0
   30.0460   21.8810   45.7090 N   0  0  0  0  0  0  0  0  0  0  0  0
   28.8980   21.0570   45.5690 C   0  0  1  0  0  0  0  0  0  0  0  0
   27.6460   21.1710   45.7330 O   0  0  0  0  0  1  0  0  0  0  0  0
   29.7790   19.9500   45.1330 C   0  0  0  0  0  3  0  0  0  0  0  0
   30.0760   19.9380   44.0780 H   0  0  0  0  0  0  0  0  0  0  0  0
   30.7220   20.6690   46.0730 C   0  0  1  0  0  0  0  0  0  0  0  0
   32.4300   20.7250   45.5410 S   0  0  0  0  0  0  0  0  0  0  0  0
   32.8730   22.3780   46.1280 C   0  0  0  0  0  3  0  0  0  0  0  0
   33.0090   22.2980   47.2410 H   0  0  0  0  0  0  0  0  0  0  0  0
   29.6350   24.2880   45.3230 C   0  0  0  0  0  0  0  0  0  0  0  0
   29.6730   25.2510   44.5540 O   0  0  0  0  0  0  0  0  0  0  0  0
   28.4140   24.4000   45.9390 O   0  0  0  0  0  0  0  0  0  0  0  0
   27.5800   24.6200   45.4460 H   0  0  0  0  0  0  0  0  0  0  0  0
  1  4  1  6  0  0  0
  1  2  1  0  0  0  0
  1  8  1  0  0  0  0
  2  5  1  0  0  0  0
  3  1  1  0  0  0  0
  3  7  1  1  0  0  0
  3  2  1  0  0  0  0
  6  2  1  0  0  0  0
  8  9  2  0  0  0  0
  8 13  1  0  0  0  0
 10 17  1  0  0  0  0
 10 11  2  0  0  0  0
 11 15  1  0  0  0  0
 12 11  1  0  0  0  0
 12 16  1  0  0  0  0
 13 12  2  0  0  0  0
 14 13  1  0  0  0  0
 14 10  1  0  0  0  0
 17 18  2  0  0  0  0
 19 20  1  0  0  0  0
 19 17  1  0  0  0  0
 20 25  1  0  0  0  0
 21 26  1  0  0  0  0
 21 20  2  0  0  0  0
 22 21  1  0  0  0  0
 23 22  2  0  0  0  0
 23 24  1  0  0  0  0
 24 19  2  0  0  0  0
 27 23  1  0  0  0  0
 28 29  1  0  0  0  0
 28  3  1  0  0  0  0
 29 38  1  0  0  0  0
 30 31  1  0  0  0  0
 30 29  2  0  0  0  0
 31 36  1  0  0  0  0
 32 31  1  0  0  0  0
 32 33  1  1  0  0  0
 32 36  1  0  0  0  0
 34 32  1  0  0  0  0
 35 34  1  0  0  0  0
 36 34  1  6  0  0  0
 37 36  1  0  0  0  0
 37 38  1  0  0  0  0
 38 39  1  0  0  0  0
 40 30  1  0  0  0  0
 40 42  1  0  0  0  0
 41 40  2  0  0  0  0
 43 42  1  0  0  0  0
M  END
>  <minimizedAffinity>
-5.27029037

>  <minimizedRMSD>
2.23066425

$$$$
