
 OpenBabel03272506173D

 41 44  0  0  1  0  0  0  0  0999 V2000
   34.5150   29.6370   49.0190 C   0  0  0  0  0  0  0  0  0  0  0  0
   34.2890   30.1670   47.7360 C   0  0  0  0  0  0  0  0  0  0  0  0
   33.4310   29.4510   46.9000 C   0  0  0  0  0  0  0  0  0  0  0  0
   32.8550   28.2840   47.3550 N   0  0  0  0  0  0  0  0  0  0  0  0
   33.1080   27.8110   48.6150 C   0  0  0  0  0  0  0  0  0  0  0  0
   33.9310   28.4950   49.4170 N   0  0  0  0  0  0  0  0  0  0  0  0
   34.7170   31.0750   47.3380 H   0  0  0  0  0  0  0  0  0  0  0  0
   32.6330   26.9020   48.9110 H   0  0  0  0  0  0  0  0  0  0  0  0
   35.4280   30.4250   49.9040 C   0  0  0  0  0  0  0  0  0  0  0  0
   36.4260   31.1840   49.0520 C   0  0  0  0  0  0  0  0  0  0  0  0
   37.8250   30.6630   49.1980 C   0  0  0  0  0  0  0  0  0  0  0  0
   38.2870   30.6240   50.6320 C   0  0  0  0  0  0  0  0  0  0  0  0
   37.2590   30.0670   51.5690 C   0  0  0  0  0  0  0  0  0  0  0  0
   36.0630   29.4740   50.8600 C   0  0  0  0  0  0  0  0  0  0  0  0
   34.8140   31.1570   50.4520 H   0  0  0  0  0  0  0  0  0  0  0  0
   36.4010   32.2470   49.3100 H   0  0  0  0  0  0  0  0  0  0  0  0
   36.1610   31.0390   47.9700 H   0  0  0  0  0  0  0  0  0  0  0  0
   38.4830   31.4170   48.6780 H   0  0  0  0  0  0  0  0  0  0  0  0
   37.8920   29.6540   48.7430 H   0  0  0  0  0  0  0  0  0  0  0  0
   38.5730   31.6250   50.9840 H   0  0  0  0  0  0  0  0  0  0  0  0
   39.2310   30.0120   50.6400 H   0  0  0  0  0  0  0  0  0  0  0  0
   36.9490   30.7950   52.3330 H   0  0  0  0  0  0  0  0  0  0  0  0
   37.7260   29.2120   52.1250 H   0  0  0  0  0  0  0  0  0  0  0  0
   36.3350   28.4970   50.4090 H   0  0  0  0  0  0  0  0  0  0  0  0
   35.3260   29.2240   51.6550 H   0  0  0  0  0  0  0  0  0  0  0  0
   33.0860   29.8790   45.5050 C   0  0  0  0  0  2  0  0  0  0  0  0
   33.3440   28.8550   44.4930 C   0  0  0  0  0  0  0  0  0  0  0  0
   32.4050   28.1420   43.8900 C   0  0  0  0  0  0  0  0  0  0  0  0
   32.7770   27.1830   42.9290 N   0  0  0  0  0  0  0  0  0  0  0  0
   32.4630   26.5130   41.7410 C   0  0  0  0  0  0  0  0  0  0  0  0
   31.4330   26.2840   41.0330 O   0  0  0  0  0  0  0  0  0  0  0  0
   33.8460   26.0910   41.5110 C   0  0  0  0  0  3  0  0  0  0  0  0
   34.3660   26.7690   40.8120 H   0  0  0  0  0  0  0  0  0  0  0  0
   34.0040   26.4090   42.9840 C   0  0  1  0  0  3  0  0  0  0  0  0
   35.3970   27.5760   43.1640 S   0  0  0  0  0  0  0  0  0  0  0  0
   34.8150   28.8310   44.3340 C   0  0  0  0  0  3  0  0  0  0  0  0
   35.2620   29.8250   44.1260 H   0  0  0  0  0  0  0  0  0  0  0  0
   30.9850   28.3030   44.1760 C   0  0  0  0  0  0  0  0  0  0  0  0
   30.2330   28.4290   45.1680 O   0  0  0  0  0  0  0  0  0  0  0  0
   30.0280   28.3570   43.1900 O   0  0  0  0  0  0  0  0  0  0  0  0
   29.2670   29.0200   43.0980 H   0  0  0  0  0  0  0  0  0  0  0  0
  1  6  1  0  0  0  0
  1  9  1  0  0  0  0
  2  1  2  0  0  0  0
  3  4  2  0  0  0  0
  3  2  1  0  0  0  0
  4  5  1  0  0  0  0
  5  8  1  0  0  0  0
  5  6  2  0  0  0  0
  7  2  1  0  0  0  0
  9 15  1  0  0  0  0
  9 14  1  0  0  0  0
 10 11  1  0  0  0  0
 10 16  1  0  0  0  0
 10  9  1  0  0  0  0
 11 12  1  0  0  0  0
 12 21  1  0  0  0  0
 12 20  1  0  0  0  0
 12 13  1  0  0  0  0
 13 23  1  0  0  0  0
 13 22  1  0  0  0  0
 14 13  1  0  0  0  0
 14 25  1  0  0  0  0
 17 10  1  0  0  0  0
 18 11  1  0  0  0  0
 19 11  1  0  0  0  0
 24 14  1  0  0  0  0
 26  3  1  0  0  0  0
 27 26  1  0  0  0  0
 28 38  1  0  0  0  0
 28 27  2  0  0  0  0
 29 34  1  0  0  0  0
 29 28  1  0  0  0  0
 30 29  1  0  0  0  0
 31 30  2  0  0  0  0
 32 30  1  0  0  0  0
 33 32  1  0  0  0  0
 34 32  1  6  0  0  0
 34 35  1  0  0  0  0
 35 36  1  0  0  0  0
 36 27  1  0  0  0  0
 37 36  1  0  0  0  0
 38 39  2  0  0  0  0
 40 38  1  0  0  0  0
 41 40  1  0  0  0  0
M  END
>  <minimizedAffinity>
-4.77094698

>  <minimizedRMSD>
0.980776072

$$$$
