
 OpenBabel03272507333D

 43 48  0  0  1  0  0  0  0  0999 V2000
   33.6330   26.6290   46.9900 C   0  0  1  0  0  0  0  0  0  0  0  0
   33.7330   25.0960   47.3550 C   0  0  0  0  0  0  0  0  0  0  0  0
   32.7950   25.6210   46.3360 C   0  0  2  0  0  0  0  0  0  0  0  0
   34.6520   26.9580   46.6940 H   0  0  0  0  0  0  0  0  0  0  0  0
   33.3240   24.7750   48.3070 H   0  0  0  0  0  0  0  0  0  0  0  0
   34.6300   24.5660   47.0110 H   0  0  0  0  0  0  0  0  0  0  0  0
   31.7100   25.7130   46.6070 H   0  0  0  0  0  0  0  0  0  0  0  0
   33.0940   27.3880   48.1690 C   0  0  0  0  0  0  0  0  0  0  0  0
   31.8620   27.3300   48.4900 O   0  0  0  0  0  0  0  0  0  0  0  0
   35.8180   29.0860   49.7490 C   0  0  0  0  0  0  0  0  0  0  0  0
   34.7770   29.6230   50.4870 C   0  0  0  0  0  0  0  0  0  0  0  0
   33.5860   29.0620   49.9990 C   0  0  0  0  0  0  0  0  0  0  0  0
   33.9810   28.2130   48.9880 C   0  0  0  0  0  0  0  0  0  0  0  0
   35.2910   28.2630   48.8810 O   0  0  0  0  0  0  0  0  0  0  0  0
   34.7250   30.3420   51.3110 H   0  0  0  0  0  0  0  0  0  0  0  0
   32.5750   29.2560   50.3440 H   0  0  0  0  0  0  0  0  0  0  0  0
   37.1990   29.4510   49.9930 C   0  0  0  0  0  0  0  0  0  0  0  0
   37.8390   28.8530   50.8710 O   0  0  0  0  0  0  0  0  0  0  0  0
   37.7490   30.5040   49.1850 C   0  0  0  0  0  0  0  0  0  0  0  0
   38.0970   31.6780   49.8310 C   0  0  0  0  0  0  0  0  0  0  0  0
   38.6310   32.7230   49.0710 C   0  0  0  0  0  0  0  0  0  0  0  0
   38.7840   32.5290   47.7160 N   0  0  0  0  0  0  0  0  0  0  0  0
   38.4350   31.3790   47.1300 C   0  0  0  0  0  0  0  0  0  0  0  0
   37.9230   30.3730   47.8480 N   0  0  0  0  0  0  0  0  0  0  0  0
   37.9750   31.8240   50.8900 H   0  0  0  0  0  0  0  0  0  0  0  0
   38.9140   33.6600   49.5540 H   0  0  0  0  0  0  0  0  0  0  0  0
   38.5680   31.2570   46.0580 H   0  0  0  0  0  0  0  0  0  0  0  0
   33.0360   25.1520   44.9330 C   0  0  0  0  0  2  0  0  0  0  0  0
   34.0820   25.8970   44.2260 C   0  0  0  0  0  0  0  0  0  0  0  0
   35.3120   25.4780   43.9760 C   0  0  0  0  0  0  0  0  0  0  0  0
   36.2420   26.3050   43.2860 N   0  0  0  0  0  0  0  0  0  0  0  0
   37.5390   26.4180   42.7200 C   0  0  1  0  0  0  0  0  0  0  0  0
   38.6990   25.9630   42.9510 O   0  0  0  0  0  1  0  0  0  0  0  0
   36.9800   27.3280   41.6930 C   0  0  0  0  0  3  0  0  0  0  0  0
   36.5000   26.8620   40.8240 H   0  0  0  0  0  0  0  0  0  0  0  0
   36.0650   27.6590   42.8500 C   0  0  1  0  0  0  0  0  0  0  0  0
   34.3550   27.9530   42.4080 S   0  0  0  0  0  0  0  0  0  0  0  0
   33.5420   27.2090   43.8430 C   0  0  0  0  0  3  0  0  0  0  0  0
   33.6600   27.9350   44.6920 H   0  0  0  0  0  0  0  0  0  0  0  0
   35.7960   24.1430   44.4000 C   0  0  0  0  0  0  0  0  0  0  0  0
   35.2940   23.0180   44.3750 O   0  0  0  0  0  0  0  0  0  0  0  0
   37.0340   23.9450   44.9550 O   0  0  0  0  0  0  0  0  0  0  0  0
   37.6260   23.1900   44.6960 H   0  0  0  0  0  0  0  0  0  0  0  0
  1  4  1  6  0  0  0
  1  2  1  0  0  0  0
  1  8  1  0  0  0  0
  2  5  1  0  0  0  0
  3  7  1  1  0  0  0
  3  1  1  0  0  0  0
  3  2  1  0  0  0  0
  6  2  1  0  0  0  0
  8  9  2  0  0  0  0
  8 13  1  0  0  0  0
 10 17  1  0  0  0  0
 10 11  2  0  0  0  0
 11 15  1  0  0  0  0
 12 16  1  0  0  0  0
 12 11  1  0  0  0  0
 13 12  2  0  0  0  0
 14 13  1  0  0  0  0
 14 10  1  0  0  0  0
 17 18  2  0  0  0  0
 19 20  1  0  0  0  0
 19 17  1  0  0  0  0
 20 25  1  0  0  0  0
 21 26  1  0  0  0  0
 21 20  2  0  0  0  0
 22 21  1  0  0  0  0
 23 22  2  0  0  0  0
 23 24  1  0  0  0  0
 24 19  2  0  0  0  0
 27 23  1  0  0  0  0
 28  3  1  0  0  0  0
 29 28  1  0  0  0  0
 30 29  2  0  0  0  0
 30 40  1  0  0  0  0
 31 30  1  0  0  0  0
 32 36  1  0  0  0  0
 32 33  1  1  0  0  0
 32 31  1  0  0  0  0
 34 32  1  0  0  0  0
 35 34  1  0  0  0  0
 36 34  1  6  0  0  0
 36 31  1  0  0  0  0
 37 36  1  0  0  0  0
 37 38  1  0  0  0  0
 38 29  1  0  0  0  0
 38 39  1  0  0  0  0
 40 42  1  0  0  0  0
 41 40  2  0  0  0  0
 43 42  1  0  0  0  0
M  END
>  <minimizedAffinity>
-5.07010508

>  <minimizedRMSD>
1.71747673

$$$$
