
 OpenBabel03272509083D

 47 52  0  0  1  0  0  0  0  0999 V2000
   32.9530   27.3890   47.4230 C   0  0  0  0  0  0  0  0  0  0  0  0
   33.3530   26.0720   47.2020 C   0  0  0  0  0  0  0  0  0  0  0  0
   33.5310   25.5650   45.9230 C   0  0  0  0  0  0  0  0  0  0  0  0
   33.3090   26.3760   44.8150 C   0  0  0  0  0  0  0  0  0  0  0  0
   32.9170   27.6640   45.0430 C   0  0  0  0  0  0  0  0  0  0  0  0
   32.7370   28.1810   46.3050 C   0  0  0  0  0  0  0  0  0  0  0  0
   33.5130   25.4800   48.1070 H   0  0  0  0  0  0  0  0  0  0  0  0
   33.8420   24.5340   45.8940 H   0  0  0  0  0  0  0  0  0  0  0  0
   33.4600   25.9420   43.8380 H   0  0  0  0  0  0  0  0  0  0  0  0
   32.7510   28.2710   44.1440 H   0  0  0  0  0  0  0  0  0  0  0  0
   32.7660   27.9510   48.7800 C   0  0  0  0  0  0  0  0  0  0  0  0
   31.8280   28.5020   48.9230 H   0  0  0  0  0  0  0  0  0  0  0  0
   32.6840   27.0560   49.4680 H   0  0  0  0  0  0  0  0  0  0  0  0
   35.2040   28.3790   49.1550 C   0  0  0  0  0  3  0  0  0  0  0  0
   33.9450   28.7000   49.2760 C   0  0  0  0  0  3  0  0  0  0  0  0
   37.3900   30.1310   51.4950 C   0  0  0  0  0  0  0  0  0  0  0  0
   38.0980   30.9900   50.6360 C   0  0  0  0  0  0  0  0  0  0  0  0
   37.8010   30.9430   49.2550 C   0  0  0  0  0  0  0  0  0  0  0  0
   36.8370   30.0610   48.8250 N   0  0  0  0  0  0  0  0  0  0  0  0
   36.1980   29.2650   49.7210 C   0  0  0  0  0  0  0  0  0  0  0  0
   36.4630   29.2940   51.0290 N   0  0  0  0  0  0  0  0  0  0  0  0
   37.6970   30.2540   52.5170 H   0  0  0  0  0  0  0  0  0  0  0  0
   38.8530   31.7020   50.8550 H   0  0  0  0  0  0  0  0  0  0  0  0
   38.4750   31.7910   48.2720 C   0  0  0  0  0  0  0  0  0  0  0  0
   38.8220   31.3310   47.0140 C   0  0  0  0  0  0  0  0  0  0  0  0
   39.4430   32.3900   46.3390 C   0  0  0  0  0  0  0  0  0  0  0  0
   39.4460   33.4360   47.2080 N   0  0  0  0  0  0  0  0  0  0  0  0
   38.8680   33.0680   48.3540 N   0  0  0  0  0  0  0  0  0  0  0  0
   38.6990   30.3760   46.5230 H   0  0  0  0  0  0  0  0  0  0  0  0
   39.8410   32.3890   45.3390 H   0  0  0  0  0  0  0  0  0  0  0  0
   39.8580   34.3580   46.9450 H   0  0  0  0  0  0  0  0  0  0  0  0
   32.3610   29.5770   46.3890 C   0  0  0  0  0  2  0  0  0  0  0  0
   31.1990   30.0890   45.6950 C   0  0  0  0  0  0  0  0  0  0  0  0
   31.0710   30.9750   44.7120 C   0  0  0  0  0  0  0  0  0  0  0  0
   29.8460   31.3970   44.1260 N   0  0  0  0  0  0  0  0  0  0  0  0
   29.0610   31.8710   43.0520 C   0  0  1  0  0  0  0  0  0  0  0  0
   29.3170   32.3350   41.9110 O   0  0  0  0  0  1  0  0  0  0  0  0
   27.7740   31.6430   43.7110 C   0  0  0  0  0  3  0  0  0  0  0  0
   27.0930   32.5170   43.7520 H   0  0  0  0  0  0  0  0  0  0  0  0
   28.6250   31.4170   44.9170 C   0  0  2  0  0  0  0  0  0  0  0  0
   28.4510   29.7140   45.5140 S   0  0  0  0  0  0  0  0  0  0  0  0
   30.0310   29.4240   46.2750 C   0  0  0  0  0  3  0  0  0  0  0  0
   30.2340   28.3350   46.4440 H   0  0  0  0  0  0  0  0  0  0  0  0
   32.2840   31.5920   44.1780 C   0  0  0  0  0  2  0  0  0  0  0  0
   32.3080   32.8330   43.9350 O   0  0  0  0  0  0  0  0  0  0  0  0
   33.4330   32.1740   43.6720 O   0  0  0  0  0  0  0  0  0  0  0  0
   34.3740   31.8030   43.9030 H   0  0  0  0  0  0  0  0  0  0  0  0
  1 11  1  0  0  0  0
  2  1  1  0  0  0  0
  2  7  1  0  0  0  0
  3  2  2  0  0  0  0
  4  5  2  0  0  0  0
  4  3  1  0  0  0  0
  5  6  1  0  0  0  0
  6 32  1  0  0  0  0
  6  1  2  0  0  0  0
  8  3  1  0  0  0  0
  9  4  1  0  0  0  0
 10  5  1  0  0  0  0
 11 12  1  0  0  0  0
 11 15  1  0  0  0  0
 11 13  1  0  0  0  0
 14 15  2  0  0  0  0
 14 20  1  0  0  0  0
 16 22  1  0  0  0  0
 17 23  1  0  0  0  0
 17 16  2  0  0  0  0
 18 17  1  0  0  0  0
 19 18  2  0  0  0  0
 19 20  1  0  0  0  0
 20 21  2  0  0  0  0
 21 16  1  0  0  0  0
 24 28  2  0  0  0  0
 24 18  1  0  0  0  0
 25 24  1  0  0  0  0
 26 25  2  0  0  0  0
 26 27  1  0  0  0  0
 27 28  1  0  0  0  0
 29 25  1  0  0  0  0
 30 26  1  0  0  0  0
 31 27  1  0  0  0  0
 33 42  1  0  0  0  0
 33 32  1  0  0  0  0
 34 33  2  0  0  0  0
 35 34  1  0  0  0  0
 35 40  1  0  0  0  0
 36 37  1  6  0  0  0
 36 38  1  0  0  0  0
 36 35  1  0  0  0  0
 36 40  1  0  0  0  0
 38 39  1  0  0  0  0
 40 38  1  1  0  0  0
 40 41  1  0  0  0  0
 41 42  1  0  0  0  0
 42 43  1  0  0  0  0
 44 34  1  0  0  0  0
 45 44  1  0  0  0  0
 46 47  1  0  0  0  0
 46 45  1  0  0  0  0
M  END
>  <minimizedAffinity>
-6.66050053

>  <minimizedRMSD>
2.55499911

$$$$
