
 OpenBabel03272507423D

 48 52  0  0  1  0  0  0  0  0999 V2000
   36.4540   30.5420   49.2200 C   0  0  0  0  0  0  0  0  0  0  0  0
   35.2630   29.9100   49.5570 C   0  0  0  0  0  0  0  0  0  0  0  0
   35.1050   29.3050   50.7900 C   0  0  0  0  0  0  0  0  0  0  0  0
   36.1500   29.3490   51.6590 N   0  0  0  0  0  0  0  0  0  0  0  0
   37.3150   29.9760   51.3050 C   0  0  0  0  0  0  0  0  0  0  0  0
   37.4360   30.5460   50.1200 N   0  0  0  0  0  0  0  0  0  0  0  0
   34.2180   28.7940   51.1360 H   0  0  0  0  0  0  0  0  0  0  0  0
   38.1430   30.0030   52.0090 H   0  0  0  0  0  0  0  0  0  0  0  0
   33.7540   28.5600   48.1580 C   0  0  0  0  0  0  0  0  0  0  0  0
   34.3610   27.4220   48.0960 O   0  0  0  0  0  0  0  0  0  0  0  0
   34.1220   29.7880   48.7570 N   0  0  0  0  0  0  0  0  0  0  0  0
   33.6160   30.6870   48.6780 H   0  0  0  0  0  0  0  0  0  0  0  0
   29.6990   27.8030   44.7740 C   0  0  0  0  0  0  0  0  0  0  0  0
   30.7130   28.6370   44.6270 C   0  0  0  0  0  0  0  0  0  0  0  0
   31.6740   28.8040   45.6290 N   0  0  0  0  0  0  0  0  0  0  0  0
   32.4880   29.6650   46.4560 C   0  0  0  0  0  0  0  0  0  0  0  0
   32.9480   30.8200   46.2600 O   0  0  0  0  0  0  0  0  0  0  0  0
   32.4340   28.5400   47.4640 C   0  0  1  0  0  3  0  0  0  0  0  0
   32.2730   27.6320   46.2960 C   0  0  1  0  0  3  0  0  0  0  0  0
   31.0320   26.3630   46.6000 S   0  0  0  0  0  0  0  0  0  0  0  0
   29.4570   26.9840   45.9820 C   0  0  0  0  0  3  0  0  0  0  0  0
   28.9630   27.6650   46.7170 H   0  0  0  0  0  0  0  0  0  0  0  0
   28.7630   27.7170   43.6460 C   0  0  0  0  0  2  0  0  0  0  0  0
   28.1070   28.6130   43.7090 H   0  0  0  0  0  0  0  0  0  0  0  0
   30.8210   29.3890   43.3850 C   0  0  0  0  0  0  0  0  0  0  0  0
   31.7540   30.1560   43.0540 O   0  0  0  0  0  0  0  0  0  0  0  0
   30.6420   29.9630   42.1410 O   0  0  0  0  0  0  0  0  0  0  0  0
   29.7610   29.8740   41.6210 H   0  0  0  0  0  0  0  0  0  0  0  0
   36.4180   31.0730   47.9760 O   0  0  0  0  0  0  0  0  0  0  0  0
   37.8570   31.4500   45.9970 C   0  0  0  0  0  0  0  0  0  0  0  0
   37.5130   31.6210   47.3210 C   0  0  0  0  0  0  0  0  0  0  0  0
   38.2940   32.4100   48.1500 C   0  0  0  0  0  0  0  0  0  0  0  0
   39.4320   33.0270   47.6280 C   0  0  0  0  0  0  0  0  0  0  0  0
   39.7660   32.8500   46.3040 C   0  0  0  0  0  0  0  0  0  0  0  0
   38.9650   32.0610   45.5180 C   0  0  0  0  0  0  0  0  0  0  0  0
   38.0890   32.5910   49.1970 H   0  0  0  0  0  0  0  0  0  0  0  0
   40.0420   33.6430   48.2750 H   0  0  0  0  0  0  0  0  0  0  0  0
   40.6450   33.3180   45.8710 H   0  0  0  0  0  0  0  0  0  0  0  0
   39.3360   31.8760   44.0940 C   0  0  0  0  0  0  0  0  0  0  0  0
   40.1810   30.9680   43.5220 C   0  0  0  0  0  0  0  0  0  0  0  0
   40.1950   31.2030   42.1490 C   0  0  0  0  0  0  0  0  0  0  0  0
   39.3380   32.2650   41.9730 C   0  0  0  0  0  0  0  0  0  0  0  0
   38.8370   32.6520   43.1360 O   0  0  0  0  0  0  0  0  0  0  0  0
   40.7000   30.2330   44.1250 H   0  0  0  0  0  0  0  0  0  0  0  0
   40.7900   30.6120   41.4790 H   0  0  0  0  0  0  0  0  0  0  0  0
   39.1270   32.6970   41.0010 H   0  0  0  0  0  0  0  0  0  0  0  0
   36.2980   29.9700   44.5760 N   0  0  0  0  0  0  0  0  0  0  0  0
   36.9950   30.6220   45.2170 C   0  0  0  0  0  0  0  0  0  0  0  0
  1  2  2  0  0  0  0
  1  6  1  0  0  0  0
  2  3  1  0  0  0  0
  3  7  1  0  0  0  0
  3  4  2  0  0  0  0
  5  4  1  0  0  0  0
  5  8  1  0  0  0  0
  6  5  2  0  0  0  0
  9 11  1  0  0  0  0
 10  9  2  0  0  0  0
 11  2  1  0  0  0  0
 12 11  1  0  0  0  0
 13 21  1  0  0  0  0
 14 13  2  0  0  0  0
 14 15  1  0  0  0  0
 15 19  1  0  0  0  0
 15 16  1  0  0  0  0
 16 18  1  0  0  0  0
 17 16  2  0  0  0  0
 18  9  1  6  0  0  0
 19 20  1  1  0  0  0
 19 18  1  0  0  0  0
 21 20  1  0  0  0  0
 21 22  1  0  0  0  0
 23 24  1  0  0  0  0
 23 13  1  0  0  0  0
 25 14  1  0  0  0  0
 26 25  2  0  0  0  0
 27 25  1  0  0  0  0
 28 27  1  0  0  0  0
 29  1  1  0  0  0  0
 30 31  1  0  0  0  0
 31 29  1  0  0  0  0
 31 32  2  0  0  0  0
 32 36  1  0  0  0  0
 33 32  1  0  0  0  0
 33 37  1  0  0  0  0
 34 33  2  0  0  0  0
 35 30  2  0  0  0  0
 35 34  1  0  0  0  0
 38 34  1  0  0  0  0
 39 35  1  0  0  0  0
 40 39  2  0  0  0  0
 40 44  1  0  0  0  0
 41 40  1  0  0  0  0
 42 41  2  0  0  0  0
 42 43  1  0  0  0  0
 43 39  1  0  0  0  0
 45 41  1  0  0  0  0
 46 42  1  0  0  0  0
 47 48  3  0  0  0  0
 48 30  1  0  0  0  0
M  END
>  <minimizedAffinity>
-6.22217131

>  <minimizedRMSD>
2.22928357

$$$$
