
 OpenBabel03272509083D

 47 52  0  0  1  0  0  0  0  0999 V2000
   33.0440   27.2440   47.4960 C   0  0  0  0  0  0  0  0  0  0  0  0
   33.4550   25.9170   47.3760 C   0  0  0  0  0  0  0  0  0  0  0  0
   33.6710   25.3260   46.1390 C   0  0  0  0  0  0  0  0  0  0  0  0
   33.4770   26.0600   44.9740 C   0  0  0  0  0  0  0  0  0  0  0  0
   33.0760   27.3580   45.1040 C   0  0  0  0  0  0  0  0  0  0  0  0
   32.8580   27.9580   46.3230 C   0  0  0  0  0  0  0  0  0  0  0  0
   33.5910   25.3870   48.3230 H   0  0  0  0  0  0  0  0  0  0  0  0
   33.9850   24.2970   46.1880 H   0  0  0  0  0  0  0  0  0  0  0  0
   33.6570   25.5620   44.0330 H   0  0  0  0  0  0  0  0  0  0  0  0
   32.9330   27.9030   44.1620 H   0  0  0  0  0  0  0  0  0  0  0  0
   32.8170   27.8940   48.8070 C   0  0  0  0  0  0  0  0  0  0  0  0
   31.8830   28.4640   48.8810 H   0  0  0  0  0  0  0  0  0  0  0  0
   32.6990   27.0470   49.5480 H   0  0  0  0  0  0  0  0  0  0  0  0
   35.2500   28.3500   49.1810 C   0  0  0  0  0  3  0  0  0  0  0  0
   33.9880   28.6610   49.2970 C   0  0  0  0  0  3  0  0  0  0  0  0
   37.4170   30.1500   51.5030 C   0  0  0  0  0  0  0  0  0  0  0  0
   38.1160   31.0080   50.6360 C   0  0  0  0  0  0  0  0  0  0  0  0
   37.8200   30.9430   49.2550 C   0  0  0  0  0  0  0  0  0  0  0  0
   36.8650   30.0460   48.8340 N   0  0  0  0  0  0  0  0  0  0  0  0
   36.2350   29.2530   49.7380 C   0  0  0  0  0  0  0  0  0  0  0  0
   36.4990   29.2980   51.0460 N   0  0  0  0  0  0  0  0  0  0  0  0
   37.7230   30.2870   52.5240 H   0  0  0  0  0  0  0  0  0  0  0  0
   38.8640   31.7300   50.8470 H   0  0  0  0  0  0  0  0  0  0  0  0
   38.4850   31.7880   48.2630 C   0  0  0  0  0  0  0  0  0  0  0  0
   38.8080   31.3280   46.9990 C   0  0  0  0  0  0  0  0  0  0  0  0
   39.4270   32.3840   46.3170 C   0  0  0  0  0  0  0  0  0  0  0  0
   39.4530   33.4270   47.1880 N   0  0  0  0  0  0  0  0  0  0  0  0
   38.8900   33.0610   48.3420 N   0  0  0  0  0  0  0  0  0  0  0  0
   38.6690   30.3760   46.5080 H   0  0  0  0  0  0  0  0  0  0  0  0
   39.8080   32.3820   45.3100 H   0  0  0  0  0  0  0  0  0  0  0  0
   39.8680   34.3470   46.9210 H   0  0  0  0  0  0  0  0  0  0  0  0
   32.4760   29.3550   46.3020 C   0  0  0  0  0  2  0  0  0  0  0  0
   31.2400   29.7900   45.6870 C   0  0  0  0  0  0  0  0  0  0  0  0
   29.9740   29.7100   46.0850 C   0  0  0  0  0  0  0  0  0  0  0  0
   28.8430   30.1790   45.3610 N   0  0  0  0  0  0  0  0  0  0  0  0
   27.5370   30.7060   45.2700 C   0  0  1  0  0  0  0  0  0  0  0  0
   26.5970   30.8810   46.0900 O   0  0  0  0  0  1  0  0  0  0  0  0
   27.6100   31.0100   43.8410 C   0  0  0  0  0  3  0  0  0  0  0  0
   26.7910   30.5930   43.2180 H   0  0  0  0  0  0  0  0  0  0  0  0
   28.8610   30.1990   43.9070 C   0  0  2  0  0  0  0  0  0  0  0  0
   30.3050   31.2180   43.4930 S   0  0  0  0  0  0  0  0  0  0  0  0
   31.5990   30.4190   44.4140 C   0  0  0  0  0  3  0  0  0  0  0  0
   32.5060   31.0650   44.5290 H   0  0  0  0  0  0  0  0  0  0  0  0
   29.6940   29.0760   47.3720 C   0  0  0  0  0  2  0  0  0  0  0  0
   29.3710   27.8550   47.4180 O   0  0  0  0  0  0  0  0  0  0  0  0
   29.4290   28.4790   48.5920 O   0  0  0  0  0  0  0  0  0  0  0  0
   29.9020   28.7910   49.4600 H   0  0  0  0  0  0  0  0  0  0  0  0
  1 11  1  0  0  0  0
  2  1  1  0  0  0  0
  2  7  1  0  0  0  0
  3  8  1  0  0  0  0
  3  2  2  0  0  0  0
  4  5  2  0  0  0  0
  4  3  1  0  0  0  0
  5  6  1  0  0  0  0
  6  1  2  0  0  0  0
  9  4  1  0  0  0  0
 10  5  1  0  0  0  0
 11 12  1  0  0  0  0
 11 15  1  0  0  0  0
 11 13  1  0  0  0  0
 14 15  2  0  0  0  0
 14 20  1  0  0  0  0
 16 22  1  0  0  0  0
 17 23  1  0  0  0  0
 17 16  2  0  0  0  0
 18 17  1  0  0  0  0
 19 18  2  0  0  0  0
 19 20  1  0  0  0  0
 20 21  2  0  0  0  0
 21 16  1  0  0  0  0
 24 28  2  0  0  0  0
 24 18  1  0  0  0  0
 25 24  1  0  0  0  0
 26 25  2  0  0  0  0
 26 27  1  0  0  0  0
 27 28  1  0  0  0  0
 29 25  1  0  0  0  0
 30 26  1  0  0  0  0
 31 27  1  0  0  0  0
 32  6  1  0  0  0  0
 33 34  2  0  0  0  0
 33 32  1  0  0  0  0
 34 44  1  0  0  0  0
 35 34  1  0  0  0  0
 36 35  1  0  0  0  0
 36 37  1  1  0  0  0
 38 40  1  0  0  0  0
 38 36  1  0  0  0  0
 39 38  1  0  0  0  0
 40 41  1  1  0  0  0
 40 36  1  0  0  0  0
 40 35  1  0  0  0  0
 41 42  1  0  0  0  0
 42 43  1  0  0  0  0
 42 33  1  0  0  0  0
 44 45  1  0  0  0  0
 45 46  1  0  0  0  0
 46 47  1  0  0  0  0
M  END
>  <minimizedAffinity>
-6.74739933

>  <minimizedRMSD>
3.3452785

$$$$
