
 OpenBabel03272509523D

 50 54  0  0  1  0  0  0  0  0999 V2000
   33.5840   27.5130   47.7450 C   0  0  0  0  0  0  0  0  0  0  0  0
   33.7360   26.5680   48.3210 H   0  0  0  0  0  0  0  0  0  0  0  0
   33.8460   27.2640   46.6880 H   0  0  0  0  0  0  0  0  0  0  0  0
   32.1510   27.8760   47.7460 C   0  0  0  0  0  0  0  0  0  0  0  0
   31.3540   27.4470   48.8060 C   0  0  0  0  0  0  0  0  0  0  0  0
   30.0250   27.7260   48.9060 C   0  0  0  0  0  0  0  0  0  0  0  0
   29.4600   28.4440   47.9430 N   0  0  0  0  0  0  0  0  0  0  0  0
   30.2260   28.8710   46.8960 C   0  0  0  0  0  0  0  0  0  0  0  0
   31.5550   28.6040   46.7790 N   0  0  0  0  0  0  0  0  0  0  0  0
   31.8100   26.8590   49.5980 H   0  0  0  0  0  0  0  0  0  0  0  0
   29.4530   27.3690   49.7500 H   0  0  0  0  0  0  0  0  0  0  0  0
   29.5820   29.6870   45.8040 C   0  0  0  0  0  2  0  0  0  0  0  0
   28.6320   28.9250   44.9940 C   0  0  0  0  0  0  0  0  0  0  0  0
   29.0430   28.1100   44.0380 C   0  0  0  0  0  0  0  0  0  0  0  0
   28.1130   27.3780   43.2620 N   0  0  0  0  0  0  0  0  0  0  0  0
   27.7690   26.9030   41.9700 C   0  0  0  0  0  0  0  0  0  0  0  0
   28.2360   26.8160   40.8210 O   0  0  0  0  0  0  0  0  0  0  0  0
   26.4500   26.4560   42.4730 C   0  0  0  0  0  3  0  0  0  0  0  0
   26.2900   25.3960   42.2380 H   0  0  0  0  0  0  0  0  0  0  0  0
   26.9200   26.7720   43.8770 C   0  0  2  0  0  3  0  0  0  0  0  0
   26.0210   28.0970   44.6790 S   0  0  0  0  0  0  0  0  0  0  0  0
   27.2420   29.2130   45.4030 C   0  0  0  0  0  3  0  0  0  0  0  0
   26.9450   30.2600   45.1890 H   0  0  0  0  0  0  0  0  0  0  0  0
   30.4600   27.9390   43.7550 C   0  0  0  0  0  0  0  0  0  0  0  0
   30.9900   26.8430   43.4700 O   0  0  0  0  0  0  0  0  0  0  0  0
   31.7920   28.1650   43.5560 O   0  0  0  0  0  0  0  0  0  0  0  0
   32.3000   28.7910   44.1930 H   0  0  0  0  0  0  0  0  0  0  0  0
   34.4660   28.6370   48.1940 C   0  0  0  0  0  0  0  0  0  0  0  0
   35.3470   28.7500   47.5240 H   0  0  0  0  0  0  0  0  0  0  0  0
   33.9430   29.6150   48.1760 H   0  0  0  0  0  0  0  0  0  0  0  0
   34.9950   28.3670   49.4910 O   0  0  0  0  0  0  0  0  0  0  0  0
   37.3450   30.1780   51.5330 C   0  0  0  0  0  0  0  0  0  0  0  0
   38.0780   30.8700   50.5330 C   0  0  0  0  0  0  0  0  0  0  0  0
   37.7090   30.6620   49.2230 C   0  0  0  0  0  0  0  0  0  0  0  0
   36.6580   29.7990   49.0010 N   0  0  0  0  0  0  0  0  0  0  0  0
   35.9870   29.1610   49.9690 C   0  0  0  0  0  0  0  0  0  0  0  0
   36.3470   29.3640   51.2430 N   0  0  0  0  0  0  0  0  0  0  0  0
   37.7000   30.3980   52.5270 H   0  0  0  0  0  0  0  0  0  0  0  0
   38.8910   31.5380   50.6900 H   0  0  0  0  0  0  0  0  0  0  0  0
   38.9560   33.2650   49.0240 F   0  0  0  0  0  0  0  0  0  0  0  0
   38.9150   32.4840   47.9540 C   0  0  0  0  0  0  0  0  0  0  0  0
   38.3250   31.2680   48.0700 C   0  0  0  0  0  0  0  0  0  0  0  0
   38.3390   30.5300   46.8810 C   0  0  0  0  0  0  0  0  0  0  0  0
   38.8940   30.9920   45.7150 C   0  0  0  0  0  0  0  0  0  0  0  0
   39.4800   32.2350   45.6540 C   0  0  0  0  0  0  0  0  0  0  0  0
   39.4830   32.9830   46.8020 C   0  0  0  0  0  0  0  0  0  0  0  0
   37.8980   29.5300   46.8290 H   0  0  0  0  0  0  0  0  0  0  0  0
   38.8960   30.4080   44.8040 H   0  0  0  0  0  0  0  0  0  0  0  0
   39.9170   32.6050   44.7470 H   0  0  0  0  0  0  0  0  0  0  0  0
   39.9370   33.9640   46.7800 H   0  0  0  0  0  0  0  0  0  0  0  0
  1  4  1  0  0  0  0
  1 28  1  0  0  0  0
  1  2  1  0  0  0  0
  3  1  1  0  0  0  0
  4  5  1  0  0  0  0
  5  6  2  0  0  0  0
  5 10  1  0  0  0  0
  6 11  1  0  0  0  0
  7  6  1  0  0  0  0
  8  7  2  0  0  0  0
  9  8  1  0  0  0  0
  9  4  2  0  0  0  0
 12  8  1  0  0  0  0
 13 22  1  0  0  0  0
 13 12  1  0  0  0  0
 14 13  2  0  0  0  0
 15 20  1  0  0  0  0
 15 14  1  0  0  0  0
 16 18  1  0  0  0  0
 16 15  1  0  0  0  0
 17 16  2  0  0  0  0
 19 18  1  0  0  0  0
 20 18  1  6  0  0  0
 20 21  1  0  0  0  0
 21 22  1  0  0  0  0
 23 22  1  0  0  0  0
 24 14  1  0  0  0  0
 25 24  2  0  0  0  0
 26 24  1  0  0  0  0
 26 27  1  0  0  0  0
 28 31  1  0  0  0  0
 29 28  1  0  0  0  0
 30 28  1  0  0  0  0
 31 36  1  0  0  0  0
 32 38  1  0  0  0  0
 33 39  1  0  0  0  0
 33 32  2  0  0  0  0
 34 33  1  0  0  0  0
 35 34  2  0  0  0  0
 35 36  1  0  0  0  0
 36 37  2  0  0  0  0
 37 32  1  0  0  0  0
 41 42  1  0  0  0  0
 41 40  1  0  0  0  0
 42 34  1  0  0  0  0
 43 42  2  0  0  0  0
 44 43  1  0  0  0  0
 45 44  2  0  0  0  0
 45 46  1  0  0  0  0
 46 41  2  0  0  0  0
 47 43  1  0  0  0  0
 48 44  1  0  0  0  0
 49 45  1  0  0  0  0
 50 46  1  0  0  0  0
M  END
>  <minimizedAffinity>
-6.47132158

>  <minimizedRMSD>
1.12490368

$$$$
