
 OpenBabel03272509083D

 47 52  0  0  1  0  0  0  0  0999 V2000
   33.2770   27.1560   47.4020 C   0  0  0  0  0  0  0  0  0  0  0  0
   33.3650   25.7660   47.3330 C   0  0  0  0  0  0  0  0  0  0  0  0
   33.6630   25.1090   46.1480 C   0  0  0  0  0  0  0  0  0  0  0  0
   33.8840   25.8380   44.9840 C   0  0  0  0  0  0  0  0  0  0  0  0
   33.7950   27.1980   45.0640 C   0  0  0  0  0  0  0  0  0  0  0  0
   33.5000   27.8630   46.2310 C   0  0  0  0  0  0  0  0  0  0  0  0
   33.1820   25.2430   48.2760 H   0  0  0  0  0  0  0  0  0  0  0  0
   33.7000   24.0360   46.2330 H   0  0  0  0  0  0  0  0  0  0  0  0
   34.1130   25.2870   44.0840 H   0  0  0  0  0  0  0  0  0  0  0  0
   33.9740   27.7370   44.1250 H   0  0  0  0  0  0  0  0  0  0  0  0
   32.9680   27.8750   48.6590 C   0  0  0  0  0  0  0  0  0  0  0  0
   32.0340   28.4500   48.6410 H   0  0  0  0  0  0  0  0  0  0  0  0
   32.7970   27.0690   49.4340 H   0  0  0  0  0  0  0  0  0  0  0  0
   35.3600   28.3010   49.2640 C   0  0  0  0  0  3  0  0  0  0  0  0
   34.1090   28.6640   49.1830 C   0  0  0  0  0  3  0  0  0  0  0  0
   37.4560   30.1980   51.5730 C   0  0  0  0  0  0  0  0  0  0  0  0
   38.1390   31.0610   50.6980 C   0  0  0  0  0  0  0  0  0  0  0  0
   37.8550   30.9670   49.3160 C   0  0  0  0  0  0  0  0  0  0  0  0
   36.9290   30.0360   48.9030 N   0  0  0  0  0  0  0  0  0  0  0  0
   36.3140   29.2400   49.8140 C   0  0  0  0  0  0  0  0  0  0  0  0
   36.5670   29.3130   51.1230 N   0  0  0  0  0  0  0  0  0  0  0  0
   37.7500   30.3600   52.5940 H   0  0  0  0  0  0  0  0  0  0  0  0
   38.8630   31.8070   50.9030 H   0  0  0  0  0  0  0  0  0  0  0  0
   38.5040   31.8140   48.3160 C   0  0  0  0  0  0  0  0  0  0  0  0
   38.8200   31.3530   47.0510 C   0  0  0  0  0  0  0  0  0  0  0  0
   39.4240   32.4110   46.3600 C   0  0  0  0  0  0  0  0  0  0  0  0
   39.4480   33.4580   47.2270 N   0  0  0  0  0  0  0  0  0  0  0  0
   38.8980   33.0910   48.3870 N   0  0  0  0  0  0  0  0  0  0  0  0
   38.6860   30.3970   46.5640 H   0  0  0  0  0  0  0  0  0  0  0  0
   39.7970   32.4100   45.3500 H   0  0  0  0  0  0  0  0  0  0  0  0
   39.8520   34.3800   46.9530 H   0  0  0  0  0  0  0  0  0  0  0  0
   33.4840   29.3100   46.1700 C   0  0  0  0  0  2  0  0  0  0  0  0
   32.5590   30.0180   45.3090 C   0  0  0  0  0  0  0  0  0  0  0  0
   31.2400   30.1690   45.3580 C   0  0  0  0  0  0  0  0  0  0  0  0
   30.4490   30.8950   44.4250 N   0  0  0  0  0  0  0  0  0  0  0  0
   29.3330   31.6770   44.0600 C   0  0  1  0  0  0  0  0  0  0  0  0
   28.2510   31.9880   44.6260 O   0  0  0  0  0  1  0  0  0  0  0  0
   29.8430   32.0410   42.7380 C   0  0  0  0  0  3  0  0  0  0  0  0
   29.1650   31.8310   41.8850 H   0  0  0  0  0  0  0  0  0  0  0  0
   30.8660   30.9940   43.0350 C   0  0  2  0  0  0  0  0  0  0  0  0
   32.5240   31.7250   43.1160 S   0  0  0  0  0  0  0  0  0  0  0  0
   33.3560   30.6340   44.2470 C   0  0  0  0  0  3  0  0  0  0  0  0
   34.2980   31.0770   44.6590 H   0  0  0  0  0  0  0  0  0  0  0  0
   30.5120   29.5330   46.4540 C   0  0  0  0  0  2  0  0  0  0  0  0
   29.9950   28.3910   46.2930 O   0  0  0  0  0  0  0  0  0  0  0  0
   29.8240   28.9330   47.4960 O   0  0  0  0  0  0  0  0  0  0  0  0
   30.0810   29.1070   48.4850 H   0  0  0  0  0  0  0  0  0  0  0  0
  1 11  1  0  0  0  0
  2  1  1  0  0  0  0
  2  7  1  0  0  0  0
  3  8  1  0  0  0  0
  3  2  2  0  0  0  0
  4  5  2  0  0  0  0
  4  3  1  0  0  0  0
  5  6  1  0  0  0  0
  6  1  2  0  0  0  0
  9  4  1  0  0  0  0
 10  5  1  0  0  0  0
 11 15  1  0  0  0  0
 11 13  1  0  0  0  0
 12 11  1  0  0  0  0
 14 20  1  0  0  0  0
 15 14  2  0  0  0  0
 16 22  1  0  0  0  0
 17 23  1  0  0  0  0
 17 16  2  0  0  0  0
 18 17  1  0  0  0  0
 19 18  2  0  0  0  0
 19 20  1  0  0  0  0
 20 21  2  0  0  0  0
 21 16  1  0  0  0  0
 24 28  2  0  0  0  0
 24 18  1  0  0  0  0
 25 24  1  0  0  0  0
 26 25  2  0  0  0  0
 26 27  1  0  0  0  0
 27 28  1  0  0  0  0
 29 25  1  0  0  0  0
 30 26  1  0  0  0  0
 31 27  1  0  0  0  0
 32  6  1  0  0  0  0
 33 34  2  0  0  0  0
 33 32  1  0  0  0  0
 34 44  1  0  0  0  0
 35 34  1  0  0  0  0
 36 35  1  0  0  0  0
 36 37  1  6  0  0  0
 38 36  1  0  0  0  0
 39 38  1  0  0  0  0
 40 38  1  6  0  0  0
 40 41  1  0  0  0  0
 40 36  1  0  0  0  0
 40 35  1  0  0  0  0
 41 42  1  0  0  0  0
 42 43  1  0  0  0  0
 42 33  1  0  0  0  0
 45 44  1  0  0  0  0
 45 46  1  0  0  0  0
 46 47  1  0  0  0  0
M  END
>  <minimizedAffinity>
-6.67293978

>  <minimizedRMSD>
3.1001358

$$$$
