
 OpenBabel03272502583D

 41 44  0  0  1  0  0  0  0  0999 V2000
   35.7700   29.6250   48.7080 N   0  0  0  0  0  0  0  0  0  0  0  0
   36.6490   28.8800   49.5700 C   0  0  0  0  0  0  0  0  0  0  0  0
   37.2390   29.5700   50.7230 C   0  0  0  0  0  0  0  0  0  0  0  0
   37.4050   31.0400   50.6510 C   0  0  0  0  0  0  0  0  0  0  0  0
   36.5040   31.7250   49.6490 C   0  0  0  0  0  0  0  0  0  0  0  0
   36.4230   30.8630   48.3830 C   0  0  1  0  0  0  0  0  0  0  0  0
   37.4510   28.4380   48.9300 H   0  0  0  0  0  0  0  0  0  0  0  0
   36.0570   27.9960   49.9250 H   0  0  0  0  0  0  0  0  0  0  0  0
   36.6180   29.3540   51.6360 H   0  0  0  0  0  0  0  0  0  0  0  0
   38.2350   29.1250   50.9380 H   0  0  0  0  0  0  0  0  0  0  0  0
   37.2250   31.5450   51.6220 H   0  0  0  0  0  0  0  0  0  0  0  0
   38.4570   31.3140   50.3730 H   0  0  0  0  0  0  0  0  0  0  0  0
   36.9680   32.6750   49.3280 H   0  0  0  0  0  0  0  0  0  0  0  0
   35.5040   31.9360   50.0520 H   0  0  0  0  0  0  0  0  0  0  0  0
   35.9410   31.4120   47.5610 H   0  0  0  0  0  0  0  0  0  0  0  0
   34.4850   29.1980   48.2640 C   0  0  0  0  0  0  0  0  0  0  0  0
   33.8620   29.6550   47.0990 C   0  0  0  0  0  0  0  0  0  0  0  0
   32.6100   29.1570   46.7860 C   0  0  0  0  0  0  0  0  0  0  0  0
   32.0510   28.2450   47.6310 N   0  0  0  0  0  0  0  0  0  0  0  0
   32.6830   27.8350   48.7370 C   0  0  0  0  0  0  0  0  0  0  0  0
   33.9070   28.3080   49.0630 N   0  0  0  0  0  0  0  0  0  0  0  0
   34.3890   30.3750   46.5030 H   0  0  0  0  0  0  0  0  0  0  0  0
   32.1920   29.5500   45.8800 H   0  0  0  0  0  0  0  0  0  0  0  0
   32.1490   27.1070   49.3390 H   0  0  0  0  0  0  0  0  0  0  0  0
   37.7550   30.6810   48.0040 O   0  0  0  0  0  0  0  0  0  0  0  0
   38.1570   31.6400   47.0770 C   0  0  0  0  0  0  0  0  0  0  0  0
   38.1520   31.0180   45.7370 C   0  0  0  0  0  0  0  0  0  0  0  0
   39.2430   30.9210   44.9900 C   0  0  0  0  0  0  0  0  0  0  0  0
   39.1140   30.3020   43.7160 N   0  0  0  0  0  0  0  0  0  0  0  0
   39.5650   29.3400   42.7380 C   0  0  0  0  0  0  0  0  0  0  0  0
   40.7320   28.9280   42.4500 O   0  0  0  0  0  0  0  0  0  0  0  0
   38.1290   29.1860   42.3800 C   0  0  0  0  0  0  0  0  0  0  0  0
   37.9300   28.9700   41.3160 H   0  0  0  0  0  0  0  0  0  0  0  0
   38.0860   30.6540   42.7420 C   0  0  1  0  0  0  0  0  0  0  0  0
   36.5140   31.0030   43.6220 S   0  0  0  0  0  0  0  0  0  0  0  0
   36.8230   30.5060   45.3410 C   0  0  0  0  0  0  0  0  0  0  0  0
   36.0400   31.0100   45.9360 H   0  0  0  0  0  0  0  0  0  0  0  0
   40.5780   31.4120   45.3940 C   0  0  0  0  0  0  0  0  0  0  0  0
   41.2540   32.4640   45.4300 O   0  0  0  0  0  0  0  0  0  0  0  0
   41.5930   30.6700   45.9360 O   0  0  0  0  0  0  0  0  0  0  0  0
   42.4980   30.4890   45.5490 H   0  0  0  0  0  0  0  0  0  0  0  0
  1  2  1  0  0  0  0
  2  8  1  0  0  0  0
  2  3  1  0  0  0  0
  3 10  1  0  0  0  0
  3  9  1  0  0  0  0
  4  3  1  0  0  0  0
  4 11  1  0  0  0  0
  5 14  1  0  0  0  0
  5  4  1  0  0  0  0
  6 15  1  6  0  0  0
  6  1  1  0  0  0  0
  6  5  1  0  0  0  0
  7  2  1  0  0  0  0
 12  4  1  0  0  0  0
 13  5  1  0  0  0  0
 16  1  1  0  0  0  0
 16 21  1  0  0  0  0
 17 16  2  0  0  0  0
 18 17  1  0  0  0  0
 18 19  2  0  0  0  0
 19 20  1  0  0  0  0
 20 21  2  0  0  0  0
 20 24  1  0  0  0  0
 22 17  1  0  0  0  0
 23 18  1  0  0  0  0
 25  6  1  0  0  0  0
 26 25  1  0  0  0  0
 27 26  1  0  0  0  0
 28 38  1  0  0  0  0
 28 27  2  0  0  0  0
 29 28  1  0  0  0  0
 30 29  1  0  0  0  0
 31 30  2  0  0  0  0
 32 30  1  0  0  0  0
 33 32  1  0  0  0  0
 34 32  1  6  0  0  0
 34 35  1  0  0  0  0
 34 29  1  0  0  0  0
 35 36  1  0  0  0  0
 36 27  1  0  0  0  0
 36 37  1  0  0  0  0
 38 39  2  0  0  0  0
 38 40  1  0  0  0  0
 41 40  1  0  0  0  0
M  END
>  <minimizedAffinity>
-6.32893181

>  <minimizedRMSD>
1.96034801

$$$$
