
 OpenBabel03272506173D

 41 44  0  0  1  0  0  0  0  0999 V2000
   29.7710   26.8630   46.1510 C   0  0  0  0  0  0  0  0  0  0  0  0
   30.2290   28.0860   45.6320 C   0  0  0  0  0  0  0  0  0  0  0  0
   30.6580   28.0860   44.3030 C   0  0  0  0  0  0  0  0  0  0  0  0
   30.6140   26.9180   43.5740 N   0  0  0  0  0  0  0  0  0  0  0  0
   30.1580   25.7520   44.1280 C   0  0  0  0  0  0  0  0  0  0  0  0
   29.7480   25.7490   45.4010 N   0  0  0  0  0  0  0  0  0  0  0  0
   30.2810   29.0250   46.1640 H   0  0  0  0  0  0  0  0  0  0  0  0
   30.1470   24.8780   43.5140 H   0  0  0  0  0  0  0  0  0  0  0  0
   29.3040   26.8860   47.5720 C   0  0  0  0  0  0  0  0  0  0  0  0
   27.8610   26.4260   47.6360 C   0  0  0  0  0  0  0  0  0  0  0  0
   26.9180   27.5320   48.0100 C   0  0  0  0  0  0  0  0  0  0  0  0
   27.3040   28.2190   49.2940 C   0  0  0  0  0  0  0  0  0  0  0  0
   28.7680   28.5230   49.3840 C   0  0  0  0  0  0  0  0  0  0  0  0
   29.5140   28.2650   48.0950 C   0  0  0  0  0  0  0  0  0  0  0  0
   29.9210   26.1700   48.1390 H   0  0  0  0  0  0  0  0  0  0  0  0
   27.7650   25.6040   48.3520 H   0  0  0  0  0  0  0  0  0  0  0  0
   27.5430   26.0910   46.6130 H   0  0  0  0  0  0  0  0  0  0  0  0
   25.9290   27.0290   48.2100 H   0  0  0  0  0  0  0  0  0  0  0  0
   26.8630   28.2650   47.1800 H   0  0  0  0  0  0  0  0  0  0  0  0
   27.0190   27.6170   50.1680 H   0  0  0  0  0  0  0  0  0  0  0  0
   26.6820   29.1550   49.3470 H   0  0  0  0  0  0  0  0  0  0  0  0
   29.2510   28.0130   50.2310 H   0  0  0  0  0  0  0  0  0  0  0  0
   28.8820   29.6220   49.5760 H   0  0  0  0  0  0  0  0  0  0  0  0
   29.2860   29.0640   47.3590 H   0  0  0  0  0  0  0  0  0  0  0  0
   30.5920   28.3970   48.3300 H   0  0  0  0  0  0  0  0  0  0  0  0
   31.1760   29.3060   43.6000 C   0  0  0  0  0  2  0  0  0  0  0  0
   32.6320   29.4400   43.6440 C   0  0  0  0  0  0  0  0  0  0  0  0
   33.2980   30.1030   44.5770 C   0  0  0  0  0  0  0  0  0  0  0  0
   34.7020   30.1630   44.5130 N   0  0  0  0  0  0  0  0  0  0  0  0
   35.9180   30.2160   45.2040 C   0  0  0  0  0  0  0  0  0  0  0  0
   36.3270   30.5150   46.3700 O   0  0  0  0  0  0  0  0  0  0  0  0
   36.6950   29.7700   44.0460 C   0  0  0  0  0  3  0  0  0  0  0  0
   36.8960   28.6860   44.0850 H   0  0  0  0  0  0  0  0  0  0  0  0
   35.4600   30.1890   43.2750 C   0  0  1  0  0  3  0  0  0  0  0  0
   34.9230   28.7710   42.2570 S   0  0  0  0  0  0  0  0  0  0  0  0
   33.1250   28.6960   42.4630 C   0  0  0  0  0  3  0  0  0  0  0  0
   32.7470   27.6540   42.3980 H   0  0  0  0  0  0  0  0  0  0  0  0
   32.6370   30.7860   45.6830 C   0  0  0  0  0  0  0  0  0  0  0  0
   31.9410   31.8070   45.8770 O   0  0  0  0  0  0  0  0  0  0  0  0
   32.6750   30.3190   46.9760 O   0  0  0  0  0  0  0  0  0  0  0  0
   31.9030   30.2210   47.6250 H   0  0  0  0  0  0  0  0  0  0  0  0
  1  9  1  0  0  0  0
  2  1  1  0  0  0  0
  2  7  1  0  0  0  0
  3  2  2  0  0  0  0
  4  5  2  0  0  0  0
  4  3  1  0  0  0  0
  5  6  1  0  0  0  0
  6  1  2  0  0  0  0
  8  5  1  0  0  0  0
  9 10  1  0  0  0  0
  9 14  1  0  0  0  0
  9 15  1  0  0  0  0
 10 11  1  0  0  0  0
 10 16  1  0  0  0  0
 11 18  1  0  0  0  0
 11 12  1  0  0  0  0
 12 21  1  0  0  0  0
 12 13  1  0  0  0  0
 12 20  1  0  0  0  0
 13 23  1  0  0  0  0
 13 22  1  0  0  0  0
 14 25  1  0  0  0  0
 14 13  1  0  0  0  0
 17 10  1  0  0  0  0
 19 11  1  0  0  0  0
 24 14  1  0  0  0  0
 26 27  1  0  0  0  0
 26  3  1  0  0  0  0
 27 28  2  0  0  0  0
 28 38  1  0  0  0  0
 29 28  1  0  0  0  0
 29 30  1  0  0  0  0
 30 31  2  0  0  0  0
 32 33  1  0  0  0  0
 32 30  1  0  0  0  0
 34 35  1  6  0  0  0
 34 32  1  0  0  0  0
 34 29  1  0  0  0  0
 35 36  1  0  0  0  0
 36 27  1  0  0  0  0
 37 36  1  0  0  0  0
 38 39  2  0  0  0  0
 38 40  1  0  0  0  0
 40 41  1  0  0  0  0
M  END
>  <minimizedAffinity>
-3.65954351

>  <minimizedRMSD>
6.4126544

$$$$
