
 OpenBabel03272507093D

 34 37  0  0  1  0  0  0  0  0999 V2000
   35.8690   29.1660   49.8250 C   0  0  0  0  0  0  0  0  0  0  0  0
   34.8960   29.5580   50.7150 C   0  0  0  0  0  0  0  0  0  0  0  0
   33.6820   29.0730   50.1970 C   0  0  0  0  0  0  0  0  0  0  0  0
   34.0050   28.4180   49.0230 C   0  0  0  0  0  0  0  0  0  0  0  0
   35.2960   28.5070   48.8610 O   0  0  0  0  0  0  0  0  0  0  0  0
   35.0220   30.1290   51.6410 H   0  0  0  0  0  0  0  0  0  0  0  0
   32.6940   29.2030   50.6550 H   0  0  0  0  0  0  0  0  0  0  0  0
   37.2650   29.4950   50.0360 C   0  0  0  0  0  0  0  0  0  0  0  0
   37.9200   28.8530   50.8890 O   0  0  0  0  0  0  0  0  0  0  0  0
   37.8320   30.5610   49.2420 C   0  0  0  0  0  0  0  0  0  0  0  0
   38.1770   31.7360   49.8960 C   0  0  0  0  0  0  0  0  0  0  0  0
   38.7240   32.7800   49.1620 C   0  0  0  0  0  0  0  0  0  0  0  0
   38.8970   32.5930   47.8190 N   0  0  0  0  0  0  0  0  0  0  0  0
   38.5550   31.4420   47.2030 C   0  0  0  0  0  0  0  0  0  0  0  0
   38.0280   30.4390   47.9070 N   0  0  0  0  0  0  0  0  0  0  0  0
   38.0430   31.8900   50.9530 H   0  0  0  0  0  0  0  0  0  0  0  0
   39.0020   33.7080   49.6440 H   0  0  0  0  0  0  0  0  0  0  0  0
   38.7150   31.3440   46.1190 H   0  0  0  0  0  0  0  0  0  0  0  0
   32.9530   27.7650   48.1870 C   0  0  0  0  0  2  0  0  0  0  0  0
   33.3530   27.9450   46.7800 C   0  0  0  0  0  0  0  0  0  0  0  0
   33.6910   26.9690   45.9700 C   0  0  0  0  0  0  0  0  0  0  0  0
   34.0450   27.2790   44.6360 N   0  0  0  0  0  0  0  0  0  0  0  0
   34.9340   27.0290   43.5280 C   0  0  0  0  0  0  0  0  0  0  0  0
   35.8200   26.1630   43.2200 O   0  0  0  0  0  0  0  0  0  0  0  0
   34.4590   28.2050   42.7770 C   0  0  0  0  0  3  0  0  0  0  0  0
   34.1500   28.0040   41.7270 H   0  0  0  0  0  0  0  0  0  0  0  0
   33.3590   28.2510   43.7870 C   0  0  2  0  0  3  0  0  0  0  0  0
   33.3560   29.8020   44.7440 S   0  0  0  0  0  0  0  0  0  0  0  0
   33.3010   29.3990   46.5120 C   0  0  0  0  0  3  0  0  0  0  0  0
   32.3400   29.8680   46.8780 H   0  0  0  0  0  0  0  0  0  0  0  0
   33.7130   25.5480   46.3800 C   0  0  0  0  0  0  0  0  0  0  0  0
   32.8850   24.7530   46.8570 O   0  0  0  0  0  0  0  0  0  0  0  0
   34.8260   24.7510   46.2860 O   0  0  0  0  0  0  0  0  0  0  0  0
   35.1610   24.2080   47.0700 H   0  0  0  0  0  0  0  0  0  0  0  0
  1  8  1  0  0  0  0
  1  2  2  0  0  0  0
  2  6  1  0  0  0  0
  3  7  1  0  0  0  0
  3  2  1  0  0  0  0
  4  3  2  0  0  0  0
  5  4  1  0  0  0  0
  5  1  1  0  0  0  0
  8  9  2  0  0  0  0
 10 11  1  0  0  0  0
 10  8  1  0  0  0  0
 11 16  1  0  0  0  0
 12 17  1  0  0  0  0
 12 11  2  0  0  0  0
 13 12  1  0  0  0  0
 14 13  2  0  0  0  0
 14 15  1  0  0  0  0
 15 10  2  0  0  0  0
 18 14  1  0  0  0  0
 19  4  1  0  0  0  0
 20 19  1  0  0  0  0
 21 31  1  0  0  0  0
 21 20  2  0  0  0  0
 22 21  1  0  0  0  0
 23 22  1  0  0  0  0
 24 23  2  0  0  0  0
 25 23  1  0  0  0  0
 26 25  1  0  0  0  0
 27 25  1  6  0  0  0
 27 22  1  0  0  0  0
 27 28  1  0  0  0  0
 28 29  1  0  0  0  0
 29 20  1  0  0  0  0
 29 30  1  0  0  0  0
 31 32  2  0  0  0  0
 33 31  1  0  0  0  0
 33 34  1  0  0  0  0
M  END
>  <minimizedAffinity>
-5.11117697

>  <minimizedRMSD>
1.52849078

$$$$
