
 OpenBabel03272509073D

 47 52  0  0  1  0  0  0  0  0999 V2000
   33.5520   26.8850   47.0020 C   0  0  0  0  0  0  0  0  0  0  0  0
   33.6380   25.6260   47.5950 C   0  0  0  0  0  0  0  0  0  0  0  0
   34.0210   24.5030   46.8770 C   0  0  0  0  0  0  0  0  0  0  0  0
   34.3340   24.6140   45.5260 C   0  0  0  0  0  0  0  0  0  0  0  0
   34.2460   25.8510   44.9560 C   0  0  0  0  0  0  0  0  0  0  0  0
   33.8670   26.9740   45.6550 C   0  0  0  0  0  0  0  0  0  0  0  0
   33.3810   25.5960   48.6570 H   0  0  0  0  0  0  0  0  0  0  0  0
   34.0470   23.5940   47.4540 H   0  0  0  0  0  0  0  0  0  0  0  0
   34.6280   23.7150   45.0040 H   0  0  0  0  0  0  0  0  0  0  0  0
   34.4990   25.8970   43.8890 H   0  0  0  0  0  0  0  0  0  0  0  0
   33.1520   28.0970   47.7540 C   0  0  0  0  0  0  0  0  0  0  0  0
   32.4960   28.7820   47.2050 H   0  0  0  0  0  0  0  0  0  0  0  0
   32.5230   27.7230   48.6170 H   0  0  0  0  0  0  0  0  0  0  0  0
   34.9460   28.4380   49.4670 C   0  0  0  0  0  3  0  0  0  0  0  0
   34.2920   28.7960   48.3960 C   0  0  0  0  0  3  0  0  0  0  0  0
   37.4020   30.1380   51.5660 C   0  0  0  0  0  0  0  0  0  0  0  0
   38.1060   30.9040   50.6200 C   0  0  0  0  0  0  0  0  0  0  0  0
   37.7110   30.8150   49.2660 C   0  0  0  0  0  0  0  0  0  0  0  0
   36.6620   29.9840   48.9460 N   0  0  0  0  0  0  0  0  0  0  0  0
   36.0350   29.2770   49.9210 C   0  0  0  0  0  0  0  0  0  0  0  0
   36.3910   29.3470   51.2050 N   0  0  0  0  0  0  0  0  0  0  0  0
   37.7870   30.2860   52.5590 H   0  0  0  0  0  0  0  0  0  0  0  0
   38.9200   31.5700   50.7530 H   0  0  0  0  0  0  0  0  0  0  0  0
   38.3710   31.5670   48.1990 C   0  0  0  0  0  0  0  0  0  0  0  0
   38.5860   31.0300   46.9420 C   0  0  0  0  0  0  0  0  0  0  0  0
   39.2330   32.0090   46.1760 C   0  0  0  0  0  0  0  0  0  0  0  0
   39.3800   33.0860   46.9930 N   0  0  0  0  0  0  0  0  0  0  0  0
   38.8650   32.8110   48.1940 N   0  0  0  0  0  0  0  0  0  0  0  0
   38.3540   30.0700   46.5050 H   0  0  0  0  0  0  0  0  0  0  0  0
   39.5520   31.9370   45.1510 H   0  0  0  0  0  0  0  0  0  0  0  0
   39.8400   33.9610   46.6590 H   0  0  0  0  0  0  0  0  0  0  0  0
   33.8630   28.2250   44.9260 C   0  0  0  0  0  2  0  0  0  0  0  0
   32.6680   29.0340   44.8230 C   0  0  0  0  0  0  0  0  0  0  0  0
   31.4020   28.7200   44.5660 C   0  0  0  0  0  0  0  0  0  0  0  0
   30.3170   29.6350   44.4850 N   0  0  0  0  0  0  0  0  0  0  0  0
   28.9570   29.9920   44.6170 C   0  0  1  0  0  0  0  0  0  0  0  0
   27.8920   29.3480   44.8090 O   0  0  0  0  0  1  0  0  0  0  0  0
   29.1740   31.4290   44.4530 C   0  0  0  0  0  3  0  0  0  0  0  0
   28.5610   31.9220   43.6700 H   0  0  0  0  0  0  0  0  0  0  0  0
   30.5440   31.0020   44.0410 C   0  0  2  0  0  0  0  0  0  0  0  0
   31.7880   31.6450   45.1930 S   0  0  0  0  0  0  0  0  0  0  0  0
   33.0700   30.4190   45.0770 C   0  0  0  0  0  3  0  0  0  0  0  0
   33.7970   30.4750   45.9280 H   0  0  0  0  0  0  0  0  0  0  0  0
   31.0740   27.3150   44.3320 C   0  0  0  0  0  2  0  0  0  0  0  0
   30.4370   26.9790   43.2930 O   0  0  0  0  0  0  0  0  0  0  0  0
   30.7660   25.9830   44.1140 O   0  0  0  0  0  0  0  0  0  0  0  0
   31.3800   25.2230   44.4580 H   0  0  0  0  0  0  0  0  0  0  0  0
  1  2  1  0  0  0  0
  1 11  1  0  0  0  0
  2  7  1  0  0  0  0
  3  8  1  0  0  0  0
  3  2  2  0  0  0  0
  4  3  1  0  0  0  0
  5  4  2  0  0  0  0
  5  6  1  0  0  0  0
  6  1  2  0  0  0  0
  9  4  1  0  0  0  0
 10  5  1  0  0  0  0
 11 15  1  0  0  0  0
 11 13  1  0  0  0  0
 12 11  1  0  0  0  0
 14 20  1  0  0  0  0
 15 14  2  0  0  0  0
 16 22  1  0  0  0  0
 17 23  1  0  0  0  0
 17 16  2  0  0  0  0
 18 17  1  0  0  0  0
 19 18  2  0  0  0  0
 19 20  1  0  0  0  0
 20 21  2  0  0  0  0
 21 16  1  0  0  0  0
 24 18  1  0  0  0  0
 25 24  1  0  0  0  0
 26 25  2  0  0  0  0
 26 27  1  0  0  0  0
 27 28  1  0  0  0  0
 28 24  2  0  0  0  0
 29 25  1  0  0  0  0
 30 26  1  0  0  0  0
 31 27  1  0  0  0  0
 32  6  1  0  0  0  0
 33 32  1  0  0  0  0
 33 42  1  0  0  0  0
 34 33  2  0  0  0  0
 35 34  1  0  0  0  0
 35 36  1  0  0  0  0
 36 37  1  6  0  0  0
 38 36  1  0  0  0  0
 39 38  1  0  0  0  0
 40 38  1  6  0  0  0
 40 35  1  0  0  0  0
 40 36  1  0  0  0  0
 40 41  1  0  0  0  0
 42 41  1  0  0  0  0
 42 43  1  0  0  0  0
 44 34  1  0  0  0  0
 45 46  1  0  0  0  0
 45 44  1  0  0  0  0
 46 47  1  0  0  0  0
M  END
>  <minimizedAffinity>
-6.22782707

>  <minimizedRMSD>
0.644001186

$$$$
