
 OpenBabel03272509403D

 42 45  0  0  1  0  0  0  0  0999 V2000
   36.9840   30.9340   49.1180 C   0  0  0  0  0  0  0  0  0  0  0  0
   36.6640   31.8650   50.1050 C   0  0  0  0  0  0  0  0  0  0  0  0
   37.2500   33.1240   50.1740 C   0  0  0  0  0  0  0  0  0  0  0  0
   38.2060   33.4830   49.2150 C   0  0  0  0  0  0  0  0  0  0  0  0
   38.5110   32.5600   48.2540 C   0  0  0  0  0  0  0  0  0  0  0  0
   37.9080   31.3200   48.2170 C   0  0  0  0  0  0  0  0  0  0  0  0
   35.9230   31.6450   50.8810 H   0  0  0  0  0  0  0  0  0  0  0  0
   36.9660   33.8110   50.9600 H   0  0  0  0  0  0  0  0  0  0  0  0
   38.6480   34.4680   49.2890 H   0  0  0  0  0  0  0  0  0  0  0  0
   39.2610   32.9240   47.5560 H   0  0  0  0  0  0  0  0  0  0  0  0
   36.3190   29.6550   49.1330 C   0  0  0  0  0  0  0  0  0  0  0  0
   36.8540   28.7870   49.9110 O   0  0  0  0  0  0  0  0  0  0  0  0
   33.6160   30.1220   46.7620 C   0  0  0  0  0  0  0  0  0  0  0  0
   32.9250   28.9210   46.7790 C   0  0  0  0  0  0  0  0  0  0  0  0
   33.3880   27.9340   47.6130 C   0  0  0  0  0  0  0  0  0  0  0  0
   34.4880   28.1610   48.3820 N   0  0  0  0  0  0  0  0  0  0  0  0
   35.1280   29.3160   48.3450 C   0  0  0  0  0  0  0  0  0  0  0  0
   34.6830   30.2980   47.5280 N   0  0  0  0  0  0  0  0  0  0  0  0
   33.3040   30.9580   46.1190 H   0  0  0  0  0  0  0  0  0  0  0  0
   32.0690   28.8770   46.1180 H   0  0  0  0  0  0  0  0  0  0  0  0
   32.8530   27.0120   47.6230 H   0  0  0  0  0  0  0  0  0  0  0  0
   38.3550   30.4660   47.1320 C   0  0  0  0  0  3  0  0  0  0  0  0
   38.9300   30.8460   46.0000 C   0  0  0  0  0  3  0  0  0  0  0  0
   39.4270   30.0940   44.8490 C   0  0  0  0  0  0  0  0  0  0  0  0
   40.3820   30.5200   44.4920 H   0  0  0  0  0  0  0  0  0  0  0  0
   39.6950   29.0520   45.1850 H   0  0  0  0  0  0  0  0  0  0  0  0
   37.8620   31.3210   39.8380 C   0  0  0  0  0  0  0  0  0  0  0  0
   37.9010   32.0130   40.9650 C   0  0  0  0  0  0  0  0  0  0  0  0
   38.0620   31.2940   42.2050 N   0  0  0  0  0  0  0  0  0  0  0  0
   37.6130   31.1790   43.5740 C   0  0  0  0  0  0  0  0  0  0  0  0
   36.8430   31.8230   44.3640 O   0  0  0  0  0  0  0  0  0  0  0  0
   38.4380   29.9610   43.7110 C   0  0  1  0  0  3  0  0  0  0  0  0
   39.0210   30.1860   42.3500 C   0  0  1  0  0  3  0  0  0  0  0  0
   38.6030   28.9880   41.0930 S   0  0  0  0  0  0  0  0  0  0  0  0
   37.9460   29.8550   39.6510 C   0  0  0  0  0  3  0  0  0  0  0  0
   36.9530   29.4250   39.3470 H   0  0  0  0  0  0  0  0  0  0  0  0
   37.7070   32.0690   38.5900 C   0  0  0  0  0  2  0  0  0  0  0  0
   38.5510   32.7810   38.4970 H   0  0  0  0  0  0  0  0  0  0  0  0
   37.7980   33.4690   41.0150 C   0  0  0  0  0  0  0  0  0  0  0  0
   36.7580   34.1470   41.0510 O   0  0  0  0  0  0  0  0  0  0  0  0
   38.8690   34.3140   41.0280 O   0  0  0  0  0  0  0  0  0  0  0  0
   38.9130   35.1040   41.6350 H   0  0  0  0  0  0  0  0  0  0  0  0
  1 11  1  0  0  0  0
  1  2  1  0  0  0  0
  2  3  2  0  0  0  0
  2  7  1  0  0  0  0
  3  8  1  0  0  0  0
  4  9  1  0  0  0  0
  4  3  1  0  0  0  0
  5  4  2  0  0  0  0
  6  5  1  0  0  0  0
  6  1  2  0  0  0  0
 10  5  1  0  0  0  0
 11 12  2  0  0  0  0
 13 14  2  0  0  0  0
 13 18  1  0  0  0  0
 14 15  1  0  0  0  0
 15 21  1  0  0  0  0
 15 16  2  0  0  0  0
 17 16  1  0  0  0  0
 17 11  1  0  0  0  0
 18 17  2  0  0  0  0
 19 13  1  0  0  0  0
 20 14  1  0  0  0  0
 22  6  1  0  0  0  0
 23 22  2  0  0  0  0
 24 26  1  0  0  0  0
 24 23  1  0  0  0  0
 25 24  1  0  0  0  0
 27 28  2  0  0  0  0
 28 39  1  0  0  0  0
 28 29  1  0  0  0  0
 29 33  1  0  0  0  0
 29 30  1  0  0  0  0
 30 32  1  0  0  0  0
 30 31  2  0  0  0  0
 32 24  1  1  0  0  0
 33 34  1  6  0  0  0
 33 32  1  0  0  0  0
 35 27  1  0  0  0  0
 35 34  1  0  0  0  0
 36 35  1  0  0  0  0
 37 27  1  0  0  0  0
 38 37  1  0  0  0  0
 39 41  1  0  0  0  0
 39 40  2  0  0  0  0
 41 42  1  0  0  0  0
M  END
>  <minimizedAffinity>
-6.10764456

>  <minimizedRMSD>
0.903476954

$$$$
