
 OpenBabel03272509533D

 50 54  0  0  1  0  0  0  0  0999 V2000
   33.5870   27.4090   48.0140 C   0  0  0  0  0  0  0  0  0  0  0  0
   33.5890   26.6400   48.8250 H   0  0  0  0  0  0  0  0  0  0  0  0
   33.9210   26.8730   47.0930 H   0  0  0  0  0  0  0  0  0  0  0  0
   32.2030   27.8600   47.7560 C   0  0  0  0  0  0  0  0  0  0  0  0
   31.1760   27.3530   48.5490 C   0  0  0  0  0  0  0  0  0  0  0  0
   29.8690   27.7020   48.3970 C   0  0  0  0  0  0  0  0  0  0  0  0
   29.5570   28.5710   47.4430 N   0  0  0  0  0  0  0  0  0  0  0  0
   30.5520   29.0780   46.6560 C   0  0  0  0  0  0  0  0  0  0  0  0
   31.8630   28.7420   46.7930 N   0  0  0  0  0  0  0  0  0  0  0  0
   31.4230   26.6410   49.3330 H   0  0  0  0  0  0  0  0  0  0  0  0
   29.1100   27.2780   49.0400 H   0  0  0  0  0  0  0  0  0  0  0  0
   30.1960   30.0650   45.5740 C   0  0  0  0  0  2  0  0  0  0  0  0
   31.1040   30.0220   44.4270 C   0  0  0  0  0  0  0  0  0  0  0  0
   31.8220   31.0750   44.0800 C   0  0  0  0  0  0  0  0  0  0  0  0
   32.6970   31.0200   42.9670 N   0  0  0  0  0  0  0  0  0  0  0  0
   33.2090   31.7010   41.8350 C   0  0  0  0  0  0  0  0  0  0  0  0
   33.1980   32.8240   41.3020 O   0  0  0  0  0  0  0  0  0  0  0  0
   33.8880   30.4660   41.3840 C   0  0  0  0  0  3  0  0  0  0  0  0
   34.9560   30.6540   41.2180 H   0  0  0  0  0  0  0  0  0  0  0  0
   33.5110   29.8220   42.7010 C   0  0  2  0  0  3  0  0  0  0  0  0
   32.3770   28.4460   42.5570 S   0  0  0  0  0  0  0  0  0  0  0  0
   31.0710   28.6940   43.7800 C   0  0  0  0  0  3  0  0  0  0  0  0
   30.0900   28.4760   43.3090 H   0  0  0  0  0  0  0  0  0  0  0  0
   31.7360   32.3220   44.8260 C   0  0  0  0  0  0  0  0  0  0  0  0
   30.9570   33.2570   44.5400 O   0  0  0  0  0  0  0  0  0  0  0  0
   31.9370   33.3170   45.7380 O   0  0  0  0  0  0  0  0  0  0  0  0
   32.8960   33.5610   46.0180 H   0  0  0  0  0  0  0  0  0  0  0  0
   34.5290   28.5450   48.2630 C   0  0  0  0  0  0  0  0  0  0  0  0
   35.5490   28.3140   47.8820 H   0  0  0  0  0  0  0  0  0  0  0  0
   34.2150   29.4740   47.7450 H   0  0  0  0  0  0  0  0  0  0  0  0
   34.6780   28.7720   49.6640 O   0  0  0  0  0  0  0  0  0  0  0  0
   37.3820   30.1280   51.6190 C   0  0  0  0  0  0  0  0  0  0  0  0
   38.1360   30.7750   50.6050 C   0  0  0  0  0  0  0  0  0  0  0  0
   37.6570   30.6970   49.3160 C   0  0  0  0  0  0  0  0  0  0  0  0
   36.4870   29.9970   49.1280 N   0  0  0  0  0  0  0  0  0  0  0  0
   35.7990   29.3960   50.1080 C   0  0  0  0  0  0  0  0  0  0  0  0
   36.2650   29.4730   51.3610 N   0  0  0  0  0  0  0  0  0  0  0  0
   37.8280   30.2380   52.5940 H   0  0  0  0  0  0  0  0  0  0  0  0
   39.0410   31.3190   50.7360 H   0  0  0  0  0  0  0  0  0  0  0  0
   38.9440   33.2790   49.0880 F   0  0  0  0  0  0  0  0  0  0  0  0
   38.8820   32.4900   48.0240 C   0  0  0  0  0  0  0  0  0  0  0  0
   38.2740   31.2850   48.1540 C   0  0  0  0  0  0  0  0  0  0  0  0
   38.2670   30.5380   46.9710 C   0  0  0  0  0  0  0  0  0  0  0  0
   38.8210   30.9820   45.7970 C   0  0  0  0  0  0  0  0  0  0  0  0
   39.4250   32.2150   45.7220 C   0  0  0  0  0  0  0  0  0  0  0  0
   39.4490   32.9720   46.8640 C   0  0  0  0  0  0  0  0  0  0  0  0
   37.8100   29.5440   46.9300 H   0  0  0  0  0  0  0  0  0  0  0  0
   38.8070   30.3900   44.8910 H   0  0  0  0  0  0  0  0  0  0  0  0
   39.8610   32.5700   44.8090 H   0  0  0  0  0  0  0  0  0  0  0  0
   39.9180   33.9450   46.8300 H   0  0  0  0  0  0  0  0  0  0  0  0
  1 28  1  0  0  0  0
  1  2  1  0  0  0  0
  3  1  1  0  0  0  0
  4  1  1  0  0  0  0
  4  5  1  0  0  0  0
  5 10  1  0  0  0  0
  6  5  2  0  0  0  0
  6 11  1  0  0  0  0
  7  6  1  0  0  0  0
  8  9  1  0  0  0  0
  8  7  2  0  0  0  0
  9  4  2  0  0  0  0
 12  8  1  0  0  0  0
 13 12  1  0  0  0  0
 14 13  2  0  0  0  0
 14 24  1  0  0  0  0
 15 14  1  0  0  0  0
 16 15  1  0  0  0  0
 17 16  2  0  0  0  0
 18 16  1  0  0  0  0
 19 18  1  0  0  0  0
 20 18  1  6  0  0  0
 20 15  1  0  0  0  0
 21 20  1  0  0  0  0
 21 22  1  0  0  0  0
 22 13  1  0  0  0  0
 23 22  1  0  0  0  0
 24 26  1  0  0  0  0
 25 24  2  0  0  0  0
 26 27  1  0  0  0  0
 28 31  1  0  0  0  0
 29 28  1  0  0  0  0
 30 28  1  0  0  0  0
 31 36  1  0  0  0  0
 32 38  1  0  0  0  0
 33 39  1  0  0  0  0
 33 32  2  0  0  0  0
 34 33  1  0  0  0  0
 35 34  2  0  0  0  0
 35 36  1  0  0  0  0
 36 37  2  0  0  0  0
 37 32  1  0  0  0  0
 41 42  1  0  0  0  0
 41 40  1  0  0  0  0
 42 34  1  0  0  0  0
 43 42  2  0  0  0  0
 44 43  1  0  0  0  0
 45 44  2  0  0  0  0
 45 46  1  0  0  0  0
 46 41  2  0  0  0  0
 47 43  1  0  0  0  0
 48 44  1  0  0  0  0
 49 45  1  0  0  0  0
 50 46  1  0  0  0  0
M  END
>  <minimizedAffinity>
-6.78104639

>  <minimizedRMSD>
1.96948886

$$$$
