
 OpenBabel03272507323D

 43 48  0  0  1  0  0  0  0  0999 V2000
   32.8440   28.3470   46.4100 C   0  0  1  0  0  0  0  0  0  0  0  0
   33.9420   27.9870   45.3320 C   0  0  0  0  0  0  0  0  0  0  0  0
   32.5400   27.5180   45.2400 C   0  0  2  0  0  0  0  0  0  0  0  0
   32.8130   29.4550   46.4820 H   0  0  0  0  0  0  0  0  0  0  0  0
   34.7030   27.2650   45.6080 H   0  0  0  0  0  0  0  0  0  0  0  0
   34.2630   28.7990   44.6680 H   0  0  0  0  0  0  0  0  0  0  0  0
   32.3150   26.4520   45.5060 H   0  0  0  0  0  0  0  0  0  0  0  0
   33.1910   27.6850   47.7130 C   0  0  0  0  0  0  0  0  0  0  0  0
   32.7670   26.5190   48.0000 O   0  0  0  0  0  0  0  0  0  0  0  0
   35.8260   29.1700   49.6240 C   0  0  0  0  0  0  0  0  0  0  0  0
   34.7630   29.4780   50.4550 C   0  0  0  0  0  0  0  0  0  0  0  0
   33.6020   28.9640   49.8560 C   0  0  0  0  0  0  0  0  0  0  0  0
   34.0360   28.3710   48.6900 C   0  0  0  0  0  0  0  0  0  0  0  0
   35.3400   28.5190   48.6000 O   0  0  0  0  0  0  0  0  0  0  0  0
   34.6780   30.0050   51.4120 H   0  0  0  0  0  0  0  0  0  0  0  0
   32.5840   29.0220   50.2310 H   0  0  0  0  0  0  0  0  0  0  0  0
   37.1860   29.5550   49.9440 C   0  0  0  0  0  0  0  0  0  0  0  0
   37.7810   28.9780   50.8660 O   0  0  0  0  0  0  0  0  0  0  0  0
   37.7710   30.6040   49.1540 C   0  0  0  0  0  0  0  0  0  0  0  0
   38.0340   31.8040   49.7930 C   0  0  0  0  0  0  0  0  0  0  0  0
   38.5990   32.8440   49.0500 C   0  0  0  0  0  0  0  0  0  0  0  0
   38.8660   32.6220   47.7180 N   0  0  0  0  0  0  0  0  0  0  0  0
   38.5960   31.4480   47.1370 C   0  0  0  0  0  0  0  0  0  0  0  0
   38.0550   30.4450   47.8390 N   0  0  0  0  0  0  0  0  0  0  0  0
   37.8240   31.9710   50.8360 H   0  0  0  0  0  0  0  0  0  0  0  0
   38.8170   33.8010   49.5290 H   0  0  0  0  0  0  0  0  0  0  0  0
   38.8180   31.3040   46.0830 H   0  0  0  0  0  0  0  0  0  0  0  0
   31.7630   28.0310   44.0640 C   0  0  0  0  0  2  0  0  0  0  0  0
   30.3870   28.4220   44.3820 C   0  0  0  0  0  0  0  0  0  0  0  0
   29.9290   29.6580   44.5030 C   0  0  0  0  0  0  0  0  0  0  0  0
   28.5670   29.9060   44.8280 N   0  0  0  0  0  0  0  0  0  0  0  0
   27.5500   30.8780   45.0250 C   0  0  1  0  0  0  0  0  0  0  0  0
   27.4700   32.0680   45.4510 O   0  0  0  0  0  1  0  0  0  0  0  0
   26.5590   29.9060   44.5080 C   0  0  0  0  0  3  0  0  0  0  0  0
   26.4570   29.8300   43.4200 H   0  0  0  0  0  0  0  0  0  0  0  0
   27.5470   28.9500   45.1430 C   0  0  1  0  0  0  0  0  0  0  0  0
   27.8170   27.4270   44.2430 S   0  0  0  0  0  0  0  0  0  0  0  0
   29.5850   27.2030   44.5600 C   0  0  0  0  0  3  0  0  0  0  0  0
   29.6770   26.8330   45.6170 H   0  0  0  0  0  0  0  0  0  0  0  0
   30.7970   30.8440   44.3200 C   0  0  0  0  0  0  0  0  0  0  0  0
   31.0590   31.5560   43.3490 O   0  0  0  0  0  0  0  0  0  0  0  0
   31.5310   31.3900   45.3420 O   0  0  0  0  0  0  0  0  0  0  0  0
   31.5890   32.3700   45.5000 H   0  0  0  0  0  0  0  0  0  0  0  0
  1  4  1  1  0  0  0
  1  8  1  0  0  0  0
  2  5  1  0  0  0  0
  2  1  1  0  0  0  0
  3  2  1  0  0  0  0
  3  7  1  1  0  0  0
  3  1  1  0  0  0  0
  6  2  1  0  0  0  0
  8  9  2  0  0  0  0
  8 13  1  0  0  0  0
 10 17  1  0  0  0  0
 10 11  2  0  0  0  0
 11 15  1  0  0  0  0
 12 16  1  0  0  0  0
 12 11  1  0  0  0  0
 13 12  2  0  0  0  0
 14 13  1  0  0  0  0
 14 10  1  0  0  0  0
 17 18  2  0  0  0  0
 19 20  1  0  0  0  0
 19 17  1  0  0  0  0
 20 25  1  0  0  0  0
 21 26  1  0  0  0  0
 21 20  2  0  0  0  0
 22 21  1  0  0  0  0
 23 22  2  0  0  0  0
 23 24  1  0  0  0  0
 24 19  2  0  0  0  0
 27 23  1  0  0  0  0
 28 29  1  0  0  0  0
 28  3  1  0  0  0  0
 29 30  2  0  0  0  0
 29 38  1  0  0  0  0
 30 31  1  0  0  0  0
 31 32  1  0  0  0  0
 31 36  1  0  0  0  0
 32 36  1  0  0  0  0
 32 33  1  1  0  0  0
 34 32  1  0  0  0  0
 34 36  1  0  0  0  0
 35 34  1  0  0  0  0
 36 37  1  1  0  0  0
 37 38  1  0  0  0  0
 38 39  1  0  0  0  0
 40 30  1  0  0  0  0
 40 42  1  0  0  0  0
 41 40  2  0  0  0  0
 42 43  1  0  0  0  0
M  END
>  <minimizedAffinity>
-5.30649853

>  <minimizedRMSD>
3.17374873

$$$$
