
 OpenBabel03272509533D

 50 54  0  0  1  0  0  0  0  0999 V2000
   31.7500   27.7300   46.9340 C   0  0  0  0  0  0  0  0  0  0  0  0
   32.2490   26.8110   47.3260 H   0  0  0  0  0  0  0  0  0  0  0  0
   31.3290   27.4410   45.9410 H   0  0  0  0  0  0  0  0  0  0  0  0
   30.5970   28.0770   47.7910 C   0  0  0  0  0  0  0  0  0  0  0  0
   30.6150   27.6840   49.1280 C   0  0  0  0  0  0  0  0  0  0  0  0
   29.6070   27.9520   50.0020 C   0  0  0  0  0  0  0  0  0  0  0  0
   28.5520   28.6240   49.5580 N   0  0  0  0  0  0  0  0  0  0  0  0
   28.5170   29.0170   48.2510 C   0  0  0  0  0  0  0  0  0  0  0  0
   29.5140   28.7590   47.3620 N   0  0  0  0  0  0  0  0  0  0  0  0
   31.4750   27.1330   49.4990 H   0  0  0  0  0  0  0  0  0  0  0  0
   29.6710   27.6230   51.0300 H   0  0  0  0  0  0  0  0  0  0  0  0
   27.3190   29.7820   47.7480 C   0  0  0  0  0  2  0  0  0  0  0  0
   26.9270   29.4170   46.3860 C   0  0  0  0  0  0  0  0  0  0  0  0
   26.7860   30.3340   45.4450 C   0  0  0  0  0  0  0  0  0  0  0  0
   26.4070   29.9690   44.1310 N   0  0  0  0  0  0  0  0  0  0  0  0
   25.6230   30.2960   42.9960 C   0  0  0  0  0  0  0  0  0  0  0  0
   24.9110   31.2130   42.5490 O   0  0  0  0  0  0  0  0  0  0  0  0
   25.9570   28.9930   42.3760 C   0  0  0  0  0  3  0  0  0  0  0  0
   26.3730   29.1420   41.3720 H   0  0  0  0  0  0  0  0  0  0  0  0
   26.9520   28.7590   43.4920 C   0  0  2  0  0  3  0  0  0  0  0  0
   26.5530   27.3830   44.5650 S   0  0  0  0  0  0  0  0  0  0  0  0
   26.7320   27.9590   46.2670 C   0  0  0  0  0  3  0  0  0  0  0  0
   25.8690   27.5960   46.8620 H   0  0  0  0  0  0  0  0  0  0  0  0
   27.0140   31.7430   45.7280 C   0  0  0  0  0  0  0  0  0  0  0  0
   27.8610   32.4480   45.1350 O   0  0  0  0  0  0  0  0  0  0  0  0
   26.9450   33.0010   46.2560 O   0  0  0  0  0  0  0  0  0  0  0  0
   26.8520   33.1180   47.2730 H   0  0  0  0  0  0  0  0  0  0  0  0
   32.6860   28.8800   46.7300 C   0  0  0  0  0  0  0  0  0  0  0  0
   32.6740   29.2270   45.6730 H   0  0  0  0  0  0  0  0  0  0  0  0
   32.4090   29.7620   47.3420 H   0  0  0  0  0  0  0  0  0  0  0  0
   34.0310   28.4820   46.9930 O   0  0  0  0  0  0  0  0  0  0  0  0
   34.9660   28.7790   50.4580 C   0  0  0  0  0  0  0  0  0  0  0  0
   35.9610   29.7880   50.3730 C   0  0  0  0  0  0  0  0  0  0  0  0
   36.2390   30.2950   49.1230 C   0  0  0  0  0  0  0  0  0  0  0  0
   35.5250   29.7750   48.0670 N   0  0  0  0  0  0  0  0  0  0  0  0
   34.5910   28.8220   48.1820 C   0  0  0  0  0  0  0  0  0  0  0  0
   34.3210   28.3300   49.3980 N   0  0  0  0  0  0  0  0  0  0  0  0
   34.8130   28.4400   51.4700 H   0  0  0  0  0  0  0  0  0  0  0  0
   36.5210   30.1980   51.1790 H   0  0  0  0  0  0  0  0  0  0  0  0
   36.6150   32.8380   50.4510 F   0  0  0  0  0  0  0  0  0  0  0  0
   37.4050   32.5150   49.4360 C   0  0  0  0  0  0  0  0  0  0  0  0
   37.2100   31.3180   48.8290 C   0  0  0  0  0  0  0  0  0  0  0  0
   38.0990   31.0830   47.7740 C   0  0  0  0  0  0  0  0  0  0  0  0
   39.0690   31.9740   47.3930 C   0  0  0  0  0  0  0  0  0  0  0  0
   39.2210   33.1750   48.0450 C   0  0  0  0  0  0  0  0  0  0  0  0
   38.3670   33.4370   49.0840 C   0  0  0  0  0  0  0  0  0  0  0  0
   38.0580   30.1550   47.1930 H   0  0  0  0  0  0  0  0  0  0  0  0
   39.7480   31.7750   46.5740 H   0  0  0  0  0  0  0  0  0  0  0  0
   39.9770   33.8780   47.7550 H   0  0  0  0  0  0  0  0  0  0  0  0
   38.4660   34.3740   49.6120 H   0  0  0  0  0  0  0  0  0  0  0  0
  1  2  1  0  0  0  0
  1  4  1  0  0  0  0
  3  1  1  0  0  0  0
  4  5  1  0  0  0  0
  5 10  1  0  0  0  0
  5  6  2  0  0  0  0
  6 11  1  0  0  0  0
  7  6  1  0  0  0  0
  8  7  2  0  0  0  0
  9  4  2  0  0  0  0
  9  8  1  0  0  0  0
 12  8  1  0  0  0  0
 13 12  1  0  0  0  0
 14 24  1  0  0  0  0
 14 13  2  0  0  0  0
 15 14  1  0  0  0  0
 16 15  1  0  0  0  0
 17 16  2  0  0  0  0
 18 16  1  0  0  0  0
 19 18  1  0  0  0  0
 20 18  1  6  0  0  0
 20 15  1  0  0  0  0
 20 21  1  0  0  0  0
 21 22  1  0  0  0  0
 22 13  1  0  0  0  0
 22 23  1  0  0  0  0
 24 26  1  0  0  0  0
 25 24  2  0  0  0  0
 26 27  1  0  0  0  0
 28  1  1  0  0  0  0
 28 31  1  0  0  0  0
 28 30  1  0  0  0  0
 29 28  1  0  0  0  0
 31 36  1  0  0  0  0
 32 38  1  0  0  0  0
 33 32  1  0  0  0  0
 33 39  1  0  0  0  0
 34 33  2  0  0  0  0
 35 36  2  0  0  0  0
 35 34  1  0  0  0  0
 36 37  1  0  0  0  0
 37 32  2  0  0  0  0
 41 40  1  0  0  0  0
 42 34  1  0  0  0  0
 42 41  2  0  0  0  0
 43 42  1  0  0  0  0
 44 43  2  0  0  0  0
 44 45  1  0  0  0  0
 45 46  2  0  0  0  0
 46 41  1  0  0  0  0
 46 50  1  0  0  0  0
 47 43  1  0  0  0  0
 48 44  1  0  0  0  0
 49 45  1  0  0  0  0
M  END
>  <minimizedAffinity>
-7.52146673

>  <minimizedRMSD>
2.88993716

$$$$
