
 OpenBabel03272509403D

 42 45  0  0  1  0  0  0  0  0999 V2000
   37.1270   30.9730   49.0200 C   0  0  0  0  0  0  0  0  0  0  0  0
   36.8990   31.9570   49.9800 C   0  0  0  0  0  0  0  0  0  0  0  0
   37.5260   33.1990   49.9530 C   0  0  0  0  0  0  0  0  0  0  0  0
   38.4290   33.4820   48.9190 C   0  0  0  0  0  0  0  0  0  0  0  0
   38.6430   32.5070   47.9850 C   0  0  0  0  0  0  0  0  0  0  0  0
   38.0020   31.2870   48.0450 C   0  0  0  0  0  0  0  0  0  0  0  0
   36.2050   31.7970   50.8110 H   0  0  0  0  0  0  0  0  0  0  0  0
   37.3140   33.9290   50.7220 H   0  0  0  0  0  0  0  0  0  0  0  0
   38.9030   34.4540   48.9190 H   0  0  0  0  0  0  0  0  0  0  0  0
   39.3560   32.8150   47.2250 H   0  0  0  0  0  0  0  0  0  0  0  0
   36.4260   29.7180   49.1370 C   0  0  0  0  0  0  0  0  0  0  0  0
   36.9500   28.8930   49.9670 O   0  0  0  0  0  0  0  0  0  0  0  0
   33.6020   30.1550   46.9050 C   0  0  0  0  0  0  0  0  0  0  0  0
   32.9540   28.9300   46.9190 C   0  0  0  0  0  0  0  0  0  0  0  0
   33.4880   27.9380   47.7020 C   0  0  0  0  0  0  0  0  0  0  0  0
   34.6140   28.1820   48.4260 N   0  0  0  0  0  0  0  0  0  0  0  0
   35.2120   29.3590   48.3940 C   0  0  0  0  0  0  0  0  0  0  0  0
   34.6970   30.3470   47.6270 N   0  0  0  0  0  0  0  0  0  0  0  0
   33.2320   30.9970   46.3020 H   0  0  0  0  0  0  0  0  0  0  0  0
   32.0700   28.8740   46.2960 H   0  0  0  0  0  0  0  0  0  0  0  0
   32.9860   26.9980   47.7090 H   0  0  0  0  0  0  0  0  0  0  0  0
   38.3520   30.3710   46.9750 C   0  0  0  0  0  3  0  0  0  0  0  0
   38.7140   30.6860   45.7400 C   0  0  0  0  0  3  0  0  0  0  0  0
   39.0940   29.8680   44.5890 C   0  0  0  0  0  0  0  0  0  0  0  0
   40.1830   29.6770   44.5930 H   0  0  0  0  0  0  0  0  0  0  0  0
   38.6310   28.8460   44.7010 H   0  0  0  0  0  0  0  0  0  0  0  0
   36.4160   33.5450   41.6960 C   0  0  0  0  0  0  0  0  0  0  0  0
   36.0240   32.5490   42.4710 C   0  0  0  0  0  0  0  0  0  0  0  0
   36.9920   31.5420   42.8380 N   0  0  0  0  0  0  0  0  0  0  0  0
   37.2240   30.1270   42.9980 C   0  0  0  0  0  0  0  0  0  0  0  0
   36.5330   29.0530   42.9510 O   0  0  0  0  0  0  0  0  0  0  0  0
   38.6500   30.4190   43.2510 C   0  0  1  0  0  3  0  0  0  0  0  0
   38.3630   31.8890   43.2480 C   0  0  1  0  0  3  0  0  0  0  0  0
   39.0660   32.8380   41.9080 S   0  0  0  0  0  0  0  0  0  0  0  0
   37.7530   33.7880   41.1090 C   0  0  0  0  0  3  0  0  0  0  0  0
   37.7510   33.6060   40.0000 H   0  0  0  0  0  0  0  0  0  0  0  0
   35.4230   34.5600   41.3420 C   0  0  0  0  0  2  0  0  0  0  0  0
   35.0340   35.0160   42.2740 H   0  0  0  0  0  0  0  0  0  0  0  0
   34.6610   32.4190   42.9810 C   0  0  0  0  0  0  0  0  0  0  0  0
   33.7340   33.2370   42.8590 O   0  0  0  0  0  0  0  0  0  0  0  0
   34.2040   31.3450   43.6860 O   0  0  0  0  0  0  0  0  0  0  0  0
   33.3130   30.9340   43.5070 H   0  0  0  0  0  0  0  0  0  0  0  0
  1 11  1  0  0  0  0
  1  2  1  0  0  0  0
  2  7  1  0  0  0  0
  3  2  2  0  0  0  0
  3  8  1  0  0  0  0
  4  3  1  0  0  0  0
  5  6  1  0  0  0  0
  5  4  2  0  0  0  0
  6  1  2  0  0  0  0
  9  4  1  0  0  0  0
 10  5  1  0  0  0  0
 11 12  2  0  0  0  0
 13 14  2  0  0  0  0
 13 18  1  0  0  0  0
 14 15  1  0  0  0  0
 15 21  1  0  0  0  0
 15 16  2  0  0  0  0
 17 16  1  0  0  0  0
 17 11  1  0  0  0  0
 18 17  2  0  0  0  0
 19 13  1  0  0  0  0
 20 14  1  0  0  0  0
 22  6  1  0  0  0  0
 23 22  2  0  0  0  0
 24 25  1  0  0  0  0
 24 26  1  0  0  0  0
 24 23  1  0  0  0  0
 27 28  2  0  0  0  0
 28 29  1  0  0  0  0
 28 39  1  0  0  0  0
 29 30  1  0  0  0  0
 29 33  1  0  0  0  0
 30 32  1  0  0  0  0
 31 30  2  0  0  0  0
 32 24  1  1  0  0  0
 33 34  1  6  0  0  0
 33 32  1  0  0  0  0
 35 27  1  0  0  0  0
 35 34  1  0  0  0  0
 36 35  1  0  0  0  0
 37 27  1  0  0  0  0
 37 38  1  0  0  0  0
 39 41  1  0  0  0  0
 40 39  2  0  0  0  0
 42 41  1  0  0  0  0
M  END
>  <minimizedAffinity>
-6.44725943

>  <minimizedRMSD>
0.986454487

$$$$
