
 OpenBabel03272506093D

 51 55  0  0  1  0  0  0  0  0999 V2000
   35.2140   30.0150   49.8390 C   0  0  0  0  0  0  0  0  0  0  0  0
   34.2830   30.5630   49.5250 H   0  0  0  0  0  0  0  0  0  0  0  0
   35.1690   29.9950   50.9440 H   0  0  0  0  0  0  0  0  0  0  0  0
   37.7200   32.7070   49.4030 C   0  0  0  0  0  0  0  0  0  0  0  0
   38.4140   32.3270   48.2660 C   0  0  0  0  0  0  0  0  0  0  0  0
   38.0020   31.1230   47.6500 C   0  0  0  0  0  0  0  0  0  0  0  0
   36.9770   30.4460   48.2080 N   0  0  0  0  0  0  0  0  0  0  0  0
   36.3380   30.8660   49.3180 C   0  0  0  0  0  0  0  0  0  0  0  0
   36.7020   31.9850   49.9130 N   0  0  0  0  0  0  0  0  0  0  0  0
   38.0430   33.6230   49.8600 H   0  0  0  0  0  0  0  0  0  0  0  0
   39.2280   32.8480   47.8060 H   0  0  0  0  0  0  0  0  0  0  0  0
   38.7160   30.6260   46.4930 C   0  0  0  0  0  0  0  0  0  0  0  0
   38.2030   30.8740   45.1450 C   0  0  0  0  0  0  0  0  0  0  0  0
   38.3620   31.8950   44.3240 C   0  0  0  0  0  0  0  0  0  0  0  0
   37.7700   31.9470   43.0130 N   0  0  0  0  0  0  0  0  0  0  0  0
   37.1440   32.6890   41.9770 C   0  0  0  0  0  0  0  0  0  0  0  0
   36.8830   33.9040   41.7860 O   0  0  0  0  0  0  0  0  0  0  0  0
   36.8850   31.4920   41.1490 C   0  0  0  0  0  0  0  0  0  0  0  0
   37.4240   31.4950   40.1660 H   0  0  0  0  0  0  0  0  0  0  0  0
   37.6670   30.7340   42.1740 C   0  0  2  0  0  0  0  0  0  0  0  0
   36.7000   29.5920   43.1980 S   0  0  0  0  0  0  0  0  0  0  0  0
   37.3850   29.6710   44.8500 C   0  0  0  0  0  0  0  0  0  0  0  0
   36.5770   29.5500   45.6390 H   0  0  0  0  0  0  0  0  0  0  0  0
   39.1710   33.0150   44.7440 C   0  0  0  0  0  0  0  0  0  0  0  0
   39.9700   33.5420   43.9100 O   0  0  0  0  0  0  0  0  0  0  0  0
   39.9410   34.0820   45.1430 O   0  0  0  0  0  0  0  0  0  0  0  0
   39.7250   34.7510   45.8590 H   0  0  0  0  0  0  0  0  0  0  0  0
   35.2240   28.6810   49.1830 C   0  0  0  0  0  0  0  0  0  0  0  0
   35.2210   27.9190   50.0120 H   0  0  0  0  0  0  0  0  0  0  0  0
   36.1540   28.4530   48.6120 H   0  0  0  0  0  0  0  0  0  0  0  0
   34.0050   28.4720   48.3360 C   0  0  0  0  0  0  0  0  0  0  0  0
   34.1220   28.6850   46.9250 C   0  0  0  0  0  0  0  0  0  0  0  0
   32.4690   28.3210   46.3910 S   0  0  0  0  0  0  0  0  0  0  0  0
   31.8380   27.9370   48.1090 C   0  0  0  0  0  0  0  0  0  0  0  0
   32.8290   28.1130   48.7430 N   0  0  0  0  0  0  0  0  0  0  0  0
   30.5210   27.5330   48.5800 N   0  0  0  0  0  0  0  0  0  0  0  0
   29.7230   26.7940   47.6690 C   0  0  0  0  0  0  0  0  0  0  0  0
   28.2700   26.7530   48.0160 C   0  0  0  0  0  0  0  0  0  0  0  0
   27.9040   27.6320   49.1130 N   0  0  0  0  0  0  0  0  0  0  0  0
   28.7920   27.2660   50.2200 C   0  0  0  0  0  0  0  0  0  0  0  0
   30.1150   27.9010   49.9180 C   0  0  0  0  0  0  0  0  0  0  0  0
   34.9680   28.9770   46.3650 H   0  0  0  0  0  0  0  0  0  0  0  0
   29.8610   27.2290   46.6500 H   0  0  0  0  0  0  0  0  0  0  0  0
   30.1250   25.7590   47.6100 H   0  0  0  0  0  0  0  0  0  0  0  0
   27.6360   27.0480   47.1620 H   0  0  0  0  0  0  0  0  0  0  0  0
   27.9960   25.7150   48.3520 H   0  0  0  0  0  0  0  0  0  0  0  0
   26.9380   27.4130   49.3940 H   0  0  0  0  0  0  0  0  0  0  0  0
   28.3800   27.6370   51.1950 H   0  0  0  0  0  0  0  0  0  0  0  0
   28.9290   26.1610   50.2500 H   0  0  0  0  0  0  0  0  0  0  0  0
   30.8920   27.6450   50.6680 H   0  0  0  0  0  0  0  0  0  0  0  0
   29.9370   29.0080   49.8970 H   0  0  0  0  0  0  0  0  0  0  0  0
  1  3  1  0  0  0  0
  2  1  1  0  0  0  0
  4 10  1  0  0  0  0
  4  9  1  0  0  0  0
  5  4  2  0  0  0  0
  6  7  2  0  0  0  0
  6  5  1  0  0  0  0
  7  8  1  0  0  0  0
  8  1  1  0  0  0  0
  8  9  2  0  0  0  0
 11  5  1  0  0  0  0
 12  6  1  0  0  0  0
 13 12  1  0  0  0  0
 14 24  1  0  0  0  0
 14 13  2  0  0  0  0
 15 14  1  0  0  0  0
 16 15  1  0  0  0  0
 17 16  2  0  0  0  0
 18 16  1  0  0  0  0
 19 18  1  0  0  0  0
 20 18  1  6  0  0  0
 20 15  1  0  0  0  0
 20 21  1  0  0  0  0
 21 22  1  0  0  0  0
 22 13  1  0  0  0  0
 22 23  1  0  0  0  0
 25 24  1  0  0  0  0
 25 26  1  0  0  0  0
 26 27  1  0  0  0  0
 28  1  1  0  0  0  0
 28 29  1  0  0  0  0
 30 28  1  0  0  0  0
 31 35  1  0  0  0  0
 31 28  1  0  0  0  0
 32 31  2  0  0  0  0
 33 32  1  0  0  0  0
 33 34  1  0  0  0  0
 34 36  1  0  0  0  0
 34 35  2  0  0  0  0
 36 41  1  0  0  0  0
 37 38  1  0  0  0  0
 37 36  1  0  0  0  0
 38 46  1  0  0  0  0
 38 39  1  0  0  0  0
 39 47  1  0  0  0  0
 39 40  1  0  0  0  0
 40 49  1  0  0  0  0
 40 48  1  0  0  0  0
 41 40  1  0  0  0  0
 41 50  1  0  0  0  0
 42 32  1  0  0  0  0
 43 37  1  0  0  0  0
 44 37  1  0  0  0  0
 45 38  1  0  0  0  0
 51 41  1  0  0  0  0
M  END
>  <minimizedAffinity>
-6.69025326

>  <minimizedRMSD>
1.59815574

$$$$
