
 OpenBabel03272507093D

 34 37  0  0  1  0  0  0  0  0999 V2000
   36.1100   29.6280   49.9530 C   0  0  0  0  0  0  0  0  0  0  0  0
   34.9550   29.6490   50.6990 C   0  0  0  0  0  0  0  0  0  0  0  0
   34.0420   28.8230   50.0190 C   0  0  0  0  0  0  0  0  0  0  0  0
   34.7110   28.3580   48.9020 C   0  0  0  0  0  0  0  0  0  0  0  0
   35.9130   28.8630   48.9210 O   0  0  0  0  0  0  0  0  0  0  0  0
   34.7660   30.1900   51.6330 H   0  0  0  0  0  0  0  0  0  0  0  0
   33.0140   28.6100   50.3350 H   0  0  0  0  0  0  0  0  0  0  0  0
   37.2850   30.3780   50.3560 C   0  0  0  0  0  0  0  0  0  0  0  0
   37.6970   30.2780   51.5350 O   0  0  0  0  0  0  0  0  0  0  0  0
   37.9220   31.2120   49.3630 C   0  0  0  0  0  0  0  0  0  0  0  0
   38.3090   32.4880   49.7480 C   0  0  0  0  0  0  0  0  0  0  0  0
   38.9250   33.3150   48.8180 C   0  0  0  0  0  0  0  0  0  0  0  0
   39.1210   32.8210   47.5580 N   0  0  0  0  0  0  0  0  0  0  0  0
   38.7370   31.5770   47.2040 C   0  0  0  0  0  0  0  0  0  0  0  0
   38.1440   30.7820   48.0970 N   0  0  0  0  0  0  0  0  0  0  0  0
   38.1580   32.8820   50.7390 H   0  0  0  0  0  0  0  0  0  0  0  0
   39.2380   34.3150   49.0890 H   0  0  0  0  0  0  0  0  0  0  0  0
   38.9180   31.2300   46.1760 H   0  0  0  0  0  0  0  0  0  0  0  0
   34.0470   27.4390   47.9290 C   0  0  0  0  0  0  0  0  0  0  0  0
   32.9780   28.2120   47.2720 C   0  0  0  0  0  0  0  0  0  0  0  0
   33.1790   29.1470   46.3730 C   0  0  0  0  0  0  0  0  0  0  0  0
   32.0610   29.8080   45.8120 N   0  0  0  0  0  0  0  0  0  0  0  0
   31.4840   31.0550   45.3770 C   0  0  0  0  0  0  0  0  0  0  0  0
   31.8890   32.2450   45.1540 O   0  0  0  0  0  0  0  0  0  0  0  0
   30.1320   30.4790   45.2540 C   0  0  0  0  0  0  0  0  0  0  0  0
   29.6270   30.6570   44.2780 H   0  0  0  0  0  0  0  0  0  0  0  0
   30.8150   29.1590   45.4080 C   0  0  2  0  0  0  0  0  0  0  0  0
   30.2510   28.2490   46.8830 S   0  0  0  0  0  0  0  0  0  0  0  0
   31.7000   27.7270   47.8400 C   0  0  0  0  0  0  0  0  0  0  0  0
   31.6390   26.6000   47.8520 H   0  0  0  0  0  0  0  0  0  0  0  0
   34.5240   29.5460   45.9060 C   0  0  0  0  0  0  0  0  0  0  0  0
   35.2690   29.2100   44.9690 O   0  0  0  0  0  0  0  0  0  0  0  0
   35.2890   30.5010   46.5260 O   0  0  0  0  0  0  0  0  0  0  0  0
   36.2490   30.3280   46.7890 H   0  0  0  0  0  0  0  0  0  0  0  0
  1  8  1  0  0  0  0
  1  2  2  0  0  0  0
  2  6  1  0  0  0  0
  3  7  1  0  0  0  0
  3  2  1  0  0  0  0
  4  5  1  0  0  0  0
  4  3  2  0  0  0  0
  5  1  1  0  0  0  0
  8  9  2  0  0  0  0
 10 11  1  0  0  0  0
 10  8  1  0  0  0  0
 11 16  1  0  0  0  0
 12 17  1  0  0  0  0
 12 11  2  0  0  0  0
 13 12  1  0  0  0  0
 14 13  2  0  0  0  0
 14 15  1  0  0  0  0
 15 10  2  0  0  0  0
 18 14  1  0  0  0  0
 19  4  1  0  0  0  0
 20 29  1  0  0  0  0
 20 19  1  0  0  0  0
 21 20  2  0  0  0  0
 22 21  1  0  0  0  0
 23 22  1  0  0  0  0
 24 23  2  0  0  0  0
 25 23  1  0  0  0  0
 26 25  1  0  0  0  0
 27 25  1  1  0  0  0
 27 22  1  0  0  0  0
 27 28  1  0  0  0  0
 28 29  1  0  0  0  0
 29 30  1  0  0  0  0
 31 21  1  0  0  0  0
 31 33  1  0  0  0  0
 32 31  2  0  0  0  0
 33 34  1  0  0  0  0
M  END
>  <minimizedAffinity>
-6.10267925

>  <minimizedRMSD>
2.27883458

$$$$
