
 OpenBabel03272509403D

 42 45  0  0  1  0  0  0  0  0999 V2000
   36.9990   30.9480   49.0910 C   0  0  0  0  0  0  0  0  0  0  0  0
   36.6870   31.8470   50.1090 C   0  0  0  0  0  0  0  0  0  0  0  0
   37.2600   33.1110   50.2020 C   0  0  0  0  0  0  0  0  0  0  0  0
   38.1930   33.5080   49.2350 C   0  0  0  0  0  0  0  0  0  0  0  0
   38.4890   32.6160   48.2420 C   0  0  0  0  0  0  0  0  0  0  0  0
   37.9000   31.3700   48.1830 C   0  0  0  0  0  0  0  0  0  0  0  0
   35.9660   31.5960   50.8940 H   0  0  0  0  0  0  0  0  0  0  0  0
   36.9840   33.7720   51.0120 H   0  0  0  0  0  0  0  0  0  0  0  0
   38.6240   34.4960   49.3280 H   0  0  0  0  0  0  0  0  0  0  0  0
   39.2200   33.0090   47.5400 H   0  0  0  0  0  0  0  0  0  0  0  0
   36.3490   29.6610   49.0830 C   0  0  0  0  0  0  0  0  0  0  0  0
   36.9090   28.7790   49.8280 O   0  0  0  0  0  0  0  0  0  0  0  0
   33.6150   30.1490   46.7520 C   0  0  0  0  0  0  0  0  0  0  0  0
   32.9240   28.9470   46.7680 C   0  0  0  0  0  0  0  0  0  0  0  0
   33.3970   27.9530   47.5880 C   0  0  0  0  0  0  0  0  0  0  0  0
   34.5080   28.1730   48.3440 N   0  0  0  0  0  0  0  0  0  0  0  0
   35.1470   29.3280   48.3080 C   0  0  0  0  0  0  0  0  0  0  0  0
   34.6920   30.3170   47.5060 N   0  0  0  0  0  0  0  0  0  0  0  0
   33.2940   30.9900   46.1210 H   0  0  0  0  0  0  0  0  0  0  0  0
   32.0590   28.9090   46.1190 H   0  0  0  0  0  0  0  0  0  0  0  0
   32.8620   27.0320   47.5970 H   0  0  0  0  0  0  0  0  0  0  0  0
   38.3350   30.5520   47.0660 C   0  0  0  0  0  3  0  0  0  0  0  0
   39.0960   30.9280   46.0480 C   0  0  0  0  0  3  0  0  0  0  0  0
   39.6040   30.2080   44.8810 C   0  0  0  0  0  0  0  0  0  0  0  0
   40.5990   30.5920   44.5930 H   0  0  0  0  0  0  0  0  0  0  0  0
   39.7920   29.1350   45.1720 H   0  0  0  0  0  0  0  0  0  0  0  0
   37.4950   27.6910   40.6050 C   0  0  0  0  0  0  0  0  0  0  0  0
   38.6860   28.2070   40.8490 C   0  0  0  0  0  0  0  0  0  0  0  0
   38.8290   29.1070   41.9690 N   0  0  0  0  0  0  0  0  0  0  0  0
   39.4100   30.3480   42.4250 C   0  0  0  0  0  0  0  0  0  0  0  0
   40.2160   31.2280   41.9670 O   0  0  0  0  0  0  0  0  0  0  0  0
   38.6670   30.1950   43.6930 C   0  0  1  0  0  3  0  0  0  0  0  0
   38.2070   28.8340   43.2750 C   0  0  1  0  0  3  0  0  0  0  0  0
   36.4580   28.6410   42.9700 S   0  0  0  0  0  0  0  0  0  0  0  0
   36.2240   27.9170   41.3310 C   0  0  0  0  0  3  0  0  0  0  0  0
   35.5110   28.5380   40.7220 H   0  0  0  0  0  0  0  0  0  0  0  0
   37.3720   26.7760   39.4710 C   0  0  0  0  0  2  0  0  0  0  0  0
   38.0610   25.9220   39.6270 H   0  0  0  0  0  0  0  0  0  0  0  0
   39.8680   27.9080   40.0450 C   0  0  0  0  0  0  0  0  0  0  0  0
   40.6580   26.9610   40.1970 O   0  0  0  0  0  0  0  0  0  0  0  0
   40.2810   28.6530   38.9800 O   0  0  0  0  0  0  0  0  0  0  0  0
   40.5930   28.2360   38.1300 H   0  0  0  0  0  0  0  0  0  0  0  0
  1  2  1  0  0  0  0
  2  3  2  0  0  0  0
  2  7  1  0  0  0  0
  3  8  1  0  0  0  0
  4  9  1  0  0  0  0
  4  3  1  0  0  0  0
  5  4  2  0  0  0  0
  6  5  1  0  0  0  0
  6  1  2  0  0  0  0
 10  5  1  0  0  0  0
 11  1  1  0  0  0  0
 11 12  2  0  0  0  0
 13 14  2  0  0  0  0
 13 18  1  0  0  0  0
 14 15  1  0  0  0  0
 15 21  1  0  0  0  0
 15 16  2  0  0  0  0
 17 16  1  0  0  0  0
 17 11  1  0  0  0  0
 18 17  2  0  0  0  0
 19 13  1  0  0  0  0
 20 14  1  0  0  0  0
 22  6  1  0  0  0  0
 23 22  2  0  0  0  0
 24 26  1  0  0  0  0
 24 23  1  0  0  0  0
 25 24  1  0  0  0  0
 27 28  2  0  0  0  0
 27 35  1  0  0  0  0
 28 29  1  0  0  0  0
 29 30  1  0  0  0  0
 29 33  1  0  0  0  0
 30 32  1  0  0  0  0
 31 30  2  0  0  0  0
 32 24  1  1  0  0  0
 33 34  1  6  0  0  0
 33 32  1  0  0  0  0
 35 34  1  0  0  0  0
 36 35  1  0  0  0  0
 37 38  1  0  0  0  0
 37 27  1  0  0  0  0
 39 40  2  0  0  0  0
 39 28  1  0  0  0  0
 41 39  1  0  0  0  0
 42 41  1  0  0  0  0
M  END
>  <minimizedAffinity>
-5.96424055

>  <minimizedRMSD>
0.695563018

$$$$
