
 OpenBabel03272507193D

 37 40  0  0  1  0  0  0  0  0999 V2000
   37.5660   31.2600   49.8710 C   0  0  0  0  0  0  0  0  0  0  0  0
   37.6560   32.6400   50.0000 C   0  0  0  0  0  0  0  0  0  0  0  0
   38.1320   33.3000   48.8520 C   0  0  0  0  0  0  0  0  0  0  0  0
   38.4670   32.6010   47.7240 N   0  0  0  0  0  0  0  0  0  0  0  0
   38.3600   31.2520   47.6500 C   0  0  0  0  0  0  0  0  0  0  0  0
   37.9000   30.5770   48.7510 N   0  0  0  0  0  0  0  0  0  0  0  0
   37.3910   33.1690   50.8830 H   0  0  0  0  0  0  0  0  0  0  0  0
   38.2430   34.3800   48.8440 H   0  0  0  0  0  0  0  0  0  0  0  0
   37.0380   30.5250   51.0640 C   0  0  1  0  0  0  0  0  0  0  0  0
   36.1130   29.4010   50.9310 C   0  0  2  0  0  0  0  0  0  0  0  0
   37.5610   29.0800   51.1400 C   0  0  0  0  0  0  0  0  0  0  0  0
   37.1280   31.0950   52.0330 H   0  0  0  0  0  0  0  0  0  0  0  0
   35.3710   29.3520   51.7820 H   0  0  0  0  0  0  0  0  0  0  0  0
   37.8910   28.7620   52.1490 H   0  0  0  0  0  0  0  0  0  0  0  0
   38.1390   28.6760   50.2890 H   0  0  0  0  0  0  0  0  0  0  0  0
   35.5430   29.1930   49.6840 O   0  0  0  0  0  0  0  0  0  0  0  0
   34.2410   29.1740   49.3110 C   0  0  0  0  0  0  0  0  0  0  0  0
   33.8690   28.7140   48.2080 O   0  0  0  0  0  0  0  0  0  0  0  0
   33.4860   29.7360   50.3440 N   0  0  0  0  0  0  0  0  0  0  0  0
   32.9310   30.5730   50.6490 H   0  0  0  0  0  0  0  0  0  0  0  0
   33.3750   29.1470   51.2200 H   0  0  0  0  0  0  0  0  0  0  0  0
   38.7420   30.5530   46.3880 C   0  0  0  0  0  2  0  0  0  0  0  0
   37.9880   31.0710   45.2270 C   0  0  0  0  0  0  0  0  0  0  0  0
   38.4340   31.9440   44.3460 C   0  0  0  0  0  0  0  0  0  0  0  0
   37.7580   32.4760   43.2200 N   0  0  0  0  0  0  0  0  0  0  0  0
   37.7740   33.1350   41.9620 C   0  0  0  0  0  0  0  0  0  0  0  0
   38.5740   33.9430   41.4540 O   0  0  0  0  0  0  0  0  0  0  0  0
   36.5080   32.4410   41.6260 C   0  0  0  0  0  3  0  0  0  0  0  0
   36.7410   31.4310   41.1810 H   0  0  0  0  0  0  0  0  0  0  0  0
   36.3210   32.4120   43.1260 C   0  0  1  0  0  3  0  0  0  0  0  0
   35.6870   30.8760   43.7890 S   0  0  0  0  0  0  0  0  0  0  0  0
   36.6540   30.4290   45.2500 C   0  0  0  0  0  3  0  0  0  0  0  0
   36.1150   30.6490   46.1930 H   0  0  0  0  0  0  0  0  0  0  0  0
   39.7910   32.4310   44.5510 C   0  0  0  0  0  0  0  0  0  0  0  0
   40.0900   33.6600   44.5880 O   0  0  0  0  0  0  0  0  0  0  0  0
   41.1370   32.6530   44.7560 O   0  0  0  0  0  0  0  0  0  0  0  0
   41.8390   31.9490   44.5280 H   0  0  0  0  0  0  0  0  0  0  0  0
  1  2  1  0  0  0  0
  1  9  1  0  0  0  0
  2  7  1  0  0  0  0
  3  2  2  0  0  0  0
  4  3  1  0  0  0  0
  5  4  2  0  0  0  0
  5  6  1  0  0  0  0
  6  1  2  0  0  0  0
  8  3  1  0  0  0  0
  9 11  1  0  0  0  0
  9 12  1  1  0  0  0
 10  9  1  0  0  0  0
 10 11  1  0  0  0  0
 10 13  1  1  0  0  0
 11 14  1  0  0  0  0
 15 11  1  0  0  0  0
 16 10  1  0  0  0  0
 17 16  1  0  0  0  0
 17 19  1  0  0  0  0
 18 17  2  0  0  0  0
 19 20  1  0  0  0  0
 19 21  1  0  0  0  0
 22  5  1  0  0  0  0
 23 32  1  0  0  0  0
 23 22  1  0  0  0  0
 24 34  1  0  0  0  0
 24 23  2  0  0  0  0
 25 24  1  0  0  0  0
 26 25  1  0  0  0  0
 27 26  2  0  0  0  0
 28 26  1  0  0  0  0
 29 28  1  0  0  0  0
 30 28  1  6  0  0  0
 30 25  1  0  0  0  0
 30 31  1  0  0  0  0
 31 32  1  0  0  0  0
 32 33  1  0  0  0  0
 34 35  2  0  0  0  0
 34 36  1  0  0  0  0
 37 36  1  0  0  0  0
M  END
>  <minimizedAffinity>
-6.11230135

>  <minimizedRMSD>
3.21128273

$$$$
