
 OpenBabel03272509533D

 50 54  0  0  1  0  0  0  0  0999 V2000
   33.4210   27.3500   48.2790 C   0  0  0  0  0  0  0  0  0  0  0  0
   33.4000   26.7580   49.2260 H   0  0  0  0  0  0  0  0  0  0  0  0
   33.8060   26.6500   47.4970 H   0  0  0  0  0  0  0  0  0  0  0  0
   32.0430   27.7060   47.8790 C   0  0  0  0  0  0  0  0  0  0  0  0
   31.0510   27.7370   48.8570 C   0  0  0  0  0  0  0  0  0  0  0  0
   29.7520   28.0520   48.5980 C   0  0  0  0  0  0  0  0  0  0  0  0
   29.4140   28.3450   47.3480 N   0  0  0  0  0  0  0  0  0  0  0  0
   30.3740   28.3190   46.3760 C   0  0  0  0  0  0  0  0  0  0  0  0
   31.6770   28.0070   46.6160 N   0  0  0  0  0  0  0  0  0  0  0  0
   31.3200   27.4980   49.8830 H   0  0  0  0  0  0  0  0  0  0  0  0
   29.0210   28.0610   49.3940 H   0  0  0  0  0  0  0  0  0  0  0  0
   29.9890   28.6520   44.9580 C   0  0  0  0  0  2  0  0  0  0  0  0
   30.4870   29.9550   44.5110 C   0  0  0  0  0  0  0  0  0  0  0  0
   29.6900   31.0050   44.4370 C   0  0  0  0  0  0  0  0  0  0  0  0
   30.1840   32.2590   44.0040 N   0  0  0  0  0  0  0  0  0  0  0  0
   29.9350   33.4230   43.2340 C   0  0  0  0  0  0  0  0  0  0  0  0
   29.0210   33.9800   42.6010 O   0  0  0  0  0  0  0  0  0  0  0  0
   31.3320   33.8700   43.4350 C   0  0  0  0  0  3  0  0  0  0  0  0
   31.3530   34.8880   43.8460 H   0  0  0  0  0  0  0  0  0  0  0  0
   31.5110   32.7390   44.4250 C   0  0  2  0  0  3  0  0  0  0  0  0
   32.6960   31.4940   43.9200 S   0  0  0  0  0  0  0  0  0  0  0  0
   31.9240   29.8820   44.1810 C   0  0  0  0  0  3  0  0  0  0  0  0
   32.1260   29.2400   43.2990 H   0  0  0  0  0  0  0  0  0  0  0  0
   28.2830   30.9090   44.7990 C   0  0  0  0  0  0  0  0  0  0  0  0
   27.6490   31.8110   45.3890 O   0  0  0  0  0  0  0  0  0  0  0  0
   27.0030   30.4670   44.9680 O   0  0  0  0  0  0  0  0  0  0  0  0
   26.8360   29.4960   45.2590 H   0  0  0  0  0  0  0  0  0  0  0  0
   34.3320   28.5370   48.3340 C   0  0  0  0  0  0  0  0  0  0  0  0
   35.3780   28.2540   48.0820 H   0  0  0  0  0  0  0  0  0  0  0  0
   34.0450   29.3220   47.6050 H   0  0  0  0  0  0  0  0  0  0  0  0
   34.3810   29.0670   49.6580 O   0  0  0  0  0  0  0  0  0  0  0  0
   37.2290   29.9630   51.6710 C   0  0  0  0  0  0  0  0  0  0  0  0
   38.0410   30.6060   50.7000 C   0  0  0  0  0  0  0  0  0  0  0  0
   37.5470   30.6850   49.4170 C   0  0  0  0  0  0  0  0  0  0  0  0
   36.3060   30.1310   49.1920 N   0  0  0  0  0  0  0  0  0  0  0  0
   35.5650   29.5300   50.1320 C   0  0  0  0  0  0  0  0  0  0  0  0
   36.0470   29.4540   51.3800 N   0  0  0  0  0  0  0  0  0  0  0  0
   37.6910   29.9460   52.6440 H   0  0  0  0  0  0  0  0  0  0  0  0
   39.0000   31.0380   50.8590 H   0  0  0  0  0  0  0  0  0  0  0  0
   38.8020   33.2880   49.2840 F   0  0  0  0  0  0  0  0  0  0  0  0
   38.8100   32.5110   48.2100 C   0  0  0  0  0  0  0  0  0  0  0  0
   38.2150   31.2950   48.2950 C   0  0  0  0  0  0  0  0  0  0  0  0
   38.2830   30.5620   47.1050 C   0  0  0  0  0  0  0  0  0  0  0  0
   38.8910   31.0270   45.9680 C   0  0  0  0  0  0  0  0  0  0  0  0
   39.4780   32.2710   45.9370 C   0  0  0  0  0  0  0  0  0  0  0  0
   39.4300   33.0140   47.0870 C   0  0  0  0  0  0  0  0  0  0  0  0
   37.8440   29.5620   47.0300 H   0  0  0  0  0  0  0  0  0  0  0  0
   38.9340   30.4460   45.0560 H   0  0  0  0  0  0  0  0  0  0  0  0
   39.9560   32.6430   45.0530 H   0  0  0  0  0  0  0  0  0  0  0  0
   39.8840   33.9950   47.0890 H   0  0  0  0  0  0  0  0  0  0  0  0
  1 28  1  0  0  0  0
  1  2  1  0  0  0  0
  3  1  1  0  0  0  0
  4  1  1  0  0  0  0
  4  5  1  0  0  0  0
  5 10  1  0  0  0  0
  6  5  2  0  0  0  0
  6 11  1  0  0  0  0
  7  6  1  0  0  0  0
  8  9  1  0  0  0  0
  8  7  2  0  0  0  0
  9  4  2  0  0  0  0
 12  8  1  0  0  0  0
 13 12  1  0  0  0  0
 14 13  2  0  0  0  0
 14 24  1  0  0  0  0
 15 20  1  0  0  0  0
 15 14  1  0  0  0  0
 16 18  1  0  0  0  0
 16 15  1  0  0  0  0
 17 16  2  0  0  0  0
 18 19  1  0  0  0  0
 20 18  1  6  0  0  0
 21 22  1  0  0  0  0
 21 20  1  0  0  0  0
 22 13  1  0  0  0  0
 23 22  1  0  0  0  0
 24 26  1  0  0  0  0
 24 25  2  0  0  0  0
 26 27  1  0  0  0  0
 28 31  1  0  0  0  0
 29 28  1  0  0  0  0
 30 28  1  0  0  0  0
 31 36  1  0  0  0  0
 32 38  1  0  0  0  0
 33 39  1  0  0  0  0
 33 32  2  0  0  0  0
 34 33  1  0  0  0  0
 35 34  2  0  0  0  0
 35 36  1  0  0  0  0
 36 37  2  0  0  0  0
 37 32  1  0  0  0  0
 41 42  1  0  0  0  0
 41 40  1  0  0  0  0
 42 34  1  0  0  0  0
 43 42  2  0  0  0  0
 44 43  1  0  0  0  0
 45 44  2  0  0  0  0
 45 46  1  0  0  0  0
 46 50  1  0  0  0  0
 46 41  2  0  0  0  0
 47 43  1  0  0  0  0
 48 44  1  0  0  0  0
 49 45  1  0  0  0  0
M  END
>  <minimizedAffinity>
-6.7270937

>  <minimizedRMSD>
1.08059907

$$$$
