
 OpenBabel03272507333D

 43 48  0  0  1  0  0  0  0  0999 V2000
   33.5070   28.4860   46.0910 C   0  0  1  0  0  0  0  0  0  0  0  0
   33.8080   27.0270   45.5670 C   0  0  0  0  0  0  0  0  0  0  0  0
   32.6760   27.8420   45.0700 C   0  0  2  0  0  0  0  0  0  0  0  0
   34.4300   29.0830   45.9360 H   0  0  0  0  0  0  0  0  0  0  0  0
   33.5860   26.1960   46.2280 H   0  0  0  0  0  0  0  0  0  0  0  0
   34.6870   26.9090   44.9200 H   0  0  0  0  0  0  0  0  0  0  0  0
   31.6440   27.6000   45.4350 H   0  0  0  0  0  0  0  0  0  0  0  0
   33.0890   28.4200   47.5330 C   0  0  0  0  0  0  0  0  0  0  0  0
   31.9190   28.0440   47.8690 O   0  0  0  0  0  0  0  0  0  0  0  0
   35.8950   29.3340   49.5550 C   0  0  0  0  0  0  0  0  0  0  0  0
   34.9310   29.2680   50.5470 C   0  0  0  0  0  0  0  0  0  0  0  0
   33.7210   28.9140   49.9310 C   0  0  0  0  0  0  0  0  0  0  0  0
   34.0270   28.7850   48.5930 C   0  0  0  0  0  0  0  0  0  0  0  0
   35.3070   29.0410   48.4250 O   0  0  0  0  0  0  0  0  0  0  0  0
   34.9480   29.4280   51.6310 H   0  0  0  0  0  0  0  0  0  0  0  0
   32.7550   28.7720   50.4060 H   0  0  0  0  0  0  0  0  0  0  0  0
   37.2730   29.6760   49.8460 C   0  0  0  0  0  0  0  0  0  0  0  0
   37.8740   29.0670   50.7440 O   0  0  0  0  0  0  0  0  0  0  0  0
   37.8660   30.7210   49.0580 C   0  0  0  0  0  0  0  0  0  0  0  0
   38.0910   31.9340   49.6860 C   0  0  0  0  0  0  0  0  0  0  0  0
   38.6640   32.9710   48.9440 C   0  0  0  0  0  0  0  0  0  0  0  0
   38.9760   32.7320   47.6250 N   0  0  0  0  0  0  0  0  0  0  0  0
   38.7430   31.5450   47.0550 C   0  0  0  0  0  0  0  0  0  0  0  0
   38.1950   30.5450   47.7560 N   0  0  0  0  0  0  0  0  0  0  0  0
   37.8450   32.1150   50.7180 H   0  0  0  0  0  0  0  0  0  0  0  0
   38.8520   33.9390   49.4140 H   0  0  0  0  0  0  0  0  0  0  0  0
   39.0000   31.3880   46.0110 H   0  0  0  0  0  0  0  0  0  0  0  0
   32.7380   28.2180   43.6200 C   0  0  0  0  0  2  0  0  0  0  0  0
   32.9440   29.6500   43.3830 C   0  0  0  0  0  0  0  0  0  0  0  0
   34.0900   30.2410   43.0900 C   0  0  0  0  0  0  0  0  0  0  0  0
   34.1610   31.6490   42.8930 N   0  0  0  0  0  0  0  0  0  0  0  0
   34.9700   32.7600   42.5420 C   0  0  1  0  0  0  0  0  0  0  0  0
   36.1840   33.1030   42.6650 O   0  0  0  0  0  1  0  0  0  0  0  0
   33.7790   33.4040   41.9420 C   0  0  0  0  0  3  0  0  0  0  0  0
   33.5170   33.1080   40.9200 H   0  0  0  0  0  0  0  0  0  0  0  0
   33.1120   32.6140   43.0470 C   0  0  1  0  0  0  0  0  0  0  0  0
   31.5310   31.8930   42.6180 S   0  0  0  0  0  0  0  0  0  0  0  0
   31.6540   30.3370   43.5340 C   0  0  0  0  0  3  0  0  0  0  0  0
   31.4760   30.5860   44.6160 H   0  0  0  0  0  0  0  0  0  0  0  0
   35.3600   29.4880   42.9620 C   0  0  0  0  0  0  0  0  0  0  0  0
   35.8750   28.8560   42.0370 O   0  0  0  0  0  0  0  0  0  0  0  0
   36.2610   29.3720   43.9890 O   0  0  0  0  0  0  0  0  0  0  0  0
   37.2420   29.4740   43.8600 H   0  0  0  0  0  0  0  0  0  0  0  0
  1  4  1  6  0  0  0
  1  8  1  0  0  0  0
  2  1  1  0  0  0  0
  2  5  1  0  0  0  0
  3  7  1  1  0  0  0
  3  2  1  0  0  0  0
  3  1  1  0  0  0  0
  6  2  1  0  0  0  0
  8  9  2  0  0  0  0
  8 13  1  0  0  0  0
 10 17  1  0  0  0  0
 10 11  2  0  0  0  0
 11 15  1  0  0  0  0
 12 16  1  0  0  0  0
 12 11  1  0  0  0  0
 13 12  2  0  0  0  0
 14 13  1  0  0  0  0
 14 10  1  0  0  0  0
 17 18  2  0  0  0  0
 19 20  1  0  0  0  0
 19 17  1  0  0  0  0
 20 25  1  0  0  0  0
 21 26  1  0  0  0  0
 21 20  2  0  0  0  0
 22 21  1  0  0  0  0
 23 22  2  0  0  0  0
 23 24  1  0  0  0  0
 24 19  2  0  0  0  0
 27 23  1  0  0  0  0
 28  3  1  0  0  0  0
 29 38  1  0  0  0  0
 29 28  1  0  0  0  0
 30 29  2  0  0  0  0
 31 36  1  0  0  0  0
 31 30  1  0  0  0  0
 32 33  1  1  0  0  0
 32 31  1  0  0  0  0
 32 36  1  0  0  0  0
 34 32  1  0  0  0  0
 35 34  1  0  0  0  0
 36 34  1  6  0  0  0
 37 36  1  0  0  0  0
 37 38  1  0  0  0  0
 38 39  1  0  0  0  0
 40 30  1  0  0  0  0
 40 42  1  0  0  0  0
 41 40  2  0  0  0  0
 43 42  1  0  0  0  0
M  END
>  <minimizedAffinity>
-5.24864244

>  <minimizedRMSD>
2.84159303

$$$$
