
 OpenBabel03272507193D

 37 40  0  0  1  0  0  0  0  0999 V2000
   37.4410   31.3030   49.8290 C   0  0  0  0  0  0  0  0  0  0  0  0
   37.6250   32.6710   49.9830 C   0  0  0  0  0  0  0  0  0  0  0  0
   38.1960   33.3070   48.8660 C   0  0  0  0  0  0  0  0  0  0  0  0
   38.5270   32.6000   47.7420 N   0  0  0  0  0  0  0  0  0  0  0  0
   38.3250   31.2630   47.6430 C   0  0  0  0  0  0  0  0  0  0  0  0
   37.7710   30.6110   48.7150 N   0  0  0  0  0  0  0  0  0  0  0  0
   37.3620   33.2070   50.8620 H   0  0  0  0  0  0  0  0  0  0  0  0
   38.3850   34.3760   48.8790 H   0  0  0  0  0  0  0  0  0  0  0  0
   36.8100   30.5940   50.9880 C   0  0  1  0  0  0  0  0  0  0  0  0
   36.0290   29.3710   50.8140 C   0  0  2  0  0  0  0  0  0  0  0  0
   37.4530   29.2220   51.2550 C   0  0  0  0  0  0  0  0  0  0  0  0
   36.6960   31.2320   51.9120 H   0  0  0  0  0  0  0  0  0  0  0  0
   35.1740   29.2980   51.5490 H   0  0  0  0  0  0  0  0  0  0  0  0
   37.6540   29.0070   52.3240 H   0  0  0  0  0  0  0  0  0  0  0  0
   38.1900   28.8270   50.5320 H   0  0  0  0  0  0  0  0  0  0  0  0
   35.6790   29.0220   49.5170 O   0  0  0  0  0  0  0  0  0  0  0  0
   34.4840   28.6320   49.0100 C   0  0  0  0  0  0  0  0  0  0  0  0
   34.3960   27.8620   48.0290 O   0  0  0  0  0  0  0  0  0  0  0  0
   33.4760   29.2360   49.7660 N   0  0  0  0  0  0  0  0  0  0  0  0
   32.7330   29.9770   49.7750 H   0  0  0  0  0  0  0  0  0  0  0  0
   33.3270   28.8540   50.7450 H   0  0  0  0  0  0  0  0  0  0  0  0
   38.7090   30.5530   46.3880 C   0  0  0  0  0  2  0  0  0  0  0  0
   37.9660   31.0700   45.2190 C   0  0  0  0  0  0  0  0  0  0  0  0
   38.4220   31.9420   44.3410 C   0  0  0  0  0  0  0  0  0  0  0  0
   37.7560   32.4720   43.2080 N   0  0  0  0  0  0  0  0  0  0  0  0
   37.7850   33.1290   41.9500 C   0  0  0  0  0  0  0  0  0  0  0  0
   38.5890   33.9350   41.4480 O   0  0  0  0  0  0  0  0  0  0  0  0
   36.5210   32.4360   41.6030 C   0  0  0  0  0  3  0  0  0  0  0  0
   36.7560   31.4260   41.1620 H   0  0  0  0  0  0  0  0  0  0  0  0
   36.3200   32.4110   43.1020 C   0  0  1  0  0  3  0  0  0  0  0  0
   35.6790   30.8760   43.7610 S   0  0  0  0  0  0  0  0  0  0  0  0
   36.6310   30.4290   45.2310 C   0  0  0  0  0  3  0  0  0  0  0  0
   36.0830   30.6530   46.1690 H   0  0  0  0  0  0  0  0  0  0  0  0
   39.7770   32.4270   44.5570 C   0  0  0  0  0  0  0  0  0  0  0  0
   40.0760   33.6560   44.6000 O   0  0  0  0  0  0  0  0  0  0  0  0
   41.1220   32.6470   44.7730 O   0  0  0  0  0  0  0  0  0  0  0  0
   41.8250   31.9440   44.5480 H   0  0  0  0  0  0  0  0  0  0  0  0
  1  2  1  0  0  0  0
  1  9  1  0  0  0  0
  2  7  1  0  0  0  0
  3  8  1  0  0  0  0
  3  2  2  0  0  0  0
  4  3  1  0  0  0  0
  5  4  2  0  0  0  0
  5  6  1  0  0  0  0
  6  1  2  0  0  0  0
  9 11  1  0  0  0  0
  9 12  1  1  0  0  0
 10  9  1  0  0  0  0
 10 11  1  0  0  0  0
 10 13  1  1  0  0  0
 11 14  1  0  0  0  0
 15 11  1  0  0  0  0
 16 10  1  0  0  0  0
 17 16  1  0  0  0  0
 17 19  1  0  0  0  0
 18 17  2  0  0  0  0
 19 20  1  0  0  0  0
 19 21  1  0  0  0  0
 22  5  1  0  0  0  0
 23 32  1  0  0  0  0
 23 22  1  0  0  0  0
 24 34  1  0  0  0  0
 24 23  2  0  0  0  0
 25 24  1  0  0  0  0
 26 25  1  0  0  0  0
 27 26  2  0  0  0  0
 28 26  1  0  0  0  0
 29 28  1  0  0  0  0
 30 28  1  6  0  0  0
 30 25  1  0  0  0  0
 30 31  1  0  0  0  0
 31 32  1  0  0  0  0
 32 33  1  0  0  0  0
 34 35  2  0  0  0  0
 34 36  1  0  0  0  0
 37 36  1  0  0  0  0
M  END
>  <minimizedAffinity>
-6.15489054

>  <minimizedRMSD>
3.90220094

$$$$
