
 OpenBabel03262521123D

 38 41  0  0  1  0  0  0  0  0999 V2000
   32.0340   29.2020   46.1220 C   0  0  0  0  0  0  0  0  0  0  0  0
   31.9610   28.5770   44.9030 C   0  0  0  0  0  0  0  0  0  0  0  0
   30.9820   27.6670   44.9180 N   0  0  0  0  0  0  0  0  0  0  0  0
   30.4090   27.6900   46.1450 C   0  0  0  0  0  0  0  0  0  0  0  0
   31.0600   28.6270   46.8640 N   0  0  0  0  0  0  0  0  0  0  0  0
   32.6280   28.8210   44.0670 H   0  0  0  0  0  0  0  0  0  0  0  0
   30.7580   27.0720   44.0730 H   0  0  0  0  0  0  0  0  0  0  0  0
   32.8890   30.2080   46.5720 O   0  0  0  0  0  0  0  0  0  0  0  0
   35.4640   30.0040   46.4030 O   0  0  0  0  0  0  0  0  0  0  0  0
   34.3180   29.7100   47.3500 P   0  0  2  0  0  0  0  0  0  0  0  0
   34.2320   28.0500   47.7320 O   0  0  0  0  0  0  0  0  0  0  0  0
   34.8540   27.8850   48.4810 H   0  0  0  0  0  0  0  0  0  0  0  0
   34.4710   30.5340   48.8360 O   0  0  0  0  0  0  0  0  0  0  0  0
   35.6280   30.4570   49.6080 C   0  0  0  0  0  0  0  0  0  0  0  0
   35.8590   29.5290   50.6230 C   0  0  0  0  0  0  0  0  0  0  0  0
   37.0690   29.5940   51.2920 C   0  0  0  0  0  0  0  0  0  0  0  0
   37.9830   30.5350   50.9580 N   0  0  0  0  0  0  0  0  0  0  0  0
   37.7200   31.4390   49.9460 C   0  0  0  0  0  0  0  0  0  0  0  0
   36.5390   31.3760   49.2920 N   0  0  0  0  0  0  0  0  0  0  0  0
   35.0640   28.8160   50.8150 H   0  0  0  0  0  0  0  0  0  0  0  0
   37.2440   28.8730   52.0770 H   0  0  0  0  0  0  0  0  0  0  0  0
   38.4650   32.1830   49.6950 H   0  0  0  0  0  0  0  0  0  0  0  0
   29.2830   26.8140   46.5380 C   0  0  0  0  0  2  0  0  0  0  0  0
   28.2280   26.7440   45.4950 C   0  0  0  0  0  0  0  0  0  0  0  0
   28.0340   25.6980   44.7140 C   0  0  0  0  0  0  0  0  0  0  0  0
   27.0260   25.6300   43.7180 N   0  0  0  0  0  0  0  0  0  0  0  0
   26.0390   25.0070   42.9120 C   0  0  0  0  0  0  0  0  0  0  0  0
   25.7530   23.7710   42.8500 O   0  0  0  0  0  0  0  0  0  0  0  0
   25.5690   26.2430   42.2790 C   0  0  0  0  0  3  0  0  0  0  0  0
   25.6190   26.3080   41.1790 H   0  0  0  0  0  0  0  0  0  0  0  0
   26.6920   26.8790   43.0100 C   0  0  1  0  0  3  0  0  0  0  0  0
   26.0270   27.9320   44.3620 S   0  0  0  0  0  0  0  0  0  0  0  0
   27.4510   28.0040   45.4790 C   0  0  0  0  0  3  0  0  0  0  0  0
   28.1380   28.7530   44.9840 H   0  0  0  0  0  0  0  0  0  0  0  0
   28.8970   24.5360   44.8700 C   0  0  0  0  0  0  0  0  0  0  0  0
   28.9280   23.5680   44.0690 O   0  0  0  0  0  0  0  0  0  0  0  0
   29.8140   23.5980   45.2940 O   0  0  0  0  0  0  0  0  0  0  0  0
   30.5880   23.7740   45.9230 H   0  0  0  0  0  0  0  0  0  0  0  0
  1  8  1  0  0  0  0
  1  5  1  0  0  0  0
  2  3  1  0  0  0  0
  2  1  2  0  0  0  0
  3  4  1  0  0  0  0
  4 23  1  0  0  0  0
  4  5  2  0  0  0  0
  6  2  1  0  0  0  0
  7  3  1  0  0  0  0
  8 10  1  0  0  0  0
 10  9  2  6  0  0  0
 10 11  1  0  0  0  0
 10 13  1  0  0  0  0
 11 12  1  0  0  0  0
 13 14  1  0  0  0  0
 14 15  1  0  0  0  0
 15 20  1  0  0  0  0
 15 16  2  0  0  0  0
 16 21  1  0  0  0  0
 17 16  1  0  0  0  0
 18 17  2  0  0  0  0
 19 14  2  0  0  0  0
 19 18  1  0  0  0  0
 22 18  1  0  0  0  0
 24 23  1  0  0  0  0
 25 35  1  0  0  0  0
 25 24  2  0  0  0  0
 26 25  1  0  0  0  0
 27 26  1  0  0  0  0
 28 27  2  0  0  0  0
 29 27  1  0  0  0  0
 30 29  1  0  0  0  0
 31 29  1  6  0  0  0
 31 26  1  0  0  0  0
 31 32  1  0  0  0  0
 32 33  1  0  0  0  0
 33 24  1  0  0  0  0
 34 33  1  0  0  0  0
 35 37  1  0  0  0  0
 36 35  2  0  0  0  0
 37 38  1  0  0  0  0
M  END
>  <minimizedAffinity>
-4.70798349

>  <minimizedRMSD>
1.10770869

$$$$
