
 OpenBabel03272506193D

 41 44  0  0  1  0  0  0  0  0999 V2000
   35.9730   23.1130   31.4410 C   0  0  0  0  0  0  0  0  0  0  0  0
   37.1940   23.3000   32.1120 C   0  0  0  0  0  0  0  0  0  0  0  0
   37.5830   24.6170   32.3600 C   0  0  0  0  0  0  0  0  0  0  0  0
   36.7720   25.6540   31.9500 N   0  0  0  0  0  0  0  0  0  0  0  0
   35.5910   25.4180   31.3000 C   0  0  0  0  0  0  0  0  0  0  0  0
   35.2170   24.1560   31.0600 N   0  0  0  0  0  0  0  0  0  0  0  0
   37.8600   22.5200   32.4530 H   0  0  0  0  0  0  0  0  0  0  0  0
   35.0060   26.2610   31.0060 H   0  0  0  0  0  0  0  0  0  0  0  0
   35.5680   21.6940   31.1950 C   0  0  0  0  0  0  0  0  0  0  0  0
   34.8080   21.1710   32.3980 C   0  0  0  0  0  0  0  0  0  0  0  0
   35.5700   20.1210   33.1510 C   0  0  0  0  0  0  0  0  0  0  0  0
   36.0110   18.9770   32.2750 C   0  0  0  0  0  0  0  0  0  0  0  0
   36.5920   19.4240   30.9690 C   0  0  0  0  0  0  0  0  0  0  0  0
   36.8030   20.9190   30.8880 C   0  0  0  0  0  0  0  0  0  0  0  0
   34.8910   21.6840   30.3270 H   0  0  0  0  0  0  0  0  0  0  0  0
   33.8430   20.7660   32.0790 H   0  0  0  0  0  0  0  0  0  0  0  0
   34.6560   22.0140   33.1240 H   0  0  0  0  0  0  0  0  0  0  0  0
   34.8350   19.6850   33.8880 H   0  0  0  0  0  0  0  0  0  0  0  0
   36.4450   20.5870   33.6490 H   0  0  0  0  0  0  0  0  0  0  0  0
   35.1770   18.2910   32.0690 H   0  0  0  0  0  0  0  0  0  0  0  0
   36.7540   18.3880   32.8810 H   0  0  0  0  0  0  0  0  0  0  0  0
   36.0170   19.0560   30.1060 H   0  0  0  0  0  0  0  0  0  0  0  0
   37.6160   18.9760   30.8750 H   0  0  0  0  0  0  0  0  0  0  0  0
   37.6820   21.2110   31.5000 H   0  0  0  0  0  0  0  0  0  0  0  0
   37.1050   21.1310   29.8390 H   0  0  0  0  0  0  0  0  0  0  0  0
   38.8540   24.9870   33.0630 C   0  0  0  0  0  2  0  0  0  0  0  0
   38.9710   24.4240   34.4080 C   0  0  0  0  0  0  0  0  0  0  0  0
   38.6420   25.0600   35.5210 C   0  0  0  0  0  0  0  0  0  0  0  0
   38.7990   24.4120   36.7600 N   0  0  0  0  0  0  0  0  0  0  0  0
   38.3340   24.2250   38.0660 C   0  0  0  0  0  0  0  0  0  0  0  0
   37.5890   24.8330   38.8970 O   0  0  0  0  0  0  0  0  0  0  0  0
   39.0460   22.9560   38.2320 C   0  0  0  0  0  3  0  0  0  0  0  0
   38.3860   22.0920   38.0380 H   0  0  0  0  0  0  0  0  0  0  0  0
   39.8520   23.4540   37.0510 C   0  0  1  0  0  3  0  0  0  0  0  0
   39.8130   22.1660   35.7570 S   0  0  0  0  0  0  0  0  0  0  0  0
   39.5110   23.0600   34.2100 C   0  0  0  0  0  3  0  0  0  0  0  0
   38.9340   22.4460   33.4880 H   0  0  0  0  0  0  0  0  0  0  0  0
   38.1170   26.4200   35.5270 C   0  0  0  0  0  0  0  0  0  0  0  0
   37.0980   27.0360   35.1420 O   0  0  0  0  0  0  0  0  0  0  0  0
   38.8000   27.4800   36.0740 O   0  0  0  0  0  0  0  0  0  0  0  0
   38.4430   28.1940   36.6980 H   0  0  0  0  0  0  0  0  0  0  0  0
  1  2  1  0  0  0  0
  2  3  2  0  0  0  0
  2  7  1  0  0  0  0
  3 26  1  0  0  0  0
  4  3  1  0  0  0  0
  5  4  2  0  0  0  0
  6  5  1  0  0  0  0
  6  1  2  0  0  0  0
  8  5  1  0  0  0  0
  9  1  1  0  0  0  0
  9 10  1  0  0  0  0
 10 17  1  0  0  0  0
 10 11  1  0  0  0  0
 11 19  1  0  0  0  0
 11 18  1  0  0  0  0
 12 21  1  0  0  0  0
 12 11  1  0  0  0  0
 13 12  1  0  0  0  0
 14 13  1  0  0  0  0
 14  9  1  0  0  0  0
 14 24  1  0  0  0  0
 15  9  1  0  0  0  0
 16 10  1  0  0  0  0
 20 12  1  0  0  0  0
 22 13  1  0  0  0  0
 23 13  1  0  0  0  0
 25 14  1  0  0  0  0
 26 27  1  0  0  0  0
 27 28  2  0  0  0  0
 28 38  1  0  0  0  0
 28 29  1  0  0  0  0
 29 34  1  0  0  0  0
 29 30  1  0  0  0  0
 30 32  1  0  0  0  0
 30 31  2  0  0  0  0
 33 32  1  0  0  0  0
 34 35  1  6  0  0  0
 34 32  1  0  0  0  0
 36 27  1  0  0  0  0
 36 35  1  0  0  0  0
 37 36  1  0  0  0  0
 38 40  1  0  0  0  0
 39 38  2  0  0  0  0
 40 41  1  0  0  0  0
M  END
>  <minimizedAffinity>
-6.29012251

$$$$

 OpenBabel03272506193D

 41 44  0  0  1  0  0  0  0  0999 V2000
   36.2650   23.9220   31.6240 C   0  0  0  0  0  0  0  0  0  0  0  0
   37.0270   24.8310   32.3790 C   0  0  0  0  0  0  0  0  0  0  0  0
   36.6800   26.1790   32.2800 C   0  0  0  0  0  0  0  0  0  0  0  0
   35.6300   26.5540   31.4700 N   0  0  0  0  0  0  0  0  0  0  0  0
   34.9190   25.6280   30.7550 C   0  0  0  0  0  0  0  0  0  0  0  0
   35.2500   24.3360   30.8470 N   0  0  0  0  0  0  0  0  0  0  0  0
   37.8550   24.5840   33.0270 H   0  0  0  0  0  0  0  0  0  0  0  0
   34.1160   25.9780   30.1430 H   0  0  0  0  0  0  0  0  0  0  0  0
   36.6440   22.4810   31.7530 C   0  0  0  0  0  0  0  0  0  0  0  0
   35.5530   21.6170   31.1510 C   0  0  0  0  0  0  0  0  0  0  0  0
   34.8100   20.8220   32.1830 C   0  0  0  0  0  0  0  0  0  0  0  0
   35.7210   19.9860   33.0450 C   0  0  0  0  0  0  0  0  0  0  0  0
   36.9360   20.7280   33.5120 C   0  0  0  0  0  0  0  0  0  0  0  0
   36.8930   22.2060   33.1960 C   0  0  0  0  0  0  0  0  0  0  0  0
   37.5680   22.3240   31.1740 H   0  0  0  0  0  0  0  0  0  0  0  0
   35.9840   20.9400   30.4070 H   0  0  0  0  0  0  0  0  0  0  0  0
   34.7860   22.2840   30.6730 H   0  0  0  0  0  0  0  0  0  0  0  0
   34.1740   20.0940   31.6030 H   0  0  0  0  0  0  0  0  0  0  0  0
   34.2050   21.5080   32.8110 H   0  0  0  0  0  0  0  0  0  0  0  0
   36.0470   19.0810   32.5150 H   0  0  0  0  0  0  0  0  0  0  0  0
   35.0940   19.6300   33.9090 H   0  0  0  0  0  0  0  0  0  0  0  0
   37.8700   20.2710   33.1530 H   0  0  0  0  0  0  0  0  0  0  0  0
   36.9690   20.6660   34.6310 H   0  0  0  0  0  0  0  0  0  0  0  0
   36.1870   22.7200   33.8800 H   0  0  0  0  0  0  0  0  0  0  0  0
   37.8940   22.6080   33.4670 H   0  0  0  0  0  0  0  0  0  0  0  0
   37.3910   27.2740   33.0180 C   0  0  0  0  0  2  0  0  0  0  0  0
   38.8480   27.1450   33.0040 C   0  0  0  0  0  0  0  0  0  0  0  0
   39.5890   26.8680   34.0650 C   0  0  0  0  0  0  0  0  0  0  0  0
   40.9860   26.7690   33.9260 N   0  0  0  0  0  0  0  0  0  0  0  0
   42.1770   26.1610   34.3380 C   0  0  0  0  0  0  0  0  0  0  0  0
   42.6000   25.4990   35.3360 O   0  0  0  0  0  0  0  0  0  0  0  0
   42.9000   26.5590   33.1280 C   0  0  0  0  0  3  0  0  0  0  0  0
   42.9230   25.7450   32.3820 H   0  0  0  0  0  0  0  0  0  0  0  0
   41.7690   27.5560   32.9890 C   0  0  1  0  0  3  0  0  0  0  0  0
   41.0350   27.3480   31.3300 S   0  0  0  0  0  0  0  0  0  0  0  0
   39.2430   27.3880   31.5980 C   0  0  0  0  0  3  0  0  0  0  0  0
   38.7050   26.7540   30.8620 H   0  0  0  0  0  0  0  0  0  0  0  0
   39.0210   26.6560   35.3900 C   0  0  0  0  0  0  0  0  0  0  0  0
   38.5990   25.7110   36.0930 O   0  0  0  0  0  0  0  0  0  0  0  0
   38.8080   27.6820   36.2820 O   0  0  0  0  0  0  0  0  0  0  0  0
   39.0490   27.7080   37.2670 H   0  0  0  0  0  0  0  0  0  0  0  0
  1  9  1  0  0  0  0
  1  2  1  0  0  0  0
  2  7  1  0  0  0  0
  3  2  2  0  0  0  0
  3 26  1  0  0  0  0
  4  3  1  0  0  0  0
  5  6  1  0  0  0  0
  5  4  2  0  0  0  0
  6  1  2  0  0  0  0
  8  5  1  0  0  0  0
  9 14  1  0  0  0  0
 10  9  1  0  0  0  0
 10 11  1  0  0  0  0
 11 19  1  0  0  0  0
 11 12  1  0  0  0  0
 12 13  1  0  0  0  0
 12 21  1  0  0  0  0
 13 23  1  0  0  0  0
 14 25  1  0  0  0  0
 14 13  1  0  0  0  0
 14 24  1  0  0  0  0
 15  9  1  0  0  0  0
 16 10  1  0  0  0  0
 17 10  1  0  0  0  0
 18 11  1  0  0  0  0
 20 12  1  0  0  0  0
 22 13  1  0  0  0  0
 27 26  1  0  0  0  0
 27 28  2  0  0  0  0
 28 38  1  0  0  0  0
 29 28  1  0  0  0  0
 29 30  1  0  0  0  0
 30 31  2  0  0  0  0
 32 30  1  0  0  0  0
 33 32  1  0  0  0  0
 34 35  1  6  0  0  0
 34 32  1  0  0  0  0
 34 29  1  0  0  0  0
 35 36  1  0  0  0  0
 36 27  1  0  0  0  0
 37 36  1  0  0  0  0
 38 39  2  0  0  0  0
 38 40  1  0  0  0  0
 40 41  1  0  0  0  0
M  END
>  <minimizedAffinity>
-6.03812265

$$$$

 OpenBabel03272506193D

 41 44  0  0  1  0  0  0  0  0999 V2000
   36.0080   22.9370   31.4140 C   0  0  0  0  0  0  0  0  0  0  0  0
   37.2400   23.0590   32.0800 C   0  0  0  0  0  0  0  0  0  0  0  0
   37.7100   24.3540   32.3060 C   0  0  0  0  0  0  0  0  0  0  0  0
   36.9650   25.4320   31.8790 N   0  0  0  0  0  0  0  0  0  0  0  0
   35.7700   25.2590   31.2330 C   0  0  0  0  0  0  0  0  0  0  0  0
   35.3180   24.0190   31.0150 N   0  0  0  0  0  0  0  0  0  0  0  0
   37.8570   22.2450   32.4330 H   0  0  0  0  0  0  0  0  0  0  0  0
   35.2380   26.1320   30.9250 H   0  0  0  0  0  0  0  0  0  0  0  0
   35.5160   21.5420   31.1920 C   0  0  0  0  0  0  0  0  0  0  0  0
   34.7980   21.0580   32.4360 C   0  0  0  0  0  0  0  0  0  0  0  0
   35.5440   19.9670   33.1460 C   0  0  0  0  0  0  0  0  0  0  0  0
   35.8740   18.8030   32.2480 C   0  0  0  0  0  0  0  0  0  0  0  0
   36.4030   19.2220   30.9100 C   0  0  0  0  0  0  0  0  0  0  0  0
   36.6890   20.7030   30.8160 C   0  0  0  0  0  0  0  0  0  0  0  0
   34.7910   21.5700   30.3630 H   0  0  0  0  0  0  0  0  0  0  0  0
   33.7960   20.7050   32.1730 H   0  0  0  0  0  0  0  0  0  0  0  0
   34.7320   21.9060   33.1690 H   0  0  0  0  0  0  0  0  0  0  0  0
   34.8300   19.5700   33.9230 H   0  0  0  0  0  0  0  0  0  0  0  0
   36.4690   20.3850   33.5930 H   0  0  0  0  0  0  0  0  0  0  0  0
   34.9950   18.1630   32.0890 H   0  0  0  0  0  0  0  0  0  0  0  0
   36.6180   18.1740   32.8110 H   0  0  0  0  0  0  0  0  0  0  0  0
   35.7620   18.8870   30.0810 H   0  0  0  0  0  0  0  0  0  0  0  0
   37.3950   18.7200   30.7590 H   0  0  0  0  0  0  0  0  0  0  0  0
   37.6150   20.9480   31.3770 H   0  0  0  0  0  0  0  0  0  0  0  0
   36.9420   20.9020   29.7520 H   0  0  0  0  0  0  0  0  0  0  0  0
   39.0040   24.6560   33.0010 C   0  0  0  0  0  2  0  0  0  0  0  0
   39.0220   24.2640   34.4100 C   0  0  0  0  0  0  0  0  0  0  0  0
   39.6450   23.1970   34.8860 C   0  0  0  0  0  0  0  0  0  0  0  0
   39.5920   22.9220   36.2640 N   0  0  0  0  0  0  0  0  0  0  0  0
   40.2350   22.4070   37.3950 C   0  0  0  0  0  0  0  0  0  0  0  0
   41.2070   21.6300   37.6540 O   0  0  0  0  0  0  0  0  0  0  0  0
   39.3490   23.1090   38.3270 C   0  0  0  0  0  3  0  0  0  0  0  0
   39.8030   24.0490   38.6880 H   0  0  0  0  0  0  0  0  0  0  0  0
   38.4530   23.2280   37.1130 C   0  0  1  0  0  3  0  0  0  0  0  0
   38.0410   24.9920   36.8860 S   0  0  0  0  0  0  0  0  0  0  0  0
   38.2240   25.2960   35.1090 C   0  0  0  0  0  3  0  0  0  0  0  0
   38.5510   26.3360   34.9030 H   0  0  0  0  0  0  0  0  0  0  0  0
   40.3950   22.2780   34.0380 C   0  0  0  0  0  0  0  0  0  0  0  0
   40.1740   21.3350   33.2470 O   0  0  0  0  0  0  0  0  0  0  0  0
   41.7670   22.2990   33.9480 O   0  0  0  0  0  0  0  0  0  0  0  0
   42.3350   22.2710   33.1090 H   0  0  0  0  0  0  0  0  0  0  0  0
  1  2  1  0  0  0  0
  2  3  2  0  0  0  0
  2  7  1  0  0  0  0
  3 26  1  0  0  0  0
  4  3  1  0  0  0  0
  5  4  2  0  0  0  0
  6  5  1  0  0  0  0
  6  1  2  0  0  0  0
  8  5  1  0  0  0  0
  9  1  1  0  0  0  0
  9 10  1  0  0  0  0
 10 11  1  0  0  0  0
 10 17  1  0  0  0  0
 11 19  1  0  0  0  0
 11 18  1  0  0  0  0
 12 21  1  0  0  0  0
 12 11  1  0  0  0  0
 13 12  1  0  0  0  0
 14 13  1  0  0  0  0
 14  9  1  0  0  0  0
 14 24  1  0  0  0  0
 15  9  1  0  0  0  0
 16 10  1  0  0  0  0
 20 12  1  0  0  0  0
 22 13  1  0  0  0  0
 23 13  1  0  0  0  0
 25 14  1  0  0  0  0
 26 27  1  0  0  0  0
 27 28  2  0  0  0  0
 27 36  1  0  0  0  0
 28 29  1  0  0  0  0
 29 34  1  0  0  0  0
 29 30  1  0  0  0  0
 30 31  2  0  0  0  0
 30 32  1  0  0  0  0
 32 33  1  0  0  0  0
 34 35  1  6  0  0  0
 34 32  1  0  0  0  0
 36 35  1  0  0  0  0
 37 36  1  0  0  0  0
 38 28  1  0  0  0  0
 39 38  2  0  0  0  0
 40 38  1  0  0  0  0
 41 40  1  0  0  0  0
M  END
>  <minimizedAffinity>
-5.96824837

$$$$

 OpenBabel03272506193D

 41 44  0  0  1  0  0  0  0  0999 V2000
   37.3510   27.7940   32.1250 C   0  0  0  0  0  0  0  0  0  0  0  0
   36.6180   28.8590   32.6790 C   0  0  0  0  0  0  0  0  0  0  0  0
   36.0380   29.7590   31.7830 C   0  0  0  0  0  0  0  0  0  0  0  0
   36.2010   29.5700   30.4280 N   0  0  0  0  0  0  0  0  0  0  0  0
   36.9250   28.5160   29.9390 C   0  0  0  0  0  0  0  0  0  0  0  0
   37.4830   27.6530   30.7960 N   0  0  0  0  0  0  0  0  0  0  0  0
   36.4630   29.0460   33.7320 H   0  0  0  0  0  0  0  0  0  0  0  0
   37.0180   28.4220   28.8800 H   0  0  0  0  0  0  0  0  0  0  0  0
   37.9540   26.8340   33.1010 C   0  0  0  0  0  0  0  0  0  0  0  0
   37.2070   26.9170   34.4170 C   0  0  0  0  0  0  0  0  0  0  0  0
   38.0360   27.5160   35.5150 C   0  0  0  0  0  0  0  0  0  0  0  0
   39.3530   26.8080   35.7060 C   0  0  0  0  0  0  0  0  0  0  0  0
   40.0560   26.5110   34.4170 C   0  0  0  0  0  0  0  0  0  0  0  0
   39.4040   27.1600   33.2170 C   0  0  0  0  0  0  0  0  0  0  0  0
   37.8270   25.8180   32.6940 H   0  0  0  0  0  0  0  0  0  0  0  0
   36.8690   25.9200   34.7150 H   0  0  0  0  0  0  0  0  0  0  0  0
   36.3290   27.6060   34.2920 H   0  0  0  0  0  0  0  0  0  0  0  0
   37.4490   27.3450   36.4630 H   0  0  0  0  0  0  0  0  0  0  0  0
   38.2020   28.5920   35.3060 H   0  0  0  0  0  0  0  0  0  0  0  0
   39.2210   25.8660   36.2560 H   0  0  0  0  0  0  0  0  0  0  0  0
   39.9700   27.4720   36.3730 H   0  0  0  0  0  0  0  0  0  0  0  0
   40.2010   25.4330   34.2560 H   0  0  0  0  0  0  0  0  0  0  0  0
   41.0820   26.9580   34.4720 H   0  0  0  0  0  0  0  0  0  0  0  0
   39.6230   28.2480   33.2080 H   0  0  0  0  0  0  0  0  0  0  0  0
   39.9320   26.7570   32.3240 H   0  0  0  0  0  0  0  0  0  0  0  0
   35.2270   30.9460   32.2100 C   0  0  0  0  0  2  0  0  0  0  0  0
   34.2620   30.6510   33.2690 C   0  0  0  0  0  0  0  0  0  0  0  0
   34.4430   30.9320   34.5500 C   0  0  0  0  0  0  0  0  0  0  0  0
   33.4400   30.6000   35.4790 N   0  0  0  0  0  0  0  0  0  0  0  0
   32.7700   30.9220   36.6650 C   0  0  0  0  0  0  0  0  0  0  0  0
   32.9710   31.6380   37.6950 O   0  0  0  0  0  0  0  0  0  0  0  0
   31.6130   30.0840   36.3420 C   0  0  0  0  0  3  0  0  0  0  0  0
   30.7930   30.6770   35.9000 H   0  0  0  0  0  0  0  0  0  0  0  0
   32.5720   29.4410   35.3620 C   0  0  1  0  0  3  0  0  0  0  0  0
   31.7990   29.4830   33.7070 S   0  0  0  0  0  0  0  0  0  0  0  0
   33.1190   30.0090   32.5830 C   0  0  0  0  0  3  0  0  0  0  0  0
   32.7200   30.5930   31.7280 H   0  0  0  0  0  0  0  0  0  0  0  0
   35.6490   31.5770   35.0540 C   0  0  0  0  0  0  0  0  0  0  0  0
   36.3300   32.6020   34.8320 O   0  0  0  0  0  0  0  0  0  0  0  0
   36.4020   31.0530   36.0790 O   0  0  0  0  0  0  0  0  0  0  0  0
   36.7670   31.5360   36.8920 H   0  0  0  0  0  0  0  0  0  0  0  0
  1  2  1  0  0  0  0
  1  9  1  0  0  0  0
  2  7  1  0  0  0  0
  3 26  1  0  0  0  0
  3  2  2  0  0  0  0
  4  3  1  0  0  0  0
  5  4  2  0  0  0  0
  5  6  1  0  0  0  0
  6  1  2  0  0  0  0
  8  5  1  0  0  0  0
  9 14  1  0  0  0  0
  9 10  1  0  0  0  0
 10 16  1  0  0  0  0
 10 11  1  0  0  0  0
 11 12  1  0  0  0  0
 11 18  1  0  0  0  0
 12 20  1  0  0  0  0
 12 21  1  0  0  0  0
 13 23  1  0  0  0  0
 13 12  1  0  0  0  0
 14 13  1  0  0  0  0
 15  9  1  0  0  0  0
 17 10  1  0  0  0  0
 19 11  1  0  0  0  0
 22 13  1  0  0  0  0
 24 14  1  0  0  0  0
 25 14  1  0  0  0  0
 26 27  1  0  0  0  0
 27 28  2  0  0  0  0
 28 38  1  0  0  0  0
 28 29  1  0  0  0  0
 29 30  1  0  0  0  0
 30 31  2  0  0  0  0
 32 30  1  0  0  0  0
 33 32  1  0  0  0  0
 34 35  1  6  0  0  0
 34 29  1  0  0  0  0
 34 32  1  0  0  0  0
 36 27  1  0  0  0  0
 36 35  1  0  0  0  0
 37 36  1  0  0  0  0
 38 40  1  0  0  0  0
 39 38  2  0  0  0  0
 40 41  1  0  0  0  0
M  END
>  <minimizedAffinity>
-5.89342213

$$$$

 OpenBabel03272506193D

 41 44  0  0  1  0  0  0  0  0999 V2000
   36.7200   25.7260   31.8610 C   0  0  0  0  0  0  0  0  0  0  0  0
   37.5730   25.6800   32.9790 C   0  0  0  0  0  0  0  0  0  0  0  0
   37.5910   26.8050   33.8050 C   0  0  0  0  0  0  0  0  0  0  0  0
   36.7900   27.8850   33.5000 N   0  0  0  0  0  0  0  0  0  0  0  0
   35.9770   27.8790   32.3990 C   0  0  0  0  0  0  0  0  0  0  0  0
   35.9590   26.8030   31.6050 N   0  0  0  0  0  0  0  0  0  0  0  0
   38.2160   24.8580   33.2570 H   0  0  0  0  0  0  0  0  0  0  0  0
   35.3800   28.7450   32.2140 H   0  0  0  0  0  0  0  0  0  0  0  0
   36.7070   24.5060   30.9950 C   0  0  0  0  0  0  0  0  0  0  0  0
   35.3880   23.7790   31.1700 C   0  0  0  0  0  0  0  0  0  0  0  0
   35.5440   22.4610   31.8710 C   0  0  0  0  0  0  0  0  0  0  0  0
   36.5530   21.5610   31.2070 C   0  0  0  0  0  0  0  0  0  0  0  0
   37.8130   22.2710   30.8190 C   0  0  0  0  0  0  0  0  0  0  0  0
   37.8950   23.6820   31.3560 C   0  0  0  0  0  0  0  0  0  0  0  0
   36.7820   24.8380   29.9470 H   0  0  0  0  0  0  0  0  0  0  0  0
   34.9190   23.6210   30.1940 H   0  0  0  0  0  0  0  0  0  0  0  0
   34.7200   24.3950   31.8300 H   0  0  0  0  0  0  0  0  0  0  0  0
   34.5470   21.9450   31.7670 H   0  0  0  0  0  0  0  0  0  0  0  0
   35.8220   22.6390   32.9300 H   0  0  0  0  0  0  0  0  0  0  0  0
   36.1310   21.0860   30.3100 H   0  0  0  0  0  0  0  0  0  0  0  0
   36.7530   20.7250   31.9330 H   0  0  0  0  0  0  0  0  0  0  0  0
   37.9930   22.2470   29.7340 H   0  0  0  0  0  0  0  0  0  0  0  0
   38.6740   21.7270   31.2890 H   0  0  0  0  0  0  0  0  0  0  0  0
   38.1140   23.6620   32.4440 H   0  0  0  0  0  0  0  0  0  0  0  0
   38.7970   24.1370   30.8920 H   0  0  0  0  0  0  0  0  0  0  0  0
   38.4430   26.9170   35.0330 C   0  0  0  0  0  2  0  0  0  0  0  0
   38.8910   25.6290   35.5600 C   0  0  0  0  0  0  0  0  0  0  0  0
   40.0640   25.0750   35.2960 C   0  0  0  0  0  0  0  0  0  0  0  0
   40.3830   23.8280   35.8640 N   0  0  0  0  0  0  0  0  0  0  0  0
   41.3680   22.9790   36.3820 C   0  0  0  0  0  0  0  0  0  0  0  0
   42.6330   22.8680   36.3380 O   0  0  0  0  0  0  0  0  0  0  0  0
   40.3980   22.1380   37.0850 C   0  0  0  0  0  3  0  0  0  0  0  0
   40.3060   22.4260   38.1480 H   0  0  0  0  0  0  0  0  0  0  0  0
   39.4110   22.7830   36.1350 C   0  0  1  0  0  3  0  0  0  0  0  0
   38.0640   23.5120   37.1290 S   0  0  0  0  0  0  0  0  0  0  0  0
   37.7740   25.1470   36.4040 C   0  0  0  0  0  3  0  0  0  0  0  0
   37.4360   25.8790   37.1670 H   0  0  0  0  0  0  0  0  0  0  0  0
   41.0560   25.7020   34.4310 C   0  0  0  0  0  0  0  0  0  0  0  0
   41.2990   25.8200   33.2100 O   0  0  0  0  0  0  0  0  0  0  0  0
   42.1200   26.4230   34.9200 O   0  0  0  0  0  0  0  0  0  0  0  0
   42.4490   27.3300   34.6110 H   0  0  0  0  0  0  0  0  0  0  0  0
  1  2  1  0  0  0  0
  2  7  1  0  0  0  0
  2  3  2  0  0  0  0
  3 26  1  0  0  0  0
  4  3  1  0  0  0  0
  5  4  2  0  0  0  0
  6  1  2  0  0  0  0
  6  5  1  0  0  0  0
  8  5  1  0  0  0  0
  9 10  1  0  0  0  0
  9 14  1  0  0  0  0
  9  1  1  0  0  0  0
 10 17  1  0  0  0  0
 10 11  1  0  0  0  0
 11 19  1  0  0  0  0
 12 11  1  0  0  0  0
 12 21  1  0  0  0  0
 13 12  1  0  0  0  0
 13 23  1  0  0  0  0
 13 14  1  0  0  0  0
 14 24  1  0  0  0  0
 15  9  1  0  0  0  0
 16 10  1  0  0  0  0
 18 11  1  0  0  0  0
 20 12  1  0  0  0  0
 22 13  1  0  0  0  0
 25 14  1  0  0  0  0
 26 27  1  0  0  0  0
 27 36  1  0  0  0  0
 28 27  2  0  0  0  0
 28 29  1  0  0  0  0
 29 34  1  0  0  0  0
 29 30  1  0  0  0  0
 30 32  1  0  0  0  0
 31 30  2  0  0  0  0
 32 33  1  0  0  0  0
 34 32  1  1  0  0  0
 34 35  1  0  0  0  0
 36 35  1  0  0  0  0
 36 37  1  0  0  0  0
 38 40  1  0  0  0  0
 38 28  1  0  0  0  0
 39 38  2  0  0  0  0
 41 40  1  0  0  0  0
M  END
>  <minimizedAffinity>
-5.87841415

$$$$

 OpenBabel03272506193D

 41 44  0  0  1  0  0  0  0  0999 V2000
   35.6900   27.2950   32.0370 C   0  0  0  0  0  0  0  0  0  0  0  0
   36.8800   26.9360   32.6940 C   0  0  0  0  0  0  0  0  0  0  0  0
   37.4160   25.6840   32.3870 C   0  0  0  0  0  0  0  0  0  0  0  0
   36.7760   24.8750   31.4740 N   0  0  0  0  0  0  0  0  0  0  0  0
   35.6180   25.2730   30.8610 C   0  0  0  0  0  0  0  0  0  0  0  0
   35.1010   26.4710   31.1550 N   0  0  0  0  0  0  0  0  0  0  0  0
   37.4160   27.5360   33.4140 H   0  0  0  0  0  0  0  0  0  0  0  0
   35.1670   24.6030   30.1630 H   0  0  0  0  0  0  0  0  0  0  0  0
   35.1370   28.6450   32.3700 C   0  0  0  0  0  0  0  0  0  0  0  0
   35.4160   29.6000   31.2270 C   0  0  0  0  0  0  0  0  0  0  0  0
   36.4150   30.6590   31.5900 C   0  0  0  0  0  0  0  0  0  0  0  0
   36.0310   31.4260   32.8280 C   0  0  0  0  0  0  0  0  0  0  0  0
   35.5470   30.5470   33.9410 C   0  0  0  0  0  0  0  0  0  0  0  0
   35.7380   29.0720   33.6650 C   0  0  0  0  0  0  0  0  0  0  0  0
   34.0450   28.5430   32.4770 H   0  0  0  0  0  0  0  0  0  0  0  0
   34.4840   30.0720   30.9020 H   0  0  0  0  0  0  0  0  0  0  0  0
   35.8780   29.0250   30.3800 H   0  0  0  0  0  0  0  0  0  0  0  0
   36.3890   31.4010   30.7410 H   0  0  0  0  0  0  0  0  0  0  0  0
   37.4140   30.1940   31.7170 H   0  0  0  0  0  0  0  0  0  0  0  0
   35.2520   32.1700   32.6090 H   0  0  0  0  0  0  0  0  0  0  0  0
   36.9430   32.0120   33.1290 H   0  0  0  0  0  0  0  0  0  0  0  0
   34.5080   30.7660   34.2280 H   0  0  0  0  0  0  0  0  0  0  0  0
   36.1720   30.7600   34.8470 H   0  0  0  0  0  0  0  0  0  0  0  0
   36.8090   28.8020   33.7740 H   0  0  0  0  0  0  0  0  0  0  0  0
   35.2230   28.5350   34.4910 H   0  0  0  0  0  0  0  0  0  0  0  0
   38.6770   25.1510   33.0000 C   0  0  0  0  0  2  0  0  0  0  0  0
   38.4800   24.5270   34.3080 C   0  0  0  0  0  0  0  0  0  0  0  0
   38.6760   25.1340   35.4680 C   0  0  0  0  0  0  0  0  0  0  0  0
   38.4520   24.4280   36.6640 N   0  0  0  0  0  0  0  0  0  0  0  0
   38.0360   24.4620   37.9990 C   0  0  0  0  0  0  0  0  0  0  0  0
   37.8780   25.3300   38.9150 O   0  0  0  0  0  0  0  0  0  0  0  0
   37.8020   23.0180   38.0550 C   0  0  0  0  0  3  0  0  0  0  0  0
   36.7380   22.7720   37.8910 H   0  0  0  0  0  0  0  0  0  0  0  0
   38.6840   23.0030   36.8250 C   0  0  1  0  0  3  0  0  0  0  0  0
   37.7840   22.1330   35.4950 S   0  0  0  0  0  0  0  0  0  0  0  0
   38.0350   23.1460   34.0140 C   0  0  0  0  0  3  0  0  0  0  0  0
   37.1660   23.0880   33.3260 H   0  0  0  0  0  0  0  0  0  0  0  0
   39.1200   26.5180   35.5690 C   0  0  0  0  0  0  0  0  0  0  0  0
   40.0610   27.2360   35.1640 O   0  0  0  0  0  0  0  0  0  0  0  0
   38.4300   27.4720   36.2800 O   0  0  0  0  0  0  0  0  0  0  0  0
   38.1870   28.4110   35.9860 H   0  0  0  0  0  0  0  0  0  0  0  0
  1  9  1  0  0  0  0
  1  2  1  0  0  0  0
  2  7  1  0  0  0  0
  3  2  2  0  0  0  0
  3 26  1  0  0  0  0
  4  3  1  0  0  0  0
  5  6  1  0  0  0  0
  5  4  2  0  0  0  0
  6  1  2  0  0  0  0
  8  5  1  0  0  0  0
  9 15  1  0  0  0  0
  9 14  1  0  0  0  0
 10 11  1  0  0  0  0
 10  9  1  0  0  0  0
 11 19  1  0  0  0  0
 11 12  1  0  0  0  0
 12 21  1  0  0  0  0
 12 13  1  0  0  0  0
 13 22  1  0  0  0  0
 13 23  1  0  0  0  0
 14 24  1  0  0  0  0
 14 13  1  0  0  0  0
 14 25  1  0  0  0  0
 16 10  1  0  0  0  0
 17 10  1  0  0  0  0
 18 11  1  0  0  0  0
 20 12  1  0  0  0  0
 26 27  1  0  0  0  0
 27 28  2  0  0  0  0
 28 38  1  0  0  0  0
 28 29  1  0  0  0  0
 29 34  1  0  0  0  0
 29 30  1  0  0  0  0
 30 32  1  0  0  0  0
 30 31  2  0  0  0  0
 33 32  1  0  0  0  0
 34 35  1  6  0  0  0
 34 32  1  0  0  0  0
 36 27  1  0  0  0  0
 36 35  1  0  0  0  0
 37 36  1  0  0  0  0
 38 40  1  0  0  0  0
 39 38  2  0  0  0  0
 41 40  1  0  0  0  0
M  END
>  <minimizedAffinity>
-5.77741241

$$$$

 OpenBabel03272506193D

 41 44  0  0  1  0  0  0  0  0999 V2000
   36.9870   28.2260   32.1550 C   0  0  0  0  0  0  0  0  0  0  0  0
   35.7950   28.8870   32.5010 C   0  0  0  0  0  0  0  0  0  0  0  0
   35.3470   29.8780   31.6260 C   0  0  0  0  0  0  0  0  0  0  0  0
   36.0710   30.1590   30.4880 N   0  0  0  0  0  0  0  0  0  0  0  0
   37.2270   29.4850   30.1970 C   0  0  0  0  0  0  0  0  0  0  0  0
   37.6600   28.5370   31.0340 N   0  0  0  0  0  0  0  0  0  0  0  0
   35.1950   28.7000   33.3790 H   0  0  0  0  0  0  0  0  0  0  0  0
   37.7460   29.7470   29.3010 H   0  0  0  0  0  0  0  0  0  0  0  0
   37.4450   27.1600   33.0990 C   0  0  0  0  0  0  0  0  0  0  0  0
   36.8540   27.4130   34.4710 C   0  0  0  0  0  0  0  0  0  0  0  0
   37.8880   27.8160   35.4810 C   0  0  0  0  0  0  0  0  0  0  0  0
   39.0250   26.8320   35.5760 C   0  0  0  0  0  0  0  0  0  0  0  0
   39.5280   26.3800   34.2400 C   0  0  0  0  0  0  0  0  0  0  0  0
   38.9350   27.1520   33.0840 C   0  0  0  0  0  0  0  0  0  0  0  0
   37.0590   26.1960   32.7290 H   0  0  0  0  0  0  0  0  0  0  0  0
   36.3290   26.5190   34.8210 H   0  0  0  0  0  0  0  0  0  0  0  0
   36.1430   28.2800   34.4040 H   0  0  0  0  0  0  0  0  0  0  0  0
   37.3630   27.7850   36.4780 H   0  0  0  0  0  0  0  0  0  0  0  0
   38.2710   28.8270   35.2320 H   0  0  0  0  0  0  0  0  0  0  0  0
   38.7350   25.9460   36.1580 H   0  0  0  0  0  0  0  0  0  0  0  0
   39.8310   27.3430   36.1720 H   0  0  0  0  0  0  0  0  0  0  0  0
   39.4150   25.2950   34.0940 H   0  0  0  0  0  0  0  0  0  0  0  0
   40.6300   26.5860   34.1980 H   0  0  0  0  0  0  0  0  0  0  0  0
   39.3890   28.1640   33.0310 H   0  0  0  0  0  0  0  0  0  0  0  0
   39.2790   26.6380   32.1600 H   0  0  0  0  0  0  0  0  0  0  0  0
   34.0960   30.6750   31.8480 C   0  0  0  0  0  2  0  0  0  0  0  0
   33.7880   30.9090   33.2590 C   0  0  0  0  0  0  0  0  0  0  0  0
   32.7650   30.3720   33.9040 C   0  0  0  0  0  0  0  0  0  0  0  0
   32.5710   30.6720   35.2650 N   0  0  0  0  0  0  0  0  0  0  0  0
   32.1370   30.2410   36.5230 C   0  0  0  0  0  0  0  0  0  0  0  0
   31.3970   29.3240   37.0010 O   0  0  0  0  0  0  0  0  0  0  0  0
   32.8730   31.2880   37.2340 C   0  0  0  0  0  3  0  0  0  0  0  0
   33.8420   30.9170   37.6120 H   0  0  0  0  0  0  0  0  0  0  0  0
   32.9020   31.9500   35.8720 C   0  0  1  0  0  3  0  0  0  0  0  0
   34.6410   32.3320   35.4660 S   0  0  0  0  0  0  0  0  0  0  0  0
   34.8430   31.8310   33.7370 C   0  0  0  0  0  3  0  0  0  0  0  0
   35.8760   31.4820   33.5290 H   0  0  0  0  0  0  0  0  0  0  0  0
   31.8140   29.4710   33.2650 C   0  0  0  0  0  0  0  0  0  0  0  0
   31.6470   28.2420   33.1010 O   0  0  0  0  0  0  0  0  0  0  0  0
   30.7020   29.9180   32.5900 O   0  0  0  0  0  0  0  0  0  0  0  0
   29.7500   29.5780   32.6670 H   0  0  0  0  0  0  0  0  0  0  0  0
  1  2  1  0  0  0  0
  1  9  1  0  0  0  0
  2  7  1  0  0  0  0
  3 26  1  0  0  0  0
  3  2  2  0  0  0  0
  4  3  1  0  0  0  0
  5  4  2  0  0  0  0
  5  6  1  0  0  0  0
  6  1  2  0  0  0  0
  8  5  1  0  0  0  0
  9 10  1  0  0  0  0
 10 16  1  0  0  0  0
 10 11  1  0  0  0  0
 11 12  1  0  0  0  0
 11 18  1  0  0  0  0
 12 20  1  0  0  0  0
 12 21  1  0  0  0  0
 13 12  1  0  0  0  0
 14  9  1  0  0  0  0
 14 13  1  0  0  0  0
 15  9  1  0  0  0  0
 17 10  1  0  0  0  0
 19 11  1  0  0  0  0
 22 13  1  0  0  0  0
 23 13  1  0  0  0  0
 24 14  1  0  0  0  0
 25 14  1  0  0  0  0
 26 27  1  0  0  0  0
 27 36  1  0  0  0  0
 27 28  2  0  0  0  0
 28 29  1  0  0  0  0
 29 34  1  0  0  0  0
 29 30  1  0  0  0  0
 30 31  2  0  0  0  0
 30 32  1  0  0  0  0
 32 33  1  0  0  0  0
 34 35  1  6  0  0  0
 34 32  1  0  0  0  0
 36 35  1  0  0  0  0
 37 36  1  0  0  0  0
 38 28  1  0  0  0  0
 39 38  2  0  0  0  0
 40 41  1  0  0  0  0
 40 38  1  0  0  0  0
M  END
>  <minimizedAffinity>
-5.75150633

$$$$

 OpenBabel03272506193D

 41 44  0  0  1  0  0  0  0  0999 V2000
   37.0960   23.5540   32.1160 C   0  0  0  0  0  0  0  0  0  0  0  0
   37.7710   23.6670   33.3440 C   0  0  0  0  0  0  0  0  0  0  0  0
   37.8800   24.9470   33.8880 C   0  0  0  0  0  0  0  0  0  0  0  0
   37.3340   26.0210   33.2180 N   0  0  0  0  0  0  0  0  0  0  0  0
   36.6850   25.8570   32.0240 C   0  0  0  0  0  0  0  0  0  0  0  0
   36.5810   24.6310   31.4990 N   0  0  0  0  0  0  0  0  0  0  0  0
   38.2140   22.8560   33.9050 H   0  0  0  0  0  0  0  0  0  0  0  0
   36.2830   26.7250   31.5510 H   0  0  0  0  0  0  0  0  0  0  0  0
   36.9790   22.1730   31.5540 C   0  0  0  0  0  0  0  0  0  0  0  0
   35.5280   21.8840   31.2250 C   0  0  0  0  0  0  0  0  0  0  0  0
   34.9260   20.8470   32.1270 C   0  0  0  0  0  0  0  0  0  0  0  0
   35.7200   19.5660   32.1560 C   0  0  0  0  0  0  0  0  0  0  0  0
   37.1960   19.7890   32.2760 C   0  0  0  0  0  0  0  0  0  0  0  0
   37.5640   21.2290   32.5490 C   0  0  0  0  0  0  0  0  0  0  0  0
   37.5590   22.1410   30.6180 H   0  0  0  0  0  0  0  0  0  0  0  0
   35.4410   21.5590   30.1840 H   0  0  0  0  0  0  0  0  0  0  0  0
   34.9260   22.8170   31.3940 H   0  0  0  0  0  0  0  0  0  0  0  0
   33.9310   20.5870   31.6660 H   0  0  0  0  0  0  0  0  0  0  0  0
   34.8260   21.2630   33.1500 H   0  0  0  0  0  0  0  0  0  0  0  0
   35.5300   18.9620   31.2580 H   0  0  0  0  0  0  0  0  0  0  0  0
   35.3180   18.9690   33.0210 H   0  0  0  0  0  0  0  0  0  0  0  0
   37.7520   19.3930   31.4140 H   0  0  0  0  0  0  0  0  0  0  0  0
   37.5600   19.2170   33.1700 H   0  0  0  0  0  0  0  0  0  0  0  0
   37.3320   21.4870   33.6030 H   0  0  0  0  0  0  0  0  0  0  0  0
   38.6720   21.2830   32.4810 H   0  0  0  0  0  0  0  0  0  0  0  0
   38.5690   25.2380   35.1880 C   0  0  0  0  0  2  0  0  0  0  0  0
   39.8600   24.5670   35.3360 C   0  0  0  0  0  0  0  0  0  0  0  0
   40.0940   23.5630   36.1670 C   0  0  0  0  0  0  0  0  0  0  0  0
   41.3810   22.9960   36.2210 N   0  0  0  0  0  0  0  0  0  0  0  0
   42.1640   21.8520   36.4090 C   0  0  0  0  0  0  0  0  0  0  0  0
   42.0360   20.6970   36.9240 O   0  0  0  0  0  0  0  0  0  0  0  0
   43.3350   22.4400   35.7560 C   0  0  0  0  0  3  0  0  0  0  0  0
   43.4100   22.1280   34.6980 H   0  0  0  0  0  0  0  0  0  0  0  0
   42.6090   23.7430   36.0150 C   0  0  1  0  0  3  0  0  0  0  0  0
   42.4660   24.6340   34.4270 S   0  0  0  0  0  0  0  0  0  0  0  0
   40.7630   25.2510   34.3840 C   0  0  0  0  0  3  0  0  0  0  0  0
   40.3720   25.3010   33.3470 H   0  0  0  0  0  0  0  0  0  0  0  0
   39.0700   23.0080   37.0430 C   0  0  0  0  0  0  0  0  0  0  0  0
   37.8580   22.7030   36.9970 O   0  0  0  0  0  0  0  0  0  0  0  0
   39.3190   22.6500   38.3480 O   0  0  0  0  0  0  0  0  0  0  0  0
   39.0510   21.7940   38.8190 H   0  0  0  0  0  0  0  0  0  0  0  0
  1  2  1  0  0  0  0
  2  3  2  0  0  0  0
  2  7  1  0  0  0  0
  3 26  1  0  0  0  0
  4  3  1  0  0  0  0
  5  4  2  0  0  0  0
  6  5  1  0  0  0  0
  6  1  2  0  0  0  0
  8  5  1  0  0  0  0
  9  1  1  0  0  0  0
  9 14  1  0  0  0  0
 10 17  1  0  0  0  0
 10  9  1  0  0  0  0
 10 11  1  0  0  0  0
 11 12  1  0  0  0  0
 11 19  1  0  0  0  0
 12 13  1  0  0  0  0
 12 21  1  0  0  0  0
 13 14  1  0  0  0  0
 13 23  1  0  0  0  0
 14 24  1  0  0  0  0
 15  9  1  0  0  0  0
 16 10  1  0  0  0  0
 18 11  1  0  0  0  0
 20 12  1  0  0  0  0
 22 13  1  0  0  0  0
 25 14  1  0  0  0  0
 26 27  1  0  0  0  0
 27 28  2  0  0  0  0
 28 29  1  0  0  0  0
 28 38  1  0  0  0  0
 29 30  1  0  0  0  0
 30 31  2  0  0  0  0
 32 34  1  0  0  0  0
 32 30  1  0  0  0  0
 33 32  1  0  0  0  0
 34 35  1  6  0  0  0
 34 29  1  0  0  0  0
 36 35  1  0  0  0  0
 36 27  1  0  0  0  0
 37 36  1  0  0  0  0
 38 40  1  0  0  0  0
 39 38  2  0  0  0  0
 40 41  1  0  0  0  0
M  END
>  <minimizedAffinity>
-5.67883873

$$$$

 OpenBabel03272506193D

 41 44  0  0  1  0  0  0  0  0999 V2000
   37.6820   27.6940   31.8800 C   0  0  0  0  0  0  0  0  0  0  0  0
   36.7120   28.6670   32.1770 C   0  0  0  0  0  0  0  0  0  0  0  0
   36.2900   29.4800   31.1240 C   0  0  0  0  0  0  0  0  0  0  0  0
   36.8260   29.2980   29.8670 N   0  0  0  0  0  0  0  0  0  0  0  0
   37.7700   28.3340   29.6300 C   0  0  0  0  0  0  0  0  0  0  0  0
   38.1770   27.5550   30.6380 N   0  0  0  0  0  0  0  0  0  0  0  0
   36.2640   28.8460   33.1440 H   0  0  0  0  0  0  0  0  0  0  0  0
   38.1490   28.2410   28.6360 H   0  0  0  0  0  0  0  0  0  0  0  0
   38.1130   26.8260   33.0190 C   0  0  0  0  0  0  0  0  0  0  0  0
   37.1360   26.9800   34.1680 C   0  0  0  0  0  0  0  0  0  0  0  0
   37.7390   27.6810   35.3490 C   0  0  0  0  0  0  0  0  0  0  0  0
   39.0100   27.0300   35.8290 C   0  0  0  0  0  0  0  0  0  0  0  0
   39.9420   26.6620   34.7160 C   0  0  0  0  0  0  0  0  0  0  0  0
   39.5110   27.2020   33.3710 C   0  0  0  0  0  0  0  0  0  0  0  0
   38.0800   25.7800   32.6750 H   0  0  0  0  0  0  0  0  0  0  0  0
   36.7660   25.9970   34.4750 H   0  0  0  0  0  0  0  0  0  0  0  0
   36.2840   27.6310   33.8330 H   0  0  0  0  0  0  0  0  0  0  0  0
   36.9920   27.5610   36.1850 H   0  0  0  0  0  0  0  0  0  0  0  0
   37.9230   28.7440   35.0920 H   0  0  0  0  0  0  0  0  0  0  0  0
   38.7950   26.1260   36.4160 H   0  0  0  0  0  0  0  0  0  0  0  0
   39.4840   27.7580   36.5440 H   0  0  0  0  0  0  0  0  0  0  0  0
   40.1320   25.5800   34.6670 H   0  0  0  0  0  0  0  0  0  0  0  0
   40.9340   27.1430   34.9220 H   0  0  0  0  0  0  0  0  0  0  0  0
   39.7090   28.2930   33.3190 H   0  0  0  0  0  0  0  0  0  0  0  0
   40.2000   26.7530   32.6230 H   0  0  0  0  0  0  0  0  0  0  0  0
   35.2640   30.5630   31.2730 C   0  0  0  0  0  2  0  0  0  0  0  0
   35.5370   31.4870   32.3740 C   0  0  0  0  0  0  0  0  0  0  0  0
   34.9340   31.4520   33.5520 C   0  0  0  0  0  0  0  0  0  0  0  0
   35.2820   32.3960   34.5360 N   0  0  0  0  0  0  0  0  0  0  0  0
   35.4520   32.6830   35.8940 C   0  0  0  0  0  0  0  0  0  0  0  0
   35.0800   32.2050   37.0120 O   0  0  0  0  0  0  0  0  0  0  0  0
   36.2950   33.8520   35.6320 C   0  0  0  0  0  3  0  0  0  0  0  0
   37.3680   33.6040   35.7090 H   0  0  0  0  0  0  0  0  0  0  0  0
   35.6890   33.7600   34.2470 C   0  0  1  0  0  3  0  0  0  0  0  0
   37.0560   33.6960   33.0370 S   0  0  0  0  0  0  0  0  0  0  0  0
   36.5860   32.3980   31.8630 C   0  0  0  0  0  3  0  0  0  0  0  0
   37.4750   31.8770   31.4510 H   0  0  0  0  0  0  0  0  0  0  0  0
   33.9110   30.4690   33.8860 C   0  0  0  0  0  0  0  0  0  0  0  0
   32.6890   30.2810   33.6940 O   0  0  0  0  0  0  0  0  0  0  0  0
   34.1750   29.3410   34.6280 O   0  0  0  0  0  0  0  0  0  0  0  0
   33.8900   28.3880   34.4310 H   0  0  0  0  0  0  0  0  0  0  0  0
  1  2  1  0  0  0  0
  1  9  1  0  0  0  0
  2  7  1  0  0  0  0
  3 26  1  0  0  0  0
  3  2  2  0  0  0  0
  4  3  1  0  0  0  0
  5  4  2  0  0  0  0
  5  6  1  0  0  0  0
  6  1  2  0  0  0  0
  8  5  1  0  0  0  0
  9 14  1  0  0  0  0
  9 10  1  0  0  0  0
 10 16  1  0  0  0  0
 10 11  1  0  0  0  0
 11 12  1  0  0  0  0
 11 18  1  0  0  0  0
 12 20  1  0  0  0  0
 12 21  1  0  0  0  0
 13 23  1  0  0  0  0
 13 12  1  0  0  0  0
 14 13  1  0  0  0  0
 15  9  1  0  0  0  0
 17 10  1  0  0  0  0
 19 11  1  0  0  0  0
 22 13  1  0  0  0  0
 24 14  1  0  0  0  0
 25 14  1  0  0  0  0
 26 27  1  0  0  0  0
 27 28  2  0  0  0  0
 28 38  1  0  0  0  0
 28 29  1  0  0  0  0
 29 30  1  0  0  0  0
 30 31  2  0  0  0  0
 32 33  1  0  0  0  0
 32 30  1  0  0  0  0
 34 35  1  6  0  0  0
 34 29  1  0  0  0  0
 34 32  1  0  0  0  0
 36 27  1  0  0  0  0
 36 35  1  0  0  0  0
 37 36  1  0  0  0  0
 38 40  1  0  0  0  0
 39 38  2  0  0  0  0
 41 40  1  0  0  0  0
M  END
>  <minimizedAffinity>
-5.63307858

$$$$
