
 OpenBabel03272507333D

 43 48  0  0  1  0  0  0  0  0999 V2000
   33.6880   26.6330   46.9990 C   0  0  1  0  0  0  0  0  0  0  0  0
   33.7340   25.0950   47.3570 C   0  0  0  0  0  0  0  0  0  0  0  0
   32.8250   25.6560   46.3300 C   0  0  2  0  0  0  0  0  0  0  0  0
   34.7200   26.9310   46.7180 H   0  0  0  0  0  0  0  0  0  0  0  0
   33.3030   24.7830   48.3020 H   0  0  0  0  0  0  0  0  0  0  0  0
   34.6180   24.5400   47.0200 H   0  0  0  0  0  0  0  0  0  0  0  0
   31.7410   25.7800   46.5880 H   0  0  0  0  0  0  0  0  0  0  0  0
   33.1580   27.4020   48.1770 C   0  0  0  0  0  0  0  0  0  0  0  0
   31.9370   27.3170   48.5310 O   0  0  0  0  0  0  0  0  0  0  0  0
   35.8770   29.1870   49.6680 C   0  0  0  0  0  0  0  0  0  0  0  0
   34.8360   29.7470   50.3870 C   0  0  0  0  0  0  0  0  0  0  0  0
   33.6470   29.1580   49.9290 C   0  0  0  0  0  0  0  0  0  0  0  0
   34.0430   28.2680   48.9540 C   0  0  0  0  0  0  0  0  0  0  0  0
   35.3530   28.3230   48.8380 O   0  0  0  0  0  0  0  0  0  0  0  0
   34.7830   30.5020   51.1790 H   0  0  0  0  0  0  0  0  0  0  0  0
   32.6360   29.3590   50.2710 H   0  0  0  0  0  0  0  0  0  0  0  0
   37.2570   29.5710   49.8890 C   0  0  0  0  0  0  0  0  0  0  0  0
   37.9020   29.0250   50.7960 O   0  0  0  0  0  0  0  0  0  0  0  0
   37.7990   30.5820   49.0240 C   0  0  0  0  0  0  0  0  0  0  0  0
   38.1640   31.7830   49.6080 C   0  0  0  0  0  0  0  0  0  0  0  0
   38.6920   32.7870   48.7910 C   0  0  0  0  0  0  0  0  0  0  0  0
   38.8230   32.5290   47.4450 N   0  0  0  0  0  0  0  0  0  0  0  0
   38.4590   31.3540   46.9190 C   0  0  0  0  0  0  0  0  0  0  0  0
   37.9520   30.3860   47.6920 N   0  0  0  0  0  0  0  0  0  0  0  0
   38.0590   31.9790   50.6610 H   0  0  0  0  0  0  0  0  0  0  0  0
   38.9870   33.7450   49.2250 H   0  0  0  0  0  0  0  0  0  0  0  0
   38.5740   31.1810   45.8530 H   0  0  0  0  0  0  0  0  0  0  0  0
   33.0690   25.1870   44.9270 C   0  0  0  0  0  2  0  0  0  0  0  0
   34.1170   25.9300   44.2230 C   0  0  0  0  0  0  0  0  0  0  0  0
   35.3510   25.5150   43.9860 C   0  0  0  0  0  0  0  0  0  0  0  0
   36.2830   26.3410   43.2970 N   0  0  0  0  0  0  0  0  0  0  0  0
   37.5840   26.4550   42.7400 C   0  0  1  0  0  0  0  0  0  0  0  0
   38.7440   26.0060   42.9850 O   0  0  0  0  0  1  0  0  0  0  0  0
   37.0310   27.3530   41.7010 C   0  0  0  0  0  3  0  0  0  0  0  0
   36.5590   26.8780   40.8330 H   0  0  0  0  0  0  0  0  0  0  0  0
   36.1030   27.6910   42.8480 C   0  0  1  0  0  0  0  0  0  0  0  0
   34.3960   27.9720   42.3890 S   0  0  0  0  0  0  0  0  0  0  0  0
   33.5750   27.2370   43.8230 C   0  0  0  0  0  3  0  0  0  0  0  0
   33.6820   27.9710   44.6680 H   0  0  0  0  0  0  0  0  0  0  0  0
   35.8370   24.1860   44.4250 C   0  0  0  0  0  0  0  0  0  0  0  0
   35.3320   23.0620   44.4270 O   0  0  0  0  0  0  0  0  0  0  0  0
   37.0830   23.9930   44.9650 O   0  0  0  0  0  0  0  0  0  0  0  0
   37.6690   23.2310   44.7100 H   0  0  0  0  0  0  0  0  0  0  0  0
  1  4  1  6  0  0  0
  1  2  1  0  0  0  0
  1  8  1  0  0  0  0
  2  5  1  0  0  0  0
  3  7  1  1  0  0  0
  3  1  1  0  0  0  0
  3  2  1  0  0  0  0
  6  2  1  0  0  0  0
  8  9  2  0  0  0  0
  8 13  1  0  0  0  0
 10 17  1  0  0  0  0
 10 11  2  0  0  0  0
 11 15  1  0  0  0  0
 12 16  1  0  0  0  0
 12 11  1  0  0  0  0
 13 12  2  0  0  0  0
 14 13  1  0  0  0  0
 14 10  1  0  0  0  0
 17 18  2  0  0  0  0
 19 20  1  0  0  0  0
 19 17  1  0  0  0  0
 20 25  1  0  0  0  0
 21 26  1  0  0  0  0
 21 20  2  0  0  0  0
 22 21  1  0  0  0  0
 23 22  2  0  0  0  0
 23 24  1  0  0  0  0
 24 19  2  0  0  0  0
 27 23  1  0  0  0  0
 28  3  1  0  0  0  0
 29 28  1  0  0  0  0
 30 29  2  0  0  0  0
 30 40  1  0  0  0  0
 31 30  1  0  0  0  0
 32 36  1  0  0  0  0
 32 33  1  1  0  0  0
 32 31  1  0  0  0  0
 34 32  1  0  0  0  0
 35 34  1  0  0  0  0
 36 34  1  6  0  0  0
 36 31  1  0  0  0  0
 37 36  1  0  0  0  0
 37 38  1  0  0  0  0
 38 29  1  0  0  0  0
 38 39  1  0  0  0  0
 40 41  2  0  0  0  0
 40 42  1  0  0  0  0
 43 42  1  0  0  0  0
M  END
>  <minimizedAffinity>
-5.06125736

>  <minimizedRMSD>
1.222085

$$$$
