
 OpenBabel03272509073D

 47 52  0  0  1  0  0  0  0  0999 V2000
   33.2320   27.2310   47.5450 C   0  0  0  0  0  0  0  0  0  0  0  0
   33.8130   25.9890   47.2960 C   0  0  0  0  0  0  0  0  0  0  0  0
   33.9500   25.4880   46.0090 C   0  0  0  0  0  0  0  0  0  0  0  0
   33.5000   26.2290   44.9220 C   0  0  0  0  0  0  0  0  0  0  0  0
   32.9330   27.4450   45.1770 C   0  0  0  0  0  0  0  0  0  0  0  0
   32.7910   27.9550   46.4470 C   0  0  0  0  0  0  0  0  0  0  0  0
   34.1480   25.4480   48.1850 H   0  0  0  0  0  0  0  0  0  0  0  0
   34.4150   24.5180   45.9580 H   0  0  0  0  0  0  0  0  0  0  0  0
   33.6260   25.8030   43.9380 H   0  0  0  0  0  0  0  0  0  0  0  0
   32.5900   27.9980   44.2940 H   0  0  0  0  0  0  0  0  0  0  0  0
   33.0860   27.7860   48.9090 C   0  0  0  0  0  0  0  0  0  0  0  0
   32.1270   28.2830   49.1020 H   0  0  0  0  0  0  0  0  0  0  0  0
   33.0920   26.8910   49.6010 H   0  0  0  0  0  0  0  0  0  0  0  0
   35.4760   28.5300   48.9160 C   0  0  0  0  0  3  0  0  0  0  0  0
   34.2450   28.6040   49.3420 C   0  0  0  0  0  3  0  0  0  0  0  0
   37.6160   30.3370   51.2580 C   0  0  0  0  0  0  0  0  0  0  0  0
   38.3270   31.1900   50.3960 C   0  0  0  0  0  0  0  0  0  0  0  0
   38.0470   31.1210   49.0120 C   0  0  0  0  0  0  0  0  0  0  0  0
   37.0970   30.2230   48.5830 N   0  0  0  0  0  0  0  0  0  0  0  0
   36.4550   29.4340   49.4820 C   0  0  0  0  0  0  0  0  0  0  0  0
   36.7030   29.4840   50.7920 N   0  0  0  0  0  0  0  0  0  0  0  0
   37.9090   30.4770   52.2820 H   0  0  0  0  0  0  0  0  0  0  0  0
   39.0720   31.9130   50.6140 H   0  0  0  0  0  0  0  0  0  0  0  0
   38.7250   31.9620   48.0250 C   0  0  0  0  0  0  0  0  0  0  0  0
   39.0730   31.4930   46.7710 C   0  0  0  0  0  0  0  0  0  0  0  0
   39.6980   32.5460   46.0910 C   0  0  0  0  0  0  0  0  0  0  0  0
   39.7020   33.5970   46.9530 N   0  0  0  0  0  0  0  0  0  0  0  0
   39.1210   33.2380   48.1010 N   0  0  0  0  0  0  0  0  0  0  0  0
   38.9490   30.5360   46.2850 H   0  0  0  0  0  0  0  0  0  0  0  0
   40.0980   32.5390   45.0910 H   0  0  0  0  0  0  0  0  0  0  0  0
   40.1160   34.5170   46.6860 H   0  0  0  0  0  0  0  0  0  0  0  0
   32.2090   29.2760   46.5570 C   0  0  0  0  0  2  0  0  0  0  0  0
   30.8320   29.5270   46.1900 C   0  0  0  0  0  0  0  0  0  0  0  0
   29.6840   29.0940   46.7030 C   0  0  0  0  0  0  0  0  0  0  0  0
   28.3840   29.4210   46.2270 N   0  0  0  0  0  0  0  0  0  0  0  0
   27.0010   29.6490   46.3970 C   0  0  1  0  0  0  0  0  0  0  0  0
   26.1840   29.4570   47.3360 O   0  0  0  0  0  1  0  0  0  0  0  0
   26.7900   30.2150   45.0640 C   0  0  0  0  0  3  0  0  0  0  0  0
   25.9840   29.7450   44.4640 H   0  0  0  0  0  0  0  0  0  0  0  0
   28.1720   29.7070   44.8160 C   0  0  2  0  0  0  0  0  0  0  0  0
   29.3030   31.0810   44.4650 S   0  0  0  0  0  0  0  0  0  0  0  0
   30.8570   30.4400   45.0470 C   0  0  0  0  0  3  0  0  0  0  0  0
   31.6260   31.2420   45.1900 H   0  0  0  0  0  0  0  0  0  0  0  0
   29.7380   28.1920   47.8520 C   0  0  0  0  0  2  0  0  0  0  0  0
   29.6020   26.9460   47.6850 O   0  0  0  0  0  0  0  0  0  0  0  0
   29.7910   27.3400   48.9420 O   0  0  0  0  0  0  0  0  0  0  0  0
   30.3690   27.5610   49.7720 H   0  0  0  0  0  0  0  0  0  0  0  0
  1 11  1  0  0  0  0
  2  1  1  0  0  0  0
  2  7  1  0  0  0  0
  3  2  2  0  0  0  0
  4  5  2  0  0  0  0
  4  3  1  0  0  0  0
  5  6  1  0  0  0  0
  6 32  1  0  0  0  0
  6  1  2  0  0  0  0
  8  3  1  0  0  0  0
  9  4  1  0  0  0  0
 10  5  1  0  0  0  0
 11 12  1  0  0  0  0
 11 15  1  0  0  0  0
 11 13  1  0  0  0  0
 14 15  2  0  0  0  0
 14 20  1  0  0  0  0
 16 22  1  0  0  0  0
 17 23  1  0  0  0  0
 17 16  2  0  0  0  0
 18 17  1  0  0  0  0
 19 18  2  0  0  0  0
 19 20  1  0  0  0  0
 20 21  2  0  0  0  0
 21 16  1  0  0  0  0
 24 28  2  0  0  0  0
 24 18  1  0  0  0  0
 25 24  1  0  0  0  0
 26 25  2  0  0  0  0
 26 27  1  0  0  0  0
 27 28  1  0  0  0  0
 29 25  1  0  0  0  0
 30 26  1  0  0  0  0
 31 27  1  0  0  0  0
 33 32  1  0  0  0  0
 33 34  2  0  0  0  0
 34 44  1  0  0  0  0
 35 36  1  0  0  0  0
 35 34  1  0  0  0  0
 36 37  1  6  0  0  0
 38 36  1  0  0  0  0
 39 38  1  0  0  0  0
 40 41  1  1  0  0  0
 40 38  1  0  0  0  0
 40 35  1  0  0  0  0
 40 36  1  0  0  0  0
 41 42  1  0  0  0  0
 42 43  1  0  0  0  0
 42 33  1  0  0  0  0
 45 44  1  0  0  0  0
 45 46  1  0  0  0  0
 46 47  1  0  0  0  0
M  END
>  <minimizedAffinity>
-6.8208909

>  <minimizedRMSD>
3.19219661

$$$$
