
 OpenBabel03272509403D

 42 45  0  0  1  0  0  0  0  0999 V2000
   37.0500   30.9900   49.1110 C   0  0  0  0  0  0  0  0  0  0  0  0
   36.6510   31.8990   50.0890 C   0  0  0  0  0  0  0  0  0  0  0  0
   37.1840   33.1800   50.1930 C   0  0  0  0  0  0  0  0  0  0  0  0
   38.1660   33.5840   49.2790 C   0  0  0  0  0  0  0  0  0  0  0  0
   38.5480   32.6830   48.3250 C   0  0  0  0  0  0  0  0  0  0  0  0
   37.9960   31.4200   48.2530 C   0  0  0  0  0  0  0  0  0  0  0  0
   35.8870   31.6430   50.8310 H   0  0  0  0  0  0  0  0  0  0  0  0
   36.8390   33.8480   50.9710 H   0  0  0  0  0  0  0  0  0  0  0  0
   38.5640   34.5850   49.3800 H   0  0  0  0  0  0  0  0  0  0  0  0
   39.3110   33.0830   47.6630 H   0  0  0  0  0  0  0  0  0  0  0  0
   36.4360   29.6860   49.0870 C   0  0  0  0  0  0  0  0  0  0  0  0
   37.0060   28.8170   49.8380 O   0  0  0  0  0  0  0  0  0  0  0  0
   33.8560   30.0260   46.5620 C   0  0  0  0  0  0  0  0  0  0  0  0
   33.0960   28.8730   46.6820 C   0  0  0  0  0  0  0  0  0  0  0  0
   33.4690   27.9640   47.6400 C   0  0  0  0  0  0  0  0  0  0  0  0
   34.5510   28.2170   48.4260 N   0  0  0  0  0  0  0  0  0  0  0  0
   35.2570   29.3240   48.2900 C   0  0  0  0  0  0  0  0  0  0  0  0
   34.9020   30.2300   47.3500 N   0  0  0  0  0  0  0  0  0  0  0  0
   33.6170   30.8000   45.8180 H   0  0  0  0  0  0  0  0  0  0  0  0
   32.2640   28.8010   45.9930 H   0  0  0  0  0  0  0  0  0  0  0  0
   32.8810   27.0790   47.7280 H   0  0  0  0  0  0  0  0  0  0  0  0
   38.5230   30.5940   47.1820 C   0  0  0  0  0  3  0  0  0  0  0  0
   39.1620   31.0050   46.0960 C   0  0  0  0  0  3  0  0  0  0  0  0
   39.7400   30.2830   44.9640 C   0  0  0  0  0  0  0  0  0  0  0  0
   40.7350   30.6940   44.7110 H   0  0  0  0  0  0  0  0  0  0  0  0
   39.9500   29.2210   45.2800 H   0  0  0  0  0  0  0  0  0  0  0  0
   35.6200   28.0910   42.2660 C   0  0  0  0  0  0  0  0  0  0  0  0
   36.8340   27.6590   42.5640 C   0  0  0  0  0  0  0  0  0  0  0  0
   37.8130   28.6200   43.0120 N   0  0  0  0  0  0  0  0  0  0  0  0
   39.1850   29.0530   42.8970 C   0  0  0  0  0  0  0  0  0  0  0  0
   40.2530   28.6400   42.3300 O   0  0  0  0  0  0  0  0  0  0  0  0
   38.8550   30.2220   43.7380 C   0  0  1  0  0  3  0  0  0  0  0  0
   37.4840   29.6750   43.9850 C   0  0  1  0  0  3  0  0  0  0  0  0
   36.1200   30.5940   43.2910 S   0  0  0  0  0  0  0  0  0  0  0  0
   35.0950   29.4740   42.3120 C   0  0  0  0  0  3  0  0  0  0  0  0
   34.9360   29.8850   41.2770 H   0  0  0  0  0  0  0  0  0  0  0  0
   34.6380   27.1020   41.8210 C   0  0  0  0  0  2  0  0  0  0  0  0
   34.5180   26.3380   42.6150 H   0  0  0  0  0  0  0  0  0  0  0  0
   37.2300   26.2570   42.4680 C   0  0  0  0  0  0  0  0  0  0  0  0
   37.1230   25.3850   43.3470 O   0  0  0  0  0  0  0  0  0  0  0  0
   37.7900   25.6910   41.3600 O   0  0  0  0  0  0  0  0  0  0  0  0
   37.5090   24.7970   41.0210 H   0  0  0  0  0  0  0  0  0  0  0  0
  1  2  1  0  0  0  0
  2  3  2  0  0  0  0
  2  7  1  0  0  0  0
  3  8  1  0  0  0  0
  4  9  1  0  0  0  0
  4  3  1  0  0  0  0
  5  4  2  0  0  0  0
  6  5  1  0  0  0  0
  6  1  2  0  0  0  0
 10  5  1  0  0  0  0
 11  1  1  0  0  0  0
 11 12  2  0  0  0  0
 13 14  2  0  0  0  0
 13 18  1  0  0  0  0
 14 15  1  0  0  0  0
 15 21  1  0  0  0  0
 15 16  2  0  0  0  0
 17 16  1  0  0  0  0
 17 11  1  0  0  0  0
 18 17  2  0  0  0  0
 19 13  1  0  0  0  0
 20 14  1  0  0  0  0
 22  6  1  0  0  0  0
 23 22  2  0  0  0  0
 24 26  1  0  0  0  0
 24 23  1  0  0  0  0
 25 24  1  0  0  0  0
 27 35  1  0  0  0  0
 27 28  2  0  0  0  0
 28 29  1  0  0  0  0
 29 33  1  0  0  0  0
 30 29  1  0  0  0  0
 30 32  1  0  0  0  0
 31 30  2  0  0  0  0
 32 33  1  0  0  0  0
 32 24  1  1  0  0  0
 33 34  1  6  0  0  0
 35 34  1  0  0  0  0
 36 35  1  0  0  0  0
 37 27  1  0  0  0  0
 37 38  1  0  0  0  0
 39 28  1  0  0  0  0
 39 40  2  0  0  0  0
 41 39  1  0  0  0  0
 42 41  1  0  0  0  0
M  END
>  <minimizedAffinity>
-5.7052989

>  <minimizedRMSD>
0.99521929

$$$$
