
 OpenBabel03272503293D

 41 44  0  0  1  0  0  0  0  0999 V2000
   35.2640   29.5440   47.9770 C   0  0  0  0  0  0  0  0  0  0  0  0
   35.1900   29.9800   46.6410 C   0  0  0  0  0  0  0  0  0  0  0  0
   34.0330   29.6520   45.9300 C   0  0  0  0  0  0  0  0  0  0  0  0
   33.0670   28.9370   46.5850 N   0  0  0  0  0  0  0  0  0  0  0  0
   33.1740   28.5410   47.8520 C   0  0  0  0  0  0  0  0  0  0  0  0
   34.2810   28.8450   48.5610 N   0  0  0  0  0  0  0  0  0  0  0  0
   35.9450   30.5340   46.1420 H   0  0  0  0  0  0  0  0  0  0  0  0
   33.9010   29.9510   44.8980 H   0  0  0  0  0  0  0  0  0  0  0  0
   36.4580   29.8880   48.6900 N   0  0  0  0  0  0  0  0  0  0  0  0
   37.5650   30.6590   48.2290 C   0  0  0  0  0  0  0  0  0  0  0  0
   38.1170   31.2800   49.5010 C   0  0  2  0  0  0  0  0  0  0  0  0
   37.1570   30.8640   50.6100 C   0  0  0  0  0  0  0  0  0  0  0  0
   36.7700   29.5020   50.0550 C   0  0  0  0  0  0  0  0  0  0  0  0
   37.2770   31.4500   47.5150 H   0  0  0  0  0  0  0  0  0  0  0  0
   38.3180   29.9570   47.8070 H   0  0  0  0  0  0  0  0  0  0  0  0
   39.1140   30.8320   49.7630 H   0  0  0  0  0  0  0  0  0  0  0  0
   36.2680   31.5110   50.6400 H   0  0  0  0  0  0  0  0  0  0  0  0
   37.6820   30.7750   51.5800 H   0  0  0  0  0  0  0  0  0  0  0  0
   35.8910   29.1390   50.5930 H   0  0  0  0  0  0  0  0  0  0  0  0
   37.6190   28.8150   50.1070 H   0  0  0  0  0  0  0  0  0  0  0  0
   38.2830   32.7550   49.4090 C   0  0  0  0  0  0  0  0  0  0  0  0
   37.1040   33.3230   49.8910 F   0  0  0  0  0  0  0  0  0  0  0  0
   38.3190   33.0860   48.0660 F   0  0  0  0  0  0  0  0  0  0  0  0
   39.3900   33.2330   50.0400 F   0  0  0  0  0  0  0  0  0  0  0  0
   31.8910   27.6110   48.6650 S   0  0  0  0  0  0  0  0  0  0  0  0
   30.8570   26.8690   47.3510 C   0  0  0  0  0  2  0  0  0  0  0  0
   31.5740   25.8340   46.6180 C   0  0  0  0  0  0  0  0  0  0  0  0
   31.8330   25.5900   45.3450 C   0  0  0  0  0  0  0  0  0  0  0  0
   32.5840   24.5030   44.8610 N   0  0  0  0  0  0  0  0  0  0  0  0
   32.6930   23.3840   43.9880 C   0  0  0  0  0  0  0  0  0  0  0  0
   32.1680   23.1330   42.8540 O   0  0  0  0  0  0  0  0  0  0  0  0
   33.6220   22.7970   45.0190 C   0  0  0  0  0  3  0  0  0  0  0  0
   33.0800   22.2300   45.7790 H   0  0  0  0  0  0  0  0  0  0  0  0
   33.9340   24.2310   45.3920 C   0  0  2  0  0  3  0  0  0  0  0  0
   33.8920   24.5880   47.1750 S   0  0  0  0  0  0  0  0  0  0  0  0
   32.1070   24.8320   47.5560 C   0  0  0  0  0  3  0  0  0  0  0  0
   31.6450   23.8410   47.3390 H   0  0  0  0  0  0  0  0  0  0  0  0
   31.2870   26.5650   44.3760 C   0  0  0  0  0  0  0  0  0  0  0  0
   31.7420   27.4960   43.7020 O   0  0  0  0  0  0  0  0  0  0  0  0
   30.2330   27.0670   43.6760 O   0  0  0  0  0  0  0  0  0  0  0  0
   29.4190   27.4810   44.1050 H   0  0  0  0  0  0  0  0  0  0  0  0
  1  6  1  0  0  0  0
  1  9  1  0  0  0  0
  2  1  2  0  0  0  0
  3  4  2  0  0  0  0
  3  2  1  0  0  0  0
  4  5  1  0  0  0  0
  5  6  2  0  0  0  0
  5 25  1  0  0  0  0
  7  2  1  0  0  0  0
  8  3  1  0  0  0  0
  9 13  1  0  0  0  0
 10  9  1  0  0  0  0
 10 11  1  0  0  0  0
 11 16  1  1  0  0  0
 11 12  1  0  0  0  0
 12 17  1  0  0  0  0
 12 18  1  0  0  0  0
 13 20  1  0  0  0  0
 13 19  1  0  0  0  0
 13 12  1  0  0  0  0
 14 10  1  0  0  0  0
 15 10  1  0  0  0  0
 21 11  1  0  0  0  0
 21 22  1  0  0  0  0
 21 24  1  0  0  0  0
 23 21  1  0  0  0  0
 26 25  1  0  0  0  0
 27 26  1  0  0  0  0
 27 36  1  0  0  0  0
 28 27  2  0  0  0  0
 29 28  1  0  0  0  0
 29 34  1  0  0  0  0
 30 29  1  0  0  0  0
 30 32  1  0  0  0  0
 31 30  2  0  0  0  0
 32 33  1  0  0  0  0
 34 32  1  1  0  0  0
 34 35  1  0  0  0  0
 35 36  1  0  0  0  0
 37 36  1  0  0  0  0
 38 28  1  0  0  0  0
 39 38  2  0  0  0  0
 40 41  1  0  0  0  0
 40 38  1  0  0  0  0
M  END
>  <minimizedAffinity>
-5.21608257

>  <minimizedRMSD>
1.63786149

$$$$
