
 OpenBabel03272503293D

 41 44  0  0  1  0  0  0  0  0999 V2000
   35.0570   29.4280   47.9000 C   0  0  0  0  0  0  0  0  0  0  0  0
   34.9270   29.9780   46.6110 C   0  0  0  0  0  0  0  0  0  0  0  0
   33.7690   29.6550   45.8980 C   0  0  0  0  0  0  0  0  0  0  0  0
   32.8570   28.8360   46.5070 N   0  0  0  0  0  0  0  0  0  0  0  0
   33.0160   28.3350   47.7310 C   0  0  0  0  0  0  0  0  0  0  0  0
   34.1260   28.6310   48.4410 N   0  0  0  0  0  0  0  0  0  0  0  0
   35.6400   30.6130   46.1480 H   0  0  0  0  0  0  0  0  0  0  0  0
   33.5960   30.0380   44.9010 H   0  0  0  0  0  0  0  0  0  0  0  0
   36.2510   29.7690   48.6160 N   0  0  0  0  0  0  0  0  0  0  0  0
   37.3310   30.5920   48.1810 C   0  0  0  0  0  0  0  0  0  0  0  0
   37.8830   31.1630   49.4760 C   0  0  2  0  0  0  0  0  0  0  0  0
   36.9490   30.6670   50.5740 C   0  0  0  0  0  0  0  0  0  0  0  0
   36.5910   29.3240   49.9560 C   0  0  0  0  0  0  0  0  0  0  0  0
   37.0140   31.4090   47.5110 H   0  0  0  0  0  0  0  0  0  0  0  0
   38.0970   29.9320   47.7160 H   0  0  0  0  0  0  0  0  0  0  0  0
   38.8950   30.7290   49.7040 H   0  0  0  0  0  0  0  0  0  0  0  0
   36.0430   31.2870   50.6470 H   0  0  0  0  0  0  0  0  0  0  0  0
   37.4890   30.5430   51.5320 H   0  0  0  0  0  0  0  0  0  0  0  0
   35.7280   28.9110   50.4850 H   0  0  0  0  0  0  0  0  0  0  0  0
   37.4580   28.6580   49.9630 H   0  0  0  0  0  0  0  0  0  0  0  0
   38.0100   32.6450   49.4560 C   0  0  0  0  0  0  0  0  0  0  0  0
   36.8560   33.1540   50.0520 F   0  0  0  0  0  0  0  0  0  0  0  0
   37.9390   33.0500   48.1340 F   0  0  0  0  0  0  0  0  0  0  0  0
   39.1480   33.1160   50.0320 F   0  0  0  0  0  0  0  0  0  0  0  0
   31.8030   27.2700   48.4840 S   0  0  0  0  0  0  0  0  0  0  0  0
   30.1730   28.0620   48.2340 C   0  0  0  0  0  2  0  0  0  0  0  0
   29.5420   27.6220   46.9960 C   0  0  0  0  0  0  0  0  0  0  0  0
   28.6310   28.1180   46.1780 C   0  0  0  0  0  0  0  0  0  0  0  0
   28.1770   27.5010   44.9970 N   0  0  0  0  0  0  0  0  0  0  0  0
   27.0950   27.0390   44.1970 C   0  0  0  0  0  0  0  0  0  0  0  0
   25.8820   27.4160   44.1040 O   0  0  0  0  0  0  0  0  0  0  0  0
   28.0680   26.0320   43.6390 C   0  0  0  0  0  3  0  0  0  0  0  0
   28.0970   25.1190   44.2390 H   0  0  0  0  0  0  0  0  0  0  0  0
   29.1400   27.0490   43.9710 C   0  0  2  0  0  3  0  0  0  0  0  0
   30.5860   26.3830   44.8500 S   0  0  0  0  0  0  0  0  0  0  0  0
   30.0600   26.2980   46.6130 C   0  0  0  0  0  3  0  0  0  0  0  0
   29.2240   25.5630   46.6110 H   0  0  0  0  0  0  0  0  0  0  0  0
   28.0730   29.4350   46.5520 C   0  0  0  0  0  0  0  0  0  0  0  0
   27.9630   30.5400   46.0080 O   0  0  0  0  0  0  0  0  0  0  0  0
   27.4490   30.2370   47.4590 O   0  0  0  0  0  0  0  0  0  0  0  0
   27.8350   30.4720   48.3610 H   0  0  0  0  0  0  0  0  0  0  0  0
  1  6  1  0  0  0  0
  1  9  1  0  0  0  0
  2  1  2  0  0  0  0
  3  4  2  0  0  0  0
  3  2  1  0  0  0  0
  4  5  1  0  0  0  0
  5  6  2  0  0  0  0
  5 25  1  0  0  0  0
  7  2  1  0  0  0  0
  8  3  1  0  0  0  0
  9 13  1  0  0  0  0
 10  9  1  0  0  0  0
 10 11  1  0  0  0  0
 11 16  1  1  0  0  0
 11 12  1  0  0  0  0
 12 17  1  0  0  0  0
 12 18  1  0  0  0  0
 13 20  1  0  0  0  0
 13 19  1  0  0  0  0
 13 12  1  0  0  0  0
 14 10  1  0  0  0  0
 15 10  1  0  0  0  0
 21 11  1  0  0  0  0
 21 24  1  0  0  0  0
 21 22  1  0  0  0  0
 23 21  1  0  0  0  0
 26 25  1  0  0  0  0
 27 26  1  0  0  0  0
 28 38  1  0  0  0  0
 28 27  2  0  0  0  0
 29 28  1  0  0  0  0
 30 29  1  0  0  0  0
 31 30  2  0  0  0  0
 32 30  1  0  0  0  0
 32 33  1  0  0  0  0
 34 32  1  1  0  0  0
 34 35  1  0  0  0  0
 34 29  1  0  0  0  0
 35 36  1  0  0  0  0
 36 27  1  0  0  0  0
 37 36  1  0  0  0  0
 38 40  1  0  0  0  0
 39 38  2  0  0  0  0
 40 41  1  0  0  0  0
M  END
>  <minimizedAffinity>
-5.90734196

>  <minimizedRMSD>
2.67481661

$$$$
