
 OpenBabel03272507533D

 39 42  0  0  1  0  0  0  0  0999 V2000
   40.4200   26.1560   34.3920 N   0  0  0  0  0  0  0  0  0  0  0  0
   39.6100   26.9470   35.1040 C   0  0  0  0  0  0  0  0  0  0  0  0
   38.5800   26.3620   35.8490 C   0  0  0  0  0  0  0  0  0  0  0  0
   38.5100   25.0020   35.7660 C   0  0  0  0  0  0  0  0  0  0  0  0
   37.5550   24.5300   36.4650 O   0  0  0  0  0  0  0  0  0  0  0  0
   39.3100   24.1800   35.0590 N   0  0  0  0  0  0  0  0  0  0  0  0
   40.2780   24.8060   34.3650 C   0  0  0  0  0  0  0  0  0  0  0  0
   41.0420   24.0560   33.6880 O   0  0  0  0  0  0  0  0  0  0  0  0
   39.8050   28.0090   35.0590 H   0  0  0  0  0  0  0  0  0  0  0  0
   37.9390   26.9900   36.4140 H   0  0  0  0  0  0  0  0  0  0  0  0
   42.8030   26.6040   34.1490 C   0  0  0  0  0  0  0  0  0  0  0  0
   41.4890   26.6800   33.6070 C   0  0  0  0  0  0  0  0  0  0  0  0
   41.3340   27.2670   32.3410 C   0  0  0  0  0  0  0  0  0  0  0  0
   42.4360   27.7310   31.7030 N   0  0  0  0  0  0  0  0  0  0  0  0
   43.6510   27.6570   32.2170 C   0  0  0  0  0  0  0  0  0  0  0  0
   43.8340   27.1000   33.4280 N   0  0  0  0  0  0  0  0  0  0  0  0
   40.3350   27.3100   31.9560 H   0  0  0  0  0  0  0  0  0  0  0  0
   44.5470   28.0230   31.7230 H   0  0  0  0  0  0  0  0  0  0  0  0
   43.6990   24.7780   35.7740 C   0  0  0  0  0  0  0  0  0  0  0  0
   44.1470   23.9810   34.9260 O   0  0  0  0  0  0  0  0  0  0  0  0
   43.0920   26.0250   35.4030 N   0  0  0  0  0  0  0  0  0  0  0  0
   43.8040   24.4570   36.7960 H   0  0  0  0  0  0  0  0  0  0  0  0
   42.8360   26.5730   36.2700 H   0  0  0  0  0  0  0  0  0  0  0  0
   39.0520   22.7470   35.0850 C   0  0  0  0  0  2  0  0  0  0  0  0
   38.2050   22.2350   34.0320 C   0  0  0  0  0  0  0  0  0  0  0  0
   37.0600   21.5790   34.2880 C   0  0  0  0  0  0  0  0  0  0  0  0
   36.2370   21.1130   33.1950 N   0  0  0  0  0  0  0  0  0  0  0  0
   35.5940   19.9460   32.6360 C   0  0  0  0  0  0  0  0  0  0  0  0
   35.1910   18.8230   33.0650 O   0  0  0  0  0  0  0  0  0  0  0  0
   35.6380   20.6970   31.3310 C   0  0  0  0  0  3  0  0  0  0  0  0
   36.4810   20.4500   30.6780 H   0  0  0  0  0  0  0  0  0  0  0  0
   35.7370   21.9900   32.1150 C   0  0  2  0  0  3  0  0  0  0  0  0
   37.0990   23.0770   31.7020 S   0  0  0  0  0  0  0  0  0  0  0  0
   38.5350   22.3760   32.6140 C   0  0  0  0  0  3  0  0  0  0  0  0
   39.4180   22.9280   32.3540 H   0  0  0  0  0  0  0  0  0  0  0  0
   36.5780   21.3250   35.6670 C   0  0  0  0  0  0  0  0  0  0  0  0
   35.7110   20.6900   36.2750 O   0  0  0  0  0  0  0  0  0  0  0  0
   37.0690   21.8310   36.8450 O   0  0  0  0  0  0  0  0  0  0  0  0
   36.6170   22.4870   37.4520 H   0  0  0  0  0  0  0  0  0  0  0  0
  1  2  1  0  0  0  0
  2  3  2  0  0  0  0
  3 10  1  0  0  0  0
  4  3  1  0  0  0  0
  4  5  2  0  0  0  0
  6 24  1  0  0  0  0
  6  4  1  0  0  0  0
  7  1  1  0  0  0  0
  7  6  1  0  0  0  0
  8  7  2  0  0  0  0
  9  2  1  0  0  0  0
 11 21  1  0  0  0  0
 12 11  1  0  0  0  0
 12  1  1  0  0  0  0
 13 12  2  0  0  0  0
 14 15  2  0  0  0  0
 14 13  1  0  0  0  0
 15 16  1  0  0  0  0
 16 11  2  0  0  0  0
 17 13  1  0  0  0  0
 18 15  1  0  0  0  0
 19 22  1  0  0  0  0
 20 19  2  0  0  0  0
 21 19  1  0  0  0  0
 21 23  1  0  0  0  0
 25 26  2  0  0  0  0
 25 24  1  0  0  0  0
 26 36  1  0  0  0  0
 27 26  1  0  0  0  0
 28 29  2  0  0  0  0
 28 27  1  0  0  0  0
 30 28  1  0  0  0  0
 31 30  1  0  0  0  0
 32 30  1  6  0  0  0
 32 27  1  0  0  0  0
 33 32  1  0  0  0  0
 33 34  1  0  0  0  0
 34 25  1  0  0  0  0
 35 34  1  0  0  0  0
 36 37  2  0  0  0  0
 36 38  1  0  0  0  0
 38 39  1  0  0  0  0
M  END
>  <minimizedAffinity>
-5.75081873

$$$$

 OpenBabel03272507533D

 39 42  0  0  1  0  0  0  0  0999 V2000
   37.5730   27.6940   32.7120 N   0  0  0  0  0  0  0  0  0  0  0  0
   37.9520   28.1470   31.5120 C   0  0  0  0  0  0  0  0  0  0  0  0
   37.1170   29.0420   30.8350 C   0  0  0  0  0  0  0  0  0  0  0  0
   35.9670   29.3670   31.4930 C   0  0  0  0  0  0  0  0  0  0  0  0
   35.2510   30.1840   30.8280 O   0  0  0  0  0  0  0  0  0  0  0  0
   35.5590   28.9290   32.7000 N   0  0  0  0  0  0  0  0  0  0  0  0
   36.4070   28.0700   33.2970 C   0  0  0  0  0  0  0  0  0  0  0  0
   36.0450   27.6390   34.4320 O   0  0  0  0  0  0  0  0  0  0  0  0
   38.8980   27.7870   31.1330 H   0  0  0  0  0  0  0  0  0  0  0  0
   37.4180   29.4010   29.8840 H   0  0  0  0  0  0  0  0  0  0  0  0
   38.0280   25.3990   33.3940 C   0  0  0  0  0  0  0  0  0  0  0  0
   38.3710   26.7780   33.4610 C   0  0  0  0  0  0  0  0  0  0  0  0
   39.4660   27.1460   34.2600 C   0  0  0  0  0  0  0  0  0  0  0  0
   40.1370   26.1740   34.9240 N   0  0  0  0  0  0  0  0  0  0  0  0
   39.8090   24.8950   34.8560 C   0  0  0  0  0  0  0  0  0  0  0  0
   38.7640   24.5110   34.1000 N   0  0  0  0  0  0  0  0  0  0  0  0
   39.7020   28.1900   34.2910 H   0  0  0  0  0  0  0  0  0  0  0  0
   40.3320   24.1010   35.3810 H   0  0  0  0  0  0  0  0  0  0  0  0
   36.8750   24.4910   31.2430 C   0  0  0  0  0  0  0  0  0  0  0  0
   37.8730   24.4740   30.4930 O   0  0  0  0  0  0  0  0  0  0  0  0
   36.9610   24.9020   32.6160 N   0  0  0  0  0  0  0  0  0  0  0  0
   35.9560   24.1770   30.7810 H   0  0  0  0  0  0  0  0  0  0  0  0
   36.0210   24.7850   33.0860 H   0  0  0  0  0  0  0  0  0  0  0  0
   34.2760   29.3810   33.2210 C   0  0  0  0  0  2  0  0  0  0  0  0
   34.3270   30.4500   34.1920 C   0  0  0  0  0  0  0  0  0  0  0  0
   33.4620   30.5280   35.2180 C   0  0  0  0  0  0  0  0  0  0  0  0
   33.5770   31.6040   36.1760 N   0  0  0  0  0  0  0  0  0  0  0  0
   32.8530   32.6840   36.8080 C   0  0  0  0  0  0  0  0  0  0  0  0
   31.6390   32.9660   37.0390 O   0  0  0  0  0  0  0  0  0  0  0  0
   34.2100   33.2900   37.0520 C   0  0  0  0  0  3  0  0  0  0  0  0
   34.5270   34.0360   36.3160 H   0  0  0  0  0  0  0  0  0  0  0  0
   34.8160   31.9060   36.9250 C   0  0  2  0  0  3  0  0  0  0  0  0
   36.1520   31.7190   35.7480 S   0  0  0  0  0  0  0  0  0  0  0  0
   35.3080   31.5340   34.1240 C   0  0  0  0  0  3  0  0  0  0  0  0
   36.0470   31.4970   33.3470 H   0  0  0  0  0  0  0  0  0  0  0  0
   32.3890   29.5290   35.4340 C   0  0  0  0  0  0  0  0  0  0  0  0
   32.1750   28.4670   36.0260 O   0  0  0  0  0  0  0  0  0  0  0  0
   31.1110   29.5340   34.9310 O   0  0  0  0  0  0  0  0  0  0  0  0
   30.7310   28.9060   34.2500 H   0  0  0  0  0  0  0  0  0  0  0  0
  1  7  1  0  0  0  0
  1 12  1  0  0  0  0
  2  1  1  0  0  0  0
  3  4  1  0  0  0  0
  3  2  2  0  0  0  0
  4  6  1  0  0  0  0
  5  4  2  0  0  0  0
  6 24  1  0  0  0  0
  6  7  1  0  0  0  0
  7  8  2  0  0  0  0
  9  2  1  0  0  0  0
 10  3  1  0  0  0  0
 11 12  2  0  0  0  0
 11 16  1  0  0  0  0
 12 13  1  0  0  0  0
 13 17  1  0  0  0  0
 13 14  2  0  0  0  0
 15 14  1  0  0  0  0
 15 18  1  0  0  0  0
 16 15  2  0  0  0  0
 19 21  1  0  0  0  0
 20 19  2  0  0  0  0
 21 23  1  0  0  0  0
 21 11  1  0  0  0  0
 22 19  1  0  0  0  0
 24 25  1  0  0  0  0
 25 26  2  0  0  0  0
 26 36  1  0  0  0  0
 26 27  1  0  0  0  0
 27 28  1  0  0  0  0
 27 32  1  0  0  0  0
 28 29  2  0  0  0  0
 28 30  1  0  0  0  0
 31 30  1  0  0  0  0
 32 33  1  6  0  0  0
 32 30  1  0  0  0  0
 34 25  1  0  0  0  0
 34 33  1  0  0  0  0
 35 34  1  0  0  0  0
 36 37  2  0  0  0  0
 38 36  1  0  0  0  0
 39 38  1  0  0  0  0
M  END
>  <minimizedAffinity>
-5.64174414

$$$$

 OpenBabel03272507533D

 39 42  0  0  1  0  0  0  0  0999 V2000
   39.3230   24.3990   34.9330 N   0  0  0  0  0  0  0  0  0  0  0  0
   38.7740   25.5270   35.3970 C   0  0  0  0  0  0  0  0  0  0  0  0
   37.8130   26.1800   34.6180 C   0  0  0  0  0  0  0  0  0  0  0  0
   37.5290   25.5750   33.4280 C   0  0  0  0  0  0  0  0  0  0  0  0
   36.6490   26.2150   32.7650 O   0  0  0  0  0  0  0  0  0  0  0  0
   38.0630   24.4410   32.9340 N   0  0  0  0  0  0  0  0  0  0  0  0
   38.9820   23.8640   33.7320 C   0  0  0  0  0  0  0  0  0  0  0  0
   39.5030   22.7980   33.2900 O   0  0  0  0  0  0  0  0  0  0  0  0
   39.1140   25.8710   36.3630 H   0  0  0  0  0  0  0  0  0  0  0  0
   37.3790   27.0740   34.9860 H   0  0  0  0  0  0  0  0  0  0  0  0
   39.8590   22.8240   36.7130 C   0  0  0  0  0  0  0  0  0  0  0  0
   40.3100   23.6800   35.6700 C   0  0  0  0  0  0  0  0  0  0  0  0
   41.6930   23.7620   35.4380 C   0  0  0  0  0  0  0  0  0  0  0  0
   42.5230   23.0270   36.2170 N   0  0  0  0  0  0  0  0  0  0  0  0
   42.0940   22.2360   37.1850 C   0  0  0  0  0  0  0  0  0  0  0  0
   40.7750   22.1360   37.4320 N   0  0  0  0  0  0  0  0  0  0  0  0
   42.0040   24.4120   34.6460 H   0  0  0  0  0  0  0  0  0  0  0  0
   42.7420   21.6400   37.8210 H   0  0  0  0  0  0  0  0  0  0  0  0
   37.6300   23.2970   37.9740 C   0  0  0  0  0  0  0  0  0  0  0  0
   38.0140   24.2580   38.6710 O   0  0  0  0  0  0  0  0  0  0  0  0
   38.4970   22.6440   37.0340 N   0  0  0  0  0  0  0  0  0  0  0  0
   36.6080   23.0010   38.1340 H   0  0  0  0  0  0  0  0  0  0  0  0
   37.9610   21.8990   36.5070 H   0  0  0  0  0  0  0  0  0  0  0  0
   37.6390   23.9710   31.6230 C   0  0  0  0  0  2  0  0  0  0  0  0
   37.0480   22.6530   31.5820 C   0  0  0  0  0  0  0  0  0  0  0  0
   37.6070   21.6380   30.9010 C   0  0  0  0  0  0  0  0  0  0  0  0
   36.9870   20.3320   30.9170 N   0  0  0  0  0  0  0  0  0  0  0  0
   36.4740   19.2750   30.0750 C   0  0  0  0  0  0  0  0  0  0  0  0
   36.6480   18.8820   28.8830 O   0  0  0  0  0  0  0  0  0  0  0  0
   35.6540   18.8820   31.2760 C   0  0  0  0  0  3  0  0  0  0  0  0
   34.6290   19.2660   31.2880 H   0  0  0  0  0  0  0  0  0  0  0  0
   36.6600   19.5960   32.1570 C   0  0  2  0  0  3  0  0  0  0  0  0
   36.0100   20.8190   33.2910 S   0  0  0  0  0  0  0  0  0  0  0  0
   35.7930   22.3280   32.2600 C   0  0  0  0  0  3  0  0  0  0  0  0
   35.3270   23.0920   32.8520 H   0  0  0  0  0  0  0  0  0  0  0  0
   38.8690   21.7890   30.1380 C   0  0  0  0  0  0  0  0  0  0  0  0
   39.2730   21.9980   28.9900 O   0  0  0  0  0  0  0  0  0  0  0  0
   40.1580   21.7220   30.6060 O   0  0  0  0  0  0  0  0  0  0  0  0
   40.8300   21.0060   30.4120 H   0  0  0  0  0  0  0  0  0  0  0  0
  1  2  1  0  0  0  0
  1 12  1  0  0  0  0
  2  9  1  0  0  0  0
  3 10  1  0  0  0  0
  3  2  2  0  0  0  0
  4  3  1  0  0  0  0
  5  4  2  0  0  0  0
  6  4  1  0  0  0  0
  6  7  1  0  0  0  0
  7  1  1  0  0  0  0
  8  7  2  0  0  0  0
 11 21  1  0  0  0  0
 11 16  1  0  0  0  0
 12 11  2  0  0  0  0
 13 12  1  0  0  0  0
 13 14  2  0  0  0  0
 14 15  1  0  0  0  0
 15 16  2  0  0  0  0
 15 18  1  0  0  0  0
 17 13  1  0  0  0  0
 19 22  1  0  0  0  0
 19 20  2  0  0  0  0
 21 19  1  0  0  0  0
 23 21  1  0  0  0  0
 24  6  1  0  0  0  0
 25 24  1  0  0  0  0
 25 34  1  0  0  0  0
 26 27  1  0  0  0  0
 26 25  2  0  0  0  0
 27 32  1  0  0  0  0
 28 27  1  0  0  0  0
 28 30  1  0  0  0  0
 29 28  2  0  0  0  0
 30 31  1  0  0  0  0
 32 30  1  6  0  0  0
 32 33  1  0  0  0  0
 34 35  1  0  0  0  0
 34 33  1  0  0  0  0
 36 38  1  0  0  0  0
 36 26  1  0  0  0  0
 37 36  2  0  0  0  0
 39 38  1  0  0  0  0
M  END
>  <minimizedAffinity>
-5.62119627

$$$$

 OpenBabel03272507533D

 39 42  0  0  1  0  0  0  0  0999 V2000
   39.3500   24.5080   35.0360 N   0  0  0  0  0  0  0  0  0  0  0  0
   39.1710   25.7900   35.3720 C   0  0  0  0  0  0  0  0  0  0  0  0
   38.2450   26.5530   34.6530 C   0  0  0  0  0  0  0  0  0  0  0  0
   37.6020   25.8840   33.6520 C   0  0  0  0  0  0  0  0  0  0  0  0
   36.7730   26.6300   33.0350 O   0  0  0  0  0  0  0  0  0  0  0  0
   37.7600   24.5960   33.2910 N   0  0  0  0  0  0  0  0  0  0  0  0
   38.6660   23.9200   34.0220 C   0  0  0  0  0  0  0  0  0  0  0  0
   38.8370   22.7060   33.7000 O   0  0  0  0  0  0  0  0  0  0  0  0
   39.7640   26.1640   36.1940 H   0  0  0  0  0  0  0  0  0  0  0  0
   38.1030   27.5690   34.9200 H   0  0  0  0  0  0  0  0  0  0  0  0
   39.7670   22.8160   36.7400 C   0  0  0  0  0  0  0  0  0  0  0  0
   40.2780   23.6690   35.7220 C   0  0  0  0  0  0  0  0  0  0  0  0
   41.6580   23.6310   35.4640 C   0  0  0  0  0  0  0  0  0  0  0  0
   42.4290   22.7900   36.1950 N   0  0  0  0  0  0  0  0  0  0  0  0
   41.9440   22.0030   37.1390 C   0  0  0  0  0  0  0  0  0  0  0  0
   40.6260   22.0160   37.4100 N   0  0  0  0  0  0  0  0  0  0  0  0
   42.0150   24.2830   34.6930 H   0  0  0  0  0  0  0  0  0  0  0  0
   42.5440   21.3230   37.7360 H   0  0  0  0  0  0  0  0  0  0  0  0
   37.5990   23.4930   38.0150 C   0  0  0  0  0  0  0  0  0  0  0  0
   38.0660   24.4400   38.6800 O   0  0  0  0  0  0  0  0  0  0  0  0
   38.3990   22.7510   37.0820 N   0  0  0  0  0  0  0  0  0  0  0  0
   36.5600   23.2820   38.1950 H   0  0  0  0  0  0  0  0  0  0  0  0
   37.8000   22.0360   36.5830 H   0  0  0  0  0  0  0  0  0  0  0  0
   36.9890   24.0750   32.1700 C   0  0  0  0  0  2  0  0  0  0  0  0
   37.7520   23.4880   31.0930 C   0  0  0  0  0  0  0  0  0  0  0  0
   38.5480   24.2220   30.2950 C   0  0  0  0  0  0  0  0  0  0  0  0
   39.3100   23.5780   29.2500 N   0  0  0  0  0  0  0  0  0  0  0  0
   39.5850   23.5910   27.8310 C   0  0  0  0  0  0  0  0  0  0  0  0
   39.5070   24.4330   26.8870 O   0  0  0  0  0  0  0  0  0  0  0  0
   39.9960   22.1540   28.0210 C   0  0  0  0  0  3  0  0  0  0  0  0
   39.2260   21.4130   27.7870 H   0  0  0  0  0  0  0  0  0  0  0  0
   40.2360   22.4500   29.4890 C   0  0  2  0  0  3  0  0  0  0  0  0
   39.4120   21.3850   30.6670 S   0  0  0  0  0  0  0  0  0  0  0  0
   37.7040   22.0610   30.7770 C   0  0  0  0  0  3  0  0  0  0  0  0
   37.1150   21.4230   31.4090 H   0  0  0  0  0  0  0  0  0  0  0  0
   38.7040   25.6870   30.4550 C   0  0  0  0  0  0  0  0  0  0  0  0
   39.5140   26.5240   30.8650 O   0  0  0  0  0  0  0  0  0  0  0  0
   37.8120   26.6770   30.1230 O   0  0  0  0  0  0  0  0  0  0  0  0
   37.3080   27.2680   30.7550 H   0  0  0  0  0  0  0  0  0  0  0  0
  1  2  1  0  0  0  0
  1 12  1  0  0  0  0
  2  9  1  0  0  0  0
  3 10  1  0  0  0  0
  3  2  2  0  0  0  0
  4  3  1  0  0  0  0
  5  4  2  0  0  0  0
  6  4  1  0  0  0  0
  6  7  1  0  0  0  0
  7  1  1  0  0  0  0
  8  7  2  0  0  0  0
 11 21  1  0  0  0  0
 11 16  1  0  0  0  0
 12 11  2  0  0  0  0
 13 12  1  0  0  0  0
 13 14  2  0  0  0  0
 14 15  1  0  0  0  0
 15 16  2  0  0  0  0
 15 18  1  0  0  0  0
 17 13  1  0  0  0  0
 19 22  1  0  0  0  0
 19 20  2  0  0  0  0
 21 19  1  0  0  0  0
 23 21  1  0  0  0  0
 24  6  1  0  0  0  0
 25 24  1  0  0  0  0
 26 36  1  0  0  0  0
 26 25  2  0  0  0  0
 27 32  1  0  0  0  0
 27 26  1  0  0  0  0
 28 30  1  0  0  0  0
 28 27  1  0  0  0  0
 29 28  2  0  0  0  0
 31 30  1  0  0  0  0
 32 30  1  6  0  0  0
 32 33  1  0  0  0  0
 33 34  1  0  0  0  0
 34 25  1  0  0  0  0
 34 35  1  0  0  0  0
 36 37  2  0  0  0  0
 38 36  1  0  0  0  0
 38 39  1  0  0  0  0
M  END
>  <minimizedAffinity>
-5.58679342

$$$$

 OpenBabel03272507533D

 39 42  0  0  1  0  0  0  0  0999 V2000
   36.4670   26.3780   31.8040 N   0  0  0  0  0  0  0  0  0  0  0  0
   35.5210   25.5810   31.2950 C   0  0  0  0  0  0  0  0  0  0  0  0
   35.8290   24.2380   31.0540 C   0  0  0  0  0  0  0  0  0  0  0  0
   37.1040   23.8730   31.3750 C   0  0  0  0  0  0  0  0  0  0  0  0
   37.3220   22.6410   31.1340 O   0  0  0  0  0  0  0  0  0  0  0  0
   38.0760   24.6510   31.8890 N   0  0  0  0  0  0  0  0  0  0  0  0
   37.7150   25.9310   32.0950 C   0  0  0  0  0  0  0  0  0  0  0  0
   38.6130   26.6850   32.5740 O   0  0  0  0  0  0  0  0  0  0  0  0
   34.5600   26.0330   31.0980 H   0  0  0  0  0  0  0  0  0  0  0  0
   35.0790   23.6070   30.6510 H   0  0  0  0  0  0  0  0  0  0  0  0
   36.3370   28.6710   30.9880 C   0  0  0  0  0  0  0  0  0  0  0  0
   36.2280   27.7580   32.0740 C   0  0  0  0  0  0  0  0  0  0  0  0
   35.8960   28.2760   33.3370 C   0  0  0  0  0  0  0  0  0  0  0  0
   35.6990   29.6110   33.4570 N   0  0  0  0  0  0  0  0  0  0  0  0
   35.8050   30.4500   32.4410 C   0  0  0  0  0  0  0  0  0  0  0  0
   36.1210   29.9850   31.2190 N   0  0  0  0  0  0  0  0  0  0  0  0
   35.8190   27.5670   34.1360 H   0  0  0  0  0  0  0  0  0  0  0  0
   35.6520   31.5230   32.5160 H   0  0  0  0  0  0  0  0  0  0  0  0
   37.8790   28.2590   28.9310 C   0  0  0  0  0  0  0  0  0  0  0  0
   38.9660   28.5890   29.4470 O   0  0  0  0  0  0  0  0  0  0  0  0
   36.6490   28.2740   29.6700 N   0  0  0  0  0  0  0  0  0  0  0  0
   37.9390   27.9670   27.8970 H   0  0  0  0  0  0  0  0  0  0  0  0
   35.8620   27.9040   29.0680 H   0  0  0  0  0  0  0  0  0  0  0  0
   39.3880   24.0700   32.1410 C   0  0  0  0  0  2  0  0  0  0  0  0
   39.6010   23.5340   33.4660 C   0  0  0  0  0  0  0  0  0  0  0  0
   40.4610   24.0910   34.3350 C   0  0  0  0  0  0  0  0  0  0  0  0
   40.6140   23.5290   35.6580 N   0  0  0  0  0  0  0  0  0  0  0  0
   41.5800   23.0090   36.5980 C   0  0  0  0  0  0  0  0  0  0  0  0
   42.8270   23.1250   36.7950 O   0  0  0  0  0  0  0  0  0  0  0  0
   40.4120   22.2830   37.2120 C   0  0  0  0  0  3  0  0  0  0  0  0
   40.2840   21.2450   36.8870 H   0  0  0  0  0  0  0  0  0  0  0  0
   39.4870   23.3120   36.5900 C   0  0  2  0  0  3  0  0  0  0  0  0
   38.1430   22.6820   35.5890 S   0  0  0  0  0  0  0  0  0  0  0  0
   38.9130   22.3390   33.9540 C   0  0  0  0  0  3  0  0  0  0  0  0
   38.1850   21.8780   33.3140 H   0  0  0  0  0  0  0  0  0  0  0  0
   41.2600   25.2950   34.0050 C   0  0  0  0  0  0  0  0  0  0  0  0
   42.2880   25.6270   33.4060 O   0  0  0  0  0  0  0  0  0  0  0  0
   41.0090   26.6010   34.3470 O   0  0  0  0  0  0  0  0  0  0  0  0
   41.5340   27.1660   34.9860 H   0  0  0  0  0  0  0  0  0  0  0  0
  1 12  1  0  0  0  0
  1  7  1  0  0  0  0
  2  1  1  0  0  0  0
  3  2  2  0  0  0  0
  3  4  1  0  0  0  0
  4  6  1  0  0  0  0
  5  4  2  0  0  0  0
  6  7  1  0  0  0  0
  6 24  1  0  0  0  0
  7  8  2  0  0  0  0
  9  2  1  0  0  0  0
 10  3  1  0  0  0  0
 11 16  2  0  0  0  0
 11 12  1  0  0  0  0
 12 13  2  0  0  0  0
 13 14  1  0  0  0  0
 13 17  1  0  0  0  0
 15 18  1  0  0  0  0
 15 14  2  0  0  0  0
 16 15  1  0  0  0  0
 19 20  2  0  0  0  0
 19 21  1  0  0  0  0
 21 11  1  0  0  0  0
 22 19  1  0  0  0  0
 23 21  1  0  0  0  0
 24 25  1  0  0  0  0
 25 34  1  0  0  0  0
 25 26  2  0  0  0  0
 26 27  1  0  0  0  0
 27 32  1  0  0  0  0
 27 28  1  0  0  0  0
 28 29  2  0  0  0  0
 28 30  1  0  0  0  0
 31 30  1  0  0  0  0
 32 33  1  6  0  0  0
 32 30  1  0  0  0  0
 34 33  1  0  0  0  0
 35 34  1  0  0  0  0
 36 26  1  0  0  0  0
 36 38  1  0  0  0  0
 37 36  2  0  0  0  0
 38 39  1  0  0  0  0
M  END
>  <minimizedAffinity>
-5.55591488

$$$$

 OpenBabel03272507533D

 39 42  0  0  1  0  0  0  0  0999 V2000
   39.8580   26.4790   33.7600 N   0  0  0  0  0  0  0  0  0  0  0  0
   39.1170   27.1790   34.6260 C   0  0  0  0  0  0  0  0  0  0  0  0
   38.3170   26.4880   35.5420 C   0  0  0  0  0  0  0  0  0  0  0  0
   38.3810   25.1280   35.4510 C   0  0  0  0  0  0  0  0  0  0  0  0
   37.6330   24.5560   36.3080 O   0  0  0  0  0  0  0  0  0  0  0  0
   39.1170   24.3960   34.5920 N   0  0  0  0  0  0  0  0  0  0  0  0
   39.8630   25.1220   33.7370 C   0  0  0  0  0  0  0  0  0  0  0  0
   40.5610   24.4580   32.9160 O   0  0  0  0  0  0  0  0  0  0  0  0
   39.1830   28.2560   34.5640 H   0  0  0  0  0  0  0  0  0  0  0  0
   37.7300   27.0430   36.2280 H   0  0  0  0  0  0  0  0  0  0  0  0
   40.1920   27.2530   31.4740 C   0  0  0  0  0  0  0  0  0  0  0  0
   40.6970   27.1150   32.7970 C   0  0  0  0  0  0  0  0  0  0  0  0
   41.9830   27.6090   33.0640 C   0  0  0  0  0  0  0  0  0  0  0  0
   42.6770   28.1880   32.0540 N   0  0  0  0  0  0  0  0  0  0  0  0
   42.1990   28.3090   30.8280 C   0  0  0  0  0  0  0  0  0  0  0  0
   40.9690   27.8450   30.5390 N   0  0  0  0  0  0  0  0  0  0  0  0
   42.3380   27.4940   34.0690 H   0  0  0  0  0  0  0  0  0  0  0  0
   42.7380   28.7690   30.0040 H   0  0  0  0  0  0  0  0  0  0  0  0
   37.6290   27.4600   31.0620 C   0  0  0  0  0  0  0  0  0  0  0  0
   37.4890   28.6590   31.3770 O   0  0  0  0  0  0  0  0  0  0  0  0
   38.9100   26.8110   31.0830 N   0  0  0  0  0  0  0  0  0  0  0  0
   36.7210   26.9580   30.7760 H   0  0  0  0  0  0  0  0  0  0  0  0
   38.8170   25.8200   30.7250 H   0  0  0  0  0  0  0  0  0  0  0  0
   39.0260   22.9430   34.6410 C   0  0  0  0  0  2  0  0  0  0  0  0
   38.1270   22.3310   33.6900 C   0  0  0  0  0  0  0  0  0  0  0  0
   37.0530   21.6200   34.0750 C   0  0  0  0  0  0  0  0  0  0  0  0
   36.1710   21.0530   33.0810 N   0  0  0  0  0  0  0  0  0  0  0  0
   35.5580   19.8230   32.6320 C   0  0  0  0  0  0  0  0  0  0  0  0
   35.2660   18.7010   33.1440 O   0  0  0  0  0  0  0  0  0  0  0  0
   35.4420   20.5100   31.2970 C   0  0  0  0  0  3  0  0  0  0  0  0
   36.2410   20.2820   30.5830 H   0  0  0  0  0  0  0  0  0  0  0  0
   35.5250   21.8440   32.0110 C   0  0  2  0  0  3  0  0  0  0  0  0
   36.7740   22.9890   31.4330 S   0  0  0  0  0  0  0  0  0  0  0  0
   38.3250   22.4210   32.2440 C   0  0  0  0  0  3  0  0  0  0  0  0
   39.1450   23.0120   31.8830 H   0  0  0  0  0  0  0  0  0  0  0  0
   36.7070   21.4060   35.5010 C   0  0  0  0  0  0  0  0  0  0  0  0
   35.8280   20.9030   36.2070 O   0  0  0  0  0  0  0  0  0  0  0  0
   37.4170   21.7860   36.6130 O   0  0  0  0  0  0  0  0  0  0  0  0
   37.1580   22.4880   37.2790 H   0  0  0  0  0  0  0  0  0  0  0  0
  1  2  1  0  0  0  0
  2  3  2  0  0  0  0
  3 10  1  0  0  0  0
  4  3  1  0  0  0  0
  4  5  2  0  0  0  0
  6 24  1  0  0  0  0
  6  4  1  0  0  0  0
  7  1  1  0  0  0  0
  7  6  1  0  0  0  0
  8  7  2  0  0  0  0
  9  2  1  0  0  0  0
 11 12  1  0  0  0  0
 12 13  2  0  0  0  0
 12  1  1  0  0  0  0
 13 17  1  0  0  0  0
 14 13  1  0  0  0  0
 15 14  2  0  0  0  0
 16 15  1  0  0  0  0
 16 11  2  0  0  0  0
 18 15  1  0  0  0  0
 19 21  1  0  0  0  0
 19 20  2  0  0  0  0
 21 11  1  0  0  0  0
 22 19  1  0  0  0  0
 23 21  1  0  0  0  0
 25 26  2  0  0  0  0
 25 24  1  0  0  0  0
 26 36  1  0  0  0  0
 27 26  1  0  0  0  0
 28 27  1  0  0  0  0
 28 29  2  0  0  0  0
 30 28  1  0  0  0  0
 31 30  1  0  0  0  0
 32 30  1  6  0  0  0
 32 27  1  0  0  0  0
 33 32  1  0  0  0  0
 33 34  1  0  0  0  0
 34 25  1  0  0  0  0
 35 34  1  0  0  0  0
 36 37  2  0  0  0  0
 36 38  1  0  0  0  0
 38 39  1  0  0  0  0
M  END
>  <minimizedAffinity>
-5.53620958

$$$$

 OpenBabel03272507533D

 39 42  0  0  1  0  0  0  0  0999 V2000
   38.4200   25.2000   35.1790 N   0  0  0  0  0  0  0  0  0  0  0  0
   38.4150   26.5190   35.3990 C   0  0  0  0  0  0  0  0  0  0  0  0
   37.7630   27.3530   34.4850 C   0  0  0  0  0  0  0  0  0  0  0  0
   37.1830   26.7090   33.4310 C   0  0  0  0  0  0  0  0  0  0  0  0
   36.6060   27.5200   32.6350 O   0  0  0  0  0  0  0  0  0  0  0  0
   37.1700   25.3850   33.1830 N   0  0  0  0  0  0  0  0  0  0  0  0
   37.8160   24.6400   34.1000 C   0  0  0  0  0  0  0  0  0  0  0  0
   37.8230   23.3910   33.8880 O   0  0  0  0  0  0  0  0  0  0  0  0
   38.9250   26.8660   36.2870 H   0  0  0  0  0  0  0  0  0  0  0  0
   37.7590   28.3980   34.6600 H   0  0  0  0  0  0  0  0  0  0  0  0
   40.3160   23.7450   35.6570 C   0  0  0  0  0  0  0  0  0  0  0  0
   39.0660   24.2880   36.0660 C   0  0  0  0  0  0  0  0  0  0  0  0
   38.5510   23.8890   37.3100 C   0  0  0  0  0  0  0  0  0  0  0  0
   39.2660   23.0100   38.0530 N   0  0  0  0  0  0  0  0  0  0  0  0
   40.4250   22.5100   37.6630 C   0  0  0  0  0  0  0  0  0  0  0  0
   40.9460   22.8740   36.4770 N   0  0  0  0  0  0  0  0  0  0  0  0
   37.6090   24.3130   37.5930 H   0  0  0  0  0  0  0  0  0  0  0  0
   41.0130   21.8050   38.2430 H   0  0  0  0  0  0  0  0  0  0  0  0
   41.6920   25.2320   34.0210 C   0  0  0  0  0  0  0  0  0  0  0  0
   41.9510   26.1720   34.8000 O   0  0  0  0  0  0  0  0  0  0  0  0
   40.9450   24.0790   34.4390 N   0  0  0  0  0  0  0  0  0  0  0  0
   42.0710   25.3560   33.0220 H   0  0  0  0  0  0  0  0  0  0  0  0
   40.8910   23.3800   33.6480 H   0  0  0  0  0  0  0  0  0  0  0  0
   36.5100   24.8970   31.9800 C   0  0  0  0  0  2  0  0  0  0  0  0
   37.3390   24.1550   31.0580 C   0  0  0  0  0  0  0  0  0  0  0  0
   38.2790   24.7490   30.3010 C   0  0  0  0  0  0  0  0  0  0  0  0
   39.0990   23.9540   29.4160 N   0  0  0  0  0  0  0  0  0  0  0  0
   39.5330   23.8100   28.0450 C   0  0  0  0  0  0  0  0  0  0  0  0
   39.6330   24.5610   27.0280 O   0  0  0  0  0  0  0  0  0  0  0  0
   39.8000   22.3730   28.4070 C   0  0  0  0  0  3  0  0  0  0  0  0
   39.0020   21.6700   28.1470 H   0  0  0  0  0  0  0  0  0  0  0  0
   39.8950   22.7900   29.8610 C   0  0  2  0  0  3  0  0  0  0  0  0
   38.8570   21.9060   31.0210 S   0  0  0  0  0  0  0  0  0  0  0  0
   37.2090   22.7110   30.8640 C   0  0  0  0  0  3  0  0  0  0  0  0
   36.5020   22.1810   31.4730 H   0  0  0  0  0  0  0  0  0  0  0  0
   38.5370   26.2080   30.3500 C   0  0  0  0  0  0  0  0  0  0  0  0
   39.3720   27.0180   30.7630 O   0  0  0  0  0  0  0  0  0  0  0  0
   37.7600   27.2240   29.8510 O   0  0  0  0  0  0  0  0  0  0  0  0
   37.2510   27.9060   30.3800 H   0  0  0  0  0  0  0  0  0  0  0  0
  1  2  1  0  0  0  0
  1 12  1  0  0  0  0
  2  9  1  0  0  0  0
  3 10  1  0  0  0  0
  3  2  2  0  0  0  0
  4  3  1  0  0  0  0
  5  4  2  0  0  0  0
  6  4  1  0  0  0  0
  6  7  1  0  0  0  0
  7  1  1  0  0  0  0
  8  7  2  0  0  0  0
 11 12  2  0  0  0  0
 11 16  1  0  0  0  0
 12 13  1  0  0  0  0
 13 17  1  0  0  0  0
 13 14  2  0  0  0  0
 15 14  1  0  0  0  0
 15 18  1  0  0  0  0
 16 15  2  0  0  0  0
 19 21  1  0  0  0  0
 19 20  2  0  0  0  0
 21 11  1  0  0  0  0
 22 19  1  0  0  0  0
 23 21  1  0  0  0  0
 24  6  1  0  0  0  0
 25 24  1  0  0  0  0
 26 36  1  0  0  0  0
 26 25  2  0  0  0  0
 27 32  1  0  0  0  0
 27 26  1  0  0  0  0
 28 30  1  0  0  0  0
 28 27  1  0  0  0  0
 29 28  2  0  0  0  0
 31 30  1  0  0  0  0
 32 30  1  6  0  0  0
 32 33  1  0  0  0  0
 34 33  1  0  0  0  0
 34 25  1  0  0  0  0
 34 35  1  0  0  0  0
 36 37  2  0  0  0  0
 38 36  1  0  0  0  0
 38 39  1  0  0  0  0
M  END
>  <minimizedAffinity>
-5.42533445

$$$$

 OpenBabel03272507533D

 39 42  0  0  1  0  0  0  0  0999 V2000
   37.2530   28.0470   32.1160 N   0  0  0  0  0  0  0  0  0  0  0  0
   37.4140   28.2250   30.8000 C   0  0  0  0  0  0  0  0  0  0  0  0
   36.8160   29.3330   30.1910 C   0  0  0  0  0  0  0  0  0  0  0  0
   36.1070   30.1400   31.0330 C   0  0  0  0  0  0  0  0  0  0  0  0
   35.5870   31.1290   30.4210 O   0  0  0  0  0  0  0  0  0  0  0  0
   35.9270   29.9870   32.3590 N   0  0  0  0  0  0  0  0  0  0  0  0
   36.5280   28.9020   32.8820 C   0  0  0  0  0  0  0  0  0  0  0  0
   36.3710   28.7320   34.1270 O   0  0  0  0  0  0  0  0  0  0  0  0
   38.0090   27.4880   30.2790 H   0  0  0  0  0  0  0  0  0  0  0  0
   36.9440   29.4740   29.1480 H   0  0  0  0  0  0  0  0  0  0  0  0
   37.1490   25.6930   32.7400 C   0  0  0  0  0  0  0  0  0  0  0  0
   37.8320   26.9400   32.8050 C   0  0  0  0  0  0  0  0  0  0  0  0
   39.0240   26.9990   33.5440 C   0  0  0  0  0  0  0  0  0  0  0  0
   39.4610   25.8710   34.1560 N   0  0  0  0  0  0  0  0  0  0  0  0
   38.8180   24.7190   34.0910 C   0  0  0  0  0  0  0  0  0  0  0  0
   37.6730   24.6300   33.3900 N   0  0  0  0  0  0  0  0  0  0  0  0
   39.5180   27.9490   33.5750 H   0  0  0  0  0  0  0  0  0  0  0  0
   39.1510   23.8050   34.5740 H   0  0  0  0  0  0  0  0  0  0  0  0
   35.5280   24.4820   31.1010 C   0  0  0  0  0  0  0  0  0  0  0  0
   36.2390   23.4900   30.8400 O   0  0  0  0  0  0  0  0  0  0  0  0
   35.9510   25.5020   32.0180 N   0  0  0  0  0  0  0  0  0  0  0  0
   34.5830   24.5090   30.5880 H   0  0  0  0  0  0  0  0  0  0  0  0
   35.1810   26.2160   32.1420 H   0  0  0  0  0  0  0  0  0  0  0  0
   35.1100   30.9540   33.0790 C   0  0  0  0  0  2  0  0  0  0  0  0
   33.8450   30.4680   33.5800 C   0  0  0  0  0  0  0  0  0  0  0  0
   33.4890   30.5930   34.8700 C   0  0  0  0  0  0  0  0  0  0  0  0
   32.1990   30.1140   35.3110 N   0  0  0  0  0  0  0  0  0  0  0  0
   31.5400   29.2510   36.2660 C   0  0  0  0  0  0  0  0  0  0  0  0
   31.8130   28.7600   37.4020 O   0  0  0  0  0  0  0  0  0  0  0  0
   30.4050   29.2250   35.2760 C   0  0  0  0  0  3  0  0  0  0  0  0
   30.3920   28.3610   34.6040 H   0  0  0  0  0  0  0  0  0  0  0  0
   30.9180   30.5300   34.7010 C   0  0  2  0  0  3  0  0  0  0  0  0
   31.2110   30.5700   32.9350 S   0  0  0  0  0  0  0  0  0  0  0  0
   32.8660   29.7920   32.7290 C   0  0  0  0  0  3  0  0  0  0  0  0
   33.0830   29.7030   31.6820 H   0  0  0  0  0  0  0  0  0  0  0  0
   34.3650   31.2330   35.8800 C   0  0  0  0  0  0  0  0  0  0  0  0
   34.3150   32.0320   36.8210 O   0  0  0  0  0  0  0  0  0  0  0  0
   35.7160   31.0680   36.0600 O   0  0  0  0  0  0  0  0  0  0  0  0
   36.4320   31.7460   35.8880 H   0  0  0  0  0  0  0  0  0  0  0  0
  1 12  1  0  0  0  0
  1  7  1  0  0  0  0
  2  1  1  0  0  0  0
  3  2  2  0  0  0  0
  3  4  1  0  0  0  0
  4  6  1  0  0  0  0
  5  4  2  0  0  0  0
  6  7  1  0  0  0  0
  6 24  1  0  0  0  0
  7  8  2  0  0  0  0
  9  2  1  0  0  0  0
 10  3  1  0  0  0  0
 11 12  2  0  0  0  0
 11 16  1  0  0  0  0
 12 13  1  0  0  0  0
 13 17  1  0  0  0  0
 13 14  2  0  0  0  0
 15 14  1  0  0  0  0
 15 18  1  0  0  0  0
 16 15  2  0  0  0  0
 19 21  1  0  0  0  0
 20 19  2  0  0  0  0
 21 23  1  0  0  0  0
 21 11  1  0  0  0  0
 22 19  1  0  0  0  0
 24 25  1  0  0  0  0
 25 26  2  0  0  0  0
 26 27  1  0  0  0  0
 26 36  1  0  0  0  0
 27 28  1  0  0  0  0
 28 29  2  0  0  0  0
 30 28  1  0  0  0  0
 31 30  1  0  0  0  0
 32 33  1  6  0  0  0
 32 30  1  0  0  0  0
 32 27  1  0  0  0  0
 34 33  1  0  0  0  0
 34 25  1  0  0  0  0
 35 34  1  0  0  0  0
 36 38  1  0  0  0  0
 36 37  2  0  0  0  0
 39 38  1  0  0  0  0
M  END
>  <minimizedAffinity>
-5.36347628

$$$$

 OpenBabel03272507533D

 39 42  0  0  1  0  0  0  0  0999 V2000
   36.5410   25.8780   31.4320 N   0  0  0  0  0  0  0  0  0  0  0  0
   35.4460   25.1510   31.1800 C   0  0  0  0  0  0  0  0  0  0  0  0
   35.5370   23.7560   31.2330 C   0  0  0  0  0  0  0  0  0  0  0  0
   36.7740   23.2700   31.5440 C   0  0  0  0  0  0  0  0  0  0  0  0
   36.7930   21.9970   31.5760 O   0  0  0  0  0  0  0  0  0  0  0  0
   37.8920   23.9760   31.8020 N   0  0  0  0  0  0  0  0  0  0  0  0
   37.7370   25.3110   31.7350 C   0  0  0  0  0  0  0  0  0  0  0  0
   38.7750   25.9980   31.9700 O   0  0  0  0  0  0  0  0  0  0  0  0
   34.5430   25.6960   30.9490 H   0  0  0  0  0  0  0  0  0  0  0  0
   34.6700   23.1800   31.0340 H   0  0  0  0  0  0  0  0  0  0  0  0
   36.3960   27.9930   32.6340 C   0  0  0  0  0  0  0  0  0  0  0  0
   36.5250   27.3040   31.3960 C   0  0  0  0  0  0  0  0  0  0  0  0
   36.6250   28.0710   30.2240 C   0  0  0  0  0  0  0  0  0  0  0  0
   36.5920   29.4220   30.3310 N   0  0  0  0  0  0  0  0  0  0  0  0
   36.4700   30.0510   31.4860 C   0  0  0  0  0  0  0  0  0  0  0  0
   36.3720   29.3440   32.6270 N   0  0  0  0  0  0  0  0  0  0  0  0
   36.7230   27.5270   29.3060 H   0  0  0  0  0  0  0  0  0  0  0  0
   36.4400   31.1320   31.5930 H   0  0  0  0  0  0  0  0  0  0  0  0
   37.2670   27.0820   34.9120 C   0  0  0  0  0  0  0  0  0  0  0  0
   38.4380   27.5080   34.8450 O   0  0  0  0  0  0  0  0  0  0  0  0
   36.3030   27.3370   33.8800 N   0  0  0  0  0  0  0  0  0  0  0  0
   37.0430   26.5130   35.7970 H   0  0  0  0  0  0  0  0  0  0  0  0
   35.3630   26.9410   34.1600 H   0  0  0  0  0  0  0  0  0  0  0  0
   39.1280   23.2620   32.0940 C   0  0  0  0  0  2  0  0  0  0  0  0
   39.3840   22.9790   33.4880 C   0  0  0  0  0  0  0  0  0  0  0  0
   40.2800   23.6760   34.2080 C   0  0  0  0  0  0  0  0  0  0  0  0
   40.4750   23.3670   35.6060 N   0  0  0  0  0  0  0  0  0  0  0  0
   41.4700   23.0170   36.5940 C   0  0  0  0  0  0  0  0  0  0  0  0
   42.7240   23.1490   36.7240 O   0  0  0  0  0  0  0  0  0  0  0  0
   40.3180   22.4360   37.3710 C   0  0  0  0  0  3  0  0  0  0  0  0
   40.1700   21.3570   37.2510 H   0  0  0  0  0  0  0  0  0  0  0  0
   39.3800   23.3440   36.6010 C   0  0  2  0  0  3  0  0  0  0  0  0
   37.9960   22.5590   35.7810 S   0  0  0  0  0  0  0  0  0  0  0  0
   38.7040   21.9060   34.2130 C   0  0  0  0  0  3  0  0  0  0  0  0
   37.9500   21.3450   33.6950 H   0  0  0  0  0  0  0  0  0  0  0  0
   41.0760   24.7850   33.6320 C   0  0  0  0  0  0  0  0  0  0  0  0
   42.0000   24.9880   32.8380 O   0  0  0  0  0  0  0  0  0  0  0  0
   40.9650   26.1300   33.8840 O   0  0  0  0  0  0  0  0  0  0  0  0
   41.6270   26.7070   34.3670 H   0  0  0  0  0  0  0  0  0  0  0  0
  1  7  1  0  0  0  0
  2  3  2  0  0  0  0
  2  1  1  0  0  0  0
  3  4  1  0  0  0  0
  4  5  2  0  0  0  0
  4  6  1  0  0  0  0
  6 24  1  0  0  0  0
  7  6  1  0  0  0  0
  7  8  2  0  0  0  0
  9  2  1  0  0  0  0
 10  3  1  0  0  0  0
 11 21  1  0  0  0  0
 12  1  1  0  0  0  0
 12 11  2  0  0  0  0
 13 14  2  0  0  0  0
 13 12  1  0  0  0  0
 14 15  1  0  0  0  0
 15 18  1  0  0  0  0
 15 16  2  0  0  0  0
 16 11  1  0  0  0  0
 17 13  1  0  0  0  0
 19 22  1  0  0  0  0
 20 19  2  0  0  0  0
 21 23  1  0  0  0  0
 21 19  1  0  0  0  0
 24 25  1  0  0  0  0
 25 26  2  0  0  0  0
 25 34  1  0  0  0  0
 26 27  1  0  0  0  0
 27 28  1  0  0  0  0
 27 32  1  0  0  0  0
 28 29  2  0  0  0  0
 28 30  1  0  0  0  0
 31 30  1  0  0  0  0
 32 33  1  6  0  0  0
 32 30  1  0  0  0  0
 34 33  1  0  0  0  0
 35 34  1  0  0  0  0
 36 38  1  0  0  0  0
 36 26  1  0  0  0  0
 37 36  2  0  0  0  0
 38 39  1  0  0  0  0
M  END
>  <minimizedAffinity>
-5.34979153

$$$$
