
 OpenBabel03272503293D

 41 44  0  0  1  0  0  0  0  0999 V2000
   35.3340   29.5840   47.9560 C   0  0  0  0  0  0  0  0  0  0  0  0
   35.2620   30.0140   46.6180 C   0  0  0  0  0  0  0  0  0  0  0  0
   34.1090   29.6730   45.9050 C   0  0  0  0  0  0  0  0  0  0  0  0
   33.1470   28.9540   46.5600 N   0  0  0  0  0  0  0  0  0  0  0  0
   33.2530   28.5650   47.8300 C   0  0  0  0  0  0  0  0  0  0  0  0
   34.3550   28.8810   48.5410 N   0  0  0  0  0  0  0  0  0  0  0  0
   36.0140   30.5720   46.1190 H   0  0  0  0  0  0  0  0  0  0  0  0
   33.9790   29.9670   44.8710 H   0  0  0  0  0  0  0  0  0  0  0  0
   36.5240   29.9410   48.6730 N   0  0  0  0  0  0  0  0  0  0  0  0
   37.6210   30.7280   48.2150 C   0  0  0  0  0  0  0  0  0  0  0  0
   38.1640   31.3510   49.4900 C   0  0  2  0  0  0  0  0  0  0  0  0
   37.2080   30.9210   50.5960 C   0  0  0  0  0  0  0  0  0  0  0  0
   36.8390   29.5560   50.0370 C   0  0  0  0  0  0  0  0  0  0  0  0
   37.3250   31.5170   47.5030 H   0  0  0  0  0  0  0  0  0  0  0  0
   38.3840   30.0360   47.7920 H   0  0  0  0  0  0  0  0  0  0  0  0
   39.1660   30.9150   49.7520 H   0  0  0  0  0  0  0  0  0  0  0  0
   36.3110   31.5560   50.6270 H   0  0  0  0  0  0  0  0  0  0  0  0
   37.7330   30.8350   51.5670 H   0  0  0  0  0  0  0  0  0  0  0  0
   35.9630   29.1800   50.5720 H   0  0  0  0  0  0  0  0  0  0  0  0
   37.6960   28.8790   50.0870 H   0  0  0  0  0  0  0  0  0  0  0  0
   38.3120   32.8290   49.4020 C   0  0  0  0  0  0  0  0  0  0  0  0
   37.1210   33.3800   49.8730 F   0  0  0  0  0  0  0  0  0  0  0  0
   38.3560   33.1630   48.0600 F   0  0  0  0  0  0  0  0  0  0  0  0
   39.4060   33.3200   50.0450 F   0  0  0  0  0  0  0  0  0  0  0  0
   31.9750   27.6280   48.6430 S   0  0  0  0  0  0  0  0  0  0  0  0
   30.6160   27.4240   47.4350 C   0  0  0  0  0  2  0  0  0  0  0  0
   30.5690   26.0700   46.8990 C   0  0  0  0  0  0  0  0  0  0  0  0
   29.7250   25.3840   46.1490 C   0  0  0  0  0  0  0  0  0  0  0  0
   29.9040   24.0520   45.7310 N   0  0  0  0  0  0  0  0  0  0  0  0
   29.4010   22.7240   45.6280 C   0  0  0  0  0  0  0  0  0  0  0  0
   28.2140   22.2650   45.5590 O   0  0  0  0  0  0  0  0  0  0  0  0
   30.8420   22.2840   45.6470 C   0  0  0  0  0  3  0  0  0  0  0  0
   31.2080   22.1330   46.6660 H   0  0  0  0  0  0  0  0  0  0  0  0
   31.1500   23.6410   45.0530 C   0  0  2  0  0  3  0  0  0  0  0  0
   32.5160   24.5380   45.8510 S   0  0  0  0  0  0  0  0  0  0  0  0
   31.7550   25.3150   47.3360 C   0  0  0  0  0  3  0  0  0  0  0  0
   31.4330   24.4490   47.9590 H   0  0  0  0  0  0  0  0  0  0  0  0
   28.5090   26.1080   45.7160 C   0  0  0  0  0  0  0  0  0  0  0  0
   27.7760   26.0960   44.7210 O   0  0  0  0  0  0  0  0  0  0  0  0
   27.5450   27.0390   45.9530 O   0  0  0  0  0  0  0  0  0  0  0  0
   27.7320   28.0230   46.0800 H   0  0  0  0  0  0  0  0  0  0  0  0
  1  6  1  0  0  0  0
  1  9  1  0  0  0  0
  2  1  2  0  0  0  0
  3  4  2  0  0  0  0
  3  2  1  0  0  0  0
  4  5  1  0  0  0  0
  5  6  2  0  0  0  0
  5 25  1  0  0  0  0
  7  2  1  0  0  0  0
  8  3  1  0  0  0  0
  9 13  1  0  0  0  0
 10  9  1  0  0  0  0
 10 11  1  0  0  0  0
 11 16  1  1  0  0  0
 11 12  1  0  0  0  0
 12 17  1  0  0  0  0
 12 18  1  0  0  0  0
 13 20  1  0  0  0  0
 13 19  1  0  0  0  0
 13 12  1  0  0  0  0
 14 10  1  0  0  0  0
 15 10  1  0  0  0  0
 21 11  1  0  0  0  0
 21 22  1  0  0  0  0
 21 24  1  0  0  0  0
 23 21  1  0  0  0  0
 26 25  1  0  0  0  0
 27 36  1  0  0  0  0
 27 26  1  0  0  0  0
 28 27  2  0  0  0  0
 29 28  1  0  0  0  0
 30 32  1  0  0  0  0
 30 29  1  0  0  0  0
 31 30  2  0  0  0  0
 32 33  1  0  0  0  0
 34 32  1  1  0  0  0
 34 29  1  0  0  0  0
 34 35  1  0  0  0  0
 35 36  1  0  0  0  0
 36 37  1  0  0  0  0
 38 40  1  0  0  0  0
 38 28  1  0  0  0  0
 39 38  2  0  0  0  0
 40 41  1  0  0  0  0
M  END
>  <minimizedAffinity>
-5.90455532

>  <minimizedRMSD>
1.78820026

$$$$
