
 OpenBabel03272503293D

 41 44  0  0  1  0  0  0  0  0999 V2000
   35.2750   29.5510   47.8900 C   0  0  0  0  0  0  0  0  0  0  0  0
   35.2470   30.0110   46.5600 C   0  0  0  0  0  0  0  0  0  0  0  0
   34.1200   29.6880   45.8010 C   0  0  0  0  0  0  0  0  0  0  0  0
   33.1360   28.9540   46.4060 N   0  0  0  0  0  0  0  0  0  0  0  0
   33.1990   28.5350   47.6690 C   0  0  0  0  0  0  0  0  0  0  0  0
   34.2770   28.8340   48.4250 N   0  0  0  0  0  0  0  0  0  0  0  0
   36.0150   30.5810   46.1000 H   0  0  0  0  0  0  0  0  0  0  0  0
   34.0240   30.0050   44.7700 H   0  0  0  0  0  0  0  0  0  0  0  0
   36.4390   29.8910   48.6540 N   0  0  0  0  0  0  0  0  0  0  0  0
   37.5760   30.6440   48.2340 C   0  0  0  0  0  0  0  0  0  0  0  0
   38.0760   31.2750   49.5220 C   0  0  2  0  0  0  0  0  0  0  0  0
   37.0600   30.8860   50.5900 C   0  0  0  0  0  0  0  0  0  0  0  0
   36.6830   29.5210   50.0360 C   0  0  0  0  0  0  0  0  0  0  0  0
   37.3310   31.4280   47.4970 H   0  0  0  0  0  0  0  0  0  0  0  0
   38.3390   29.9270   47.8570 H   0  0  0  0  0  0  0  0  0  0  0  0
   39.0540   30.8190   49.8360 H   0  0  0  0  0  0  0  0  0  0  0  0
   36.1780   31.5430   50.5710 H   0  0  0  0  0  0  0  0  0  0  0  0
   37.5390   30.8040   51.5850 H   0  0  0  0  0  0  0  0  0  0  0  0
   35.7750   29.1750   50.5370 H   0  0  0  0  0  0  0  0  0  0  0  0
   37.5200   28.8250   50.1370 H   0  0  0  0  0  0  0  0  0  0  0  0
   38.2640   32.7470   49.4190 C   0  0  0  0  0  0  0  0  0  0  0  0
   37.0930   33.3360   49.8960 F   0  0  0  0  0  0  0  0  0  0  0  0
   38.3040   33.0670   48.0730 F   0  0  0  0  0  0  0  0  0  0  0  0
   39.3770   33.2130   50.0460 F   0  0  0  0  0  0  0  0  0  0  0  0
   31.8960   27.5790   48.4170 S   0  0  0  0  0  0  0  0  0  0  0  0
   30.3440   28.0400   47.5660 C   0  0  0  0  0  2  0  0  0  0  0  0
   29.2060   28.0350   48.4750 C   0  0  0  0  0  0  0  0  0  0  0  0
   27.8970   27.9040   48.3430 C   0  0  0  0  0  0  0  0  0  0  0  0
   26.9680   27.9160   49.4000 N   0  0  0  0  0  0  0  0  0  0  0  0
   25.7770   28.4440   49.9750 C   0  0  0  0  0  0  0  0  0  0  0  0
   24.7330   28.9540   49.4550 O   0  0  0  0  0  0  0  0  0  0  0  0
   26.3880   28.0960   51.3090 C   0  0  0  0  0  3  0  0  0  0  0  0
   27.0090   28.9090   51.6950 H   0  0  0  0  0  0  0  0  0  0  0  0
   27.1410   27.0180   50.5590 C   0  0  2  0  0  3  0  0  0  0  0  0
   28.9230   26.9360   50.9120 S   0  0  0  0  0  0  0  0  0  0  0  0
   29.6660   28.2490   49.8570 C   0  0  0  0  0  3  0  0  0  0  0  0
   29.2270   29.1940   50.2490 H   0  0  0  0  0  0  0  0  0  0  0  0
   27.4010   27.7150   46.9620 C   0  0  0  0  0  0  0  0  0  0  0  0
   26.4770   28.1720   46.2800 O   0  0  0  0  0  0  0  0  0  0  0  0
   27.5020   27.1110   45.7460 O   0  0  0  0  0  0  0  0  0  0  0  0
   27.4130   26.1160   45.6010 H   0  0  0  0  0  0  0  0  0  0  0  0
  1  6  1  0  0  0  0
  1  9  1  0  0  0  0
  2  1  2  0  0  0  0
  3  4  2  0  0  0  0
  3  2  1  0  0  0  0
  4  5  1  0  0  0  0
  5 25  1  0  0  0  0
  5  6  2  0  0  0  0
  7  2  1  0  0  0  0
  8  3  1  0  0  0  0
  9 13  1  0  0  0  0
 10  9  1  0  0  0  0
 10 11  1  0  0  0  0
 11 16  1  1  0  0  0
 11 12  1  0  0  0  0
 12 18  1  0  0  0  0
 13 20  1  0  0  0  0
 13 19  1  0  0  0  0
 13 12  1  0  0  0  0
 14 10  1  0  0  0  0
 15 10  1  0  0  0  0
 17 12  1  0  0  0  0
 21 11  1  0  0  0  0
 21 22  1  0  0  0  0
 21 24  1  0  0  0  0
 23 21  1  0  0  0  0
 26 25  1  0  0  0  0
 26 27  1  0  0  0  0
 27 36  1  0  0  0  0
 28 27  2  0  0  0  0
 28 29  1  0  0  0  0
 29 30  1  0  0  0  0
 29 34  1  0  0  0  0
 30 32  1  0  0  0  0
 31 30  2  0  0  0  0
 32 33  1  0  0  0  0
 34 35  1  1  0  0  0
 34 32  1  0  0  0  0
 36 37  1  0  0  0  0
 36 35  1  0  0  0  0
 38 28  1  0  0  0  0
 39 38  2  0  0  0  0
 40 38  1  0  0  0  0
 41 40  1  0  0  0  0
M  END
>  <minimizedAffinity>
-7.39412832

>  <minimizedRMSD>
1.89313424

$$$$
