
 OpenBabel03272503293D

 41 44  0  0  1  0  0  0  0  0999 V2000
   34.8990   29.4020   47.9440 C   0  0  0  0  0  0  0  0  0  0  0  0
   34.7410   30.0440   46.7010 C   0  0  0  0  0  0  0  0  0  0  0  0
   33.5660   29.7770   45.9950 C   0  0  0  0  0  0  0  0  0  0  0  0
   32.6650   28.9190   46.5630 N   0  0  0  0  0  0  0  0  0  0  0  0
   32.8500   28.3290   47.7430 C   0  0  0  0  0  0  0  0  0  0  0  0
   33.9770   28.5700   48.4470 N   0  0  0  0  0  0  0  0  0  0  0  0
   35.4470   30.7090   46.2690 H   0  0  0  0  0  0  0  0  0  0  0  0
   33.3720   30.2330   45.0320 H   0  0  0  0  0  0  0  0  0  0  0  0
   36.1110   29.6860   48.6550 N   0  0  0  0  0  0  0  0  0  0  0  0
   37.2460   30.4180   48.1980 C   0  0  0  0  0  0  0  0  0  0  0  0
   37.8310   30.9950   49.4750 C   0  0  2  0  0  0  0  0  0  0  0  0
   36.8610   30.6030   50.5840 C   0  0  0  0  0  0  0  0  0  0  0  0
   36.4150   29.2670   50.0120 C   0  0  0  0  0  0  0  0  0  0  0  0
   36.9870   31.2300   47.4980 H   0  0  0  0  0  0  0  0  0  0  0  0
   37.9670   29.6910   47.7610 H   0  0  0  0  0  0  0  0  0  0  0  0
   38.8100   30.5030   49.7240 H   0  0  0  0  0  0  0  0  0  0  0  0
   35.9990   31.2860   50.6300 H   0  0  0  0  0  0  0  0  0  0  0  0
   37.3880   30.4770   51.5490 H   0  0  0  0  0  0  0  0  0  0  0  0
   35.5240   28.9320   50.5500 H   0  0  0  0  0  0  0  0  0  0  0  0
   37.2340   28.5440   50.0470 H   0  0  0  0  0  0  0  0  0  0  0  0
   38.0570   32.4640   49.4040 C   0  0  0  0  0  0  0  0  0  0  0  0
   36.9400   33.0700   49.9780 F   0  0  0  0  0  0  0  0  0  0  0  0
   38.0170   32.8260   48.0690 F   0  0  0  0  0  0  0  0  0  0  0  0
   39.2240   32.8770   49.9680 F   0  0  0  0  0  0  0  0  0  0  0  0
   31.6490   27.2170   48.4450 S   0  0  0  0  0  0  0  0  0  0  0  0
   30.0070   27.9830   48.1990 C   0  0  0  0  0  2  0  0  0  0  0  0
   29.3870   27.5460   46.9550 C   0  0  0  0  0  0  0  0  0  0  0  0
   28.4950   28.0500   46.1210 C   0  0  0  0  0  0  0  0  0  0  0  0
   28.0480   27.4350   44.9360 N   0  0  0  0  0  0  0  0  0  0  0  0
   26.9700   26.9840   44.1240 C   0  0  0  0  0  0  0  0  0  0  0  0
   25.7640   27.3790   44.0110 O   0  0  0  0  0  0  0  0  0  0  0  0
   27.9360   25.9590   43.5850 C   0  0  0  0  0  3  0  0  0  0  0  0
   27.9430   25.0500   44.1910 H   0  0  0  0  0  0  0  0  0  0  0  0
   29.0180   26.9610   43.9280 C   0  0  2  0  0  3  0  0  0  0  0  0
   30.4410   26.2780   44.8310 S   0  0  0  0  0  0  0  0  0  0  0  0
   29.8890   26.2120   46.5850 C   0  0  0  0  0  3  0  0  0  0  0  0
   29.0420   25.4890   46.5760 H   0  0  0  0  0  0  0  0  0  0  0  0
   27.9520   29.3790   46.4790 C   0  0  0  0  0  0  0  0  0  0  0  0
   28.1690   30.5480   46.1390 O   0  0  0  0  0  0  0  0  0  0  0  0
   27.0900   30.1440   47.2050 O   0  0  0  0  0  0  0  0  0  0  0  0
   27.1000   30.2000   48.2120 H   0  0  0  0  0  0  0  0  0  0  0  0
  1  6  1  0  0  0  0
  1  9  1  0  0  0  0
  2  1  2  0  0  0  0
  3  4  2  0  0  0  0
  3  2  1  0  0  0  0
  4  5  1  0  0  0  0
  5 25  1  0  0  0  0
  5  6  2  0  0  0  0
  7  2  1  0  0  0  0
  8  3  1  0  0  0  0
  9 13  1  0  0  0  0
 10  9  1  0  0  0  0
 10 11  1  0  0  0  0
 11 16  1  1  0  0  0
 11 12  1  0  0  0  0
 12 17  1  0  0  0  0
 12 18  1  0  0  0  0
 13 20  1  0  0  0  0
 13 19  1  0  0  0  0
 13 12  1  0  0  0  0
 14 10  1  0  0  0  0
 15 10  1  0  0  0  0
 21 11  1  0  0  0  0
 21 24  1  0  0  0  0
 21 22  1  0  0  0  0
 23 21  1  0  0  0  0
 26 25  1  0  0  0  0
 27 26  1  0  0  0  0
 28 38  1  0  0  0  0
 28 27  2  0  0  0  0
 29 28  1  0  0  0  0
 30 29  1  0  0  0  0
 31 30  2  0  0  0  0
 32 30  1  0  0  0  0
 32 33  1  0  0  0  0
 34 32  1  1  0  0  0
 34 35  1  0  0  0  0
 34 29  1  0  0  0  0
 35 36  1  0  0  0  0
 36 27  1  0  0  0  0
 37 36  1  0  0  0  0
 38 40  1  0  0  0  0
 39 38  2  0  0  0  0
 40 41  1  0  0  0  0
M  END
>  <minimizedAffinity>
-5.91494131

>  <minimizedRMSD>
2.96448374

$$$$
