
 OpenBabel03272503293D

 41 44  0  0  1  0  0  0  0  0999 V2000
   35.1730   29.3670   48.0930 C   0  0  0  0  0  0  0  0  0  0  0  0
   34.6140   30.3510   47.2570 C   0  0  0  0  0  0  0  0  0  0  0  0
   33.4300   30.0210   46.5920 C   0  0  0  0  0  0  0  0  0  0  0  0
   32.9100   28.7740   46.8050 N   0  0  0  0  0  0  0  0  0  0  0  0
   33.4690   27.8670   47.6050 C   0  0  0  0  0  0  0  0  0  0  0  0
   34.6130   28.1610   48.2590 N   0  0  0  0  0  0  0  0  0  0  0  0
   35.0260   31.3170   47.0980 H   0  0  0  0  0  0  0  0  0  0  0  0
   32.9400   30.7250   45.9320 H   0  0  0  0  0  0  0  0  0  0  0  0
   36.3880   29.7220   48.7660 N   0  0  0  0  0  0  0  0  0  0  0  0
   37.4700   30.5060   48.2680 C   0  0  0  0  0  0  0  0  0  0  0  0
   38.0600   31.1290   49.5220 C   0  0  2  0  0  0  0  0  0  0  0  0
   37.1420   30.7020   50.6620 C   0  0  0  0  0  0  0  0  0  0  0  0
   36.7510   29.3370   50.1180 C   0  0  0  0  0  0  0  0  0  0  0  0
   37.1500   31.2950   47.5660 H   0  0  0  0  0  0  0  0  0  0  0  0
   38.2160   29.8120   47.8190 H   0  0  0  0  0  0  0  0  0  0  0  0
   39.0690   30.6910   49.7490 H   0  0  0  0  0  0  0  0  0  0  0  0
   36.2480   31.3390   50.7250 H   0  0  0  0  0  0  0  0  0  0  0  0
   37.7020   30.6150   51.6140 H   0  0  0  0  0  0  0  0  0  0  0  0
   35.8940   28.9630   50.6850 H   0  0  0  0  0  0  0  0  0  0  0  0
   37.6070   28.6580   50.1390 H   0  0  0  0  0  0  0  0  0  0  0  0
   38.2070   32.6070   49.4280 C   0  0  0  0  0  0  0  0  0  0  0  0
   37.0300   33.1600   49.9290 F   0  0  0  0  0  0  0  0  0  0  0  0
   38.2160   32.9380   48.0840 F   0  0  0  0  0  0  0  0  0  0  0  0
   39.3180   33.0970   50.0400 F   0  0  0  0  0  0  0  0  0  0  0  0
   32.7570   26.2540   47.8530 S   0  0  0  0  0  0  0  0  0  0  0  0
   31.0420   26.5130   48.4340 C   0  0  0  0  0  2  0  0  0  0  0  0
   30.1290   26.7700   47.3280 C   0  0  0  0  0  0  0  0  0  0  0  0
   29.1700   27.6450   47.0840 C   0  0  0  0  0  0  0  0  0  0  0  0
   28.4110   27.7120   45.9000 N   0  0  0  0  0  0  0  0  0  0  0  0
   27.1390   27.7530   45.2640 C   0  0  0  0  0  0  0  0  0  0  0  0
   26.0040   28.1800   45.6540 O   0  0  0  0  0  0  0  0  0  0  0  0
   27.8200   27.1110   44.0830 C   0  0  0  0  0  3  0  0  0  0  0  0
   27.8190   26.0210   44.1560 H   0  0  0  0  0  0  0  0  0  0  0  0
   29.0800   27.7820   44.5860 C   0  0  2  0  0  3  0  0  0  0  0  0
   30.5440   26.7070   44.6710 S   0  0  0  0  0  0  0  0  0  0  0  0
   30.3520   25.7860   46.2550 C   0  0  0  0  0  3  0  0  0  0  0  0
   29.4270   25.1850   46.1080 H   0  0  0  0  0  0  0  0  0  0  0  0
   28.9030   28.6290   48.1560 C   0  0  0  0  0  0  0  0  0  0  0  0
   28.1910   29.6330   48.2820 O   0  0  0  0  0  0  0  0  0  0  0  0
   29.1260   29.0880   49.4180 O   0  0  0  0  0  0  0  0  0  0  0  0
   30.0240   29.4100   49.7480 H   0  0  0  0  0  0  0  0  0  0  0  0
  1  6  1  0  0  0  0
  1  9  1  0  0  0  0
  2  1  2  0  0  0  0
  3  4  2  0  0  0  0
  3  2  1  0  0  0  0
  4  5  1  0  0  0  0
  5 25  1  0  0  0  0
  5  6  2  0  0  0  0
  7  2  1  0  0  0  0
  8  3  1  0  0  0  0
  9 13  1  0  0  0  0
 10  9  1  0  0  0  0
 10 11  1  0  0  0  0
 11 16  1  1  0  0  0
 11 12  1  0  0  0  0
 12 17  1  0  0  0  0
 12 18  1  0  0  0  0
 13 20  1  0  0  0  0
 13 12  1  0  0  0  0
 13 19  1  0  0  0  0
 14 10  1  0  0  0  0
 15 10  1  0  0  0  0
 21 11  1  0  0  0  0
 21 22  1  0  0  0  0
 21 24  1  0  0  0  0
 23 21  1  0  0  0  0
 25 26  1  0  0  0  0
 27 26  1  0  0  0  0
 28 27  2  0  0  0  0
 28 38  1  0  0  0  0
 29 28  1  0  0  0  0
 30 31  2  0  0  0  0
 30 29  1  0  0  0  0
 32 33  1  0  0  0  0
 32 30  1  0  0  0  0
 34 32  1  6  0  0  0
 34 35  1  0  0  0  0
 34 29  1  0  0  0  0
 35 36  1  0  0  0  0
 36 27  1  0  0  0  0
 37 36  1  0  0  0  0
 38 39  2  0  0  0  0
 38 40  1  0  0  0  0
 40 41  1  0  0  0  0
M  END
>  <minimizedAffinity>
-6.49548674

>  <minimizedRMSD>
3.30051351

$$$$
