
 OpenBabel03272507523D

 39 42  0  0  1  0  0  0  0  0999 V2000
   36.6790   31.2300   48.7050 N   0  0  0  0  0  0  0  0  0  0  0  0
   36.7870   32.3110   49.4860 C   0  0  0  0  0  0  0  0  0  0  0  0
   37.8900   33.1560   49.3200 C   0  0  0  0  0  0  0  0  0  0  0  0
   38.7660   32.7740   48.3460 C   0  0  0  0  0  0  0  0  0  0  0  0
   39.7460   33.5810   48.2420 O   0  0  0  0  0  0  0  0  0  0  0  0
   38.6840   31.6940   47.5440 N   0  0  0  0  0  0  0  0  0  0  0  0
   37.6010   30.9230   47.7570 C   0  0  0  0  0  0  0  0  0  0  0  0
   37.5010   29.8990   47.0180 O   0  0  0  0  0  0  0  0  0  0  0  0
   36.0020   32.4670   50.2110 H   0  0  0  0  0  0  0  0  0  0  0  0
   37.9740   34.0110   49.9390 H   0  0  0  0  0  0  0  0  0  0  0  0
   35.4040   29.6610   50.0650 C   0  0  0  0  0  0  0  0  0  0  0  0
   35.5840   30.3220   48.8180 C   0  0  0  0  0  0  0  0  0  0  0  0
   34.6780   30.0360   47.7840 C   0  0  0  0  0  0  0  0  0  0  0  0
   33.6840   29.1480   48.0240 N   0  0  0  0  0  0  0  0  0  0  0  0
   33.5260   28.5370   49.1850 C   0  0  0  0  0  0  0  0  0  0  0  0
   34.3780   28.7900   50.1960 N   0  0  0  0  0  0  0  0  0  0  0  0
   34.8370   30.5490   46.8570 H   0  0  0  0  0  0  0  0  0  0  0  0
   32.7360   27.8220   49.3980 H   0  0  0  0  0  0  0  0  0  0  0  0
   37.5040   29.3180   51.5660 C   0  0  0  0  0  0  0  0  0  0  0  0
   38.1220   28.5170   50.8360 O   0  0  0  0  0  0  0  0  0  0  0  0
   36.2360   29.8740   51.1840 N   0  0  0  0  0  0  0  0  0  0  0  0
   37.9930   29.5540   52.4940 H   0  0  0  0  0  0  0  0  0  0  0  0
   35.9150   30.5710   51.9110 H   0  0  0  0  0  0  0  0  0  0  0  0
   39.7430   31.4500   46.5750 C   0  0  0  0  0  2  0  0  0  0  0  0
   39.3240   31.2990   45.2000 C   0  0  0  0  0  0  0  0  0  0  0  0
   39.4120   32.3030   44.3100 C   0  0  0  0  0  0  0  0  0  0  0  0
   39.0040   32.0870   42.9410 N   0  0  0  0  0  0  0  0  0  0  0  0
   38.1460   32.5840   41.8890 C   0  0  0  0  0  0  0  0  0  0  0  0
   37.5840   33.6830   41.6020 O   0  0  0  0  0  0  0  0  0  0  0  0
   38.2470   31.1940   41.3170 C   0  0  0  0  0  3  0  0  0  0  0  0
   37.4180   30.5240   41.5710 H   0  0  0  0  0  0  0  0  0  0  0  0
   39.5380   31.0040   42.0870 C   0  0  2  0  0  3  0  0  0  0  0  0
   39.6410   29.5610   43.1410 S   0  0  0  0  0  0  0  0  0  0  0  0
   38.7590   30.0550   44.6790 C   0  0  0  0  0  3  0  0  0  0  0  0
   38.7040   29.2100   45.3380 H   0  0  0  0  0  0  0  0  0  0  0  0
   39.9410   33.6400   44.6670 C   0  0  0  0  0  0  0  0  0  0  0  0
   40.2970   34.2980   45.6500 O   0  0  0  0  0  0  0  0  0  0  0  0
   40.2260   34.6910   43.8300 O   0  0  0  0  0  0  0  0  0  0  0  0
   39.7370   35.5640   43.7750 H   0  0  0  0  0  0  0  0  0  0  0  0
  1 12  1  0  0  0  0
  1  2  1  0  0  0  0
  2  9  1  0  0  0  0
  3  2  2  0  0  0  0
  3 10  1  0  0  0  0
  4  3  1  0  0  0  0
  5  4  2  0  0  0  0
  6  7  1  0  0  0  0
  6  4  1  0  0  0  0
  7  1  1  0  0  0  0
  8  7  2  0  0  0  0
 11 16  1  0  0  0  0
 11 21  1  0  0  0  0
 12 11  2  0  0  0  0
 13 14  2  0  0  0  0
 13 12  1  0  0  0  0
 14 15  1  0  0  0  0
 15 18  1  0  0  0  0
 15 16  2  0  0  0  0
 17 13  1  0  0  0  0
 19 22  1  0  0  0  0
 20 19  2  0  0  0  0
 21 19  1  0  0  0  0
 21 23  1  0  0  0  0
 24  6  1  0  0  0  0
 25 24  1  0  0  0  0
 26 36  1  0  0  0  0
 26 25  2  0  0  0  0
 27 26  1  0  0  0  0
 28 27  1  0  0  0  0
 29 28  2  0  0  0  0
 30 31  1  0  0  0  0
 30 28  1  0  0  0  0
 32 30  1  6  0  0  0
 32 27  1  0  0  0  0
 32 33  1  0  0  0  0
 33 34  1  0  0  0  0
 34 25  1  0  0  0  0
 34 35  1  0  0  0  0
 36 37  2  0  0  0  0
 38 36  1  0  0  0  0
 39 38  1  0  0  0  0
M  END
>  <minimizedAffinity>
-5.48363495

>  <minimizedRMSD>
1.16207552

$$$$
