
 OpenBabel03272502263D

 47 51  0  0  1  0  0  0  0  0999 V2000
   32.2000   27.7070   44.9700 N   0  0  0  0  0  0  0  0  0  0  0  0
   32.8980   27.8400   46.1210 C   0  0  0  0  0  0  0  0  0  0  0  0
   33.0080   29.1020   46.6910 C   0  0  0  0  0  0  0  0  0  0  0  0
   32.4060   30.1820   46.0690 C   0  0  0  0  0  0  0  0  0  0  0  0
   32.3860   31.3890   46.4230 O   0  0  0  0  0  0  0  0  0  0  0  0
   31.7210   30.0100   44.9200 N   0  0  0  0  0  0  0  0  0  0  0  0
   31.6110   28.7660   44.3610 C   0  0  0  0  0  0  0  0  0  0  0  0
   30.9910   28.5160   43.2970 O   0  0  0  0  0  0  0  0  0  0  0  0
   32.1410   26.7430   44.5760 H   0  0  0  0  0  0  0  0  0  0  0  0
   33.3900   27.0490   46.6580 H   0  0  0  0  0  0  0  0  0  0  0  0
   33.6710   29.4440   47.8540 O   0  0  0  0  0  0  0  0  0  0  0  0
   36.8080   31.0700   48.6660 C   0  0  0  0  0  0  0  0  0  0  0  0
   37.4210   31.1240   47.4080 C   0  0  0  0  0  0  0  0  0  0  0  0
   36.7250   30.5980   46.3440 C   0  0  0  0  0  0  0  0  0  0  0  0
   35.5160   30.0720   46.5730 N   0  0  0  0  0  0  0  0  0  0  0  0
   34.9350   30.0240   47.7780 C   0  0  0  0  0  0  0  0  0  0  0  0
   35.5900   30.5290   48.8320 N   0  0  0  0  0  0  0  0  0  0  0  0
   37.3770   31.4870   49.4670 H   0  0  0  0  0  0  0  0  0  0  0  0
   38.3890   31.5490   47.2460 H   0  0  0  0  0  0  0  0  0  0  0  0
   37.2390   30.5980   44.9820 C   0  0  0  0  0  0  0  0  0  0  0  0
   36.4230   30.2360   43.9100 C   0  0  0  0  0  0  0  0  0  0  0  0
   36.8630   30.2280   42.6100 C   0  0  0  0  0  0  0  0  0  0  0  0
   38.1450   30.5830   42.3460 N   0  0  0  0  0  0  0  0  0  0  0  0
   38.9120   30.9270   43.3870 C   0  0  0  0  0  0  0  0  0  0  0  0
   38.5050   30.9440   44.6710 N   0  0  0  0  0  0  0  0  0  0  0  0
   35.3980   29.9440   44.0540 H   0  0  0  0  0  0  0  0  0  0  0  0
   36.2240   29.9460   41.7830 H   0  0  0  0  0  0  0  0  0  0  0  0
   40.3210   31.3230   43.1280 C   0  0  0  0  0  0  0  0  0  0  0  0
   40.6290   32.3850   44.0100 F   0  0  0  0  0  0  0  0  0  0  0  0
   41.1770   30.2790   43.3040 F   0  0  0  0  0  0  0  0  0  0  0  0
   40.4790   31.8560   41.8590 F   0  0  0  0  0  0  0  0  0  0  0  0
   31.1020   31.0670   44.1540 C   0  0  0  0  0  2  0  0  0  0  0  0
   31.9160   32.0710   43.5360 C   0  0  0  0  0  0  0  0  0  0  0  0
   32.8710   32.0790   42.6080 C   0  0  0  0  0  0  0  0  0  0  0  0
   33.4950   33.3030   42.1760 N   0  0  0  0  0  0  0  0  0  0  0  0
   34.7620   33.9320   41.9860 C   0  0  0  0  0  0  0  0  0  0  0  0
   35.9430   33.5390   41.7780 O   0  0  0  0  0  0  0  0  0  0  0  0
   34.0000   35.2310   42.1520 C   0  0  0  0  0  3  0  0  0  0  0  0
   33.9770   35.6260   43.1700 H   0  0  0  0  0  0  0  0  0  0  0  0
   32.7530   34.5010   41.7040 C   0  0  2  0  0  3  0  0  0  0  0  0
   31.3160   34.6210   42.7800 S   0  0  0  0  0  0  0  0  0  0  0  0
   31.6040   33.4050   44.1210 C   0  0  0  0  0  3  0  0  0  0  0  0
   30.7940   33.4300   44.8470 H   0  0  0  0  0  0  0  0  0  0  0  0
   33.2250   30.7810   42.0470 C   0  0  0  0  0  0  0  0  0  0  0  0
   33.7050   30.7790   40.8890 O   0  0  0  0  0  0  0  0  0  0  0  0
   33.5570   29.5740   41.5180 O   0  0  0  0  0  0  0  0  0  0  0  0
   33.9040   28.8260   42.1010 H   0  0  0  0  0  0  0  0  0  0  0  0
  1  2  1  0  0  0  0
  2 10  1  0  0  0  0
  2  3  2  0  0  0  0
  3 11  1  0  0  0  0
  4  5  2  0  0  0  0
  4  3  1  0  0  0  0
  6  4  1  0  0  0  0
  7  6  1  0  0  0  0
  7  1  1  0  0  0  0
  8  7  2  0  0  0  0
  9  1  1  0  0  0  0
 12 17  1  0  0  0  0
 12 18  1  0  0  0  0
 13 12  2  0  0  0  0
 14 15  2  0  0  0  0
 14 13  1  0  0  0  0
 15 16  1  0  0  0  0
 16 11  1  0  0  0  0
 16 17  2  0  0  0  0
 19 13  1  0  0  0  0
 20 14  1  0  0  0  0
 21 26  1  0  0  0  0
 21 20  2  0  0  0  0
 22 21  1  0  0  0  0
 23 22  2  0  0  0  0
 23 24  1  0  0  0  0
 24 25  2  0  0  0  0
 25 20  1  0  0  0  0
 27 22  1  0  0  0  0
 28 30  1  0  0  0  0
 28 24  1  0  0  0  0
 28 29  1  0  0  0  0
 31 28  1  0  0  0  0
 32  6  1  0  0  0  0
 33 42  1  0  0  0  0
 33 32  1  0  0  0  0
 34 33  2  0  0  0  0
 35 34  1  0  0  0  0
 36 38  1  0  0  0  0
 36 35  1  0  0  0  0
 37 36  2  0  0  0  0
 38 39  1  0  0  0  0
 40 38  1  1  0  0  0
 40 35  1  0  0  0  0
 40 41  1  0  0  0  0
 41 42  1  0  0  0  0
 42 43  1  0  0  0  0
 44 34  1  0  0  0  0
 45 44  2  0  0  0  0
 46 44  1  0  0  0  0
 46 47  1  0  0  0  0
M  END
>  <minimizedAffinity>
-5.28254366

>  <minimizedRMSD>
3.00645041

$$$$
