
 OpenBabel03262522153D

 52 56  0  0  1  0  0  0  0  0999 V2000
   38.9950   29.5080   42.4330 C   0  0  1  0  0  0  0  0  0  0  0  0
   38.7510   30.9620   42.0670 C   0  0  0  0  0  0  0  0  0  0  0  0
   39.8920   31.6460   42.7670 C   0  0  2  0  0  0  0  0  0  0  0  0
   40.5270   30.7160   43.5550 O   0  0  0  0  0  0  0  0  0  0  0  0
   39.6380   29.6720   43.7890 C   0  0  0  0  0  0  0  0  0  0  0  0
   39.6630   29.0270   41.7090 H   0  0  0  0  0  0  0  0  0  0  0  0
   37.7490   31.3080   42.4110 H   0  0  0  0  0  0  0  0  0  0  0  0
   38.7860   31.0220   40.9670 H   0  0  0  0  0  0  0  0  0  0  0  0
   40.5470   32.0490   41.9600 H   0  0  0  0  0  0  0  0  0  0  0  0
   38.8720   29.9530   44.5130 H   0  0  0  0  0  0  0  0  0  0  0  0
   40.2050   28.7590   44.0680 H   0  0  0  0  0  0  0  0  0  0  0  0
   39.4210   32.8460   43.5540 C   0  0  0  0  0  0  0  0  0  0  0  0
   38.3790   32.6870   43.8360 H   0  0  0  0  0  0  0  0  0  0  0  0
   39.4480   33.7780   42.9260 H   0  0  0  0  0  0  0  0  0  0  0  0
   40.5510   33.0650   44.9590 S   0  0  0  0  0  0  0  0  0  0  0  0
   37.7680   31.7180   47.4480 C   0  0  0  0  0  0  0  0  0  0  0  0
   37.9950   32.4540   48.6330 C   0  0  0  0  0  0  0  0  0  0  0  0
   39.0010   33.3800   48.7040 C   0  0  0  0  0  0  0  0  0  0  0  0
   39.7650   33.5480   47.5740 C   0  0  0  0  0  0  0  0  0  0  0  0
   39.5390   32.8360   46.4400 C   0  0  0  0  0  0  0  0  0  0  0  0
   38.5430   31.9120   46.3540 N   0  0  0  0  0  0  0  0  0  0  0  0
   37.3680   32.2900   49.5030 H   0  0  0  0  0  0  0  0  0  0  0  0
   39.2360   33.9740   49.5570 H   0  0  0  0  0  0  0  0  0  0  0  0
   40.5850   34.2600   47.5350 H   0  0  0  0  0  0  0  0  0  0  0  0
   36.6970   30.7680   47.4540 C   0  0  0  0  0  0  0  0  0  0  0  0
   36.1980   30.3650   46.3960 O   0  0  0  0  0  0  0  0  0  0  0  0
   36.9990   29.5930   49.5940 C   0  0  0  0  0  0  0  0  0  0  0  0
   36.1290   30.2200   48.6950 C   0  0  0  0  0  0  0  0  0  0  0  0
   34.7730   30.2990   49.0050 C   0  0  0  0  0  0  0  0  0  0  0  0
   34.3360   29.7590   50.1880 N   0  0  0  0  0  0  0  0  0  0  0  0
   35.1940   29.1620   51.0330 C   0  0  0  0  0  0  0  0  0  0  0  0
   36.4990   29.0790   50.7450 N   0  0  0  0  0  0  0  0  0  0  0  0
   38.0620   29.4980   49.4110 H   0  0  0  0  0  0  0  0  0  0  0  0
   34.1070   30.7880   48.3000 H   0  0  0  0  0  0  0  0  0  0  0  0
   34.8740   28.7290   51.9700 H   0  0  0  0  0  0  0  0  0  0  0  0
   37.7970   28.8010   42.5020 O   0  0  0  0  0  0  0  0  0  0  0  0
   37.9690   27.5920   41.7740 C   0  0  0  0  0  2  0  0  0  0  0  0
   37.7140   26.4450   42.6520 C   0  0  0  0  0  0  0  0  0  0  0  0
   36.4920   25.9880   42.8750 C   0  0  0  0  0  0  0  0  0  0  0  0
   36.3560   24.8610   43.7650 N   0  0  0  0  0  0  0  0  0  0  0  0
   35.5500   24.2080   44.7160 C   0  0  0  0  0  0  0  0  0  0  0  0
   34.3300   24.1240   45.0260 O   0  0  0  0  0  0  0  0  0  0  0  0
   36.7330   23.5720   45.3130 C   0  0  0  0  0  3  0  0  0  0  0  0
   37.2320   24.1780   46.1220 H   0  0  0  0  0  0  0  0  0  0  0  0
   37.3290   23.8030   43.9430 C   0  0  2  0  0  3  0  0  0  0  0  0
   39.0000   24.4700   44.1040 S   0  0  0  0  0  0  0  0  0  0  0  0
   39.0010   25.9950   43.1680 C   0  0  0  0  0  3  0  0  0  0  0  0
   39.6740   25.8010   42.2780 H   0  0  0  0  0  0  0  0  0  0  0  0
   35.2550   26.5280   42.3060 C   0  0  0  0  0  0  0  0  0  0  0  0
   34.9120   27.6140   41.8350 O   0  0  0  0  0  0  0  0  0  0  0  0
   34.1070   25.7830   42.1960 O   0  0  0  0  0  0  0  0  0  0  0  0
   33.5340   25.7690   41.3640 H   0  0  0  0  0  0  0  0  0  0  0  0
  1  6  1  6  0  0  0
  1 36  1  0  0  0  0
  1  5  1  0  0  0  0
  2  7  1  0  0  0  0
  2  1  1  0  0  0  0
  2  3  1  0  0  0  0
  3  9  1  6  0  0  0
  3 12  1  0  0  0  0
  3  4  1  0  0  0  0
  4  5  1  0  0  0  0
  5 11  1  0  0  0  0
  5 10  1  0  0  0  0
  8  2  1  0  0  0  0
 12 13  1  0  0  0  0
 12 15  1  0  0  0  0
 14 12  1  0  0  0  0
 15 20  1  0  0  0  0
 16 25  1  0  0  0  0
 16 17  1  0  0  0  0
 17 18  2  0  0  0  0
 17 22  1  0  0  0  0
 18 23  1  0  0  0  0
 19 18  1  0  0  0  0
 20 19  2  0  0  0  0
 21 20  1  0  0  0  0
 21 16  2  0  0  0  0
 24 19  1  0  0  0  0
 25 28  1  0  0  0  0
 26 25  2  0  0  0  0
 27 32  1  0  0  0  0
 28 29  1  0  0  0  0
 28 27  2  0  0  0  0
 29 30  2  0  0  0  0
 30 31  1  0  0  0  0
 31 35  1  0  0  0  0
 32 31  2  0  0  0  0
 33 27  1  0  0  0  0
 34 29  1  0  0  0  0
 37 36  1  0  0  0  0
 37 38  1  0  0  0  0
 38 39  2  0  0  0  0
 38 47  1  0  0  0  0
 39 40  1  0  0  0  0
 40 45  1  0  0  0  0
 40 41  1  0  0  0  0
 41 42  2  0  0  0  0
 41 43  1  0  0  0  0
 43 44  1  0  0  0  0
 45 46  1  1  0  0  0
 45 43  1  0  0  0  0
 47 46  1  0  0  0  0
 48 47  1  0  0  0  0
 49 39  1  0  0  0  0
 50 49  2  0  0  0  0
 51 49  1  0  0  0  0
 52 51  1  0  0  0  0
M  END
>  <minimizedAffinity>
-5.53236294

>  <minimizedRMSD>
1.65812445

$$$$
