
 OpenBabel03262522143D

 52 56  0  0  1  0  0  0  0  0999 V2000
   39.0030   29.9120   42.6010 C   0  0  1  0  0  0  0  0  0  0  0  0
   39.0680   31.4010   42.3110 C   0  0  0  0  0  0  0  0  0  0  0  0
   40.0530   31.8690   43.3460 C   0  0  2  0  0  0  0  0  0  0  0  0
   40.3130   30.8160   44.1910 O   0  0  0  0  0  0  0  0  0  0  0  0
   39.2610   29.9120   44.0880 C   0  0  0  0  0  0  0  0  0  0  0  0
   39.7740   29.3680   42.0420 H   0  0  0  0  0  0  0  0  0  0  0  0
   38.0670   31.8810   42.4030 H   0  0  0  0  0  0  0  0  0  0  0  0
   39.4150   31.5070   41.2690 H   0  0  0  0  0  0  0  0  0  0  0  0
   40.9540   32.2030   42.7810 H   0  0  0  0  0  0  0  0  0  0  0  0
   38.3700   30.2740   44.6030 H   0  0  0  0  0  0  0  0  0  0  0  0
   39.6000   28.9110   44.4270 H   0  0  0  0  0  0  0  0  0  0  0  0
   39.5490   33.0890   44.0800 C   0  0  0  0  0  0  0  0  0  0  0  0
   38.4890   32.9490   44.2960 H   0  0  0  0  0  0  0  0  0  0  0  0
   39.6310   34.0090   43.4390 H   0  0  0  0  0  0  0  0  0  0  0  0
   40.5880   33.3190   45.5520 S   0  0  0  0  0  0  0  0  0  0  0  0
   37.7250   31.8290   47.8620 C   0  0  0  0  0  0  0  0  0  0  0  0
   37.8450   32.5670   49.0610 C   0  0  0  0  0  0  0  0  0  0  0  0
   38.8010   33.5380   49.1960 C   0  0  0  0  0  0  0  0  0  0  0  0
   39.6240   33.7480   48.1160 C   0  0  0  0  0  0  0  0  0  0  0  0
   39.5000   33.0330   46.9670 C   0  0  0  0  0  0  0  0  0  0  0  0
   38.5550   32.0650   46.8180 N   0  0  0  0  0  0  0  0  0  0  0  0
   37.1750   32.3680   49.8910 H   0  0  0  0  0  0  0  0  0  0  0  0
   38.9560   34.1360   50.0640 H   0  0  0  0  0  0  0  0  0  0  0  0
   40.4110   34.4970   48.1290 H   0  0  0  0  0  0  0  0  0  0  0  0
   36.7000   30.8310   47.7990 C   0  0  0  0  0  0  0  0  0  0  0  0
   36.2870   30.4110   46.7110 O   0  0  0  0  0  0  0  0  0  0  0  0
   36.9200   29.6240   49.9310 C   0  0  0  0  0  0  0  0  0  0  0  0
   36.0830   30.2510   49.0010 C   0  0  0  0  0  0  0  0  0  0  0  0
   34.7120   30.2990   49.2450 C   0  0  0  0  0  0  0  0  0  0  0  0
   34.2270   29.7290   50.3950 N   0  0  0  0  0  0  0  0  0  0  0  0
   35.0550   29.1340   51.2710 C   0  0  0  0  0  0  0  0  0  0  0  0
   36.3740   29.0820   51.0470 N   0  0  0  0  0  0  0  0  0  0  0  0
   37.9920   29.5530   49.8000 H   0  0  0  0  0  0  0  0  0  0  0  0
   34.0720   30.7870   48.5150 H   0  0  0  0  0  0  0  0  0  0  0  0
   34.6980   28.6790   52.1840 H   0  0  0  0  0  0  0  0  0  0  0  0
   37.7480   29.3950   42.2850 O   0  0  0  0  0  0  0  0  0  0  0  0
   37.9500   28.2280   41.5000 C   0  0  0  0  0  2  0  0  0  0  0  0
   38.0050   28.5900   40.0790 C   0  0  0  0  0  0  0  0  0  0  0  0
   39.0790   28.3700   39.3390 C   0  0  0  0  0  0  0  0  0  0  0  0
   39.0290   28.7760   37.9550 N   0  0  0  0  0  0  0  0  0  0  0  0
   39.7510   29.2500   36.8450 C   0  0  0  0  0  0  0  0  0  0  0  0
   40.9350   29.2360   36.4090 O   0  0  0  0  0  0  0  0  0  0  0  0
   38.5330   29.8450   36.2780 C   0  0  0  0  0  3  0  0  0  0  0  0
   38.3250   30.8990   36.6180 H   0  0  0  0  0  0  0  0  0  0  0  0
   37.8430   28.8000   37.1250 C   0  0  2  0  0  3  0  0  0  0  0  0
   36.4440   29.5410   37.9980 S   0  0  0  0  0  0  0  0  0  0  0  0
   36.7250   29.1960   39.7330 C   0  0  0  0  0  3  0  0  0  0  0  0
   35.9120   28.4660   40.0280 H   0  0  0  0  0  0  0  0  0  0  0  0
   40.3270   27.7580   39.7970 C   0  0  0  0  0  0  0  0  0  0  0  0
   40.8860   27.6220   40.8870 O   0  0  0  0  0  0  0  0  0  0  0  0
   41.2060   27.1410   38.9390 O   0  0  0  0  0  0  0  0  0  0  0  0
   41.6370   26.2480   39.1350 H   0  0  0  0  0  0  0  0  0  0  0  0
  1  6  1  6  0  0  0
  1  5  1  0  0  0  0
  2  7  1  0  0  0  0
  2  1  1  0  0  0  0
  2  3  1  0  0  0  0
  3  9  1  6  0  0  0
  3 12  1  0  0  0  0
  3  4  1  0  0  0  0
  5  4  1  0  0  0  0
  5 11  1  0  0  0  0
  5 10  1  0  0  0  0
  8  2  1  0  0  0  0
 12 13  1  0  0  0  0
 12 15  1  0  0  0  0
 14 12  1  0  0  0  0
 15 20  1  0  0  0  0
 16 17  1  0  0  0  0
 17 18  2  0  0  0  0
 17 22  1  0  0  0  0
 18 23  1  0  0  0  0
 19 24  1  0  0  0  0
 19 18  1  0  0  0  0
 20 19  2  0  0  0  0
 21 20  1  0  0  0  0
 21 16  2  0  0  0  0
 25 16  1  0  0  0  0
 25 28  1  0  0  0  0
 26 25  2  0  0  0  0
 27 32  1  0  0  0  0
 28 29  1  0  0  0  0
 28 27  2  0  0  0  0
 29 30  2  0  0  0  0
 30 31  1  0  0  0  0
 31 35  1  0  0  0  0
 32 31  2  0  0  0  0
 33 27  1  0  0  0  0
 34 29  1  0  0  0  0
 36  1  1  0  0  0  0
 37 36  1  0  0  0  0
 38 37  1  0  0  0  0
 39 49  1  0  0  0  0
 39 38  2  0  0  0  0
 40 39  1  0  0  0  0
 41 40  1  0  0  0  0
 42 41  2  0  0  0  0
 43 44  1  0  0  0  0
 43 41  1  0  0  0  0
 45 43  1  6  0  0  0
 45 40  1  0  0  0  0
 45 46  1  0  0  0  0
 46 47  1  0  0  0  0
 47 48  1  0  0  0  0
 47 38  1  0  0  0  0
 49 50  2  0  0  0  0
 51 52  1  0  0  0  0
 51 49  1  0  0  0  0
M  END
>  <minimizedAffinity>
-5.02564812

>  <minimizedRMSD>
2.26321816

$$$$
