
 OpenBabel03262522143D

 52 56  0  0  1  0  0  0  0  0999 V2000
   39.0430   29.5750   42.5710 C   0  0  1  0  0  0  0  0  0  0  0  0
   38.8110   31.0300   42.2030 C   0  0  0  0  0  0  0  0  0  0  0  0
   39.9300   31.7110   42.9410 C   0  0  2  0  0  0  0  0  0  0  0  0
   40.5390   30.7770   43.7450 O   0  0  0  0  0  0  0  0  0  0  0  0
   39.6420   29.7330   43.9470 C   0  0  0  0  0  0  0  0  0  0  0  0
   39.7330   29.0960   41.8670 H   0  0  0  0  0  0  0  0  0  0  0  0
   37.8000   31.3760   42.5170 H   0  0  0  0  0  0  0  0  0  0  0  0
   38.8810   31.0950   41.1050 H   0  0  0  0  0  0  0  0  0  0  0  0
   40.6110   32.1170   42.1570 H   0  0  0  0  0  0  0  0  0  0  0  0
   38.8540   30.0120   44.6480 H   0  0  0  0  0  0  0  0  0  0  0  0
   40.2000   28.8190   44.2400 H   0  0  0  0  0  0  0  0  0  0  0  0
   39.4350   32.9080   43.7180 C   0  0  0  0  0  0  0  0  0  0  0  0
   38.3910   32.7380   43.9860 H   0  0  0  0  0  0  0  0  0  0  0  0
   39.4610   33.8380   43.0880 H   0  0  0  0  0  0  0  0  0  0  0  0
   40.5420   33.1440   45.1380 S   0  0  0  0  0  0  0  0  0  0  0  0
   37.7510   31.7420   47.5880 C   0  0  0  0  0  0  0  0  0  0  0  0
   37.9490   32.4800   48.7770 C   0  0  0  0  0  0  0  0  0  0  0  0
   38.9380   33.4240   48.8630 C   0  0  0  0  0  0  0  0  0  0  0  0
   39.7130   33.6080   47.7440 C   0  0  0  0  0  0  0  0  0  0  0  0
   39.5150   32.8940   46.6050 C   0  0  0  0  0  0  0  0  0  0  0  0
   38.5370   31.9520   46.5050 N   0  0  0  0  0  0  0  0  0  0  0  0
   37.3130   32.3040   49.6390 H   0  0  0  0  0  0  0  0  0  0  0  0
   39.1500   34.0210   49.7200 H   0  0  0  0  0  0  0  0  0  0  0  0
   40.5210   34.3340   47.7160 H   0  0  0  0  0  0  0  0  0  0  0  0
   36.6970   30.7740   47.5790 C   0  0  0  0  0  0  0  0  0  0  0  0
   36.2190   30.3640   46.5140 O   0  0  0  0  0  0  0  0  0  0  0  0
   36.9930   29.6000   49.7200 C   0  0  0  0  0  0  0  0  0  0  0  0
   36.1240   30.2130   48.8110 C   0  0  0  0  0  0  0  0  0  0  0  0
   34.7630   30.2670   49.1040 C   0  0  0  0  0  0  0  0  0  0  0  0
   34.3190   29.7160   50.2800 N   0  0  0  0  0  0  0  0  0  0  0  0
   35.1780   29.1330   51.1350 C   0  0  0  0  0  0  0  0  0  0  0  0
   36.4870   29.0750   50.8630 N   0  0  0  0  0  0  0  0  0  0  0  0
   38.0600   29.5240   49.5510 H   0  0  0  0  0  0  0  0  0  0  0  0
   34.0960   30.7450   48.3910 H   0  0  0  0  0  0  0  0  0  0  0  0
   34.8540   28.6920   52.0660 H   0  0  0  0  0  0  0  0  0  0  0  0
   37.8430   28.8690   42.5980 O   0  0  0  0  0  0  0  0  0  0  0  0
   38.0290   27.6750   41.8490 C   0  0  0  0  0  0  0  0  0  0  0  0
   37.7520   26.5100   42.6970 C   0  0  0  0  0  0  0  0  0  0  0  0
   36.5220   26.0780   42.9150 C   0  0  0  0  0  0  0  0  0  0  0  0
   36.3620   24.9290   43.7750 N   0  0  0  0  0  0  0  0  0  0  0  0
   35.5470   24.2710   44.7140 C   0  0  0  0  0  0  0  0  0  0  0  0
   34.3270   24.2070   45.0310 O   0  0  0  0  0  0  0  0  0  0  0  0
   36.7180   23.5880   45.2840 C   0  0  0  0  0  0  0  0  0  0  0  0
   37.2380   24.1590   46.1050 H   0  0  0  0  0  0  0  0  0  0  0  0
   37.3100   23.8430   43.9160 C   0  0  2  0  0  0  0  0  0  0  0  0
   38.9990   24.4640   44.0830 S   0  0  0  0  0  0  0  0  0  0  0  0
   39.0310   26.0140   43.1900 C   0  0  0  0  0  0  0  0  0  0  0  0
   39.6930   25.8290   42.2890 H   0  0  0  0  0  0  0  0  0  0  0  0
   35.2940   26.6640   42.3730 C   0  0  0  0  0  0  0  0  0  0  0  0
   35.0330   27.6240   41.6460 O   0  0  0  0  0  0  0  0  0  0  0  0
   34.0500   26.1470   42.6360 O   0  0  0  0  0  0  0  0  0  0  0  0
   33.3430   26.0140   41.9250 H   0  0  0  0  0  0  0  0  0  0  0  0
  1  6  1  6  0  0  0
  1 36  1  0  0  0  0
  1  5  1  0  0  0  0
  2  7  1  0  0  0  0
  2  1  1  0  0  0  0
  2  3  1  0  0  0  0
  3  9  1  6  0  0  0
  3 12  1  0  0  0  0
  3  4  1  0  0  0  0
  4  5  1  0  0  0  0
  5 11  1  0  0  0  0
  5 10  1  0  0  0  0
  8  2  1  0  0  0  0
 12 13  1  0  0  0  0
 12 15  1  0  0  0  0
 14 12  1  0  0  0  0
 15 20  1  0  0  0  0
 16 17  1  0  0  0  0
 17 18  2  0  0  0  0
 17 22  1  0  0  0  0
 18 23  1  0  0  0  0
 19 18  1  0  0  0  0
 20 19  2  0  0  0  0
 21 20  1  0  0  0  0
 21 16  2  0  0  0  0
 24 19  1  0  0  0  0
 25 16  1  0  0  0  0
 25 28  1  0  0  0  0
 26 25  2  0  0  0  0
 27 32  1  0  0  0  0
 28 29  1  0  0  0  0
 28 27  2  0  0  0  0
 29 30  2  0  0  0  0
 30 31  1  0  0  0  0
 31 35  1  0  0  0  0
 32 31  2  0  0  0  0
 33 27  1  0  0  0  0
 34 29  1  0  0  0  0
 37 36  1  0  0  0  0
 37 38  1  0  0  0  0
 38 39  2  0  0  0  0
 38 47  1  0  0  0  0
 39 40  1  0  0  0  0
 40 45  1  0  0  0  0
 40 41  1  0  0  0  0
 41 42  2  0  0  0  0
 41 43  1  0  0  0  0
 43 44  1  0  0  0  0
 45 46  1  1  0  0  0
 45 43  1  0  0  0  0
 47 46  1  0  0  0  0
 48 47  1  0  0  0  0
 49 51  1  0  0  0  0
 49 39  1  0  0  0  0
 50 49  2  0  0  0  0
 52 51  1  0  0  0  0
M  END
>  <minimizedAffinity>
-5.56007481

>  <minimizedRMSD>
1.0642271

$$$$
