
 OpenBabel03262522123D

 37 41  0  0  1  0  0  0  0  0999 V2000
   35.4820   28.9600   32.2620 C   0  0  0  0  0  0  0  0  0  0  0  0
   35.9260   29.8740   31.2970 C   0  0  0  0  0  0  0  0  0  0  0  0
   36.9790   29.5370   30.4770 C   0  0  0  0  0  0  0  0  0  0  0  0
   37.5390   28.2920   30.6680 C   0  0  0  0  0  0  0  0  0  0  0  0
   37.0990   27.4110   31.6100 C   0  0  0  0  0  0  0  0  0  0  0  0
   36.0540   27.7490   32.4210 N   0  0  0  0  0  0  0  0  0  0  0  0
   35.4550   30.8310   31.1890 H   0  0  0  0  0  0  0  0  0  0  0  0
   37.3670   30.1970   29.7160 H   0  0  0  0  0  0  0  0  0  0  0  0
   38.3700   27.9160   30.0870 H   0  0  0  0  0  0  0  0  0  0  0  0
   34.3740   29.3860   33.0810 C   0  0  0  0  0  0  0  0  0  0  0  0
   33.2010   29.0720   32.7850 O   0  0  0  0  0  0  0  0  0  0  0  0
   33.4350   30.5880   35.0180 C   0  0  0  0  0  0  0  0  0  0  0  0
   34.5470   30.1950   34.2880 C   0  0  0  0  0  0  0  0  0  0  0  0
   35.8010   30.6050   34.7560 C   0  0  0  0  0  0  0  0  0  0  0  0
   35.8840   31.3550   35.8860 N   0  0  0  0  0  0  0  0  0  0  0  0
   34.7570   31.7130   36.5650 C   0  0  0  0  0  0  0  0  0  0  0  0
   33.5730   31.3380   36.1400 N   0  0  0  0  0  0  0  0  0  0  0  0
   32.4350   30.2880   34.6830 H   0  0  0  0  0  0  0  0  0  0  0  0
   36.6580   30.2900   34.1740 H   0  0  0  0  0  0  0  0  0  0  0  0
   35.0000   32.3150   37.4470 H   0  0  0  0  0  0  0  0  0  0  0  0
   37.8220   25.7830   31.8680 S   0  0  0  0  0  0  0  0  0  0  0  0
   39.2330   26.0250   33.0250 C   0  0  0  0  0  2  0  0  0  0  0  0
   39.0210   25.0890   34.1500 C   0  0  0  0  0  0  0  0  0  0  0  0
   38.4970   25.4370   35.2870 C   0  0  0  0  0  0  0  0  0  0  0  0
   38.3000   24.5200   36.3430 N   0  0  0  0  0  0  0  0  0  0  0  0
   37.9640   24.1970   37.6890 C   0  0  1  0  0  0  0  0  0  0  0  0
   38.1980   24.7220   38.8120 O   0  0  0  0  0  1  0  0  0  0  0  0
   37.2500   23.0060   37.0850 C   0  0  0  0  0  3  0  0  0  0  0  0
   37.1460   22.1440   37.7720 H   0  0  0  0  0  0  0  0  0  0  0  0
   38.4660   23.0620   36.2340 C   0  0  1  0  0  0  0  0  0  0  0  0
   38.3250   22.5460   34.5110 S   0  0  0  0  0  0  0  0  0  0  0  0
   39.4960   23.7580   33.7610 C   0  0  0  0  0  3  0  0  0  0  0  0
   39.5650   23.5910   32.6950 H   0  0  0  0  0  0  0  0  0  0  0  0
   38.0420   26.8110   35.6070 C   0  0  0  0  0  0  0  0  0  0  0  0
   37.0650   27.5290   35.3320 O   0  0  0  0  0  0  0  0  0  0  0  0
   38.7350   27.6950   36.3990 O   0  0  0  0  0  0  0  0  0  0  0  0
   38.8970   28.6820   36.2430 H   0  0  0  0  0  0  0  0  0  0  0  0
  1  6  1  0  0  0  0
  1 10  1  0  0  0  0
  2  1  2  0  0  0  0
  3  4  2  0  0  0  0
  3  2  1  0  0  0  0
  4  5  1  0  0  0  0
  5 21  1  0  0  0  0
  5  6  2  0  0  0  0
  7  2  1  0  0  0  0
  8  3  1  0  0  0  0
  9  4  1  0  0  0  0
 10 13  1  0  0  0  0
 11 10  2  0  0  0  0
 12 17  1  0  0  0  0
 13 14  1  0  0  0  0
 13 12  2  0  0  0  0
 14 15  2  0  0  0  0
 15 16  1  0  0  0  0
 16 20  1  0  0  0  0
 17 16  2  0  0  0  0
 18 12  1  0  0  0  0
 19 14  1  0  0  0  0
 21 22  1  0  0  0  0
 22 23  1  0  0  0  0
 23 24  2  0  0  0  0
 24 34  1  0  0  0  0
 24 25  1  0  0  0  0
 25 26  1  0  0  0  0
 26 27  1  1  0  0  0
 28 26  1  0  0  0  0
 28 29  1  0  0  0  0
 30 31  1  6  0  0  0
 30 25  1  0  0  0  0
 30 28  1  0  0  0  0
 30 26  1  0  0  0  0
 32 23  1  0  0  0  0
 32 31  1  0  0  0  0
 33 32  1  0  0  0  0
 34 36  1  0  0  0  0
 35 34  2  0  0  0  0
 37 36  1  0  0  0  0
M  END
>  <minimizedAffinity>
-6.18645763

$$$$

 OpenBabel03262522123D

 37 41  0  0  1  0  0  0  0  0999 V2000
   36.2950   26.7720   31.4570 C   0  0  0  0  0  0  0  0  0  0  0  0
   35.3090   25.8450   31.0980 C   0  0  0  0  0  0  0  0  0  0  0  0
   35.6400   24.5130   30.9820 C   0  0  0  0  0  0  0  0  0  0  0  0
   36.9530   24.1770   31.2320 C   0  0  0  0  0  0  0  0  0  0  0  0
   37.9050   25.0880   31.5810 C   0  0  0  0  0  0  0  0  0  0  0  0
   37.5720   26.4080   31.6950 N   0  0  0  0  0  0  0  0  0  0  0  0
   34.3000   26.1580   30.9140 H   0  0  0  0  0  0  0  0  0  0  0  0
   34.9260   23.7500   30.7090 H   0  0  0  0  0  0  0  0  0  0  0  0
   37.3310   23.1660   31.1730 H   0  0  0  0  0  0  0  0  0  0  0  0
   35.8710   28.1470   31.5580 C   0  0  0  0  0  0  0  0  0  0  0  0
   34.9620   28.4800   32.3500 O   0  0  0  0  0  0  0  0  0  0  0  0
   36.4720   30.5190   31.2480 C   0  0  0  0  0  0  0  0  0  0  0  0
   36.4630   29.2200   30.7590 C   0  0  0  0  0  0  0  0  0  0  0  0
   37.0350   29.0040   29.5000 C   0  0  0  0  0  0  0  0  0  0  0  0
   37.5680   30.0500   28.8150 N   0  0  0  0  0  0  0  0  0  0  0  0
   37.5490   31.3060   29.3440 C   0  0  0  0  0  0  0  0  0  0  0  0
   37.0170   31.5270   30.5230 N   0  0  0  0  0  0  0  0  0  0  0  0
   36.0320   30.7280   32.2300 H   0  0  0  0  0  0  0  0  0  0  0  0
   37.0200   27.9850   29.1330 H   0  0  0  0  0  0  0  0  0  0  0  0
   38.0160   32.0290   28.6660 H   0  0  0  0  0  0  0  0  0  0  0  0
   39.6210   24.6630   31.9100 S   0  0  0  0  0  0  0  0  0  0  0  0
   40.1140   25.6250   33.3990 C   0  0  0  0  0  2  0  0  0  0  0  0
   39.7100   24.8220   34.5740 C   0  0  0  0  0  0  0  0  0  0  0  0
   38.9300   25.2640   35.5150 C   0  0  0  0  0  0  0  0  0  0  0  0
   38.5550   24.4720   36.6220 N   0  0  0  0  0  0  0  0  0  0  0  0
   37.9490   24.2920   37.8980 C   0  0  1  0  0  0  0  0  0  0  0  0
   37.9010   24.9680   38.9610 O   0  0  0  0  0  1  0  0  0  0  0  0
   37.4500   22.9800   37.3290 C   0  0  0  0  0  3  0  0  0  0  0  0
   37.2430   22.2050   38.0900 H   0  0  0  0  0  0  0  0  0  0  0  0
   38.8180   23.0300   36.7530 C   0  0  1  0  0  0  0  0  0  0  0  0
   39.0880   22.2950   35.1280 S   0  0  0  0  0  0  0  0  0  0  0  0
   40.3290   23.4960   34.4820 C   0  0  0  0  0  3  0  0  0  0  0  0
   40.6400   23.2040   33.4870 H   0  0  0  0  0  0  0  0  0  0  0  0
   38.3440   26.6250   35.5380 C   0  0  0  0  0  0  0  0  0  0  0  0
   37.3810   27.2060   35.0070 O   0  0  0  0  0  0  0  0  0  0  0  0
   38.8420   27.6750   36.2730 O   0  0  0  0  0  0  0  0  0  0  0  0
   38.9650   28.6370   35.9860 H   0  0  0  0  0  0  0  0  0  0  0  0
  1 10  1  0  0  0  0
  1  6  1  0  0  0  0
  2  1  2  0  0  0  0
  3  2  1  0  0  0  0
  3  4  2  0  0  0  0
  4  5  1  0  0  0  0
  5  6  2  0  0  0  0
  5 21  1  0  0  0  0
  7  2  1  0  0  0  0
  8  3  1  0  0  0  0
  9  4  1  0  0  0  0
 10 11  2  0  0  0  0
 12 18  1  0  0  0  0
 13 12  1  0  0  0  0
 13 10  1  0  0  0  0
 14 13  2  0  0  0  0
 15 16  2  0  0  0  0
 15 14  1  0  0  0  0
 16 17  1  0  0  0  0
 17 12  2  0  0  0  0
 19 14  1  0  0  0  0
 20 16  1  0  0  0  0
 21 22  1  0  0  0  0
 22 23  1  0  0  0  0
 23 24  2  0  0  0  0
 24 34  1  0  0  0  0
 24 25  1  0  0  0  0
 25 30  1  0  0  0  0
 25 26  1  0  0  0  0
 26 27  1  1  0  0  0
 28 26  1  0  0  0  0
 28 29  1  0  0  0  0
 30 31  1  1  0  0  0
 30 28  1  0  0  0  0
 30 26  1  0  0  0  0
 32 23  1  0  0  0  0
 32 31  1  0  0  0  0
 33 32  1  0  0  0  0
 34 36  1  0  0  0  0
 35 34  2  0  0  0  0
 37 36  1  0  0  0  0
M  END
>  <minimizedAffinity>
-6.07440948

$$$$

 OpenBabel03262522123D

 37 41  0  0  1  0  0  0  0  0999 V2000
   37.7980   22.3910   33.4870 C   0  0  0  0  0  0  0  0  0  0  0  0
   36.9780   21.2710   33.3020 C   0  0  0  0  0  0  0  0  0  0  0  0
   35.9030   21.3510   32.4450 C   0  0  0  0  0  0  0  0  0  0  0  0
   35.7020   22.5590   31.8140 C   0  0  0  0  0  0  0  0  0  0  0  0
   36.5070   23.6430   32.0010 C   0  0  0  0  0  0  0  0  0  0  0  0
   37.5730   23.5590   32.8520 N   0  0  0  0  0  0  0  0  0  0  0  0
   37.1770   20.3520   33.8170 H   0  0  0  0  0  0  0  0  0  0  0  0
   35.2340   20.5230   32.2610 H   0  0  0  0  0  0  0  0  0  0  0  0
   34.8930   22.7430   31.1210 H   0  0  0  0  0  0  0  0  0  0  0  0
   38.9040   22.2280   34.3980 C   0  0  0  0  0  0  0  0  0  0  0  0
   39.9860   21.7370   34.0110 O   0  0  0  0  0  0  0  0  0  0  0  0
   39.9360   22.4340   36.6290 C   0  0  0  0  0  0  0  0  0  0  0  0
   38.8340   22.6190   35.8060 C   0  0  0  0  0  0  0  0  0  0  0  0
   37.6890   23.1820   36.3840 C   0  0  0  0  0  0  0  0  0  0  0  0
   37.6970   23.5210   37.6990 N   0  0  0  0  0  0  0  0  0  0  0  0
   38.8090   23.3170   38.4610 C   0  0  0  0  0  0  0  0  0  0  0  0
   39.8910   22.7900   37.9360 N   0  0  0  0  0  0  0  0  0  0  0  0
   40.8510   21.9950   36.2140 H   0  0  0  0  0  0  0  0  0  0  0  0
   36.8380   23.3190   35.7280 H   0  0  0  0  0  0  0  0  0  0  0  0
   38.6480   23.6430   39.4940 H   0  0  0  0  0  0  0  0  0  0  0  0
   36.2560   25.2260   31.1840 S   0  0  0  0  0  0  0  0  0  0  0  0
   37.4390   26.4010   31.9620 C   0  0  0  0  0  2  0  0  0  0  0  0
   36.7080   27.6710   32.1570 C   0  0  0  0  0  0  0  0  0  0  0  0
   36.4820   28.2010   33.3220 C   0  0  0  0  0  0  0  0  0  0  0  0
   35.7860   29.4200   33.4770 N   0  0  0  0  0  0  0  0  0  0  0  0
   35.1440   30.4150   34.2690 C   0  0  1  0  0  0  0  0  0  0  0  0
   34.3900   30.3960   35.2790 O   0  0  0  0  0  1  0  0  0  0  0  0
   35.8020   31.4000   33.3250 C   0  0  0  0  0  3  0  0  0  0  0  0
   35.2740   32.3690   33.2410 H   0  0  0  0  0  0  0  0  0  0  0  0
   35.4140   30.3230   32.3780 C   0  0  1  0  0  0  0  0  0  0  0  0
   36.4690   30.0270   30.9440 S   0  0  0  0  0  0  0  0  0  0  0  0
   36.3010   28.1930   30.8490 C   0  0  0  0  0  3  0  0  0  0  0  0
   36.8680   27.8160   30.0090 H   0  0  0  0  0  0  0  0  0  0  0  0
   36.9250   27.6070   34.6050 C   0  0  0  0  0  0  0  0  0  0  0  0
   36.8130   26.5130   35.1840 O   0  0  0  0  0  0  0  0  0  0  0  0
   37.6670   28.2700   35.5540 O   0  0  0  0  0  0  0  0  0  0  0  0
   37.5420   28.2720   36.5580 H   0  0  0  0  0  0  0  0  0  0  0  0
  1 10  1  0  0  0  0
  2  1  1  0  0  0  0
  2  7  1  0  0  0  0
  3  2  2  0  0  0  0
  4  5  2  0  0  0  0
  4  3  1  0  0  0  0
  5  6  1  0  0  0  0
  6  1  2  0  0  0  0
  8  3  1  0  0  0  0
  9  4  1  0  0  0  0
 10 13  1  0  0  0  0
 11 10  2  0  0  0  0
 12 17  1  0  0  0  0
 13 14  1  0  0  0  0
 13 12  2  0  0  0  0
 14 15  2  0  0  0  0
 15 16  1  0  0  0  0
 16 20  1  0  0  0  0
 17 16  2  0  0  0  0
 18 12  1  0  0  0  0
 19 14  1  0  0  0  0
 21 22  1  0  0  0  0
 21  5  1  0  0  0  0
 22 23  1  0  0  0  0
 23 24  2  0  0  0  0
 24 25  1  0  0  0  0
 24 34  1  0  0  0  0
 25 26  1  0  0  0  0
 26 27  1  1  0  0  0
 28 26  1  0  0  0  0
 29 28  1  0  0  0  0
 30 31  1  6  0  0  0
 30 28  1  0  0  0  0
 30 25  1  0  0  0  0
 30 26  1  0  0  0  0
 32 31  1  0  0  0  0
 32 23  1  0  0  0  0
 33 32  1  0  0  0  0
 34 35  2  0  0  0  0
 34 36  1  0  0  0  0
 36 37  1  0  0  0  0
M  END
>  <minimizedAffinity>
-6.00750446

$$$$

 OpenBabel03262522123D

 37 41  0  0  1  0  0  0  0  0999 V2000
   36.3830   23.1020   31.6810 C   0  0  0  0  0  0  0  0  0  0  0  0
   35.4130   24.0570   31.3500 C   0  0  0  0  0  0  0  0  0  0  0  0
   35.7910   25.3650   31.1470 C   0  0  0  0  0  0  0  0  0  0  0  0
   37.1310   25.6530   31.2880 C   0  0  0  0  0  0  0  0  0  0  0  0
   38.0670   24.7160   31.6100 C   0  0  0  0  0  0  0  0  0  0  0  0
   37.6880   23.4190   31.8110 N   0  0  0  0  0  0  0  0  0  0  0  0
   34.3820   23.7810   31.2530 H   0  0  0  0  0  0  0  0  0  0  0  0
   35.0910   26.1470   30.8900 H   0  0  0  0  0  0  0  0  0  0  0  0
   37.5460   26.6420   31.1540 H   0  0  0  0  0  0  0  0  0  0  0  0
   35.9100   21.7540   31.8770 C   0  0  0  0  0  0  0  0  0  0  0  0
   34.8270   21.5340   32.4610 O   0  0  0  0  0  0  0  0  0  0  0  0
   36.3330   19.9990   30.1960 C   0  0  0  0  0  0  0  0  0  0  0  0
   36.6510   20.5800   31.4160 C   0  0  0  0  0  0  0  0  0  0  0  0
   37.6870   19.9950   32.1540 C   0  0  0  0  0  0  0  0  0  0  0  0
   38.3310   18.9050   31.6610 N   0  0  0  0  0  0  0  0  0  0  0  0
   37.9770   18.3760   30.4560 C   0  0  0  0  0  0  0  0  0  0  0  0
   37.0080   18.9110   29.7510 N   0  0  0  0  0  0  0  0  0  0  0  0
   35.5260   20.4280   29.5890 H   0  0  0  0  0  0  0  0  0  0  0  0
   37.9230   20.4600   33.1030 H   0  0  0  0  0  0  0  0  0  0  0  0
   38.5920   17.5040   30.2090 H   0  0  0  0  0  0  0  0  0  0  0  0
   39.8190   25.0780   31.7970 S   0  0  0  0  0  0  0  0  0  0  0  0
   39.9780   26.0710   33.3380 C   0  0  0  0  0  2  0  0  0  0  0  0
   39.6620   25.1610   34.4610 C   0  0  0  0  0  0  0  0  0  0  0  0
   38.8660   25.4730   35.4390 C   0  0  0  0  0  0  0  0  0  0  0  0
   38.5780   24.5810   36.4950 N   0  0  0  0  0  0  0  0  0  0  0  0
   38.0110   24.2680   37.7640 C   0  0  1  0  0  0  0  0  0  0  0  0
   37.9280   24.8670   38.8710 O   0  0  0  0  0  1  0  0  0  0  0  0
   37.6100   22.9600   37.1140 C   0  0  0  0  0  3  0  0  0  0  0  0
   37.4810   22.1220   37.8240 H   0  0  0  0  0  0  0  0  0  0  0  0
   38.9600   23.1610   36.5260 C   0  0  1  0  0  0  0  0  0  0  0  0
   39.2590   22.5600   34.8510 S   0  0  0  0  0  0  0  0  0  0  0  0
   40.3860   23.9000   34.2720 C   0  0  0  0  0  3  0  0  0  0  0  0
   40.7010   23.7010   33.2570 H   0  0  0  0  0  0  0  0  0  0  0  0
   38.1710   26.7770   35.5610 C   0  0  0  0  0  0  0  0  0  0  0  0
   37.1320   27.2940   35.1170 O   0  0  0  0  0  0  0  0  0  0  0  0
   38.6270   27.8340   36.3130 O   0  0  0  0  0  0  0  0  0  0  0  0
   38.6500   28.8150   36.0660 H   0  0  0  0  0  0  0  0  0  0  0  0
  1  6  1  0  0  0  0
  1 10  1  0  0  0  0
  2  1  2  0  0  0  0
  3  4  2  0  0  0  0
  3  2  1  0  0  0  0
  4  5  1  0  0  0  0
  5 21  1  0  0  0  0
  5  6  2  0  0  0  0
  7  2  1  0  0  0  0
  8  3  1  0  0  0  0
  9  4  1  0  0  0  0
 10 11  2  0  0  0  0
 12 13  1  0  0  0  0
 13 10  1  0  0  0  0
 13 14  2  0  0  0  0
 14 19  1  0  0  0  0
 15 14  1  0  0  0  0
 16 15  2  0  0  0  0
 17 12  2  0  0  0  0
 17 16  1  0  0  0  0
 18 12  1  0  0  0  0
 20 16  1  0  0  0  0
 21 22  1  0  0  0  0
 22 23  1  0  0  0  0
 23 24  2  0  0  0  0
 24 34  1  0  0  0  0
 24 25  1  0  0  0  0
 25 30  1  0  0  0  0
 25 26  1  0  0  0  0
 26 27  1  1  0  0  0
 28 26  1  0  0  0  0
 28 29  1  0  0  0  0
 30 31  1  1  0  0  0
 30 28  1  0  0  0  0
 30 26  1  0  0  0  0
 32 23  1  0  0  0  0
 32 31  1  0  0  0  0
 33 32  1  0  0  0  0
 34 36  1  0  0  0  0
 35 34  2  0  0  0  0
 37 36  1  0  0  0  0
M  END
>  <minimizedAffinity>
-5.89527035

$$$$

 OpenBabel03262522123D

 37 41  0  0  1  0  0  0  0  0999 V2000
   36.8460   23.8500   31.5520 C   0  0  0  0  0  0  0  0  0  0  0  0
   35.7490   24.3430   30.8350 C   0  0  0  0  0  0  0  0  0  0  0  0
   35.2980   25.6210   31.0790 C   0  0  0  0  0  0  0  0  0  0  0  0
   35.9740   26.3440   32.0370 C   0  0  0  0  0  0  0  0  0  0  0  0
   37.0410   25.8540   32.7290 C   0  0  0  0  0  0  0  0  0  0  0  0
   37.4850   24.5860   32.4840 N   0  0  0  0  0  0  0  0  0  0  0  0
   35.2570   23.7390   30.0980 H   0  0  0  0  0  0  0  0  0  0  0  0
   34.4570   26.0570   30.5600 H   0  0  0  0  0  0  0  0  0  0  0  0
   35.7130   27.3550   32.3160 H   0  0  0  0  0  0  0  0  0  0  0  0
   37.2590   22.5040   31.2390 C   0  0  0  0  0  0  0  0  0  0  0  0
   38.2550   22.2910   30.5130 O   0  0  0  0  0  0  0  0  0  0  0  0
   36.2280   21.2350   33.0860 C   0  0  0  0  0  0  0  0  0  0  0  0
   36.5560   21.3220   31.7410 C   0  0  0  0  0  0  0  0  0  0  0  0
   36.1880   20.2500   30.9190 C   0  0  0  0  0  0  0  0  0  0  0  0
   35.5360   19.1860   31.4550 N   0  0  0  0  0  0  0  0  0  0  0  0
   35.2390   19.1520   32.7850 C   0  0  0  0  0  0  0  0  0  0  0  0
   35.5760   20.1490   33.5700 N   0  0  0  0  0  0  0  0  0  0  0  0
   36.5000   22.0540   33.7620 H   0  0  0  0  0  0  0  0  0  0  0  0
   36.4520   20.3340   29.8720 H   0  0  0  0  0  0  0  0  0  0  0  0
   34.7160   18.2280   33.0520 H   0  0  0  0  0  0  0  0  0  0  0  0
   37.9320   26.7880   33.9830 S   0  0  0  0  0  0  0  0  0  0  0  0
   37.8600   25.7810   35.5220 C   0  0  0  0  0  2  0  0  0  0  0  0
   39.1100   24.9920   35.5700 C   0  0  0  0  0  0  0  0  0  0  0  0
   39.2110   23.8360   36.1540 C   0  0  0  0  0  0  0  0  0  0  0  0
   40.4160   23.1020   36.1780 N   0  0  0  0  0  0  0  0  0  0  0  0
   41.2270   22.0200   36.6270 C   0  0  1  0  0  0  0  0  0  0  0  0
   41.3970   21.4390   37.7330 O   0  0  0  0  0  1  0  0  0  0  0  0
   41.7170   21.9660   35.1950 C   0  0  0  0  0  3  0  0  0  0  0  0
   42.7270   21.5310   35.0780 H   0  0  0  0  0  0  0  0  0  0  0  0
   41.6200   23.4340   35.4010 C   0  0  1  0  0  0  0  0  0  0  0  0
   41.1840   24.4670   33.9870 S   0  0  0  0  0  0  0  0  0  0  0  0
   40.1670   25.7280   34.8680 C   0  0  0  0  0  3  0  0  0  0  0  0
   39.8160   26.4730   34.1660 H   0  0  0  0  0  0  0  0  0  0  0  0
   38.0920   23.1560   36.8490 C   0  0  0  0  0  0  0  0  0  0  0  0
   37.4540   23.3100   37.9040 O   0  0  0  0  0  0  0  0  0  0  0  0
   37.4450   22.0400   36.3740 O   0  0  0  0  0  0  0  0  0  0  0  0
   37.1640   21.2140   36.8860 H   0  0  0  0  0  0  0  0  0  0  0  0
  1  6  1  0  0  0  0
  2  3  1  0  0  0  0
  2  1  2  0  0  0  0
  3  4  2  0  0  0  0
  4  9  1  0  0  0  0
  4  5  1  0  0  0  0
  5 21  1  0  0  0  0
  6  5  2  0  0  0  0
  7  2  1  0  0  0  0
  8  3  1  0  0  0  0
 10  1  1  0  0  0  0
 10 13  1  0  0  0  0
 11 10  2  0  0  0  0
 12 17  1  0  0  0  0
 12 18  1  0  0  0  0
 13 12  2  0  0  0  0
 14 15  2  0  0  0  0
 14 13  1  0  0  0  0
 15 16  1  0  0  0  0
 16 20  1  0  0  0  0
 16 17  2  0  0  0  0
 19 14  1  0  0  0  0
 21 22  1  0  0  0  0
 22 23  1  0  0  0  0
 23 24  2  0  0  0  0
 24 25  1  0  0  0  0
 24 34  1  0  0  0  0
 25 26  1  0  0  0  0
 26 27  1  1  0  0  0
 28 30  1  0  0  0  0
 28 26  1  0  0  0  0
 29 28  1  0  0  0  0
 30 31  1  6  0  0  0
 30 25  1  0  0  0  0
 30 26  1  0  0  0  0
 31 32  1  0  0  0  0
 32 23  1  0  0  0  0
 33 32  1  0  0  0  0
 34 35  2  0  0  0  0
 36 34  1  0  0  0  0
 36 37  1  0  0  0  0
M  END
>  <minimizedAffinity>
-5.84036207

$$$$

 OpenBabel03262522123D

 37 41  0  0  1  0  0  0  0  0999 V2000
   36.6180   25.6010   31.5170 C   0  0  0  0  0  0  0  0  0  0  0  0
   35.9940   26.8540   31.4640 C   0  0  0  0  0  0  0  0  0  0  0  0
   36.7490   27.9950   31.6180 C   0  0  0  0  0  0  0  0  0  0  0  0
   38.1010   27.8210   31.8210 C   0  0  0  0  0  0  0  0  0  0  0  0
   38.6980   26.5960   31.8710 C   0  0  0  0  0  0  0  0  0  0  0  0
   37.9450   25.4670   31.7170 N   0  0  0  0  0  0  0  0  0  0  0  0
   34.9370   26.9350   31.3030 H   0  0  0  0  0  0  0  0  0  0  0  0
   36.3270   28.9890   31.5880 H   0  0  0  0  0  0  0  0  0  0  0  0
   38.7940   28.6390   31.9560 H   0  0  0  0  0  0  0  0  0  0  0  0
   35.7610   24.4540   31.3450 C   0  0  0  0  0  0  0  0  0  0  0  0
   34.6050   24.5810   30.8840 O   0  0  0  0  0  0  0  0  0  0  0  0
   35.6950   22.0190   30.9600 C   0  0  0  0  0  0  0  0  0  0  0  0
   36.1770   23.0950   31.6910 C   0  0  0  0  0  0  0  0  0  0  0  0
   37.0570   22.8130   32.7440 C   0  0  0  0  0  0  0  0  0  0  0  0
   37.4000   21.5250   33.0060 N   0  0  0  0  0  0  0  0  0  0  0  0
   36.8950   20.5060   32.2550 C   0  0  0  0  0  0  0  0  0  0  0  0
   36.0700   20.7520   31.2640 N   0  0  0  0  0  0  0  0  0  0  0  0
   35.0040   22.1980   30.1280 H   0  0  0  0  0  0  0  0  0  0  0  0
   37.4230   23.6640   33.3040 H   0  0  0  0  0  0  0  0  0  0  0  0
   37.2700   19.5360   32.5980 H   0  0  0  0  0  0  0  0  0  0  0  0
   40.4610   26.3550   32.1350 S   0  0  0  0  0  0  0  0  0  0  0  0
   40.7880   26.8260   33.8830 C   0  0  0  0  0  2  0  0  0  0  0  0
   40.3970   25.6670   34.7130 C   0  0  0  0  0  0  0  0  0  0  0  0
   39.3240   25.6350   35.4460 C   0  0  0  0  0  0  0  0  0  0  0  0
   38.9720   24.5100   36.2240 N   0  0  0  0  0  0  0  0  0  0  0  0
   38.1750   23.8540   37.2060 C   0  0  1  0  0  0  0  0  0  0  0  0
   37.6770   24.1910   38.3140 O   0  0  0  0  0  1  0  0  0  0  0  0
   38.2550   22.6580   36.2790 C   0  0  0  0  0  3  0  0  0  0  0  0
   38.1310   21.6830   36.7870 H   0  0  0  0  0  0  0  0  0  0  0  0
   39.6340   23.1980   36.1560 C   0  0  1  0  0  0  0  0  0  0  0  0
   40.4840   23.0110   34.5760 S   0  0  0  0  0  0  0  0  0  0  0  0
   41.4020   24.6100   34.5630 C   0  0  0  0  0  3  0  0  0  0  0  0
   42.0080   24.6790   33.6700 H   0  0  0  0  0  0  0  0  0  0  0  0
   38.3540   26.7510   35.5480 C   0  0  0  0  0  0  0  0  0  0  0  0
   37.2210   27.0090   35.1070 O   0  0  0  0  0  0  0  0  0  0  0  0
   38.5650   27.9020   36.2700 O   0  0  0  0  0  0  0  0  0  0  0  0
   38.3650   28.8560   36.0000 H   0  0  0  0  0  0  0  0  0  0  0  0
  1  6  1  0  0  0  0
  2  1  2  0  0  0  0
  2  3  1  0  0  0  0
  3  4  2  0  0  0  0
  4  5  1  0  0  0  0
  4  9  1  0  0  0  0
  5 21  1  0  0  0  0
  6  5  2  0  0  0  0
  7  2  1  0  0  0  0
  8  3  1  0  0  0  0
 10  1  1  0  0  0  0
 10 13  1  0  0  0  0
 11 10  2  0  0  0  0
 12 17  2  0  0  0  0
 12 13  1  0  0  0  0
 13 14  2  0  0  0  0
 14 15  1  0  0  0  0
 14 19  1  0  0  0  0
 16 20  1  0  0  0  0
 16 15  2  0  0  0  0
 17 16  1  0  0  0  0
 18 12  1  0  0  0  0
 21 22  1  0  0  0  0
 22 23  1  0  0  0  0
 23 24  2  0  0  0  0
 24 34  1  0  0  0  0
 24 25  1  0  0  0  0
 25 26  1  0  0  0  0
 26 27  1  1  0  0  0
 28 29  1  0  0  0  0
 28 26  1  0  0  0  0
 30 31  1  1  0  0  0
 30 25  1  0  0  0  0
 30 28  1  0  0  0  0
 30 26  1  0  0  0  0
 32 31  1  0  0  0  0
 32 23  1  0  0  0  0
 33 32  1  0  0  0  0
 34 36  1  0  0  0  0
 35 34  2  0  0  0  0
 37 36  1  0  0  0  0
M  END
>  <minimizedAffinity>
-5.83496046

$$$$

 OpenBabel03262522123D

 37 41  0  0  1  0  0  0  0  0999 V2000
   35.2680   29.2000   33.4470 C   0  0  0  0  0  0  0  0  0  0  0  0
   35.2370   28.6020   32.1810 C   0  0  0  0  0  0  0  0  0  0  0  0
   36.1240   27.5900   31.8870 C   0  0  0  0  0  0  0  0  0  0  0  0
   37.0050   27.2290   32.8840 C   0  0  0  0  0  0  0  0  0  0  0  0
   37.0260   27.8190   34.1130 C   0  0  0  0  0  0  0  0  0  0  0  0
   36.1440   28.8210   34.4000 N   0  0  0  0  0  0  0  0  0  0  0  0
   34.5320   28.9200   31.4390 H   0  0  0  0  0  0  0  0  0  0  0  0
   36.1510   27.0900   30.9310 H   0  0  0  0  0  0  0  0  0  0  0  0
   37.7460   26.4510   32.7720 H   0  0  0  0  0  0  0  0  0  0  0  0
   34.3080   30.2510   33.6780 C   0  0  0  0  0  0  0  0  0  0  0  0
   33.9890   31.0410   32.7630 O   0  0  0  0  0  0  0  0  0  0  0  0
   34.0650   31.5000   35.7910 C   0  0  0  0  0  0  0  0  0  0  0  0
   33.6570   30.4580   34.9720 C   0  0  0  0  0  0  0  0  0  0  0  0
   32.6200   29.6410   35.4410 C   0  0  0  0  0  0  0  0  0  0  0  0
   32.0610   29.8940   36.6530 N   0  0  0  0  0  0  0  0  0  0  0  0
   32.5020   30.9340   37.4170 C   0  0  0  0  0  0  0  0  0  0  0  0
   33.4730   31.7090   36.9930 N   0  0  0  0  0  0  0  0  0  0  0  0
   34.8750   32.1610   35.4600 H   0  0  0  0  0  0  0  0  0  0  0  0
   32.3130   28.8320   34.7900 H   0  0  0  0  0  0  0  0  0  0  0  0
   31.9490   30.9970   38.3600 H   0  0  0  0  0  0  0  0  0  0  0  0
   38.1690   27.3560   35.4230 S   0  0  0  0  0  0  0  0  0  0  0  0
   37.7260   25.6380   35.9100 C   0  0  0  0  0  2  0  0  0  0  0  0
   38.9650   24.8370   35.8100 C   0  0  0  0  0  0  0  0  0  0  0  0
   39.1510   23.7150   36.4370 C   0  0  0  0  0  0  0  0  0  0  0  0
   40.3420   22.9670   36.3170 N   0  0  0  0  0  0  0  0  0  0  0  0
   41.2090   21.9020   36.6970 C   0  0  1  0  0  0  0  0  0  0  0  0
   41.5450   21.3810   37.7950 O   0  0  0  0  0  1  0  0  0  0  0  0
   41.4710   21.7620   35.2120 C   0  0  0  0  0  3  0  0  0  0  0  0
   42.4490   21.3090   34.9660 H   0  0  0  0  0  0  0  0  0  0  0  0
   41.4130   23.2400   35.3460 C   0  0  1  0  0  0  0  0  0  0  0  0
   40.7680   24.1980   33.9600 S   0  0  0  0  0  0  0  0  0  0  0  0
   39.9030   25.5190   34.9130 C   0  0  0  0  0  3  0  0  0  0  0  0
   39.4520   26.2280   34.2310 H   0  0  0  0  0  0  0  0  0  0  0  0
   38.1490   23.0890   37.3340 C   0  0  0  0  0  0  0  0  0  0  0  0
   37.8610   23.1350   38.5420 O   0  0  0  0  0  0  0  0  0  0  0  0
   37.1950   22.1880   36.9250 O   0  0  0  0  0  0  0  0  0  0  0  0
   36.9070   21.3310   37.3790 H   0  0  0  0  0  0  0  0  0  0  0  0
  1 10  1  0  0  0  0
  1  6  1  0  0  0  0
  2  1  2  0  0  0  0
  3  2  1  0  0  0  0
  3  4  2  0  0  0  0
  4  5  1  0  0  0  0
  5  6  2  0  0  0  0
  5 21  1  0  0  0  0
  7  2  1  0  0  0  0
  8  3  1  0  0  0  0
  9  4  1  0  0  0  0
 10 13  1  0  0  0  0
 11 10  2  0  0  0  0
 12 17  1  0  0  0  0
 13 14  1  0  0  0  0
 13 12  2  0  0  0  0
 14 15  2  0  0  0  0
 15 16  1  0  0  0  0
 16 20  1  0  0  0  0
 17 16  2  0  0  0  0
 18 12  1  0  0  0  0
 19 14  1  0  0  0  0
 21 22  1  0  0  0  0
 23 22  1  0  0  0  0
 23 24  2  0  0  0  0
 24 34  1  0  0  0  0
 25 24  1  0  0  0  0
 25 26  1  0  0  0  0
 26 27  1  1  0  0  0
 28 30  1  0  0  0  0
 28 26  1  0  0  0  0
 29 28  1  0  0  0  0
 30 31  1  6  0  0  0
 30 25  1  0  0  0  0
 30 26  1  0  0  0  0
 31 32  1  0  0  0  0
 32 23  1  0  0  0  0
 33 32  1  0  0  0  0
 34 35  2  0  0  0  0
 36 34  1  0  0  0  0
 36 37  1  0  0  0  0
M  END
>  <minimizedAffinity>
-5.83097267

$$$$

 OpenBabel03262522123D

 37 41  0  0  1  0  0  0  0  0999 V2000
   35.7300   29.8430   34.1620 C   0  0  0  0  0  0  0  0  0  0  0  0
   35.5700   30.3170   32.8540 C   0  0  0  0  0  0  0  0  0  0  0  0
   35.9510   29.5250   31.7940 C   0  0  0  0  0  0  0  0  0  0  0  0
   36.4770   28.2890   32.1020 C   0  0  0  0  0  0  0  0  0  0  0  0
   36.6290   27.8380   33.3790 C   0  0  0  0  0  0  0  0  0  0  0  0
   36.2500   28.6260   34.4280 N   0  0  0  0  0  0  0  0  0  0  0  0
   35.1550   31.2870   32.6680 H   0  0  0  0  0  0  0  0  0  0  0  0
   35.8530   29.8330   30.7640 H   0  0  0  0  0  0  0  0  0  0  0  0
   36.8110   27.5810   31.3570 H   0  0  0  0  0  0  0  0  0  0  0  0
   35.3080   30.7300   35.2180 C   0  0  0  0  0  0  0  0  0  0  0  0
   36.1270   31.4810   35.7900 O   0  0  0  0  0  0  0  0  0  0  0  0
   33.5640   31.7540   36.6300 C   0  0  0  0  0  0  0  0  0  0  0  0
   33.9220   30.8090   35.6790 C   0  0  0  0  0  0  0  0  0  0  0  0
   32.9120   29.9620   35.2040 C   0  0  0  0  0  0  0  0  0  0  0  0
   31.6460   30.0940   35.6790 N   0  0  0  0  0  0  0  0  0  0  0  0
   31.3510   31.0410   36.6130 C   0  0  0  0  0  0  0  0  0  0  0  0
   32.2850   31.8440   37.0690 N   0  0  0  0  0  0  0  0  0  0  0  0
   34.3260   32.4350   37.0270 H   0  0  0  0  0  0  0  0  0  0  0  0
   33.2080   29.2300   34.4640 H   0  0  0  0  0  0  0  0  0  0  0  0
   30.2910   31.0130   36.8860 H   0  0  0  0  0  0  0  0  0  0  0  0
   37.3140   26.2270   33.7940 S   0  0  0  0  0  0  0  0  0  0  0  0
   38.2470   26.4540   35.3640 C   0  0  0  0  0  2  0  0  0  0  0  0
   38.7200   25.1130   35.7720 C   0  0  0  0  0  0  0  0  0  0  0  0
   39.8800   24.6280   35.4470 C   0  0  0  0  0  0  0  0  0  0  0  0
   40.3080   23.3470   35.8570 N   0  0  0  0  0  0  0  0  0  0  0  0
   41.2140   22.2480   35.8250 C   0  0  1  0  0  0  0  0  0  0  0  0
   41.8660   21.6620   34.9190 O   0  0  0  0  0  1  0  0  0  0  0  0
   40.9820   22.1850   37.3210 C   0  0  0  0  0  3  0  0  0  0  0  0
   41.1500   21.1850   37.7630 H   0  0  0  0  0  0  0  0  0  0  0  0
   39.6120   22.5010   36.8390 C   0  0  1  0  0  0  0  0  0  0  0  0
   38.5520   23.5130   37.8920 S   0  0  0  0  0  0  0  0  0  0  0  0
   37.6790   24.4630   36.5740 C   0  0  0  0  0  3  0  0  0  0  0  0
   36.9590   25.1360   37.0220 H   0  0  0  0  0  0  0  0  0  0  0  0
   40.8820   25.3500   34.6260 C   0  0  0  0  0  0  0  0  0  0  0  0
   41.0860   25.5520   33.4170 O   0  0  0  0  0  0  0  0  0  0  0  0
   41.9520   26.0460   35.1380 O   0  0  0  0  0  0  0  0  0  0  0  0
   42.9090   26.0520   34.8110 H   0  0  0  0  0  0  0  0  0  0  0  0
  1  6  1  0  0  0  0
  1 10  1  0  0  0  0
  2  1  2  0  0  0  0
  3  4  2  0  0  0  0
  3  2  1  0  0  0  0
  4  5  1  0  0  0  0
  5 21  1  0  0  0  0
  5  6  2  0  0  0  0
  7  2  1  0  0  0  0
  8  3  1  0  0  0  0
  9  4  1  0  0  0  0
 10 13  1  0  0  0  0
 10 11  2  0  0  0  0
 12 18  1  0  0  0  0
 12 17  1  0  0  0  0
 13 12  2  0  0  0  0
 14 13  1  0  0  0  0
 14 15  2  0  0  0  0
 15 16  1  0  0  0  0
 16 20  1  0  0  0  0
 16 17  2  0  0  0  0
 19 14  1  0  0  0  0
 21 22  1  0  0  0  0
 22 23  1  0  0  0  0
 23 32  1  0  0  0  0
 24 23  2  0  0  0  0
 24 25  1  0  0  0  0
 25 30  1  0  0  0  0
 26 27  1  6  0  0  0
 26 25  1  0  0  0  0
 26 30  1  0  0  0  0
 26 28  1  0  0  0  0
 28 29  1  0  0  0  0
 30 28  1  1  0  0  0
 30 31  1  0  0  0  0
 32 33  1  0  0  0  0
 32 31  1  0  0  0  0
 34 36  1  0  0  0  0
 34 24  1  0  0  0  0
 35 34  2  0  0  0  0
 37 36  1  0  0  0  0
M  END
>  <minimizedAffinity>
-5.75887156

$$$$

 OpenBabel03262522123D

 37 41  0  0  1  0  0  0  0  0999 V2000
   38.0600   25.3750   34.6910 C   0  0  0  0  0  0  0  0  0  0  0  0
   38.4520   26.1220   35.8080 C   0  0  0  0  0  0  0  0  0  0  0  0
   38.1260   27.4580   35.8790 C   0  0  0  0  0  0  0  0  0  0  0  0
   37.4190   27.9810   34.8180 C   0  0  0  0  0  0  0  0  0  0  0  0
   37.0420   27.2440   33.7350 C   0  0  0  0  0  0  0  0  0  0  0  0
   37.3670   25.9190   33.6680 N   0  0  0  0  0  0  0  0  0  0  0  0
   39.0020   25.6680   36.6080 H   0  0  0  0  0  0  0  0  0  0  0  0
   38.3990   28.0880   36.7130 H   0  0  0  0  0  0  0  0  0  0  0  0
   37.1070   29.0140   34.7600 H   0  0  0  0  0  0  0  0  0  0  0  0
   38.4380   23.9830   34.6900 C   0  0  0  0  0  0  0  0  0  0  0  0
   37.8030   23.1470   34.0120 O   0  0  0  0  0  0  0  0  0  0  0  0
   39.3320   22.7340   36.6200 C   0  0  0  0  0  0  0  0  0  0  0  0
   39.5670   23.4690   35.4660 C   0  0  0  0  0  0  0  0  0  0  0  0
   40.9010   23.6820   35.1010 C   0  0  0  0  0  0  0  0  0  0  0  0
   41.8980   23.1730   35.8710 N   0  0  0  0  0  0  0  0  0  0  0  0
   41.6100   22.4580   36.9950 C   0  0  0  0  0  0  0  0  0  0  0  0
   40.3640   22.2480   37.3520 N   0  0  0  0  0  0  0  0  0  0  0  0
   38.3000   22.5460   36.9390 H   0  0  0  0  0  0  0  0  0  0  0  0
   41.0670   24.2580   34.1990 H   0  0  0  0  0  0  0  0  0  0  0  0
   42.5240   22.1220   37.4970 H   0  0  0  0  0  0  0  0  0  0  0  0
   36.1190   27.9130   32.3430 S   0  0  0  0  0  0  0  0  0  0  0  0
   35.9260   29.7140   32.6730 C   0  0  0  0  0  2  0  0  0  0  0  0
   34.6830   29.8680   33.4590 C   0  0  0  0  0  0  0  0  0  0  0  0
   34.5870   30.6150   34.5180 C   0  0  0  0  0  0  0  0  0  0  0  0
   33.3850   30.7490   35.2450 N   0  0  0  0  0  0  0  0  0  0  0  0
   32.6320   31.1940   36.3700 C   0  0  1  0  0  0  0  0  0  0  0  0
   32.8420   31.2480   37.6120 O   0  0  0  0  0  1  0  0  0  0  0  0
   31.5590   31.5270   35.3530 C   0  0  0  0  0  3  0  0  0  0  0  0
   30.5320   31.5310   35.7640 H   0  0  0  0  0  0  0  0  0  0  0  0
   32.0740   30.2450   34.8050 C   0  0  1  0  0  0  0  0  0  0  0  0
   32.0630   30.0170   33.0150 S   0  0  0  0  0  0  0  0  0  0  0  0
   33.6270   29.0540   32.8480 C   0  0  0  0  0  3  0  0  0  0  0  0
   33.7900   28.7970   31.8100 H   0  0  0  0  0  0  0  0  0  0  0  0
   35.7070   31.4090   35.0770 C   0  0  0  0  0  0  0  0  0  0  0  0
   36.3000   32.4640   34.7940 O   0  0  0  0  0  0  0  0  0  0  0  0
   36.4180   31.0650   36.2030 O   0  0  0  0  0  0  0  0  0  0  0  0
   37.4180   31.1040   36.3480 H   0  0  0  0  0  0  0  0  0  0  0  0
  1  2  1  0  0  0  0
  2  3  2  0  0  0  0
  2  7  1  0  0  0  0
  3  8  1  0  0  0  0
  4  3  1  0  0  0  0
  5  4  2  0  0  0  0
  6  5  1  0  0  0  0
  6  1  2  0  0  0  0
  9  4  1  0  0  0  0
 10  1  1  0  0  0  0
 10 13  1  0  0  0  0
 11 10  2  0  0  0  0
 12 18  1  0  0  0  0
 12 17  1  0  0  0  0
 13 12  2  0  0  0  0
 14 13  1  0  0  0  0
 14 15  2  0  0  0  0
 15 16  1  0  0  0  0
 16 17  2  0  0  0  0
 16 20  1  0  0  0  0
 19 14  1  0  0  0  0
 21 22  1  0  0  0  0
 21  5  1  0  0  0  0
 22 23  1  0  0  0  0
 23 24  2  0  0  0  0
 24 34  1  0  0  0  0
 24 25  1  0  0  0  0
 25 26  1  0  0  0  0
 26 27  1  1  0  0  0
 28 29  1  0  0  0  0
 28 26  1  0  0  0  0
 30 31  1  6  0  0  0
 30 25  1  0  0  0  0
 30 28  1  0  0  0  0
 30 26  1  0  0  0  0
 32 31  1  0  0  0  0
 32 23  1  0  0  0  0
 33 32  1  0  0  0  0
 34 36  1  0  0  0  0
 35 34  2  0  0  0  0
 36 37  1  0  0  0  0
M  END
>  <minimizedAffinity>
-5.74922752

$$$$
