
 OpenBabel03262522113D

 37 41  0  0  1  0  0  0  0  0999 V2000
   37.6870   31.3070   47.1170 C   0  0  0  0  0  0  0  0  0  0  0  0
   38.0730   32.3240   47.9990 C   0  0  0  0  0  0  0  0  0  0  0  0
   39.1800   33.0900   47.7070 C   0  0  0  0  0  0  0  0  0  0  0  0
   39.8490   32.7930   46.5400 C   0  0  0  0  0  0  0  0  0  0  0  0
   39.4640   31.8000   45.6890 C   0  0  0  0  0  0  0  0  0  0  0  0
   38.3650   31.0430   45.9820 N   0  0  0  0  0  0  0  0  0  0  0  0
   37.5180   32.5150   48.8950 H   0  0  0  0  0  0  0  0  0  0  0  0
   39.5290   33.8880   48.3460 H   0  0  0  0  0  0  0  0  0  0  0  0
   40.7300   33.3230   46.2060 H   0  0  0  0  0  0  0  0  0  0  0  0
   36.5170   30.5500   47.4910 C   0  0  0  0  0  0  0  0  0  0  0  0
   35.6500   30.2500   46.6420 O   0  0  0  0  0  0  0  0  0  0  0  0
   37.3410   29.7120   49.6590 C   0  0  0  0  0  0  0  0  0  0  0  0
   36.2740   30.0920   48.8590 C   0  0  0  0  0  0  0  0  0  0  0  0
   34.9920   30.0150   49.4190 C   0  0  0  0  0  0  0  0  0  0  0  0
   34.8430   29.5810   50.6970 N   0  0  0  0  0  0  0  0  0  0  0  0
   35.9280   29.2190   51.4390 C   0  0  0  0  0  0  0  0  0  0  0  0
   37.1370   29.2860   50.9300 N   0  0  0  0  0  0  0  0  0  0  0  0
   38.3600   29.7580   49.2570 H   0  0  0  0  0  0  0  0  0  0  0  0
   34.1700   30.3150   48.7810 H   0  0  0  0  0  0  0  0  0  0  0  0
   35.6330   28.8950   52.4420 H   0  0  0  0  0  0  0  0  0  0  0  0
   40.3280   31.4020   44.1620 S   0  0  0  0  0  0  0  0  0  0  0  0
   39.7310   32.6060   42.9050 C   0  0  0  0  0  2  0  0  0  0  0  0
   38.5020   32.0280   42.3170 C   0  0  0  0  0  0  0  0  0  0  0  0
   38.5040   31.1820   41.3310 C   0  0  0  0  0  0  0  0  0  0  0  0
   37.3150   30.6420   40.7940 N   0  0  0  0  0  0  0  0  0  0  0  0
   36.5960   29.8910   39.8190 C   0  0  1  0  0  0  0  0  0  0  0  0
   36.6630   29.7730   38.5660 O   0  0  0  0  0  1  0  0  0  0  0  0
   35.7980   29.3740   40.9990 C   0  0  0  0  0  3  0  0  0  0  0  0
   34.7760   29.0390   40.7410 H   0  0  0  0  0  0  0  0  0  0  0  0
   35.9770   30.7980   41.3860 C   0  0  1  0  0  0  0  0  0  0  0  0
   36.1140   31.1930   43.1410 S   0  0  0  0  0  0  0  0  0  0  0  0
   37.3360   32.5690   43.0210 C   0  0  0  0  0  3  0  0  0  0  0  0
   37.5390   32.9660   44.0070 H   0  0  0  0  0  0  0  0  0  0  0  0
   39.7320   30.6840   40.6660 C   0  0  0  0  0  0  0  0  0  0  0  0
   40.9590   30.7840   40.8370 O   0  0  0  0  0  0  0  0  0  0  0  0
   39.7410   29.8830   39.5490 O   0  0  0  0  0  0  0  0  0  0  0  0
   40.3310   29.9560   38.7310 H   0  0  0  0  0  0  0  0  0  0  0  0
  1 10  1  0  0  0  0
  1  2  1  0  0  0  0
  2  7  1  0  0  0  0
  3  2  2  0  0  0  0
  3  8  1  0  0  0  0
  4  3  1  0  0  0  0
  5  6  1  0  0  0  0
  5  4  2  0  0  0  0
  6  1  2  0  0  0  0
  9  4  1  0  0  0  0
 10 13  1  0  0  0  0
 11 10  2  0  0  0  0
 12 17  1  0  0  0  0
 13 14  1  0  0  0  0
 13 12  2  0  0  0  0
 14 15  2  0  0  0  0
 15 16  1  0  0  0  0
 16 20  1  0  0  0  0
 17 16  2  0  0  0  0
 18 12  1  0  0  0  0
 19 14  1  0  0  0  0
 21  5  1  0  0  0  0
 22 21  1  0  0  0  0
 23 22  1  0  0  0  0
 23 32  1  0  0  0  0
 24 23  2  0  0  0  0
 25 24  1  0  0  0  0
 25 30  1  0  0  0  0
 26 27  1  6  0  0  0
 26 25  1  0  0  0  0
 26 28  1  0  0  0  0
 26 30  1  0  0  0  0
 29 28  1  0  0  0  0
 30 28  1  1  0  0  0
 30 31  1  0  0  0  0
 32 31  1  0  0  0  0
 32 33  1  0  0  0  0
 34 35  2  0  0  0  0
 34 24  1  0  0  0  0
 36 34  1  0  0  0  0
 37 36  1  0  0  0  0
M  END
>  <minimizedAffinity>
-5.00036335

>  <minimizedRMSD>
2.2340281

$$$$
