
 OpenBabel03262522113D

 37 41  0  0  1  0  0  0  0  0999 V2000
   37.7500   31.8280   47.8430 C   0  0  0  0  0  0  0  0  0  0  0  0
   37.8250   32.5850   49.0190 C   0  0  0  0  0  0  0  0  0  0  0  0
   38.7940   33.5560   49.1410 C   0  0  0  0  0  0  0  0  0  0  0  0
   39.6460   33.7180   48.0700 C   0  0  0  0  0  0  0  0  0  0  0  0
   39.5640   32.9750   46.9300 C   0  0  0  0  0  0  0  0  0  0  0  0
   38.6010   32.0140   46.8130 N   0  0  0  0  0  0  0  0  0  0  0  0
   37.1370   32.4200   49.8250 H   0  0  0  0  0  0  0  0  0  0  0  0
   38.9030   34.1720   50.0210 H   0  0  0  0  0  0  0  0  0  0  0  0
   40.4450   34.4460   48.0480 H   0  0  0  0  0  0  0  0  0  0  0  0
   36.7080   30.8320   47.7920 C   0  0  0  0  0  0  0  0  0  0  0  0
   36.2760   30.4130   46.6960 O   0  0  0  0  0  0  0  0  0  0  0  0
   36.9030   29.6510   49.9480 C   0  0  0  0  0  0  0  0  0  0  0  0
   36.1010   30.2580   48.9930 C   0  0  0  0  0  0  0  0  0  0  0  0
   34.7220   30.2870   49.2370 C   0  0  0  0  0  0  0  0  0  0  0  0
   34.2300   29.7340   50.3750 N   0  0  0  0  0  0  0  0  0  0  0  0
   35.0650   29.1500   51.2810 C   0  0  0  0  0  0  0  0  0  0  0  0
   36.3600   29.1140   51.0680 N   0  0  0  0  0  0  0  0  0  0  0  0
   37.9880   29.6070   49.7930 H   0  0  0  0  0  0  0  0  0  0  0  0
   34.1100   30.7640   48.4810 H   0  0  0  0  0  0  0  0  0  0  0  0
   34.5080   28.7550   52.1370 H   0  0  0  0  0  0  0  0  0  0  0  0
   40.6700   33.1770   45.5250 S   0  0  0  0  0  0  0  0  0  0  0  0
   39.6070   33.1340   44.0230 C   0  0  0  0  0  2  0  0  0  0  0  0
   39.3980   31.7080   43.6940 C   0  0  0  0  0  0  0  0  0  0  0  0
   38.2430   31.2000   43.3850 C   0  0  0  0  0  0  0  0  0  0  0  0
   38.0750   29.8340   43.0680 N   0  0  0  0  0  0  0  0  0  0  0  0
   37.2710   28.6920   42.7940 C   0  0  1  0  0  0  0  0  0  0  0  0
   36.1920   28.2350   43.2580 O   0  0  0  0  0  1  0  0  0  0  0  0
   38.3200   28.3690   41.7490 C   0  0  0  0  0  3  0  0  0  0  0  0
   38.3950   27.2930   41.5000 H   0  0  0  0  0  0  0  0  0  0  0  0
   39.1730   28.8790   42.8530 C   0  0  1  0  0  0  0  0  0  0  0  0
   40.6880   29.7590   42.4230 S   0  0  0  0  0  0  0  0  0  0  0  0
   40.6820   31.0050   43.7820 C   0  0  0  0  0  3  0  0  0  0  0  0
   41.5570   31.6380   43.7040 H   0  0  0  0  0  0  0  0  0  0  0  0
   36.9830   31.9800   43.3220 C   0  0  0  0  0  0  0  0  0  0  0  0
   36.5110   32.8810   42.6090 O   0  0  0  0  0  0  0  0  0  0  0  0
   35.9270   31.8220   44.1880 O   0  0  0  0  0  0  0  0  0  0  0  0
   35.3710   32.5390   44.6340 H   0  0  0  0  0  0  0  0  0  0  0  0
  1  2  1  0  0  0  0
  2  3  2  0  0  0  0
  2  7  1  0  0  0  0
  3  8  1  0  0  0  0
  4  3  1  0  0  0  0
  5  4  2  0  0  0  0
  6  5  1  0  0  0  0
  6  1  2  0  0  0  0
  9  4  1  0  0  0  0
 10  1  1  0  0  0  0
 10 13  1  0  0  0  0
 11 10  2  0  0  0  0
 12 17  1  0  0  0  0
 13 14  1  0  0  0  0
 13 12  2  0  0  0  0
 14 15  2  0  0  0  0
 15 16  1  0  0  0  0
 16 20  1  0  0  0  0
 17 16  2  0  0  0  0
 18 12  1  0  0  0  0
 19 14  1  0  0  0  0
 21  5  1  0  0  0  0
 22 21  1  0  0  0  0
 23 32  1  0  0  0  0
 23 22  1  0  0  0  0
 24 23  2  0  0  0  0
 25 24  1  0  0  0  0
 26 30  1  0  0  0  0
 26 25  1  0  0  0  0
 26 27  1  1  0  0  0
 28 26  1  0  0  0  0
 29 28  1  0  0  0  0
 30 28  1  6  0  0  0
 30 25  1  0  0  0  0
 31 30  1  0  0  0  0
 31 32  1  0  0  0  0
 33 32  1  0  0  0  0
 34 24  1  0  0  0  0
 34 36  1  0  0  0  0
 35 34  2  0  0  0  0
 36 37  1  0  0  0  0
M  END
>  <minimizedAffinity>
-5.90941906

>  <minimizedRMSD>
3.58679581

$$$$
