
 OpenBabel03272507423D

 42 45  0  0  0  0  0  0  0  0999 V2000
   36.7550   31.2050   50.1170 C   0  0  0  0  0  0  0  0  0  0  0  0
   35.7170   30.3110   49.8680 C   0  0  0  0  0  0  0  0  0  0  0  0
   35.5530   29.1870   50.6480 C   0  0  0  0  0  0  0  0  0  0  0  0
   36.4380   28.9900   51.6620 N   0  0  0  0  0  0  0  0  0  0  0  0
   37.4470   29.8720   51.8940 C   0  0  0  0  0  0  0  0  0  0  0  0
   37.5880   30.9480   51.1300 N   0  0  0  0  0  0  0  0  0  0  0  0
   34.7710   28.4520   50.5110 H   0  0  0  0  0  0  0  0  0  0  0  0
   38.1320   29.6720   52.7190 H   0  0  0  0  0  0  0  0  0  0  0  0
   34.3290   29.2630   48.1390 C   0  0  0  0  0  0  0  0  0  0  0  0
   34.7190   28.0300   48.1470 O   0  0  0  0  0  0  0  0  0  0  0  0
   34.7610   30.4340   48.8470 N   0  0  0  0  0  0  0  0  0  0  0  0
   34.2840   31.2970   48.5000 H   0  0  0  0  0  0  0  0  0  0  0  0
   33.2120   29.2800   47.1490 C   0  0  0  0  0  3  0  0  0  0  0  0
   33.2600   28.0210   46.3600 C   0  0  0  0  0  3  0  0  0  0  0  0
   32.7900   27.1620   46.9260 H   0  0  0  0  0  0  0  0  0  0  0  0
   32.5290   28.0840   45.0460 C   0  0  0  0  0  3  0  0  0  0  0  0
   33.2610   28.1240   44.2070 H   0  0  0  0  0  0  0  0  0  0  0  0
   31.7800   29.2570   44.9200 O   0  0  0  0  0  0  0  0  0  0  0  0
   32.7490   30.2840   44.8890 C   0  0  0  0  0  3  0  0  0  0  0  0
   32.3270   31.2160   44.4650 H   0  0  0  0  0  0  0  0  0  0  0  0
   33.0910   30.5350   46.3620 C   0  0  0  0  0  3  0  0  0  0  0  0
   33.9710   31.1960   46.3590 H   0  0  0  0  0  0  0  0  0  0  0  0
   36.7580   32.2440   49.2520 O   0  0  0  0  0  0  0  0  0  0  0  0
   38.2440   32.2360   47.2640 C   0  0  0  0  0  0  0  0  0  0  0  0
   37.8700   32.6640   48.5250 C   0  0  0  0  0  0  0  0  0  0  0  0
   38.6370   33.6080   49.1950 C   0  0  0  0  0  0  0  0  0  0  0  0
   39.7790   34.1150   48.5870 C   0  0  0  0  0  0  0  0  0  0  0  0
   40.1430   33.6810   47.3270 C   0  0  0  0  0  0  0  0  0  0  0  0
   39.3610   32.7490   46.7000 C   0  0  0  0  0  0  0  0  0  0  0  0
   38.4010   33.9840   50.1810 H   0  0  0  0  0  0  0  0  0  0  0  0
   40.3740   34.8480   49.1080 H   0  0  0  0  0  0  0  0  0  0  0  0
   41.0250   34.0540   46.8240 H   0  0  0  0  0  0  0  0  0  0  0  0
   39.7600   32.2880   45.3460 C   0  0  0  0  0  0  0  0  0  0  0  0
   40.5710   31.2590   44.9840 C   0  0  0  0  0  0  0  0  0  0  0  0
   40.6450   31.2190   43.5970 C   0  0  0  0  0  0  0  0  0  0  0  0
   39.8500   32.2580   43.1930 C   0  0  0  0  0  0  0  0  0  0  0  0
   39.3290   32.8870   44.2450 O   0  0  0  0  0  0  0  0  0  0  0  0
   41.0730   30.5840   45.6670 H   0  0  0  0  0  0  0  0  0  0  0  0
   41.2030   30.5250   42.9610 H   0  0  0  0  0  0  0  0  0  0  0  0
   39.6500   32.5570   42.1550 H   0  0  0  0  0  0  0  0  0  0  0  0
   36.7260   30.4960   46.1350 N   0  0  0  0  0  0  0  0  0  0  0  0
   37.4010   31.2660   46.6460 C   0  0  0  0  0  0  0  0  0  0  0  0
  1  6  1  0  0  0  0
  2  1  2  0  0  0  0
  2  3  1  0  0  0  0
  3  4  2  0  0  0  0
  4  5  1  0  0  0  0
  5  8  1  0  0  0  0
  6  5  2  0  0  0  0
  7  3  1  0  0  0  0
  9 10  2  0  0  0  0
  9 11  1  0  0  0  0
 11  2  1  0  0  0  0
 12 11  1  0  0  0  0
 13  9  1  0  0  0  0
 14 15  1  0  0  0  0
 14 13  1  0  0  0  0
 16 14  1  0  0  0  0
 17 16  1  0  0  0  0
 18 16  1  0  0  0  0
 19 18  1  0  0  0  0
 19 21  1  0  0  0  0
 20 19  1  0  0  0  0
 21 13  1  0  0  0  0
 22 21  1  0  0  0  0
 23  1  1  0  0  0  0
 24 25  1  0  0  0  0
 25 26  2  0  0  0  0
 25 23  1  0  0  0  0
 26 30  1  0  0  0  0
 27 31  1  0  0  0  0
 27 26  1  0  0  0  0
 28 27  2  0  0  0  0
 29 24  2  0  0  0  0
 29 28  1  0  0  0  0
 32 28  1  0  0  0  0
 33 29  1  0  0  0  0
 34 33  2  0  0  0  0
 34 38  1  0  0  0  0
 35 34  1  0  0  0  0
 36 35  2  0  0  0  0
 36 37  1  0  0  0  0
 37 33  1  0  0  0  0
 39 35  1  0  0  0  0
 40 36  1  0  0  0  0
 41 42  3  0  0  0  0
 42 24  1  0  0  0  0
M  END
>  <minimizedAffinity>
-5.98549271

>  <minimizedRMSD>
0.975641608

$$$$
