
 OpenBabel03272503053D

 33 35  0  0  0  0  0  0  0  0999 V2000
   38.4960   30.4570   47.2950 F   0  0  0  0  0  0  0  0  0  0  0  0
   38.7760   31.6830   47.7810 C   0  0  0  0  0  0  0  0  0  0  0  0
   38.2110   32.0930   48.9670 C   0  0  0  0  0  0  0  0  0  0  0  0
   38.5330   33.3520   49.4140 C   0  0  0  0  0  0  0  0  0  0  0  0
   39.3830   34.1890   48.7220 C   0  0  0  0  0  0  0  0  0  0  0  0
   39.9350   33.7620   47.5420 C   0  0  0  0  0  0  0  0  0  0  0  0
   39.6300   32.4980   47.0660 C   0  0  0  0  0  0  0  0  0  0  0  0
   38.0810   33.6580   50.3490 H   0  0  0  0  0  0  0  0  0  0  0  0
   39.6110   35.1750   49.1100 H   0  0  0  0  0  0  0  0  0  0  0  0
   40.6070   34.4050   46.9800 H   0  0  0  0  0  0  0  0  0  0  0  0
   36.8190   29.5780   51.4350 C   0  0  0  0  0  0  0  0  0  0  0  0
   37.7010   30.4620   50.7970 C   0  0  0  0  0  0  0  0  0  0  0  0
   37.3210   31.1650   49.6540 C   0  0  0  0  0  0  0  0  0  0  0  0
   36.0490   30.9450   49.1950 N   0  0  0  0  0  0  0  0  0  0  0  0
   35.2140   30.0870   49.8240 C   0  0  0  0  0  0  0  0  0  0  0  0
   35.5940   29.4220   50.9160 N   0  0  0  0  0  0  0  0  0  0  0  0
   37.2480   29.1020   52.3070 H   0  0  0  0  0  0  0  0  0  0  0  0
   38.7200   30.6670   51.1280 H   0  0  0  0  0  0  0  0  0  0  0  0
   34.2170   29.9540   49.4110 H   0  0  0  0  0  0  0  0  0  0  0  0
   39.3610   32.2320   44.6860 C   0  0  0  0  0  0  0  0  0  0  0  0
   38.2550   32.8140   44.9380 O   0  0  0  0  0  0  0  0  0  0  0  0
   40.1820   32.0030   45.8340 N   0  0  0  0  0  0  0  0  0  0  0  0
   41.1020   31.5180   45.7750 H   0  0  0  0  0  0  0  0  0  0  0  0
   39.9070   31.7650   43.3860 C   0  0  0  0  0  3  0  0  0  0  0  0
   38.9250   31.9020   42.2600 C   0  0  0  0  0  3  0  0  0  0  0  0
   38.4730   32.8940   42.2510 H   0  0  0  0  0  0  0  0  0  0  0  0
   39.7190   31.5850   40.9900 C   0  0  0  0  0  3  0  0  0  0  0  0
   40.7180   32.0910   41.1060 H   0  0  0  0  0  0  0  0  0  0  0  0
   40.0100   30.2230   41.0470 O   0  0  0  0  0  0  0  0  0  0  0  0
   40.8970   29.9670   42.0710 C   0  0  0  0  0  3  0  0  0  0  0  0
   41.8140   30.6120   41.9630 H   0  0  0  0  0  0  0  0  0  0  0  0
   40.2840   30.2820   43.4220 C   0  0  0  0  0  3  0  0  0  0  0  0
   39.3570   29.6460   43.5140 H   0  0  0  0  0  0  0  0  0  0  0  0
  1  2  1  0  0  0  0
  2  3  1  0  0  0  0
  3  4  2  0  0  0  0
  3 13  1  0  0  0  0
  4  8  1  0  0  0  0
  5  9  1  0  0  0  0
  5  4  1  0  0  0  0
  6  5  2  0  0  0  0
  7  6  1  0  0  0  0
  7  2  2  0  0  0  0
 10  6  1  0  0  0  0
 11 17  1  0  0  0  0
 12 18  1  0  0  0  0
 12 11  2  0  0  0  0
 13 12  1  0  0  0  0
 14 13  2  0  0  0  0
 14 15  1  0  0  0  0
 15 16  2  0  0  0  0
 16 11  1  0  0  0  0
 19 15  1  0  0  0  0
 20 21  2  0  0  0  0
 20 22  1  0  0  0  0
 22  7  1  0  0  0  0
 23 22  1  0  0  0  0
 24 32  1  0  0  0  0
 24 20  1  0  0  0  0
 25 24  1  0  0  0  0
 26 25  1  0  0  0  0
 27 29  1  0  0  0  0
 27 28  1  0  0  0  0
 27 25  1  0  0  0  0
 29 30  1  0  0  0  0
 30 32  1  0  0  0  0
 31 30  1  0  0  0  0
 32 33  1  0  0  0  0
M  END
>  <minimizedAffinity>
-6.600317

>  <minimizedRMSD>
0.404856026

$$$$
