
 OpenBabel03272507413D

 42 45  0  0  0  0  0  0  0  0999 V2000
   36.6640   31.1960   50.1060 C   0  0  0  0  0  0  0  0  0  0  0  0
   35.5600   30.3770   49.8810 C   0  0  0  0  0  0  0  0  0  0  0  0
   35.3560   29.2470   50.6420 C   0  0  0  0  0  0  0  0  0  0  0  0
   36.2680   28.9670   51.6120 N   0  0  0  0  0  0  0  0  0  0  0  0
   37.3400   29.7760   51.8210 C   0  0  0  0  0  0  0  0  0  0  0  0
   37.5190   30.8600   51.0770 N   0  0  0  0  0  0  0  0  0  0  0  0
   34.5230   28.5670   50.5220 H   0  0  0  0  0  0  0  0  0  0  0  0
   38.0450   29.5110   52.6110 H   0  0  0  0  0  0  0  0  0  0  0  0
   34.1730   29.4990   48.0600 C   0  0  0  0  0  0  0  0  0  0  0  0
   34.6160   28.2950   47.8990 O   0  0  0  0  0  0  0  0  0  0  0  0
   34.5740   30.5870   48.9050 N   0  0  0  0  0  0  0  0  0  0  0  0
   34.0510   31.4660   48.6840 H   0  0  0  0  0  0  0  0  0  0  0  0
   33.0300   29.5930   47.1040 C   0  0  0  0  0  3  0  0  0  0  0  0
   32.2240   28.3490   47.2080 C   0  0  0  0  0  3  0  0  0  0  0  0
   31.5270   28.3820   48.0970 H   0  0  0  0  0  0  0  0  0  0  0  0
   31.3420   28.0800   46.0170 C   0  0  0  0  0  3  0  0  0  0  0  0
   31.7620   27.2390   45.4180 H   0  0  0  0  0  0  0  0  0  0  0  0
   31.3110   29.1640   45.1360 O   0  0  0  0  0  0  0  0  0  0  0  0
   32.6310   29.2490   44.6450 C   0  0  0  0  0  3  0  0  0  0  0  0
   32.6710   29.8350   43.7060 H   0  0  0  0  0  0  0  0  0  0  0  0
   33.3970   30.0170   45.7270 C   0  0  0  0  0  3  0  0  0  0  0  0
   34.4610   29.9370   45.4600 H   0  0  0  0  0  0  0  0  0  0  0  0
   36.6990   32.2550   49.2660 O   0  0  0  0  0  0  0  0  0  0  0  0
   38.2330   32.2040   47.3150 C   0  0  0  0  0  0  0  0  0  0  0  0
   37.8260   32.6620   48.5560 C   0  0  0  0  0  0  0  0  0  0  0  0
   38.5720   33.6290   49.2180 C   0  0  0  0  0  0  0  0  0  0  0  0
   39.7240   34.1270   48.6250 C   0  0  0  0  0  0  0  0  0  0  0  0
   40.1210   33.6620   47.3860 C   0  0  0  0  0  0  0  0  0  0  0  0
   39.3600   32.7100   46.7660 C   0  0  0  0  0  0  0  0  0  0  0  0
   38.3090   34.0290   50.1890 H   0  0  0  0  0  0  0  0  0  0  0  0
   40.3020   34.8770   49.1410 H   0  0  0  0  0  0  0  0  0  0  0  0
   41.0130   34.0280   46.8950 H   0  0  0  0  0  0  0  0  0  0  0  0
   39.7940   32.2160   45.4340 C   0  0  0  0  0  0  0  0  0  0  0  0
   40.6590   31.2140   45.1200 C   0  0  0  0  0  0  0  0  0  0  0  0
   40.7480   31.1230   43.7360 C   0  0  0  0  0  0  0  0  0  0  0  0
   39.9070   32.1050   43.2850 C   0  0  0  0  0  0  0  0  0  0  0  0
   39.3450   32.7480   44.3060 O   0  0  0  0  0  0  0  0  0  0  0  0
   41.1870   30.5930   45.8330 H   0  0  0  0  0  0  0  0  0  0  0  0
   41.3460   30.4340   43.1320 H   0  0  0  0  0  0  0  0  0  0  0  0
   39.7020   32.3520   42.2340 H   0  0  0  0  0  0  0  0  0  0  0  0
   36.7530   30.4250   46.1970 N   0  0  0  0  0  0  0  0  0  0  0  0
   37.4110   31.2120   46.7030 C   0  0  0  0  0  0  0  0  0  0  0  0
  1  6  1  0  0  0  0
  2  1  2  0  0  0  0
  2  3  1  0  0  0  0
  3  4  2  0  0  0  0
  4  5  1  0  0  0  0
  5  8  1  0  0  0  0
  6  5  2  0  0  0  0
  7  3  1  0  0  0  0
  9 11  1  0  0  0  0
 10  9  2  0  0  0  0
 11  2  1  0  0  0  0
 12 11  1  0  0  0  0
 13 14  1  0  0  0  0
 13  9  1  0  0  0  0
 14 15  1  0  0  0  0
 16 14  1  0  0  0  0
 17 16  1  0  0  0  0
 18 16  1  0  0  0  0
 19 18  1  0  0  0  0
 19 21  1  0  0  0  0
 20 19  1  0  0  0  0
 21 13  1  0  0  0  0
 22 21  1  0  0  0  0
 23  1  1  0  0  0  0
 24 25  1  0  0  0  0
 25 26  2  0  0  0  0
 25 23  1  0  0  0  0
 26 30  1  0  0  0  0
 27 31  1  0  0  0  0
 27 26  1  0  0  0  0
 28 27  2  0  0  0  0
 29 24  2  0  0  0  0
 29 28  1  0  0  0  0
 32 28  1  0  0  0  0
 33 29  1  0  0  0  0
 34 33  2  0  0  0  0
 34 38  1  0  0  0  0
 35 34  1  0  0  0  0
 36 35  2  0  0  0  0
 36 37  1  0  0  0  0
 37 33  1  0  0  0  0
 39 35  1  0  0  0  0
 40 36  1  0  0  0  0
 41 42  3  0  0  0  0
 42 24  1  0  0  0  0
M  END
>  <minimizedAffinity>
-5.95121717

>  <minimizedRMSD>
0.405487239

$$$$
