
 OpenBabel03272508573D

 41 44  0  0  1  0  0  0  0  0999 V2000
   38.7280   31.4640   44.0810 C   0  0  0  0  0  0  0  0  0  0  0  0
   39.8150   30.6240   44.0140 C   0  0  0  0  0  0  0  0  0  0  0  0
   40.5390   30.6050   42.8290 C   0  0  0  0  0  0  0  0  0  0  0  0
   40.1190   31.4290   41.8010 C   0  0  0  0  0  0  0  0  0  0  0  0
   39.0170   32.2760   41.8750 C   0  0  0  0  0  0  0  0  0  0  0  0
   38.3470   32.2610   43.0430 N   0  0  0  0  0  0  0  0  0  0  0  0
   40.1330   29.9850   44.8260 H   0  0  0  0  0  0  0  0  0  0  0  0
   41.3920   29.9650   42.7350 H   0  0  0  0  0  0  0  0  0  0  0  0
   40.6610   31.4370   40.8640 H   0  0  0  0  0  0  0  0  0  0  0  0
   37.9410   31.5230   45.3300 C   0  0  0  0  0  0  0  0  0  0  0  0
   36.9370   30.8290   45.5150 O   0  0  0  0  0  0  0  0  0  0  0  0
   38.4100   32.4510   46.3510 N   0  0  0  0  0  0  0  0  0  0  0  0
   39.1160   33.1870   46.1980 H   0  0  0  0  0  0  0  0  0  0  0  0
   38.4500   31.4700   48.6350 C   0  0  2  0  0  0  0  0  0  0  0  0
   38.7400   32.9200   48.7910 C   0  0  0  0  0  0  0  0  0  0  0  0
   37.8360   32.3260   47.6750 C   0  0  1  0  0  0  0  0  0  0  0  0
   39.3470   30.8650   48.3810 H   0  0  0  0  0  0  0  0  0  0  0  0
   38.2460   33.5080   49.5810 H   0  0  0  0  0  0  0  0  0  0  0  0
   39.7140   33.3110   48.4960 H   0  0  0  0  0  0  0  0  0  0  0  0
   36.7660   32.6170   47.7940 H   0  0  0  0  0  0  0  0  0  0  0  0
   35.5940   29.6220   50.1240 C   0  0  0  0  0  0  0  0  0  0  0  0
   36.0390   29.4300   51.4730 C   0  0  0  0  0  0  0  0  0  0  0  0
   37.3220   29.9540   51.8380 C   0  0  0  0  0  0  0  0  0  0  0  0
   38.0790   30.6160   50.9020 N   0  0  0  0  0  0  0  0  0  0  0  0
   37.5860   30.7570   49.6460 C   0  0  0  0  0  0  0  0  0  0  0  0
   36.3530   30.2760   49.2210 N   0  0  0  0  0  0  0  0  0  0  0  0
   34.6200   29.2080   49.9000 H   0  0  0  0  0  0  0  0  0  0  0  0
   35.4380   28.9090   52.1980 H   0  0  0  0  0  0  0  0  0  0  0  0
   37.6680   29.8150   52.8530 H   0  0  0  0  0  0  0  0  0  0  0  0
   38.6320   33.1160   40.7470 C   0  0  0  0  0  0  0  0  0  0  0  0
   38.6810   34.3610   40.8840 O   0  0  0  0  0  0  0  0  0  0  0  0
   38.1830   32.6550   39.4350 C   0  0  0  0  0  0  0  0  0  0  0  0
   37.2590   31.4570   39.6820 C   0  0  0  0  0  0  0  0  0  0  0  0
   36.5000   31.8270   40.3940 H   0  0  0  0  0  0  0  0  0  0  0  0
   36.6790   30.9620   38.3900 C   0  0  0  0  0  0  0  0  0  0  0  0
   35.9330   31.6740   37.9840 H   0  0  0  0  0  0  0  0  0  0  0  0
   37.7070   30.6650   37.5180 O   0  0  0  0  0  0  0  0  0  0  0  0
   38.5180   31.7470   37.2250 C   0  0  0  0  0  0  0  0  0  0  0  0
   37.8090   32.5890   36.9790 H   0  0  0  0  0  0  0  0  0  0  0  0
   39.2480   32.2050   38.4960 C   0  0  0  0  0  0  0  0  0  0  0  0
   39.8530   31.3640   38.8480 H   0  0  0  0  0  0  0  0  0  0  0  0
  1 10  1  0  0  0  0
  2  1  1  0  0  0  0
  2  7  1  0  0  0  0
  3  2  2  0  0  0  0
  4  5  2  0  0  0  0
  4  3  1  0  0  0  0
  5  6  1  0  0  0  0
  6  1  2  0  0  0  0
  8  3  1  0  0  0  0
  9  4  1  0  0  0  0
 10 11  2  0  0  0  0
 10 12  1  0  0  0  0
 12 16  1  0  0  0  0
 13 12  1  0  0  0  0
 14 17  1  6  0  0  0
 14 15  1  0  0  0  0
 14 25  1  0  0  0  0
 15 18  1  0  0  0  0
 16 20  1  1  0  0  0
 16 14  1  0  0  0  0
 16 15  1  0  0  0  0
 19 15  1  0  0  0  0
 21 22  1  0  0  0  0
 22 23  2  0  0  0  0
 22 28  1  0  0  0  0
 23 29  1  0  0  0  0
 24 23  1  0  0  0  0
 25 24  2  0  0  0  0
 26 25  1  0  0  0  0
 26 21  2  0  0  0  0
 27 21  1  0  0  0  0
 30 31  2  0  0  0  0
 30  5  1  0  0  0  0
 32 33  1  0  0  0  0
 32 30  1  0  0  0  0
 33 34  1  0  0  0  0
 35 33  1  0  0  0  0
 36 35  1  0  0  0  0
 37 35  1  0  0  0  0
 38 37  1  0  0  0  0
 38 40  1  0  0  0  0
 39 38  1  0  0  0  0
 40 41  1  0  0  0  0
 40 32  1  0  0  0  0
M  END
>  <minimizedAffinity>
-5.30898046

>  <minimizedRMSD>
1.33782423

$$$$
