
 OpenBabel03262522573D

 26 28  0  0  0  0  0  0  0  0999 V2000
   36.0890   30.0990   48.8470 C   0  0  0  0  0  0  0  0  0  0  0  0
   35.9750   29.1970   49.8800 C   0  0  0  0  0  0  0  0  0  0  0  0
   34.9270   28.3660   49.6490 C   0  0  0  0  0  0  0  0  0  0  0  0
   34.3850   28.7610   48.4500 N   0  0  0  0  0  0  0  0  0  0  0  0
   35.1010   29.7930   48.0040 N   0  0  0  0  0  0  0  0  0  0  0  0
   36.5910   29.1120   50.7660 H   0  0  0  0  0  0  0  0  0  0  0  0
   34.5440   27.5330   50.2570 H   0  0  0  0  0  0  0  0  0  0  0  0
   33.2620   28.2100   47.7600 C   0  0  0  0  0  0  0  0  0  0  0  0
   32.1120   27.8130   48.6460 C   0  0  0  0  0  0  0  0  0  0  0  0
   31.2920   28.5680   48.6360 H   0  0  0  0  0  0  0  0  0  0  0  0
   31.4940   26.5050   48.1970 C   0  0  0  0  0  0  0  0  0  0  0  0
   30.4680   26.4690   48.6360 H   0  0  0  0  0  0  0  0  0  0  0  0
   31.3360   26.4030   46.8320 O   0  0  0  0  0  0  0  0  0  0  0  0
   32.5010   26.5470   46.1060 C   0  0  0  0  0  0  0  0  0  0  0  0
   32.8180   25.6400   45.5680 H   0  0  0  0  0  0  0  0  0  0  0  0
   33.6690   26.9660   46.9950 C   0  0  0  0  0  0  0  0  0  0  0  0
   34.5330   27.1300   46.3400 H   0  0  0  0  0  0  0  0  0  0  0  0
   38.0360   33.1480   49.4250 C   0  0  0  0  0  0  0  0  0  0  0  0
   38.9860   33.0980   48.3690 C   0  0  0  0  0  0  0  0  0  0  0  0
   38.9380   32.0090   47.4740 C   0  0  0  0  0  0  0  0  0  0  0  0
   37.9800   31.0760   47.6840 N   0  0  0  0  0  0  0  0  0  0  0  0
   37.0810   31.1560   48.7110 C   0  0  0  0  0  0  0  0  0  0  0  0
   37.1200   32.1760   49.5560 N   0  0  0  0  0  0  0  0  0  0  0  0
   38.1090   34.0050   50.0910 H   0  0  0  0  0  0  0  0  0  0  0  0
   39.7470   33.8550   48.2170 H   0  0  0  0  0  0  0  0  0  0  0  0
   39.6340   31.9160   46.6520 H   0  0  0  0  0  0  0  0  0  0  0  0
  1  2  1  0  0  0  0
  2  6  1  0  0  0  0
  3  2  2  0  0  0  0
  3  7  1  0  0  0  0
  4  3  1  0  0  0  0
  5  4  1  0  0  0  0
  5  1  2  0  0  0  0
  8  4  1  0  0  0  0
  8  9  1  0  0  0  0
 10  9  1  0  0  0  0
 11 12  1  0  0  0  0
 11  9  1  0  0  0  0
 13 11  1  0  0  0  0
 14 13  1  0  0  0  0
 14 16  1  0  0  0  0
 15 14  1  0  0  0  0
 16  8  1  0  0  0  0
 17 16  1  0  0  0  0
 18 23  1  0  0  0  0
 18 24  1  0  0  0  0
 19 18  2  0  0  0  0
 20 21  2  0  0  0  0
 20 19  1  0  0  0  0
 21 22  1  0  0  0  0
 22  1  1  0  0  0  0
 22 23  2  0  0  0  0
 25 19  1  0  0  0  0
 26 20  1  0  0  0  0
M  END
>  <minimizedAffinity>
-5.01362085

>  <minimizedRMSD>
2.40076208

$$$$
