
 OpenBabel03272510133D

 42 45  0  0  0  0  0  0  0  0999 V2000
   38.3820   31.6180   48.8500 C   0  0  0  0  0  0  0  0  0  0  0  0
   38.5560   32.8800   49.3840 C   0  0  0  0  0  0  0  0  0  0  0  0
   39.1920   33.6500   48.4220 C   0  0  0  0  0  0  0  0  0  0  0  0
   39.3790   32.8460   47.3560 N   0  0  0  0  0  0  0  0  0  0  0  0
   38.9050   31.6610   47.6090 N   0  0  0  0  0  0  0  0  0  0  0  0
   38.3260   33.3730   50.3180 H   0  0  0  0  0  0  0  0  0  0  0  0
   39.5160   34.6940   48.4260 H   0  0  0  0  0  0  0  0  0  0  0  0
   40.0170   33.2360   46.1020 C   0  0  0  0  0  0  0  0  0  0  0  0
   39.2900   33.6700   45.4010 H   0  0  0  0  0  0  0  0  0  0  0  0
   40.7130   34.0750   46.3600 H   0  0  0  0  0  0  0  0  0  0  0  0
   40.7470   32.0310   45.5850 C   0  0  0  0  0  0  0  0  0  0  0  0
   40.5140   31.1920   46.2660 H   0  0  0  0  0  0  0  0  0  0  0  0
   41.8170   32.2410   45.5380 H   0  0  0  0  0  0  0  0  0  0  0  0
   40.2490   31.6410   44.1930 C   0  0  0  0  0  3  0  0  0  0  0  0
   39.4990   32.7450   43.5290 C   0  0  0  0  0  3  0  0  0  0  0  0
   39.4270   33.5840   44.2830 H   0  0  0  0  0  0  0  0  0  0  0  0
   38.1050   32.4300   43.1120 C   0  0  0  0  0  3  0  0  0  0  0  0
   37.8600   32.9550   42.1700 H   0  0  0  0  0  0  0  0  0  0  0  0
   37.8620   31.0800   42.8650 O   0  0  0  0  0  0  0  0  0  0  0  0
   38.0470   30.4470   44.1150 C   0  0  0  0  0  3  0  0  0  0  0  0
   37.6100   29.4460   44.1290 H   0  0  0  0  0  0  0  0  0  0  0  0
   39.5520   30.3260   44.2580 C   0  0  0  0  0  3  0  0  0  0  0  0
   39.7380   29.8630   45.2370 H   0  0  0  0  0  0  0  0  0  0  0  0
   37.7520   30.7210   49.7030 O   0  0  0  0  0  0  0  0  0  0  0  0
   34.1550   28.9410   48.4070 C   0  0  0  0  0  0  0  0  0  0  0  0
   34.9020   28.3930   49.4050 C   0  0  0  0  0  0  0  0  0  0  0  0
   36.0860   28.9110   49.8870 C   0  0  0  0  0  0  0  0  0  0  0  0
   36.5850   30.0600   49.3500 C   0  0  0  0  0  0  0  0  0  0  0  0
   35.8310   30.6320   48.3270 C   0  0  0  0  0  0  0  0  0  0  0  0
   34.6800   30.0840   47.8950 N   0  0  0  0  0  0  0  0  0  0  0  0
   34.5860   27.4780   49.8940 H   0  0  0  0  0  0  0  0  0  0  0  0
   36.6690   28.4630   50.6820 H   0  0  0  0  0  0  0  0  0  0  0  0
   36.0840   31.5440   47.7920 H   0  0  0  0  0  0  0  0  0  0  0  0
   32.0680   27.6030   48.6810 C   0  0  0  0  0  0  0  0  0  0  0  0
   32.9370   28.3940   47.9250 C   0  0  0  0  0  0  0  0  0  0  0  0
   32.5540   28.6360   46.6290 C   0  0  0  0  0  0  0  0  0  0  0  0
   31.3840   28.1200   46.1370 N   0  0  0  0  0  0  0  0  0  0  0  0
   30.5860   27.3600   46.9240 C   0  0  0  0  0  0  0  0  0  0  0  0
   30.9150   27.0860   48.2180 N   0  0  0  0  0  0  0  0  0  0  0  0
   32.3280   27.3860   49.7060 H   0  0  0  0  0  0  0  0  0  0  0  0
   33.1220   29.2290   45.9230 H   0  0  0  0  0  0  0  0  0  0  0  0
   29.6580   26.9280   46.5950 H   0  0  0  0  0  0  0  0  0  0  0  0
  1  2  1  0  0  0  0
  1 24  1  0  0  0  0
  2  6  1  0  0  0  0
  3  7  1  0  0  0  0
  3  2  2  0  0  0  0
  4  5  1  0  0  0  0
  4  3  1  0  0  0  0
  5  1  2  0  0  0  0
  8 10  1  0  0  0  0
  8  4  1  0  0  0  0
  9  8  1  0  0  0  0
 11  8  1  0  0  0  0
 11 12  1  0  0  0  0
 13 11  1  0  0  0  0
 14 22  1  0  0  0  0
 14 11  1  0  0  0  0
 15 14  1  0  0  0  0
 15 16  1  0  0  0  0
 17 15  1  0  0  0  0
 18 17  1  0  0  0  0
 19 17  1  0  0  0  0
 19 20  1  0  0  0  0
 20 21  1  0  0  0  0
 20 22  1  0  0  0  0
 22 23  1  0  0  0  0
 25 26  1  0  0  0  0
 26 27  2  0  0  0  0
 26 31  1  0  0  0  0
 27 32  1  0  0  0  0
 28 24  1  0  0  0  0
 28 27  1  0  0  0  0
 29 28  2  0  0  0  0
 30 29  1  0  0  0  0
 30 25  2  0  0  0  0
 33 29  1  0  0  0  0
 34 40  1  0  0  0  0
 35 25  1  0  0  0  0
 35 34  2  0  0  0  0
 36 35  1  0  0  0  0
 37 36  2  0  0  0  0
 37 38  1  0  0  0  0
 38 39  2  0  0  0  0
 39 34  1  0  0  0  0
 41 36  1  0  0  0  0
 42 38  1  0  0  0  0
M  END
>  <minimizedAffinity>
-6.23844481

>  <minimizedRMSD>
1.35422254

$$$$
