
 OpenBabel03272507423D

 42 45  0  0  0  0  0  0  0  0999 V2000
   36.4260   31.0690   49.9340 C   0  0  0  0  0  0  0  0  0  0  0  0
   35.3810   30.1900   49.6600 C   0  0  0  0  0  0  0  0  0  0  0  0
   35.1540   29.0930   50.4630 C   0  0  0  0  0  0  0  0  0  0  0  0
   35.9850   28.9080   51.5240 N   0  0  0  0  0  0  0  0  0  0  0  0
   37.0010   29.7750   51.7800 C   0  0  0  0  0  0  0  0  0  0  0  0
   37.2030   30.8250   50.9940 N   0  0  0  0  0  0  0  0  0  0  0  0
   34.3640   28.3710   50.3090 H   0  0  0  0  0  0  0  0  0  0  0  0
   37.6410   29.5840   52.6430 H   0  0  0  0  0  0  0  0  0  0  0  0
   34.1360   29.1350   47.8300 C   0  0  0  0  0  0  0  0  0  0  0  0
   34.5770   27.9200   47.8280 O   0  0  0  0  0  0  0  0  0  0  0  0
   34.4790   30.3030   48.5910 N   0  0  0  0  0  0  0  0  0  0  0  0
   33.9860   31.1560   48.2400 H   0  0  0  0  0  0  0  0  0  0  0  0
   33.0750   29.1360   46.7790 C   0  0  0  0  0  3  0  0  0  0  0  0
   32.8910   30.5300   46.2960 C   0  0  0  0  0  3  0  0  0  0  0  0
   33.6840   30.8150   45.5430 H   0  0  0  0  0  0  0  0  0  0  0  0
   31.5750   30.7780   45.6050 C   0  0  0  0  0  3  0  0  0  0  0  0
   30.9090   31.3820   46.2650 H   0  0  0  0  0  0  0  0  0  0  0  0
   30.8710   29.5920   45.3810 O   0  0  0  0  0  0  0  0  0  0  0  0
   30.5620   29.1220   46.6750 C   0  0  0  0  0  3  0  0  0  0  0  0
   29.7350   28.3850   46.6450 H   0  0  0  0  0  0  0  0  0  0  0  0
   31.8330   28.4040   47.1390 C   0  0  0  0  0  3  0  0  0  0  0  0
   31.6870   28.1890   48.2100 H   0  0  0  0  0  0  0  0  0  0  0  0
   36.4930   32.0820   49.0410 O   0  0  0  0  0  0  0  0  0  0  0  0
   38.0930   32.0630   47.1440 C   0  0  0  0  0  0  0  0  0  0  0  0
   37.6570   32.4820   48.3880 C   0  0  0  0  0  0  0  0  0  0  0  0
   38.4080   33.3960   49.1170 C   0  0  0  0  0  0  0  0  0  0  0  0
   39.5960   33.8810   48.5840 C   0  0  0  0  0  0  0  0  0  0  0  0
   40.0220   33.4550   47.3410 C   0  0  0  0  0  0  0  0  0  0  0  0
   39.2540   32.5550   46.6550 C   0  0  0  0  0  0  0  0  0  0  0  0
   38.1240   33.7630   50.0940 H   0  0  0  0  0  0  0  0  0  0  0  0
   40.1780   34.5900   49.1520 H   0  0  0  0  0  0  0  0  0  0  0  0
   40.9410   33.8120   46.8970 H   0  0  0  0  0  0  0  0  0  0  0  0
   39.7200   32.1030   45.3190 C   0  0  0  0  0  0  0  0  0  0  0  0
   40.5610   31.0850   44.9920 C   0  0  0  0  0  0  0  0  0  0  0  0
   40.6980   31.0500   43.6100 C   0  0  0  0  0  0  0  0  0  0  0  0
   39.9080   32.0800   43.1730 C   0  0  0  0  0  0  0  0  0  0  0  0
   39.3310   32.6990   44.2010 O   0  0  0  0  0  0  0  0  0  0  0  0
   41.0420   30.4160   45.6950 H   0  0  0  0  0  0  0  0  0  0  0  0
   41.2940   30.3670   42.9970 H   0  0  0  0  0  0  0  0  0  0  0  0
   39.7500   32.3790   42.1270 H   0  0  0  0  0  0  0  0  0  0  0  0
   36.6000   30.3810   45.9010 N   0  0  0  0  0  0  0  0  0  0  0  0
   37.2630   31.1250   46.4620 C   0  0  0  0  0  0  0  0  0  0  0  0
  1  6  1  0  0  0  0
  2  1  2  0  0  0  0
  2  3  1  0  0  0  0
  3  4  2  0  0  0  0
  4  5  1  0  0  0  0
  5  8  1  0  0  0  0
  6  5  2  0  0  0  0
  7  3  1  0  0  0  0
  9 11  1  0  0  0  0
 10  9  2  0  0  0  0
 11  2  1  0  0  0  0
 12 11  1  0  0  0  0
 13 21  1  0  0  0  0
 13  9  1  0  0  0  0
 14 13  1  0  0  0  0
 15 14  1  0  0  0  0
 16 17  1  0  0  0  0
 16 14  1  0  0  0  0
 18 16  1  0  0  0  0
 18 19  1  0  0  0  0
 19 21  1  0  0  0  0
 20 19  1  0  0  0  0
 21 22  1  0  0  0  0
 23  1  1  0  0  0  0
 24 25  1  0  0  0  0
 25 23  1  0  0  0  0
 25 26  2  0  0  0  0
 26 30  1  0  0  0  0
 27 26  1  0  0  0  0
 27 31  1  0  0  0  0
 28 27  2  0  0  0  0
 29 24  2  0  0  0  0
 29 28  1  0  0  0  0
 32 28  1  0  0  0  0
 33 29  1  0  0  0  0
 34 33  2  0  0  0  0
 34 38  1  0  0  0  0
 35 34  1  0  0  0  0
 36 35  2  0  0  0  0
 36 37  1  0  0  0  0
 37 33  1  0  0  0  0
 39 35  1  0  0  0  0
 40 36  1  0  0  0  0
 41 42  3  0  0  0  0
 42 24  1  0  0  0  0
M  END
>  <minimizedAffinity>
-5.88899422

>  <minimizedRMSD>
0.690085888

$$$$
