
 OpenBabel03272503213D

 38 41  0  0  0  0  0  0  0  0999 V2000
   38.6720   24.6840   31.1780 C   0  0  0  0  0  0  0  0  0  0  0  0
   38.0510   25.9300   31.3670 C   0  0  0  0  0  0  0  0  0  0  0  0
   37.4700   26.1720   32.6320 C   0  0  0  0  0  0  0  0  0  0  0  0
   37.5390   25.2210   33.5610 N   0  0  0  0  0  0  0  0  0  0  0  0
   38.1380   24.0430   33.3530 C   0  0  0  0  0  0  0  0  0  0  0  0
   38.6960   23.7820   32.1750 N   0  0  0  0  0  0  0  0  0  0  0  0
   39.1110   24.5280   30.1940 H   0  0  0  0  0  0  0  0  0  0  0  0
   37.9770   26.7190   30.6380 H   0  0  0  0  0  0  0  0  0  0  0  0
   36.7990   27.4550   32.9110 C   0  0  0  0  0  0  0  0  0  0  0  0
   36.3150   28.4040   32.1190 C   0  0  0  0  0  0  0  0  0  0  0  0
   35.7430   29.4930   32.6540 C   0  0  0  0  0  0  0  0  0  0  0  0
   35.6800   29.5780   34.0240 C   0  0  0  0  0  0  0  0  0  0  0  0
   36.4870   28.0150   34.5420 S   0  0  0  0  0  0  0  0  0  0  0  0
   36.4060   28.2570   31.0470 H   0  0  0  0  0  0  0  0  0  0  0  0
   35.3100   30.3380   32.1320 H   0  0  0  0  0  0  0  0  0  0  0  0
   32.7020   29.3360   34.6260 Cl  0  0  0  0  0  0  0  0  0  0  0  0
   33.8350   30.5130   35.2630 C   0  0  0  0  0  0  0  0  0  0  0  0
   35.1590   30.5590   34.9470 C   0  0  0  0  0  0  0  0  0  0  0  0
   36.0590   31.4380   35.4090 C   0  0  0  0  0  0  0  0  0  0  0  0
   35.6140   32.4170   36.3090 C   0  0  0  0  0  0  0  0  0  0  0  0
   34.3050   32.4360   36.6730 C   0  0  0  0  0  0  0  0  0  0  0  0
   33.7080   33.6380   37.7940 Cl  0  0  0  0  0  0  0  0  0  0  0  0
   33.4170   31.4920   36.1580 C   0  0  0  0  0  0  0  0  0  0  0  0
   37.1130   31.4550   35.1400 H   0  0  0  0  0  0  0  0  0  0  0  0
   36.3290   33.1540   36.7070 H   0  0  0  0  0  0  0  0  0  0  0  0
   32.3800   31.5540   36.4830 H   0  0  0  0  0  0  0  0  0  0  0  0
   38.1520   23.0840   34.4400 C   0  0  0  0  0  0  0  0  0  0  0  0
   37.9550   21.8730   34.1860 O   0  0  0  0  0  0  0  0  0  0  0  0
   38.4020   23.5910   35.8060 C   0  0  0  0  0  3  0  0  0  0  0  0
   37.5020   23.0450   36.8610 C   0  0  0  0  0  3  0  0  0  0  0  0
   37.7190   21.9640   37.0110 H   0  0  0  0  0  0  0  0  0  0  0  0
   37.8770   23.7880   38.1480 C   0  0  0  0  0  3  0  0  0  0  0  0
   37.1050   23.7280   38.9160 H   0  0  0  0  0  0  0  0  0  0  0  0
   39.1560   23.4620   38.5750 O   0  0  0  0  0  0  0  0  0  0  0  0
   39.8970   22.7560   37.6560 C   0  0  0  0  0  3  0  0  0  0  0  0
   40.9640   22.8200   37.9590 H   0  0  0  0  0  0  0  0  0  0  0  0
   39.8260   23.3070   36.2560 C   0  0  0  0  0  3  0  0  0  0  0  0
   40.5130   24.1430   36.0630 H   0  0  0  0  0  0  0  0  0  0  0  0
  1  2  2  0  0  0  0
  1  6  1  0  0  0  0
  2  3  1  0  0  0  0
  3  9  1  0  0  0  0
  3  4  2  0  0  0  0
  5  4  1  0  0  0  0
  5 27  1  0  0  0  0
  6  5  2  0  0  0  0
  7  1  1  0  0  0  0
  8  2  1  0  0  0  0
  9 13  1  0  0  0  0
 10 11  1  0  0  0  0
 10  9  2  0  0  0  0
 11 12  2  0  0  0  0
 12 13  1  0  0  0  0
 12 18  1  0  0  0  0
 14 10  1  0  0  0  0
 15 11  1  0  0  0  0
 16 17  1  0  0  0  0
 17 23  1  0  0  0  0
 18 17  2  0  0  0  0
 18 19  1  0  0  0  0
 19 20  2  0  0  0  0
 20 21  1  0  0  0  0
 20 25  1  0  0  0  0
 21 22  1  0  0  0  0
 23 26  1  0  0  0  0
 23 21  2  0  0  0  0
 24 19  1  0  0  0  0
 27 29  1  0  0  0  0
 28 27  2  0  0  0  0
 29 37  1  0  0  0  0
 29 30  1  0  0  0  0
 30 31  1  0  0  0  0
 30 32  1  0  0  0  0
 32 34  1  0  0  0  0
 32 33  1  0  0  0  0
 35 36  1  0  0  0  0
 35 34  1  0  0  0  0
 37 35  1  0  0  0  0
 38 37  1  0  0  0  0
M  END
>  <minimizedAffinity>
-6.53031492

$$$$

 OpenBabel03272503213D

 38 41  0  0  0  0  0  0  0  0999 V2000
   36.1080   28.8390   31.1340 C   0  0  0  0  0  0  0  0  0  0  0  0
   36.9620   28.0840   31.9570 C   0  0  0  0  0  0  0  0  0  0  0  0
   36.6850   28.0890   33.3430 C   0  0  0  0  0  0  0  0  0  0  0  0
   35.6480   28.7960   33.7870 N   0  0  0  0  0  0  0  0  0  0  0  0
   34.8520   29.5040   32.9790 C   0  0  0  0  0  0  0  0  0  0  0  0
   35.0830   29.5220   31.6700 N   0  0  0  0  0  0  0  0  0  0  0  0
   36.3470   28.8150   30.0720 H   0  0  0  0  0  0  0  0  0  0  0  0
   37.8080   27.5030   31.6310 H   0  0  0  0  0  0  0  0  0  0  0  0
   37.5330   27.3230   34.2740 C   0  0  0  0  0  0  0  0  0  0  0  0
   38.0170   27.6000   35.4790 C   0  0  0  0  0  0  0  0  0  0  0  0
   38.7800   26.6980   36.1160 C   0  0  0  0  0  0  0  0  0  0  0  0
   39.0300   25.5050   35.4810 C   0  0  0  0  0  0  0  0  0  0  0  0
   38.1190   25.7130   33.9030 S   0  0  0  0  0  0  0  0  0  0  0  0
   37.7720   28.5660   35.9090 H   0  0  0  0  0  0  0  0  0  0  0  0
   39.2380   26.7900   37.0940 H   0  0  0  0  0  0  0  0  0  0  0  0
   37.6640   23.6420   37.4700 Cl  0  0  0  0  0  0  0  0  0  0  0  0
   39.2330   23.4410   36.7110 C   0  0  0  0  0  0  0  0  0  0  0  0
   39.7800   24.3210   35.8270 C   0  0  0  0  0  0  0  0  0  0  0  0
   40.9710   24.2080   35.2240 C   0  0  0  0  0  0  0  0  0  0  0  0
   41.7490   23.0790   35.5200 C   0  0  0  0  0  0  0  0  0  0  0  0
   41.2700   22.1550   36.3940 C   0  0  0  0  0  0  0  0  0  0  0  0
   42.2050   20.7310   36.7900 Cl  0  0  0  0  0  0  0  0  0  0  0  0
   40.0200   22.3290   36.9880 C   0  0  0  0  0  0  0  0  0  0  0  0
   41.3880   24.9260   34.5210 H   0  0  0  0  0  0  0  0  0  0  0  0
   42.7330   22.9560   35.0420 H   0  0  0  0  0  0  0  0  0  0  0  0
   39.6860   21.5580   37.6810 H   0  0  0  0  0  0  0  0  0  0  0  0
   33.7510   30.2360   33.5770 C   0  0  0  0  0  0  0  0  0  0  0  0
   32.8210   30.6410   32.8430 O   0  0  0  0  0  0  0  0  0  0  0  0
   33.7860   30.4650   35.0370 C   0  0  0  0  0  3  0  0  0  0  0  0
   33.8940   31.8910   35.4530 C   0  0  0  0  0  3  0  0  0  0  0  0
   32.9530   32.4260   35.1940 H   0  0  0  0  0  0  0  0  0  0  0  0
   34.0200   31.8660   36.9810 C   0  0  0  0  0  3  0  0  0  0  0  0
   34.4200   32.7940   37.3920 H   0  0  0  0  0  0  0  0  0  0  0  0
   32.8560   31.4110   37.5840 O   0  0  0  0  0  0  0  0  0  0  0  0
   31.9460   30.8580   36.7150 C   0  0  0  0  0  3  0  0  0  0  0  0
   31.2220   30.2640   37.3130 H   0  0  0  0  0  0  0  0  0  0  0  0
   32.5510   29.9020   35.7200 C   0  0  0  0  0  3  0  0  0  0  0  0
   32.6970   28.8820   36.1040 H   0  0  0  0  0  0  0  0  0  0  0  0
  1  6  2  0  0  0  0
  1  2  1  0  0  0  0
  2  3  2  0  0  0  0
  3  4  1  0  0  0  0
  3  9  1  0  0  0  0
  5 27  1  0  0  0  0
  5  4  2  0  0  0  0
  6  5  1  0  0  0  0
  7  1  1  0  0  0  0
  8  2  1  0  0  0  0
  9 10  2  0  0  0  0
 10 14  1  0  0  0  0
 10 11  1  0  0  0  0
 11 15  1  0  0  0  0
 12 18  1  0  0  0  0
 12 11  2  0  0  0  0
 13  9  1  0  0  0  0
 13 12  1  0  0  0  0
 17 23  1  0  0  0  0
 17 16  1  0  0  0  0
 18 17  2  0  0  0  0
 19 20  2  0  0  0  0
 19 18  1  0  0  0  0
 20 21  1  0  0  0  0
 21 22  1  0  0  0  0
 21 23  2  0  0  0  0
 23 26  1  0  0  0  0
 24 19  1  0  0  0  0
 25 20  1  0  0  0  0
 27 29  1  0  0  0  0
 28 27  2  0  0  0  0
 29 30  1  0  0  0  0
 29 37  1  0  0  0  0
 30 32  1  0  0  0  0
 31 30  1  0  0  0  0
 32 33  1  0  0  0  0
 32 34  1  0  0  0  0
 35 36  1  0  0  0  0
 35 34  1  0  0  0  0
 37 38  1  0  0  0  0
 37 35  1  0  0  0  0
M  END
>  <minimizedAffinity>
-6.32037592

$$$$

 OpenBabel03272503213D

 38 41  0  0  0  0  0  0  0  0999 V2000
   35.9420   29.5880   31.6570 C   0  0  0  0  0  0  0  0  0  0  0  0
   36.5130   28.3200   31.8580 C   0  0  0  0  0  0  0  0  0  0  0  0
   36.6720   27.8940   33.1960 C   0  0  0  0  0  0  0  0  0  0  0  0
   36.2800   28.7030   34.1780 N   0  0  0  0  0  0  0  0  0  0  0  0
   35.7380   29.9060   33.9560 C   0  0  0  0  0  0  0  0  0  0  0  0
   35.5740   30.3390   32.7090 N   0  0  0  0  0  0  0  0  0  0  0  0
   35.8320   29.8880   30.6160 H   0  0  0  0  0  0  0  0  0  0  0  0
   36.8410   27.6420   31.0880 H   0  0  0  0  0  0  0  0  0  0  0  0
   37.2630   26.5760   33.4930 C   0  0  0  0  0  0  0  0  0  0  0  0
   37.1440   25.3890   32.9100 C   0  0  0  0  0  0  0  0  0  0  0  0
   37.8110   24.3340   33.4020 C   0  0  0  0  0  0  0  0  0  0  0  0
   38.6030   24.5330   34.5070 C   0  0  0  0  0  0  0  0  0  0  0  0
   38.3610   26.3210   34.8350 S   0  0  0  0  0  0  0  0  0  0  0  0
   36.4970   25.3190   32.0400 H   0  0  0  0  0  0  0  0  0  0  0  0
   37.8080   23.3160   33.0300 H   0  0  0  0  0  0  0  0  0  0  0  0
   37.5670   23.9320   37.3100 Cl  0  0  0  0  0  0  0  0  0  0  0  0
   39.0510   23.3640   36.5680 C   0  0  0  0  0  0  0  0  0  0  0  0
   39.4490   23.6760   35.3040 C   0  0  0  0  0  0  0  0  0  0  0  0
   40.5720   23.2650   34.6970 C   0  0  0  0  0  0  0  0  0  0  0  0
   41.4370   22.4300   35.4200 C   0  0  0  0  0  0  0  0  0  0  0  0
   41.1070   22.0750   36.6890 C   0  0  0  0  0  0  0  0  0  0  0  0
   42.1560   21.0350   37.6260 Cl  0  0  0  0  0  0  0  0  0  0  0  0
   39.9230   22.5350   37.2650 C   0  0  0  0  0  0  0  0  0  0  0  0
   40.8700   23.5290   33.6840 H   0  0  0  0  0  0  0  0  0  0  0  0
   42.3680   22.0760   34.9510 H   0  0  0  0  0  0  0  0  0  0  0  0
   39.7090   22.2190   38.2840 H   0  0  0  0  0  0  0  0  0  0  0  0
   35.3480   30.7010   35.1040 C   0  0  0  0  0  0  0  0  0  0  0  0
   36.2350   31.1300   35.8760 O   0  0  0  0  0  0  0  0  0  0  0  0
   33.9070   30.9650   35.3030 C   0  0  0  0  0  3  0  0  0  0  0  0
   33.0220   29.7720   35.1970 C   0  0  0  0  0  3  0  0  0  0  0  0
   33.2150   29.0880   36.0540 H   0  0  0  0  0  0  0  0  0  0  0  0
   31.5910   30.3070   35.3310 C   0  0  0  0  0  3  0  0  0  0  0  0
   30.8380   29.6100   34.9600 H   0  0  0  0  0  0  0  0  0  0  0  0
   31.3490   30.8120   36.6000 O   0  0  0  0  0  0  0  0  0  0  0  0
   32.4740   30.9560   37.3770 C   0  0  0  0  0  3  0  0  0  0  0  0
   32.2210   31.6350   38.2190 H   0  0  0  0  0  0  0  0  0  0  0  0
   33.6370   31.5920   36.6620 C   0  0  0  0  0  3  0  0  0  0  0  0
   33.6040   32.6900   36.6310 H   0  0  0  0  0  0  0  0  0  0  0  0
  1  2  2  0  0  0  0
  1  6  1  0  0  0  0
  2  3  1  0  0  0  0
  3  9  1  0  0  0  0
  3  4  2  0  0  0  0
  5  4  1  0  0  0  0
  5 27  1  0  0  0  0
  6  5  2  0  0  0  0
  7  1  1  0  0  0  0
  8  2  1  0  0  0  0
  9 13  1  0  0  0  0
 10 11  1  0  0  0  0
 10  9  2  0  0  0  0
 11 12  2  0  0  0  0
 12 13  1  0  0  0  0
 12 18  1  0  0  0  0
 14 10  1  0  0  0  0
 15 11  1  0  0  0  0
 17 23  1  0  0  0  0
 17 16  1  0  0  0  0
 18 17  2  0  0  0  0
 19 18  1  0  0  0  0
 19 20  2  0  0  0  0
 20 21  1  0  0  0  0
 21 23  2  0  0  0  0
 21 22  1  0  0  0  0
 23 26  1  0  0  0  0
 24 19  1  0  0  0  0
 25 20  1  0  0  0  0
 27 29  1  0  0  0  0
 27 28  2  0  0  0  0
 29 37  1  0  0  0  0
 30 29  1  0  0  0  0
 30 32  1  0  0  0  0
 30 31  1  0  0  0  0
 32 34  1  0  0  0  0
 33 32  1  0  0  0  0
 34 35  1  0  0  0  0
 35 36  1  0  0  0  0
 37 35  1  0  0  0  0
 38 37  1  0  0  0  0
M  END
>  <minimizedAffinity>
-6.22158241

$$$$

 OpenBabel03272503213D

 38 41  0  0  0  0  0  0  0  0999 V2000
   39.1800   24.8800   32.8930 C   0  0  0  0  0  0  0  0  0  0  0  0
   38.6710   26.1610   33.1660 C   0  0  0  0  0  0  0  0  0  0  0  0
   37.3020   26.3780   32.8900 C   0  0  0  0  0  0  0  0  0  0  0  0
   36.5810   25.3750   32.3920 N   0  0  0  0  0  0  0  0  0  0  0  0
   37.0940   24.1650   32.1430 C   0  0  0  0  0  0  0  0  0  0  0  0
   38.3780   23.9260   32.3920 N   0  0  0  0  0  0  0  0  0  0  0  0
   40.2370   24.7440   33.1170 H   0  0  0  0  0  0  0  0  0  0  0  0
   39.2250   26.9930   33.5670 H   0  0  0  0  0  0  0  0  0  0  0  0
   36.6890   27.6940   33.1490 C   0  0  0  0  0  0  0  0  0  0  0  0
   36.2760   28.6640   32.3420 C   0  0  0  0  0  0  0  0  0  0  0  0
   35.7440   29.7820   32.8590 C   0  0  0  0  0  0  0  0  0  0  0  0
   35.6480   29.8740   34.2270 C   0  0  0  0  0  0  0  0  0  0  0  0
   36.3600   28.2740   34.7700 S   0  0  0  0  0  0  0  0  0  0  0  0
   36.3890   28.5100   31.2730 H   0  0  0  0  0  0  0  0  0  0  0  0
   35.3690   30.6460   32.3240 H   0  0  0  0  0  0  0  0  0  0  0  0
   32.7660   29.4890   35.1390 Cl  0  0  0  0  0  0  0  0  0  0  0  0
   33.8710   30.7760   35.5830 C   0  0  0  0  0  0  0  0  0  0  0  0
   35.1510   30.8820   35.1330 C   0  0  0  0  0  0  0  0  0  0  0  0
   36.0290   31.8460   35.4450 C   0  0  0  0  0  0  0  0  0  0  0  0
   35.6060   32.8560   36.3220 C   0  0  0  0  0  0  0  0  0  0  0  0
   34.3400   32.8180   36.8130 C   0  0  0  0  0  0  0  0  0  0  0  0
   33.7720   34.0570   37.9110 Cl  0  0  0  0  0  0  0  0  0  0  0  0
   33.4740   31.7870   36.4510 C   0  0  0  0  0  0  0  0  0  0  0  0
   37.0490   31.9100   35.0710 H   0  0  0  0  0  0  0  0  0  0  0  0
   36.3030   33.6630   36.5980 H   0  0  0  0  0  0  0  0  0  0  0  0
   32.4710   31.8070   36.8750 H   0  0  0  0  0  0  0  0  0  0  0  0
   36.2130   23.1490   31.6010 C   0  0  0  0  0  0  0  0  0  0  0  0
   35.3540   23.4790   30.7520 O   0  0  0  0  0  0  0  0  0  0  0  0
   36.3770   21.7630   32.0860 C   0  0  0  0  0  3  0  0  0  0  0  0
   35.1460   21.1360   32.6450 C   0  0  0  0  0  3  0  0  0  0  0  0
   34.4090   20.9710   31.8290 H   0  0  0  0  0  0  0  0  0  0  0  0
   35.5860   19.7640   33.1720 C   0  0  0  0  0  3  0  0  0  0  0  0
   34.8780   19.3330   33.8820 H   0  0  0  0  0  0  0  0  0  0  0  0
   35.9730   18.9190   32.1420 O   0  0  0  0  0  0  0  0  0  0  0  0
   36.1190   19.5400   30.9240 C   0  0  0  0  0  3  0  0  0  0  0  0
   36.7130   18.8680   30.2690 H   0  0  0  0  0  0  0  0  0  0  0  0
   36.8760   20.8410   30.9850 C   0  0  0  0  0  3  0  0  0  0  0  0
   37.9700   20.7290   30.9790 H   0  0  0  0  0  0  0  0  0  0  0  0
  1  7  1  0  0  0  0
  1  2  1  0  0  0  0
  2  8  1  0  0  0  0
  3  9  1  0  0  0  0
  3  2  2  0  0  0  0
  4  3  1  0  0  0  0
  5  6  1  0  0  0  0
  5  4  2  0  0  0  0
  6  1  2  0  0  0  0
  9 13  1  0  0  0  0
 10 11  1  0  0  0  0
 10  9  2  0  0  0  0
 11 12  2  0  0  0  0
 12 13  1  0  0  0  0
 12 18  1  0  0  0  0
 14 10  1  0  0  0  0
 15 11  1  0  0  0  0
 16 17  1  0  0  0  0
 17 23  1  0  0  0  0
 18 19  1  0  0  0  0
 18 17  2  0  0  0  0
 19 20  2  0  0  0  0
 20 25  1  0  0  0  0
 20 21  1  0  0  0  0
 21 22  1  0  0  0  0
 23 21  2  0  0  0  0
 23 26  1  0  0  0  0
 24 19  1  0  0  0  0
 27 29  1  0  0  0  0
 27  5  1  0  0  0  0
 28 27  2  0  0  0  0
 29 30  1  0  0  0  0
 30 32  1  0  0  0  0
 31 30  1  0  0  0  0
 32 33  1  0  0  0  0
 34 32  1  0  0  0  0
 35 37  1  0  0  0  0
 35 34  1  0  0  0  0
 36 35  1  0  0  0  0
 37 29  1  0  0  0  0
 38 37  1  0  0  0  0
M  END
>  <minimizedAffinity>
-6.18088198

$$$$

 OpenBabel03272503213D

 38 41  0  0  0  0  0  0  0  0999 V2000
   35.7510   30.6420   30.9420 C   0  0  0  0  0  0  0  0  0  0  0  0
   36.2710   29.3400   31.0310 C   0  0  0  0  0  0  0  0  0  0  0  0
   35.6620   28.4700   31.9640 C   0  0  0  0  0  0  0  0  0  0  0  0
   34.6480   28.9240   32.6970 N   0  0  0  0  0  0  0  0  0  0  0  0
   34.1740   30.1700   32.5900 C   0  0  0  0  0  0  0  0  0  0  0  0
   34.7220   31.0150   31.7220 N   0  0  0  0  0  0  0  0  0  0  0  0
   36.2390   31.2880   30.2140 H   0  0  0  0  0  0  0  0  0  0  0  0
   37.0880   28.9420   30.4540 H   0  0  0  0  0  0  0  0  0  0  0  0
   36.1480   27.0860   32.1190 C   0  0  0  0  0  0  0  0  0  0  0  0
   37.0310   26.5340   32.9420 C   0  0  0  0  0  0  0  0  0  0  0  0
   37.2870   25.2190   32.8620 C   0  0  0  0  0  0  0  0  0  0  0  0
   36.6100   24.4890   31.9150 C   0  0  0  0  0  0  0  0  0  0  0  0
   35.5680   25.7710   31.1170 S   0  0  0  0  0  0  0  0  0  0  0  0
   37.5220   27.1830   33.6620 H   0  0  0  0  0  0  0  0  0  0  0  0
   37.9770   24.6410   33.4650 H   0  0  0  0  0  0  0  0  0  0  0  0
   39.1620   23.5170   30.5620 Cl  0  0  0  0  0  0  0  0  0  0  0  0
   37.7160   22.5920   30.9200 C   0  0  0  0  0  0  0  0  0  0  0  0
   36.6090   23.0980   31.5310 C   0  0  0  0  0  0  0  0  0  0  0  0
   35.4850   22.4290   31.8240 C   0  0  0  0  0  0  0  0  0  0  0  0
   35.4220   21.0720   31.4750 C   0  0  0  0  0  0  0  0  0  0  0  0
   36.4880   20.4960   30.8620 C   0  0  0  0  0  0  0  0  0  0  0  0
   36.4520   18.8060   30.4110 Cl  0  0  0  0  0  0  0  0  0  0  0  0
   37.6310   21.2450   30.5840 C   0  0  0  0  0  0  0  0  0  0  0  0
   34.6110   22.8560   32.3130 H   0  0  0  0  0  0  0  0  0  0  0  0
   34.5120   20.4950   31.7020 H   0  0  0  0  0  0  0  0  0  0  0  0
   38.4560   20.7330   30.0920 H   0  0  0  0  0  0  0  0  0  0  0  0
   33.0640   30.5530   33.4410 C   0  0  0  0  0  0  0  0  0  0  0  0
   31.9630   30.8330   32.9140 O   0  0  0  0  0  0  0  0  0  0  0  0
   33.2940   30.5930   34.9000 C   0  0  0  0  0  3  0  0  0  0  0  0
   32.9330   31.8760   35.5660 C   0  0  0  0  0  3  0  0  0  0  0  0
   31.8280   32.0100   35.5380 H   0  0  0  0  0  0  0  0  0  0  0  0
   33.3550   31.7130   37.0310 C   0  0  0  0  0  3  0  0  0  0  0  0
   33.4460   32.6650   37.5570 H   0  0  0  0  0  0  0  0  0  0  0  0
   32.5920   30.7540   37.6810 O   0  0  0  0  0  0  0  0  0  0  0  0
   31.8090   29.9910   36.8470 C   0  0  0  0  0  3  0  0  0  0  0  0
   31.4960   29.0850   37.4090 H   0  0  0  0  0  0  0  0  0  0  0  0
   32.5240   29.4950   35.6170 C   0  0  0  0  0  3  0  0  0  0  0  0
   33.1180   28.5840   35.7760 H   0  0  0  0  0  0  0  0  0  0  0  0
  1  2  2  0  0  0  0
  1  6  1  0  0  0  0
  2  3  1  0  0  0  0
  3  9  1  0  0  0  0
  3  4  2  0  0  0  0
  5  4  1  0  0  0  0
  5 27  1  0  0  0  0
  6  5  2  0  0  0  0
  7  1  1  0  0  0  0
  8  2  1  0  0  0  0
  9 10  2  0  0  0  0
 10 14  1  0  0  0  0
 11 10  1  0  0  0  0
 11 15  1  0  0  0  0
 12 11  2  0  0  0  0
 13 12  1  0  0  0  0
 13  9  1  0  0  0  0
 16 17  1  0  0  0  0
 17 18  1  0  0  0  0
 18 19  2  0  0  0  0
 18 12  1  0  0  0  0
 19 24  1  0  0  0  0
 20 25  1  0  0  0  0
 20 19  1  0  0  0  0
 21 20  2  0  0  0  0
 22 21  1  0  0  0  0
 23 21  1  0  0  0  0
 23 17  2  0  0  0  0
 26 23  1  0  0  0  0
 27 29  1  0  0  0  0
 28 27  2  0  0  0  0
 29 30  1  0  0  0  0
 29 37  1  0  0  0  0
 30 32  1  0  0  0  0
 31 30  1  0  0  0  0
 32 33  1  0  0  0  0
 32 34  1  0  0  0  0
 35 36  1  0  0  0  0
 35 34  1  0  0  0  0
 37 38  1  0  0  0  0
 37 35  1  0  0  0  0
M  END
>  <minimizedAffinity>
-5.91002369

$$$$

 OpenBabel03272503213D

 38 41  0  0  0  0  0  0  0  0999 V2000
   40.1640   25.9820   31.6100 C   0  0  0  0  0  0  0  0  0  0  0  0
   39.2100   27.0090   31.7010 C   0  0  0  0  0  0  0  0  0  0  0  0
   38.1810   26.8450   32.6560 C   0  0  0  0  0  0  0  0  0  0  0  0
   38.1720   25.7440   33.4050 N   0  0  0  0  0  0  0  0  0  0  0  0
   39.0950   24.7830   33.2970 C   0  0  0  0  0  0  0  0  0  0  0  0
   40.0780   24.9050   32.4080 N   0  0  0  0  0  0  0  0  0  0  0  0
   40.9440   26.1380   30.8660 H   0  0  0  0  0  0  0  0  0  0  0  0
   39.1880   27.9100   31.1110 H   0  0  0  0  0  0  0  0  0  0  0  0
   37.1400   27.8770   32.8150 C   0  0  0  0  0  0  0  0  0  0  0  0
   36.6660   28.8050   31.9930 C   0  0  0  0  0  0  0  0  0  0  0  0
   35.6940   29.6320   32.4090 C   0  0  0  0  0  0  0  0  0  0  0  0
   35.2230   29.4770   33.6900 C   0  0  0  0  0  0  0  0  0  0  0  0
   36.2370   28.0770   34.3040 S   0  0  0  0  0  0  0  0  0  0  0  0
   37.0950   28.8600   30.9970 H   0  0  0  0  0  0  0  0  0  0  0  0
   35.2180   30.4290   31.8490 H   0  0  0  0  0  0  0  0  0  0  0  0
   36.2980   31.3880   35.8070 Cl  0  0  0  0  0  0  0  0  0  0  0  0
   34.6220   31.0170   35.4440 C   0  0  0  0  0  0  0  0  0  0  0  0
   34.2170   30.1480   34.4780 C   0  0  0  0  0  0  0  0  0  0  0  0
   32.9510   29.8360   34.1670 C   0  0  0  0  0  0  0  0  0  0  0  0
   31.9270   30.4550   34.8980 C   0  0  0  0  0  0  0  0  0  0  0  0
   32.2530   31.3350   35.8800 C   0  0  0  0  0  0  0  0  0  0  0  0
   31.0070   32.1310   36.8150 Cl  0  0  0  0  0  0  0  0  0  0  0  0
   33.5900   31.6200   36.1550 C   0  0  0  0  0  0  0  0  0  0  0  0
   32.6520   29.1360   33.3890 H   0  0  0  0  0  0  0  0  0  0  0  0
   30.8760   30.2190   34.6670 H   0  0  0  0  0  0  0  0  0  0  0  0
   33.7940   32.3330   36.9530 H   0  0  0  0  0  0  0  0  0  0  0  0
   38.9840   23.6280   34.1670 C   0  0  0  0  0  0  0  0  0  0  0  0
   38.9610   22.4840   33.6590 O   0  0  0  0  0  0  0  0  0  0  0  0
   38.9020   23.8660   35.6230 C   0  0  0  0  0  3  0  0  0  0  0  0
   37.8200   23.1240   36.3280 C   0  0  0  0  0  3  0  0  0  0  0  0
   38.0510   22.0350   36.3210 H   0  0  0  0  0  0  0  0  0  0  0  0
   37.8670   23.6090   37.7820 C   0  0  0  0  0  3  0  0  0  0  0  0
   36.9480   23.3990   38.3320 H   0  0  0  0  0  0  0  0  0  0  0  0
   39.0350   23.2140   38.4170 O   0  0  0  0  0  0  0  0  0  0  0  0
   39.9930   22.7020   37.5750 C   0  0  0  0  0  3  0  0  0  0  0  0
   40.9630   22.7120   38.1160 H   0  0  0  0  0  0  0  0  0  0  0  0
   40.2050   23.5100   36.3220 C   0  0  0  0  0  3  0  0  0  0  0  0
   40.8770   24.3710   36.4470 H   0  0  0  0  0  0  0  0  0  0  0  0
  1  2  2  0  0  0  0
  1  6  1  0  0  0  0
  2  3  1  0  0  0  0
  3  9  1  0  0  0  0
  3  4  2  0  0  0  0
  5  4  1  0  0  0  0
  5 27  1  0  0  0  0
  6  5  2  0  0  0  0
  7  1  1  0  0  0  0
  8  2  1  0  0  0  0
  9 13  1  0  0  0  0
 10 11  1  0  0  0  0
 10  9  2  0  0  0  0
 11 12  2  0  0  0  0
 12 13  1  0  0  0  0
 12 18  1  0  0  0  0
 14 10  1  0  0  0  0
 15 11  1  0  0  0  0
 17 16  1  0  0  0  0
 17 23  1  0  0  0  0
 18 17  2  0  0  0  0
 19 18  1  0  0  0  0
 19 20  2  0  0  0  0
 20 21  1  0  0  0  0
 21 23  2  0  0  0  0
 21 22  1  0  0  0  0
 23 26  1  0  0  0  0
 24 19  1  0  0  0  0
 25 20  1  0  0  0  0
 27 29  1  0  0  0  0
 28 27  2  0  0  0  0
 29 37  1  0  0  0  0
 29 30  1  0  0  0  0
 30 32  1  0  0  0  0
 31 30  1  0  0  0  0
 32 33  1  0  0  0  0
 32 34  1  0  0  0  0
 35 36  1  0  0  0  0
 35 34  1  0  0  0  0
 37 38  1  0  0  0  0
 37 35  1  0  0  0  0
M  END
>  <minimizedAffinity>
-5.83888435

$$$$

 OpenBabel03272503213D

 38 41  0  0  0  0  0  0  0  0999 V2000
   38.4130   24.1410   31.2240 C   0  0  0  0  0  0  0  0  0  0  0  0
   37.7850   25.3900   31.3690 C   0  0  0  0  0  0  0  0  0  0  0  0
   37.4520   25.7910   32.6820 C   0  0  0  0  0  0  0  0  0  0  0  0
   37.7440   24.9780   33.6950 N   0  0  0  0  0  0  0  0  0  0  0  0
   38.3430   23.7940   33.5270 C   0  0  0  0  0  0  0  0  0  0  0  0
   38.6720   23.3850   32.3050 N   0  0  0  0  0  0  0  0  0  0  0  0
   38.6590   23.8610   30.2010 H   0  0  0  0  0  0  0  0  0  0  0  0
   37.5350   26.0710   30.5730 H   0  0  0  0  0  0  0  0  0  0  0  0
   36.7910   27.0880   32.9200 C   0  0  0  0  0  0  0  0  0  0  0  0
   36.3200   28.0170   32.0970 C   0  0  0  0  0  0  0  0  0  0  0  0
   35.7540   29.1270   32.5970 C   0  0  0  0  0  0  0  0  0  0  0  0
   35.6850   29.2530   33.9630 C   0  0  0  0  0  0  0  0  0  0  0  0
   36.4750   27.6990   34.5320 S   0  0  0  0  0  0  0  0  0  0  0  0
   36.4150   27.8380   31.0300 H   0  0  0  0  0  0  0  0  0  0  0  0
   35.3320   29.9600   32.0480 H   0  0  0  0  0  0  0  0  0  0  0  0
   32.6540   29.2720   34.2820 Cl  0  0  0  0  0  0  0  0  0  0  0  0
   33.8220   30.3340   35.0450 C   0  0  0  0  0  0  0  0  0  0  0  0
   35.1680   30.2650   34.8540 C   0  0  0  0  0  0  0  0  0  0  0  0
   36.0950   31.0540   35.4150 C   0  0  0  0  0  0  0  0  0  0  0  0
   35.6550   32.0570   36.2910 C   0  0  0  0  0  0  0  0  0  0  0  0
   34.3250   32.1890   36.5320 C   0  0  0  0  0  0  0  0  0  0  0  0
   33.7330   33.4270   37.6180 Cl  0  0  0  0  0  0  0  0  0  0  0  0
   33.4090   31.3360   35.9170 C   0  0  0  0  0  0  0  0  0  0  0  0
   37.1670   30.9790   35.2460 H   0  0  0  0  0  0  0  0  0  0  0  0
   36.3920   32.7230   36.7680 H   0  0  0  0  0  0  0  0  0  0  0  0
   32.3560   31.4870   36.1470 H   0  0  0  0  0  0  0  0  0  0  0  0
   38.6120   22.9920   34.7050 C   0  0  0  0  0  0  0  0  0  0  0  0
   37.6510   22.5060   35.3420 O   0  0  0  0  0  0  0  0  0  0  0  0
   40.0240   22.7900   35.0950 C   0  0  0  0  0  3  0  0  0  0  0  0
   40.8170   24.0370   35.2770 C   0  0  0  0  0  3  0  0  0  0  0  0
   40.4450   24.5870   36.1700 H   0  0  0  0  0  0  0  0  0  0  0  0
   42.2500   23.5750   35.5680 C   0  0  0  0  0  3  0  0  0  0  0  0
   42.9920   24.3600   35.4090 H   0  0  0  0  0  0  0  0  0  0  0  0
   42.3410   22.9200   36.7870 O   0  0  0  0  0  0  0  0  0  0  0  0
   41.1280   22.6070   37.3540 C   0  0  0  0  0  3  0  0  0  0  0  0
   41.3060   21.8370   38.1350 H   0  0  0  0  0  0  0  0  0  0  0  0
   40.1380   22.0040   36.3910 C   0  0  0  0  0  3  0  0  0  0  0  0
   40.2620   20.9240   36.2310 H   0  0  0  0  0  0  0  0  0  0  0  0
  1  2  2  0  0  0  0
  1  6  1  0  0  0  0
  2  3  1  0  0  0  0
  3  9  1  0  0  0  0
  3  4  2  0  0  0  0
  5  4  1  0  0  0  0
  5 27  1  0  0  0  0
  6  5  2  0  0  0  0
  7  1  1  0  0  0  0
  8  2  1  0  0  0  0
  9 13  1  0  0  0  0
 10 11  1  0  0  0  0
 10  9  2  0  0  0  0
 11 12  2  0  0  0  0
 12 13  1  0  0  0  0
 12 18  1  0  0  0  0
 14 10  1  0  0  0  0
 15 11  1  0  0  0  0
 16 17  1  0  0  0  0
 17 23  1  0  0  0  0
 18 17  2  0  0  0  0
 18 19  1  0  0  0  0
 19 20  2  0  0  0  0
 20 21  1  0  0  0  0
 20 25  1  0  0  0  0
 21 22  1  0  0  0  0
 23 26  1  0  0  0  0
 23 21  2  0  0  0  0
 24 19  1  0  0  0  0
 27 29  1  0  0  0  0
 27 28  2  0  0  0  0
 29 30  1  0  0  0  0
 29 37  1  0  0  0  0
 30 32  1  0  0  0  0
 30 31  1  0  0  0  0
 32 34  1  0  0  0  0
 33 32  1  0  0  0  0
 34 35  1  0  0  0  0
 35 36  1  0  0  0  0
 37 35  1  0  0  0  0
 38 37  1  0  0  0  0
M  END
>  <minimizedAffinity>
-5.81752777

$$$$

 OpenBabel03272503213D

 38 41  0  0  0  0  0  0  0  0999 V2000
   37.1320   20.6870   31.8510 C   0  0  0  0  0  0  0  0  0  0  0  0
   36.5750   21.9210   31.4750 C   0  0  0  0  0  0  0  0  0  0  0  0
   37.2380   23.0860   31.9220 C   0  0  0  0  0  0  0  0  0  0  0  0
   38.3350   22.9550   32.6640 N   0  0  0  0  0  0  0  0  0  0  0  0
   38.8440   21.7660   33.0060 C   0  0  0  0  0  0  0  0  0  0  0  0
   38.2460   20.6480   32.6020 N   0  0  0  0  0  0  0  0  0  0  0  0
   36.6000   19.8080   31.4900 H   0  0  0  0  0  0  0  0  0  0  0  0
   35.6900   22.0620   30.8770 H   0  0  0  0  0  0  0  0  0  0  0  0
   36.7170   24.4200   31.5710 C   0  0  0  0  0  0  0  0  0  0  0  0
   35.5000   24.8570   31.2730 C   0  0  0  0  0  0  0  0  0  0  0  0
   35.3070   26.1540   30.9860 C   0  0  0  0  0  0  0  0  0  0  0  0
   36.3980   26.9870   31.0150 C   0  0  0  0  0  0  0  0  0  0  0  0
   37.7480   25.8340   31.4760 S   0  0  0  0  0  0  0  0  0  0  0  0
   34.6920   24.1310   31.2720 H   0  0  0  0  0  0  0  0  0  0  0  0
   34.3750   26.6430   30.7270 H   0  0  0  0  0  0  0  0  0  0  0  0
   35.6570   28.8130   33.3410 Cl  0  0  0  0  0  0  0  0  0  0  0  0
   36.2820   29.2740   31.7680 C   0  0  0  0  0  0  0  0  0  0  0  0
   36.5920   28.3970   30.7740 C   0  0  0  0  0  0  0  0  0  0  0  0
   37.0710   28.7040   29.5600 C   0  0  0  0  0  0  0  0  0  0  0  0
   37.2810   30.0590   29.2640 C   0  0  0  0  0  0  0  0  0  0  0  0
   36.9940   30.9950   30.2070 C   0  0  0  0  0  0  0  0  0  0  0  0
   37.2420   32.6960   29.8800 Cl  0  0  0  0  0  0  0  0  0  0  0  0
   36.4990   30.6110   31.4530 C   0  0  0  0  0  0  0  0  0  0  0  0
   37.3110   27.9840   28.7810 H   0  0  0  0  0  0  0  0  0  0  0  0
   37.6730   30.3450   28.2760 H   0  0  0  0  0  0  0  0  0  0  0  0
   36.2860   31.4030   32.1700 H   0  0  0  0  0  0  0  0  0  0  0  0
   40.0450   21.7460   33.8180 C   0  0  0  0  0  0  0  0  0  0  0  0
   41.0460   21.1140   33.4070 O   0  0  0  0  0  0  0  0  0  0  0  0
   40.0250   22.4800   35.1000 C   0  0  0  0  0  3  0  0  0  0  0  0
   38.8370   22.2220   35.9620 C   0  0  0  0  0  3  0  0  0  0  0  0
   38.8710   21.1750   36.3370 H   0  0  0  0  0  0  0  0  0  0  0  0
   38.9870   23.1620   37.1630 C   0  0  0  0  0  3  0  0  0  0  0  0
   38.0530   23.3140   37.7060 H   0  0  0  0  0  0  0  0  0  0  0  0
   40.0750   22.8160   37.9520 O   0  0  0  0  0  0  0  0  0  0  0  0
   40.9160   21.8890   37.3830 C   0  0  0  0  0  3  0  0  0  0  0  0
   41.8790   21.9190   37.9360 H   0  0  0  0  0  0  0  0  0  0  0  0
   41.2520   22.1690   35.9420 C   0  0  0  0  0  3  0  0  0  0  0  0
   42.0680   22.8920   35.7990 H   0  0  0  0  0  0  0  0  0  0  0  0
  1  6  1  0  0  0  0
  2  1  2  0  0  0  0
  2  3  1  0  0  0  0
  3  4  2  0  0  0  0
  4  5  1  0  0  0  0
  5 27  1  0  0  0  0
  6  5  2  0  0  0  0
  7  1  1  0  0  0  0
  8  2  1  0  0  0  0
  9  3  1  0  0  0  0
 10  9  2  0  0  0  0
 11 12  2  0  0  0  0
 11 10  1  0  0  0  0
 12 13  1  0  0  0  0
 13  9  1  0  0  0  0
 14 10  1  0  0  0  0
 15 11  1  0  0  0  0
 17 16  1  0  0  0  0
 18 12  1  0  0  0  0
 18 17  2  0  0  0  0
 19 18  1  0  0  0  0
 20 19  2  0  0  0  0
 20 21  1  0  0  0  0
 21 23  2  0  0  0  0
 22 21  1  0  0  0  0
 23 17  1  0  0  0  0
 23 26  1  0  0  0  0
 24 19  1  0  0  0  0
 25 20  1  0  0  0  0
 27 29  1  0  0  0  0
 28 27  2  0  0  0  0
 29 37  1  0  0  0  0
 29 30  1  0  0  0  0
 30 31  1  0  0  0  0
 30 32  1  0  0  0  0
 32 33  1  0  0  0  0
 32 34  1  0  0  0  0
 35 36  1  0  0  0  0
 35 34  1  0  0  0  0
 37 35  1  0  0  0  0
 38 37  1  0  0  0  0
M  END
>  <minimizedAffinity>
-5.71037102

$$$$

 OpenBabel03272503213D

 38 41  0  0  0  0  0  0  0  0999 V2000
   39.4390   26.0030   31.8980 C   0  0  0  0  0  0  0  0  0  0  0  0
   38.4720   27.0170   32.0080 C   0  0  0  0  0  0  0  0  0  0  0  0
   37.5000   26.8680   33.0230 C   0  0  0  0  0  0  0  0  0  0  0  0
   37.5500   25.7920   33.8060 N   0  0  0  0  0  0  0  0  0  0  0  0
   38.4840   24.8430   33.6780 C   0  0  0  0  0  0  0  0  0  0  0  0
   39.4140   24.9510   32.7340 N   0  0  0  0  0  0  0  0  0  0  0  0
   40.1740   26.1470   31.1080 H   0  0  0  0  0  0  0  0  0  0  0  0
   38.4020   27.8970   31.3920 H   0  0  0  0  0  0  0  0  0  0  0  0
   36.4500   27.8880   33.2050 C   0  0  0  0  0  0  0  0  0  0  0  0
   36.1330   28.6740   34.2260 C   0  0  0  0  0  0  0  0  0  0  0  0
   35.1050   29.5290   34.1160 C   0  0  0  0  0  0  0  0  0  0  0  0
   34.4150   29.5550   32.9280 C   0  0  0  0  0  0  0  0  0  0  0  0
   35.3000   28.2860   31.9440 S   0  0  0  0  0  0  0  0  0  0  0  0
   36.7300   28.5890   35.1300 H   0  0  0  0  0  0  0  0  0  0  0  0
   34.7380   30.2230   34.8630 H   0  0  0  0  0  0  0  0  0  0  0  0
   31.7610   28.9680   34.3080 Cl  0  0  0  0  0  0  0  0  0  0  0  0
   32.0690   30.1030   33.0060 C   0  0  0  0  0  0  0  0  0  0  0  0
   33.2880   30.3120   32.4380 C   0  0  0  0  0  0  0  0  0  0  0  0
   33.5690   31.1670   31.4440 C   0  0  0  0  0  0  0  0  0  0  0  0
   32.5150   31.9320   30.9240 C   0  0  0  0  0  0  0  0  0  0  0  0
   31.2670   31.7790   31.4400 C   0  0  0  0  0  0  0  0  0  0  0  0
   29.9240   32.7130   30.8210 Cl  0  0  0  0  0  0  0  0  0  0  0  0
   31.0400   30.8720   32.4750 C   0  0  0  0  0  0  0  0  0  0  0  0
   34.5530   31.3170   31.0050 H   0  0  0  0  0  0  0  0  0  0  0  0
   32.7110   32.6440   30.1060 H   0  0  0  0  0  0  0  0  0  0  0  0
   30.0210   30.7900   32.8510 H   0  0  0  0  0  0  0  0  0  0  0  0
   38.4400   23.7160   34.5890 C   0  0  0  0  0  0  0  0  0  0  0  0
   38.1870   22.5760   34.1360 O   0  0  0  0  0  0  0  0  0  0  0  0
   38.6990   23.9750   36.0210 C   0  0  0  0  0  3  0  0  0  0  0  0
   37.6560   23.4690   36.9570 C   0  0  0  0  0  3  0  0  0  0  0  0
   37.6640   22.3570   36.9550 H   0  0  0  0  0  0  0  0  0  0  0  0
   38.0860   23.9450   38.3500 C   0  0  0  0  0  3  0  0  0  0  0  0
   37.2720   23.9260   39.0770 H   0  0  0  0  0  0  0  0  0  0  0  0
   39.2580   23.3280   38.7630 O   0  0  0  0  0  0  0  0  0  0  0  0
   39.9090   22.6290   37.7750 C   0  0  0  0  0  3  0  0  0  0  0  0
   40.9510   22.4480   38.1170 H   0  0  0  0  0  0  0  0  0  0  0  0
   40.0190   23.3700   36.4690 C   0  0  0  0  0  3  0  0  0  0  0  0
   40.8580   24.0800   36.4210 H   0  0  0  0  0  0  0  0  0  0  0  0
  1  2  2  0  0  0  0
  1  6  1  0  0  0  0
  2  3  1  0  0  0  0
  3  9  1  0  0  0  0
  3  4  2  0  0  0  0
  5  4  1  0  0  0  0
  5 27  1  0  0  0  0
  6  5  2  0  0  0  0
  7  1  1  0  0  0  0
  8  2  1  0  0  0  0
  9 10  2  0  0  0  0
 10 14  1  0  0  0  0
 11 10  1  0  0  0  0
 11 15  1  0  0  0  0
 12 11  2  0  0  0  0
 13 12  1  0  0  0  0
 13  9  1  0  0  0  0
 17 16  1  0  0  0  0
 18 12  1  0  0  0  0
 18 17  2  0  0  0  0
 19 18  1  0  0  0  0
 20 21  1  0  0  0  0
 20 19  2  0  0  0  0
 21 23  2  0  0  0  0
 22 21  1  0  0  0  0
 23 26  1  0  0  0  0
 23 17  1  0  0  0  0
 24 19  1  0  0  0  0
 25 20  1  0  0  0  0
 27 29  1  0  0  0  0
 28 27  2  0  0  0  0
 29 37  1  0  0  0  0
 29 30  1  0  0  0  0
 30 32  1  0  0  0  0
 31 30  1  0  0  0  0
 32 34  1  0  0  0  0
 32 33  1  0  0  0  0
 35 36  1  0  0  0  0
 35 34  1  0  0  0  0
 37 35  1  0  0  0  0
 38 37  1  0  0  0  0
M  END
>  <minimizedAffinity>
-5.70732594

$$$$
