
 OpenBabel03272510133D

 42 45  0  0  0  0  0  0  0  0999 V2000
   38.4440   31.3920   48.7380 C   0  0  0  0  0  0  0  0  0  0  0  0
   38.4930   32.6190   49.3710 C   0  0  0  0  0  0  0  0  0  0  0  0
   39.0720   33.5160   48.4840 C   0  0  0  0  0  0  0  0  0  0  0  0
   39.3480   32.8170   47.3650 N   0  0  0  0  0  0  0  0  0  0  0  0
   38.9810   31.5780   47.5170 N   0  0  0  0  0  0  0  0  0  0  0  0
   38.2050   33.0150   50.3340 H   0  0  0  0  0  0  0  0  0  0  0  0
   39.2990   34.5810   48.5750 H   0  0  0  0  0  0  0  0  0  0  0  0
   39.9670   33.3580   46.1590 C   0  0  0  0  0  0  0  0  0  0  0  0
   39.2150   33.7860   45.4800 H   0  0  0  0  0  0  0  0  0  0  0  0
   40.5870   34.2290   46.4970 H   0  0  0  0  0  0  0  0  0  0  0  0
   40.8030   32.2640   45.5620 C   0  0  0  0  0  0  0  0  0  0  0  0
   40.6330   31.3560   46.1700 H   0  0  0  0  0  0  0  0  0  0  0  0
   41.8520   32.5660   45.5530 H   0  0  0  0  0  0  0  0  0  0  0  0
   40.3580   31.9490   44.1340 C   0  0  0  0  0  3  0  0  0  0  0  0
   39.5160   33.0310   43.5490 C   0  0  0  0  0  3  0  0  0  0  0  0
   39.3580   33.7940   44.3690 H   0  0  0  0  0  0  0  0  0  0  0  0
   38.1620   32.6260   43.0830 C   0  0  0  0  0  3  0  0  0  0  0  0
   37.8800   33.2030   42.1820 H   0  0  0  0  0  0  0  0  0  0  0  0
   38.0470   31.2850   42.7200 O   0  0  0  0  0  0  0  0  0  0  0  0
   38.2780   30.5690   43.9170 C   0  0  0  0  0  3  0  0  0  0  0  0
   37.9350   29.5340   43.8410 H   0  0  0  0  0  0  0  0  0  0  0  0
   39.7860   30.5740   44.0780 C   0  0  0  0  0  3  0  0  0  0  0  0
   40.0040   30.0500   45.0180 H   0  0  0  0  0  0  0  0  0  0  0  0
   37.8850   30.3780   49.5070 O   0  0  0  0  0  0  0  0  0  0  0  0
   34.1310   28.8590   48.3300 C   0  0  0  0  0  0  0  0  0  0  0  0
   34.7590   28.4140   49.4530 C   0  0  0  0  0  0  0  0  0  0  0  0
   35.9840   28.8580   49.9070 C   0  0  0  0  0  0  0  0  0  0  0  0
   36.6540   29.8160   49.2060 C   0  0  0  0  0  0  0  0  0  0  0  0
   36.0220   30.2800   48.0520 C   0  0  0  0  0  0  0  0  0  0  0  0
   34.8260   29.8110   47.6550 N   0  0  0  0  0  0  0  0  0  0  0  0
   34.3050   27.6530   50.0770 H   0  0  0  0  0  0  0  0  0  0  0  0
   36.4710   28.4950   50.8030 H   0  0  0  0  0  0  0  0  0  0  0  0
   36.4170   31.0380   47.3810 H   0  0  0  0  0  0  0  0  0  0  0  0
   32.0270   27.5510   48.6110 C   0  0  0  0  0  0  0  0  0  0  0  0
   32.8690   28.3900   47.8780 C   0  0  0  0  0  0  0  0  0  0  0  0
   32.4130   28.7660   46.6390 C   0  0  0  0  0  0  0  0  0  0  0  0
   31.2000   28.3280   46.1790 N   0  0  0  0  0  0  0  0  0  0  0  0
   30.4300   27.5150   46.9400 C   0  0  0  0  0  0  0  0  0  0  0  0
   30.8320   27.1080   48.1780 N   0  0  0  0  0  0  0  0  0  0  0  0
   32.3440   27.2290   49.5910 H   0  0  0  0  0  0  0  0  0  0  0  0
   32.9530   29.4110   45.9570 H   0  0  0  0  0  0  0  0  0  0  0  0
   29.4700   27.1390   46.6330 H   0  0  0  0  0  0  0  0  0  0  0  0
  1  2  1  0  0  0  0
  1 24  1  0  0  0  0
  2  6  1  0  0  0  0
  3  7  1  0  0  0  0
  3  2  2  0  0  0  0
  4  5  1  0  0  0  0
  4  3  1  0  0  0  0
  5  1  2  0  0  0  0
  8 10  1  0  0  0  0
  8  4  1  0  0  0  0
  9  8  1  0  0  0  0
 11  8  1  0  0  0  0
 11 12  1  0  0  0  0
 13 11  1  0  0  0  0
 14 11  1  0  0  0  0
 15 14  1  0  0  0  0
 15 16  1  0  0  0  0
 17 15  1  0  0  0  0
 18 17  1  0  0  0  0
 19 17  1  0  0  0  0
 19 20  1  0  0  0  0
 20 22  1  0  0  0  0
 21 20  1  0  0  0  0
 22 14  1  0  0  0  0
 22 23  1  0  0  0  0
 25 26  1  0  0  0  0
 26 27  2  0  0  0  0
 26 31  1  0  0  0  0
 27 32  1  0  0  0  0
 28 24  1  0  0  0  0
 28 27  1  0  0  0  0
 29 28  2  0  0  0  0
 30 29  1  0  0  0  0
 30 25  2  0  0  0  0
 33 29  1  0  0  0  0
 34 40  1  0  0  0  0
 35 25  1  0  0  0  0
 35 34  2  0  0  0  0
 36 35  1  0  0  0  0
 37 36  2  0  0  0  0
 37 38  1  0  0  0  0
 38 39  2  0  0  0  0
 39 34  1  0  0  0  0
 41 36  1  0  0  0  0
 42 38  1  0  0  0  0
M  END
>  <minimizedAffinity>
-6.27437735

>  <minimizedRMSD>
1.57566607

$$$$
