
 OpenBabel03272503393D

 30 32  0  0  0  0  0  0  0  0999 V2000
   37.5320   30.7660   45.7840 C   0  0  0  0  0  0  0  0  0  0  0  0
   38.8880   30.6110   45.8650 C   0  0  0  0  0  0  0  0  0  0  0  0
   39.3640   30.8570   44.5790 C   0  0  0  0  0  0  0  0  0  0  0  0
   38.3300   31.1450   43.7780 N   0  0  0  0  0  0  0  0  0  0  0  0
   37.2260   31.0890   44.5150 N   0  0  0  0  0  0  0  0  0  0  0  0
   39.4870   30.3510   46.7330 H   0  0  0  0  0  0  0  0  0  0  0  0
   40.4350   30.8080   44.3240 H   0  0  0  0  0  0  0  0  0  0  0  0
   38.4800   31.4480   42.3890 C   0  0  0  0  0  3  0  0  0  0  0  0
   37.9100   32.7910   42.0760 C   0  0  0  0  0  3  0  0  0  0  0  0
   36.8270   32.7000   41.8050 H   0  0  0  0  0  0  0  0  0  0  0  0
   38.6930   33.4190   40.9410 C   0  0  0  0  0  3  0  0  0  0  0  0
   39.5220   34.0440   41.3270 H   0  0  0  0  0  0  0  0  0  0  0  0
   39.0720   32.5140   39.9630 O   0  0  0  0  0  0  0  0  0  0  0  0
   39.8890   31.4940   40.4190 C   0  0  0  0  0  3  0  0  0  0  0  0
   40.9020   31.5370   39.9640 H   0  0  0  0  0  0  0  0  0  0  0  0
   39.9180   31.4080   41.9260 C   0  0  0  0  0  3  0  0  0  0  0  0
   40.3220   30.4090   42.2000 H   0  0  0  0  0  0  0  0  0  0  0  0
   36.1000   30.5740   49.2310 C   0  0  0  0  0  0  0  0  0  0  0  0
   37.0050   30.7290   48.1970 C   0  0  0  0  0  0  0  0  0  0  0  0
   36.6050   30.6090   46.8780 C   0  0  0  0  0  0  0  0  0  0  0  0
   35.3120   30.3390   46.6460 N   0  0  0  0  0  0  0  0  0  0  0  0
   34.4210   30.1860   47.6660 C   0  0  0  0  0  0  0  0  0  0  0  0
   34.8040   30.3010   48.9410 N   0  0  0  0  0  0  0  0  0  0  0  0
   38.0600   30.9480   48.3340 H   0  0  0  0  0  0  0  0  0  0  0  0
   33.3770   29.9690   47.5100 H   0  0  0  0  0  0  0  0  0  0  0  0
   36.6670   30.7260   50.4920 O   0  0  0  0  0  0  0  0  0  0  0  0
   36.8110   29.6720   51.4040 C   0  0  0  0  0  0  0  0  0  0  0  0
   35.6020   29.1350   51.7900 F   0  0  0  0  0  0  0  0  0  0  0  0
   37.4960   30.1380   52.5000 F   0  0  0  0  0  0  0  0  0  0  0  0
   37.5770   28.6850   50.8110 F   0  0  0  0  0  0  0  0  0  0  0  0
  1  2  1  0  0  0  0
  1 20  1  0  0  0  0
  2  6  1  0  0  0  0
  3  2  2  0  0  0  0
  4  5  1  0  0  0  0
  4  3  1  0  0  0  0
  5  1  2  0  0  0  0
  7  3  1  0  0  0  0
  8  4  1  0  0  0  0
  9  8  1  0  0  0  0
 10  9  1  0  0  0  0
 11 12  1  0  0  0  0
 11  9  1  0  0  0  0
 13 14  1  0  0  0  0
 13 11  1  0  0  0  0
 14 16  1  0  0  0  0
 15 14  1  0  0  0  0
 16 17  1  0  0  0  0
 16  8  1  0  0  0  0
 18 26  1  0  0  0  0
 19 24  1  0  0  0  0
 19 18  2  0  0  0  0
 20 19  1  0  0  0  0
 21 20  2  0  0  0  0
 21 22  1  0  0  0  0
 22 23  2  0  0  0  0
 23 18  1  0  0  0  0
 25 22  1  0  0  0  0
 26 27  1  0  0  0  0
 27 28  1  0  0  0  0
 27 29  1  0  0  0  0
 30 27  1  0  0  0  0
M  END
>  <minimizedAffinity>
-5.66940641

>  <minimizedRMSD>
3.27520871

$$$$
