
 OpenBabel03272503053D

 33 35  0  0  0  0  0  0  0  0999 V2000
   38.4910   30.4520   47.2980 F   0  0  0  0  0  0  0  0  0  0  0  0
   38.7720   31.6780   47.7830 C   0  0  0  0  0  0  0  0  0  0  0  0
   38.2070   32.0900   48.9680 C   0  0  0  0  0  0  0  0  0  0  0  0
   38.5290   33.3490   49.4150 C   0  0  0  0  0  0  0  0  0  0  0  0
   39.3800   34.1840   48.7230 C   0  0  0  0  0  0  0  0  0  0  0  0
   39.9320   33.7570   47.5430 C   0  0  0  0  0  0  0  0  0  0  0  0
   39.6270   32.4930   47.0680 C   0  0  0  0  0  0  0  0  0  0  0  0
   38.0770   33.6550   50.3500 H   0  0  0  0  0  0  0  0  0  0  0  0
   39.6080   35.1710   49.1110 H   0  0  0  0  0  0  0  0  0  0  0  0
   40.6050   34.3990   46.9810 H   0  0  0  0  0  0  0  0  0  0  0  0
   36.8120   29.5780   51.4390 C   0  0  0  0  0  0  0  0  0  0  0  0
   37.6950   30.4620   50.8010 C   0  0  0  0  0  0  0  0  0  0  0  0
   37.3160   31.1620   49.6560 C   0  0  0  0  0  0  0  0  0  0  0  0
   36.0450   30.9400   49.1940 N   0  0  0  0  0  0  0  0  0  0  0  0
   35.2100   30.0820   49.8230 C   0  0  0  0  0  0  0  0  0  0  0  0
   35.5880   29.4200   50.9180 N   0  0  0  0  0  0  0  0  0  0  0  0
   37.2400   29.1050   52.3140 H   0  0  0  0  0  0  0  0  0  0  0  0
   38.7130   30.6690   51.1340 H   0  0  0  0  0  0  0  0  0  0  0  0
   34.2140   29.9480   49.4090 H   0  0  0  0  0  0  0  0  0  0  0  0
   39.3610   32.2290   44.6870 C   0  0  0  0  0  0  0  0  0  0  0  0
   38.2560   32.8150   44.9380 O   0  0  0  0  0  0  0  0  0  0  0  0
   40.1790   31.9970   45.8360 N   0  0  0  0  0  0  0  0  0  0  0  0
   41.0970   31.5090   45.7780 H   0  0  0  0  0  0  0  0  0  0  0  0
   39.9070   31.7610   43.3870 C   0  0  0  0  0  3  0  0  0  0  0  0
   38.9270   31.9010   42.2600 C   0  0  0  0  0  3  0  0  0  0  0  0
   38.4760   32.8940   42.2500 H   0  0  0  0  0  0  0  0  0  0  0  0
   39.7220   31.5820   40.9900 C   0  0  0  0  0  3  0  0  0  0  0  0
   40.7220   32.0870   41.1080 H   0  0  0  0  0  0  0  0  0  0  0  0
   40.0100   30.2190   41.0490 O   0  0  0  0  0  0  0  0  0  0  0  0
   40.8940   29.9630   42.0740 C   0  0  0  0  0  3  0  0  0  0  0  0
   41.8130   30.6070   41.9660 H   0  0  0  0  0  0  0  0  0  0  0  0
   40.2820   30.2780   43.4250 C   0  0  0  0  0  3  0  0  0  0  0  0
   39.3530   29.6440   43.5150 H   0  0  0  0  0  0  0  0  0  0  0  0
  1  2  1  0  0  0  0
  2  3  1  0  0  0  0
  3  4  2  0  0  0  0
  3 13  1  0  0  0  0
  4  8  1  0  0  0  0
  5  9  1  0  0  0  0
  5  4  1  0  0  0  0
  6  5  2  0  0  0  0
  7  6  1  0  0  0  0
  7  2  2  0  0  0  0
 10  6  1  0  0  0  0
 11 17  1  0  0  0  0
 12 18  1  0  0  0  0
 12 11  2  0  0  0  0
 13 12  1  0  0  0  0
 14 13  2  0  0  0  0
 14 15  1  0  0  0  0
 15 16  2  0  0  0  0
 16 11  1  0  0  0  0
 19 15  1  0  0  0  0
 20 21  2  0  0  0  0
 20 22  1  0  0  0  0
 22  7  1  0  0  0  0
 23 22  1  0  0  0  0
 24 32  1  0  0  0  0
 24 20  1  0  0  0  0
 25 24  1  0  0  0  0
 26 25  1  0  0  0  0
 27 29  1  0  0  0  0
 27 28  1  0  0  0  0
 27 25  1  0  0  0  0
 29 30  1  0  0  0  0
 30 32  1  0  0  0  0
 31 30  1  0  0  0  0
 32 33  1  0  0  0  0
M  END
>  <minimizedAffinity>
-6.6001339

>  <minimizedRMSD>
0.190783218

$$$$
