
 OpenBabel03272508583D

 41 44  0  0  1  0  0  0  0  0999 V2000
   39.1390   31.4030   43.3420 C   0  0  0  0  0  0  0  0  0  0  0  0
   40.2430   30.6060   43.5350 C   0  0  0  0  0  0  0  0  0  0  0  0
   40.9790   30.2470   42.4140 C   0  0  0  0  0  0  0  0  0  0  0  0
   40.5550   30.7160   41.1840 C   0  0  0  0  0  0  0  0  0  0  0  0
   39.4370   31.5220   40.9950 C   0  0  0  0  0  0  0  0  0  0  0  0
   38.7540   31.8440   42.1110 N   0  0  0  0  0  0  0  0  0  0  0  0
   40.5630   30.2460   44.5020 H   0  0  0  0  0  0  0  0  0  0  0  0
   41.8460   29.6270   42.5210 H   0  0  0  0  0  0  0  0  0  0  0  0
   41.1080   30.4550   40.2900 H   0  0  0  0  0  0  0  0  0  0  0  0
   38.3370   31.8160   44.5120 C   0  0  0  0  0  0  0  0  0  0  0  0
   37.2360   32.3630   44.4020 O   0  0  0  0  0  0  0  0  0  0  0  0
   38.9140   31.5460   45.8230 N   0  0  0  0  0  0  0  0  0  0  0  0
   39.8940   31.2710   45.9910 H   0  0  0  0  0  0  0  0  0  0  0  0
   38.4090   31.0840   48.2140 C   0  0  2  0  0  0  0  0  0  0  0  0
   38.6490   32.5480   48.1060 C   0  0  0  0  0  0  0  0  0  0  0  0
   38.0410   31.6770   46.9710 C   0  0  1  0  0  0  0  0  0  0  0  0
   39.3430   30.4900   48.3160 H   0  0  0  0  0  0  0  0  0  0  0  0
   37.9790   33.2640   48.6080 H   0  0  0  0  0  0  0  0  0  0  0  0
   39.6640   32.9210   47.9660 H   0  0  0  0  0  0  0  0  0  0  0  0
   36.9720   31.9270   46.7700 H   0  0  0  0  0  0  0  0  0  0  0  0
   35.0500   30.2170   49.5370 C   0  0  0  0  0  0  0  0  0  0  0  0
   35.3790   29.5690   50.7720 C   0  0  0  0  0  0  0  0  0  0  0  0
   36.7640   29.4540   51.1230 C   0  0  0  0  0  0  0  0  0  0  0  0
   37.7240   29.9590   50.2800 N   0  0  0  0  0  0  0  0  0  0  0  0
   37.3310   30.5590   49.1290 C   0  0  0  0  0  0  0  0  0  0  0  0
   36.0090   30.7070   48.7240 N   0  0  0  0  0  0  0  0  0  0  0  0
   33.9920   30.2770   49.3190 H   0  0  0  0  0  0  0  0  0  0  0  0
   34.6180   29.1760   51.4250 H   0  0  0  0  0  0  0  0  0  0  0  0
   37.0240   28.9670   52.0520 H   0  0  0  0  0  0  0  0  0  0  0  0
   39.0480   31.9770   39.6660 C   0  0  0  0  0  0  0  0  0  0  0  0
   39.1400   33.1990   39.4010 O   0  0  0  0  0  0  0  0  0  0  0  0
   38.5500   31.1430   38.5740 C   0  0  0  0  0  3  0  0  0  0  0  0
   37.5980   30.1190   39.2000 C   0  0  0  0  0  3  0  0  0  0  0  0
   36.8690   30.7230   39.7720 H   0  0  0  0  0  0  0  0  0  0  0  0
   36.9680   29.2640   38.1420 C   0  0  0  0  0  3  0  0  0  0  0  0
   36.2360   29.8380   37.5430 H   0  0  0  0  0  0  0  0  0  0  0  0
   37.9640   28.6700   37.3910 O   0  0  0  0  0  0  0  0  0  0  0  0
   38.8000   29.5730   36.7590 C   0  0  0  0  0  3  0  0  0  0  0  0
   38.1080   30.3200   36.2710 H   0  0  0  0  0  0  0  0  0  0  0  0
   39.5760   30.3800   37.8080 C   0  0  0  0  0  3  0  0  0  0  0  0
   40.1640   29.6720   38.3990 H   0  0  0  0  0  0  0  0  0  0  0  0
  1  2  1  0  0  0  0
  1 10  1  0  0  0  0
  2  7  1  0  0  0  0
  3  8  1  0  0  0  0
  3  2  2  0  0  0  0
  4  3  1  0  0  0  0
  5  4  2  0  0  0  0
  5  6  1  0  0  0  0
  6  1  2  0  0  0  0
  9  4  1  0  0  0  0
 10 12  1  0  0  0  0
 11 10  2  0  0  0  0
 12 13  1  0  0  0  0
 12 16  1  0  0  0  0
 14 17  1  6  0  0  0
 14 25  1  0  0  0  0
 15 14  1  0  0  0  0
 15 18  1  0  0  0  0
 16 20  1  6  0  0  0
 16 15  1  0  0  0  0
 16 14  1  0  0  0  0
 19 15  1  0  0  0  0
 21 22  1  0  0  0  0
 22 23  2  0  0  0  0
 22 28  1  0  0  0  0
 23 29  1  0  0  0  0
 24 23  1  0  0  0  0
 25 24  2  0  0  0  0
 26 25  1  0  0  0  0
 26 21  2  0  0  0  0
 27 21  1  0  0  0  0
 30  5  1  0  0  0  0
 31 30  2  0  0  0  0
 32 33  1  0  0  0  0
 32 30  1  0  0  0  0
 33 34  1  0  0  0  0
 35 33  1  0  0  0  0
 36 35  1  0  0  0  0
 37 35  1  0  0  0  0
 38 37  1  0  0  0  0
 38 40  1  0  0  0  0
 39 38  1  0  0  0  0
 40 41  1  0  0  0  0
 40 32  1  0  0  0  0
M  END
>  <minimizedAffinity>
-4.80764866

>  <minimizedRMSD>
0.743619263

$$$$
