
 OpenBabel03272508573D

 41 44  0  0  1  0  0  0  0  0999 V2000
   39.1390   31.4030   43.3400 C   0  0  0  0  0  0  0  0  0  0  0  0
   40.2420   30.6060   43.5340 C   0  0  0  0  0  0  0  0  0  0  0  0
   40.9790   30.2480   42.4120 C   0  0  0  0  0  0  0  0  0  0  0  0
   40.5550   30.7170   41.1820 C   0  0  0  0  0  0  0  0  0  0  0  0
   39.4370   31.5240   40.9940 C   0  0  0  0  0  0  0  0  0  0  0  0
   38.7540   31.8440   42.1100 N   0  0  0  0  0  0  0  0  0  0  0  0
   40.5630   30.2460   44.5010 H   0  0  0  0  0  0  0  0  0  0  0  0
   41.8460   29.6280   42.5190 H   0  0  0  0  0  0  0  0  0  0  0  0
   41.1080   30.4560   40.2890 H   0  0  0  0  0  0  0  0  0  0  0  0
   38.3370   31.8160   44.5110 C   0  0  0  0  0  0  0  0  0  0  0  0
   37.2340   32.3610   44.4010 O   0  0  0  0  0  0  0  0  0  0  0  0
   38.9140   31.5470   45.8220 N   0  0  0  0  0  0  0  0  0  0  0  0
   39.8940   31.2730   45.9890 H   0  0  0  0  0  0  0  0  0  0  0  0
   38.4100   31.0840   48.2130 C   0  0  2  0  0  0  0  0  0  0  0  0
   38.6500   32.5480   48.1050 C   0  0  0  0  0  0  0  0  0  0  0  0
   38.0410   31.6780   46.9700 C   0  0  1  0  0  0  0  0  0  0  0  0
   39.3440   30.4900   48.3150 H   0  0  0  0  0  0  0  0  0  0  0  0
   37.9790   33.2640   48.6070 H   0  0  0  0  0  0  0  0  0  0  0  0
   39.6640   32.9210   47.9650 H   0  0  0  0  0  0  0  0  0  0  0  0
   36.9720   31.9270   46.7690 H   0  0  0  0  0  0  0  0  0  0  0  0
   35.0510   30.2200   49.5370 C   0  0  0  0  0  0  0  0  0  0  0  0
   35.3800   29.5670   50.7700 C   0  0  0  0  0  0  0  0  0  0  0  0
   36.7660   29.4480   51.1190 C   0  0  0  0  0  0  0  0  0  0  0  0
   37.7250   29.9540   50.2760 N   0  0  0  0  0  0  0  0  0  0  0  0
   37.3320   30.5580   49.1270 C   0  0  0  0  0  0  0  0  0  0  0  0
   36.0090   30.7100   48.7250 N   0  0  0  0  0  0  0  0  0  0  0  0
   33.9930   30.2830   49.3220 H   0  0  0  0  0  0  0  0  0  0  0  0
   34.6200   29.1740   51.4230 H   0  0  0  0  0  0  0  0  0  0  0  0
   37.0260   28.9580   52.0460 H   0  0  0  0  0  0  0  0  0  0  0  0
   39.0480   31.9790   39.6640 C   0  0  0  0  0  0  0  0  0  0  0  0
   39.1400   33.2010   39.4000 O   0  0  0  0  0  0  0  0  0  0  0  0
   38.5500   31.1460   38.5730 C   0  0  0  0  0  3  0  0  0  0  0  0
   37.5970   30.1210   39.1990 C   0  0  0  0  0  3  0  0  0  0  0  0
   36.8690   30.7260   39.7700 H   0  0  0  0  0  0  0  0  0  0  0  0
   36.9680   29.2660   38.1390 C   0  0  0  0  0  3  0  0  0  0  0  0
   36.2340   29.8410   37.5410 H   0  0  0  0  0  0  0  0  0  0  0  0
   37.9640   28.6730   37.3890 O   0  0  0  0  0  0  0  0  0  0  0  0
   38.8000   29.5760   36.7570 C   0  0  0  0  0  3  0  0  0  0  0  0
   38.1080   30.3230   36.2690 H   0  0  0  0  0  0  0  0  0  0  0  0
   39.5760   30.3830   37.8070 C   0  0  0  0  0  3  0  0  0  0  0  0
   40.1640   29.6730   38.3960 H   0  0  0  0  0  0  0  0  0  0  0  0
  1  2  1  0  0  0  0
  1 10  1  0  0  0  0
  2  7  1  0  0  0  0
  3  8  1  0  0  0  0
  3  2  2  0  0  0  0
  4  3  1  0  0  0  0
  5  4  2  0  0  0  0
  5  6  1  0  0  0  0
  6  1  2  0  0  0  0
  9  4  1  0  0  0  0
 10 12  1  0  0  0  0
 11 10  2  0  0  0  0
 12 13  1  0  0  0  0
 12 16  1  0  0  0  0
 14 17  1  6  0  0  0
 14 25  1  0  0  0  0
 15 14  1  0  0  0  0
 15 18  1  0  0  0  0
 16 20  1  6  0  0  0
 16 15  1  0  0  0  0
 16 14  1  0  0  0  0
 19 15  1  0  0  0  0
 21 22  1  0  0  0  0
 22 23  2  0  0  0  0
 22 28  1  0  0  0  0
 23 29  1  0  0  0  0
 24 23  1  0  0  0  0
 25 24  2  0  0  0  0
 26 25  1  0  0  0  0
 26 21  2  0  0  0  0
 27 21  1  0  0  0  0
 30  5  1  0  0  0  0
 31 30  2  0  0  0  0
 32 33  1  0  0  0  0
 32 30  1  0  0  0  0
 33 34  1  0  0  0  0
 35 33  1  0  0  0  0
 36 35  1  0  0  0  0
 37 35  1  0  0  0  0
 38 37  1  0  0  0  0
 38 40  1  0  0  0  0
 39 38  1  0  0  0  0
 40 41  1  0  0  0  0
 40 32  1  0  0  0  0
M  END
>  <minimizedAffinity>
-4.80526876

>  <minimizedRMSD>
0.695765674

$$$$
