
 OpenBabel03272503063D

 33 35  0  0  0  0  0  0  0  0999 V2000
   38.1000   30.1530   47.3920 F   0  0  0  0  0  0  0  0  0  0  0  0
   38.4740   31.3780   47.8110 C   0  0  0  0  0  0  0  0  0  0  0  0
   38.0380   31.8460   49.0290 C   0  0  0  0  0  0  0  0  0  0  0  0
   38.4520   33.1020   49.4060 C   0  0  0  0  0  0  0  0  0  0  0  0
   39.2690   33.8800   48.6140 C   0  0  0  0  0  0  0  0  0  0  0  0
   39.6940   33.3960   47.4030 C   0  0  0  0  0  0  0  0  0  0  0  0
   39.2930   32.1340   46.9970 C   0  0  0  0  0  0  0  0  0  0  0  0
   38.1000   33.4530   50.3680 H   0  0  0  0  0  0  0  0  0  0  0  0
   39.5730   34.8650   48.9490 H   0  0  0  0  0  0  0  0  0  0  0  0
   40.3380   33.9930   46.7630 H   0  0  0  0  0  0  0  0  0  0  0  0
   36.7500   29.5270   51.7350 C   0  0  0  0  0  0  0  0  0  0  0  0
   37.6060   30.3550   50.9940 C   0  0  0  0  0  0  0  0  0  0  0  0
   37.1760   30.9780   49.8230 C   0  0  0  0  0  0  0  0  0  0  0  0
   35.8820   30.7380   49.4410 N   0  0  0  0  0  0  0  0  0  0  0  0
   35.0730   29.9350   50.1690 C   0  0  0  0  0  0  0  0  0  0  0  0
   35.5000   29.3460   51.2870 N   0  0  0  0  0  0  0  0  0  0  0  0
   37.2170   29.1110   52.6180 H   0  0  0  0  0  0  0  0  0  0  0  0
   38.6410   30.5740   51.2610 H   0  0  0  0  0  0  0  0  0  0  0  0
   34.0560   29.7830   49.8140 H   0  0  0  0  0  0  0  0  0  0  0  0
   38.7970   31.8120   44.6610 C   0  0  0  0  0  0  0  0  0  0  0  0
   37.7420   32.4480   44.9930 O   0  0  0  0  0  0  0  0  0  0  0  0
   39.7100   31.5820   45.7360 N   0  0  0  0  0  0  0  0  0  0  0  0
   40.5990   31.0560   45.6100 H   0  0  0  0  0  0  0  0  0  0  0  0
   39.2010   31.2850   43.3320 C   0  0  0  0  0  3  0  0  0  0  0  0
   40.5640   30.6600   43.3450 C   0  0  0  0  0  3  0  0  0  0  0  0
   40.6720   29.9650   44.1760 H   0  0  0  0  0  0  0  0  0  0  0  0
   40.7170   29.9950   41.9730 C   0  0  0  0  0  3  0  0  0  0  0  0
   39.7280   29.5020   41.7500 H   0  0  0  0  0  0  0  0  0  0  0  0
   40.8070   31.0340   41.0480 O   0  0  0  0  0  0  0  0  0  0  0  0
   39.6060   31.7040   40.9660 C   0  0  0  0  0  3  0  0  0  0  0  0
   38.7710   30.9810   40.7420 H   0  0  0  0  0  0  0  0  0  0  0  0
   39.2660   32.3900   42.2750 C   0  0  0  0  0  3  0  0  0  0  0  0
   40.1150   33.0970   42.5010 H   0  0  0  0  0  0  0  0  0  0  0  0
  1  2  1  0  0  0  0
  2  3  1  0  0  0  0
  3  4  2  0  0  0  0
  3 13  1  0  0  0  0
  4  8  1  0  0  0  0
  5  9  1  0  0  0  0
  5  4  1  0  0  0  0
  6  5  2  0  0  0  0
  7  6  1  0  0  0  0
  7  2  2  0  0  0  0
 10  6  1  0  0  0  0
 11 17  1  0  0  0  0
 12 18  1  0  0  0  0
 12 11  2  0  0  0  0
 13 12  1  0  0  0  0
 14 13  2  0  0  0  0
 14 15  1  0  0  0  0
 15 16  2  0  0  0  0
 16 11  1  0  0  0  0
 19 15  1  0  0  0  0
 20 21  2  0  0  0  0
 20 22  1  0  0  0  0
 22  7  1  0  0  0  0
 23 22  1  0  0  0  0
 24 25  1  0  0  0  0
 24 20  1  0  0  0  0
 25 26  1  0  0  0  0
 27 25  1  0  0  0  0
 28 27  1  0  0  0  0
 29 27  1  0  0  0  0
 30 29  1  0  0  0  0
 30 32  1  0  0  0  0
 31 30  1  0  0  0  0
 32 33  1  0  0  0  0
 32 24  1  0  0  0  0
M  END
>  <minimizedAffinity>
-6.56343889

>  <minimizedRMSD>
0.635042012

$$$$
