
 OpenBabel03272509433D

 39 41  0  0  1  0  0  0  0  0999 V2000
   37.0260   30.9320   49.0590 C   0  0  0  0  0  0  0  0  0  0  0  0
   36.7170   31.8260   50.0870 C   0  0  0  0  0  0  0  0  0  0  0  0
   37.2980   33.0830   50.1590 C   0  0  0  0  0  0  0  0  0  0  0  0
   38.2170   33.4750   49.1850 C   0  0  0  0  0  0  0  0  0  0  0  0
   38.5080   32.5870   48.1860 C   0  0  0  0  0  0  0  0  0  0  0  0
   37.9110   31.3380   48.1420 C   0  0  0  0  0  0  0  0  0  0  0  0
   35.9920   31.4820   50.8320 H   0  0  0  0  0  0  0  0  0  0  0  0
   36.9700   33.6680   51.0030 H   0  0  0  0  0  0  0  0  0  0  0  0
   38.6280   34.4670   49.3080 H   0  0  0  0  0  0  0  0  0  0  0  0
   39.2410   33.0300   47.5020 H   0  0  0  0  0  0  0  0  0  0  0  0
   36.4470   29.6080   49.0020 C   0  0  2  0  0  0  0  0  0  0  0  0
   36.9520   29.0960   48.0950 H   0  0  0  0  0  0  0  0  0  0  0  0
   33.5990   29.9950   46.7770 C   0  0  0  0  0  0  0  0  0  0  0  0
   32.8540   28.8500   46.9850 C   0  0  0  0  0  0  0  0  0  0  0  0
   33.2890   27.9550   47.9440 C   0  0  0  0  0  0  0  0  0  0  0  0
   34.4390   28.2290   48.6510 N   0  0  0  0  0  0  0  0  0  0  0  0
   35.1080   29.3360   48.4050 C   0  0  0  0  0  0  0  0  0  0  0  0
   34.6970   30.2230   47.4740 N   0  0  0  0  0  0  0  0  0  0  0  0
   33.2890   30.7300   46.0290 H   0  0  0  0  0  0  0  0  0  0  0  0
   31.9730   28.7400   46.3740 H   0  0  0  0  0  0  0  0  0  0  0  0
   32.7020   27.0620   48.1050 H   0  0  0  0  0  0  0  0  0  0  0  0
   36.9180   28.8210   49.9030 O   0  0  0  0  0  0  0  0  0  0  0  0
   36.7070   28.9060   50.8570 H   0  0  0  0  0  0  0  0  0  0  0  0
   38.3350   30.4920   47.0500 C   0  0  0  0  0  3  0  0  0  0  0  0
   39.0080   30.9380   45.9830 C   0  0  0  0  0  3  0  0  0  0  0  0
   39.5300   30.1570   44.8360 C   0  0  0  0  0  0  0  0  0  0  0  0
   40.2920   30.8080   44.3290 H   0  0  0  0  0  0  0  0  0  0  0  0
   40.0110   29.2390   45.2010 H   0  0  0  0  0  0  0  0  0  0  0  0
   38.2170   29.8760   43.6460 S   0  0  0  0  0  0  0  0  0  0  0  0
   38.7940   30.0200   41.9380 C   0  0  0  0  0  3  0  0  0  0  0  0
   40.2760   30.2000   41.9150 C   0  0  0  0  0  3  0  0  0  0  0  0
   40.6510   30.8930   42.6900 H   0  0  0  0  0  0  0  0  0  0  0  0
   40.8400   30.5970   40.5940 C   0  0  0  0  0  3  0  0  0  0  0  0
   41.0110   29.6680   39.9870 H   0  0  0  0  0  0  0  0  0  0  0  0
   40.0890   31.4810   39.8610 O   0  0  0  0  0  0  0  0  0  0  0  0
   39.0560   32.0920   40.5320 C   0  0  0  0  0  3  0  0  0  0  0  0
   38.4410   32.6050   39.7400 H   0  0  0  0  0  0  0  0  0  0  0  0
   38.1300   31.1580   41.2370 C   0  0  0  0  0  3  0  0  0  0  0  0
   37.5510   31.7620   41.9930 H   0  0  0  0  0  0  0  0  0  0  0  0
  1  2  1  0  0  0  0
  2  3  2  0  0  0  0
  2  7  1  0  0  0  0
  3  8  1  0  0  0  0
  4  9  1  0  0  0  0
  4  3  1  0  0  0  0
  5  4  2  0  0  0  0
  6  5  1  0  0  0  0
  6  1  2  0  0  0  0
 10  5  1  0  0  0  0
 11 12  1  6  0  0  0
 11  1  1  0  0  0  0
 11 22  1  0  0  0  0
 13 14  2  0  0  0  0
 13 18  1  0  0  0  0
 14 15  1  0  0  0  0
 15 21  1  0  0  0  0
 15 16  2  0  0  0  0
 17 16  1  0  0  0  0
 17 11  1  0  0  0  0
 18 17  2  0  0  0  0
 19 13  1  0  0  0  0
 20 14  1  0  0  0  0
 22 23  1  0  0  0  0
 24  6  1  0  0  0  0
 25 24  2  0  0  0  0
 26 28  1  0  0  0  0
 26 25  1  0  0  0  0
 27 26  1  0  0  0  0
 29 26  1  0  0  0  0
 30 29  1  0  0  0  0
 31 30  1  0  0  0  0
 31 32  1  0  0  0  0
 33 31  1  0  0  0  0
 34 33  1  0  0  0  0
 35 36  1  0  0  0  0
 35 33  1  0  0  0  0
 36 38  1  0  0  0  0
 37 36  1  0  0  0  0
 38 30  1  0  0  0  0
 38 39  1  0  0  0  0
M  END
>  <minimizedAffinity>
-5.54579592

>  <minimizedRMSD>
0.811743319

$$$$
