
 OpenBabel03272507423D

 42 45  0  0  0  0  0  0  0  0999 V2000
   36.4250   31.0690   49.9340 C   0  0  0  0  0  0  0  0  0  0  0  0
   35.3800   30.1900   49.6600 C   0  0  0  0  0  0  0  0  0  0  0  0
   35.1540   29.0940   50.4630 C   0  0  0  0  0  0  0  0  0  0  0  0
   35.9850   28.9080   51.5240 N   0  0  0  0  0  0  0  0  0  0  0  0
   37.0010   29.7750   51.7800 C   0  0  0  0  0  0  0  0  0  0  0  0
   37.2020   30.8240   50.9930 N   0  0  0  0  0  0  0  0  0  0  0  0
   34.3630   28.3710   50.3100 H   0  0  0  0  0  0  0  0  0  0  0  0
   37.6410   29.5840   52.6430 H   0  0  0  0  0  0  0  0  0  0  0  0
   34.1360   29.1350   47.8290 C   0  0  0  0  0  0  0  0  0  0  0  0
   34.5780   27.9210   47.8260 O   0  0  0  0  0  0  0  0  0  0  0  0
   34.4780   30.3020   48.5910 N   0  0  0  0  0  0  0  0  0  0  0  0
   33.9840   31.1550   48.2410 H   0  0  0  0  0  0  0  0  0  0  0  0
   33.0750   29.1350   46.7780 C   0  0  0  0  0  3  0  0  0  0  0  0
   32.8900   30.5290   46.2950 C   0  0  0  0  0  3  0  0  0  0  0  0
   33.6830   30.8130   45.5410 H   0  0  0  0  0  0  0  0  0  0  0  0
   31.5760   30.7770   45.6040 C   0  0  0  0  0  3  0  0  0  0  0  0
   30.9100   31.3820   46.2640 H   0  0  0  0  0  0  0  0  0  0  0  0
   30.8710   29.5910   45.3800 O   0  0  0  0  0  0  0  0  0  0  0  0
   30.5630   29.1220   46.6750 C   0  0  0  0  0  3  0  0  0  0  0  0
   29.7350   28.3850   46.6450 H   0  0  0  0  0  0  0  0  0  0  0  0
   31.8330   28.4040   47.1400 C   0  0  0  0  0  3  0  0  0  0  0  0
   31.6870   28.1900   48.2100 H   0  0  0  0  0  0  0  0  0  0  0  0
   36.4930   32.0820   49.0400 O   0  0  0  0  0  0  0  0  0  0  0  0
   38.0930   32.0630   47.1430 C   0  0  0  0  0  0  0  0  0  0  0  0
   37.6570   32.4820   48.3870 C   0  0  0  0  0  0  0  0  0  0  0  0
   38.4070   33.3950   49.1160 C   0  0  0  0  0  0  0  0  0  0  0  0
   39.5950   33.8800   48.5840 C   0  0  0  0  0  0  0  0  0  0  0  0
   40.0220   33.4550   47.3410 C   0  0  0  0  0  0  0  0  0  0  0  0
   39.2540   32.5550   46.6540 C   0  0  0  0  0  0  0  0  0  0  0  0
   38.1230   33.7620   50.0930 H   0  0  0  0  0  0  0  0  0  0  0  0
   40.1770   34.5890   49.1510 H   0  0  0  0  0  0  0  0  0  0  0  0
   40.9410   33.8120   46.8970 H   0  0  0  0  0  0  0  0  0  0  0  0
   39.7200   32.1030   45.3180 C   0  0  0  0  0  0  0  0  0  0  0  0
   40.5640   31.0880   44.9910 C   0  0  0  0  0  0  0  0  0  0  0  0
   40.6990   31.0520   43.6090 C   0  0  0  0  0  0  0  0  0  0  0  0
   39.9050   32.0790   43.1720 C   0  0  0  0  0  0  0  0  0  0  0  0
   39.3280   32.6970   44.2000 O   0  0  0  0  0  0  0  0  0  0  0  0
   41.0480   30.4210   45.6940 H   0  0  0  0  0  0  0  0  0  0  0  0
   41.2970   30.3700   42.9960 H   0  0  0  0  0  0  0  0  0  0  0  0
   39.7450   32.3760   42.1260 H   0  0  0  0  0  0  0  0  0  0  0  0
   36.6000   30.3810   45.8990 N   0  0  0  0  0  0  0  0  0  0  0  0
   37.2630   31.1250   46.4610 C   0  0  0  0  0  0  0  0  0  0  0  0
  1  6  1  0  0  0  0
  2  1  2  0  0  0  0
  2  3  1  0  0  0  0
  3  4  2  0  0  0  0
  4  5  1  0  0  0  0
  5  8  1  0  0  0  0
  6  5  2  0  0  0  0
  7  3  1  0  0  0  0
  9 11  1  0  0  0  0
 10  9  2  0  0  0  0
 11  2  1  0  0  0  0
 12 11  1  0  0  0  0
 13 21  1  0  0  0  0
 13  9  1  0  0  0  0
 14 13  1  0  0  0  0
 15 14  1  0  0  0  0
 16 17  1  0  0  0  0
 16 14  1  0  0  0  0
 18 16  1  0  0  0  0
 18 19  1  0  0  0  0
 19 21  1  0  0  0  0
 20 19  1  0  0  0  0
 21 22  1  0  0  0  0
 23  1  1  0  0  0  0
 24 25  1  0  0  0  0
 25 23  1  0  0  0  0
 25 26  2  0  0  0  0
 26 30  1  0  0  0  0
 27 26  1  0  0  0  0
 27 31  1  0  0  0  0
 28 27  2  0  0  0  0
 29 24  2  0  0  0  0
 29 28  1  0  0  0  0
 32 28  1  0  0  0  0
 33 29  1  0  0  0  0
 34 33  2  0  0  0  0
 34 38  1  0  0  0  0
 35 34  1  0  0  0  0
 36 35  2  0  0  0  0
 36 37  1  0  0  0  0
 37 33  1  0  0  0  0
 39 35  1  0  0  0  0
 40 36  1  0  0  0  0
 41 42  3  0  0  0  0
 42 24  1  0  0  0  0
M  END
>  <minimizedAffinity>
-5.88840294

>  <minimizedRMSD>
0.732113183

$$$$
