
 OpenBabel03272500543D

 33 35  0  0  0  0  0  0  0  0999 V2000
   36.0450   30.2630   43.6500 C   0  0  0  0  0  0  0  0  0  0  0  0
   36.1490   29.4350   42.5420 C   0  0  0  0  0  0  0  0  0  0  0  0
   37.2790   29.4060   41.7330 C   0  0  0  0  0  0  0  0  0  0  0  0
   38.3660   30.2640   42.0600 C   0  0  0  0  0  0  0  0  0  0  0  0
   38.2240   31.0640   43.1580 C   0  0  0  0  0  0  0  0  0  0  0  0
   37.1210   31.0880   43.9510 C   0  0  0  0  0  0  0  0  0  0  0  0
   35.3210   28.7670   42.2710 H   0  0  0  0  0  0  0  0  0  0  0  0
   37.2590   28.7110   40.8770 H   0  0  0  0  0  0  0  0  0  0  0  0
   39.1520   30.1230   41.3450 H   0  0  0  0  0  0  0  0  0  0  0  0
   39.1270   31.6370   43.1700 H   0  0  0  0  0  0  0  0  0  0  0  0
   34.7150   29.3520   45.4600 C   0  0  0  0  0  0  0  0  0  0  0  0
   34.7760   30.2110   44.3490 C   0  0  0  0  0  0  0  0  0  0  0  0
   33.6090   30.9240   44.0370 C   0  0  0  0  0  0  0  0  0  0  0  0
   32.5070   30.7670   44.7840 N   0  0  0  0  0  0  0  0  0  0  0  0
   32.4620   29.9440   45.8400 C   0  0  0  0  0  0  0  0  0  0  0  0
   33.5650   29.2450   46.1660 N   0  0  0  0  0  0  0  0  0  0  0  0
   35.5380   28.7450   45.8110 H   0  0  0  0  0  0  0  0  0  0  0  0
   33.6950   31.5630   43.1910 H   0  0  0  0  0  0  0  0  0  0  0  0
   31.6030   29.7800   46.4740 H   0  0  0  0  0  0  0  0  0  0  0  0
   37.7690   31.3690   46.1930 C   0  0  0  0  0  0  0  0  0  0  0  0
   38.2800   30.1990   46.0610 O   0  0  0  0  0  0  0  0  0  0  0  0
   37.0030   31.8890   45.0900 N   0  0  0  0  0  0  0  0  0  0  0  0
   36.4480   32.7340   45.1280 H   0  0  0  0  0  0  0  0  0  0  0  0
   37.9290   32.2130   47.4250 C   0  0  0  0  0  3  0  0  0  0  0  0
   39.3520   32.7550   47.5170 C   0  0  0  0  0  3  0  0  0  0  0  0
   39.5120   33.2950   46.5600 H   0  0  0  0  0  0  0  0  0  0  0  0
   39.3340   33.7940   48.6310 C   0  0  0  0  0  3  0  0  0  0  0  0
   38.6830   34.6470   48.3110 H   0  0  0  0  0  0  0  0  0  0  0  0
   38.7930   33.2980   49.7950 O   0  0  0  0  0  0  0  0  0  0  0  0
   38.5530   31.9460   49.7610 C   0  0  0  0  0  3  0  0  0  0  0  0
   38.1080   31.6480   50.7350 H   0  0  0  0  0  0  0  0  0  0  0  0
   37.5350   31.5570   48.6830 C   0  0  0  0  0  3  0  0  0  0  0  0
   37.5280   30.4560   48.6820 H   0  0  0  0  0  0  0  0  0  0  0  0
  1  6  1  0  0  0  0
  1 12  1  0  0  0  0
  2  1  2  0  0  0  0
  3  4  2  0  0  0  0
  3  2  1  0  0  0  0
  4  5  1  0  0  0  0
  5 10  1  0  0  0  0
  5  6  2  0  0  0  0
  6 22  1  0  0  0  0
  7  2  1  0  0  0  0
  8  3  1  0  0  0  0
  9  4  1  0  0  0  0
 11 17  1  0  0  0  0
 11 16  1  0  0  0  0
 12 11  2  0  0  0  0
 13 12  1  0  0  0  0
 13 14  2  0  0  0  0
 14 15  1  0  0  0  0
 15 16  2  0  0  0  0
 15 19  1  0  0  0  0
 18 13  1  0  0  0  0
 20 24  1  0  0  0  0
 21 20  2  0  0  0  0
 22 23  1  0  0  0  0
 22 20  1  0  0  0  0
 24 25  1  0  0  0  0
 24 32  1  0  0  0  0
 25 27  1  0  0  0  0
 26 25  1  0  0  0  0
 27 29  1  0  0  0  0
 28 27  1  0  0  0  0
 30 29  1  0  0  0  0
 30 31  1  0  0  0  0
 32 30  1  0  0  0  0
 33 32  1  0  0  0  0
M  END
>  <minimizedAffinity>
-4.29610205

>  <minimizedRMSD>
4.93019247

$$$$
