
 OpenBabel03272509433D

 39 41  0  0  1  0  0  0  0  0999 V2000
   37.0240   30.9090   49.0860 C   0  0  0  0  0  0  0  0  0  0  0  0
   36.7230   31.8180   50.1020 C   0  0  0  0  0  0  0  0  0  0  0  0
   37.3030   33.0780   50.1490 C   0  0  0  0  0  0  0  0  0  0  0  0
   38.2130   33.4550   49.1610 C   0  0  0  0  0  0  0  0  0  0  0  0
   38.4960   32.5520   48.1740 C   0  0  0  0  0  0  0  0  0  0  0  0
   37.9000   31.3020   48.1550 C   0  0  0  0  0  0  0  0  0  0  0  0
   36.0050   31.4860   50.8590 H   0  0  0  0  0  0  0  0  0  0  0  0
   36.9810   33.6750   50.9870 H   0  0  0  0  0  0  0  0  0  0  0  0
   38.6230   34.4490   49.2650 H   0  0  0  0  0  0  0  0  0  0  0  0
   39.2220   32.9850   47.4760 H   0  0  0  0  0  0  0  0  0  0  0  0
   36.4470   29.5830   49.0550 C   0  0  2  0  0  0  0  0  0  0  0  0
   36.9480   29.0560   48.1550 H   0  0  0  0  0  0  0  0  0  0  0  0
   33.5890   29.9230   46.8340 C   0  0  0  0  0  0  0  0  0  0  0  0
   32.8450   28.7840   47.0700 C   0  0  0  0  0  0  0  0  0  0  0  0
   33.2840   27.9090   48.0470 C   0  0  0  0  0  0  0  0  0  0  0  0
   34.4360   28.1980   48.7420 N   0  0  0  0  0  0  0  0  0  0  0  0
   35.1050   29.3000   48.4690 C   0  0  0  0  0  0  0  0  0  0  0  0
   34.6900   30.1660   47.5220 N   0  0  0  0  0  0  0  0  0  0  0  0
   33.2770   30.6420   46.0710 H   0  0  0  0  0  0  0  0  0  0  0  0
   31.9620   28.6610   46.4650 H   0  0  0  0  0  0  0  0  0  0  0  0
   32.6960   27.0200   48.2290 H   0  0  0  0  0  0  0  0  0  0  0  0
   36.9230   28.8130   49.9680 O   0  0  0  0  0  0  0  0  0  0  0  0
   36.7160   28.9140   50.9210 H   0  0  0  0  0  0  0  0  0  0  0  0
   38.3160   30.4390   47.0730 C   0  0  0  0  0  3  0  0  0  0  0  0
   38.7940   30.8870   45.9070 C   0  0  0  0  0  3  0  0  0  0  0  0
   39.2900   30.0980   44.7540 C   0  0  0  0  0  0  0  0  0  0  0  0
   39.9160   29.2690   45.1820 H   0  0  0  0  0  0  0  0  0  0  0  0
   38.4400   29.6730   44.2030 H   0  0  0  0  0  0  0  0  0  0  0  0
   40.3850   31.1080   43.7540 S   0  0  0  0  0  0  0  0  0  0  0  0
   40.5300   30.4940   42.0590 C   0  0  0  0  0  3  0  0  0  0  0  0
   39.1750   30.1940   41.5090 C   0  0  0  0  0  3  0  0  0  0  0  0
   38.5060   29.6880   42.2280 H   0  0  0  0  0  0  0  0  0  0  0  0
   39.1720   29.4350   40.2260 C   0  0  0  0  0  3  0  0  0  0  0  0
   39.2800   30.1660   39.3800 H   0  0  0  0  0  0  0  0  0  0  0  0
   40.1290   28.4610   40.1010 O   0  0  0  0  0  0  0  0  0  0  0  0
   40.7950   28.1230   41.2570 C   0  0  0  0  0  3  0  0  0  0  0  0
   41.6620   27.4790   40.9300 H   0  0  0  0  0  0  0  0  0  0  0  0
   41.3880   29.2750   41.9960 C   0  0  0  0  0  3  0  0  0  0  0  0
   41.6050   28.9280   43.0470 H   0  0  0  0  0  0  0  0  0  0  0  0
  1  2  1  0  0  0  0
  2  3  2  0  0  0  0
  2  7  1  0  0  0  0
  3  8  1  0  0  0  0
  4  9  1  0  0  0  0
  4  3  1  0  0  0  0
  5  4  2  0  0  0  0
  6  5  1  0  0  0  0
  6  1  2  0  0  0  0
 10  5  1  0  0  0  0
 11 12  1  6  0  0  0
 11  1  1  0  0  0  0
 11 22  1  0  0  0  0
 13 14  2  0  0  0  0
 13 18  1  0  0  0  0
 14 15  1  0  0  0  0
 15 21  1  0  0  0  0
 15 16  2  0  0  0  0
 17 16  1  0  0  0  0
 17 11  1  0  0  0  0
 18 17  2  0  0  0  0
 19 13  1  0  0  0  0
 20 14  1  0  0  0  0
 22 23  1  0  0  0  0
 24  6  1  0  0  0  0
 25 24  2  0  0  0  0
 26 27  1  0  0  0  0
 26 25  1  0  0  0  0
 28 26  1  0  0  0  0
 29 26  1  0  0  0  0
 30 29  1  0  0  0  0
 31 30  1  0  0  0  0
 31 32  1  0  0  0  0
 33 31  1  0  0  0  0
 34 33  1  0  0  0  0
 35 33  1  0  0  0  0
 35 36  1  0  0  0  0
 36 38  1  0  0  0  0
 37 36  1  0  0  0  0
 38 30  1  0  0  0  0
 38 39  1  0  0  0  0
M  END
>  <minimizedAffinity>
-5.88081074

>  <minimizedRMSD>
0.562351763

$$$$
