
 OpenBabel03272509433D

 39 41  0  0  1  0  0  0  0  0999 V2000
   37.6110   31.0930   48.8370 C   0  0  0  0  0  0  0  0  0  0  0  0
   37.5090   32.0910   49.8090 C   0  0  0  0  0  0  0  0  0  0  0  0
   38.1410   33.3180   49.6640 C   0  0  0  0  0  0  0  0  0  0  0  0
   38.9000   33.5720   48.5210 C   0  0  0  0  0  0  0  0  0  0  0  0
   38.9880   32.5830   47.5790 C   0  0  0  0  0  0  0  0  0  0  0  0
   38.3460   31.3680   47.7540 C   0  0  0  0  0  0  0  0  0  0  0  0
   36.9050   31.8540   50.6920 H   0  0  0  0  0  0  0  0  0  0  0  0
   37.9780   33.9920   50.4890 H   0  0  0  0  0  0  0  0  0  0  0  0
   39.3610   34.5470   48.4790 H   0  0  0  0  0  0  0  0  0  0  0  0
   39.6130   32.9240   46.7460 H   0  0  0  0  0  0  0  0  0  0  0  0
   36.9810   29.8020   49.0030 C   0  0  2  0  0  0  0  0  0  0  0  0
   37.3990   29.1490   48.1440 H   0  0  0  0  0  0  0  0  0  0  0  0
   33.9250   30.1460   47.0660 C   0  0  0  0  0  0  0  0  0  0  0  0
   33.2160   28.9960   47.3530 C   0  0  0  0  0  0  0  0  0  0  0  0
   33.7520   28.1110   48.2700 C   0  0  0  0  0  0  0  0  0  0  0  0
   34.9630   28.4020   48.8590 N   0  0  0  0  0  0  0  0  0  0  0  0
   35.5930   29.5130   48.5420 C   0  0  0  0  0  0  0  0  0  0  0  0
   35.0840   30.3890   47.6510 N   0  0  0  0  0  0  0  0  0  0  0  0
   33.5370   30.8730   46.3470 H   0  0  0  0  0  0  0  0  0  0  0  0
   32.2810   28.8740   46.8320 H   0  0  0  0  0  0  0  0  0  0  0  0
   33.1920   27.2140   48.4940 H   0  0  0  0  0  0  0  0  0  0  0  0
   37.4890   29.1230   49.9710 O   0  0  0  0  0  0  0  0  0  0  0  0
   37.3510   29.3460   50.9160 H   0  0  0  0  0  0  0  0  0  0  0  0
   38.5520   30.4060   46.6960 C   0  0  0  0  0  3  0  0  0  0  0  0
   38.8610   30.7400   45.4380 C   0  0  0  0  0  3  0  0  0  0  0  0
   39.1380   29.8420   44.2920 C   0  0  0  0  0  0  0  0  0  0  0  0
   39.6260   28.9240   44.7180 H   0  0  0  0  0  0  0  0  0  0  0  0
   38.1950   29.5660   43.8010 H   0  0  0  0  0  0  0  0  0  0  0  0
   40.3390   30.6050   43.2000 S   0  0  0  0  0  0  0  0  0  0  0  0
   41.1960   29.3940   42.1650 C   0  0  0  0  0  3  0  0  0  0  0  0
   41.3910   29.9450   40.7910 C   0  0  0  0  0  3  0  0  0  0  0  0
   40.5090   30.4850   40.4020 H   0  0  0  0  0  0  0  0  0  0  0  0
   41.8410   28.9530   39.7750 C   0  0  0  0  0  3  0  0  0  0  0  0
   42.9590   28.8720   39.8280 H   0  0  0  0  0  0  0  0  0  0  0  0
   41.2960   27.6980   39.8760 O   0  0  0  0  0  0  0  0  0  0  0  0
   40.2160   27.5800   40.7210 C   0  0  0  0  0  3  0  0  0  0  0  0
   40.0420   26.4710   40.8360 H   0  0  0  0  0  0  0  0  0  0  0  0
   40.4400   28.1090   42.0990 C   0  0  0  0  0  3  0  0  0  0  0  0
   39.4280   28.2570   42.5740 H   0  0  0  0  0  0  0  0  0  0  0  0
  1 11  1  0  0  0  0
  1  2  1  0  0  0  0
  2  7  1  0  0  0  0
  3  2  2  0  0  0  0
  3  8  1  0  0  0  0
  4  3  1  0  0  0  0
  5  6  1  0  0  0  0
  5  4  2  0  0  0  0
  6  1  2  0  0  0  0
  9  4  1  0  0  0  0
 10  5  1  0  0  0  0
 11 12  1  6  0  0  0
 11 22  1  0  0  0  0
 13 14  2  0  0  0  0
 13 18  1  0  0  0  0
 14 15  1  0  0  0  0
 15 21  1  0  0  0  0
 15 16  2  0  0  0  0
 17 16  1  0  0  0  0
 17 11  1  0  0  0  0
 18 17  2  0  0  0  0
 19 13  1  0  0  0  0
 20 14  1  0  0  0  0
 22 23  1  0  0  0  0
 24  6  1  0  0  0  0
 25 24  2  0  0  0  0
 26 27  1  0  0  0  0
 26 25  1  0  0  0  0
 28 26  1  0  0  0  0
 29 26  1  0  0  0  0
 30 29  1  0  0  0  0
 31 30  1  0  0  0  0
 32 31  1  0  0  0  0
 33 34  1  0  0  0  0
 33 35  1  0  0  0  0
 33 31  1  0  0  0  0
 35 36  1  0  0  0  0
 36 37  1  0  0  0  0
 36 38  1  0  0  0  0
 38 30  1  0  0  0  0
 38 39  1  0  0  0  0
M  END
>  <minimizedAffinity>
-5.99761152

>  <minimizedRMSD>
1.17276847

$$$$
