
 OpenBabel03272508583D

 41 44  0  0  1  0  0  0  0  0999 V2000
   39.1390   31.4040   43.3350 C   0  0  0  0  0  0  0  0  0  0  0  0
   40.2420   30.6070   43.5280 C   0  0  0  0  0  0  0  0  0  0  0  0
   40.9800   30.2500   42.4060 C   0  0  0  0  0  0  0  0  0  0  0  0
   40.5560   30.7200   41.1770 C   0  0  0  0  0  0  0  0  0  0  0  0
   39.4370   31.5260   40.9890 C   0  0  0  0  0  0  0  0  0  0  0  0
   38.7540   31.8450   42.1050 N   0  0  0  0  0  0  0  0  0  0  0  0
   40.5630   30.2460   44.4950 H   0  0  0  0  0  0  0  0  0  0  0  0
   41.8470   29.6300   42.5130 H   0  0  0  0  0  0  0  0  0  0  0  0
   41.1090   30.4600   40.2830 H   0  0  0  0  0  0  0  0  0  0  0  0
   38.3360   31.8150   44.5060 C   0  0  0  0  0  0  0  0  0  0  0  0
   37.2320   32.3550   44.3960 O   0  0  0  0  0  0  0  0  0  0  0  0
   38.9160   31.5520   45.8170 N   0  0  0  0  0  0  0  0  0  0  0  0
   39.8980   31.2820   45.9830 H   0  0  0  0  0  0  0  0  0  0  0  0
   38.4120   31.0830   48.2060 C   0  0  2  0  0  0  0  0  0  0  0  0
   38.6540   32.5470   48.1030 C   0  0  0  0  0  0  0  0  0  0  0  0
   38.0440   31.6810   46.9660 C   0  0  1  0  0  0  0  0  0  0  0  0
   39.3460   30.4880   48.3060 H   0  0  0  0  0  0  0  0  0  0  0  0
   37.9860   33.2630   48.6070 H   0  0  0  0  0  0  0  0  0  0  0  0
   39.6700   32.9190   47.9630 H   0  0  0  0  0  0  0  0  0  0  0  0
   36.9760   31.9320   46.7660 H   0  0  0  0  0  0  0  0  0  0  0  0
   35.0520   30.2310   49.5360 C   0  0  0  0  0  0  0  0  0  0  0  0
   35.3810   29.5650   50.7620 C   0  0  0  0  0  0  0  0  0  0  0  0
   36.7670   29.4330   51.1040 C   0  0  0  0  0  0  0  0  0  0  0  0
   37.7270   29.9400   50.2620 N   0  0  0  0  0  0  0  0  0  0  0  0
   37.3340   30.5570   49.1200 C   0  0  0  0  0  0  0  0  0  0  0  0
   36.0110   30.7220   48.7250 N   0  0  0  0  0  0  0  0  0  0  0  0
   33.9940   30.3030   49.3250 H   0  0  0  0  0  0  0  0  0  0  0  0
   34.6210   29.1710   51.4140 H   0  0  0  0  0  0  0  0  0  0  0  0
   37.0270   28.9330   52.0260 H   0  0  0  0  0  0  0  0  0  0  0  0
   39.0490   31.9820   39.6600 C   0  0  0  0  0  0  0  0  0  0  0  0
   39.1400   33.2040   39.3970 O   0  0  0  0  0  0  0  0  0  0  0  0
   38.5520   31.1490   38.5670 C   0  0  0  0  0  3  0  0  0  0  0  0
   37.5960   30.1260   39.1920 C   0  0  0  0  0  3  0  0  0  0  0  0
   36.8660   30.7330   39.7610 H   0  0  0  0  0  0  0  0  0  0  0  0
   36.9670   29.2730   38.1300 C   0  0  0  0  0  3  0  0  0  0  0  0
   36.2360   29.8490   37.5290 H   0  0  0  0  0  0  0  0  0  0  0  0
   37.9630   28.6770   37.3830 O   0  0  0  0  0  0  0  0  0  0  0  0
   38.8020   29.5780   36.7520 C   0  0  0  0  0  3  0  0  0  0  0  0
   38.1140   30.3270   36.2630 H   0  0  0  0  0  0  0  0  0  0  0  0
   39.5780   30.3830   37.8040 C   0  0  0  0  0  3  0  0  0  0  0  0
   40.1620   29.6730   38.3960 H   0  0  0  0  0  0  0  0  0  0  0  0
  1  2  1  0  0  0  0
  1 10  1  0  0  0  0
  2  7  1  0  0  0  0
  3  8  1  0  0  0  0
  3  2  2  0  0  0  0
  4  3  1  0  0  0  0
  5  4  2  0  0  0  0
  5  6  1  0  0  0  0
  6  1  2  0  0  0  0
  9  4  1  0  0  0  0
 10 12  1  0  0  0  0
 11 10  2  0  0  0  0
 12 13  1  0  0  0  0
 12 16  1  0  0  0  0
 14 17  1  6  0  0  0
 14 25  1  0  0  0  0
 15 14  1  0  0  0  0
 15 18  1  0  0  0  0
 16 20  1  6  0  0  0
 16 15  1  0  0  0  0
 16 14  1  0  0  0  0
 19 15  1  0  0  0  0
 21 22  1  0  0  0  0
 22 23  2  0  0  0  0
 22 28  1  0  0  0  0
 23 29  1  0  0  0  0
 24 23  1  0  0  0  0
 25 24  2  0  0  0  0
 26 25  1  0  0  0  0
 26 21  2  0  0  0  0
 27 21  1  0  0  0  0
 30  5  1  0  0  0  0
 31 30  2  0  0  0  0
 32 33  1  0  0  0  0
 32 30  1  0  0  0  0
 33 34  1  0  0  0  0
 35 33  1  0  0  0  0
 36 35  1  0  0  0  0
 37 35  1  0  0  0  0
 38 37  1  0  0  0  0
 38 40  1  0  0  0  0
 39 38  1  0  0  0  0
 40 41  1  0  0  0  0
 40 32  1  0  0  0  0
M  END
>  <minimizedAffinity>
-4.81139994

>  <minimizedRMSD>
0.821943104

$$$$
