
 OpenBabel03272504433D

 46 48  0  0  0  0  0  0  0  0999 V2000
   36.6640   28.1720   34.2890 C   0  0  0  0  0  0  0  0  0  0  0  0
   37.5660   28.8380   34.3820 H   0  0  0  0  0  0  0  0  0  0  0  0
   36.2450   28.1810   35.3380 H   0  0  0  0  0  0  0  0  0  0  0  0
   38.3640   26.8890   36.3550 Cl  0  0  0  0  0  0  0  0  0  0  0  0
   37.9010   26.1060   34.8350 C   0  0  0  0  0  0  0  0  0  0  0  0
   38.3350   24.8510   34.5820 C   0  0  0  0  0  0  0  0  0  0  0  0
   37.9820   24.2320   33.4040 C   0  0  0  0  0  0  0  0  0  0  0  0
   37.1850   24.9260   32.5080 C   0  0  0  0  0  0  0  0  0  0  0  0
   36.7730   26.2220   32.8360 C   0  0  0  0  0  0  0  0  0  0  0  0
   37.1090   26.8410   33.9860 C   0  0  0  0  0  0  0  0  0  0  0  0
   38.3420   23.2190   33.2150 H   0  0  0  0  0  0  0  0  0  0  0  0
   36.9560   24.3730   31.6150 H   0  0  0  0  0  0  0  0  0  0  0  0
   36.1840   26.5970   32.0630 H   0  0  0  0  0  0  0  0  0  0  0  0
   41.2260   23.1810   36.1420 C   0  0  0  0  0  0  0  0  0  0  0  0
   40.6620   22.7640   37.3830 C   0  0  0  0  0  0  0  0  0  0  0  0
   39.3070   23.0710   37.6380 C   0  0  0  0  0  0  0  0  0  0  0  0
   38.6060   23.7490   36.6950 N   0  0  0  0  0  0  0  0  0  0  0  0
   39.1750   24.1310   35.5260 C   0  0  0  0  0  0  0  0  0  0  0  0
   40.4630   23.8470   35.2640 N   0  0  0  0  0  0  0  0  0  0  0  0
   42.2660   22.9440   35.9500 H   0  0  0  0  0  0  0  0  0  0  0  0
   41.3300   22.2310   38.0460 H   0  0  0  0  0  0  0  0  0  0  0  0
   38.7820   22.6500   38.8620 N   0  0  0  0  0  0  0  0  0  0  0  0
   38.9180   21.7230   39.2750 H   0  0  0  0  0  0  0  0  0  0  0  0
   38.1970   23.3170   39.4200 H   0  0  0  0  0  0  0  0  0  0  0  0
   35.6860   28.8270   33.4030 C   0  0  0  0  0  0  0  0  0  0  0  0
   35.2610   28.1290   32.6430 H   0  0  0  0  0  0  0  0  0  0  0  0
   36.2050   29.6230   32.8150 H   0  0  0  0  0  0  0  0  0  0  0  0
   34.6250   29.3230   34.1140 O   0  0  0  0  0  0  0  0  0  0  0  0
   34.2760   30.5760   31.8300 O   0  0  0  0  0  0  0  0  0  0  0  0
   33.8630   30.5580   33.2680 P   0  0  2  0  0  0  0  0  0  0  0  0
   34.3280   32.0340   34.0300 O   0  0  0  0  0  0  0  0  0  0  0  0
   34.7500   31.7410   35.3250 C   0  0  0  0  0  3  0  0  0  0  0  0
   36.1650   32.1420   35.6400 C   0  0  0  0  0  3  0  0  0  0  0  0
   36.3910   31.7360   36.6610 H   0  0  0  0  0  0  0  0  0  0  0  0
   36.3330   33.6310   35.7330 C   0  0  0  0  0  3  0  0  0  0  0  0
   37.2610   33.7920   36.3650 H   0  0  0  0  0  0  0  0  0  0  0  0
   35.2720   34.2340   36.4110 O   0  0  0  0  0  0  0  0  0  0  0  0
   34.5960   33.3340   37.2110 C   0  0  0  0  0  3  0  0  0  0  0  0
   35.3180   32.8700   37.9050 H   0  0  0  0  0  0  0  0  0  0  0  0
   33.8580   32.3440   36.3560 C   0  0  0  0  0  3  0  0  0  0  0  0
   33.3360   31.5700   36.9640 H   0  0  0  0  0  0  0  0  0  0  0  0
   32.2100   30.4790   33.3850 O   0  0  0  0  0  0  0  0  0  0  0  0
   31.7800   29.2060   33.6890 C   0  0  0  0  0  0  0  0  0  0  0  0
   30.3880   29.1160   33.7580 F   0  0  0  0  0  0  0  0  0  0  0  0
   32.1790   28.2940   32.7220 F   0  0  0  0  0  0  0  0  0  0  0  0
   32.2890   28.7970   34.8950 F   0  0  0  0  0  0  0  0  0  0  0  0
  1  2  1  0  0  0  0
  1  3  1  0  0  0  0
  5  4  1  0  0  0  0
  6  5  1  0  0  0  0
  6 18  1  0  0  0  0
  7  6  2  0  0  0  0
  8  9  2  0  0  0  0
  8  7  1  0  0  0  0
  9 10  1  0  0  0  0
 10  1  1  0  0  0  0
 10  5  2  0  0  0  0
 11  7  1  0  0  0  0
 12  8  1  0  0  0  0
 13  9  1  0  0  0  0
 14 15  1  0  0  0  0
 15 16  2  0  0  0  0
 15 21  1  0  0  0  0
 16 22  1  0  0  0  0
 17 16  1  0  0  0  0
 18 17  2  0  0  0  0
 19 18  1  0  0  0  0
 19 14  2  0  0  0  0
 20 14  1  0  0  0  0
 22 23  1  0  0  0  0
 22 24  1  0  0  0  0
 25 28  1  0  0  0  0
 25  1  1  0  0  0  0
 26 25  1  0  0  0  0
 27 25  1  0  0  0  0
 30 29  2  6  0  0  0
 30 42  1  0  0  0  0
 30 31  1  0  0  0  0
 30 28  1  0  0  0  0
 31 32  1  0  0  0  0
 32 33  1  0  0  0  0
 32 40  1  0  0  0  0
 33 35  1  0  0  0  0
 33 34  1  0  0  0  0
 35 36  1  0  0  0  0
 35 37  1  0  0  0  0
 37 38  1  0  0  0  0
 38 39  1  0  0  0  0
 40 41  1  0  0  0  0
 40 38  1  0  0  0  0
 42 43  1  0  0  0  0
 43 44  1  0  0  0  0
 43 46  1  0  0  0  0
 45 43  1  0  0  0  0
M  END
>  <minimizedAffinity>
-6.10189724

$$$$

 OpenBabel03272504433D

 46 48  0  0  0  0  0  0  0  0999 V2000
   39.1690   25.9990   33.4630 C   0  0  0  0  0  0  0  0  0  0  0  0
   38.9040   26.0710   34.5540 H   0  0  0  0  0  0  0  0  0  0  0  0
   40.2560   26.3090   33.4560 H   0  0  0  0  0  0  0  0  0  0  0  0
   36.8360   27.1230   34.9100 Cl  0  0  0  0  0  0  0  0  0  0  0  0
   37.3000   27.6000   33.2690 C   0  0  0  0  0  0  0  0  0  0  0  0
   36.5630   28.5290   32.6200 C   0  0  0  0  0  0  0  0  0  0  0  0
   36.9140   28.9080   31.3440 C   0  0  0  0  0  0  0  0  0  0  0  0
   38.0230   28.3160   30.7620 C   0  0  0  0  0  0  0  0  0  0  0  0
   38.7380   27.3620   31.4930 C   0  0  0  0  0  0  0  0  0  0  0  0
   38.4080   26.9810   32.7430 C   0  0  0  0  0  0  0  0  0  0  0  0
   36.3070   29.6600   30.8350 H   0  0  0  0  0  0  0  0  0  0  0  0
   38.2280   28.6670   29.7670 H   0  0  0  0  0  0  0  0  0  0  0  0
   39.5360   27.0200   30.9160 H   0  0  0  0  0  0  0  0  0  0  0  0
   34.4180   30.5330   34.8480 C   0  0  0  0  0  0  0  0  0  0  0  0
   33.1270   30.2380   34.3210 C   0  0  0  0  0  0  0  0  0  0  0  0
   33.0400   29.3590   33.2190 C   0  0  0  0  0  0  0  0  0  0  0  0
   34.1860   28.8390   32.7110 N   0  0  0  0  0  0  0  0  0  0  0  0
   35.3970   29.1430   33.2370 C   0  0  0  0  0  0  0  0  0  0  0  0
   35.5000   29.9760   34.2870 N   0  0  0  0  0  0  0  0  0  0  0  0
   34.4800   31.2080   35.6930 H   0  0  0  0  0  0  0  0  0  0  0  0
   32.2960   30.7190   34.8180 H   0  0  0  0  0  0  0  0  0  0  0  0
   31.7630   29.0880   32.7240 N   0  0  0  0  0  0  0  0  0  0  0  0
   30.9430   28.8650   33.2960 H   0  0  0  0  0  0  0  0  0  0  0  0
   31.6050   29.1050   31.6880 H   0  0  0  0  0  0  0  0  0  0  0  0
   39.0980   24.5860   33.0540 C   0  0  0  0  0  0  0  0  0  0  0  0
   40.0270   24.0200   33.3030 H   0  0  0  0  0  0  0  0  0  0  0  0
   39.0110   24.5330   31.9420 H   0  0  0  0  0  0  0  0  0  0  0  0
   38.0670   23.9370   33.6820 O   0  0  0  0  0  0  0  0  0  0  0  0
   40.0770   22.3560   34.2890 O   0  0  0  0  0  0  0  0  0  0  0  0
   38.5850   22.4800   34.3350 P   0  0  2  0  0  0  0  0  0  0  0  0
   37.8640   21.2330   33.3870 O   0  0  0  0  0  0  0  0  0  0  0  0
   36.6080   21.6720   32.9750 C   0  0  0  0  0  3  0  0  0  0  0  0
   36.4540   21.8600   31.4910 C   0  0  0  0  0  3  0  0  0  0  0  0
   35.4460   22.3250   31.3320 H   0  0  0  0  0  0  0  0  0  0  0  0
   36.4400   20.5580   30.7440 C   0  0  0  0  0  3  0  0  0  0  0  0
   35.9120   20.7770   29.7630 H   0  0  0  0  0  0  0  0  0  0  0  0
   35.6830   19.5880   31.4030 O   0  0  0  0  0  0  0  0  0  0  0  0
   34.7820   20.1510   32.2850 C   0  0  0  0  0  3  0  0  0  0  0  0
   34.1470   20.8630   31.7310 H   0  0  0  0  0  0  0  0  0  0  0  0
   35.5180   20.7680   33.4410 C   0  0  0  0  0  3  0  0  0  0  0  0
   34.8280   21.2750   34.1550 H   0  0  0  0  0  0  0  0  0  0  0  0
   38.0430   22.2520   35.8860 O   0  0  0  0  0  0  0  0  0  0  0  0
   38.2750   23.3580   36.6750 C   0  0  0  0  0  0  0  0  0  0  0  0
   38.3380   23.0400   38.0340 F   0  0  0  0  0  0  0  0  0  0  0  0
   39.4890   23.9550   36.3630 F   0  0  0  0  0  0  0  0  0  0  0  0
   37.2860   24.2920   36.5070 F   0  0  0  0  0  0  0  0  0  0  0  0
  1  2  1  0  0  0  0
  3  1  1  0  0  0  0
  5  4  1  0  0  0  0
  6 18  1  0  0  0  0
  6  5  2  0  0  0  0
  7  6  1  0  0  0  0
  8  7  2  0  0  0  0
  8  9  1  0  0  0  0
  9 10  2  0  0  0  0
 10  5  1  0  0  0  0
 10  1  1  0  0  0  0
 11  7  1  0  0  0  0
 12  8  1  0  0  0  0
 13  9  1  0  0  0  0
 14 20  1  0  0  0  0
 15 21  1  0  0  0  0
 15 14  1  0  0  0  0
 16 15  2  0  0  0  0
 17 16  1  0  0  0  0
 17 18  2  0  0  0  0
 18 19  1  0  0  0  0
 19 14  2  0  0  0  0
 22 16  1  0  0  0  0
 22 23  1  0  0  0  0
 24 22  1  0  0  0  0
 25 26  1  0  0  0  0
 25  1  1  0  0  0  0
 25 28  1  0  0  0  0
 27 25  1  0  0  0  0
 28 30  1  0  0  0  0
 30 29  2  6  0  0  0
 30 42  1  0  0  0  0
 31 30  1  0  0  0  0
 32 31  1  0  0  0  0
 32 40  1  0  0  0  0
 33 32  1  0  0  0  0
 34 33  1  0  0  0  0
 35 37  1  0  0  0  0
 35 33  1  0  0  0  0
 36 35  1  0  0  0  0
 37 38  1  0  0  0  0
 38 40  1  0  0  0  0
 39 38  1  0  0  0  0
 40 41  1  0  0  0  0
 42 43  1  0  0  0  0
 43 44  1  0  0  0  0
 45 43  1  0  0  0  0
 46 43  1  0  0  0  0
M  END
>  <minimizedAffinity>
-5.87144232

$$$$

 OpenBabel03272504433D

 46 48  0  0  0  0  0  0  0  0999 V2000
   38.4610   26.5070   32.6730 C   0  0  0  0  0  0  0  0  0  0  0  0
   38.6860   26.5460   33.7740 H   0  0  0  0  0  0  0  0  0  0  0  0
   39.4700   26.7130   32.2110 H   0  0  0  0  0  0  0  0  0  0  0  0
   36.7900   27.5090   34.9100 Cl  0  0  0  0  0  0  0  0  0  0  0  0
   36.7390   28.1740   33.2680 C   0  0  0  0  0  0  0  0  0  0  0  0
   35.8990   29.1970   32.9980 C   0  0  0  0  0  0  0  0  0  0  0  0
   35.8510   29.7220   31.7260 C   0  0  0  0  0  0  0  0  0  0  0  0
   36.6750   29.1740   30.7560 C   0  0  0  0  0  0  0  0  0  0  0  0
   37.5190   28.1160   31.1080 C   0  0  0  0  0  0  0  0  0  0  0  0
   37.5780   27.5920   32.3490 C   0  0  0  0  0  0  0  0  0  0  0  0
   35.1660   30.5480   31.5250 H   0  0  0  0  0  0  0  0  0  0  0  0
   36.5760   29.6400   29.7920 H   0  0  0  0  0  0  0  0  0  0  0  0
   38.0670   27.8260   30.2700 H   0  0  0  0  0  0  0  0  0  0  0  0
   32.9520   29.9520   35.0770 C   0  0  0  0  0  0  0  0  0  0  0  0
   33.4980   30.9000   35.9910 C   0  0  0  0  0  0  0  0  0  0  0  0
   34.8620   31.2450   35.8590 C   0  0  0  0  0  0  0  0  0  0  0  0
   35.5880   30.6610   34.8730 N   0  0  0  0  0  0  0  0  0  0  0  0
   35.0340   29.7630   34.0220 C   0  0  0  0  0  0  0  0  0  0  0  0
   33.7380   29.4220   34.1310 N   0  0  0  0  0  0  0  0  0  0  0  0
   31.9060   29.6890   35.1820 H   0  0  0  0  0  0  0  0  0  0  0  0
   32.8120   31.2900   36.7290 H   0  0  0  0  0  0  0  0  0  0  0  0
   35.3700   32.1760   36.7670 N   0  0  0  0  0  0  0  0  0  0  0  0
   34.9080   33.0480   37.0400 H   0  0  0  0  0  0  0  0  0  0  0  0
   36.2970   31.9900   37.2200 H   0  0  0  0  0  0  0  0  0  0  0  0
   38.0730   25.1300   32.3210 C   0  0  0  0  0  0  0  0  0  0  0  0
   38.9370   24.5190   31.9670 H   0  0  0  0  0  0  0  0  0  0  0  0
   37.3620   25.1610   31.4600 H   0  0  0  0  0  0  0  0  0  0  0  0
   37.5450   24.4700   33.4000 O   0  0  0  0  0  0  0  0  0  0  0  0
   39.9700   23.4620   33.5050 O   0  0  0  0  0  0  0  0  0  0  0  0
   38.5420   23.2070   33.8770 P   0  0  2  0  0  0  0  0  0  0  0  0
   37.9690   21.7960   33.0670 O   0  0  0  0  0  0  0  0  0  0  0  0
   36.5820   21.8860   32.9670 C   0  0  0  0  0  3  0  0  0  0  0  0
   36.0470   21.9320   31.5620 C   0  0  0  0  0  3  0  0  0  0  0  0
   34.9450   22.1250   31.6480 H   0  0  0  0  0  0  0  0  0  0  0  0
   36.1910   20.6190   30.8480 C   0  0  0  0  0  3  0  0  0  0  0  0
   35.4130   20.6380   30.0220 H   0  0  0  0  0  0  0  0  0  0  0  0
   35.8780   19.5390   31.6750 O   0  0  0  0  0  0  0  0  0  0  0  0
   35.0940   19.9220   32.7450 C   0  0  0  0  0  3  0  0  0  0  0  0
   34.1890   20.4190   32.3560 H   0  0  0  0  0  0  0  0  0  0  0  0
   35.8950   20.7760   33.6860 C   0  0  0  0  0  3  0  0  0  0  0  0
   35.2840   21.1450   34.5420 H   0  0  0  0  0  0  0  0  0  0  0  0
   38.4260   22.8860   35.5010 O   0  0  0  0  0  0  0  0  0  0  0  0
   38.5340   24.0330   36.2560 C   0  0  0  0  0  0  0  0  0  0  0  0
   39.3650   24.9860   35.6640 F   0  0  0  0  0  0  0  0  0  0  0  0
   37.3000   24.6470   36.4210 F   0  0  0  0  0  0  0  0  0  0  0  0
   39.0370   23.7500   37.5000 F   0  0  0  0  0  0  0  0  0  0  0  0
  1  2  1  0  0  0  0
  3  1  1  0  0  0  0
  5  4  1  0  0  0  0
  6  5  1  0  0  0  0
  6 18  1  0  0  0  0
  7  6  2  0  0  0  0
  8  9  2  0  0  0  0
  8  7  1  0  0  0  0
  9 10  1  0  0  0  0
 10  1  1  0  0  0  0
 10  5  2  0  0  0  0
 11  7  1  0  0  0  0
 12  8  1  0  0  0  0
 13  9  1  0  0  0  0
 14 20  1  0  0  0  0
 14 15  1  0  0  0  0
 15 21  1  0  0  0  0
 16 15  2  0  0  0  0
 16 22  1  0  0  0  0
 17 16  1  0  0  0  0
 18 19  1  0  0  0  0
 18 17  2  0  0  0  0
 19 14  2  0  0  0  0
 22 23  1  0  0  0  0
 22 24  1  0  0  0  0
 25  1  1  0  0  0  0
 25 28  1  0  0  0  0
 26 25  1  0  0  0  0
 27 25  1  0  0  0  0
 28 30  1  0  0  0  0
 30 29  2  6  0  0  0
 30 42  1  0  0  0  0
 31 30  1  0  0  0  0
 32 31  1  0  0  0  0
 32 40  1  0  0  0  0
 33 34  1  0  0  0  0
 33 32  1  0  0  0  0
 35 33  1  0  0  0  0
 35 37  1  0  0  0  0
 36 35  1  0  0  0  0
 37 38  1  0  0  0  0
 38 40  1  0  0  0  0
 39 38  1  0  0  0  0
 40 41  1  0  0  0  0
 42 43  1  0  0  0  0
 43 45  1  0  0  0  0
 43 46  1  0  0  0  0
 44 43  1  0  0  0  0
M  END
>  <minimizedAffinity>
-5.82780218

$$$$

 OpenBabel03272504433D

 46 48  0  0  0  0  0  0  0  0999 V2000
   39.8130   26.9130   31.6940 C   0  0  0  0  0  0  0  0  0  0  0  0
   40.5850   26.7400   30.8940 H   0  0  0  0  0  0  0  0  0  0  0  0
   40.4130   27.4200   32.5050 H   0  0  0  0  0  0  0  0  0  0  0  0
   39.7140   26.6370   34.6460 Cl  0  0  0  0  0  0  0  0  0  0  0  0
   39.2620   25.3460   33.5200 C   0  0  0  0  0  0  0  0  0  0  0  0
   38.8440   24.1600   34.0130 C   0  0  0  0  0  0  0  0  0  0  0  0
   38.4900   23.1490   33.1480 C   0  0  0  0  0  0  0  0  0  0  0  0
   38.5770   23.3860   31.7860 C   0  0  0  0  0  0  0  0  0  0  0  0
   39.0190   24.6390   31.3470 C   0  0  0  0  0  0  0  0  0  0  0  0
   39.3670   25.6390   32.1820 C   0  0  0  0  0  0  0  0  0  0  0  0
   38.1550   22.1960   33.5630 H   0  0  0  0  0  0  0  0  0  0  0  0
   38.2840   22.5470   31.1810 H   0  0  0  0  0  0  0  0  0  0  0  0
   39.0240   24.6520   30.3060 H   0  0  0  0  0  0  0  0  0  0  0  0
   37.7730   24.2880   37.5370 C   0  0  0  0  0  0  0  0  0  0  0  0
   38.6990   23.3850   38.1360 C   0  0  0  0  0  0  0  0  0  0  0  0
   39.6590   22.7640   37.3060 C   0  0  0  0  0  0  0  0  0  0  0  0
   39.6560   23.0530   35.9800 N   0  0  0  0  0  0  0  0  0  0  0  0
   38.7600   23.9170   35.4450 C   0  0  0  0  0  0  0  0  0  0  0  0
   37.8390   24.5180   36.2180 N   0  0  0  0  0  0  0  0  0  0  0  0
   37.0380   24.7610   38.1770 H   0  0  0  0  0  0  0  0  0  0  0  0
   38.5930   23.2420   39.2020 H   0  0  0  0  0  0  0  0  0  0  0  0
   40.5520   21.8840   37.9200 N   0  0  0  0  0  0  0  0  0  0  0  0
   41.0480   22.0630   38.7980 H   0  0  0  0  0  0  0  0  0  0  0  0
   40.7500   20.9610   37.4650 H   0  0  0  0  0  0  0  0  0  0  0  0
   38.8240   27.8810   31.1890 C   0  0  0  0  0  0  0  0  0  0  0  0
   38.3840   27.5740   30.2110 H   0  0  0  0  0  0  0  0  0  0  0  0
   39.3360   28.8540   30.9890 H   0  0  0  0  0  0  0  0  0  0  0  0
   37.7760   28.0230   32.0610 O   0  0  0  0  0  0  0  0  0  0  0  0
   36.2740   29.3170   30.3360 O   0  0  0  0  0  0  0  0  0  0  0  0
   36.3190   28.1200   31.2340 P   0  0  2  0  0  0  0  0  0  0  0  0
   35.0820   28.2390   32.4300 O   0  0  0  0  0  0  0  0  0  0  0  0
   34.7570   29.5840   32.5880 C   0  0  0  0  0  3  0  0  0  0  0  0
   33.2840   29.8780   32.6710 C   0  0  0  0  0  3  0  0  0  0  0  0
   33.1830   30.9950   32.6720 H   0  0  0  0  0  0  0  0  0  0  0  0
   32.6730   29.3970   33.9550 C   0  0  0  0  0  3  0  0  0  0  0  0
   31.7340   30.0190   34.0940 H   0  0  0  0  0  0  0  0  0  0  0  0
   33.4960   29.6560   35.0530 O   0  0  0  0  0  0  0  0  0  0  0  0
   34.4050   30.6610   34.7870 C   0  0  0  0  0  3  0  0  0  0  0  0
   33.8510   31.5600   34.4660 H   0  0  0  0  0  0  0  0  0  0  0  0
   35.4160   30.1840   33.7830 C   0  0  0  0  0  3  0  0  0  0  0  0
   36.1420   30.9820   33.5060 H   0  0  0  0  0  0  0  0  0  0  0  0
   35.9890   26.7450   30.3650 O   0  0  0  0  0  0  0  0  0  0  0  0
   35.5080   25.7360   31.1700 C   0  0  0  0  0  0  0  0  0  0  0  0
   34.1260   25.8120   31.3520 F   0  0  0  0  0  0  0  0  0  0  0  0
   35.7560   24.4880   30.6160 F   0  0  0  0  0  0  0  0  0  0  0  0
   36.0990   25.7770   32.4070 F   0  0  0  0  0  0  0  0  0  0  0  0
  1 10  1  0  0  0  0
  1  3  1  0  0  0  0
  2  1  1  0  0  0  0
  5  6  1  0  0  0  0
  5  4  1  0  0  0  0
  6 18  1  0  0  0  0
  7 11  1  0  0  0  0
  7  6  2  0  0  0  0
  8  7  1  0  0  0  0
  9  8  2  0  0  0  0
  9 10  1  0  0  0  0
 10  5  2  0  0  0  0
 12  8  1  0  0  0  0
 13  9  1  0  0  0  0
 14 15  1  0  0  0  0
 14 20  1  0  0  0  0
 15 21  1  0  0  0  0
 16 22  1  0  0  0  0
 16 15  2  0  0  0  0
 17 16  1  0  0  0  0
 18 17  2  0  0  0  0
 18 19  1  0  0  0  0
 19 14  2  0  0  0  0
 22 23  1  0  0  0  0
 24 22  1  0  0  0  0
 25  1  1  0  0  0  0
 25 28  1  0  0  0  0
 26 25  1  0  0  0  0
 27 25  1  0  0  0  0
 30 29  2  6  0  0  0
 30 28  1  0  0  0  0
 30 31  1  0  0  0  0
 31 32  1  0  0  0  0
 32 33  1  0  0  0  0
 32 40  1  0  0  0  0
 33 34  1  0  0  0  0
 33 35  1  0  0  0  0
 35 36  1  0  0  0  0
 35 37  1  0  0  0  0
 38 37  1  0  0  0  0
 39 38  1  0  0  0  0
 40 38  1  0  0  0  0
 41 40  1  0  0  0  0
 42 43  1  0  0  0  0
 42 30  1  0  0  0  0
 43 44  1  0  0  0  0
 43 46  1  0  0  0  0
 45 43  1  0  0  0  0
M  END
>  <minimizedAffinity>
-5.77073622

$$$$

 OpenBabel03272504433D

 46 48  0  0  0  0  0  0  0  0999 V2000
   38.6610   26.8580   32.2000 C   0  0  0  0  0  0  0  0  0  0  0  0
   38.5690   26.5450   33.2770 H   0  0  0  0  0  0  0  0  0  0  0  0
   39.6990   27.3030   32.1640 H   0  0  0  0  0  0  0  0  0  0  0  0
   36.9720   27.6430   34.5090 Cl  0  0  0  0  0  0  0  0  0  0  0  0
   36.8500   28.3810   32.9030 C   0  0  0  0  0  0  0  0  0  0  0  0
   35.9430   29.3600   32.6950 C   0  0  0  0  0  0  0  0  0  0  0  0
   35.8380   29.9410   31.4510 C   0  0  0  0  0  0  0  0  0  0  0  0
   36.6770   29.4950   30.4430 C   0  0  0  0  0  0  0  0  0  0  0  0
   37.5920   28.4760   30.7300 C   0  0  0  0  0  0  0  0  0  0  0  0
   37.7070   27.8990   31.9430 C   0  0  0  0  0  0  0  0  0  0  0  0
   35.0990   30.7310   31.3010 H   0  0  0  0  0  0  0  0  0  0  0  0
   36.5310   29.9980   29.5050 H   0  0  0  0  0  0  0  0  0  0  0  0
   38.1420   28.2620   29.8710 H   0  0  0  0  0  0  0  0  0  0  0  0
   32.9750   29.8720   34.8190 C   0  0  0  0  0  0  0  0  0  0  0  0
   33.4960   30.7570   35.8080 C   0  0  0  0  0  0  0  0  0  0  0  0
   34.8500   31.1460   35.7080 C   0  0  0  0  0  0  0  0  0  0  0  0
   35.5920   30.6610   34.6800 N   0  0  0  0  0  0  0  0  0  0  0  0
   35.0630   29.8210   33.7580 C   0  0  0  0  0  0  0  0  0  0  0  0
   33.7750   29.4390   33.8360 N   0  0  0  0  0  0  0  0  0  0  0  0
   31.9360   29.5750   34.8990 H   0  0  0  0  0  0  0  0  0  0  0  0
   32.7990   31.0690   36.5730 H   0  0  0  0  0  0  0  0  0  0  0  0
   35.3340   32.0130   36.6900 N   0  0  0  0  0  0  0  0  0  0  0  0
   34.8500   32.8490   37.0290 H   0  0  0  0  0  0  0  0  0  0  0  0
   36.2650   31.8160   37.1280 H   0  0  0  0  0  0  0  0  0  0  0  0
   38.6570   25.6480   31.3590 C   0  0  0  0  0  0  0  0  0  0  0  0
   39.4390   25.6760   30.5640 H   0  0  0  0  0  0  0  0  0  0  0  0
   37.6840   25.5890   30.8130 H   0  0  0  0  0  0  0  0  0  0  0  0
   38.8980   24.5230   32.1030 O   0  0  0  0  0  0  0  0  0  0  0  0
   36.2740   24.5550   32.2510 O   0  0  0  0  0  0  0  0  0  0  0  0
   37.4770   23.6730   32.3800 P   0  0  2  0  0  0  0  0  0  0  0  0
   37.5800   23.0540   33.9870 O   0  0  0  0  0  0  0  0  0  0  0  0
   38.7320   23.5680   34.5770 C   0  0  0  0  0  3  0  0  0  0  0  0
   38.5010   24.6740   35.5700 C   0  0  0  0  0  3  0  0  0  0  0  0
   39.5140   25.0580   35.8600 H   0  0  0  0  0  0  0  0  0  0  0  0
   37.8560   24.1860   36.8350 C   0  0  0  0  0  3  0  0  0  0  0  0
   38.1180   24.9580   37.6240 H   0  0  0  0  0  0  0  0  0  0  0  0
   38.3990   22.9730   37.2610 O   0  0  0  0  0  0  0  0  0  0  0  0
   39.6530   22.7530   36.7240 C   0  0  0  0  0  3  0  0  0  0  0  0
   40.3000   23.6080   36.9850 H   0  0  0  0  0  0  0  0  0  0  0  0
   39.5390   22.5090   35.2470 C   0  0  0  0  0  3  0  0  0  0  0  0
   40.5350   22.3730   34.7660 H   0  0  0  0  0  0  0  0  0  0  0  0
   37.3230   22.3530   31.3860 O   0  0  0  0  0  0  0  0  0  0  0  0
   36.0190   21.9160   31.3170 C   0  0  0  0  0  0  0  0  0  0  0  0
   35.1890   22.8180   30.6460 F   0  0  0  0  0  0  0  0  0  0  0  0
   35.9250   20.7170   30.6230 F   0  0  0  0  0  0  0  0  0  0  0  0
   35.5030   21.7220   32.5720 F   0  0  0  0  0  0  0  0  0  0  0  0
  1  2  1  0  0  0  0
  3  1  1  0  0  0  0
  5  4  1  0  0  0  0
  6  5  1  0  0  0  0
  6 18  1  0  0  0  0
  7  6  2  0  0  0  0
  8  9  2  0  0  0  0
  8  7  1  0  0  0  0
  9 10  1  0  0  0  0
 10  1  1  0  0  0  0
 10  5  2  0  0  0  0
 11  7  1  0  0  0  0
 12  8  1  0  0  0  0
 13  9  1  0  0  0  0
 14 20  1  0  0  0  0
 14 15  1  0  0  0  0
 15 21  1  0  0  0  0
 16 15  2  0  0  0  0
 16 22  1  0  0  0  0
 17 16  1  0  0  0  0
 18 19  1  0  0  0  0
 18 17  2  0  0  0  0
 19 14  2  0  0  0  0
 22 23  1  0  0  0  0
 22 24  1  0  0  0  0
 25 28  1  0  0  0  0
 25  1  1  0  0  0  0
 26 25  1  0  0  0  0
 27 25  1  0  0  0  0
 28 30  1  0  0  0  0
 30 29  2  6  0  0  0
 30 31  1  0  0  0  0
 31 32  1  0  0  0  0
 32 40  1  0  0  0  0
 32 33  1  0  0  0  0
 33 34  1  0  0  0  0
 33 35  1  0  0  0  0
 35 37  1  0  0  0  0
 35 36  1  0  0  0  0
 38 39  1  0  0  0  0
 38 37  1  0  0  0  0
 40 38  1  0  0  0  0
 41 40  1  0  0  0  0
 42 30  1  0  0  0  0
 43 42  1  0  0  0  0
 43 46  1  0  0  0  0
 44 43  1  0  0  0  0
 45 43  1  0  0  0  0
M  END
>  <minimizedAffinity>
-5.75363207

$$$$

 OpenBabel03272504433D

 46 48  0  0  0  0  0  0  0  0999 V2000
   37.1030   28.0150   33.4870 C   0  0  0  0  0  0  0  0  0  0  0  0
   36.9300   28.3760   32.4360 H   0  0  0  0  0  0  0  0  0  0  0  0
   38.0640   28.5370   33.7690 H   0  0  0  0  0  0  0  0  0  0  0  0
   38.8100   26.9510   35.6680 Cl  0  0  0  0  0  0  0  0  0  0  0  0
   38.1110   25.9480   34.3860 C   0  0  0  0  0  0  0  0  0  0  0  0
   38.3550   24.6190   34.3820 C   0  0  0  0  0  0  0  0  0  0  0  0
   37.8180   23.8290   33.3910 C   0  0  0  0  0  0  0  0  0  0  0  0
   37.0370   24.4330   32.4190 C   0  0  0  0  0  0  0  0  0  0  0  0
   36.8260   25.8140   32.4850 C   0  0  0  0  0  0  0  0  0  0  0  0
   37.3440   26.6000   33.4500 C   0  0  0  0  0  0  0  0  0  0  0  0
   38.0260   22.7580   33.4030 H   0  0  0  0  0  0  0  0  0  0  0  0
   36.6570   23.7480   31.6830 H   0  0  0  0  0  0  0  0  0  0  0  0
   36.2210   26.1040   31.6880 H   0  0  0  0  0  0  0  0  0  0  0  0
   41.2370   23.1670   36.1630 C   0  0  0  0  0  0  0  0  0  0  0  0
   40.6370   22.8060   37.4040 C   0  0  0  0  0  0  0  0  0  0  0  0
   39.2610   23.0750   37.5840 C   0  0  0  0  0  0  0  0  0  0  0  0
   38.5760   23.6640   36.5720 N   0  0  0  0  0  0  0  0  0  0  0  0
   39.1800   23.9940   35.4040 C   0  0  0  0  0  0  0  0  0  0  0  0
   40.4880   23.7460   35.2140 N   0  0  0  0  0  0  0  0  0  0  0  0
   42.2920   22.9600   36.0290 H   0  0  0  0  0  0  0  0  0  0  0  0
   41.2940   22.3440   38.1270 H   0  0  0  0  0  0  0  0  0  0  0  0
   38.7000   22.7100   38.8100 N   0  0  0  0  0  0  0  0  0  0  0  0
   38.8530   21.8170   39.2870 H   0  0  0  0  0  0  0  0  0  0  0  0
   38.0670   23.3870   39.3000 H   0  0  0  0  0  0  0  0  0  0  0  0
   36.0310   28.5440   34.3470 C   0  0  0  0  0  0  0  0  0  0  0  0
   36.3660   29.4090   34.9670 H   0  0  0  0  0  0  0  0  0  0  0  0
   35.7310   27.7560   35.0800 H   0  0  0  0  0  0  0  0  0  0  0  0
   34.9680   28.9850   33.6040 O   0  0  0  0  0  0  0  0  0  0  0  0
   33.2900   30.9930   33.3560 O   0  0  0  0  0  0  0  0  0  0  0  0
   34.5630   30.5620   34.0150 P   0  0  2  0  0  0  0  0  0  0  0  0
   35.8650   31.5590   33.4820 O   0  0  0  0  0  0  0  0  0  0  0  0
   35.6080   31.9440   32.1680 C   0  0  0  0  0  3  0  0  0  0  0  0
   35.3360   33.4100   31.9750 C   0  0  0  0  0  3  0  0  0  0  0  0
   35.0310   33.5390   30.9030 H   0  0  0  0  0  0  0  0  0  0  0  0
   36.5620   34.2540   32.1700 C   0  0  0  0  0  3  0  0  0  0  0  0
   36.3580   35.2170   31.6060 H   0  0  0  0  0  0  0  0  0  0  0  0
   37.6910   33.6740   31.5860 O   0  0  0  0  0  0  0  0  0  0  0  0
   37.3510   32.7570   30.6120 C   0  0  0  0  0  3  0  0  0  0  0  0
   36.7130   33.2580   29.8640 H   0  0  0  0  0  0  0  0  0  0  0  0
   36.7110   31.5540   31.2430 C   0  0  0  0  0  3  0  0  0  0  0  0
   36.3790   30.8070   30.4860 H   0  0  0  0  0  0  0  0  0  0  0  0
   34.4560   30.7810   35.6570 O   0  0  0  0  0  0  0  0  0  0  0  0
   35.2610   31.8130   36.0870 C   0  0  0  0  0  0  0  0  0  0  0  0
   35.0790   32.9780   35.3400 F   0  0  0  0  0  0  0  0  0  0  0  0
   34.9860   32.1520   37.4040 F   0  0  0  0  0  0  0  0  0  0  0  0
   36.5850   31.4630   36.0060 F   0  0  0  0  0  0  0  0  0  0  0  0
  1  3  1  0  0  0  0
  1 25  1  0  0  0  0
  2  1  1  0  0  0  0
  5  4  1  0  0  0  0
  6  5  1  0  0  0  0
  6 18  1  0  0  0  0
  7 11  1  0  0  0  0
  7  6  2  0  0  0  0
  8  9  2  0  0  0  0
  8  7  1  0  0  0  0
  9 10  1  0  0  0  0
 10  1  1  0  0  0  0
 10  5  2  0  0  0  0
 12  8  1  0  0  0  0
 13  9  1  0  0  0  0
 14 15  1  0  0  0  0
 15 16  2  0  0  0  0
 15 21  1  0  0  0  0
 16 22  1  0  0  0  0
 17 16  1  0  0  0  0
 18 17  2  0  0  0  0
 19 18  1  0  0  0  0
 19 14  2  0  0  0  0
 20 14  1  0  0  0  0
 22 23  1  0  0  0  0
 22 24  1  0  0  0  0
 25 26  1  0  0  0  0
 25 27  1  0  0  0  0
 28 30  1  0  0  0  0
 28 25  1  0  0  0  0
 30 29  2  6  0  0  0
 30 42  1  0  0  0  0
 31 30  1  0  0  0  0
 32 31  1  0  0  0  0
 33 32  1  0  0  0  0
 33 35  1  0  0  0  0
 34 33  1  0  0  0  0
 36 35  1  0  0  0  0
 37 35  1  0  0  0  0
 38 40  1  0  0  0  0
 38 37  1  0  0  0  0
 39 38  1  0  0  0  0
 40 32  1  0  0  0  0
 41 40  1  0  0  0  0
 42 43  1  0  0  0  0
 43 45  1  0  0  0  0
 44 43  1  0  0  0  0
 46 43  1  0  0  0  0
M  END
>  <minimizedAffinity>
-5.7214818

$$$$

 OpenBabel03272504433D

 46 48  0  0  0  0  0  0  0  0999 V2000
   39.2920   25.4050   30.5440 C   0  0  0  0  0  0  0  0  0  0  0  0
   39.2870   26.2240   29.7730 H   0  0  0  0  0  0  0  0  0  0  0  0
   39.8000   24.5580   29.9960 H   0  0  0  0  0  0  0  0  0  0  0  0
   38.9010   22.6030   31.4390 Cl  0  0  0  0  0  0  0  0  0  0  0  0
   37.5800   23.7670   31.2410 C   0  0  0  0  0  0  0  0  0  0  0  0
   36.3140   23.3790   31.5090 C   0  0  0  0  0  0  0  0  0  0  0  0
   35.2790   24.2740   31.3580 C   0  0  0  0  0  0  0  0  0  0  0  0
   35.5760   25.5580   30.9310 C   0  0  0  0  0  0  0  0  0  0  0  0
   36.9110   25.8910   30.6720 C   0  0  0  0  0  0  0  0  0  0  0  0
   37.9340   25.0250   30.8160 C   0  0  0  0  0  0  0  0  0  0  0  0
   34.2630   23.9430   31.5780 H   0  0  0  0  0  0  0  0  0  0  0  0
   34.7140   26.1940   30.8390 H   0  0  0  0  0  0  0  0  0  0  0  0
   36.9590   26.8850   30.3650 H   0  0  0  0  0  0  0  0  0  0  0  0
   35.5500   19.7730   31.5080 C   0  0  0  0  0  0  0  0  0  0  0  0
   35.4380   19.5180   32.9060 C   0  0  0  0  0  0  0  0  0  0  0  0
   35.6280   20.5960   33.7990 C   0  0  0  0  0  0  0  0  0  0  0  0
   35.9100   21.8210   33.2880 N   0  0  0  0  0  0  0  0  0  0  0  0
   36.0110   22.0270   31.9520 C   0  0  0  0  0  0  0  0  0  0  0  0
   35.8320   21.0140   31.0860 N   0  0  0  0  0  0  0  0  0  0  0  0
   35.4040   18.9440   30.8260 H   0  0  0  0  0  0  0  0  0  0  0  0
   35.2090   18.4980   33.1800 H   0  0  0  0  0  0  0  0  0  0  0  0
   35.5120   20.3170   35.1620 N   0  0  0  0  0  0  0  0  0  0  0  0
   34.7680   19.7570   35.5880 H   0  0  0  0  0  0  0  0  0  0  0  0
   36.2290   20.7010   35.8220 H   0  0  0  0  0  0  0  0  0  0  0  0
   40.1660   25.8140   31.6570 C   0  0  0  0  0  0  0  0  0  0  0  0
   41.1660   26.1660   31.3090 H   0  0  0  0  0  0  0  0  0  0  0  0
   40.3750   24.9250   32.3010 H   0  0  0  0  0  0  0  0  0  0  0  0
   39.6150   26.8460   32.3690 O   0  0  0  0  0  0  0  0  0  0  0  0
   41.0260   26.8770   34.5860 O   0  0  0  0  0  0  0  0  0  0  0  0
   39.6830   26.5400   34.0180 P   0  0  2  0  0  0  0  0  0  0  0  0
   39.3680   24.8560   34.2180 O   0  0  0  0  0  0  0  0  0  0  0  0
   39.7430   24.4940   35.5100 C   0  0  0  0  0  3  0  0  0  0  0  0
   38.6020   24.2610   36.4630 C   0  0  0  0  0  3  0  0  0  0  0  0
   39.0600   24.1010   37.4740 H   0  0  0  0  0  0  0  0  0  0  0  0
   37.8340   23.0110   36.1450 C   0  0  0  0  0  3  0  0  0  0  0  0
   37.3190   22.7190   37.1140 H   0  0  0  0  0  0  0  0  0  0  0  0
   38.6780   21.9540   35.8010 O   0  0  0  0  0  0  0  0  0  0  0  0
   39.9630   22.1490   36.2680 C   0  0  0  0  0  3  0  0  0  0  0  0
   39.9190   22.3030   37.3600 H   0  0  0  0  0  0  0  0  0  0  0  0
   40.6100   23.2820   35.5240 C   0  0  0  0  0  3  0  0  0  0  0  0
   41.6340   23.5030   35.9030 H   0  0  0  0  0  0  0  0  0  0  0  0
   38.4940   27.3350   34.8610 O   0  0  0  0  0  0  0  0  0  0  0  0
   37.2840   27.2840   34.2050 C   0  0  0  0  0  0  0  0  0  0  0  0
   36.2430   27.8230   34.9640 F   0  0  0  0  0  0  0  0  0  0  0  0
   37.3180   28.0130   33.0240 F   0  0  0  0  0  0  0  0  0  0  0  0
   36.9520   25.9890   33.8960 F   0  0  0  0  0  0  0  0  0  0  0  0
  1 10  1  0  0  0  0
  1 25  1  0  0  0  0
  2  1  1  0  0  0  0
  3  1  1  0  0  0  0
  5  4  1  0  0  0  0
  5  6  1  0  0  0  0
  6 18  1  0  0  0  0
  7  6  2  0  0  0  0
  7 11  1  0  0  0  0
  8  7  1  0  0  0  0
  9 10  1  0  0  0  0
  9  8  2  0  0  0  0
 10  5  2  0  0  0  0
 12  8  1  0  0  0  0
 13  9  1  0  0  0  0
 14 15  1  0  0  0  0
 15 21  1  0  0  0  0
 15 16  2  0  0  0  0
 16 22  1  0  0  0  0
 17 16  1  0  0  0  0
 18 17  2  0  0  0  0
 19 14  2  0  0  0  0
 19 18  1  0  0  0  0
 20 14  1  0  0  0  0
 22 23  1  0  0  0  0
 22 24  1  0  0  0  0
 25 27  1  0  0  0  0
 25 28  1  0  0  0  0
 26 25  1  0  0  0  0
 28 30  1  0  0  0  0
 30 31  1  0  0  0  0
 30 29  2  1  0  0  0
 30 42  1  0  0  0  0
 31 32  1  0  0  0  0
 32 40  1  0  0  0  0
 32 33  1  0  0  0  0
 33 34  1  0  0  0  0
 35 33  1  0  0  0  0
 35 36  1  0  0  0  0
 37 35  1  0  0  0  0
 37 38  1  0  0  0  0
 38 39  1  0  0  0  0
 40 41  1  0  0  0  0
 40 38  1  0  0  0  0
 43 42  1  0  0  0  0
 43 44  1  0  0  0  0
 45 43  1  0  0  0  0
 46 43  1  0  0  0  0
M  END
>  <minimizedAffinity>
-5.69340467

$$$$

 OpenBabel03272504433D

 46 48  0  0  0  0  0  0  0  0999 V2000
   38.4120   27.1780   34.7330 C   0  0  0  0  0  0  0  0  0  0  0  0
   38.4550   28.1790   35.2450 H   0  0  0  0  0  0  0  0  0  0  0  0
   39.4960   26.9890   34.4790 H   0  0  0  0  0  0  0  0  0  0  0  0
   36.2450   29.2040   34.7800 Cl  0  0  0  0  0  0  0  0  0  0  0  0
   36.6390   28.2150   33.3640 C   0  0  0  0  0  0  0  0  0  0  0  0
   35.9250   28.3770   32.2280 C   0  0  0  0  0  0  0  0  0  0  0  0
   36.2210   27.6150   31.1210 C   0  0  0  0  0  0  0  0  0  0  0  0
   37.2540   26.6960   31.2110 C   0  0  0  0  0  0  0  0  0  0  0  0
   37.9510   26.5810   32.4190 C   0  0  0  0  0  0  0  0  0  0  0  0
   37.6730   27.3220   33.5110 C   0  0  0  0  0  0  0  0  0  0  0  0
   35.6340   27.7590   30.2120 H   0  0  0  0  0  0  0  0  0  0  0  0
   37.4200   26.1420   30.3050 H   0  0  0  0  0  0  0  0  0  0  0  0
   38.6890   25.8530   32.3180 H   0  0  0  0  0  0  0  0  0  0  0  0
   34.0120   31.4610   31.5820 C   0  0  0  0  0  0  0  0  0  0  0  0
   32.7160   31.0780   32.0360 C   0  0  0  0  0  0  0  0  0  0  0  0
   32.5470   29.7720   32.5490 C   0  0  0  0  0  0  0  0  0  0  0  0
   33.6210   28.9440   32.5840 N   0  0  0  0  0  0  0  0  0  0  0  0
   34.8390   29.3420   32.1430 C   0  0  0  0  0  0  0  0  0  0  0  0
   35.0210   30.5810   31.6530 N   0  0  0  0  0  0  0  0  0  0  0  0
   34.1380   32.4620   31.1880 H   0  0  0  0  0  0  0  0  0  0  0  0
   31.9470   31.8330   31.9510 H   0  0  0  0  0  0  0  0  0  0  0  0
   31.2670   29.4250   32.9860 N   0  0  0  0  0  0  0  0  0  0  0  0
   30.6630   30.0110   33.5690 H   0  0  0  0  0  0  0  0  0  0  0  0
   30.8710   28.4950   32.7100 H   0  0  0  0  0  0  0  0  0  0  0  0
   37.9940   26.1650   35.7180 C   0  0  0  0  0  0  0  0  0  0  0  0
   37.1610   25.5230   35.3450 H   0  0  0  0  0  0  0  0  0  0  0  0
   37.5860   26.6820   36.6200 H   0  0  0  0  0  0  0  0  0  0  0  0
   39.0260   25.3200   36.0320 O   0  0  0  0  0  0  0  0  0  0  0  0
   39.7830   22.8220   35.7240 O   0  0  0  0  0  0  0  0  0  0  0  0
   38.5860   23.7190   35.7820 P   0  0  2  0  0  0  0  0  0  0  0  0
   37.7430   23.6700   34.2780 O   0  0  0  0  0  0  0  0  0  0  0  0
   38.2030   22.5690   33.5590 C   0  0  0  0  0  3  0  0  0  0  0  0
   37.2070   21.4540   33.3950 C   0  0  0  0  0  3  0  0  0  0  0  0
   37.7560   20.6060   32.9100 H   0  0  0  0  0  0  0  0  0  0  0  0
   36.0850   21.8170   32.4670 C   0  0  0  0  0  3  0  0  0  0  0  0
   35.6680   20.8280   32.0950 H   0  0  0  0  0  0  0  0  0  0  0  0
   36.5410   22.5100   31.3440 O   0  0  0  0  0  0  0  0  0  0  0  0
   37.8870   22.2970   31.1200 C   0  0  0  0  0  3  0  0  0  0  0  0
   38.0590   21.2100   31.0320 H   0  0  0  0  0  0  0  0  0  0  0  0
   38.6950   22.9510   32.2040 C   0  0  0  0  0  3  0  0  0  0  0  0
   39.7870   22.7620   32.0860 H   0  0  0  0  0  0  0  0  0  0  0  0
   37.5190   23.1690   36.9280 O   0  0  0  0  0  0  0  0  0  0  0  0
   37.9800   23.3960   38.2060 C   0  0  0  0  0  0  0  0  0  0  0  0
   39.3550   23.1810   38.3220 F   0  0  0  0  0  0  0  0  0  0  0  0
   37.7610   24.7090   38.5960 F   0  0  0  0  0  0  0  0  0  0  0  0
   37.3480   22.5740   39.1040 F   0  0  0  0  0  0  0  0  0  0  0  0
  1  2  1  0  0  0  0
  1 25  1  0  0  0  0
  3  1  1  0  0  0  0
  5 10  1  0  0  0  0
  5  4  1  0  0  0  0
  6  5  2  0  0  0  0
  7  8  2  0  0  0  0
  7  6  1  0  0  0  0
  8  9  1  0  0  0  0
  9 10  2  0  0  0  0
 10  1  1  0  0  0  0
 11  7  1  0  0  0  0
 12  8  1  0  0  0  0
 13  9  1  0  0  0  0
 14 19  2  0  0  0  0
 14 15  1  0  0  0  0
 15 16  2  0  0  0  0
 16 17  1  0  0  0  0
 16 22  1  0  0  0  0
 18  6  1  0  0  0  0
 18 17  2  0  0  0  0
 19 18  1  0  0  0  0
 20 14  1  0  0  0  0
 21 15  1  0  0  0  0
 22 23  1  0  0  0  0
 24 22  1  0  0  0  0
 25 28  1  0  0  0  0
 25 27  1  0  0  0  0
 26 25  1  0  0  0  0
 30 29  2  6  0  0  0
 30 28  1  0  0  0  0
 30 42  1  0  0  0  0
 31 30  1  0  0  0  0
 32 31  1  0  0  0  0
 33 32  1  0  0  0  0
 34 33  1  0  0  0  0
 35 33  1  0  0  0  0
 36 35  1  0  0  0  0
 37 35  1  0  0  0  0
 38 37  1  0  0  0  0
 38 40  1  0  0  0  0
 39 38  1  0  0  0  0
 40 32  1  0  0  0  0
 41 40  1  0  0  0  0
 42 43  1  0  0  0  0
 43 44  1  0  0  0  0
 43 45  1  0  0  0  0
 43 46  1  0  0  0  0
M  END
>  <minimizedAffinity>
-5.68563366

$$$$

 OpenBabel03272504433D

 46 48  0  0  0  0  0  0  0  0999 V2000
   37.8800   26.1770   35.5560 C   0  0  0  0  0  0  0  0  0  0  0  0
   37.8270   26.9190   36.3990 H   0  0  0  0  0  0  0  0  0  0  0  0
   37.4040   25.2580   36.0100 H   0  0  0  0  0  0  0  0  0  0  0  0
   38.7170   23.3650   36.0000 Cl  0  0  0  0  0  0  0  0  0  0  0  0
   39.8090   24.6410   35.4370 C   0  0  0  0  0  0  0  0  0  0  0  0
   41.1020   24.3380   35.1870 C   0  0  0  0  0  0  0  0  0  0  0  0
   41.9610   25.3200   34.7490 C   0  0  0  0  0  0  0  0  0  0  0  0
   41.4630   26.6020   34.5780 C   0  0  0  0  0  0  0  0  0  0  0  0
   40.1130   26.8430   34.8560 C   0  0  0  0  0  0  0  0  0  0  0  0
   39.2600   25.8910   35.2840 C   0  0  0  0  0  0  0  0  0  0  0  0
   43.0020   25.0580   34.5530 H   0  0  0  0  0  0  0  0  0  0  0  0
   42.1970   27.3080   34.2350 H   0  0  0  0  0  0  0  0  0  0  0  0
   39.9040   27.8480   34.6750 H   0  0  0  0  0  0  0  0  0  0  0  0
   42.5950   21.0310   34.5420 C   0  0  0  0  0  0  0  0  0  0  0  0
   42.5580   20.4550   35.8450 C   0  0  0  0  0  0  0  0  0  0  0  0
   42.0190   21.2260   36.9000 C   0  0  0  0  0  0  0  0  0  0  0  0
   41.5660   22.4750   36.6260 N   0  0  0  0  0  0  0  0  0  0  0  0
   41.6180   22.9900   35.3740 C   0  0  0  0  0  0  0  0  0  0  0  0
   42.1250   22.2720   34.3570 N   0  0  0  0  0  0  0  0  0  0  0  0
   43.0090   20.4370   33.7350 H   0  0  0  0  0  0  0  0  0  0  0  0
   42.9520   19.4520   35.9270 H   0  0  0  0  0  0  0  0  0  0  0  0
   41.9960   20.6370   38.1660 N   0  0  0  0  0  0  0  0  0  0  0  0
   41.6930   19.6790   38.3660 H   0  0  0  0  0  0  0  0  0  0  0  0
   42.3050   21.2000   38.9940 H   0  0  0  0  0  0  0  0  0  0  0  0
   37.0090   26.6450   34.4630 C   0  0  0  0  0  0  0  0  0  0  0  0
   37.2730   27.6720   34.1150 H   0  0  0  0  0  0  0  0  0  0  0  0
   35.9610   26.7230   34.8420 H   0  0  0  0  0  0  0  0  0  0  0  0
   37.1000   25.8270   33.3680 O   0  0  0  0  0  0  0  0  0  0  0  0
   37.9340   26.4460   30.9540 O   0  0  0  0  0  0  0  0  0  0  0  0
   36.8450   26.6910   31.9520 P   0  0  2  0  0  0  0  0  0  0  0  0
   36.8190   28.3590   32.3920 O   0  0  0  0  0  0  0  0  0  0  0  0
   35.9480   29.0220   31.5310 C   0  0  0  0  0  3  0  0  0  0  0  0
   34.9780   29.9560   32.2000 C   0  0  0  0  0  3  0  0  0  0  0  0
   34.2770   30.3130   31.4010 H   0  0  0  0  0  0  0  0  0  0  0  0
   35.6480   31.1810   32.7520 C   0  0  0  0  0  3  0  0  0  0  0  0
   34.8290   31.9640   32.8300 H   0  0  0  0  0  0  0  0  0  0  0  0
   36.6090   31.6890   31.8760 O   0  0  0  0  0  0  0  0  0  0  0  0
   36.4000   31.2600   30.5800 C   0  0  0  0  0  3  0  0  0  0  0  0
   35.3770   31.5430   30.2780 H   0  0  0  0  0  0  0  0  0  0  0  0
   36.6750   29.7870   30.4780 C   0  0  0  0  0  3  0  0  0  0  0  0
   36.4720   29.3910   29.4560 H   0  0  0  0  0  0  0  0  0  0  0  0
   35.3660   26.3700   31.2710 O   0  0  0  0  0  0  0  0  0  0  0  0
   35.2540   25.0500   30.8930 C   0  0  0  0  0  0  0  0  0  0  0  0
   34.9650   24.2100   31.9690 F   0  0  0  0  0  0  0  0  0  0  0  0
   34.2250   24.8730   29.9780 F   0  0  0  0  0  0  0  0  0  0  0  0
   36.4170   24.6100   30.3140 F   0  0  0  0  0  0  0  0  0  0  0  0
  1  3  1  0  0  0  0
  1  2  1  0  0  0  0
  5  4  1  0  0  0  0
  6 18  1  0  0  0  0
  6  5  2  0  0  0  0
  7  6  1  0  0  0  0
  8  7  2  0  0  0  0
  8  9  1  0  0  0  0
  9 10  2  0  0  0  0
 10  5  1  0  0  0  0
 10  1  1  0  0  0  0
 11  7  1  0  0  0  0
 12  8  1  0  0  0  0
 13  9  1  0  0  0  0
 14 15  1  0  0  0  0
 15 21  1  0  0  0  0
 15 16  2  0  0  0  0
 16 22  1  0  0  0  0
 17 16  1  0  0  0  0
 18 17  2  0  0  0  0
 19 14  2  0  0  0  0
 19 18  1  0  0  0  0
 20 14  1  0  0  0  0
 22 23  1  0  0  0  0
 22 24  1  0  0  0  0
 25 27  1  0  0  0  0
 25  1  1  0  0  0  0
 26 25  1  0  0  0  0
 28 25  1  0  0  0  0
 30 29  2  6  0  0  0
 30 31  1  0  0  0  0
 30 28  1  0  0  0  0
 32 33  1  0  0  0  0
 32 31  1  0  0  0  0
 33 35  1  0  0  0  0
 34 33  1  0  0  0  0
 35 36  1  0  0  0  0
 37 35  1  0  0  0  0
 38 37  1  0  0  0  0
 39 38  1  0  0  0  0
 40 38  1  0  0  0  0
 40 32  1  0  0  0  0
 41 40  1  0  0  0  0
 42 30  1  0  0  0  0
 43 42  1  0  0  0  0
 43 44  1  0  0  0  0
 45 43  1  0  0  0  0
 46 43  1  0  0  0  0
M  END
>  <minimizedAffinity>
-5.66661692

$$$$
