
 OpenBabel03272508593D

 41 44  0  0  1  0  0  0  0  0999 V2000
   36.2460   23.6120   31.9000 C   0  0  0  0  0  0  0  0  0  0  0  0
   35.4970   22.4990   31.6000 C   0  0  0  0  0  0  0  0  0  0  0  0
   35.8800   21.2940   32.1770 C   0  0  0  0  0  0  0  0  0  0  0  0
   36.9830   21.2980   33.0110 C   0  0  0  0  0  0  0  0  0  0  0  0
   37.7360   22.4290   33.3100 C   0  0  0  0  0  0  0  0  0  0  0  0
   37.3280   23.5730   32.7270 N   0  0  0  0  0  0  0  0  0  0  0  0
   34.6370   22.5100   30.9470 H   0  0  0  0  0  0  0  0  0  0  0  0
   35.3230   20.4030   31.9700 H   0  0  0  0  0  0  0  0  0  0  0  0
   37.3060   20.3760   33.4770 H   0  0  0  0  0  0  0  0  0  0  0  0
   35.8620   24.9140   31.3150 C   0  0  0  0  0  0  0  0  0  0  0  0
   34.8420   25.0620   30.6360 O   0  0  0  0  0  0  0  0  0  0  0  0
   36.7560   26.0340   31.5800 N   0  0  0  0  0  0  0  0  0  0  0  0
   37.7070   25.9500   31.9720 H   0  0  0  0  0  0  0  0  0  0  0  0
   36.0100   28.2890   32.3180 C   0  0  2  0  0  0  0  0  0  0  0  0
   37.2930   28.4830   31.5920 C   0  0  0  0  0  0  0  0  0  0  0  0
   36.2680   27.3610   31.2670 C   0  0  1  0  0  0  0  0  0  0  0  0
   36.1460   28.0060   33.3840 H   0  0  0  0  0  0  0  0  0  0  0  0
   37.4030   29.2950   30.8550 H   0  0  0  0  0  0  0  0  0  0  0  0
   38.2310   28.1870   32.0620 H   0  0  0  0  0  0  0  0  0  0  0  0
   35.7840   27.5020   30.2710 H   0  0  0  0  0  0  0  0  0  0  0  0
   34.1020   31.2640   31.1800 C   0  0  0  0  0  0  0  0  0  0  0  0
   32.8470   31.0800   31.8460 C   0  0  0  0  0  0  0  0  0  0  0  0
   32.6930   29.9280   32.6850 C   0  0  0  0  0  0  0  0  0  0  0  0
   33.7350   29.0440   32.8250 N   0  0  0  0  0  0  0  0  0  0  0  0
   34.8920   29.2890   32.1610 C   0  0  0  0  0  0  0  0  0  0  0  0
   35.1130   30.3840   31.3330 N   0  0  0  0  0  0  0  0  0  0  0  0
   34.1660   32.1480   30.5600 H   0  0  0  0  0  0  0  0  0  0  0  0
   32.0360   31.7790   31.7290 H   0  0  0  0  0  0  0  0  0  0  0  0
   31.7500   29.7790   33.1930 H   0  0  0  0  0  0  0  0  0  0  0  0
   38.8910   22.3560   34.1970 C   0  0  0  0  0  0  0  0  0  0  0  0
   39.8840   21.6840   33.8330 O   0  0  0  0  0  0  0  0  0  0  0  0
   39.0240   22.9980   35.5030 C   0  0  0  0  0  3  0  0  0  0  0  0
   40.0010   22.1420   36.3170 C   0  0  0  0  0  3  0  0  0  0  0  0
   40.9010   22.0590   35.6820 H   0  0  0  0  0  0  0  0  0  0  0  0
   40.2670   22.7700   37.6530 C   0  0  0  0  0  3  0  0  0  0  0  0
   40.8810   23.6860   37.5530 H   0  0  0  0  0  0  0  0  0  0  0  0
   39.0660   22.9660   38.3060 O   0  0  0  0  0  0  0  0  0  0  0  0
   38.1890   23.7910   37.6240 C   0  0  0  0  0  3  0  0  0  0  0  0
   38.8050   24.6840   37.3160 H   0  0  0  0  0  0  0  0  0  0  0  0
   37.7750   23.1240   36.3040 C   0  0  0  0  0  3  0  0  0  0  0  0
   37.2850   22.1770   36.5550 H   0  0  0  0  0  0  0  0  0  0  0  0
  1  6  1  0  0  0  0
  2  1  2  0  0  0  0
  2  3  1  0  0  0  0
  3  4  2  0  0  0  0
  4  5  1  0  0  0  0
  4  9  1  0  0  0  0
  5 30  1  0  0  0  0
  6  5  2  0  0  0  0
  7  2  1  0  0  0  0
  8  3  1  0  0  0  0
 10 12  1  0  0  0  0
 10  1  1  0  0  0  0
 11 10  2  0  0  0  0
 12 13  1  0  0  0  0
 14 17  1  1  0  0  0
 15 19  1  0  0  0  0
 15 14  1  0  0  0  0
 16 20  1  6  0  0  0
 16 12  1  0  0  0  0
 16 15  1  0  0  0  0
 16 14  1  0  0  0  0
 18 15  1  0  0  0  0
 21 26  2  0  0  0  0
 21 22  1  0  0  0  0
 22 23  2  0  0  0  0
 23 24  1  0  0  0  0
 23 29  1  0  0  0  0
 25 14  1  0  0  0  0
 25 24  2  0  0  0  0
 26 25  1  0  0  0  0
 27 21  1  0  0  0  0
 28 22  1  0  0  0  0
 30 32  1  0  0  0  0
 31 30  2  0  0  0  0
 32 40  1  0  0  0  0
 32 33  1  0  0  0  0
 33 35  1  0  0  0  0
 34 33  1  0  0  0  0
 35 37  1  0  0  0  0
 36 35  1  0  0  0  0
 38 37  1  0  0  0  0
 39 38  1  0  0  0  0
 40 41  1  0  0  0  0
 40 38  1  0  0  0  0
M  END
>  <minimizedAffinity>
-5.79285479

$$$$

 OpenBabel03272508593D

 41 44  0  0  1  0  0  0  0  0999 V2000
   36.4390   27.8240   32.6700 C   0  0  0  0  0  0  0  0  0  0  0  0
   36.2760   28.3370   31.4050 C   0  0  0  0  0  0  0  0  0  0  0  0
   35.7640   29.6240   31.2950 C   0  0  0  0  0  0  0  0  0  0  0  0
   35.4550   30.2980   32.4630 C   0  0  0  0  0  0  0  0  0  0  0  0
   35.6220   29.7720   33.7400 C   0  0  0  0  0  0  0  0  0  0  0  0
   36.1210   28.5220   33.7960 N   0  0  0  0  0  0  0  0  0  0  0  0
   36.5220   27.7990   30.5000 H   0  0  0  0  0  0  0  0  0  0  0  0
   35.6210   30.0610   30.3280 H   0  0  0  0  0  0  0  0  0  0  0  0
   35.0540   31.3020   32.4120 H   0  0  0  0  0  0  0  0  0  0  0  0
   36.9940   26.4630   32.8270 C   0  0  0  0  0  0  0  0  0  0  0  0
   37.6700   26.1310   33.8050 O   0  0  0  0  0  0  0  0  0  0  0  0
   36.7040   25.5150   31.7580 N   0  0  0  0  0  0  0  0  0  0  0  0
   36.3140   25.7670   30.8370 H   0  0  0  0  0  0  0  0  0  0  0  0
   36.3910   23.1120   31.2020 C   0  0  2  0  0  0  0  0  0  0  0  0
   37.8060   23.4410   30.8820 C   0  0  0  0  0  0  0  0  0  0  0  0
   36.9870   24.1190   32.0160 C   0  0  1  0  0  0  0  0  0  0  0  0
   35.6820   23.3730   30.3860 H   0  0  0  0  0  0  0  0  0  0  0  0
   38.6210   22.7630   31.1830 H   0  0  0  0  0  0  0  0  0  0  0  0
   38.0360   24.0400   30.0000 H   0  0  0  0  0  0  0  0  0  0  0  0
   37.3690   23.8580   33.0310 H   0  0  0  0  0  0  0  0  0  0  0  0
   35.6420   20.5090   33.7410 C   0  0  0  0  0  0  0  0  0  0  0  0
   35.3740   19.3660   32.9200 C   0  0  0  0  0  0  0  0  0  0  0  0
   35.4670   19.5220   31.4980 C   0  0  0  0  0  0  0  0  0  0  0  0
   35.8050   20.7440   30.9690 N   0  0  0  0  0  0  0  0  0  0  0  0
   36.0440   21.7780   31.8140 C   0  0  0  0  0  0  0  0  0  0  0  0
   35.9730   21.7000   33.2000 N   0  0  0  0  0  0  0  0  0  0  0  0
   35.5580   20.3380   34.8060 H   0  0  0  0  0  0  0  0  0  0  0  0
   35.1100   18.4130   33.3460 H   0  0  0  0  0  0  0  0  0  0  0  0
   35.2670   18.6670   30.8690 H   0  0  0  0  0  0  0  0  0  0  0  0
   35.2700   30.5420   34.9270 C   0  0  0  0  0  0  0  0  0  0  0  0
   36.1790   30.8370   35.7390 O   0  0  0  0  0  0  0  0  0  0  0  0
   33.9390   31.0250   35.2860 C   0  0  0  0  0  3  0  0  0  0  0  0
   34.0620   31.6680   36.6720 C   0  0  0  0  0  3  0  0  0  0  0  0
   34.8760   32.4090   36.5690 H   0  0  0  0  0  0  0  0  0  0  0  0
   32.7550   32.2690   37.0940 C   0  0  0  0  0  3  0  0  0  0  0  0
   32.5180   33.1760   36.5030 H   0  0  0  0  0  0  0  0  0  0  0  0
   31.7760   31.2970   37.0490 O   0  0  0  0  0  0  0  0  0  0  0  0
   31.5960   30.7450   35.7930 C   0  0  0  0  0  3  0  0  0  0  0  0
   31.5360   31.6260   35.0910 H   0  0  0  0  0  0  0  0  0  0  0  0
   32.8670   29.9940   35.3730 C   0  0  0  0  0  3  0  0  0  0  0  0
   33.0400   29.2040   36.1110 H   0  0  0  0  0  0  0  0  0  0  0  0
  1 10  1  0  0  0  0
  1  6  1  0  0  0  0
  2  1  2  0  0  0  0
  3  2  1  0  0  0  0
  3  4  2  0  0  0  0
  4  5  1  0  0  0  0
  5  6  2  0  0  0  0
  5 30  1  0  0  0  0
  7  2  1  0  0  0  0
  8  3  1  0  0  0  0
  9  4  1  0  0  0  0
 10 11  2  0  0  0  0
 12 16  1  0  0  0  0
 12 10  1  0  0  0  0
 13 12  1  0  0  0  0
 14 17  1  6  0  0  0
 14 25  1  0  0  0  0
 14 16  1  0  0  0  0
 15 18  1  0  0  0  0
 15 14  1  0  0  0  0
 15 16  1  0  0  0  0
 16 20  1  1  0  0  0
 19 15  1  0  0  0  0
 21 27  1  0  0  0  0
 22 28  1  0  0  0  0
 22 21  2  0  0  0  0
 23 22  1  0  0  0  0
 24 23  2  0  0  0  0
 24 25  1  0  0  0  0
 25 26  2  0  0  0  0
 26 21  1  0  0  0  0
 29 23  1  0  0  0  0
 30 32  1  0  0  0  0
 30 31  2  0  0  0  0
 32 40  1  0  0  0  0
 32 33  1  0  0  0  0
 33 35  1  0  0  0  0
 34 33  1  0  0  0  0
 36 35  1  0  0  0  0
 37 35  1  0  0  0  0
 38 37  1  0  0  0  0
 39 38  1  0  0  0  0
 40 38  1  0  0  0  0
 40 41  1  0  0  0  0
M  END
>  <minimizedAffinity>
-5.77074051

$$$$

 OpenBabel03272508593D

 41 44  0  0  1  0  0  0  0  0999 V2000
   35.8750   28.6750   33.6370 C   0  0  0  0  0  0  0  0  0  0  0  0
   35.8460   28.1230   32.3780 C   0  0  0  0  0  0  0  0  0  0  0  0
   36.5600   26.9480   32.1770 C   0  0  0  0  0  0  0  0  0  0  0  0
   37.2470   26.4160   33.2520 C   0  0  0  0  0  0  0  0  0  0  0  0
   37.2720   26.9810   34.5240 C   0  0  0  0  0  0  0  0  0  0  0  0
   36.5660   28.1200   34.6710 N   0  0  0  0  0  0  0  0  0  0  0  0
   35.3050   28.5490   31.5460 H   0  0  0  0  0  0  0  0  0  0  0  0
   36.5630   26.4850   31.2110 H   0  0  0  0  0  0  0  0  0  0  0  0
   37.8130   25.5020   33.1280 H   0  0  0  0  0  0  0  0  0  0  0  0
   35.1180   29.9180   33.8940 C   0  0  0  0  0  0  0  0  0  0  0  0
   34.2140   30.3100   33.1490 O   0  0  0  0  0  0  0  0  0  0  0  0
   35.4900   30.6720   35.0840 N   0  0  0  0  0  0  0  0  0  0  0  0
   36.3440   30.5120   35.6400 H   0  0  0  0  0  0  0  0  0  0  0  0
   33.7440   31.5200   36.6380 C   0  0  2  0  0  0  0  0  0  0  0  0
   34.9670   32.3270   36.8930 C   0  0  0  0  0  0  0  0  0  0  0  0
   34.5910   31.7250   35.5100 C   0  0  1  0  0  0  0  0  0  0  0  0
   33.7330   30.5510   37.1840 H   0  0  0  0  0  0  0  0  0  0  0  0
   34.9040   33.4220   37.0010 H   0  0  0  0  0  0  0  0  0  0  0  0
   35.8080   31.8810   37.4240 H   0  0  0  0  0  0  0  0  0  0  0  0
   34.3360   32.5090   34.7590 H   0  0  0  0  0  0  0  0  0  0  0  0
   31.0960   34.0820   37.0950 C   0  0  0  0  0  0  0  0  0  0  0  0
   29.9230   33.3690   36.6820 C   0  0  0  0  0  0  0  0  0  0  0  0
   30.0770   32.0080   36.2600 C   0  0  0  0  0  0  0  0  0  0  0  0
   31.3240   31.4320   36.2630 N   0  0  0  0  0  0  0  0  0  0  0  0
   32.3850   32.1740   36.6680 C   0  0  0  0  0  0  0  0  0  0  0  0
   32.3110   33.4960   37.0900 N   0  0  0  0  0  0  0  0  0  0  0  0
   30.9250   35.1050   37.4030 H   0  0  0  0  0  0  0  0  0  0  0  0
   28.9510   33.8310   36.6840 H   0  0  0  0  0  0  0  0  0  0  0  0
   29.2000   31.4610   35.9470 H   0  0  0  0  0  0  0  0  0  0  0  0
   38.0230   26.3640   35.6110 C   0  0  0  0  0  0  0  0  0  0  0  0
   38.6500   27.1070   36.4020 O   0  0  0  0  0  0  0  0  0  0  0  0
   38.1300   24.9340   35.8890 C   0  0  0  0  0  3  0  0  0  0  0  0
   37.9590   24.7660   37.4030 C   0  0  0  0  0  3  0  0  0  0  0  0
   37.0060   25.2750   37.6390 H   0  0  0  0  0  0  0  0  0  0  0  0
   37.9710   23.3140   37.7790 C   0  0  0  0  0  3  0  0  0  0  0  0
   37.0480   22.8020   37.4430 H   0  0  0  0  0  0  0  0  0  0  0  0
   39.1360   22.7380   37.3130 O   0  0  0  0  0  0  0  0  0  0  0  0
   39.2840   22.8150   35.9390 C   0  0  0  0  0  3  0  0  0  0  0  0
   38.2920   22.4820   35.5170 H   0  0  0  0  0  0  0  0  0  0  0  0
   39.4180   24.2850   35.5170 C   0  0  0  0  0  3  0  0  0  0  0  0
   40.3040   24.6910   36.0160 H   0  0  0  0  0  0  0  0  0  0  0  0
  1 10  1  0  0  0  0
  1  6  1  0  0  0  0
  2  1  2  0  0  0  0
  3  2  1  0  0  0  0
  3  4  2  0  0  0  0
  4  5  1  0  0  0  0
  5  6  2  0  0  0  0
  5 30  1  0  0  0  0
  7  2  1  0  0  0  0
  8  3  1  0  0  0  0
  9  4  1  0  0  0  0
 10 12  1  0  0  0  0
 11 10  2  0  0  0  0
 12 16  1  0  0  0  0
 12 13  1  0  0  0  0
 14 25  1  0  0  0  0
 14 15  1  0  0  0  0
 14 17  1  1  0  0  0
 15 18  1  0  0  0  0
 15 19  1  0  0  0  0
 16 20  1  6  0  0  0
 16 14  1  0  0  0  0
 16 15  1  0  0  0  0
 21 27  1  0  0  0  0
 22 28  1  0  0  0  0
 22 21  2  0  0  0  0
 23 24  2  0  0  0  0
 23 22  1  0  0  0  0
 24 25  1  0  0  0  0
 25 26  2  0  0  0  0
 26 21  1  0  0  0  0
 29 23  1  0  0  0  0
 30 32  1  0  0  0  0
 30 31  2  0  0  0  0
 32 33  1  0  0  0  0
 33 34  1  0  0  0  0
 33 35  1  0  0  0  0
 36 35  1  0  0  0  0
 37 35  1  0  0  0  0
 38 37  1  0  0  0  0
 39 38  1  0  0  0  0
 40 32  1  0  0  0  0
 40 38  1  0  0  0  0
 40 41  1  0  0  0  0
M  END
>  <minimizedAffinity>
-5.75337839

$$$$

 OpenBabel03272508593D

 41 44  0  0  1  0  0  0  0  0999 V2000
   35.4330   30.1310   34.9600 C   0  0  0  0  0  0  0  0  0  0  0  0
   36.0820   31.1310   35.6450 C   0  0  0  0  0  0  0  0  0  0  0  0
   35.3010   32.0370   36.3500 C   0  0  0  0  0  0  0  0  0  0  0  0
   33.9290   31.8720   36.3160 C   0  0  0  0  0  0  0  0  0  0  0  0
   33.2780   30.8580   35.6210 C   0  0  0  0  0  0  0  0  0  0  0  0
   34.0760   30.0040   34.9510 N   0  0  0  0  0  0  0  0  0  0  0  0
   37.1560   31.2490   35.6620 H   0  0  0  0  0  0  0  0  0  0  0  0
   35.7680   32.8310   36.8970 H   0  0  0  0  0  0  0  0  0  0  0  0
   33.2920   32.5610   36.8560 H   0  0  0  0  0  0  0  0  0  0  0  0
   36.2300   29.1400   34.2080 C   0  0  0  0  0  0  0  0  0  0  0  0
   36.8360   28.2180   34.7620 O   0  0  0  0  0  0  0  0  0  0  0  0
   36.2710   29.3020   32.7600 N   0  0  0  0  0  0  0  0  0  0  0  0
   35.9520   30.1410   32.2520 H   0  0  0  0  0  0  0  0  0  0  0  0
   35.9070   27.2940   31.3390 C   0  0  2  0  0  0  0  0  0  0  0  0
   36.5140   28.3300   30.4620 C   0  0  0  0  0  0  0  0  0  0  0  0
   36.7990   28.1990   31.9840 C   0  0  1  0  0  0  0  0  0  0  0  0
   34.8050   27.3950   31.4440 H   0  0  0  0  0  0  0  0  0  0  0  0
   37.3320   28.0710   29.7710 H   0  0  0  0  0  0  0  0  0  0  0  0
   35.9150   29.1790   30.1330 H   0  0  0  0  0  0  0  0  0  0  0  0
   37.8500   27.8880   32.1950 H   0  0  0  0  0  0  0  0  0  0  0  0
   38.0000   24.2690   30.8310 C   0  0  0  0  0  0  0  0  0  0  0  0
   37.0330   23.2180   30.9580 C   0  0  0  0  0  0  0  0  0  0  0  0
   35.6700   23.5850   31.2100 C   0  0  0  0  0  0  0  0  0  0  0  0
   35.3320   24.9120   31.3220 N   0  0  0  0  0  0  0  0  0  0  0  0
   36.3060   25.8470   31.1890 C   0  0  0  0  0  0  0  0  0  0  0  0
   37.6460   25.5650   30.9430 N   0  0  0  0  0  0  0  0  0  0  0  0
   39.0120   23.9390   30.6410 H   0  0  0  0  0  0  0  0  0  0  0  0
   37.3090   22.1810   30.8690 H   0  0  0  0  0  0  0  0  0  0  0  0
   34.9330   22.8010   31.3080 H   0  0  0  0  0  0  0  0  0  0  0  0
   31.8240   30.7480   35.6290 C   0  0  0  0  0  0  0  0  0  0  0  0
   31.1450   31.7760   35.3980 O   0  0  0  0  0  0  0  0  0  0  0  0
   31.0460   29.5380   35.8850 C   0  0  0  0  0  3  0  0  0  0  0  0
   31.5640   28.9510   37.2020 C   0  0  0  0  0  3  0  0  0  0  0  0
   31.4940   29.7810   37.9290 H   0  0  0  0  0  0  0  0  0  0  0  0
   30.7670   27.7430   37.5930 C   0  0  0  0  0  3  0  0  0  0  0  0
   29.7450   28.0220   37.9180 H   0  0  0  0  0  0  0  0  0  0  0  0
   30.7990   26.8280   36.5590 O   0  0  0  0  0  0  0  0  0  0  0  0
   30.2740   27.3090   35.3730 C   0  0  0  0  0  3  0  0  0  0  0  0
   29.2940   27.7900   35.6580 H   0  0  0  0  0  0  0  0  0  0  0  0
   31.1430   28.4650   34.8560 C   0  0  0  0  0  3  0  0  0  0  0  0
   32.1500   28.0690   34.6900 H   0  0  0  0  0  0  0  0  0  0  0  0
  1  2  1  0  0  0  0
  2  7  1  0  0  0  0
  2  3  2  0  0  0  0
  3  8  1  0  0  0  0
  4  3  1  0  0  0  0
  4  9  1  0  0  0  0
  5 30  1  0  0  0  0
  5  4  2  0  0  0  0
  6  1  2  0  0  0  0
  6  5  1  0  0  0  0
 10 11  2  0  0  0  0
 10  1  1  0  0  0  0
 12 10  1  0  0  0  0
 13 12  1  0  0  0  0
 14 17  1  1  0  0  0
 14 16  1  0  0  0  0
 15 14  1  0  0  0  0
 15 16  1  0  0  0  0
 16 20  1  1  0  0  0
 16 12  1  0  0  0  0
 18 15  1  0  0  0  0
 19 15  1  0  0  0  0
 21 26  2  0  0  0  0
 21 22  1  0  0  0  0
 22 23  2  0  0  0  0
 23 29  1  0  0  0  0
 23 24  1  0  0  0  0
 25 24  2  0  0  0  0
 25 14  1  0  0  0  0
 26 25  1  0  0  0  0
 27 21  1  0  0  0  0
 28 22  1  0  0  0  0
 30 32  1  0  0  0  0
 31 30  2  0  0  0  0
 32 33  1  0  0  0  0
 33 35  1  0  0  0  0
 33 34  1  0  0  0  0
 35 36  1  0  0  0  0
 37 35  1  0  0  0  0
 38 39  1  0  0  0  0
 38 37  1  0  0  0  0
 40 38  1  0  0  0  0
 40 32  1  0  0  0  0
 41 40  1  0  0  0  0
M  END
>  <minimizedAffinity>
-5.69629383

$$$$

 OpenBabel03272508593D

 41 44  0  0  1  0  0  0  0  0999 V2000
   36.8100   28.2210   32.5310 C   0  0  0  0  0  0  0  0  0  0  0  0
   36.7260   28.8170   31.2950 C   0  0  0  0  0  0  0  0  0  0  0  0
   35.7560   29.7950   31.1190 C   0  0  0  0  0  0  0  0  0  0  0  0
   34.9430   30.1010   32.1950 C   0  0  0  0  0  0  0  0  0  0  0  0
   35.0330   29.4920   33.4430 C   0  0  0  0  0  0  0  0  0  0  0  0
   35.9890   28.5500   33.5660 N   0  0  0  0  0  0  0  0  0  0  0  0
   37.3680   28.5690   30.4610 H   0  0  0  0  0  0  0  0  0  0  0  0
   35.6570   30.2840   30.1710 H   0  0  0  0  0  0  0  0  0  0  0  0
   34.1770   30.8580   32.0900 H   0  0  0  0  0  0  0  0  0  0  0  0
   37.8390   27.1850   32.7600 C   0  0  0  0  0  0  0  0  0  0  0  0
   39.0360   27.3750   32.5240 O   0  0  0  0  0  0  0  0  0  0  0  0
   37.3710   25.9090   33.2860 N   0  0  0  0  0  0  0  0  0  0  0  0
   36.3830   25.6160   33.3290 H   0  0  0  0  0  0  0  0  0  0  0  0
   37.9810   23.8770   34.5830 C   0  0  2  0  0  0  0  0  0  0  0  0
   38.2660   23.5710   33.1560 C   0  0  0  0  0  0  0  0  0  0  0  0
   38.3730   24.9890   33.7830 C   0  0  1  0  0  0  0  0  0  0  0  0
   36.9180   23.7140   34.8650 H   0  0  0  0  0  0  0  0  0  0  0  0
   39.2060   23.0740   32.8660 H   0  0  0  0  0  0  0  0  0  0  0  0
   37.4420   23.3860   32.4670 H   0  0  0  0  0  0  0  0  0  0  0  0
   39.4260   25.3580   33.8230 H   0  0  0  0  0  0  0  0  0  0  0  0
   39.3310   23.0700   37.9460 C   0  0  0  0  0  0  0  0  0  0  0  0
   40.5790   22.4450   37.6200 C   0  0  0  0  0  0  0  0  0  0  0  0
   40.9290   22.3240   36.2350 C   0  0  0  0  0  0  0  0  0  0  0  0
   40.0720   22.8020   35.2730 N   0  0  0  0  0  0  0  0  0  0  0  0
   38.9090   23.3810   35.6640 C   0  0  0  0  0  0  0  0  0  0  0  0
   38.5060   23.5330   36.9860 N   0  0  0  0  0  0  0  0  0  0  0  0
   39.1150   23.1360   39.0040 H   0  0  0  0  0  0  0  0  0  0  0  0
   41.2420   22.0740   38.3820 H   0  0  0  0  0  0  0  0  0  0  0  0
   41.8670   21.8550   35.9770 H   0  0  0  0  0  0  0  0  0  0  0  0
   34.1380   29.8650   34.5320 C   0  0  0  0  0  0  0  0  0  0  0  0
   33.3090   29.0190   34.9420 O   0  0  0  0  0  0  0  0  0  0  0  0
   34.0980   31.1530   35.2210 C   0  0  0  0  0  3  0  0  0  0  0  0
   35.5450   31.5000   35.5900 C   0  0  0  0  0  3  0  0  0  0  0  0
   36.1040   31.4330   34.6390 H   0  0  0  0  0  0  0  0  0  0  0  0
   35.6170   32.8540   36.2330 C   0  0  0  0  0  3  0  0  0  0  0  0
   35.4280   33.6600   35.4970 H   0  0  0  0  0  0  0  0  0  0  0  0
   34.7730   32.8790   37.3250 O   0  0  0  0  0  0  0  0  0  0  0  0
   33.4470   32.6360   37.0100 C   0  0  0  0  0  3  0  0  0  0  0  0
   33.2290   33.2990   36.1240 H   0  0  0  0  0  0  0  0  0  0  0  0
   33.2990   31.2040   36.4760 C   0  0  0  0  0  3  0  0  0  0  0  0
   33.6310   30.5230   37.2660 H   0  0  0  0  0  0  0  0  0  0  0  0
  1 10  1  0  0  0  0
  1  6  1  0  0  0  0
  2  1  2  0  0  0  0
  3  2  1  0  0  0  0
  3  4  2  0  0  0  0
  4  5  1  0  0  0  0
  5  6  2  0  0  0  0
  5 30  1  0  0  0  0
  7  2  1  0  0  0  0
  8  3  1  0  0  0  0
  9  4  1  0  0  0  0
 10 12  1  0  0  0  0
 11 10  2  0  0  0  0
 12 13  1  0  0  0  0
 12 16  1  0  0  0  0
 14 17  1  1  0  0  0
 14 25  1  0  0  0  0
 15 16  1  0  0  0  0
 15 14  1  0  0  0  0
 16 20  1  1  0  0  0
 16 14  1  0  0  0  0
 18 15  1  0  0  0  0
 19 15  1  0  0  0  0
 21 27  1  0  0  0  0
 22 21  1  0  0  0  0
 22 28  1  0  0  0  0
 23 22  2  0  0  0  0
 24 25  2  0  0  0  0
 24 23  1  0  0  0  0
 25 26  1  0  0  0  0
 26 21  2  0  0  0  0
 29 23  1  0  0  0  0
 30 31  2  0  0  0  0
 30 32  1  0  0  0  0
 32 33  1  0  0  0  0
 32 40  1  0  0  0  0
 33 35  1  0  0  0  0
 34 33  1  0  0  0  0
 35 37  1  0  0  0  0
 36 35  1  0  0  0  0
 38 37  1  0  0  0  0
 39 38  1  0  0  0  0
 40 38  1  0  0  0  0
 40 41  1  0  0  0  0
M  END
>  <minimizedAffinity>
-5.61750031

$$$$

 OpenBabel03272508593D

 41 44  0  0  1  0  0  0  0  0999 V2000
   35.0430   30.5350   35.0520 C   0  0  0  0  0  0  0  0  0  0  0  0
   35.7610   31.4300   35.8090 C   0  0  0  0  0  0  0  0  0  0  0  0
   35.0790   32.1240   36.8010 C   0  0  0  0  0  0  0  0  0  0  0  0
   33.7300   31.8670   36.9580 C   0  0  0  0  0  0  0  0  0  0  0  0
   33.0090   30.9600   36.1880 C   0  0  0  0  0  0  0  0  0  0  0  0
   33.7120   30.3120   35.2390 N   0  0  0  0  0  0  0  0  0  0  0  0
   36.8160   31.6210   35.6760 H   0  0  0  0  0  0  0  0  0  0  0  0
   35.6020   32.8300   37.4130 H   0  0  0  0  0  0  0  0  0  0  0  0
   33.1700   32.3910   37.7230 H   0  0  0  0  0  0  0  0  0  0  0  0
   35.7360   29.7680   33.9960 C   0  0  0  0  0  0  0  0  0  0  0  0
   35.9630   30.2360   32.8770 O   0  0  0  0  0  0  0  0  0  0  0  0
   36.1460   28.4120   34.3400 N   0  0  0  0  0  0  0  0  0  0  0  0
   35.8300   27.8950   35.1750 H   0  0  0  0  0  0  0  0  0  0  0  0
   38.2770   27.1930   33.9430 C   0  0  2  0  0  0  0  0  0  0  0  0
   37.1790   26.2210   33.6980 C   0  0  0  0  0  0  0  0  0  0  0  0
   37.0650   27.7490   33.4390 C   0  0  1  0  0  0  0  0  0  0  0  0
   38.5530   27.2860   35.0160 H   0  0  0  0  0  0  0  0  0  0  0  0
   37.2020   25.5590   32.8170 H   0  0  0  0  0  0  0  0  0  0  0  0
   36.6220   25.8100   34.5400 H   0  0  0  0  0  0  0  0  0  0  0  0
   36.9740   27.9910   32.3530 H   0  0  0  0  0  0  0  0  0  0  0  0
   41.8410   27.1920   32.9020 C   0  0  0  0  0  0  0  0  0  0  0  0
   41.7300   27.1310   31.4740 C   0  0  0  0  0  0  0  0  0  0  0  0
   40.4160   27.1000   30.9020 C   0  0  0  0  0  0  0  0  0  0  0  0
   39.3150   27.1280   31.7240 N   0  0  0  0  0  0  0  0  0  0  0  0
   39.5050   27.1860   33.0670 C   0  0  0  0  0  0  0  0  0  0  0  0
   40.7470   27.2190   33.6900 N   0  0  0  0  0  0  0  0  0  0  0  0
   42.8530   27.2130   33.2820 H   0  0  0  0  0  0  0  0  0  0  0  0
   42.5990   27.1090   30.8400 H   0  0  0  0  0  0  0  0  0  0  0  0
   40.3200   27.0540   29.8270 H   0  0  0  0  0  0  0  0  0  0  0  0
   31.5840   30.7440   36.4110 C   0  0  0  0  0  0  0  0  0  0  0  0
   30.8540   31.7400   36.6260 O   0  0  0  0  0  0  0  0  0  0  0  0
   30.8910   29.4580   36.4110 C   0  0  0  0  0  3  0  0  0  0  0  0
   31.4240   28.6700   37.6130 C   0  0  0  0  0  3  0  0  0  0  0  0
   31.2790   29.3420   38.4790 H   0  0  0  0  0  0  0  0  0  0  0  0
   30.7080   27.3590   37.7460 C   0  0  0  0  0  3  0  0  0  0  0  0
   29.6630   27.5030   38.0840 H   0  0  0  0  0  0  0  0  0  0  0  0
   30.8270   26.6590   36.5620 O   0  0  0  0  0  0  0  0  0  0  0  0
   30.2920   27.3180   35.4690 C   0  0  0  0  0  3  0  0  0  0  0  0
   29.2740   27.6700   35.8070 H   0  0  0  0  0  0  0  0  0  0  0  0
   31.0860   28.6060   35.2050 C   0  0  0  0  0  3  0  0  0  0  0  0
   32.1210   28.3160   35.0020 H   0  0  0  0  0  0  0  0  0  0  0  0
  1  6  2  0  0  0  0
  1  2  1  0  0  0  0
  2  3  2  0  0  0  0
  3  4  1  0  0  0  0
  3  8  1  0  0  0  0
  4  9  1  0  0  0  0
  5 30  1  0  0  0  0
  5  4  2  0  0  0  0
  6  5  1  0  0  0  0
  7  2  1  0  0  0  0
 10 12  1  0  0  0  0
 10  1  1  0  0  0  0
 11 10  2  0  0  0  0
 12 13  1  0  0  0  0
 14 17  1  1  0  0  0
 15 14  1  0  0  0  0
 15 19  1  0  0  0  0
 16 20  1  6  0  0  0
 16 15  1  0  0  0  0
 16 14  1  0  0  0  0
 16 12  1  0  0  0  0
 18 15  1  0  0  0  0
 21 27  1  0  0  0  0
 21 26  1  0  0  0  0
 22 21  2  0  0  0  0
 23 22  1  0  0  0  0
 23 24  2  0  0  0  0
 24 25  1  0  0  0  0
 25 26  2  0  0  0  0
 25 14  1  0  0  0  0
 28 22  1  0  0  0  0
 29 23  1  0  0  0  0
 30 31  2  0  0  0  0
 32 30  1  0  0  0  0
 32 33  1  0  0  0  0
 33 35  1  0  0  0  0
 33 34  1  0  0  0  0
 35 36  1  0  0  0  0
 37 35  1  0  0  0  0
 38 39  1  0  0  0  0
 38 37  1  0  0  0  0
 40 38  1  0  0  0  0
 40 32  1  0  0  0  0
 41 40  1  0  0  0  0
M  END
>  <minimizedAffinity>
-5.57016659

$$$$

 OpenBabel03272508593D

 41 44  0  0  1  0  0  0  0  0999 V2000
   37.0350   27.0950   32.3250 C   0  0  0  0  0  0  0  0  0  0  0  0
   37.8280   27.3650   31.2350 C   0  0  0  0  0  0  0  0  0  0  0  0
   37.6580   28.5910   30.6050 C   0  0  0  0  0  0  0  0  0  0  0  0
   36.7060   29.4530   31.1160 C   0  0  0  0  0  0  0  0  0  0  0  0
   35.9050   29.1740   32.2190 C   0  0  0  0  0  0  0  0  0  0  0  0
   36.1060   27.9730   32.7960 N   0  0  0  0  0  0  0  0  0  0  0  0
   38.5690   26.6810   30.8460 H   0  0  0  0  0  0  0  0  0  0  0  0
   38.2560   28.8400   29.7520 H   0  0  0  0  0  0  0  0  0  0  0  0
   36.5480   30.4170   30.6470 H   0  0  0  0  0  0  0  0  0  0  0  0
   37.1960   25.8060   33.0300 C   0  0  0  0  0  0  0  0  0  0  0  0
   36.9460   24.7220   32.4950 O   0  0  0  0  0  0  0  0  0  0  0  0
   37.6700   25.8730   34.4060 N   0  0  0  0  0  0  0  0  0  0  0  0
   37.7180   26.7340   34.9720 H   0  0  0  0  0  0  0  0  0  0  0  0
   39.1210   24.6550   36.0170 C   0  0  2  0  0  0  0  0  0  0  0  0
   37.7290   24.5330   36.5240 C   0  0  0  0  0  0  0  0  0  0  0  0
   38.1040   24.6350   35.0190 C   0  0  1  0  0  0  0  0  0  0  0  0
   39.6180   25.6040   36.3170 H   0  0  0  0  0  0  0  0  0  0  0  0
   37.3470   23.5640   36.8840 H   0  0  0  0  0  0  0  0  0  0  0  0
   37.2410   25.3940   36.9810 H   0  0  0  0  0  0  0  0  0  0  0  0
   37.8910   23.6920   34.4620 H   0  0  0  0  0  0  0  0  0  0  0  0
   41.6940   22.1350   35.1160 C   0  0  0  0  0  0  0  0  0  0  0  0
   41.8250   21.3980   36.3390 C   0  0  0  0  0  0  0  0  0  0  0  0
   41.0080   21.7890   37.4500 C   0  0  0  0  0  0  0  0  0  0  0  0
   40.1360   22.8430   37.3160 N   0  0  0  0  0  0  0  0  0  0  0  0
   40.0720   23.4890   36.1250 C   0  0  0  0  0  0  0  0  0  0  0  0
   40.8310   23.1650   35.0070 N   0  0  0  0  0  0  0  0  0  0  0  0
   42.3320   21.7990   34.3100 H   0  0  0  0  0  0  0  0  0  0  0  0
   42.5110   20.5740   36.4320 H   0  0  0  0  0  0  0  0  0  0  0  0
   41.0970   21.2410   38.3770 H   0  0  0  0  0  0  0  0  0  0  0  0
   34.9180   30.1340   32.7000 C   0  0  0  0  0  0  0  0  0  0  0  0
   33.8140   30.2020   32.1100 O   0  0  0  0  0  0  0  0  0  0  0  0
   35.0760   31.0510   33.8250 C   0  0  0  0  0  3  0  0  0  0  0  0
   35.9370   32.2170   33.3260 C   0  0  0  0  0  3  0  0  0  0  0  0
   35.4190   32.5840   32.4220 H   0  0  0  0  0  0  0  0  0  0  0  0
   36.0880   33.2590   34.3950 C   0  0  0  0  0  3  0  0  0  0  0  0
   35.1380   33.8040   34.5630 H   0  0  0  0  0  0  0  0  0  0  0  0
   36.6070   32.6680   35.5300 O   0  0  0  0  0  0  0  0  0  0  0  0
   35.8150   31.6550   36.0420 C   0  0  0  0  0  3  0  0  0  0  0  0
   34.7710   32.0810   36.0660 H   0  0  0  0  0  0  0  0  0  0  0  0
   35.7450   30.4970   35.0360 C   0  0  0  0  0  3  0  0  0  0  0  0
   36.7660   30.1360   34.8800 H   0  0  0  0  0  0  0  0  0  0  0  0
  1  6  1  0  0  0  0
  1 10  1  0  0  0  0
  2  1  2  0  0  0  0
  3  4  2  0  0  0  0
  3  2  1  0  0  0  0
  4  5  1  0  0  0  0
  5 30  1  0  0  0  0
  5  6  2  0  0  0  0
  7  2  1  0  0  0  0
  8  3  1  0  0  0  0
  9  4  1  0  0  0  0
 10 12  1  0  0  0  0
 11 10  2  0  0  0  0
 12 13  1  0  0  0  0
 12 16  1  0  0  0  0
 14 25  1  0  0  0  0
 14 17  1  1  0  0  0
 14 15  1  0  0  0  0
 15 18  1  0  0  0  0
 15 19  1  0  0  0  0
 16 20  1  6  0  0  0
 16 14  1  0  0  0  0
 16 15  1  0  0  0  0
 21 22  1  0  0  0  0
 22 28  1  0  0  0  0
 22 23  2  0  0  0  0
 23 29  1  0  0  0  0
 24 23  1  0  0  0  0
 25 24  2  0  0  0  0
 26 21  2  0  0  0  0
 26 25  1  0  0  0  0
 27 21  1  0  0  0  0
 30 32  1  0  0  0  0
 31 30  2  0  0  0  0
 32 40  1  0  0  0  0
 33 32  1  0  0  0  0
 33 35  1  0  0  0  0
 34 33  1  0  0  0  0
 35 36  1  0  0  0  0
 35 37  1  0  0  0  0
 37 38  1  0  0  0  0
 38 39  1  0  0  0  0
 40 38  1  0  0  0  0
 41 40  1  0  0  0  0
M  END
>  <minimizedAffinity>
-5.55367994

$$$$

 OpenBabel03272508593D

 41 44  0  0  1  0  0  0  0  0999 V2000
   37.2660   27.7190   32.5250 C   0  0  0  0  0  0  0  0  0  0  0  0
   37.2430   28.1200   31.2100 C   0  0  0  0  0  0  0  0  0  0  0  0
   36.3750   29.1490   30.8680 C   0  0  0  0  0  0  0  0  0  0  0  0
   35.5970   29.6990   31.8710 C   0  0  0  0  0  0  0  0  0  0  0  0
   35.6260   29.2890   33.2000 C   0  0  0  0  0  0  0  0  0  0  0  0
   36.4820   28.2880   33.4840 N   0  0  0  0  0  0  0  0  0  0  0  0
   37.8560   27.6810   30.4360 H   0  0  0  0  0  0  0  0  0  0  0  0
   36.3250   29.4900   29.8550 H   0  0  0  0  0  0  0  0  0  0  0  0
   34.9110   30.5030   31.6370 H   0  0  0  0  0  0  0  0  0  0  0  0
   38.1860   26.6360   32.9300 C   0  0  0  0  0  0  0  0  0  0  0  0
   39.3190   26.8570   33.3690 O   0  0  0  0  0  0  0  0  0  0  0  0
   37.6890   25.2740   32.7870 N   0  0  0  0  0  0  0  0  0  0  0  0
   36.8430   25.0080   32.2610 H   0  0  0  0  0  0  0  0  0  0  0  0
   37.9610   23.6360   34.6380 C   0  0  2  0  0  0  0  0  0  0  0  0
   37.7260   22.8440   33.4010 C   0  0  0  0  0  0  0  0  0  0  0  0
   38.4460   24.2200   33.4320 C   0  0  1  0  0  0  0  0  0  0  0  0
   37.0250   23.9930   35.1180 H   0  0  0  0  0  0  0  0  0  0  0  0
   38.3400   21.9570   33.1780 H   0  0  0  0  0  0  0  0  0  0  0  0
   36.7270   22.8070   32.9650 H   0  0  0  0  0  0  0  0  0  0  0  0
   39.5280   24.1410   33.1710 H   0  0  0  0  0  0  0  0  0  0  0  0
   39.5740   23.0090   37.9230 C   0  0  0  0  0  0  0  0  0  0  0  0
   40.7200   22.2360   37.5450 C   0  0  0  0  0  0  0  0  0  0  0  0
   40.9120   21.9550   36.1530 C   0  0  0  0  0  0  0  0  0  0  0  0
   40.0080   22.4260   35.2320 N   0  0  0  0  0  0  0  0  0  0  0  0
   38.9480   23.1510   35.6710 C   0  0  0  0  0  0  0  0  0  0  0  0
   38.6990   23.4630   37.0020 N   0  0  0  0  0  0  0  0  0  0  0  0
   39.4760   23.1920   38.9840 H   0  0  0  0  0  0  0  0  0  0  0  0
   41.4230   21.8710   38.2750 H   0  0  0  0  0  0  0  0  0  0  0  0
   41.7730   21.3730   35.8560 H   0  0  0  0  0  0  0  0  0  0  0  0
   34.7730   29.9150   34.2030 C   0  0  0  0  0  0  0  0  0  0  0  0
   33.5650   29.5850   34.2520 O   0  0  0  0  0  0  0  0  0  0  0  0
   35.1810   30.9150   35.1880 C   0  0  0  0  0  3  0  0  0  0  0  0
   33.9340   31.2590   36.0090 C   0  0  0  0  0  3  0  0  0  0  0  0
   33.5590   30.2860   36.3760 H   0  0  0  0  0  0  0  0  0  0  0  0
   34.2730   32.2240   37.1060 C   0  0  0  0  0  3  0  0  0  0  0  0
   34.8740   31.7370   37.9000 H   0  0  0  0  0  0  0  0  0  0  0  0
   34.8680   33.3420   36.5560 O   0  0  0  0  0  0  0  0  0  0  0  0
   36.0350   33.0680   35.8640 C   0  0  0  0  0  3  0  0  0  0  0  0
   36.6340   32.4020   36.5500 H   0  0  0  0  0  0  0  0  0  0  0  0
   35.7170   32.1930   34.6430 C   0  0  0  0  0  3  0  0  0  0  0  0
   35.0250   32.7550   34.0080 H   0  0  0  0  0  0  0  0  0  0  0  0
  1 10  1  0  0  0  0
  1  6  1  0  0  0  0
  2  1  2  0  0  0  0
  3  2  1  0  0  0  0
  3  4  2  0  0  0  0
  4  5  1  0  0  0  0
  5  6  2  0  0  0  0
  5 30  1  0  0  0  0
  7  2  1  0  0  0  0
  8  3  1  0  0  0  0
  9  4  1  0  0  0  0
 10 11  2  0  0  0  0
 12 10  1  0  0  0  0
 12 16  1  0  0  0  0
 13 12  1  0  0  0  0
 14 17  1  1  0  0  0
 14 25  1  0  0  0  0
 15 16  1  0  0  0  0
 15 14  1  0  0  0  0
 16 20  1  6  0  0  0
 16 14  1  0  0  0  0
 18 15  1  0  0  0  0
 19 15  1  0  0  0  0
 21 27  1  0  0  0  0
 22 21  1  0  0  0  0
 22 28  1  0  0  0  0
 23 22  2  0  0  0  0
 24 25  2  0  0  0  0
 24 23  1  0  0  0  0
 25 26  1  0  0  0  0
 26 21  2  0  0  0  0
 29 23  1  0  0  0  0
 30 31  2  0  0  0  0
 30 32  1  0  0  0  0
 32 33  1  0  0  0  0
 33 34  1  0  0  0  0
 33 35  1  0  0  0  0
 35 36  1  0  0  0  0
 37 35  1  0  0  0  0
 38 39  1  0  0  0  0
 38 37  1  0  0  0  0
 40 32  1  0  0  0  0
 40 38  1  0  0  0  0
 41 40  1  0  0  0  0
M  END
>  <minimizedAffinity>
-5.55327511

$$$$

 OpenBabel03272508593D

 41 44  0  0  1  0  0  0  0  0999 V2000
   37.4340   26.4900   32.4200 C   0  0  0  0  0  0  0  0  0  0  0  0
   38.4450   26.4980   31.4880 C   0  0  0  0  0  0  0  0  0  0  0  0
   39.4380   25.5350   31.6110 C   0  0  0  0  0  0  0  0  0  0  0  0
   39.3420   24.6370   32.6580 C   0  0  0  0  0  0  0  0  0  0  0  0
   38.3160   24.6350   33.5980 C   0  0  0  0  0  0  0  0  0  0  0  0
   37.3760   25.5870   33.4380 N   0  0  0  0  0  0  0  0  0  0  0  0
   38.5080   27.2060   30.6740 H   0  0  0  0  0  0  0  0  0  0  0  0
   40.2440   25.5070   30.9070 H   0  0  0  0  0  0  0  0  0  0  0  0
   40.1000   23.8740   32.7820 H   0  0  0  0  0  0  0  0  0  0  0  0
   36.3520   27.4910   32.3150 C   0  0  0  0  0  0  0  0  0  0  0  0
   35.4180   27.3770   31.5150 O   0  0  0  0  0  0  0  0  0  0  0  0
   36.4370   28.6380   33.2100 N   0  0  0  0  0  0  0  0  0  0  0  0
   37.2700   28.8930   33.7620 H   0  0  0  0  0  0  0  0  0  0  0  0
   34.5230   29.4940   34.5480 C   0  0  2  0  0  0  0  0  0  0  0  0
   35.4420   30.6430   34.3380 C   0  0  0  0  0  0  0  0  0  0  0  0
   35.2620   29.4760   33.3290 C   0  0  1  0  0  0  0  0  0  0  0  0
   34.8110   28.8500   35.4070 H   0  0  0  0  0  0  0  0  0  0  0  0
   35.0490   31.6300   34.0450 H   0  0  0  0  0  0  0  0  0  0  0  0
   36.3820   30.6920   34.8890 H   0  0  0  0  0  0  0  0  0  0  0  0
   34.7760   29.8040   32.3800 H   0  0  0  0  0  0  0  0  0  0  0  0
   31.0850   30.4620   35.5620 C   0  0  0  0  0  0  0  0  0  0  0  0
   30.3260   30.1110   34.3980 C   0  0  0  0  0  0  0  0  0  0  0  0
   31.0250   29.5370   33.2860 C   0  0  0  0  0  0  0  0  0  0  0  0
   32.3830   29.3410   33.3640 N   0  0  0  0  0  0  0  0  0  0  0  0
   33.0300   29.7000   34.5020 C   0  0  0  0  0  0  0  0  0  0  0  0
   32.4170   30.2600   35.6170 N   0  0  0  0  0  0  0  0  0  0  0  0
   30.5100   30.8910   36.3710 H   0  0  0  0  0  0  0  0  0  0  0  0
   29.2620   30.2680   34.3480 H   0  0  0  0  0  0  0  0  0  0  0  0
   30.4630   29.2680   32.4040 H   0  0  0  0  0  0  0  0  0  0  0  0
   38.2820   23.6560   34.6790 C   0  0  0  0  0  0  0  0  0  0  0  0
   37.9200   22.4860   34.4140 O   0  0  0  0  0  0  0  0  0  0  0  0
   38.6350   23.8940   36.0760 C   0  0  0  0  0  3  0  0  0  0  0  0
   39.4200   22.6640   36.5470 C   0  0  0  0  0  3  0  0  0  0  0  0
   40.2390   22.5530   35.8130 H   0  0  0  0  0  0  0  0  0  0  0  0
   39.9000   22.8510   37.9560 C   0  0  0  0  0  3  0  0  0  0  0  0
   40.7100   23.6040   38.0100 H   0  0  0  0  0  0  0  0  0  0  0  0
   38.8180   23.1280   38.7670 O   0  0  0  0  0  0  0  0  0  0  0  0
   38.1290   24.2730   38.4050 C   0  0  0  0  0  3  0  0  0  0  0  0
   38.9240   25.0590   38.2520 H   0  0  0  0  0  0  0  0  0  0  0  0
   37.4970   24.0770   37.0200 C   0  0  0  0  0  3  0  0  0  0  0  0
   36.8090   23.2290   37.0900 H   0  0  0  0  0  0  0  0  0  0  0  0
  1  6  1  0  0  0  0
  2  3  1  0  0  0  0
  2  1  2  0  0  0  0
  3  4  2  0  0  0  0
  4  9  1  0  0  0  0
  4  5  1  0  0  0  0
  5 30  1  0  0  0  0
  6  5  2  0  0  0  0
  7  2  1  0  0  0  0
  8  3  1  0  0  0  0
 10  1  1  0  0  0  0
 10 12  1  0  0  0  0
 11 10  2  0  0  0  0
 12 16  1  0  0  0  0
 12 13  1  0  0  0  0
 14 17  1  1  0  0  0
 15 14  1  0  0  0  0
 15 19  1  0  0  0  0
 16 20  1  6  0  0  0
 16 15  1  0  0  0  0
 16 14  1  0  0  0  0
 18 15  1  0  0  0  0
 21 26  1  0  0  0  0
 21 27  1  0  0  0  0
 22 21  2  0  0  0  0
 23 24  2  0  0  0  0
 23 22  1  0  0  0  0
 24 25  1  0  0  0  0
 25 14  1  0  0  0  0
 25 26  2  0  0  0  0
 28 22  1  0  0  0  0
 29 23  1  0  0  0  0
 30 32  1  0  0  0  0
 31 30  2  0  0  0  0
 32 33  1  0  0  0  0
 32 40  1  0  0  0  0
 33 35  1  0  0  0  0
 34 33  1  0  0  0  0
 35 36  1  0  0  0  0
 35 37  1  0  0  0  0
 38 37  1  0  0  0  0
 39 38  1  0  0  0  0
 40 41  1  0  0  0  0
 40 38  1  0  0  0  0
M  END
>  <minimizedAffinity>
-5.44765425

$$$$
