
 OpenBabel03272510133D

 42 45  0  0  0  0  0  0  0  0999 V2000
   38.4440   31.4030   48.7420 C   0  0  0  0  0  0  0  0  0  0  0  0
   38.4970   32.6320   49.3710 C   0  0  0  0  0  0  0  0  0  0  0  0
   39.0770   33.5240   48.4810 C   0  0  0  0  0  0  0  0  0  0  0  0
   39.3510   32.8220   47.3640 N   0  0  0  0  0  0  0  0  0  0  0  0
   38.9800   31.5840   47.5200 N   0  0  0  0  0  0  0  0  0  0  0  0
   38.2110   33.0320   50.3330 H   0  0  0  0  0  0  0  0  0  0  0  0
   39.3080   34.5890   48.5690 H   0  0  0  0  0  0  0  0  0  0  0  0
   39.9700   33.3580   46.1560 C   0  0  0  0  0  0  0  0  0  0  0  0
   39.2200   33.7860   45.4770 H   0  0  0  0  0  0  0  0  0  0  0  0
   40.5940   34.2270   46.4910 H   0  0  0  0  0  0  0  0  0  0  0  0
   40.8020   32.2590   45.5610 C   0  0  0  0  0  0  0  0  0  0  0  0
   40.6280   31.3530   46.1700 H   0  0  0  0  0  0  0  0  0  0  0  0
   41.8520   32.5560   45.5520 H   0  0  0  0  0  0  0  0  0  0  0  0
   40.3560   31.9420   44.1340 C   0  0  0  0  0  3  0  0  0  0  0  0
   39.5180   33.0280   43.5470 C   0  0  0  0  0  3  0  0  0  0  0  0
   39.3650   33.7920   44.3650 H   0  0  0  0  0  0  0  0  0  0  0  0
   38.1620   32.6280   43.0800 C   0  0  0  0  0  3  0  0  0  0  0  0
   37.8830   33.2050   42.1790 H   0  0  0  0  0  0  0  0  0  0  0  0
   38.0410   31.2860   42.7210 O   0  0  0  0  0  0  0  0  0  0  0  0
   38.2690   30.5720   43.9200 C   0  0  0  0  0  3  0  0  0  0  0  0
   37.9210   29.5380   43.8450 H   0  0  0  0  0  0  0  0  0  0  0  0
   39.7760   30.5710   44.0800 C   0  0  0  0  0  3  0  0  0  0  0  0
   39.9930   30.0470   45.0220 H   0  0  0  0  0  0  0  0  0  0  0  0
   37.8820   30.3930   49.5140 O   0  0  0  0  0  0  0  0  0  0  0  0
   34.1350   28.8640   48.3290 C   0  0  0  0  0  0  0  0  0  0  0  0
   34.7690   28.4090   49.4450 C   0  0  0  0  0  0  0  0  0  0  0  0
   35.9920   28.8560   49.9010 C   0  0  0  0  0  0  0  0  0  0  0  0
   36.6540   29.8270   49.2090 C   0  0  0  0  0  0  0  0  0  0  0  0
   36.0160   30.3010   48.0640 C   0  0  0  0  0  0  0  0  0  0  0  0
   34.8210   29.8300   47.6640 N   0  0  0  0  0  0  0  0  0  0  0  0
   34.3220   27.6370   50.0600 H   0  0  0  0  0  0  0  0  0  0  0  0
   36.4850   28.4840   50.7900 H   0  0  0  0  0  0  0  0  0  0  0  0
   36.4030   31.0710   47.4010 H   0  0  0  0  0  0  0  0  0  0  0  0
   32.0240   27.5680   48.6150 C   0  0  0  0  0  0  0  0  0  0  0  0
   32.8750   28.3920   47.8750 C   0  0  0  0  0  0  0  0  0  0  0  0
   32.4290   28.7500   46.6270 C   0  0  0  0  0  0  0  0  0  0  0  0
   31.2180   28.3090   46.1640 N   0  0  0  0  0  0  0  0  0  0  0  0
   30.4390   27.5110   46.9330 C   0  0  0  0  0  0  0  0  0  0  0  0
   30.8300   27.1230   48.1800 N   0  0  0  0  0  0  0  0  0  0  0  0
   32.3330   27.2610   49.6020 H   0  0  0  0  0  0  0  0  0  0  0  0
   32.9760   29.3830   45.9390 H   0  0  0  0  0  0  0  0  0  0  0  0
   29.4810   27.1340   46.6240 H   0  0  0  0  0  0  0  0  0  0  0  0
  1  2  1  0  0  0  0
  1 24  1  0  0  0  0
  2  6  1  0  0  0  0
  3  7  1  0  0  0  0
  3  2  2  0  0  0  0
  4  5  1  0  0  0  0
  4  3  1  0  0  0  0
  5  1  2  0  0  0  0
  8 10  1  0  0  0  0
  8  4  1  0  0  0  0
  9  8  1  0  0  0  0
 11  8  1  0  0  0  0
 11 12  1  0  0  0  0
 13 11  1  0  0  0  0
 14 11  1  0  0  0  0
 15 14  1  0  0  0  0
 15 16  1  0  0  0  0
 17 15  1  0  0  0  0
 18 17  1  0  0  0  0
 19 17  1  0  0  0  0
 19 20  1  0  0  0  0
 20 22  1  0  0  0  0
 21 20  1  0  0  0  0
 22 14  1  0  0  0  0
 22 23  1  0  0  0  0
 25 26  1  0  0  0  0
 26 27  2  0  0  0  0
 26 31  1  0  0  0  0
 27 32  1  0  0  0  0
 28 24  1  0  0  0  0
 28 27  1  0  0  0  0
 29 28  2  0  0  0  0
 30 29  1  0  0  0  0
 30 25  2  0  0  0  0
 33 29  1  0  0  0  0
 34 40  1  0  0  0  0
 35 25  1  0  0  0  0
 35 34  2  0  0  0  0
 36 35  1  0  0  0  0
 37 36  2  0  0  0  0
 37 38  1  0  0  0  0
 38 39  2  0  0  0  0
 39 34  1  0  0  0  0
 41 36  1  0  0  0  0
 42 38  1  0  0  0  0
M  END
>  <minimizedAffinity>
-6.28023577

>  <minimizedRMSD>
1.43471169

$$$$
