
 OpenBabel03272507433D

 42 45  0  0  0  0  0  0  0  0999 V2000
   36.7600   28.2400   32.2120 C   0  0  0  0  0  0  0  0  0  0  0  0
   35.6990   29.1310   32.0740 C   0  0  0  0  0  0  0  0  0  0  0  0
   35.6640   30.0290   31.0290 C   0  0  0  0  0  0  0  0  0  0  0  0
   36.6990   30.0080   30.1460 N   0  0  0  0  0  0  0  0  0  0  0  0
   37.7280   29.1320   30.2930 C   0  0  0  0  0  0  0  0  0  0  0  0
   37.7430   28.2760   31.3060 N   0  0  0  0  0  0  0  0  0  0  0  0
   34.8730   30.7480   30.8620 H   0  0  0  0  0  0  0  0  0  0  0  0
   38.5360   29.1520   29.5590 H   0  0  0  0  0  0  0  0  0  0  0  0
   34.5760   30.2330   33.9550 C   0  0  0  0  0  0  0  0  0  0  0  0
   35.4560   31.0820   34.3740 O   0  0  0  0  0  0  0  0  0  0  0  0
   34.5950   29.2240   32.9350 N   0  0  0  0  0  0  0  0  0  0  0  0
   33.7280   28.6380   32.9510 H   0  0  0  0  0  0  0  0  0  0  0  0
   33.3820   30.4980   34.8110 C   0  0  0  0  0  3  0  0  0  0  0  0
   33.8210   31.2610   36.0090 C   0  0  0  0  0  3  0  0  0  0  0  0
   33.9410   32.3610   35.7770 H   0  0  0  0  0  0  0  0  0  0  0  0
   32.8620   31.2000   37.1690 C   0  0  0  0  0  3  0  0  0  0  0  0
   33.2810   30.5470   37.9710 H   0  0  0  0  0  0  0  0  0  0  0  0
   31.6520   30.5950   36.8160 O   0  0  0  0  0  0  0  0  0  0  0  0
   32.0050   29.2630   36.5160 C   0  0  0  0  0  3  0  0  0  0  0  0
   31.1190   28.6000   36.5460 H   0  0  0  0  0  0  0  0  0  0  0  0
   32.5210   29.3150   35.0740 C   0  0  0  0  0  3  0  0  0  0  0  0
   32.9740   28.3310   34.8770 H   0  0  0  0  0  0  0  0  0  0  0  0
   36.6230   27.4400   33.2930 O   0  0  0  0  0  0  0  0  0  0  0  0
   37.8970   25.5890   34.3490 C   0  0  0  0  0  0  0  0  0  0  0  0
   37.0840   26.1270   33.3660 C   0  0  0  0  0  0  0  0  0  0  0  0
   36.6450   25.3320   32.3160 C   0  0  0  0  0  0  0  0  0  0  0  0
   37.0290   23.9980   32.2630 C   0  0  0  0  0  0  0  0  0  0  0  0
   37.8420   23.4720   33.2490 C   0  0  0  0  0  0  0  0  0  0  0  0
   38.2530   24.2880   34.2670 C   0  0  0  0  0  0  0  0  0  0  0  0
   36.0090   25.6900   31.5170 H   0  0  0  0  0  0  0  0  0  0  0  0
   36.6880   23.3820   31.4460 H   0  0  0  0  0  0  0  0  0  0  0  0
   38.1600   22.4380   33.2380 H   0  0  0  0  0  0  0  0  0  0  0  0
   39.1260   23.7130   35.3230 C   0  0  0  0  0  0  0  0  0  0  0  0
   38.7880   23.1060   36.4920 C   0  0  0  0  0  0  0  0  0  0  0  0
   39.9530   22.7340   37.1520 C   0  0  0  0  0  0  0  0  0  0  0  0
   40.9540   23.1540   36.3160 C   0  0  0  0  0  0  0  0  0  0  0  0
   40.4470   23.7350   35.2310 O   0  0  0  0  0  0  0  0  0  0  0  0
   37.7770   22.9400   36.8450 H   0  0  0  0  0  0  0  0  0  0  0  0
   40.0630   22.2260   38.1140 H   0  0  0  0  0  0  0  0  0  0  0  0
   42.0330   23.0400   36.4880 H   0  0  0  0  0  0  0  0  0  0  0  0
   38.6330   27.1940   36.2160 N   0  0  0  0  0  0  0  0  0  0  0  0
   38.3030   26.4730   35.3920 C   0  0  0  0  0  0  0  0  0  0  0  0
  1 23  1  0  0  0  0
  2  1  1  0  0  0  0
  2 11  1  0  0  0  0
  3  2  2  0  0  0  0
  4  5  2  0  0  0  0
  4  3  1  0  0  0  0
  5  6  1  0  0  0  0
  6  1  2  0  0  0  0
  7  3  1  0  0  0  0
  8  5  1  0  0  0  0
  9 10  2  0  0  0  0
  9 13  1  0  0  0  0
 11 12  1  0  0  0  0
 11  9  1  0  0  0  0
 13 21  1  0  0  0  0
 13 14  1  0  0  0  0
 14 16  1  0  0  0  0
 15 14  1  0  0  0  0
 16 17  1  0  0  0  0
 18 16  1  0  0  0  0
 19 20  1  0  0  0  0
 19 18  1  0  0  0  0
 21 19  1  0  0  0  0
 22 21  1  0  0  0  0
 23 25  1  0  0  0  0
 24 42  1  0  0  0  0
 25 24  2  0  0  0  0
 26 25  1  0  0  0  0
 27 26  2  0  0  0  0
 27 28  1  0  0  0  0
 28 29  2  0  0  0  0
 29 24  1  0  0  0  0
 29 33  1  0  0  0  0
 30 26  1  0  0  0  0
 31 27  1  0  0  0  0
 32 28  1  0  0  0  0
 33 34  2  0  0  0  0
 34 38  1  0  0  0  0
 34 35  1  0  0  0  0
 35 39  1  0  0  0  0
 36 40  1  0  0  0  0
 36 35  2  0  0  0  0
 37 33  1  0  0  0  0
 37 36  1  0  0  0  0
 42 41  3  0  0  0  0
M  END
>  <minimizedAffinity>
-5.6880064

$$$$

 OpenBabel03272507433D

 42 45  0  0  0  0  0  0  0  0999 V2000
   37.0140   26.7770   33.5140 C   0  0  0  0  0  0  0  0  0  0  0  0
   36.9540   26.1520   32.2710 C   0  0  0  0  0  0  0  0  0  0  0  0
   36.4460   26.8140   31.1740 C   0  0  0  0  0  0  0  0  0  0  0  0
   36.0110   28.0900   31.3540 N   0  0  0  0  0  0  0  0  0  0  0  0
   36.0760   28.6880   32.5740 C   0  0  0  0  0  0  0  0  0  0  0  0
   36.5680   28.0340   33.6180 N   0  0  0  0  0  0  0  0  0  0  0  0
   36.3690   26.3900   30.1810 H   0  0  0  0  0  0  0  0  0  0  0  0
   35.7150   29.7140   32.6690 H   0  0  0  0  0  0  0  0  0  0  0  0
   36.4060   23.8470   31.6410 C   0  0  0  0  0  0  0  0  0  0  0  0
   35.1140   23.8410   31.6170 O   0  0  0  0  0  0  0  0  0  0  0  0
   37.3770   24.8430   31.9940 N   0  0  0  0  0  0  0  0  0  0  0  0
   38.3480   24.4550   32.0040 H   0  0  0  0  0  0  0  0  0  0  0  0
   36.7820   22.4750   31.1860 C   0  0  0  0  0  3  0  0  0  0  0  0
   35.5720   21.6120   31.2420 C   0  0  0  0  0  3  0  0  0  0  0  0
   34.9120   21.7680   30.3380 H   0  0  0  0  0  0  0  0  0  0  0  0
   35.8640   20.1350   31.2730 C   0  0  0  0  0  3  0  0  0  0  0  0
   35.6650   19.7320   32.2950 H   0  0  0  0  0  0  0  0  0  0  0  0
   37.2170   19.8650   31.0450 O   0  0  0  0  0  0  0  0  0  0  0  0
   37.8760   20.4290   32.1570 C   0  0  0  0  0  3  0  0  0  0  0  0
   38.8930   20.0070   32.2730 H   0  0  0  0  0  0  0  0  0  0  0  0
   38.0070   21.9170   31.8160 C   0  0  0  0  0  3  0  0  0  0  0  0
   38.3480   22.4120   32.7390 H   0  0  0  0  0  0  0  0  0  0  0  0
   37.5390   25.9760   34.4680 O   0  0  0  0  0  0  0  0  0  0  0  0
   39.4910   24.5360   34.9950 C   0  0  0  0  0  0  0  0  0  0  0  0
   38.9020   25.7340   34.6330 C   0  0  0  0  0  0  0  0  0  0  0  0
   39.6900   26.8510   34.3930 C   0  0  0  0  0  0  0  0  0  0  0  0
   41.0700   26.7530   34.5210 C   0  0  0  0  0  0  0  0  0  0  0  0
   41.6470   25.5520   34.8830 C   0  0  0  0  0  0  0  0  0  0  0  0
   40.8360   24.4740   35.1110 C   0  0  0  0  0  0  0  0  0  0  0  0
   39.2930   27.8170   34.1070 H   0  0  0  0  0  0  0  0  0  0  0  0
   41.6800   27.6230   34.3350 H   0  0  0  0  0  0  0  0  0  0  0  0
   42.7180   25.4410   34.9920 H   0  0  0  0  0  0  0  0  0  0  0  0
   41.4660   23.1860   35.5000 C   0  0  0  0  0  0  0  0  0  0  0  0
   41.7890   22.7160   36.7350 C   0  0  0  0  0  0  0  0  0  0  0  0
   42.3610   21.4580   36.5950 C   0  0  0  0  0  0  0  0  0  0  0  0
   42.3510   21.2380   35.2430 C   0  0  0  0  0  0  0  0  0  0  0  0
   41.8150   22.2760   34.6030 O   0  0  0  0  0  0  0  0  0  0  0  0
   41.6230   23.2390   37.6690 H   0  0  0  0  0  0  0  0  0  0  0  0
   42.7380   20.7870   37.3720 H   0  0  0  0  0  0  0  0  0  0  0  0
   42.7230   20.3430   34.7280 H   0  0  0  0  0  0  0  0  0  0  0  0
   37.8890   22.5670   35.4050 N   0  0  0  0  0  0  0  0  0  0  0  0
   38.6100   23.4370   35.2220 C   0  0  0  0  0  0  0  0  0  0  0  0
  1  6  1  0  0  0  0
  1 23  1  0  0  0  0
  2  1  2  0  0  0  0
  3  4  2  0  0  0  0
  3  2  1  0  0  0  0
  4  5  1  0  0  0  0
  5  8  1  0  0  0  0
  5  6  2  0  0  0  0
  7  3  1  0  0  0  0
  9 11  1  0  0  0  0
 10  9  2  0  0  0  0
 11 12  1  0  0  0  0
 11  2  1  0  0  0  0
 13 14  1  0  0  0  0
 13  9  1  0  0  0  0
 13 21  1  0  0  0  0
 14 16  1  0  0  0  0
 15 14  1  0  0  0  0
 16 17  1  0  0  0  0
 18 16  1  0  0  0  0
 18 19  1  0  0  0  0
 19 20  1  0  0  0  0
 21 19  1  0  0  0  0
 21 22  1  0  0  0  0
 23 25  1  0  0  0  0
 24 29  1  0  0  0  0
 24 42  1  0  0  0  0
 25 24  2  0  0  0  0
 26 27  2  0  0  0  0
 26 25  1  0  0  0  0
 27 28  1  0  0  0  0
 28 32  1  0  0  0  0
 28 29  2  0  0  0  0
 29 33  1  0  0  0  0
 30 26  1  0  0  0  0
 31 27  1  0  0  0  0
 33 34  2  0  0  0  0
 34 38  1  0  0  0  0
 35 34  1  0  0  0  0
 35 39  1  0  0  0  0
 36 35  2  0  0  0  0
 37 36  1  0  0  0  0
 37 33  1  0  0  0  0
 40 36  1  0  0  0  0
 42 41  3  0  0  0  0
M  END
>  <minimizedAffinity>
-5.656744

$$$$

 OpenBabel03272507433D

 42 45  0  0  0  0  0  0  0  0999 V2000
   36.0660   28.6840   32.5620 C   0  0  0  0  0  0  0  0  0  0  0  0
   37.2490   27.9490   32.5630 C   0  0  0  0  0  0  0  0  0  0  0  0
   38.0500   27.9030   31.4430 C   0  0  0  0  0  0  0  0  0  0  0  0
   37.6410   28.5980   30.3480 N   0  0  0  0  0  0  0  0  0  0  0  0
   36.4840   29.3110   30.3610 C   0  0  0  0  0  0  0  0  0  0  0  0
   35.7260   29.3420   31.4490 N   0  0  0  0  0  0  0  0  0  0  0  0
   38.9800   27.3540   31.3740 H   0  0  0  0  0  0  0  0  0  0  0  0
   36.1970   29.8530   29.4580 H   0  0  0  0  0  0  0  0  0  0  0  0
   37.6360   25.7730   33.6250 C   0  0  0  0  0  0  0  0  0  0  0  0
   37.0440   24.9420   32.8320 O   0  0  0  0  0  0  0  0  0  0  0  0
   37.7460   27.2040   33.6440 N   0  0  0  0  0  0  0  0  0  0  0  0
   38.2140   27.5480   34.5140 H   0  0  0  0  0  0  0  0  0  0  0  0
   38.2700   24.8990   34.6560 C   0  0  0  0  0  3  0  0  0  0  0  0
   38.0680   23.4800   34.2590 C   0  0  0  0  0  3  0  0  0  0  0  0
   38.8190   23.1600   33.4770 H   0  0  0  0  0  0  0  0  0  0  0  0
   38.2190   22.4930   35.3860 C   0  0  0  0  0  3  0  0  0  0  0  0
   37.2180   22.0980   35.6800 H   0  0  0  0  0  0  0  0  0  0  0  0
   38.7150   23.0960   36.5460 O   0  0  0  0  0  0  0  0  0  0  0  0
   37.6980   23.9940   36.9320 C   0  0  0  0  0  3  0  0  0  0  0  0
   37.8080   24.2870   37.9940 H   0  0  0  0  0  0  0  0  0  0  0  0
   37.9270   25.2350   36.0630 C   0  0  0  0  0  3  0  0  0  0  0  0
   37.0430   25.8750   36.2090 H   0  0  0  0  0  0  0  0  0  0  0  0
   35.4140   28.6110   33.7440 O   0  0  0  0  0  0  0  0  0  0  0  0
   33.7550   30.2000   34.6840 C   0  0  0  0  0  0  0  0  0  0  0  0
   35.0380   29.7150   34.5080 C   0  0  0  0  0  0  0  0  0  0  0  0
   36.1110   30.3420   35.1280 C   0  0  0  0  0  0  0  0  0  0  0  0
   35.8810   31.4590   35.9220 C   0  0  0  0  0  0  0  0  0  0  0  0
   34.5960   31.9360   36.0900 C   0  0  0  0  0  0  0  0  0  0  0  0
   33.5660   31.2890   35.4630 C   0  0  0  0  0  0  0  0  0  0  0  0
   37.1370   30.0130   35.0310 H   0  0  0  0  0  0  0  0  0  0  0  0
   36.7150   31.9450   36.4020 H   0  0  0  0  0  0  0  0  0  0  0  0
   34.3810   32.8020   36.7010 H   0  0  0  0  0  0  0  0  0  0  0  0
   32.1870   31.8090   35.6500 C   0  0  0  0  0  0  0  0  0  0  0  0
   31.3000   31.5730   36.6530 C   0  0  0  0  0  0  0  0  0  0  0  0
   30.1350   32.2830   36.3900 C   0  0  0  0  0  0  0  0  0  0  0  0
   30.3970   32.9230   35.2090 C   0  0  0  0  0  0  0  0  0  0  0  0
   31.6230   32.6320   34.7780 O   0  0  0  0  0  0  0  0  0  0  0  0
   31.4770   30.9370   37.5120 H   0  0  0  0  0  0  0  0  0  0  0  0
   29.2140   32.3300   36.9790 H   0  0  0  0  0  0  0  0  0  0  0  0
   29.7140   33.5910   34.6670 H   0  0  0  0  0  0  0  0  0  0  0  0
   31.8870   28.9250   33.4640 N   0  0  0  0  0  0  0  0  0  0  0  0
   32.7120   29.4970   34.0120 C   0  0  0  0  0  0  0  0  0  0  0  0
  1  2  1  0  0  0  0
  1 23  1  0  0  0  0
  2 11  1  0  0  0  0
  3  2  2  0  0  0  0
  4  5  2  0  0  0  0
  4  3  1  0  0  0  0
  5  6  1  0  0  0  0
  6  1  2  0  0  0  0
  7  3  1  0  0  0  0
  8  5  1  0  0  0  0
  9 11  1  0  0  0  0
  9 13  1  0  0  0  0
 10  9  2  0  0  0  0
 11 12  1  0  0  0  0
 13 21  1  0  0  0  0
 14 13  1  0  0  0  0
 14 16  1  0  0  0  0
 15 14  1  0  0  0  0
 16 17  1  0  0  0  0
 16 18  1  0  0  0  0
 18 19  1  0  0  0  0
 19 20  1  0  0  0  0
 21 22  1  0  0  0  0
 21 19  1  0  0  0  0
 23 25  1  0  0  0  0
 24 29  1  0  0  0  0
 25 24  2  0  0  0  0
 25 26  1  0  0  0  0
 26 27  2  0  0  0  0
 27 28  1  0  0  0  0
 27 31  1  0  0  0  0
 28 32  1  0  0  0  0
 29 33  1  0  0  0  0
 29 28  2  0  0  0  0
 30 26  1  0  0  0  0
 33 34  2  0  0  0  0
 34 38  1  0  0  0  0
 35 34  1  0  0  0  0
 35 39  1  0  0  0  0
 36 35  2  0  0  0  0
 37 36  1  0  0  0  0
 37 33  1  0  0  0  0
 40 36  1  0  0  0  0
 41 42  3  0  0  0  0
 42 24  1  0  0  0  0
M  END
>  <minimizedAffinity>
-5.65530777

$$$$

 OpenBabel03272507433D

 42 45  0  0  0  0  0  0  0  0999 V2000
   36.4560   28.1920   31.8890 C   0  0  0  0  0  0  0  0  0  0  0  0
   35.5120   29.2150   31.8950 C   0  0  0  0  0  0  0  0  0  0  0  0
   35.6110   30.2700   31.0140 C   0  0  0  0  0  0  0  0  0  0  0  0
   36.6590   30.2700   30.1470 N   0  0  0  0  0  0  0  0  0  0  0  0
   37.5740   29.2630   30.1520 C   0  0  0  0  0  0  0  0  0  0  0  0
   37.4610   28.2570   31.0090 N   0  0  0  0  0  0  0  0  0  0  0  0
   34.9150   31.0970   30.9640 H   0  0  0  0  0  0  0  0  0  0  0  0
   38.3970   29.3060   29.4370 H   0  0  0  0  0  0  0  0  0  0  0  0
   34.4480   30.1800   33.8820 C   0  0  0  0  0  0  0  0  0  0  0  0
   35.3860   30.9010   34.4050 O   0  0  0  0  0  0  0  0  0  0  0  0
   34.4030   29.2980   32.7520 N   0  0  0  0  0  0  0  0  0  0  0  0
   33.4930   28.7870   32.6920 H   0  0  0  0  0  0  0  0  0  0  0  0
   33.2640   30.4420   34.7540 C   0  0  0  0  0  3  0  0  0  0  0  0
   33.7210   31.1830   35.9590 C   0  0  0  0  0  3  0  0  0  0  0  0
   33.8480   32.2850   35.7430 H   0  0  0  0  0  0  0  0  0  0  0  0
   32.7730   31.1120   37.1270 C   0  0  0  0  0  3  0  0  0  0  0  0
   33.1940   30.4420   37.9150 H   0  0  0  0  0  0  0  0  0  0  0  0
   31.5550   30.5220   36.7760 O   0  0  0  0  0  0  0  0  0  0  0  0
   31.8940   29.1920   36.4520 C   0  0  0  0  0  3  0  0  0  0  0  0
   31.0020   28.5360   36.4800 H   0  0  0  0  0  0  0  0  0  0  0  0
   32.3960   29.2620   35.0060 C   0  0  0  0  0  3  0  0  0  0  0  0
   32.8390   28.2770   34.7900 H   0  0  0  0  0  0  0  0  0  0  0  0
   36.1970   27.2470   32.8200 O   0  0  0  0  0  0  0  0  0  0  0  0
   37.7240   25.6860   34.0000 C   0  0  0  0  0  0  0  0  0  0  0  0
   37.0660   26.8940   33.8510 C   0  0  0  0  0  0  0  0  0  0  0  0
   37.2460   27.9030   34.7860 C   0  0  0  0  0  0  0  0  0  0  0  0
   38.0890   27.6880   35.8690 C   0  0  0  0  0  0  0  0  0  0  0  0
   38.7400   26.4780   36.0090 C   0  0  0  0  0  0  0  0  0  0  0  0
   38.5370   25.5080   35.0650 C   0  0  0  0  0  0  0  0  0  0  0  0
   36.7620   28.8690   34.7280 H   0  0  0  0  0  0  0  0  0  0  0  0
   38.2260   28.4730   36.5960 H   0  0  0  0  0  0  0  0  0  0  0  0
   39.4030   26.2760   36.8400 H   0  0  0  0  0  0  0  0  0  0  0  0
   39.2420   24.2100   35.2240 C   0  0  0  0  0  0  0  0  0  0  0  0
   40.4890   23.8460   34.8220 C   0  0  0  0  0  0  0  0  0  0  0  0
   40.7070   22.5250   35.1950 C   0  0  0  0  0  0  0  0  0  0  0  0
   39.5420   22.1610   35.8160 C   0  0  0  0  0  0  0  0  0  0  0  0
   38.6780   23.1740   35.8260 O   0  0  0  0  0  0  0  0  0  0  0  0
   41.1930   24.4830   34.3010 H   0  0  0  0  0  0  0  0  0  0  0  0
   41.5950   21.9060   35.0360 H   0  0  0  0  0  0  0  0  0  0  0  0
   39.3210   21.1790   36.2550 H   0  0  0  0  0  0  0  0  0  0  0  0
   37.3100   23.9170   32.1820 N   0  0  0  0  0  0  0  0  0  0  0  0
   37.4850   24.7030   32.9940 C   0  0  0  0  0  0  0  0  0  0  0  0
  1  2  1  0  0  0  0
  1 23  1  0  0  0  0
  2 11  1  0  0  0  0
  3  2  2  0  0  0  0
  4  5  2  0  0  0  0
  4  3  1  0  0  0  0
  5  6  1  0  0  0  0
  6  1  2  0  0  0  0
  7  3  1  0  0  0  0
  8  5  1  0  0  0  0
  9 10  2  0  0  0  0
  9 13  1  0  0  0  0
 11  9  1  0  0  0  0
 12 11  1  0  0  0  0
 13 21  1  0  0  0  0
 13 14  1  0  0  0  0
 14 16  1  0  0  0  0
 15 14  1  0  0  0  0
 16 17  1  0  0  0  0
 18 16  1  0  0  0  0
 19 20  1  0  0  0  0
 19 18  1  0  0  0  0
 21 19  1  0  0  0  0
 22 21  1  0  0  0  0
 23 25  1  0  0  0  0
 24 29  1  0  0  0  0
 25 24  2  0  0  0  0
 25 26  1  0  0  0  0
 26 27  2  0  0  0  0
 27 28  1  0  0  0  0
 27 31  1  0  0  0  0
 28 32  1  0  0  0  0
 29 33  1  0  0  0  0
 29 28  2  0  0  0  0
 30 26  1  0  0  0  0
 33 37  1  0  0  0  0
 34 35  1  0  0  0  0
 34 33  2  0  0  0  0
 35 36  2  0  0  0  0
 36 37  1  0  0  0  0
 36 40  1  0  0  0  0
 38 34  1  0  0  0  0
 39 35  1  0  0  0  0
 41 42  3  0  0  0  0
 42 24  1  0  0  0  0
M  END
>  <minimizedAffinity>
-5.60014868

$$$$

 OpenBabel03272507433D

 42 45  0  0  0  0  0  0  0  0999 V2000
   38.7780   25.3320   31.3280 C   0  0  0  0  0  0  0  0  0  0  0  0
   38.4970   24.2370   32.1420 C   0  0  0  0  0  0  0  0  0  0  0  0
   38.4040   22.9700   31.6090 C   0  0  0  0  0  0  0  0  0  0  0  0
   38.5970   22.8350   30.2690 N   0  0  0  0  0  0  0  0  0  0  0  0
   38.8720   23.9130   29.4870 C   0  0  0  0  0  0  0  0  0  0  0  0
   38.9570   25.1250   30.0200 N   0  0  0  0  0  0  0  0  0  0  0  0
   38.1890   22.0760   32.1800 H   0  0  0  0  0  0  0  0  0  0  0  0
   39.0190   23.7540   28.4170 H   0  0  0  0  0  0  0  0  0  0  0  0
   39.3240   23.8560   34.4180 C   0  0  0  0  0  0  0  0  0  0  0  0
   40.4720   23.2910   34.2300 O   0  0  0  0  0  0  0  0  0  0  0  0
   38.2830   24.2840   33.5280 N   0  0  0  0  0  0  0  0  0  0  0  0
   37.4330   24.6020   34.0470 H   0  0  0  0  0  0  0  0  0  0  0  0
   39.2380   24.0130   35.9010 C   0  0  0  0  0  3  0  0  0  0  0  0
   40.2210   23.0930   36.5300 C   0  0  0  0  0  3  0  0  0  0  0  0
   41.2640   23.5270   36.5100 H   0  0  0  0  0  0  0  0  0  0  0  0
   39.9440   22.7850   37.9780 C   0  0  0  0  0  3  0  0  0  0  0  0
   39.5610   21.7410   38.0750 H   0  0  0  0  0  0  0  0  0  0  0  0
   38.9220   23.5860   38.4960 O   0  0  0  0  0  0  0  0  0  0  0  0
   37.7740   23.1940   37.7750 C   0  0  0  0  0  3  0  0  0  0  0  0
   36.8500   23.5010   38.3020 H   0  0  0  0  0  0  0  0  0  0  0  0
   37.8610   23.9740   36.4580 C   0  0  0  0  0  3  0  0  0  0  0  0
   37.0830   23.5510   35.8030 H   0  0  0  0  0  0  0  0  0  0  0  0
   38.8300   26.4900   32.0250 O   0  0  0  0  0  0  0  0  0  0  0  0
   37.0410   28.0510   32.7480 C   0  0  0  0  0  0  0  0  0  0  0  0
   37.9600   27.5630   31.8370 C   0  0  0  0  0  0  0  0  0  0  0  0
   38.0830   28.1560   30.5880 C   0  0  0  0  0  0  0  0  0  0  0  0
   37.2760   29.2400   30.2650 C   0  0  0  0  0  0  0  0  0  0  0  0
   36.3610   29.7190   31.1820 C   0  0  0  0  0  0  0  0  0  0  0  0
   36.2700   29.1070   32.4020 C   0  0  0  0  0  0  0  0  0  0  0  0
   38.7820   27.8240   29.8310 H   0  0  0  0  0  0  0  0  0  0  0  0
   37.3730   29.6990   29.2940 H   0  0  0  0  0  0  0  0  0  0  0  0
   35.7170   30.5600   30.9630 H   0  0  0  0  0  0  0  0  0  0  0  0
   35.2840   29.6290   33.3820 C   0  0  0  0  0  0  0  0  0  0  0  0
   35.4430   30.5590   34.3620 C   0  0  0  0  0  0  0  0  0  0  0  0
   34.2320   30.7170   35.0240 C   0  0  0  0  0  0  0  0  0  0  0  0
   33.3890   29.8460   34.3850 C   0  0  0  0  0  0  0  0  0  0  0  0
   34.0290   29.2050   33.4090 O   0  0  0  0  0  0  0  0  0  0  0  0
   36.3630   31.0860   34.5850 H   0  0  0  0  0  0  0  0  0  0  0  0
   33.9900   31.3770   35.8620 H   0  0  0  0  0  0  0  0  0  0  0  0
   32.3300   29.6780   34.6200 H   0  0  0  0  0  0  0  0  0  0  0  0
   36.9460   26.8550   35.0210 N   0  0  0  0  0  0  0  0  0  0  0  0
   36.9790   27.3850   34.0080 C   0  0  0  0  0  0  0  0  0  0  0  0
  1 23  1  0  0  0  0
  1  2  1  0  0  0  0
  2 11  1  0  0  0  0
  3  2  2  0  0  0  0
  3  7  1  0  0  0  0
  4  3  1  0  0  0  0
  5  6  1  0  0  0  0
  5  4  2  0  0  0  0
  6  1  2  0  0  0  0
  8  5  1  0  0  0  0
  9 13  1  0  0  0  0
 10  9  2  0  0  0  0
 11 12  1  0  0  0  0
 11  9  1  0  0  0  0
 13 21  1  0  0  0  0
 13 14  1  0  0  0  0
 14 16  1  0  0  0  0
 15 14  1  0  0  0  0
 16 17  1  0  0  0  0
 16 18  1  0  0  0  0
 19 20  1  0  0  0  0
 19 18  1  0  0  0  0
 21 19  1  0  0  0  0
 22 21  1  0  0  0  0
 24 42  1  0  0  0  0
 25 23  1  0  0  0  0
 25 24  2  0  0  0  0
 26 25  1  0  0  0  0
 27 26  2  0  0  0  0
 27 28  1  0  0  0  0
 28 29  2  0  0  0  0
 29 24  1  0  0  0  0
 29 33  1  0  0  0  0
 30 26  1  0  0  0  0
 31 27  1  0  0  0  0
 32 28  1  0  0  0  0
 33 37  1  0  0  0  0
 33 34  2  0  0  0  0
 34 38  1  0  0  0  0
 34 35  1  0  0  0  0
 35 39  1  0  0  0  0
 36 40  1  0  0  0  0
 36 35  2  0  0  0  0
 37 36  1  0  0  0  0
 42 41  3  0  0  0  0
M  END
>  <minimizedAffinity>
-5.58688593

$$$$

 OpenBabel03272507433D

 42 45  0  0  0  0  0  0  0  0999 V2000
   36.7450   26.0880   31.6750 C   0  0  0  0  0  0  0  0  0  0  0  0
   37.4940   25.0690   32.2570 C   0  0  0  0  0  0  0  0  0  0  0  0
   37.0480   23.7650   32.2320 C   0  0  0  0  0  0  0  0  0  0  0  0
   35.8580   23.5190   31.6200 N   0  0  0  0  0  0  0  0  0  0  0  0
   35.1380   24.5250   31.0550 C   0  0  0  0  0  0  0  0  0  0  0  0
   35.5850   25.7730   31.0910 N   0  0  0  0  0  0  0  0  0  0  0  0
   37.5760   22.9250   32.6630 H   0  0  0  0  0  0  0  0  0  0  0  0
   34.1890   24.2780   30.5750 H   0  0  0  0  0  0  0  0  0  0  0  0
   38.8490   24.8630   34.2900 C   0  0  0  0  0  0  0  0  0  0  0  0
   37.9950   24.4840   35.1830 O   0  0  0  0  0  0  0  0  0  0  0  0
   38.7260   25.2300   32.9080 N   0  0  0  0  0  0  0  0  0  0  0  0
   39.6260   25.5980   32.5210 H   0  0  0  0  0  0  0  0  0  0  0  0
   40.1550   24.8590   35.0150 C   0  0  0  0  0  3  0  0  0  0  0  0
   41.0400   25.8810   34.3960 C   0  0  0  0  0  3  0  0  0  0  0  0
   40.7960   26.9190   34.7710 H   0  0  0  0  0  0  0  0  0  0  0  0
   42.5060   25.6870   34.6820 C   0  0  0  0  0  3  0  0  0  0  0  0
   43.0230   25.3160   33.7650 H   0  0  0  0  0  0  0  0  0  0  0  0
   42.7250   24.6910   35.6390 O   0  0  0  0  0  0  0  0  0  0  0  0
   42.2760   23.5080   35.0160 C   0  0  0  0  0  3  0  0  0  0  0  0
   42.6900   22.6120   35.5190 H   0  0  0  0  0  0  0  0  0  0  0  0
   40.7570   23.5160   35.2180 C   0  0  0  0  0  3  0  0  0  0  0  0
   40.3620   22.7050   34.5870 H   0  0  0  0  0  0  0  0  0  0  0  0
   37.3390   27.2970   31.7980 O   0  0  0  0  0  0  0  0  0  0  0  0
   36.2850   29.0310   33.2270 C   0  0  0  0  0  0  0  0  0  0  0  0
   36.6570   28.4940   32.0070 C   0  0  0  0  0  0  0  0  0  0  0  0
   36.3530   29.1640   30.8300 C   0  0  0  0  0  0  0  0  0  0  0  0
   35.6740   30.3740   30.8910 C   0  0  0  0  0  0  0  0  0  0  0  0
   35.3060   30.9010   32.1130 C   0  0  0  0  0  0  0  0  0  0  0  0
   35.6240   30.2100   33.2500 C   0  0  0  0  0  0  0  0  0  0  0  0
   36.6160   28.8000   29.8460 H   0  0  0  0  0  0  0  0  0  0  0  0
   35.4380   30.8940   29.9750 H   0  0  0  0  0  0  0  0  0  0  0  0
   34.7760   31.8400   32.1970 H   0  0  0  0  0  0  0  0  0  0  0  0
   35.2240   30.7840   34.5610 C   0  0  0  0  0  0  0  0  0  0  0  0
   35.9450   31.5410   35.4320 C   0  0  0  0  0  0  0  0  0  0  0  0
   35.1430   31.8410   36.5260 C   0  0  0  0  0  0  0  0  0  0  0  0
   33.9510   31.2290   36.2410 C   0  0  0  0  0  0  0  0  0  0  0  0
   34.0140   30.6030   35.0670 O   0  0  0  0  0  0  0  0  0  0  0  0
   36.9720   31.8550   35.2920 H   0  0  0  0  0  0  0  0  0  0  0  0
   35.3900   32.4280   37.4160 H   0  0  0  0  0  0  0  0  0  0  0  0
   33.0510   31.2360   36.8710 H   0  0  0  0  0  0  0  0  0  0  0  0
   36.9280   27.6660   35.3070 N   0  0  0  0  0  0  0  0  0  0  0  0
   36.6360   28.2790   34.3870 C   0  0  0  0  0  0  0  0  0  0  0  0
  1 23  1  0  0  0  0
  1  2  1  0  0  0  0
  2 11  1  0  0  0  0
  3  2  2  0  0  0  0
  3  7  1  0  0  0  0
  4  3  1  0  0  0  0
  5  6  1  0  0  0  0
  5  4  2  0  0  0  0
  6  1  2  0  0  0  0
  8  5  1  0  0  0  0
  9 13  1  0  0  0  0
  9 10  2  0  0  0  0
 11  9  1  0  0  0  0
 12 11  1  0  0  0  0
 13 21  1  0  0  0  0
 14 16  1  0  0  0  0
 14 15  1  0  0  0  0
 14 13  1  0  0  0  0
 16 18  1  0  0  0  0
 17 16  1  0  0  0  0
 19 21  1  0  0  0  0
 19 20  1  0  0  0  0
 19 18  1  0  0  0  0
 22 21  1  0  0  0  0
 23 25  1  0  0  0  0
 24 29  1  0  0  0  0
 24 42  1  0  0  0  0
 25 24  2  0  0  0  0
 26 27  2  0  0  0  0
 26 25  1  0  0  0  0
 27 28  1  0  0  0  0
 28 32  1  0  0  0  0
 28 29  2  0  0  0  0
 29 33  1  0  0  0  0
 30 26  1  0  0  0  0
 31 27  1  0  0  0  0
 33 37  1  0  0  0  0
 33 34  2  0  0  0  0
 34 35  1  0  0  0  0
 35 39  1  0  0  0  0
 36 35  2  0  0  0  0
 36 40  1  0  0  0  0
 37 36  1  0  0  0  0
 38 34  1  0  0  0  0
 42 41  3  0  0  0  0
M  END
>  <minimizedAffinity>
-5.57972717

$$$$

 OpenBabel03272507433D

 42 45  0  0  0  0  0  0  0  0999 V2000
   38.1460   23.9160   34.3150 C   0  0  0  0  0  0  0  0  0  0  0  0
   38.0990   22.5710   34.6720 C   0  0  0  0  0  0  0  0  0  0  0  0
   38.0070   22.1960   35.9940 C   0  0  0  0  0  0  0  0  0  0  0  0
   37.9650   23.1850   36.9280 N   0  0  0  0  0  0  0  0  0  0  0  0
   38.0110   24.4940   36.5650 C   0  0  0  0  0  0  0  0  0  0  0  0
   38.1000   24.8350   35.2860 N   0  0  0  0  0  0  0  0  0  0  0  0
   37.9670   21.1720   36.3420 H   0  0  0  0  0  0  0  0  0  0  0  0
   37.9740   25.2520   37.3500 H   0  0  0  0  0  0  0  0  0  0  0  0
   36.9100   20.8820   33.3490 C   0  0  0  0  0  0  0  0  0  0  0  0
   35.6760   21.0410   33.6980 O   0  0  0  0  0  0  0  0  0  0  0  0
   38.1380   21.4880   33.7800 N   0  0  0  0  0  0  0  0  0  0  0  0
   38.9720   21.0260   33.3510 H   0  0  0  0  0  0  0  0  0  0  0  0
   36.8530   19.8310   32.2900 C   0  0  0  0  0  3  0  0  0  0  0  0
   38.2440   19.4680   31.9110 C   0  0  0  0  0  3  0  0  0  0  0  0
   38.6990   18.7460   32.6510 H   0  0  0  0  0  0  0  0  0  0  0  0
   38.3650   18.7950   30.5690 C   0  0  0  0  0  3  0  0  0  0  0  0
   38.8120   19.5020   29.8300 H   0  0  0  0  0  0  0  0  0  0  0  0
   37.1150   18.4680   30.0330 O   0  0  0  0  0  0  0  0  0  0  0  0
   36.4990   19.7160   29.8030 C   0  0  0  0  0  3  0  0  0  0  0  0
   35.6600   19.6190   29.0870 H   0  0  0  0  0  0  0  0  0  0  0  0
   35.9270   20.1220   31.1650 C   0  0  0  0  0  3  0  0  0  0  0  0
   35.6040   21.1700   31.0590 H   0  0  0  0  0  0  0  0  0  0  0  0
   38.2350   24.0910   32.9770 O   0  0  0  0  0  0  0  0  0  0  0  0
   37.4300   26.1240   31.8020 C   0  0  0  0  0  0  0  0  0  0  0  0
   37.3170   24.8070   32.2120 C   0  0  0  0  0  0  0  0  0  0  0  0
   36.1990   24.0630   31.8580 C   0  0  0  0  0  0  0  0  0  0  0  0
   35.2010   24.6530   31.0930 C   0  0  0  0  0  0  0  0  0  0  0  0
   35.3240   25.9680   30.6900 C   0  0  0  0  0  0  0  0  0  0  0  0
   36.4410   26.6680   31.0590 C   0  0  0  0  0  0  0  0  0  0  0  0
   36.0500   23.0310   32.1460 H   0  0  0  0  0  0  0  0  0  0  0  0
   34.3340   24.0730   30.8200 H   0  0  0  0  0  0  0  0  0  0  0  0
   34.5660   26.4580   30.0940 H   0  0  0  0  0  0  0  0  0  0  0  0
   36.5650   28.0820   30.6210 C   0  0  0  0  0  0  0  0  0  0  0  0
   36.0840   29.2150   31.2000 C   0  0  0  0  0  0  0  0  0  0  0  0
   36.4550   30.3030   30.4200 C   0  0  0  0  0  0  0  0  0  0  0  0
   37.1570   29.7440   29.3850 C   0  0  0  0  0  0  0  0  0  0  0  0
   37.2140   28.4200   29.5170 O   0  0  0  0  0  0  0  0  0  0  0  0
   35.5100   29.2570   32.1180 H   0  0  0  0  0  0  0  0  0  0  0  0
   36.2430   31.3640   30.5800 H   0  0  0  0  0  0  0  0  0  0  0  0
   37.6200   30.2850   28.5480 H   0  0  0  0  0  0  0  0  0  0  0  0
   39.5460   27.3780   32.5470 N   0  0  0  0  0  0  0  0  0  0  0  0
   38.6090   26.8160   32.2080 C   0  0  0  0  0  0  0  0  0  0  0  0
  1  2  2  0  0  0  0
  1  6  1  0  0  0  0
  2  3  1  0  0  0  0
  3  7  1  0  0  0  0
  3  4  2  0  0  0  0
  5  4  1  0  0  0  0
  5  8  1  0  0  0  0
  6  5  2  0  0  0  0
  9 10  2  0  0  0  0
  9 11  1  0  0  0  0
 11  2  1  0  0  0  0
 12 11  1  0  0  0  0
 13  9  1  0  0  0  0
 14 13  1  0  0  0  0
 14 15  1  0  0  0  0
 16 14  1  0  0  0  0
 17 16  1  0  0  0  0
 18 16  1  0  0  0  0
 19 18  1  0  0  0  0
 19 21  1  0  0  0  0
 20 19  1  0  0  0  0
 21 13  1  0  0  0  0
 22 21  1  0  0  0  0
 23  1  1  0  0  0  0
 24 42  1  0  0  0  0
 24 25  1  0  0  0  0
 25 23  1  0  0  0  0
 26 30  1  0  0  0  0
 26 25  2  0  0  0  0
 27 26  1  0  0  0  0
 28 29  1  0  0  0  0
 28 27  2  0  0  0  0
 29 24  2  0  0  0  0
 31 27  1  0  0  0  0
 32 28  1  0  0  0  0
 33 29  1  0  0  0  0
 33 34  2  0  0  0  0
 34 38  1  0  0  0  0
 35 39  1  0  0  0  0
 35 34  1  0  0  0  0
 36 37  1  0  0  0  0
 36 35  2  0  0  0  0
 37 33  1  0  0  0  0
 40 36  1  0  0  0  0
 42 41  3  0  0  0  0
M  END
>  <minimizedAffinity>
-5.49799299

$$$$

 OpenBabel03272507433D

 42 45  0  0  0  0  0  0  0  0999 V2000
   40.1850   26.9790   32.3750 C   0  0  0  0  0  0  0  0  0  0  0  0
   40.5530   26.6230   33.6700 C   0  0  0  0  0  0  0  0  0  0  0  0
   41.8380   26.8360   34.1200 C   0  0  0  0  0  0  0  0  0  0  0  0
   42.7220   27.4030   33.2550 N   0  0  0  0  0  0  0  0  0  0  0  0
   42.3480   27.7460   31.9940 C   0  0  0  0  0  0  0  0  0  0  0  0
   41.1060   27.5320   31.5790 N   0  0  0  0  0  0  0  0  0  0  0  0
   42.1920   26.5840   35.1110 H   0  0  0  0  0  0  0  0  0  0  0  0
   43.0930   28.1980   31.3370 H   0  0  0  0  0  0  0  0  0  0  0  0
   39.7490   24.6130   34.8210 C   0  0  0  0  0  0  0  0  0  0  0  0
   40.3510   23.6510   34.2020 O   0  0  0  0  0  0  0  0  0  0  0  0
   39.7110   26.0340   34.6250 N   0  0  0  0  0  0  0  0  0  0  0  0
   39.0170   26.4960   35.2570 H   0  0  0  0  0  0  0  0  0  0  0  0
   39.0020   23.9250   35.9160 C   0  0  0  0  0  3  0  0  0  0  0  0
   38.2780   24.9520   36.7100 C   0  0  0  0  0  3  0  0  0  0  0  0
   37.3170   25.2640   36.2030 H   0  0  0  0  0  0  0  0  0  0  0  0
   37.8740   24.5000   38.0880 C   0  0  0  0  0  3  0  0  0  0  0  0
   38.5210   24.9940   38.8520 H   0  0  0  0  0  0  0  0  0  0  0  0
   38.0910   23.1310   38.2740 O   0  0  0  0  0  0  0  0  0  0  0  0
   39.4920   22.9890   38.1980 C   0  0  0  0  0  3  0  0  0  0  0  0
   39.8190   22.0330   38.6510 H   0  0  0  0  0  0  0  0  0  0  0  0
   39.7950   22.9400   36.6970 C   0  0  0  0  0  3  0  0  0  0  0  0
   40.8900   23.0150   36.6050 H   0  0  0  0  0  0  0  0  0  0  0  0
   38.8890   26.6950   32.1120 O   0  0  0  0  0  0  0  0  0  0  0  0
   36.9400   28.1920   32.4580 C   0  0  0  0  0  0  0  0  0  0  0  0
   37.9460   27.6300   31.6910 C   0  0  0  0  0  0  0  0  0  0  0  0
   38.0880   27.9900   30.3580 C   0  0  0  0  0  0  0  0  0  0  0  0
   37.2130   28.9170   29.8050 C   0  0  0  0  0  0  0  0  0  0  0  0
   36.2120   29.4710   30.5790 C   0  0  0  0  0  0  0  0  0  0  0  0
   36.1050   29.0900   31.8880 C   0  0  0  0  0  0  0  0  0  0  0  0
   38.8520   27.5890   29.7060 H   0  0  0  0  0  0  0  0  0  0  0  0
   37.3240   29.1950   28.7690 H   0  0  0  0  0  0  0  0  0  0  0  0
   35.5130   30.1940   30.1800 H   0  0  0  0  0  0  0  0  0  0  0  0
   35.0260   29.6920   32.7130 C   0  0  0  0  0  0  0  0  0  0  0  0
   33.7280   29.3120   32.8540 C   0  0  0  0  0  0  0  0  0  0  0  0
   33.1030   30.1850   33.7350 C   0  0  0  0  0  0  0  0  0  0  0  0
   34.0920   31.0670   34.0830 C   0  0  0  0  0  0  0  0  0  0  0  0
   35.2320   30.7620   33.4670 O   0  0  0  0  0  0  0  0  0  0  0  0
   33.2620   28.4670   32.3600 H   0  0  0  0  0  0  0  0  0  0  0  0
   32.0650   30.1840   34.0810 H   0  0  0  0  0  0  0  0  0  0  0  0
   33.9910   31.9180   34.7710 H   0  0  0  0  0  0  0  0  0  0  0  0
   36.8190   27.4350   34.9110 N   0  0  0  0  0  0  0  0  0  0  0  0
   36.8640   27.7680   33.8170 C   0  0  0  0  0  0  0  0  0  0  0  0
  1  2  1  0  0  0  0
  2  3  2  0  0  0  0
  2 11  1  0  0  0  0
  3  7  1  0  0  0  0
  4  3  1  0  0  0  0
  5  4  2  0  0  0  0
  6  5  1  0  0  0  0
  6  1  2  0  0  0  0
  8  5  1  0  0  0  0
  9 13  1  0  0  0  0
 10  9  2  0  0  0  0
 11  9  1  0  0  0  0
 11 12  1  0  0  0  0
 13 21  1  0  0  0  0
 13 14  1  0  0  0  0
 14 16  1  0  0  0  0
 15 14  1  0  0  0  0
 16 18  1  0  0  0  0
 16 17  1  0  0  0  0
 19 18  1  0  0  0  0
 19 20  1  0  0  0  0
 21 19  1  0  0  0  0
 22 21  1  0  0  0  0
 23  1  1  0  0  0  0
 24 42  1  0  0  0  0
 25 23  1  0  0  0  0
 25 24  2  0  0  0  0
 26 25  1  0  0  0  0
 27 26  2  0  0  0  0
 27 28  1  0  0  0  0
 28 29  2  0  0  0  0
 29 24  1  0  0  0  0
 29 33  1  0  0  0  0
 30 26  1  0  0  0  0
 31 27  1  0  0  0  0
 32 28  1  0  0  0  0
 33 34  2  0  0  0  0
 33 37  1  0  0  0  0
 34 35  1  0  0  0  0
 35 39  1  0  0  0  0
 35 36  2  0  0  0  0
 36 40  1  0  0  0  0
 37 36  1  0  0  0  0
 38 34  1  0  0  0  0
 42 41  3  0  0  0  0
M  END
>  <minimizedAffinity>
-5.46204853

$$$$

 OpenBabel03272507433D

 42 45  0  0  0  0  0  0  0  0999 V2000
   35.9820   29.0360   32.0590 C   0  0  0  0  0  0  0  0  0  0  0  0
   36.6640   27.9620   31.4930 C   0  0  0  0  0  0  0  0  0  0  0  0
   37.2410   28.0730   30.2460 C   0  0  0  0  0  0  0  0  0  0  0  0
   37.1170   29.2640   29.5990 N   0  0  0  0  0  0  0  0  0  0  0  0
   36.4490   30.3040   30.1650 C   0  0  0  0  0  0  0  0  0  0  0  0
   35.9000   30.1760   31.3660 N   0  0  0  0  0  0  0  0  0  0  0  0
   37.7840   27.2820   29.7470 H   0  0  0  0  0  0  0  0  0  0  0  0
   36.3760   31.2390   29.6070 H   0  0  0  0  0  0  0  0  0  0  0  0
   36.0590   25.5900   31.6230 C   0  0  0  0  0  0  0  0  0  0  0  0
   35.0750   25.4840   30.7920 O   0  0  0  0  0  0  0  0  0  0  0  0
   36.8390   26.7030   32.0850 N   0  0  0  0  0  0  0  0  0  0  0  0
   37.4890   26.4290   32.8570 H   0  0  0  0  0  0  0  0  0  0  0  0
   36.2880   24.1900   32.0910 C   0  0  0  0  0  3  0  0  0  0  0  0
   37.7160   24.0500   32.4770 C   0  0  0  0  0  3  0  0  0  0  0  0
   37.9060   24.4620   33.5120 H   0  0  0  0  0  0  0  0  0  0  0  0
   38.2120   22.6280   32.5160 C   0  0  0  0  0  3  0  0  0  0  0  0
   38.8810   22.4370   31.6440 H   0  0  0  0  0  0  0  0  0  0  0  0
   37.1690   21.7070   32.3710 O   0  0  0  0  0  0  0  0  0  0  0  0
   36.6900   21.9300   31.0630 C   0  0  0  0  0  3  0  0  0  0  0  0
   36.1010   21.0640   30.7020 H   0  0  0  0  0  0  0  0  0  0  0  0
   35.7500   23.1330   31.1950 C   0  0  0  0  0  3  0  0  0  0  0  0
   35.5070   23.4430   30.1670 H   0  0  0  0  0  0  0  0  0  0  0  0
   35.4850   28.7420   33.2820 O   0  0  0  0  0  0  0  0  0  0  0  0
   33.7390   30.0600   34.4550 C   0  0  0  0  0  0  0  0  0  0  0  0
   35.0490   29.6900   34.2060 C   0  0  0  0  0  0  0  0  0  0  0  0
   36.0860   30.2830   34.9130 C   0  0  0  0  0  0  0  0  0  0  0  0
   35.7950   31.2480   35.8690 C   0  0  0  0  0  0  0  0  0  0  0  0
   34.4840   31.6110   36.1100 C   0  0  0  0  0  0  0  0  0  0  0  0
   33.4910   31.0030   35.3920 C   0  0  0  0  0  0  0  0  0  0  0  0
   37.1300   30.0390   34.7660 H   0  0  0  0  0  0  0  0  0  0  0  0
   36.6020   31.7080   36.4170 H   0  0  0  0  0  0  0  0  0  0  0  0
   34.2220   32.3580   36.8460 H   0  0  0  0  0  0  0  0  0  0  0  0
   32.0840   31.3990   35.6580 C   0  0  0  0  0  0  0  0  0  0  0  0
   31.2220   30.9520   36.6110 C   0  0  0  0  0  0  0  0  0  0  0  0
   30.0130   31.6200   36.4630 C   0  0  0  0  0  0  0  0  0  0  0  0
   30.2240   32.4540   35.3980 C   0  0  0  0  0  0  0  0  0  0  0  0
   31.4610   32.3130   34.9280 O   0  0  0  0  0  0  0  0  0  0  0  0
   31.4470   30.2010   37.3590 H   0  0  0  0  0  0  0  0  0  0  0  0
   29.0970   31.5150   37.0520 H   0  0  0  0  0  0  0  0  0  0  0  0
   29.4950   33.1540   34.9680 H   0  0  0  0  0  0  0  0  0  0  0  0
   31.9320   28.8850   33.0550 N   0  0  0  0  0  0  0  0  0  0  0  0
   32.7350   29.4020   33.6860 C   0  0  0  0  0  0  0  0  0  0  0  0
  1 23  1  0  0  0  0
  2  1  1  0  0  0  0
  2 11  1  0  0  0  0
  3  2  2  0  0  0  0
  4  5  2  0  0  0  0
  4  3  1  0  0  0  0
  5  6  1  0  0  0  0
  6  1  2  0  0  0  0
  7  3  1  0  0  0  0
  8  5  1  0  0  0  0
  9 11  1  0  0  0  0
  9 13  1  0  0  0  0
 10  9  2  0  0  0  0
 11 12  1  0  0  0  0
 13 14  1  0  0  0  0
 14 16  1  0  0  0  0
 14 15  1  0  0  0  0
 17 16  1  0  0  0  0
 18 16  1  0  0  0  0
 19 21  1  0  0  0  0
 19 18  1  0  0  0  0
 20 19  1  0  0  0  0
 21 13  1  0  0  0  0
 22 21  1  0  0  0  0
 23 25  1  0  0  0  0
 24 29  1  0  0  0  0
 25 24  2  0  0  0  0
 25 26  1  0  0  0  0
 26 27  2  0  0  0  0
 27 28  1  0  0  0  0
 27 31  1  0  0  0  0
 28 32  1  0  0  0  0
 29 33  1  0  0  0  0
 29 28  2  0  0  0  0
 30 26  1  0  0  0  0
 33 34  2  0  0  0  0
 34 38  1  0  0  0  0
 35 34  1  0  0  0  0
 35 39  1  0  0  0  0
 36 35  2  0  0  0  0
 37 36  1  0  0  0  0
 37 33  1  0  0  0  0
 40 36  1  0  0  0  0
 41 42  3  0  0  0  0
 42 24  1  0  0  0  0
M  END
>  <minimizedAffinity>
-5.45010233

$$$$
