
 OpenBabel03272508583D

 41 44  0  0  1  0  0  0  0  0999 V2000
   39.1280   31.3300   43.2900 C   0  0  0  0  0  0  0  0  0  0  0  0
   40.2420   30.5370   43.4350 C   0  0  0  0  0  0  0  0  0  0  0  0
   40.9660   30.2320   42.2900 C   0  0  0  0  0  0  0  0  0  0  0  0
   40.5190   30.7460   41.0870 C   0  0  0  0  0  0  0  0  0  0  0  0
   39.3910   31.5480   40.9470 C   0  0  0  0  0  0  0  0  0  0  0  0
   38.7210   31.8160   42.0850 N   0  0  0  0  0  0  0  0  0  0  0  0
   40.5800   30.1410   44.3830 H   0  0  0  0  0  0  0  0  0  0  0  0
   41.8400   29.6170   42.3590 H   0  0  0  0  0  0  0  0  0  0  0  0
   41.0620   30.5270   40.1750 H   0  0  0  0  0  0  0  0  0  0  0  0
   38.3390   31.6870   44.4880 C   0  0  0  0  0  0  0  0  0  0  0  0
   37.1830   32.1130   44.4180 O   0  0  0  0  0  0  0  0  0  0  0  0
   38.9970   31.5100   45.7760 N   0  0  0  0  0  0  0  0  0  0  0  0
   40.0070   31.3420   45.9040 H   0  0  0  0  0  0  0  0  0  0  0  0
   38.7030   31.2040   48.2270 C   0  0  2  0  0  0  0  0  0  0  0  0
   38.6270   32.6670   47.9690 C   0  0  0  0  0  0  0  0  0  0  0  0
   38.1660   31.5790   46.9600 C   0  0  1  0  0  0  0  0  0  0  0  0
   39.7440   30.8270   48.3240 H   0  0  0  0  0  0  0  0  0  0  0  0
   37.8440   33.2800   48.4440 H   0  0  0  0  0  0  0  0  0  0  0  0
   39.5340   33.2220   47.7310 H   0  0  0  0  0  0  0  0  0  0  0  0
   37.0610   31.5830   46.8050 H   0  0  0  0  0  0  0  0  0  0  0  0
   35.9540   29.2000   49.7140 C   0  0  0  0  0  0  0  0  0  0  0  0
   36.1840   29.3820   51.1170 C   0  0  0  0  0  0  0  0  0  0  0  0
   37.2870   30.2060   51.5170 C   0  0  0  0  0  0  0  0  0  0  0  0
   38.0820   30.7890   50.5600 N   0  0  0  0  0  0  0  0  0  0  0  0
   37.7980   30.5680   49.2520 C   0  0  0  0  0  0  0  0  0  0  0  0
   36.7470   29.7830   48.7920 N   0  0  0  0  0  0  0  0  0  0  0  0
   35.1110   28.5700   49.4660 H   0  0  0  0  0  0  0  0  0  0  0  0
   35.5540   28.9200   51.8580 H   0  0  0  0  0  0  0  0  0  0  0  0
   37.4690   30.3510   52.5720 H   0  0  0  0  0  0  0  0  0  0  0  0
   38.9790   32.0530   39.6420 C   0  0  0  0  0  0  0  0  0  0  0  0
   39.0960   33.2790   39.4110 O   0  0  0  0  0  0  0  0  0  0  0  0
   38.4280   31.2660   38.5410 C   0  0  0  0  0  3  0  0  0  0  0  0
   37.5780   30.1570   39.1720 C   0  0  0  0  0  3  0  0  0  0  0  0
   36.8730   30.6880   39.8390 H   0  0  0  0  0  0  0  0  0  0  0  0
   36.9010   29.3410   38.1120 C   0  0  0  0  0  3  0  0  0  0  0  0
   36.0960   29.9150   37.6140 H   0  0  0  0  0  0  0  0  0  0  0  0
   37.8560   28.8450   37.2470 O   0  0  0  0  0  0  0  0  0  0  0  0
   38.5960   29.8270   36.6120 C   0  0  0  0  0  3  0  0  0  0  0  0
   37.8340   30.5680   36.2310 H   0  0  0  0  0  0  0  0  0  0  0  0
   39.4200   30.6040   37.6460 C   0  0  0  0  0  3  0  0  0  0  0  0
   40.0860   29.8900   38.1400 H   0  0  0  0  0  0  0  0  0  0  0  0
  1  2  1  0  0  0  0
  1 10  1  0  0  0  0
  2  7  1  0  0  0  0
  3  8  1  0  0  0  0
  3  2  2  0  0  0  0
  4  3  1  0  0  0  0
  5  4  2  0  0  0  0
  5  6  1  0  0  0  0
  6  1  2  0  0  0  0
  9  4  1  0  0  0  0
 10 12  1  0  0  0  0
 11 10  2  0  0  0  0
 12 13  1  0  0  0  0
 12 16  1  0  0  0  0
 14 17  1  6  0  0  0
 14 25  1  0  0  0  0
 15 14  1  0  0  0  0
 15 18  1  0  0  0  0
 16 20  1  6  0  0  0
 16 15  1  0  0  0  0
 16 14  1  0  0  0  0
 19 15  1  0  0  0  0
 21 22  1  0  0  0  0
 22 23  2  0  0  0  0
 22 28  1  0  0  0  0
 23 29  1  0  0  0  0
 24 23  1  0  0  0  0
 25 24  2  0  0  0  0
 26 25  1  0  0  0  0
 26 21  2  0  0  0  0
 27 21  1  0  0  0  0
 30  5  1  0  0  0  0
 31 30  2  0  0  0  0
 32 33  1  0  0  0  0
 32 30  1  0  0  0  0
 33 34  1  0  0  0  0
 35 33  1  0  0  0  0
 36 35  1  0  0  0  0
 37 35  1  0  0  0  0
 38 37  1  0  0  0  0
 38 40  1  0  0  0  0
 39 38  1  0  0  0  0
 40 41  1  0  0  0  0
 40 32  1  0  0  0  0
M  END
>  <minimizedAffinity>
-4.90378523

>  <minimizedRMSD>
1.33192706

$$$$
