
 OpenBabel03272508573D

 41 44  0  0  1  0  0  0  0  0999 V2000
   39.1140   31.4950   43.2990 C   0  0  0  0  0  0  0  0  0  0  0  0
   40.1110   30.5580   43.4370 C   0  0  0  0  0  0  0  0  0  0  0  0
   40.8330   30.2170   42.3010 C   0  0  0  0  0  0  0  0  0  0  0  0
   40.5030   30.8430   41.1130 C   0  0  0  0  0  0  0  0  0  0  0  0
   39.4930   31.7910   40.9800 C   0  0  0  0  0  0  0  0  0  0  0  0
   38.8200   32.0890   42.1080 N   0  0  0  0  0  0  0  0  0  0  0  0
   40.3580   30.0760   44.3720 H   0  0  0  0  0  0  0  0  0  0  0  0
   41.6170   29.4910   42.3650 H   0  0  0  0  0  0  0  0  0  0  0  0
   41.0480   30.6000   40.2090 H   0  0  0  0  0  0  0  0  0  0  0  0
   38.3320   31.8930   44.4880 C   0  0  0  0  0  0  0  0  0  0  0  0
   37.2410   32.4640   44.4030 O   0  0  0  0  0  0  0  0  0  0  0  0
   38.9160   31.5770   45.7850 N   0  0  0  0  0  0  0  0  0  0  0  0
   39.8910   31.2780   45.9350 H   0  0  0  0  0  0  0  0  0  0  0  0
   38.4300   31.0710   48.1710 C   0  0  2  0  0  0  0  0  0  0  0  0
   38.6880   32.5330   48.0920 C   0  0  0  0  0  0  0  0  0  0  0  0
   38.0570   31.6950   46.9450 C   0  0  1  0  0  0  0  0  0  0  0  0
   39.3570   30.4620   48.2510 H   0  0  0  0  0  0  0  0  0  0  0  0
   38.0330   33.2470   48.6150 H   0  0  0  0  0  0  0  0  0  0  0  0
   39.7070   32.8950   47.9480 H   0  0  0  0  0  0  0  0  0  0  0  0
   36.9890   31.9630   46.7600 H   0  0  0  0  0  0  0  0  0  0  0  0
   35.0730   30.2250   49.5140 C   0  0  0  0  0  0  0  0  0  0  0  0
   35.4060   29.5410   50.7280 C   0  0  0  0  0  0  0  0  0  0  0  0
   36.7930   29.3940   51.0590 C   0  0  0  0  0  0  0  0  0  0  0  0
   37.7510   29.9050   50.2170 N   0  0  0  0  0  0  0  0  0  0  0  0
   37.3540   30.5400   49.0860 C   0  0  0  0  0  0  0  0  0  0  0  0
   36.0300   30.7200   48.7020 N   0  0  0  0  0  0  0  0  0  0  0  0
   34.0140   30.3080   49.3110 H   0  0  0  0  0  0  0  0  0  0  0  0
   34.6470   29.1440   51.3810 H   0  0  0  0  0  0  0  0  0  0  0  0
   37.0560   28.8810   51.9720 H   0  0  0  0  0  0  0  0  0  0  0  0
   39.2000   32.4080   39.6910 C   0  0  0  0  0  0  0  0  0  0  0  0
   38.7750   33.5870   39.6760 O   0  0  0  0  0  0  0  0  0  0  0  0
   39.3500   31.7870   38.3770 C   0  0  0  0  0  3  0  0  0  0  0  0
   40.4760   32.5410   37.6600 C   0  0  0  0  0  3  0  0  0  0  0  0
   41.3330   32.5000   38.3590 H   0  0  0  0  0  0  0  0  0  0  0  0
   40.7610   31.9200   36.3250 C   0  0  0  0  0  3  0  0  0  0  0  0
   41.2550   30.9350   36.4340 H   0  0  0  0  0  0  0  0  0  0  0  0
   39.5950   31.8860   35.5860 O   0  0  0  0  0  0  0  0  0  0  0  0
   38.5810   31.1550   36.1790 C   0  0  0  0  0  3  0  0  0  0  0  0
   39.0650   30.1860   36.4980 H   0  0  0  0  0  0  0  0  0  0  0  0
   38.1550   31.8330   37.4880 C   0  0  0  0  0  3  0  0  0  0  0  0
   37.8000   32.8370   37.2390 H   0  0  0  0  0  0  0  0  0  0  0  0
  1  2  1  0  0  0  0
  1 10  1  0  0  0  0
  2  7  1  0  0  0  0
  3  8  1  0  0  0  0
  3  2  2  0  0  0  0
  4  3  1  0  0  0  0
  5  4  2  0  0  0  0
  5  6  1  0  0  0  0
  6  1  2  0  0  0  0
  9  4  1  0  0  0  0
 10 12  1  0  0  0  0
 11 10  2  0  0  0  0
 12 13  1  0  0  0  0
 12 16  1  0  0  0  0
 14 17  1  6  0  0  0
 14 25  1  0  0  0  0
 15 14  1  0  0  0  0
 15 18  1  0  0  0  0
 16 20  1  6  0  0  0
 16 15  1  0  0  0  0
 16 14  1  0  0  0  0
 19 15  1  0  0  0  0
 21 22  1  0  0  0  0
 22 23  2  0  0  0  0
 22 28  1  0  0  0  0
 23 29  1  0  0  0  0
 24 23  1  0  0  0  0
 25 24  2  0  0  0  0
 26 25  1  0  0  0  0
 26 21  2  0  0  0  0
 27 21  1  0  0  0  0
 30  5  1  0  0  0  0
 31 30  2  0  0  0  0
 32 30  1  0  0  0  0
 33 34  1  0  0  0  0
 33 32  1  0  0  0  0
 35 36  1  0  0  0  0
 35 33  1  0  0  0  0
 37 38  1  0  0  0  0
 37 35  1  0  0  0  0
 38 39  1  0  0  0  0
 38 40  1  0  0  0  0
 40 32  1  0  0  0  0
 41 40  1  0  0  0  0
M  END
>  <minimizedAffinity>
-4.90854979

>  <minimizedRMSD>
0.143407628

$$$$
