
 OpenBabel03272507423D

 42 45  0  0  0  0  0  0  0  0999 V2000
   36.6570   31.1280   50.1070 C   0  0  0  0  0  0  0  0  0  0  0  0
   35.5370   30.3080   50.0000 C   0  0  0  0  0  0  0  0  0  0  0  0
   35.3700   29.2310   50.8440 C   0  0  0  0  0  0  0  0  0  0  0  0
   36.3350   29.0060   51.7750 N   0  0  0  0  0  0  0  0  0  0  0  0
   37.4240   29.8150   51.8680 C   0  0  0  0  0  0  0  0  0  0  0  0
   37.5660   30.8470   51.0460 N   0  0  0  0  0  0  0  0  0  0  0  0
   34.5270   28.5540   50.8170 H   0  0  0  0  0  0  0  0  0  0  0  0
   38.1720   29.5940   52.6310 H   0  0  0  0  0  0  0  0  0  0  0  0
   34.1800   29.3900   48.1760 C   0  0  0  0  0  0  0  0  0  0  0  0
   34.7420   28.2520   47.9270 O   0  0  0  0  0  0  0  0  0  0  0  0
   34.4960   30.4650   49.0730 N   0  0  0  0  0  0  0  0  0  0  0  0
   33.8740   31.2930   48.9220 H   0  0  0  0  0  0  0  0  0  0  0  0
   32.9970   29.4140   47.2660 C   0  0  0  0  0  3  0  0  0  0  0  0
   32.6990   28.0210   46.8420 C   0  0  0  0  0  3  0  0  0  0  0  0
   32.1190   27.4630   47.6370 H   0  0  0  0  0  0  0  0  0  0  0  0
   31.8660   27.9160   45.5920 C   0  0  0  0  0  3  0  0  0  0  0  0
   32.5010   27.5760   44.7420 H   0  0  0  0  0  0  0  0  0  0  0  0
   31.3720   29.1600   45.1890 O   0  0  0  0  0  0  0  0  0  0  0  0
   32.5260   29.8950   44.8420 C   0  0  0  0  0  3  0  0  0  0  0  0
   32.2680   30.7610   44.2020 H   0  0  0  0  0  0  0  0  0  0  0  0
   33.0620   30.4240   46.1770 C   0  0  0  0  0  3  0  0  0  0  0  0
   34.0570   30.8420   45.9600 H   0  0  0  0  0  0  0  0  0  0  0  0
   36.6490   32.1300   49.1990 O   0  0  0  0  0  0  0  0  0  0  0  0
   38.1730   32.1700   47.2400 C   0  0  0  0  0  0  0  0  0  0  0  0
   37.7720   32.5720   48.5010 C   0  0  0  0  0  0  0  0  0  0  0  0
   38.5180   33.5110   49.2020 C   0  0  0  0  0  0  0  0  0  0  0  0
   39.6660   34.0390   48.6250 C   0  0  0  0  0  0  0  0  0  0  0  0
   40.0580   33.6300   47.3650 C   0  0  0  0  0  0  0  0  0  0  0  0
   39.2960   32.7030   46.7070 C   0  0  0  0  0  0  0  0  0  0  0  0
   38.2590   33.8670   50.1900 H   0  0  0  0  0  0  0  0  0  0  0  0
   40.2440   34.7670   49.1700 H   0  0  0  0  0  0  0  0  0  0  0  0
   40.9460   34.0200   46.8860 H   0  0  0  0  0  0  0  0  0  0  0  0
   39.7250   32.2700   45.3520 C   0  0  0  0  0  0  0  0  0  0  0  0
   40.5590   31.2590   44.9890 C   0  0  0  0  0  0  0  0  0  0  0  0
   40.6560   31.2420   43.6030 C   0  0  0  0  0  0  0  0  0  0  0  0
   39.8520   32.2750   43.2020 C   0  0  0  0  0  0  0  0  0  0  0  0
   39.3030   32.8790   44.2540 O   0  0  0  0  0  0  0  0  0  0  0  0
   41.0610   30.5820   45.6700 H   0  0  0  0  0  0  0  0  0  0  0  0
   41.2360   30.5670   42.9650 H   0  0  0  0  0  0  0  0  0  0  0  0
   39.6640   32.5860   42.1650 H   0  0  0  0  0  0  0  0  0  0  0  0
   36.6940   30.4370   46.0520 N   0  0  0  0  0  0  0  0  0  0  0  0
   37.3510   31.2030   46.5890 C   0  0  0  0  0  0  0  0  0  0  0  0
  1  6  1  0  0  0  0
  2  1  2  0  0  0  0
  2  3  1  0  0  0  0
  3  4  2  0  0  0  0
  4  5  1  0  0  0  0
  5  8  1  0  0  0  0
  6  5  2  0  0  0  0
  7  3  1  0  0  0  0
  9 11  1  0  0  0  0
 10  9  2  0  0  0  0
 11  2  1  0  0  0  0
 12 11  1  0  0  0  0
 13  9  1  0  0  0  0
 14 13  1  0  0  0  0
 14 15  1  0  0  0  0
 16 14  1  0  0  0  0
 17 16  1  0  0  0  0
 18 16  1  0  0  0  0
 19 18  1  0  0  0  0
 19 21  1  0  0  0  0
 20 19  1  0  0  0  0
 21 13  1  0  0  0  0
 22 21  1  0  0  0  0
 23  1  1  0  0  0  0
 24 25  1  0  0  0  0
 25 23  1  0  0  0  0
 25 26  2  0  0  0  0
 26 30  1  0  0  0  0
 27 31  1  0  0  0  0
 27 26  1  0  0  0  0
 28 27  2  0  0  0  0
 29 24  2  0  0  0  0
 29 28  1  0  0  0  0
 32 28  1  0  0  0  0
 33 29  1  0  0  0  0
 34 33  2  0  0  0  0
 34 38  1  0  0  0  0
 35 34  1  0  0  0  0
 36 35  2  0  0  0  0
 36 37  1  0  0  0  0
 37 33  1  0  0  0  0
 39 35  1  0  0  0  0
 40 36  1  0  0  0  0
 41 42  3  0  0  0  0
 42 24  1  0  0  0  0
M  END
>  <minimizedAffinity>
-5.88482714

>  <minimizedRMSD>
1.06421256

$$$$
