
 OpenBabel03272508573D

 41 44  0  0  1  0  0  0  0  0999 V2000
   39.1390   31.4030   43.3390 C   0  0  0  0  0  0  0  0  0  0  0  0
   40.2430   30.6060   43.5320 C   0  0  0  0  0  0  0  0  0  0  0  0
   40.9800   30.2480   42.4100 C   0  0  0  0  0  0  0  0  0  0  0  0
   40.5550   30.7180   41.1810 C   0  0  0  0  0  0  0  0  0  0  0  0
   39.4370   31.5240   40.9920 C   0  0  0  0  0  0  0  0  0  0  0  0
   38.7540   31.8450   42.1090 N   0  0  0  0  0  0  0  0  0  0  0  0
   40.5630   30.2460   44.4990 H   0  0  0  0  0  0  0  0  0  0  0  0
   41.8460   29.6280   42.5170 H   0  0  0  0  0  0  0  0  0  0  0  0
   41.1080   30.4570   40.2870 H   0  0  0  0  0  0  0  0  0  0  0  0
   38.3370   31.8160   44.5090 C   0  0  0  0  0  0  0  0  0  0  0  0
   37.2350   32.3610   44.4000 O   0  0  0  0  0  0  0  0  0  0  0  0
   38.9150   31.5470   45.8200 N   0  0  0  0  0  0  0  0  0  0  0  0
   39.8950   31.2730   45.9870 H   0  0  0  0  0  0  0  0  0  0  0  0
   38.4100   31.0830   48.2110 C   0  0  2  0  0  0  0  0  0  0  0  0
   38.6500   32.5470   48.1040 C   0  0  0  0  0  0  0  0  0  0  0  0
   38.0420   31.6770   46.9690 C   0  0  1  0  0  0  0  0  0  0  0  0
   39.3450   30.4890   48.3130 H   0  0  0  0  0  0  0  0  0  0  0  0
   37.9800   33.2630   48.6060 H   0  0  0  0  0  0  0  0  0  0  0  0
   39.6650   32.9200   47.9640 H   0  0  0  0  0  0  0  0  0  0  0  0
   36.9730   31.9270   46.7670 H   0  0  0  0  0  0  0  0  0  0  0  0
   35.0510   30.2240   49.5380 C   0  0  0  0  0  0  0  0  0  0  0  0
   35.3810   29.5660   50.7680 C   0  0  0  0  0  0  0  0  0  0  0  0
   36.7660   29.4410   51.1140 C   0  0  0  0  0  0  0  0  0  0  0  0
   37.7260   29.9480   50.2720 N   0  0  0  0  0  0  0  0  0  0  0  0
   37.3320   30.5580   49.1250 C   0  0  0  0  0  0  0  0  0  0  0  0
   36.0100   30.7150   48.7260 N   0  0  0  0  0  0  0  0  0  0  0  0
   33.9930   30.2910   49.3240 H   0  0  0  0  0  0  0  0  0  0  0  0
   34.6200   29.1730   51.4210 H   0  0  0  0  0  0  0  0  0  0  0  0
   37.0260   28.9470   52.0390 H   0  0  0  0  0  0  0  0  0  0  0  0
   39.0490   31.9800   39.6630 C   0  0  0  0  0  0  0  0  0  0  0  0
   39.1400   33.2020   39.3990 O   0  0  0  0  0  0  0  0  0  0  0  0
   38.5510   31.1460   38.5710 C   0  0  0  0  0  3  0  0  0  0  0  0
   37.5980   30.1220   39.1960 C   0  0  0  0  0  3  0  0  0  0  0  0
   36.8690   30.7260   39.7680 H   0  0  0  0  0  0  0  0  0  0  0  0
   36.9690   29.2680   38.1360 C   0  0  0  0  0  3  0  0  0  0  0  0
   36.2360   29.8430   37.5380 H   0  0  0  0  0  0  0  0  0  0  0  0
   37.9650   28.6740   37.3870 O   0  0  0  0  0  0  0  0  0  0  0  0
   38.8010   29.5770   36.7550 C   0  0  0  0  0  3  0  0  0  0  0  0
   38.1100   30.3240   36.2670 H   0  0  0  0  0  0  0  0  0  0  0  0
   39.5770   30.3840   37.8050 C   0  0  0  0  0  3  0  0  0  0  0  0
   40.1650   29.6740   38.3960 H   0  0  0  0  0  0  0  0  0  0  0  0
  1  2  1  0  0  0  0
  1 10  1  0  0  0  0
  2  7  1  0  0  0  0
  3  8  1  0  0  0  0
  3  2  2  0  0  0  0
  4  3  1  0  0  0  0
  5  4  2  0  0  0  0
  5  6  1  0  0  0  0
  6  1  2  0  0  0  0
  9  4  1  0  0  0  0
 10 12  1  0  0  0  0
 11 10  2  0  0  0  0
 12 13  1  0  0  0  0
 12 16  1  0  0  0  0
 14 17  1  6  0  0  0
 14 25  1  0  0  0  0
 15 14  1  0  0  0  0
 15 18  1  0  0  0  0
 16 20  1  6  0  0  0
 16 15  1  0  0  0  0
 16 14  1  0  0  0  0
 19 15  1  0  0  0  0
 21 22  1  0  0  0  0
 22 23  2  0  0  0  0
 22 28  1  0  0  0  0
 23 29  1  0  0  0  0
 24 23  1  0  0  0  0
 25 24  2  0  0  0  0
 26 25  1  0  0  0  0
 26 21  2  0  0  0  0
 27 21  1  0  0  0  0
 30  5  1  0  0  0  0
 31 30  2  0  0  0  0
 32 33  1  0  0  0  0
 32 30  1  0  0  0  0
 33 34  1  0  0  0  0
 35 33  1  0  0  0  0
 36 35  1  0  0  0  0
 37 35  1  0  0  0  0
 38 37  1  0  0  0  0
 38 40  1  0  0  0  0
 39 38  1  0  0  0  0
 40 41  1  0  0  0  0
 40 32  1  0  0  0  0
M  END
>  <minimizedAffinity>
-4.80797672

>  <minimizedRMSD>
1.03615701

$$$$
