
 OpenBabel03272504413D

 46 48  0  0  0  0  0  0  0  0999 V2000
   34.7970   29.4060   48.8420 C   0  0  0  0  0  0  0  0  0  0  0  0
   34.1650   30.2210   49.2900 H   0  0  0  0  0  0  0  0  0  0  0  0
   35.7210   29.4280   49.4920 H   0  0  0  0  0  0  0  0  0  0  0  0
   37.5520   30.4630   48.5310 Cl  0  0  0  0  0  0  0  0  0  0  0  0
   36.4030   30.3000   47.1930 C   0  0  0  0  0  0  0  0  0  0  0  0
   36.7830   30.6700   45.9510 C   0  0  0  0  0  0  0  0  0  0  0  0
   35.8980   30.5490   44.9020 C   0  0  0  0  0  0  0  0  0  0  0  0
   34.6340   30.0440   45.1620 C   0  0  0  0  0  0  0  0  0  0  0  0
   34.3100   29.6800   46.4730 C   0  0  0  0  0  0  0  0  0  0  0  0
   35.1660   29.7930   47.5100 C   0  0  0  0  0  0  0  0  0  0  0  0
   36.2210   30.8540   43.9050 H   0  0  0  0  0  0  0  0  0  0  0  0
   34.0070   29.9820   44.2920 H   0  0  0  0  0  0  0  0  0  0  0  0
   33.3320   29.3220   46.4940 H   0  0  0  0  0  0  0  0  0  0  0  0
   39.7670   32.8330   45.9860 C   0  0  0  0  0  0  0  0  0  0  0  0
   40.6350   32.1130   45.1150 C   0  0  0  0  0  0  0  0  0  0  0  0
   40.1620   30.9100   44.5450 C   0  0  0  0  0  0  0  0  0  0  0  0
   38.9090   30.4930   44.8540 N   0  0  0  0  0  0  0  0  0  0  0  0
   38.1100   31.2030   45.6880 C   0  0  0  0  0  0  0  0  0  0  0  0
   38.5420   32.3520   46.2390 N   0  0  0  0  0  0  0  0  0  0  0  0
   40.1330   33.7550   46.4220 H   0  0  0  0  0  0  0  0  0  0  0  0
   41.6090   32.5550   44.9530 H   0  0  0  0  0  0  0  0  0  0  0  0
   41.0350   30.2260   43.6950 N   0  0  0  0  0  0  0  0  0  0  0  0
   41.5980   30.6580   42.9570 H   0  0  0  0  0  0  0  0  0  0  0  0
   41.1370   29.1890   43.8000 H   0  0  0  0  0  0  0  0  0  0  0  0
   34.1210   28.1150   49.0600 C   0  0  0  0  0  0  0  0  0  0  0  0
   34.5450   27.5490   49.9230 H   0  0  0  0  0  0  0  0  0  0  0  0
   34.2890   27.4620   48.1690 H   0  0  0  0  0  0  0  0  0  0  0  0
   32.7880   28.2900   49.3250 O   0  0  0  0  0  0  0  0  0  0  0  0
   32.6790   26.5120   47.3920 O   0  0  0  0  0  0  0  0  0  0  0  0
   31.8440   27.4050   48.2560 P   0  0  2  0  0  0  0  0  0  0  0  0
   31.0070   28.5510   47.2750 O   0  0  0  0  0  0  0  0  0  0  0  0
   30.8690   28.0120   45.9980 C   0  0  0  0  0  3  0  0  0  0  0  0
   29.6070   27.2260   45.7700 C   0  0  0  0  0  3  0  0  0  0  0  0
   29.6990   26.7630   44.7540 H   0  0  0  0  0  0  0  0  0  0  0  0
   28.3870   28.1000   45.7270 C   0  0  0  0  0  3  0  0  0  0  0  0
   27.6100   27.5050   45.1500 H   0  0  0  0  0  0  0  0  0  0  0  0
   28.6110   29.2740   45.0080 O   0  0  0  0  0  0  0  0  0  0  0  0
   29.6860   29.1530   44.1490 C   0  0  0  0  0  3  0  0  0  0  0  0
   29.5070   28.2900   43.4840 H   0  0  0  0  0  0  0  0  0  0  0  0
   30.9620   29.0550   44.9370 C   0  0  0  0  0  3  0  0  0  0  0  0
   31.8510   28.9090   44.2810 H   0  0  0  0  0  0  0  0  0  0  0  0
   30.6740   26.5170   49.0280 O   0  0  0  0  0  0  0  0  0  0  0  0
   29.8340   27.3170   49.7710 C   0  0  0  0  0  0  0  0  0  0  0  0
   29.2980   26.6500   50.8740 F   0  0  0  0  0  0  0  0  0  0  0  0
   30.5060   28.4210   50.2770 F   0  0  0  0  0  0  0  0  0  0  0  0
   28.7900   27.7700   49.0050 F   0  0  0  0  0  0  0  0  0  0  0  0
  1 25  1  0  0  0  0
  1  2  1  0  0  0  0
  1  3  1  0  0  0  0
  5 10  1  0  0  0  0
  5  4  1  0  0  0  0
  6  5  2  0  0  0  0
  7  8  2  0  0  0  0
  7  6  1  0  0  0  0
  8  9  1  0  0  0  0
  9 13  1  0  0  0  0
  9 10  2  0  0  0  0
 10  1  1  0  0  0  0
 11  7  1  0  0  0  0
 12  8  1  0  0  0  0
 14 19  1  0  0  0  0
 14 20  1  0  0  0  0
 15 14  2  0  0  0  0
 16 17  2  0  0  0  0
 16 15  1  0  0  0  0
 17 18  1  0  0  0  0
 18  6  1  0  0  0  0
 18 19  2  0  0  0  0
 21 15  1  0  0  0  0
 22 24  1  0  0  0  0
 22 16  1  0  0  0  0
 23 22  1  0  0  0  0
 25 28  1  0  0  0  0
 25 26  1  0  0  0  0
 27 25  1  0  0  0  0
 30 29  2  6  0  0  0
 30 42  1  0  0  0  0
 30 28  1  0  0  0  0
 31 30  1  0  0  0  0
 32 31  1  0  0  0  0
 33 32  1  0  0  0  0
 34 33  1  0  0  0  0
 35 33  1  0  0  0  0
 36 35  1  0  0  0  0
 37 35  1  0  0  0  0
 38 40  1  0  0  0  0
 38 37  1  0  0  0  0
 39 38  1  0  0  0  0
 40 32  1  0  0  0  0
 41 40  1  0  0  0  0
 42 43  1  0  0  0  0
 43 45  1  0  0  0  0
 43 44  1  0  0  0  0
 46 43  1  0  0  0  0
M  END
>  <minimizedAffinity>
-5.75105286

>  <minimizedRMSD>
0.836163878

$$$$
