
 OpenBabel03272502303D

 25 26  0  0  0  0  0  0  0  0999 V2000
   39.1160   32.0750   47.4130 C   0  0  0  0  0  0  0  0  0  0  0  0
   40.0800   32.0680   47.9650 H   0  0  0  0  0  0  0  0  0  0  0  0
   38.8980   33.1060   47.0670 H   0  0  0  0  0  0  0  0  0  0  0  0
   37.5890   30.3450   48.2180 C   0  0  0  0  0  3  0  0  0  0  0  0
   38.0220   31.5720   48.3120 C   0  0  0  0  0  3  0  0  0  0  0  0
   35.6610   29.3380   51.2430 C   0  0  0  0  0  0  0  0  0  0  0  0
   36.7050   29.8480   50.4460 C   0  0  0  0  0  0  0  0  0  0  0  0
   36.5500   29.8360   49.0620 C   0  0  0  0  0  0  0  0  0  0  0  0
   35.4060   29.3370   48.5240 N   0  0  0  0  0  0  0  0  0  0  0  0
   34.4380   28.8600   49.3150 C   0  0  0  0  0  0  0  0  0  0  0  0
   34.5440   28.8520   50.6590 N   0  0  0  0  0  0  0  0  0  0  0  0
   35.7250   29.3210   52.3270 H   0  0  0  0  0  0  0  0  0  0  0  0
   37.5980   30.2360   50.9450 H   0  0  0  0  0  0  0  0  0  0  0  0
   33.5610   28.4820   48.7920 H   0  0  0  0  0  0  0  0  0  0  0  0
   39.2120   31.0300   45.9280 S   0  0  0  0  0  0  0  0  0  0  0  0
   40.7350   31.4140   45.0390 C   0  0  0  0  0  3  0  0  0  0  0  0
   40.6520   30.7470   43.6930 C   0  0  0  0  0  3  0  0  0  0  0  0
   40.3650   29.6780   43.8790 H   0  0  0  0  0  0  0  0  0  0  0  0
   39.5660   31.3360   42.8240 C   0  0  0  0  0  3  0  0  0  0  0  0
   38.5630   30.9160   43.0550 H   0  0  0  0  0  0  0  0  0  0  0  0
   39.5560   32.7280   42.8400 O   0  0  0  0  0  0  0  0  0  0  0  0
   39.4270   33.2400   44.1340 C   0  0  0  0  0  3  0  0  0  0  0  0
   38.5800   32.7830   44.6750 H   0  0  0  0  0  0  0  0  0  0  0  0
   40.7650   32.9160   44.8100 C   0  0  0  0  0  3  0  0  0  0  0  0
   40.8820   33.4820   45.7530 H   0  0  0  0  0  0  0  0  0  0  0  0
  1  2  1  0  0  0  0
  1  5  1  0  0  0  0
  3  1  1  0  0  0  0
  4  5  2  0  0  0  0
  4  8  1  0  0  0  0
  6 12  1  0  0  0  0
  7 13  1  0  0  0  0
  7  6  2  0  0  0  0
  8  7  1  0  0  0  0
  9  8  2  0  0  0  0
  9 10  1  0  0  0  0
 10 11  2  0  0  0  0
 11  6  1  0  0  0  0
 14 10  1  0  0  0  0
 15  1  1  0  0  0  0
 16 15  1  0  0  0  0
 17 18  1  0  0  0  0
 17 16  1  0  0  0  0
 19 21  1  0  0  0  0
 19 20  1  0  0  0  0
 19 17  1  0  0  0  0
 21 22  1  0  0  0  0
 22 23  1  0  0  0  0
 22 24  1  0  0  0  0
 24 16  1  0  0  0  0
 24 25  1  0  0  0  0
M  END
>  <minimizedAffinity>
-4.65272999

>  <minimizedRMSD>
2.17170572

$$$$
