
 OpenBabel03272507273D

 40 42  0  0  1  0  0  0  0  0999 V2000
   36.7740   29.9490   49.3290 C   0  0  0  0  0  0  0  0  0  0  0  0
   37.7670   30.6290   48.6040 C   0  0  0  0  0  0  0  0  0  0  0  0
   37.5190   30.9060   47.2520 C   0  0  0  0  0  0  0  0  0  0  0  0
   36.3540   30.5080   46.7360 N   0  0  0  0  0  0  0  0  0  0  0  0
   35.4190   29.8580   47.4540 C   0  0  0  0  0  0  0  0  0  0  0  0
   35.6380   29.5860   48.7380 N   0  0  0  0  0  0  0  0  0  0  0  0
   38.4810   31.5820   46.4800 N   0  0  0  0  0  0  0  0  0  0  0  0
   39.4590   32.5500   46.9920 C   0  0  0  0  0  0  0  0  0  0  0  0
   40.1080   33.1770   45.7970 C   0  0  0  0  0  0  0  0  0  0  0  0
   39.1610   32.8710   44.7050 C   0  0  0  0  0  0  0  0  0  0  0  0
   38.7180   31.4820   45.0700 C   0  0  2  0  0  0  0  0  0  0  0  0
   36.9610   29.7370   50.3560 H   0  0  0  0  0  0  0  0  0  0  0  0
   38.6930   30.9250   49.0830 H   0  0  0  0  0  0  0  0  0  0  0  0
   34.5170   29.5990   46.8900 H   0  0  0  0  0  0  0  0  0  0  0  0
   40.2010   32.0730   47.6570 H   0  0  0  0  0  0  0  0  0  0  0  0
   38.8720   33.2970   47.5460 H   0  0  0  0  0  0  0  0  0  0  0  0
   40.0900   34.2980   45.9390 H   0  0  0  0  0  0  0  0  0  0  0  0
   41.1540   32.8460   45.6470 H   0  0  0  0  0  0  0  0  0  0  0  0
   38.3320   33.5910   44.6940 H   0  0  0  0  0  0  0  0  0  0  0  0
   39.6270   32.8980   43.6870 H   0  0  0  0  0  0  0  0  0  0  0  0
   37.6050   30.9740   44.2170 C   0  0  0  0  0  0  0  0  0  0  0  0
   36.4510   31.6110   44.6490 F   0  0  0  0  0  0  0  0  0  0  0  0
   37.3770   29.6340   44.2640 F   0  0  0  0  0  0  0  0  0  0  0  0
   37.8520   31.4600   42.9410 F   0  0  0  0  0  0  0  0  0  0  0  0
   39.8720   30.5600   44.9210 C   0  0  0  0  0  0  0  0  0  0  0  0
   39.5180   29.5800   45.3010 H   0  0  0  0  0  0  0  0  0  0  0  0
   40.6410   30.8700   45.6930 H   0  0  0  0  0  0  0  0  0  0  0  0
   40.3750   30.7730   43.8130 O   0  0  0  0  0  0  0  0  0  0  0  0
   40.6980   30.0810   42.6940 C   0  0  0  0  0  0  0  0  0  0  0  0
   40.6820   30.8790   41.7190 O   0  0  0  0  0  0  0  0  0  0  0  0
   41.0720   28.8410   42.0070 C   0  0  0  0  0  0  0  0  0  0  0  0
   39.8020   27.9830   41.8710 C   0  0  0  0  0  0  0  0  0  0  0  0
   39.5850   27.4270   42.7900 H   0  0  0  0  0  0  0  0  0  0  0  0
   40.1670   26.9680   40.8050 C   0  0  0  0  0  0  0  0  0  0  0  0
   39.5070   26.0790   40.8390 H   0  0  0  0  0  0  0  0  0  0  0  0
   40.0530   27.6800   39.6260 O   0  0  0  0  0  0  0  0  0  0  0  0
   41.0910   28.5530   39.4800 C   0  0  0  0  0  0  0  0  0  0  0  0
   40.7170   29.3420   38.7630 H   0  0  0  0  0  0  0  0  0  0  0  0
   41.6830   29.1590   40.6860 C   0  0  0  0  0  0  0  0  0  0  0  0
   42.7590   28.8630   40.7300 H   0  0  0  0  0  0  0  0  0  0  0  0
  1 12  1  0  0  0  0
  2 13  1  0  0  0  0
  2  1  2  0  0  0  0
  3  2  1  0  0  0  0
  4  3  2  0  0  0  0
  4  5  1  0  0  0  0
  5  6  2  0  0  0  0
  6  1  1  0  0  0  0
  7  8  1  0  0  0  0
  7  3  1  0  0  0  0
  8 16  1  0  0  0  0
  8 15  1  0  0  0  0
  9 17  1  0  0  0  0
  9  8  1  0  0  0  0
 10 11  1  0  0  0  0
 10  9  1  0  0  0  0
 11 21  1  6  0  0  0
 11  7  1  0  0  0  0
 14  5  1  0  0  0  0
 18  9  1  0  0  0  0
 19 10  1  0  0  0  0
 20 10  1  0  0  0  0
 21 23  1  0  0  0  0
 21 22  1  0  0  0  0
 24 21  1  0  0  0  0
 25 11  1  0  0  0  0
 25 26  1  0  0  0  0
 25 27  1  0  0  0  0
 28 25  1  0  0  0  0
 29 28  1  0  0  0  0
 30 29  2  0  0  0  0
 31 29  1  0  0  0  0
 32 31  1  0  0  0  0
 32 33  1  0  0  0  0
 34 35  1  0  0  0  0
 34 32  1  0  0  0  0
 36 34  1  0  0  0  0
 37 36  1  0  0  0  0
 37 39  1  0  0  0  0
 38 37  1  0  0  0  0
 39 40  1  0  0  0  0
 39 31  1  0  0  0  0
M  END
>  <minimizedAffinity>
-5.23699999

>  <minimizedRMSD>
0.851423204

$$$$
