
 OpenBabel03272508583D

 41 44  0  0  1  0  0  0  0  0999 V2000
   39.1330   31.4190   43.2900 C   0  0  0  0  0  0  0  0  0  0  0  0
   40.2510   30.6250   43.3910 C   0  0  0  0  0  0  0  0  0  0  0  0
   40.9120   30.2950   42.2150 C   0  0  0  0  0  0  0  0  0  0  0  0
   40.4010   30.7860   41.0270 C   0  0  0  0  0  0  0  0  0  0  0  0
   39.2680   31.5880   40.9320 C   0  0  0  0  0  0  0  0  0  0  0  0
   38.6620   31.8810   42.0990 N   0  0  0  0  0  0  0  0  0  0  0  0
   40.6400   30.2490   44.3270 H   0  0  0  0  0  0  0  0  0  0  0  0
   41.7870   29.6790   42.2500 H   0  0  0  0  0  0  0  0  0  0  0  0
   40.8930   30.5460   40.0930 H   0  0  0  0  0  0  0  0  0  0  0  0
   38.4110   31.8030   44.5210 C   0  0  0  0  0  0  0  0  0  0  0  0
   37.3420   32.4190   44.4980 O   0  0  0  0  0  0  0  0  0  0  0  0
   39.0270   31.4150   45.7840 N   0  0  0  0  0  0  0  0  0  0  0  0
   39.9940   31.0720   45.8870 H   0  0  0  0  0  0  0  0  0  0  0  0
   38.7390   31.0950   48.2330 C   0  0  2  0  0  0  0  0  0  0  0  0
   38.7610   32.5630   47.9970 C   0  0  0  0  0  0  0  0  0  0  0  0
   38.2150   31.5240   46.9790 C   0  0  1  0  0  0  0  0  0  0  0  0
   39.7520   30.6460   48.3130 H   0  0  0  0  0  0  0  0  0  0  0  0
   38.0270   33.2220   48.4890 H   0  0  0  0  0  0  0  0  0  0  0  0
   39.7020   33.0580   47.7550 H   0  0  0  0  0  0  0  0  0  0  0  0
   37.1120   31.6060   46.8360 H   0  0  0  0  0  0  0  0  0  0  0  0
   35.9060   29.2170   49.7270 C   0  0  0  0  0  0  0  0  0  0  0  0
   36.1320   29.4100   51.1300 C   0  0  0  0  0  0  0  0  0  0  0  0
   37.2620   30.1980   51.5260 C   0  0  0  0  0  0  0  0  0  0  0  0
   38.0860   30.7370   50.5680 N   0  0  0  0  0  0  0  0  0  0  0  0
   37.8030   30.5080   49.2610 C   0  0  0  0  0  0  0  0  0  0  0  0
   36.7270   29.7570   48.8030 N   0  0  0  0  0  0  0  0  0  0  0  0
   35.0410   28.6160   49.4820 H   0  0  0  0  0  0  0  0  0  0  0  0
   35.4800   28.9830   51.8720 H   0  0  0  0  0  0  0  0  0  0  0  0
   37.4420   30.3510   52.5800 H   0  0  0  0  0  0  0  0  0  0  0  0
   38.7870   32.0660   39.6420 C   0  0  0  0  0  0  0  0  0  0  0  0
   39.4400   32.9610   39.0550 O   0  0  0  0  0  0  0  0  0  0  0  0
   37.5940   31.6060   38.9350 C   0  0  0  0  0  3  0  0  0  0  0  0
   36.4640   32.5760   39.3000 C   0  0  0  0  0  3  0  0  0  0  0  0
   36.8640   33.5790   39.0550 H   0  0  0  0  0  0  0  0  0  0  0  0
   35.2100   32.2330   38.5530 C   0  0  0  0  0  3  0  0  0  0  0  0
   35.3030   32.4720   37.4750 H   0  0  0  0  0  0  0  0  0  0  0  0
   34.8790   30.9160   38.8100 O   0  0  0  0  0  0  0  0  0  0  0  0
   35.8550   30.0120   38.4290 C   0  0  0  0  0  3  0  0  0  0  0  0
   36.1450   30.3170   37.3810 H   0  0  0  0  0  0  0  0  0  0  0  0
   37.1200   30.2330   39.2690 C   0  0  0  0  0  3  0  0  0  0  0  0
   36.8490   30.0780   40.3170 H   0  0  0  0  0  0  0  0  0  0  0  0
  1  2  1  0  0  0  0
  1 10  1  0  0  0  0
  2  7  1  0  0  0  0
  3  8  1  0  0  0  0
  3  2  2  0  0  0  0
  4  3  1  0  0  0  0
  5  4  2  0  0  0  0
  5  6  1  0  0  0  0
  6  1  2  0  0  0  0
  9  4  1  0  0  0  0
 10 12  1  0  0  0  0
 11 10  2  0  0  0  0
 12 13  1  0  0  0  0
 12 16  1  0  0  0  0
 14 17  1  6  0  0  0
 14 25  1  0  0  0  0
 15 14  1  0  0  0  0
 15 18  1  0  0  0  0
 16 20  1  6  0  0  0
 16 15  1  0  0  0  0
 16 14  1  0  0  0  0
 19 15  1  0  0  0  0
 21 22  1  0  0  0  0
 22 23  2  0  0  0  0
 22 28  1  0  0  0  0
 23 29  1  0  0  0  0
 24 23  1  0  0  0  0
 25 24  2  0  0  0  0
 26 25  1  0  0  0  0
 26 21  2  0  0  0  0
 27 21  1  0  0  0  0
 30  5  1  0  0  0  0
 31 30  2  0  0  0  0
 32 40  1  0  0  0  0
 32 33  1  0  0  0  0
 32 30  1  0  0  0  0
 34 33  1  0  0  0  0
 35 37  1  0  0  0  0
 35 33  1  0  0  0  0
 36 35  1  0  0  0  0
 38 37  1  0  0  0  0
 38 40  1  0  0  0  0
 39 38  1  0  0  0  0
 40 41  1  0  0  0  0
M  END
>  <minimizedAffinity>
-4.89046144

>  <minimizedRMSD>
1.72750199

$$$$
