
 OpenBabel03272507273D

 40 42  0  0  1  0  0  0  0  0999 V2000
   36.7670   29.9420   49.3290 C   0  0  0  0  0  0  0  0  0  0  0  0
   37.7600   30.6210   48.6030 C   0  0  0  0  0  0  0  0  0  0  0  0
   37.5110   30.9010   47.2520 C   0  0  0  0  0  0  0  0  0  0  0  0
   36.3440   30.5050   46.7370 N   0  0  0  0  0  0  0  0  0  0  0  0
   35.4100   29.8560   47.4550 C   0  0  0  0  0  0  0  0  0  0  0  0
   35.6290   29.5820   48.7380 N   0  0  0  0  0  0  0  0  0  0  0  0
   38.4720   31.5770   46.4810 N   0  0  0  0  0  0  0  0  0  0  0  0
   39.4520   32.5420   46.9920 C   0  0  0  0  0  0  0  0  0  0  0  0
   40.1010   33.1710   45.7970 C   0  0  0  0  0  0  0  0  0  0  0  0
   39.1520   32.8670   44.7060 C   0  0  0  0  0  0  0  0  0  0  0  0
   38.7080   31.4780   45.0700 C   0  0  2  0  0  0  0  0  0  0  0  0
   36.9540   29.7280   50.3560 H   0  0  0  0  0  0  0  0  0  0  0  0
   38.6860   30.9160   49.0820 H   0  0  0  0  0  0  0  0  0  0  0  0
   34.5070   29.5980   46.8910 H   0  0  0  0  0  0  0  0  0  0  0  0
   40.1940   32.0640   47.6560 H   0  0  0  0  0  0  0  0  0  0  0  0
   38.8660   33.2900   47.5480 H   0  0  0  0  0  0  0  0  0  0  0  0
   40.0840   34.2920   45.9410 H   0  0  0  0  0  0  0  0  0  0  0  0
   41.1460   32.8380   45.6460 H   0  0  0  0  0  0  0  0  0  0  0  0
   38.3240   33.5890   44.6970 H   0  0  0  0  0  0  0  0  0  0  0  0
   39.6170   32.8950   43.6880 H   0  0  0  0  0  0  0  0  0  0  0  0
   37.5940   30.9730   44.2180 C   0  0  0  0  0  0  0  0  0  0  0  0
   36.4430   31.6190   44.6440 F   0  0  0  0  0  0  0  0  0  0  0  0
   37.3570   29.6350   44.2710 F   0  0  0  0  0  0  0  0  0  0  0  0
   37.8450   31.4510   42.9390 F   0  0  0  0  0  0  0  0  0  0  0  0
   39.8600   30.5560   44.9190 C   0  0  0  0  0  0  0  0  0  0  0  0
   39.5060   29.5760   45.2970 H   0  0  0  0  0  0  0  0  0  0  0  0
   40.6310   30.8630   45.6900 H   0  0  0  0  0  0  0  0  0  0  0  0
   40.3630   30.7690   43.8100 O   0  0  0  0  0  0  0  0  0  0  0  0
   40.6920   30.0770   42.6930 C   0  0  0  0  0  0  0  0  0  0  0  0
   40.6860   30.8750   41.7180 O   0  0  0  0  0  0  0  0  0  0  0  0
   41.0660   28.8360   42.0080 C   0  0  0  0  0  3  0  0  0  0  0  0
   39.7970   27.9780   41.8700 C   0  0  0  0  0  3  0  0  0  0  0  0
   39.5780   27.4230   42.7890 H   0  0  0  0  0  0  0  0  0  0  0  0
   40.1650   26.9620   40.8070 C   0  0  0  0  0  3  0  0  0  0  0  0
   39.5040   26.0730   40.8390 H   0  0  0  0  0  0  0  0  0  0  0  0
   40.0540   27.6730   39.6270 O   0  0  0  0  0  0  0  0  0  0  0  0
   41.0910   28.5450   39.4820 C   0  0  0  0  0  3  0  0  0  0  0  0
   40.7190   29.3340   38.7630 H   0  0  0  0  0  0  0  0  0  0  0  0
   41.6800   29.1530   40.6880 C   0  0  0  0  0  3  0  0  0  0  0  0
   42.7570   28.8560   40.7340 H   0  0  0  0  0  0  0  0  0  0  0  0
  1 12  1  0  0  0  0
  2 13  1  0  0  0  0
  2  1  2  0  0  0  0
  3  2  1  0  0  0  0
  4  3  2  0  0  0  0
  4  5  1  0  0  0  0
  5  6  2  0  0  0  0
  6  1  1  0  0  0  0
  7  8  1  0  0  0  0
  7  3  1  0  0  0  0
  8 16  1  0  0  0  0
  8 15  1  0  0  0  0
  9 17  1  0  0  0  0
  9  8  1  0  0  0  0
 10 11  1  0  0  0  0
 10  9  1  0  0  0  0
 11 21  1  6  0  0  0
 11  7  1  0  0  0  0
 14  5  1  0  0  0  0
 18  9  1  0  0  0  0
 19 10  1  0  0  0  0
 20 10  1  0  0  0  0
 21 23  1  0  0  0  0
 21 22  1  0  0  0  0
 24 21  1  0  0  0  0
 25 11  1  0  0  0  0
 25 26  1  0  0  0  0
 25 27  1  0  0  0  0
 28 25  1  0  0  0  0
 29 28  1  0  0  0  0
 30 29  2  0  0  0  0
 31 29  1  0  0  0  0
 32 31  1  0  0  0  0
 32 33  1  0  0  0  0
 34 35  1  0  0  0  0
 34 32  1  0  0  0  0
 36 34  1  0  0  0  0
 37 36  1  0  0  0  0
 37 39  1  0  0  0  0
 38 37  1  0  0  0  0
 39 40  1  0  0  0  0
 39 31  1  0  0  0  0
M  END
>  <minimizedAffinity>
-5.23480797

>  <minimizedRMSD>
0.527483225

$$$$
