
 OpenBabel03262523413D

 39 41  0  0  1  0  0  0  0  0999 V2000
   37.1760   29.3040   50.5700 C   0  0  0  0  0  0  0  0  0  0  0  0
   36.6300   29.1190   49.3090 C   0  0  0  0  0  0  0  0  0  0  0  0
   35.2710   29.0820   49.0750 C   0  0  0  0  0  0  0  0  0  0  0  0
   34.5170   29.2380   50.1850 N   0  0  0  0  0  0  0  0  0  0  0  0
   34.9930   29.4190   51.4270 C   0  0  0  0  0  0  0  0  0  0  0  0
   36.3320   29.4500   51.6110 N   0  0  0  0  0  0  0  0  0  0  0  0
   34.7370   28.8990   47.7960 N   0  0  0  0  0  0  0  0  0  0  0  0
   34.1420   27.6280   47.5190 C   0  0  0  0  0  0  0  0  0  0  0  0
   33.5500   27.4850   46.1510 C   0  0  0  0  0  0  0  0  0  0  0  0
   33.4000   28.6240   45.3950 N   0  0  0  0  0  0  0  0  0  0  0  0
   34.3830   29.6430   45.4700 C   0  0  0  0  0  0  0  0  0  0  0  0
   34.8140   29.9910   46.8550 C   0  0  2  0  0  0  0  0  0  0  0  0
   38.2350   29.3380   50.7860 H   0  0  0  0  0  0  0  0  0  0  0  0
   37.3960   29.0060   48.5630 H   0  0  0  0  0  0  0  0  0  0  0  0
   34.2670   29.5330   52.2380 H   0  0  0  0  0  0  0  0  0  0  0  0
   34.8610   26.8190   47.7700 H   0  0  0  0  0  0  0  0  0  0  0  0
   33.3090   27.5190   48.2740 H   0  0  0  0  0  0  0  0  0  0  0  0
   32.5870   26.9310   46.2040 H   0  0  0  0  0  0  0  0  0  0  0  0
   34.2360   26.7710   45.6030 H   0  0  0  0  0  0  0  0  0  0  0  0
   32.4240   28.9940   45.2460 H   0  0  0  0  0  0  0  0  0  0  0  0
   33.9690   30.5240   44.9290 H   0  0  0  0  0  0  0  0  0  0  0  0
   35.2640   29.2690   44.9080 H   0  0  0  0  0  0  0  0  0  0  0  0
   34.1270   30.7910   47.2670 H   0  0  0  0  0  0  0  0  0  0  0  0
   36.1650   30.6220   46.7440 C   0  0  0  0  0  0  0  0  0  0  0  0
   36.9240   30.0980   47.3840 H   0  0  0  0  0  0  0  0  0  0  0  0
   36.1170   31.6880   46.9320 H   0  0  0  0  0  0  0  0  0  0  0  0
   36.5840   30.4200   45.2750 C   0  0  0  0  0  0  0  0  0  0  0  0
   36.5990   29.3790   44.9660 H   0  0  0  0  0  0  0  0  0  0  0  0
   35.9330   31.0760   44.6770 H   0  0  0  0  0  0  0  0  0  0  0  0
   38.0110   30.9810   45.1250 C   0  0  0  0  0  0  0  0  0  0  0  0
   38.7780   30.9280   46.4140 C   0  0  0  0  0  0  0  0  0  0  0  0
   38.0690   30.7220   47.2420 H   0  0  0  0  0  0  0  0  0  0  0  0
   39.4230   32.2550   46.7450 C   0  0  0  0  0  0  0  0  0  0  0  0
   38.6720   32.9400   47.2060 H   0  0  0  0  0  0  0  0  0  0  0  0
   40.0640   32.8460   45.6850 O   0  0  0  0  0  0  0  0  0  0  0  0
   39.3180   32.9680   44.5360 C   0  0  0  0  0  0  0  0  0  0  0  0
   39.2710   33.9740   44.1010 H   0  0  0  0  0  0  0  0  0  0  0  0
   37.9200   32.4090   44.6790 C   0  0  0  0  0  0  0  0  0  0  0  0
   37.4740   32.4250   43.6500 H   0  0  0  0  0  0  0  0  0  0  0  0
  1 13  1  0  0  0  0
  1  6  1  0  0  0  0
  2  1  2  0  0  0  0
  3  2  1  0  0  0  0
  3  4  2  0  0  0  0
  4  5  1  0  0  0  0
  5  6  2  0  0  0  0
  5 15  1  0  0  0  0
  7  3  1  0  0  0  0
  8 16  1  0  0  0  0
  8  7  1  0  0  0  0
  8 17  1  0  0  0  0
  9 18  1  0  0  0  0
  9  8  1  0  0  0  0
 10 11  1  0  0  0  0
 10  9  1  0  0  0  0
 11 12  1  0  0  0  0
 12 23  1  1  0  0  0
 12  7  1  0  0  0  0
 14  2  1  0  0  0  0
 19  9  1  0  0  0  0
 20 10  1  0  0  0  0
 21 11  1  0  0  0  0
 22 11  1  0  0  0  0
 24 12  1  0  0  0  0
 24 26  1  0  0  0  0
 24 25  1  0  0  0  0
 27 24  1  0  0  0  0
 28 27  1  0  0  0  0
 29 27  1  0  0  0  0
 30 27  1  0  0  0  0
 30 31  1  0  0  0  0
 31 33  1  0  0  0  0
 31 32  1  0  0  0  0
 33 34  1  0  0  0  0
 35 33  1  0  0  0  0
 36 38  1  0  0  0  0
 36 35  1  0  0  0  0
 37 36  1  0  0  0  0
 38 30  1  0  0  0  0
 39 38  1  0  0  0  0
M  END
>  <minimizedAffinity>
-4.81278896

>  <minimizedRMSD>
5.57571793

$$$$
