
 OpenBabel03272503053D

 33 35  0  0  0  0  0  0  0  0999 V2000
   38.0560   30.0740   47.3250 F   0  0  0  0  0  0  0  0  0  0  0  0
   38.4630   31.3020   47.7020 C   0  0  0  0  0  0  0  0  0  0  0  0
   38.0910   31.7980   48.9310 C   0  0  0  0  0  0  0  0  0  0  0  0
   38.5350   33.0550   49.2620 C   0  0  0  0  0  0  0  0  0  0  0  0
   39.3210   33.8090   48.4170 C   0  0  0  0  0  0  0  0  0  0  0  0
   39.6820   33.2980   47.1970 C   0  0  0  0  0  0  0  0  0  0  0  0
   39.2490   32.0340   46.8350 C   0  0  0  0  0  0  0  0  0  0  0  0
   38.2340   33.4290   50.2330 H   0  0  0  0  0  0  0  0  0  0  0  0
   39.6510   34.7980   48.7180 H   0  0  0  0  0  0  0  0  0  0  0  0
   40.3010   33.8760   46.5150 H   0  0  0  0  0  0  0  0  0  0  0  0
   36.8940   29.5910   51.7680 C   0  0  0  0  0  0  0  0  0  0  0  0
   37.7210   30.3970   50.9730 C   0  0  0  0  0  0  0  0  0  0  0  0
   37.2590   30.9550   49.7820 C   0  0  0  0  0  0  0  0  0  0  0  0
   35.9630   30.6740   49.4360 N   0  0  0  0  0  0  0  0  0  0  0  0
   35.1820   29.8930   50.2170 C   0  0  0  0  0  0  0  0  0  0  0  0
   35.6400   29.3670   51.3540 N   0  0  0  0  0  0  0  0  0  0  0  0
   37.3850   29.2260   52.6620 H   0  0  0  0  0  0  0  0  0  0  0  0
   38.7570   30.6460   51.2100 H   0  0  0  0  0  0  0  0  0  0  0  0
   34.1620   29.7070   49.8890 H   0  0  0  0  0  0  0  0  0  0  0  0
   38.6250   31.6520   44.5390 C   0  0  0  0  0  0  0  0  0  0  0  0
   37.5870   32.2890   44.9140 O   0  0  0  0  0  0  0  0  0  0  0  0
   39.5990   31.4530   45.5670 N   0  0  0  0  0  0  0  0  0  0  0  0
   40.4840   30.9300   45.4030 H   0  0  0  0  0  0  0  0  0  0  0  0
   38.9590   31.0950   43.2030 C   0  0  0  0  0  3  0  0  0  0  0  0
   39.9050   31.9660   42.4300 C   0  0  0  0  0  3  0  0  0  0  0  0
   40.7590   32.2600   43.0420 H   0  0  0  0  0  0  0  0  0  0  0  0
   40.2960   31.1440   41.1980 C   0  0  0  0  0  3  0  0  0  0  0  0
   40.4600   30.0890   41.5600 H   0  0  0  0  0  0  0  0  0  0  0  0
   39.1520   31.0670   40.4070 O   0  0  0  0  0  0  0  0  0  0  0  0
   38.1910   30.3020   41.0310 C   0  0  0  0  0  3  0  0  0  0  0  0
   38.6120   29.2920   41.3010 H   0  0  0  0  0  0  0  0  0  0  0  0
   37.7190   30.9510   42.3180 C   0  0  0  0  0  3  0  0  0  0  0  0
   37.3170   31.9670   42.0400 H   0  0  0  0  0  0  0  0  0  0  0  0
  1  2  1  0  0  0  0
  2  3  1  0  0  0  0
  3  4  2  0  0  0  0
  3 13  1  0  0  0  0
  4  8  1  0  0  0  0
  5  9  1  0  0  0  0
  5  4  1  0  0  0  0
  6  5  2  0  0  0  0
  7  6  1  0  0  0  0
  7  2  2  0  0  0  0
 10  6  1  0  0  0  0
 11 17  1  0  0  0  0
 12 18  1  0  0  0  0
 12 11  2  0  0  0  0
 13 12  1  0  0  0  0
 14 13  2  0  0  0  0
 14 15  1  0  0  0  0
 15 16  2  0  0  0  0
 16 11  1  0  0  0  0
 19 15  1  0  0  0  0
 20 21  2  0  0  0  0
 20 22  1  0  0  0  0
 22  7  1  0  0  0  0
 23 22  1  0  0  0  0
 24 20  1  0  0  0  0
 25 26  1  0  0  0  0
 25 24  1  0  0  0  0
 27 28  1  0  0  0  0
 27 25  1  0  0  0  0
 29 30  1  0  0  0  0
 29 27  1  0  0  0  0
 30 31  1  0  0  0  0
 30 32  1  0  0  0  0
 32 24  1  0  0  0  0
 33 32  1  0  0  0  0
M  END
>  <minimizedAffinity>
-6.14195681

>  <minimizedRMSD>
0.815535426

$$$$
