
 OpenBabel03272508583D

 41 44  0  0  1  0  0  0  0  0999 V2000
   39.1210   31.4900   43.2930 C   0  0  0  0  0  0  0  0  0  0  0  0
   40.1320   30.5700   43.4390 C   0  0  0  0  0  0  0  0  0  0  0  0
   40.8550   30.2270   42.3040 C   0  0  0  0  0  0  0  0  0  0  0  0
   40.5110   30.8330   41.1100 C   0  0  0  0  0  0  0  0  0  0  0  0
   39.4860   31.7640   40.9690 C   0  0  0  0  0  0  0  0  0  0  0  0
   38.8120   32.0640   42.0970 N   0  0  0  0  0  0  0  0  0  0  0  0
   40.3910   30.1030   44.3790 H   0  0  0  0  0  0  0  0  0  0  0  0
   41.6510   29.5140   42.3740 H   0  0  0  0  0  0  0  0  0  0  0  0
   41.0550   30.5870   40.2070 H   0  0  0  0  0  0  0  0  0  0  0  0
   38.3370   31.8910   44.4810 C   0  0  0  0  0  0  0  0  0  0  0  0
   37.2450   32.4600   44.3940 O   0  0  0  0  0  0  0  0  0  0  0  0
   38.9190   31.5780   45.7800 N   0  0  0  0  0  0  0  0  0  0  0  0
   39.8950   31.2800   45.9310 H   0  0  0  0  0  0  0  0  0  0  0  0
   38.4300   31.0740   48.1650 C   0  0  2  0  0  0  0  0  0  0  0  0
   38.6910   32.5360   48.0850 C   0  0  0  0  0  0  0  0  0  0  0  0
   38.0590   31.6980   46.9380 C   0  0  1  0  0  0  0  0  0  0  0  0
   39.3560   30.4650   48.2460 H   0  0  0  0  0  0  0  0  0  0  0  0
   38.0360   33.2520   48.6080 H   0  0  0  0  0  0  0  0  0  0  0  0
   39.7100   32.8970   47.9430 H   0  0  0  0  0  0  0  0  0  0  0  0
   36.9920   31.9670   46.7520 H   0  0  0  0  0  0  0  0  0  0  0  0
   35.0710   30.2330   49.5040 C   0  0  0  0  0  0  0  0  0  0  0  0
   35.4010   29.5500   50.7200 C   0  0  0  0  0  0  0  0  0  0  0  0
   36.7880   29.4040   51.0530 C   0  0  0  0  0  0  0  0  0  0  0  0
   37.7470   29.9130   50.2120 N   0  0  0  0  0  0  0  0  0  0  0  0
   37.3520   30.5460   49.0790 C   0  0  0  0  0  0  0  0  0  0  0  0
   36.0290   30.7250   48.6930 N   0  0  0  0  0  0  0  0  0  0  0  0
   34.0120   30.3160   49.2990 H   0  0  0  0  0  0  0  0  0  0  0  0
   34.6410   29.1560   51.3720 H   0  0  0  0  0  0  0  0  0  0  0  0
   37.0490   28.8920   51.9680 H   0  0  0  0  0  0  0  0  0  0  0  0
   39.1780   32.3600   39.6750 C   0  0  0  0  0  0  0  0  0  0  0  0
   38.8800   33.5770   39.6330 O   0  0  0  0  0  0  0  0  0  0  0  0
   39.1780   31.6780   38.3830 C   0  0  0  0  0  3  0  0  0  0  0  0
   39.0070   32.7620   37.3130 C   0  0  0  0  0  3  0  0  0  0  0  0
   39.8130   33.4920   37.5190 H   0  0  0  0  0  0  0  0  0  0  0  0
   39.0770   32.1660   35.9390 C   0  0  0  0  0  3  0  0  0  0  0  0
   40.1070   31.8390   35.6920 H   0  0  0  0  0  0  0  0  0  0  0  0
   38.1300   31.1660   35.8330 O   0  0  0  0  0  0  0  0  0  0  0  0
   38.2990   30.1400   36.7450 C   0  0  0  0  0  3  0  0  0  0  0  0
   39.3950   29.8740   36.6880 H   0  0  0  0  0  0  0  0  0  0  0  0
   38.0970   30.6750   38.1680 C   0  0  0  0  0  3  0  0  0  0  0  0
   37.0780   31.0700   38.2290 H   0  0  0  0  0  0  0  0  0  0  0  0
  1  2  1  0  0  0  0
  1 10  1  0  0  0  0
  2  7  1  0  0  0  0
  3  8  1  0  0  0  0
  3  2  2  0  0  0  0
  4  3  1  0  0  0  0
  5  4  2  0  0  0  0
  5  6  1  0  0  0  0
  6  1  2  0  0  0  0
  9  4  1  0  0  0  0
 10 12  1  0  0  0  0
 11 10  2  0  0  0  0
 12 13  1  0  0  0  0
 12 16  1  0  0  0  0
 14 17  1  6  0  0  0
 14 25  1  0  0  0  0
 15 14  1  0  0  0  0
 15 18  1  0  0  0  0
 16 20  1  6  0  0  0
 16 15  1  0  0  0  0
 16 14  1  0  0  0  0
 19 15  1  0  0  0  0
 21 22  1  0  0  0  0
 22 23  2  0  0  0  0
 22 28  1  0  0  0  0
 23 29  1  0  0  0  0
 24 23  1  0  0  0  0
 25 24  2  0  0  0  0
 26 25  1  0  0  0  0
 26 21  2  0  0  0  0
 27 21  1  0  0  0  0
 30  5  1  0  0  0  0
 31 30  2  0  0  0  0
 32 30  1  0  0  0  0
 33 34  1  0  0  0  0
 33 32  1  0  0  0  0
 35 33  1  0  0  0  0
 36 35  1  0  0  0  0
 37 35  1  0  0  0  0
 37 38  1  0  0  0  0
 38 40  1  0  0  0  0
 39 38  1  0  0  0  0
 40 41  1  0  0  0  0
 40 32  1  0  0  0  0
M  END
>  <minimizedAffinity>
-4.85837126

>  <minimizedRMSD>
0.548948228

$$$$
