
 OpenBabel03272502303D

 25 26  0  0  0  0  0  0  0  0999 V2000
   39.4310   32.6460   46.7060 C   0  0  0  0  0  0  0  0  0  0  0  0
   40.5060   32.3630   46.7060 H   0  0  0  0  0  0  0  0  0  0  0  0
   39.3420   33.7500   46.6600 H   0  0  0  0  0  0  0  0  0  0  0  0
   38.1310   30.9760   47.9270 C   0  0  0  0  0  0  0  0  0  0  0  0
   38.7750   32.1100   47.9470 C   0  0  0  0  0  0  0  0  0  0  0  0
   37.3280   30.2060   51.4830 C   0  0  0  0  0  0  0  0  0  0  0  0
   37.9780   30.7560   50.3610 C   0  0  0  0  0  0  0  0  0  0  0  0
   37.4980   30.4370   49.0930 C   0  0  0  0  0  0  0  0  0  0  0  0
   36.4240   29.6120   48.9760 N   0  0  0  0  0  0  0  0  0  0  0  0
   35.8350   29.1100   50.0670 C   0  0  0  0  0  0  0  0  0  0  0  0
   36.2650   29.3910   51.3140 N   0  0  0  0  0  0  0  0  0  0  0  0
   37.6580   30.4200   52.4960 H   0  0  0  0  0  0  0  0  0  0  0  0
   38.8370   31.4140   50.5270 H   0  0  0  0  0  0  0  0  0  0  0  0
   34.9830   28.4590   49.8720 H   0  0  0  0  0  0  0  0  0  0  0  0
   38.5870   31.9870   45.2370 S   0  0  0  0  0  0  0  0  0  0  0  0
   39.4540   30.5060   44.6780 C   0  0  0  0  0  0  0  0  0  0  0  0
   38.4700   29.6740   43.9000 C   0  0  0  0  0  0  0  0  0  0  0  0
   37.5500   29.5790   44.5390 H   0  0  0  0  0  0  0  0  0  0  0  0
   38.0340   30.3440   42.6200 C   0  0  0  0  0  0  0  0  0  0  0  0
   37.2230   31.0880   42.7850 H   0  0  0  0  0  0  0  0  0  0  0  0
   39.0960   30.8950   41.9070 O   0  0  0  0  0  0  0  0  0  0  0  0
   39.8260   31.8090   42.6710 C   0  0  0  0  0  0  0  0  0  0  0  0
   39.1720   32.5620   43.1470 H   0  0  0  0  0  0  0  0  0  0  0  0
   40.5450   30.9490   43.7180 C   0  0  0  0  0  0  0  0  0  0  0  0
   41.3430   31.5230   44.2250 H   0  0  0  0  0  0  0  0  0  0  0  0
  1  5  1  0  0  0  0
  2  1  1  0  0  0  0
  3  1  1  0  0  0  0
  4  5  2  0  0  0  0
  4  8  1  0  0  0  0
  6 12  1  0  0  0  0
  7 13  1  0  0  0  0
  7  6  2  0  0  0  0
  8  7  1  0  0  0  0
  9  8  2  0  0  0  0
  9 10  1  0  0  0  0
 10 11  2  0  0  0  0
 11  6  1  0  0  0  0
 14 10  1  0  0  0  0
 15  1  1  0  0  0  0
 16 15  1  0  0  0  0
 17 18  1  0  0  0  0
 17 16  1  0  0  0  0
 19 20  1  0  0  0  0
 19 17  1  0  0  0  0
 21 19  1  0  0  0  0
 21 22  1  0  0  0  0
 22 23  1  0  0  0  0
 22 24  1  0  0  0  0
 24 25  1  0  0  0  0
 24 16  1  0  0  0  0
M  END
>  <minimizedAffinity>
-4.88276911

>  <minimizedRMSD>
2.50064659

$$$$
