
 OpenBabel03272508573D

 41 44  0  0  1  0  0  0  0  0999 V2000
   39.1380   31.4670   43.3080 C   0  0  0  0  0  0  0  0  0  0  0  0
   40.1440   30.5410   43.4600 C   0  0  0  0  0  0  0  0  0  0  0  0
   40.8700   30.1920   42.3290 C   0  0  0  0  0  0  0  0  0  0  0  0
   40.5350   30.7990   41.1320 C   0  0  0  0  0  0  0  0  0  0  0  0
   39.5160   31.7350   40.9860 C   0  0  0  0  0  0  0  0  0  0  0  0
   38.8390   32.0410   42.1100 N   0  0  0  0  0  0  0  0  0  0  0  0
   40.3950   30.0750   44.4020 H   0  0  0  0  0  0  0  0  0  0  0  0
   41.6620   29.4750   42.4040 H   0  0  0  0  0  0  0  0  0  0  0  0
   41.0830   30.5490   40.2320 H   0  0  0  0  0  0  0  0  0  0  0  0
   38.3510   31.8730   44.4920 C   0  0  0  0  0  0  0  0  0  0  0  0
   37.2660   32.4540   44.3990 O   0  0  0  0  0  0  0  0  0  0  0  0
   38.9220   31.5530   45.7940 N   0  0  0  0  0  0  0  0  0  0  0  0
   39.8940   31.2440   45.9510 H   0  0  0  0  0  0  0  0  0  0  0  0
   38.4250   31.0710   48.1820 C   0  0  2  0  0  0  0  0  0  0  0  0
   38.6770   32.5330   48.0880 C   0  0  0  0  0  0  0  0  0  0  0  0
   38.0560   31.6800   46.9470 C   0  0  1  0  0  0  0  0  0  0  0  0
   39.3540   30.4680   48.2740 H   0  0  0  0  0  0  0  0  0  0  0  0
   38.0150   33.2500   48.6000 H   0  0  0  0  0  0  0  0  0  0  0  0
   39.6940   32.8980   47.9460 H   0  0  0  0  0  0  0  0  0  0  0  0
   36.9880   31.9400   46.7530 H   0  0  0  0  0  0  0  0  0  0  0  0
   35.0630   30.2380   49.5210 C   0  0  0  0  0  0  0  0  0  0  0  0
   35.3930   29.5560   50.7380 C   0  0  0  0  0  0  0  0  0  0  0  0
   36.7790   29.4070   51.0720 C   0  0  0  0  0  0  0  0  0  0  0  0
   37.7390   29.9130   50.2300 N   0  0  0  0  0  0  0  0  0  0  0  0
   37.3460   30.5460   49.0960 C   0  0  0  0  0  0  0  0  0  0  0  0
   36.0230   30.7270   48.7100 N   0  0  0  0  0  0  0  0  0  0  0  0
   34.0050   30.3230   49.3170 H   0  0  0  0  0  0  0  0  0  0  0  0
   34.6310   29.1630   51.3900 H   0  0  0  0  0  0  0  0  0  0  0  0
   37.0390   28.8950   51.9870 H   0  0  0  0  0  0  0  0  0  0  0  0
   39.2170   32.3310   39.6890 C   0  0  0  0  0  0  0  0  0  0  0  0
   38.3130   33.1970   39.6230 O   0  0  0  0  0  0  0  0  0  0  0  0
   39.8740   32.0240   38.4210 C   0  0  0  0  0  3  0  0  0  0  0  0
   39.9140   33.3300   37.6180 C   0  0  0  0  0  3  0  0  0  0  0  0
   40.3960   34.0610   38.2930 H   0  0  0  0  0  0  0  0  0  0  0  0
   40.6470   33.1340   36.3240 C   0  0  0  0  0  3  0  0  0  0  0  0
   41.7330   33.0000   36.4930 H   0  0  0  0  0  0  0  0  0  0  0  0
   40.0560   32.1010   35.6230 O   0  0  0  0  0  0  0  0  0  0  0  0
   40.0660   30.8930   36.2980 C   0  0  0  0  0  3  0  0  0  0  0  0
   41.1240   30.7740   36.6740 H   0  0  0  0  0  0  0  0  0  0  0  0
   39.2080   31.0010   37.5650 C   0  0  0  0  0  3  0  0  0  0  0  0
   38.1890   31.2510   37.2510 H   0  0  0  0  0  0  0  0  0  0  0  0
  1  2  1  0  0  0  0
  1 10  1  0  0  0  0
  2  7  1  0  0  0  0
  3  8  1  0  0  0  0
  3  2  2  0  0  0  0
  4  3  1  0  0  0  0
  5  4  2  0  0  0  0
  5  6  1  0  0  0  0
  6  1  2  0  0  0  0
  9  4  1  0  0  0  0
 10 12  1  0  0  0  0
 11 10  2  0  0  0  0
 12 13  1  0  0  0  0
 12 16  1  0  0  0  0
 14 17  1  6  0  0  0
 14 25  1  0  0  0  0
 15 14  1  0  0  0  0
 15 18  1  0  0  0  0
 16 20  1  6  0  0  0
 16 15  1  0  0  0  0
 16 14  1  0  0  0  0
 19 15  1  0  0  0  0
 21 22  1  0  0  0  0
 22 23  2  0  0  0  0
 22 28  1  0  0  0  0
 23 29  1  0  0  0  0
 24 23  1  0  0  0  0
 25 24  2  0  0  0  0
 26 25  1  0  0  0  0
 26 21  2  0  0  0  0
 27 21  1  0  0  0  0
 30  5  1  0  0  0  0
 31 30  2  0  0  0  0
 32 30  1  0  0  0  0
 33 34  1  0  0  0  0
 33 32  1  0  0  0  0
 35 36  1  0  0  0  0
 35 33  1  0  0  0  0
 37 38  1  0  0  0  0
 37 35  1  0  0  0  0
 38 39  1  0  0  0  0
 38 40  1  0  0  0  0
 40 32  1  0  0  0  0
 41 40  1  0  0  0  0
M  END
>  <minimizedAffinity>
-4.90970707

>  <minimizedRMSD>
0.939609587

$$$$
