
 OpenBabel03272509503D

 34 36  0  0  0  0  0  0  0  0999 V2000
   37.2000   30.1760   51.3350 C   0  0  0  0  0  0  0  0  0  0  0  0
   37.6620   30.9020   50.2150 C   0  0  0  0  0  0  0  0  0  0  0  0
   37.0280   30.6750   49.0060 C   0  0  0  0  0  0  0  0  0  0  0  0
   35.9950   29.7660   48.9610 N   0  0  0  0  0  0  0  0  0  0  0  0
   35.5900   29.1010   50.0470 C   0  0  0  0  0  0  0  0  0  0  0  0
   36.1940   29.3090   51.2280 N   0  0  0  0  0  0  0  0  0  0  0  0
   37.6480   30.3020   52.3130 H   0  0  0  0  0  0  0  0  0  0  0  0
   38.4810   31.6020   50.3250 H   0  0  0  0  0  0  0  0  0  0  0  0
   37.4940   31.4260   47.8140 C   0  0  0  0  0  3  0  0  0  0  0  0
   37.9690   30.5210   46.7370 C   0  0  0  0  0  3  0  0  0  0  0  0
   38.6280   29.7060   47.0770 H   0  0  0  0  0  0  0  0  0  0  0  0
   38.7930   31.3060   45.7370 C   0  0  0  0  0  3  0  0  0  0  0  0
   38.2410   32.1410   45.2650 H   0  0  0  0  0  0  0  0  0  0  0  0
   39.9270   31.7540   46.4420 O   0  0  0  0  0  0  0  0  0  0  0  0
   39.4910   32.8260   47.2150 C   0  0  0  0  0  3  0  0  0  0  0  0
   40.3790   33.2720   47.7080 H   0  0  0  0  0  0  0  0  0  0  0  0
   38.5330   32.4040   48.2950 C   0  0  0  0  0  3  0  0  0  0  0  0
   39.0830   31.9500   49.1470 H   0  0  0  0  0  0  0  0  0  0  0  0
   34.5500   28.2530   49.7620 O   0  0  0  0  0  0  0  0  0  0  0  0
   33.6770   28.5760   48.6900 C   0  0  0  0  0  0  0  0  0  0  0  0
   34.2920   28.8630   47.8140 H   0  0  0  0  0  0  0  0  0  0  0  0
   33.1020   29.4840   48.9580 H   0  0  0  0  0  0  0  0  0  0  0  0
   32.7430   27.4420   48.4150 C   0  0  0  0  0  0  0  0  0  0  0  0
   33.0210   27.0260   47.4080 H   0  0  0  0  0  0  0  0  0  0  0  0
   32.8780   26.6460   49.1750 H   0  0  0  0  0  0  0  0  0  0  0  0
   31.3090   27.8610   48.3850 C   0  0  0  0  0  0  0  0  0  0  0  0
   30.6160   27.7500   49.5690 C   0  0  0  0  0  0  0  0  0  0  0  0
   29.2910   28.1030   49.6680 C   0  0  0  0  0  0  0  0  0  0  0  0
   28.6580   28.5670   48.5820 N   0  0  0  0  0  0  0  0  0  0  0  0
   29.3490   28.6700   47.4330 C   0  0  0  0  0  0  0  0  0  0  0  0
   30.6420   28.3310   47.3100 N   0  0  0  0  0  0  0  0  0  0  0  0
   31.0720   27.3790   50.4910 H   0  0  0  0  0  0  0  0  0  0  0  0
   28.7080   28.0320   50.5840 H   0  0  0  0  0  0  0  0  0  0  0  0
   28.8850   29.0430   46.5090 H   0  0  0  0  0  0  0  0  0  0  0  0
  1  7  1  0  0  0  0
  2  8  1  0  0  0  0
  2  1  2  0  0  0  0
  3  2  1  0  0  0  0
  4  3  2  0  0  0  0
  4  5  1  0  0  0  0
  5  6  2  0  0  0  0
  6  1  1  0  0  0  0
  9 17  1  0  0  0  0
  9  3  1  0  0  0  0
 10 11  1  0  0  0  0
 10  9  1  0  0  0  0
 12 14  1  0  0  0  0
 12 10  1  0  0  0  0
 13 12  1  0  0  0  0
 14 15  1  0  0  0  0
 15 16  1  0  0  0  0
 15 17  1  0  0  0  0
 17 18  1  0  0  0  0
 19  5  1  0  0  0  0
 20 22  1  0  0  0  0
 20 19  1  0  0  0  0
 21 20  1  0  0  0  0
 23 20  1  0  0  0  0
 23 25  1  0  0  0  0
 24 23  1  0  0  0  0
 26 23  1  0  0  0  0
 26 27  1  0  0  0  0
 27 28  2  0  0  0  0
 27 32  1  0  0  0  0
 28 33  1  0  0  0  0
 29 28  1  0  0  0  0
 30 29  2  0  0  0  0
 31 30  1  0  0  0  0
 31 26  2  0  0  0  0
 34 30  1  0  0  0  0
M  END
>  <minimizedAffinity>
-5.64634371

>  <minimizedRMSD>
0.788431644

$$$$
