
 OpenBabel03272507133D

 41 45  0  0  0  0  0  0  0  0999 V2000
   35.8560   29.1340   49.8300 C   0  0  0  0  0  0  0  0  0  0  0  0
   34.8220   29.7050   50.4870 C   0  0  0  0  0  0  0  0  0  0  0  0
   33.6550   29.1390   49.9700 C   0  0  0  0  0  0  0  0  0  0  0  0
   34.0790   28.2250   48.9940 C   0  0  0  0  0  0  0  0  0  0  0  0
   35.3750   28.2760   48.9680 O   0  0  0  0  0  0  0  0  0  0  0  0
   34.8260   30.4690   51.2810 H   0  0  0  0  0  0  0  0  0  0  0  0
   32.6570   29.4220   50.3270 H   0  0  0  0  0  0  0  0  0  0  0  0
   33.5480   26.4450   47.3330 C   0  0  0  0  0  0  0  0  0  0  0  0
   33.1300   27.4270   48.2240 C   0  0  0  0  0  0  0  0  0  0  0  0
   31.7870   27.6920   48.4240 C   0  0  0  0  0  0  0  0  0  0  0  0
   30.8720   26.9560   47.7160 C   0  0  0  0  0  0  0  0  0  0  0  0
   29.5260   26.9870   47.7060 N   0  0  0  0  0  0  0  0  0  0  0  0
   29.1130   26.0620   46.8450 N   0  0  0  0  0  0  0  0  0  0  0  0
   30.1670   25.4430   46.3060 C   0  0  0  0  0  0  0  0  0  0  0  0
   31.3380   25.9840   46.8360 C   0  0  0  0  0  0  0  0  0  0  0  0
   32.6670   25.7050   46.6230 C   0  0  0  0  0  0  0  0  0  0  0  0
   34.6200   26.3100   47.2440 H   0  0  0  0  0  0  0  0  0  0  0  0
   31.3930   28.4460   49.1040 H   0  0  0  0  0  0  0  0  0  0  0  0
   28.8800   27.6020   48.2520 H   0  0  0  0  0  0  0  0  0  0  0  0
   30.1870   24.6310   45.5620 H   0  0  0  0  0  0  0  0  0  0  0  0
   32.9630   24.9480   45.9370 H   0  0  0  0  0  0  0  0  0  0  0  0
   37.2440   29.4880   50.1120 C   0  0  0  0  0  0  0  0  0  0  0  0
   37.8820   28.8170   50.9600 O   0  0  0  0  0  0  0  0  0  0  0  0
   37.8070   30.6010   49.3900 C   0  0  0  0  0  0  0  0  0  0  0  0
   38.0230   31.7730   50.0850 C   0  0  0  0  0  0  0  0  0  0  0  0
   38.5630   32.8690   49.4270 C   0  0  0  0  0  0  0  0  0  0  0  0
   38.8520   32.7180   48.1120 N   0  0  0  0  0  0  0  0  0  0  0  0
   38.6410   31.5850   47.4460 C   0  0  0  0  0  0  0  0  0  0  0  0
   38.1210   30.5410   48.0920 N   0  0  0  0  0  0  0  0  0  0  0  0
   37.7990   31.9240   51.1510 H   0  0  0  0  0  0  0  0  0  0  0  0
   38.7420   33.7860   49.9380 H   0  0  0  0  0  0  0  0  0  0  0  0
   38.9540   31.4080   46.0000 C   0  0  0  0  0  3  0  0  0  0  0  0
   40.4280   31.1990   45.7480 C   0  0  0  0  0  3  0  0  0  0  0  0
   40.7620   30.1850   46.0970 H   0  0  0  0  0  0  0  0  0  0  0  0
   40.6220   31.3700   44.2550 C   0  0  0  0  0  3  0  0  0  0  0  0
   41.6510   31.1150   43.9370 H   0  0  0  0  0  0  0  0  0  0  0  0
   39.6440   30.7520   43.5210 O   0  0  0  0  0  0  0  0  0  0  0  0
   38.9740   29.7340   44.1880 C   0  0  0  0  0  3  0  0  0  0  0  0
   38.2290   29.3180   43.4770 H   0  0  0  0  0  0  0  0  0  0  0  0
   38.2240   30.2330   45.3950 C   0  0  0  0  0  3  0  0  0  0  0  0
   38.1510   29.3790   46.1140 H   0  0  0  0  0  0  0  0  0  0  0  0
  1 22  1  0  0  0  0
  1  2  2  0  0  0  0
  2  6  1  0  0  0  0
  3  7  1  0  0  0  0
  3  2  1  0  0  0  0
  4  3  2  0  0  0  0
  5  4  1  0  0  0  0
  5  1  1  0  0  0  0
  8  9  1  0  0  0  0
  9 10  2  0  0  0  0
  9  4  1  0  0  0  0
 10 18  1  0  0  0  0
 11 10  1  0  0  0  0
 12 11  1  0  0  0  0
 12 19  1  0  0  0  0
 13 12  1  0  0  0  0
 14 15  1  0  0  0  0
 14 13  2  0  0  0  0
 15 11  2  0  0  0  0
 16 15  1  0  0  0  0
 16  8  2  0  0  0  0
 17  8  1  0  0  0  0
 20 14  1  0  0  0  0
 21 16  1  0  0  0  0
 22 23  2  0  0  0  0
 24 25  1  0  0  0  0
 24 22  1  0  0  0  0
 25 30  1  0  0  0  0
 26 31  1  0  0  0  0
 26 25  2  0  0  0  0
 27 26  1  0  0  0  0
 28 29  1  0  0  0  0
 28 27  2  0  0  0  0
 29 24  2  0  0  0  0
 32 28  1  0  0  0  0
 33 32  1  0  0  0  0
 33 34  1  0  0  0  0
 35 33  1  0  0  0  0
 36 35  1  0  0  0  0
 37 38  1  0  0  0  0
 37 35  1  0  0  0  0
 38 40  1  0  0  0  0
 39 38  1  0  0  0  0
 40 32  1  0  0  0  0
 40 41  1  0  0  0  0
M  END
>  <minimizedAffinity>
-7.13788939

>  <minimizedRMSD>
0.526620984

$$$$
