
 OpenBabel03272503383D

 27 29  0  0  0  0  0  0  0  0999 V2000
   36.0380   30.4780   46.9860 C   0  0  0  0  0  0  0  0  0  0  0  0
   37.0710   31.2220   46.4100 C   0  0  0  0  0  0  0  0  0  0  0  0
   37.1870   31.2140   45.0240 C   0  0  0  0  0  0  0  0  0  0  0  0
   36.2980   30.4890   44.3020 N   0  0  0  0  0  0  0  0  0  0  0  0
   35.3040   29.7740   44.8900 C   0  0  0  0  0  0  0  0  0  0  0  0
   35.1850   29.7780   46.2370 N   0  0  0  0  0  0  0  0  0  0  0  0
   37.7950   31.8090   46.9270 H   0  0  0  0  0  0  0  0  0  0  0  0
   34.5970   29.1970   44.3070 H   0  0  0  0  0  0  0  0  0  0  0  0
   38.2390   31.9660   44.3450 C   0  0  0  0  0  0  0  0  0  0  0  0
   38.5170   31.8880   43.0060 C   0  0  0  0  0  0  0  0  0  0  0  0
   39.5790   32.7710   42.8320 C   0  0  0  0  0  0  0  0  0  0  0  0
   39.9070   33.3400   44.0120 N   0  0  0  0  0  0  0  0  0  0  0  0
   39.0790   32.8390   44.9360 N   0  0  0  0  0  0  0  0  0  0  0  0
   37.9870   31.2600   42.3020 H   0  0  0  0  0  0  0  0  0  0  0  0
   40.0120   32.9110   41.8320 H   0  0  0  0  0  0  0  0  0  0  0  0
   40.6860   34.0380   44.1020 H   0  0  0  0  0  0  0  0  0  0  0  0
   36.0440   30.5780   48.3660 O   0  0  0  0  0  0  0  0  0  0  0  0
   36.7320   29.5640   49.0830 C   0  0  0  0  0  3  0  0  0  0  0  0
   35.7120   28.7730   49.8590 C   0  0  0  0  0  3  0  0  0  0  0  0
   36.0730   27.7260   50.0030 H   0  0  0  0  0  0  0  0  0  0  0  0
   35.4790   29.3310   51.2260 C   0  0  0  0  0  3  0  0  0  0  0  0
   34.8060   28.5900   51.7480 H   0  0  0  0  0  0  0  0  0  0  0  0
   36.6990   29.3810   51.8930 O   0  0  0  0  0  0  0  0  0  0  0  0
   37.4460   30.4110   51.3320 C   0  0  0  0  0  3  0  0  0  0  0  0
   36.9320   31.3840   51.4020 H   0  0  0  0  0  0  0  0  0  0  0  0
   37.8400   30.1250   49.9060 C   0  0  0  0  0  3  0  0  0  0  0  0
   38.0950   31.1310   49.4640 H   0  0  0  0  0  0  0  0  0  0  0  0
  1 17  1  0  0  0  0
  2  7  1  0  0  0  0
  2  1  1  0  0  0  0
  3  2  2  0  0  0  0
  4  5  2  0  0  0  0
  4  3  1  0  0  0  0
  5  6  1  0  0  0  0
  6  1  2  0  0  0  0
  8  5  1  0  0  0  0
  9 13  2  0  0  0  0
  9  3  1  0  0  0  0
 10  9  1  0  0  0  0
 11 10  2  0  0  0  0
 11 12  1  0  0  0  0
 12 16  1  0  0  0  0
 12 13  1  0  0  0  0
 14 10  1  0  0  0  0
 15 11  1  0  0  0  0
 17 18  1  0  0  0  0
 18 19  1  0  0  0  0
 18 26  1  0  0  0  0
 19 20  1  0  0  0  0
 19 21  1  0  0  0  0
 21 22  1  0  0  0  0
 21 23  1  0  0  0  0
 24 25  1  0  0  0  0
 24 23  1  0  0  0  0
 26 24  1  0  0  0  0
 27 26  1  0  0  0  0
M  END
>  <minimizedAffinity>
-4.74336767

>  <minimizedRMSD>
3.85904217

$$$$
