
 OpenBabel03272504133D

 22 23  0  0  0  0  0  0  0  0999 V2000
   38.2940   23.7240   36.9570 C   0  0  0  0  0  0  0  0  0  0  0  0
   38.0480   24.9260   36.2860 C   0  0  0  0  0  0  0  0  0  0  0  0
   38.1040   24.9180   34.8880 C   0  0  0  0  0  0  0  0  0  0  0  0
   38.3920   23.7480   34.2640 N   0  0  0  0  0  0  0  0  0  0  0  0
   38.6250   22.6050   34.9480 C   0  0  0  0  0  0  0  0  0  0  0  0
   38.5760   22.5970   36.2980 N   0  0  0  0  0  0  0  0  0  0  0  0
   37.8180   25.8550   36.7850 H   0  0  0  0  0  0  0  0  0  0  0  0
   38.8570   21.6760   34.4260 H   0  0  0  0  0  0  0  0  0  0  0  0
   37.8580   26.1380   34.0740 C   0  0  0  0  0  3  0  0  0  0  0  0
   37.1610   25.8720   32.7760 C   0  0  0  0  0  3  0  0  0  0  0  0
   37.7230   25.2450   32.0610 H   0  0  0  0  0  0  0  0  0  0  0  0
   36.9070   27.2490   32.1610 C   0  0  0  0  0  3  0  0  0  0  0  0
   36.6030   27.1770   31.0990 H   0  0  0  0  0  0  0  0  0  0  0  0
   35.9670   27.9330   32.9400 O   0  0  0  0  0  0  0  0  0  0  0  0
   36.5630   28.2860   34.1470 C   0  0  0  0  0  3  0  0  0  0  0  0
   37.4770   28.8960   34.0390 H   0  0  0  0  0  0  0  0  0  0  0  0
   36.9470   27.0320   34.8880 C   0  0  0  0  0  3  0  0  0  0  0  0
   36.0470   26.4230   35.1120 H   0  0  0  0  0  0  0  0  0  0  0  0
   38.2330   23.7410   38.4580 C   0  0  0  0  0  0  0  0  0  0  0  0
   37.9520   25.0360   38.8880 F   0  0  0  0  0  0  0  0  0  0  0  0
   37.3140   22.8200   38.8580 F   0  0  0  0  0  0  0  0  0  0  0  0
   39.5030   23.4370   38.9320 F   0  0  0  0  0  0  0  0  0  0  0  0
  1 19  1  0  0  0  0
  2  7  1  0  0  0  0
  2  1  2  0  0  0  0
  3  2  1  0  0  0  0
  4  3  2  0  0  0  0
  4  5  1  0  0  0  0
  5  6  2  0  0  0  0
  6  1  1  0  0  0  0
  8  5  1  0  0  0  0
  9  3  1  0  0  0  0
  9 17  1  0  0  0  0
 10  9  1  0  0  0  0
 11 10  1  0  0  0  0
 12 10  1  0  0  0  0
 12 14  1  0  0  0  0
 13 12  1  0  0  0  0
 14 15  1  0  0  0  0
 15 17  1  0  0  0  0
 16 15  1  0  0  0  0
 17 18  1  0  0  0  0
 19 21  1  0  0  0  0
 19 20  1  0  0  0  0
 19 22  1  0  0  0  0
M  END
>  <minimizedAffinity>
-5.02993536

$$$$

 OpenBabel03272504133D

 22 23  0  0  0  0  0  0  0  0999 V2000
   38.2720   23.6760   36.7430 C   0  0  0  0  0  0  0  0  0  0  0  0
   37.7310   22.5820   36.0620 C   0  0  0  0  0  0  0  0  0  0  0  0
   37.6800   22.6410   34.6650 C   0  0  0  0  0  0  0  0  0  0  0  0
   38.1580   23.7530   34.0520 N   0  0  0  0  0  0  0  0  0  0  0  0
   38.6740   24.7920   34.7460 C   0  0  0  0  0  0  0  0  0  0  0  0
   38.7290   24.7510   36.0950 N   0  0  0  0  0  0  0  0  0  0  0  0
   37.3530   21.6980   36.5520 H   0  0  0  0  0  0  0  0  0  0  0  0
   39.0510   25.6780   34.2330 H   0  0  0  0  0  0  0  0  0  0  0  0
   37.1260   21.5340   33.8400 C   0  0  0  0  0  3  0  0  0  0  0  0
   35.9380   20.8580   34.4510 C   0  0  0  0  0  3  0  0  0  0  0  0
   36.1340   20.3380   35.4060 H   0  0  0  0  0  0  0  0  0  0  0  0
   35.4630   19.8480   33.4050 C   0  0  0  0  0  3  0  0  0  0  0  0
   34.7340   19.1300   33.8270 H   0  0  0  0  0  0  0  0  0  0  0  0
   34.9540   20.5380   32.2990 O   0  0  0  0  0  0  0  0  0  0  0  0
   36.0120   21.1410   31.6260 C   0  0  0  0  0  3  0  0  0  0  0  0
   36.8000   20.4390   31.3010 H   0  0  0  0  0  0  0  0  0  0  0  0
   36.6600   22.1500   32.5380 C   0  0  0  0  0  3  0  0  0  0  0  0
   35.9340   22.9410   32.8190 H   0  0  0  0  0  0  0  0  0  0  0  0
   38.3230   23.6060   38.2430 C   0  0  0  0  0  0  0  0  0  0  0  0
   37.2950   22.7800   38.6950 F   0  0  0  0  0  0  0  0  0  0  0  0
   39.5640   23.1850   38.6090 F   0  0  0  0  0  0  0  0  0  0  0  0
   38.0470   24.8770   38.7310 F   0  0  0  0  0  0  0  0  0  0  0  0
  1 19  1  0  0  0  0
  2  7  1  0  0  0  0
  2  1  2  0  0  0  0
  3  2  1  0  0  0  0
  4  3  2  0  0  0  0
  4  5  1  0  0  0  0
  5  6  2  0  0  0  0
  6  1  1  0  0  0  0
  8  5  1  0  0  0  0
  9 10  1  0  0  0  0
  9  3  1  0  0  0  0
 10 11  1  0  0  0  0
 12 13  1  0  0  0  0
 12 10  1  0  0  0  0
 14 12  1  0  0  0  0
 15 14  1  0  0  0  0
 15 17  1  0  0  0  0
 16 15  1  0  0  0  0
 17 18  1  0  0  0  0
 17  9  1  0  0  0  0
 19 21  1  0  0  0  0
 19 20  1  0  0  0  0
 19 22  1  0  0  0  0
M  END
>  <minimizedAffinity>
-4.90143061

$$$$

 OpenBabel03272504133D

 22 23  0  0  0  0  0  0  0  0999 V2000
   38.4550   23.7000   36.9100 C   0  0  0  0  0  0  0  0  0  0  0  0
   37.9800   24.7590   36.1300 C   0  0  0  0  0  0  0  0  0  0  0  0
   38.1150   24.6600   34.7410 C   0  0  0  0  0  0  0  0  0  0  0  0
   38.6950   23.5450   34.2310 N   0  0  0  0  0  0  0  0  0  0  0  0
   39.1430   22.5410   35.0180 C   0  0  0  0  0  0  0  0  0  0  0  0
   39.0220   22.6220   36.3610 N   0  0  0  0  0  0  0  0  0  0  0  0
   37.5180   25.6440   36.5390 H   0  0  0  0  0  0  0  0  0  0  0  0
   39.6080   21.6540   34.5860 H   0  0  0  0  0  0  0  0  0  0  0  0
   37.6440   25.7260   33.8170 C   0  0  0  0  0  3  0  0  0  0  0  0
   38.7340   26.6270   33.3250 C   0  0  0  0  0  3  0  0  0  0  0  0
   39.2370   27.2260   34.1060 H   0  0  0  0  0  0  0  0  0  0  0  0
   38.0640   27.5610   32.3150 C   0  0  0  0  0  3  0  0  0  0  0  0
   38.7140   28.4180   32.0520 H   0  0  0  0  0  0  0  0  0  0  0  0
   37.6760   26.8210   31.1930 O   0  0  0  0  0  0  0  0  0  0  0  0
   36.6080   26.0020   31.5480 C   0  0  0  0  0  3  0  0  0  0  0  0
   35.7390   26.5450   31.9590 H   0  0  0  0  0  0  0  0  0  0  0  0
   37.0670   25.0300   32.6030 C   0  0  0  0  0  3  0  0  0  0  0  0
   37.8810   24.3850   32.2080 H   0  0  0  0  0  0  0  0  0  0  0  0
   38.3090   23.8140   38.4010 C   0  0  0  0  0  0  0  0  0  0  0  0
   39.5040   23.4270   39.0060 F   0  0  0  0  0  0  0  0  0  0  0  0
   37.9340   25.0880   38.6970 F   0  0  0  0  0  0  0  0  0  0  0  0
   37.3500   22.8910   38.8000 F   0  0  0  0  0  0  0  0  0  0  0  0
  1 19  1  0  0  0  0
  2  7  1  0  0  0  0
  2  1  2  0  0  0  0
  3  2  1  0  0  0  0
  4  3  2  0  0  0  0
  4  5  1  0  0  0  0
  5  6  2  0  0  0  0
  6  1  1  0  0  0  0
  8  5  1  0  0  0  0
  9  3  1  0  0  0  0
 10  9  1  0  0  0  0
 10 11  1  0  0  0  0
 12 10  1  0  0  0  0
 13 12  1  0  0  0  0
 14 15  1  0  0  0  0
 14 12  1  0  0  0  0
 15 16  1  0  0  0  0
 15 17  1  0  0  0  0
 17  9  1  0  0  0  0
 18 17  1  0  0  0  0
 19 21  1  0  0  0  0
 19 22  1  0  0  0  0
 19 20  1  0  0  0  0
M  END
>  <minimizedAffinity>
-4.75404596

$$$$

 OpenBabel03272504133D

 22 23  0  0  0  0  0  0  0  0999 V2000
   38.1920   24.3140   36.9550 C   0  0  0  0  0  0  0  0  0  0  0  0
   38.0990   23.3050   35.9920 C   0  0  0  0  0  0  0  0  0  0  0  0
   38.0290   23.6880   34.6480 C   0  0  0  0  0  0  0  0  0  0  0  0
   38.0560   25.0130   34.3560 N   0  0  0  0  0  0  0  0  0  0  0  0
   38.1460   25.9600   35.3160 C   0  0  0  0  0  0  0  0  0  0  0  0
   38.2130   25.6070   36.6190 N   0  0  0  0  0  0  0  0  0  0  0  0
   38.0790   22.2520   36.2270 H   0  0  0  0  0  0  0  0  0  0  0  0
   38.1640   27.0200   35.0590 H   0  0  0  0  0  0  0  0  0  0  0  0
   37.9290   22.6990   33.5420 C   0  0  0  0  0  3  0  0  0  0  0  0
   37.0420   21.5330   33.8480 C   0  0  0  0  0  3  0  0  0  0  0  0
   37.3810   20.8910   34.6810 H   0  0  0  0  0  0  0  0  0  0  0  0
   36.9880   20.7130   32.5580 C   0  0  0  0  0  3  0  0  0  0  0  0
   36.5500   19.7110   32.7240 H   0  0  0  0  0  0  0  0  0  0  0  0
   36.3000   21.4400   31.5800 O   0  0  0  0  0  0  0  0  0  0  0  0
   37.0940   22.5120   31.1830 C   0  0  0  0  0  3  0  0  0  0  0  0
   38.0890   22.2210   30.8040 H   0  0  0  0  0  0  0  0  0  0  0  0
   37.3140   23.4220   32.3620 C   0  0  0  0  0  3  0  0  0  0  0  0
   36.3460   23.8270   32.7260 H   0  0  0  0  0  0  0  0  0  0  0  0
   38.2650   23.8960   38.3960 C   0  0  0  0  0  0  0  0  0  0  0  0
   39.4950   23.2820   38.6290 F   0  0  0  0  0  0  0  0  0  0  0  0
   38.0460   24.9930   39.1700 F   0  0  0  0  0  0  0  0  0  0  0  0
   37.2960   22.9220   38.5990 F   0  0  0  0  0  0  0  0  0  0  0  0
  1 19  1  0  0  0  0
  2  7  1  0  0  0  0
  2  1  2  0  0  0  0
  3  2  1  0  0  0  0
  4  3  2  0  0  0  0
  4  5  1  0  0  0  0
  5  6  2  0  0  0  0
  6  1  1  0  0  0  0
  8  5  1  0  0  0  0
  9 10  1  0  0  0  0
  9  3  1  0  0  0  0
 10 11  1  0  0  0  0
 12 13  1  0  0  0  0
 12 10  1  0  0  0  0
 14 12  1  0  0  0  0
 15 14  1  0  0  0  0
 15 17  1  0  0  0  0
 16 15  1  0  0  0  0
 17 18  1  0  0  0  0
 17  9  1  0  0  0  0
 19 22  1  0  0  0  0
 19 20  1  0  0  0  0
 19 21  1  0  0  0  0
M  END
>  <minimizedAffinity>
-4.68596315

$$$$

 OpenBabel03272504133D

 22 23  0  0  0  0  0  0  0  0999 V2000
   38.1740   23.9060   36.9910 C   0  0  0  0  0  0  0  0  0  0  0  0
   38.0340   22.7320   36.2450 C   0  0  0  0  0  0  0  0  0  0  0  0
   38.0210   22.8400   34.8500 C   0  0  0  0  0  0  0  0  0  0  0  0
   38.1470   24.0750   34.3020 N   0  0  0  0  0  0  0  0  0  0  0  0
   38.2800   25.1890   35.0570 C   0  0  0  0  0  0  0  0  0  0  0  0
   38.2930   25.1010   36.4060 N   0  0  0  0  0  0  0  0  0  0  0  0
   37.9350   21.7510   36.6840 H   0  0  0  0  0  0  0  0  0  0  0  0
   38.3780   26.1720   34.5950 H   0  0  0  0  0  0  0  0  0  0  0  0
   37.8780   21.6580   33.9600 C   0  0  0  0  0  3  0  0  0  0  0  0
   36.6820   21.7160   33.0610 C   0  0  0  0  0  3  0  0  0  0  0  0
   35.7060   21.7160   33.5780 H   0  0  0  0  0  0  0  0  0  0  0  0
   36.7880   20.4810   32.1640 C   0  0  0  0  0  3  0  0  0  0  0  0
   35.8470   20.2900   31.6130 H   0  0  0  0  0  0  0  0  0  0  0  0
   37.8860   20.6270   31.3100 O   0  0  0  0  0  0  0  0  0  0  0  0
   39.0520   20.5110   32.0610 C   0  0  0  0  0  3  0  0  0  0  0  0
   39.1360   19.5650   32.6230 H   0  0  0  0  0  0  0  0  0  0  0  0
   39.1000   21.6330   33.0660 C   0  0  0  0  0  3  0  0  0  0  0  0
   39.1180   22.6160   32.5500 H   0  0  0  0  0  0  0  0  0  0  0  0
   38.1850   23.7810   38.4890 C   0  0  0  0  0  0  0  0  0  0  0  0
   37.9300   25.0310   39.0500 F   0  0  0  0  0  0  0  0  0  0  0  0
   37.2830   22.8270   38.8440 F   0  0  0  0  0  0  0  0  0  0  0  0
   39.4760   23.4360   38.8700 F   0  0  0  0  0  0  0  0  0  0  0  0
  1 19  1  0  0  0  0
  2  7  1  0  0  0  0
  2  1  2  0  0  0  0
  3  2  1  0  0  0  0
  4  3  2  0  0  0  0
  4  5  1  0  0  0  0
  5  6  2  0  0  0  0
  6  1  1  0  0  0  0
  8  5  1  0  0  0  0
  9  3  1  0  0  0  0
 10 11  1  0  0  0  0
 10  9  1  0  0  0  0
 12 10  1  0  0  0  0
 13 12  1  0  0  0  0
 14 15  1  0  0  0  0
 14 12  1  0  0  0  0
 15 16  1  0  0  0  0
 15 17  1  0  0  0  0
 17  9  1  0  0  0  0
 18 17  1  0  0  0  0
 19 21  1  0  0  0  0
 19 22  1  0  0  0  0
 19 20  1  0  0  0  0
M  END
>  <minimizedAffinity>
-4.61211634

$$$$

 OpenBabel03272504133D

 22 23  0  0  0  0  0  0  0  0999 V2000
   40.0830   22.9780   37.1350 C   0  0  0  0  0  0  0  0  0  0  0  0
   39.5060   23.8090   36.1700 C   0  0  0  0  0  0  0  0  0  0  0  0
   38.3720   24.5440   36.5330 C   0  0  0  0  0  0  0  0  0  0  0  0
   37.8990   24.4100   37.7970 N   0  0  0  0  0  0  0  0  0  0  0  0
   38.4840   23.5950   38.7030 C   0  0  0  0  0  0  0  0  0  0  0  0
   39.5790   22.8780   38.3680 N   0  0  0  0  0  0  0  0  0  0  0  0
   39.8860   23.9140   35.1650 H   0  0  0  0  0  0  0  0  0  0  0  0
   38.0860   23.5020   39.7140 H   0  0  0  0  0  0  0  0  0  0  0  0
   37.6790   25.4580   35.5870 C   0  0  0  0  0  3  0  0  0  0  0  0
   38.0510   26.8990   35.7530 C   0  0  0  0  0  3  0  0  0  0  0  0
   37.7760   27.3460   36.7250 H   0  0  0  0  0  0  0  0  0  0  0  0
   37.3270   27.6380   34.6260 C   0  0  0  0  0  3  0  0  0  0  0  0
   37.3390   28.7340   34.7770 H   0  0  0  0  0  0  0  0  0  0  0  0
   37.8840   27.2620   33.3980 O   0  0  0  0  0  0  0  0  0  0  0  0
   37.5210   25.9460   33.1310 C   0  0  0  0  0  3  0  0  0  0  0  0
   36.4310   25.7700   33.1180 H   0  0  0  0  0  0  0  0  0  0  0  0
   38.1050   25.0510   34.1920 C   0  0  0  0  0  3  0  0  0  0  0  0
   39.2140   25.1130   34.1850 H   0  0  0  0  0  0  0  0  0  0  0  0
   41.3000   22.1900   36.7380 C   0  0  0  0  0  0  0  0  0  0  0  0
   41.5360   21.2050   37.6950 F   0  0  0  0  0  0  0  0  0  0  0  0
   41.1000   21.6990   35.4850 F   0  0  0  0  0  0  0  0  0  0  0  0
   42.3890   23.0510   36.7840 F   0  0  0  0  0  0  0  0  0  0  0  0
  1  6  1  0  0  0  0
  2  3  1  0  0  0  0
  2  1  2  0  0  0  0
  3  4  2  0  0  0  0
  4  5  1  0  0  0  0
  5  8  1  0  0  0  0
  6  5  2  0  0  0  0
  7  2  1  0  0  0  0
  9 10  1  0  0  0  0
  9  3  1  0  0  0  0
 10 11  1  0  0  0  0
 12 13  1  0  0  0  0
 12 10  1  0  0  0  0
 14 12  1  0  0  0  0
 15 14  1  0  0  0  0
 15 17  1  0  0  0  0
 16 15  1  0  0  0  0
 17  9  1  0  0  0  0
 18 17  1  0  0  0  0
 19 22  1  0  0  0  0
 19  1  1  0  0  0  0
 19 20  1  0  0  0  0
 21 19  1  0  0  0  0
M  END
>  <minimizedAffinity>
-4.60878611

$$$$

 OpenBabel03272504133D

 22 23  0  0  0  0  0  0  0  0999 V2000
   38.2200   23.6570   36.9370 C   0  0  0  0  0  0  0  0  0  0  0  0
   38.7220   24.7860   36.2830 C   0  0  0  0  0  0  0  0  0  0  0  0
   38.7990   24.7520   34.8860 C   0  0  0  0  0  0  0  0  0  0  0  0
   38.3830   23.6300   34.2480 N   0  0  0  0  0  0  0  0  0  0  0  0
   37.9030   22.5570   34.9160 C   0  0  0  0  0  0  0  0  0  0  0  0
   37.8230   22.5730   36.2650 N   0  0  0  0  0  0  0  0  0  0  0  0
   39.0520   25.6770   36.7940 H   0  0  0  0  0  0  0  0  0  0  0  0
   37.5750   21.6640   34.3820 H   0  0  0  0  0  0  0  0  0  0  0  0
   39.3160   25.8960   34.0890 C   0  0  0  0  0  3  0  0  0  0  0  0
   40.7110   26.3050   34.4480 C   0  0  0  0  0  3  0  0  0  0  0  0
   40.8390   26.6850   35.4780 H   0  0  0  0  0  0  0  0  0  0  0  0
   41.0830   27.4010   33.4480 C   0  0  0  0  0  3  0  0  0  0  0  0
   42.0010   27.9410   33.7500 H   0  0  0  0  0  0  0  0  0  0  0  0
   41.1910   26.8390   32.1700 O   0  0  0  0  0  0  0  0  0  0  0  0
   39.9170   26.4950   31.7280 C   0  0  0  0  0  3  0  0  0  0  0  0
   39.2020   27.3360   31.7090 H   0  0  0  0  0  0  0  0  0  0  0  0
   39.3480   25.4450   32.6440 C   0  0  0  0  0  3  0  0  0  0  0  0
   39.9780   24.5310   32.6270 H   0  0  0  0  0  0  0  0  0  0  0  0
   38.1410   23.6990   38.4370 C   0  0  0  0  0  0  0  0  0  0  0  0
   37.8410   25.0000   38.8400 F   0  0  0  0  0  0  0  0  0  0  0  0
   37.2280   22.7760   38.8430 F   0  0  0  0  0  0  0  0  0  0  0  0
   39.4090   23.4190   38.9320 F   0  0  0  0  0  0  0  0  0  0  0  0
  1 19  1  0  0  0  0
  2  7  1  0  0  0  0
  2  1  1  0  0  0  0
  3  2  2  0  0  0  0
  4  3  1  0  0  0  0
  4  5  2  0  0  0  0
  5  6  1  0  0  0  0
  6  1  2  0  0  0  0
  8  5  1  0  0  0  0
  9 10  1  0  0  0  0
  9  3  1  0  0  0  0
 10 11  1  0  0  0  0
 12 13  1  0  0  0  0
 12 10  1  0  0  0  0
 14 12  1  0  0  0  0
 15 14  1  0  0  0  0
 15 17  1  0  0  0  0
 16 15  1  0  0  0  0
 17  9  1  0  0  0  0
 18 17  1  0  0  0  0
 19 20  1  0  0  0  0
 19 21  1  0  0  0  0
 19 22  1  0  0  0  0
M  END
>  <minimizedAffinity>
-4.51706219

$$$$

 OpenBabel03272504133D

 22 23  0  0  0  0  0  0  0  0999 V2000
   37.7210   27.2040   34.7020 C   0  0  0  0  0  0  0  0  0  0  0  0
   37.0250   28.3570   35.0770 C   0  0  0  0  0  0  0  0  0  0  0  0
   36.1120   28.8960   34.1640 C   0  0  0  0  0  0  0  0  0  0  0  0
   35.9520   28.2700   32.9710 N   0  0  0  0  0  0  0  0  0  0  0  0
   36.6440   27.1550   32.6440 C   0  0  0  0  0  0  0  0  0  0  0  0
   37.5310   26.6230   33.5140 N   0  0  0  0  0  0  0  0  0  0  0  0
   37.1540   28.8530   36.0270 H   0  0  0  0  0  0  0  0  0  0  0  0
   36.5010   26.6690   31.6790 H   0  0  0  0  0  0  0  0  0  0  0  0
   35.3180   30.1190   34.4580 C   0  0  0  0  0  3  0  0  0  0  0  0
   33.9000   29.8420   34.8520 C   0  0  0  0  0  3  0  0  0  0  0  0
   33.2800   29.3650   34.0710 H   0  0  0  0  0  0  0  0  0  0  0  0
   33.3070   31.2040   35.2180 C   0  0  0  0  0  3  0  0  0  0  0  0
   32.2050   31.1630   35.3060 H   0  0  0  0  0  0  0  0  0  0  0  0
   33.9190   31.6720   36.3860 O   0  0  0  0  0  0  0  0  0  0  0  0
   35.2320   32.0250   36.0880 C   0  0  0  0  0  3  0  0  0  0  0  0
   35.3280   32.7770   35.2860 H   0  0  0  0  0  0  0  0  0  0  0  0
   35.9790   30.7960   35.6400 C   0  0  0  0  0  3  0  0  0  0  0  0
   36.0000   30.0370   36.4510 H   0  0  0  0  0  0  0  0  0  0  0  0
   38.7010   26.6320   35.6860 C   0  0  0  0  0  0  0  0  0  0  0  0
   38.6330   25.2410   35.6400 F   0  0  0  0  0  0  0  0  0  0  0  0
   39.9350   27.1290   35.3980 F   0  0  0  0  0  0  0  0  0  0  0  0
   38.2830   27.0030   36.9580 F   0  0  0  0  0  0  0  0  0  0  0  0
  1  2  1  0  0  0  0
  1 19  1  0  0  0  0
  2  7  1  0  0  0  0
  3  9  1  0  0  0  0
  3  2  2  0  0  0  0
  4  3  1  0  0  0  0
  5  4  2  0  0  0  0
  5  6  1  0  0  0  0
  6  1  2  0  0  0  0
  8  5  1  0  0  0  0
  9 10  1  0  0  0  0
  9 17  1  0  0  0  0
 10 12  1  0  0  0  0
 11 10  1  0  0  0  0
 12 13  1  0  0  0  0
 12 14  1  0  0  0  0
 15 14  1  0  0  0  0
 16 15  1  0  0  0  0
 17 15  1  0  0  0  0
 17 18  1  0  0  0  0
 19 22  1  0  0  0  0
 20 19  1  0  0  0  0
 21 19  1  0  0  0  0
M  END
>  <minimizedAffinity>
-4.44872427

$$$$

 OpenBabel03272504133D

 22 23  0  0  0  0  0  0  0  0999 V2000
   36.6370   27.7080   34.0130 C   0  0  0  0  0  0  0  0  0  0  0  0
   37.2840   27.1010   35.0940 C   0  0  0  0  0  0  0  0  0  0  0  0
   37.8610   25.8430   34.8890 C   0  0  0  0  0  0  0  0  0  0  0  0
   37.7610   25.2850   33.6570 N   0  0  0  0  0  0  0  0  0  0  0  0
   37.1270   25.9030   32.6350 C   0  0  0  0  0  0  0  0  0  0  0  0
   36.5640   27.1170   32.8160 N   0  0  0  0  0  0  0  0  0  0  0  0
   37.3620   27.5490   36.0730 H   0  0  0  0  0  0  0  0  0  0  0  0
   37.0580   25.4350   31.6520 H   0  0  0  0  0  0  0  0  0  0  0  0
   38.5730   25.1080   35.9680 C   0  0  0  0  0  3  0  0  0  0  0  0
   37.6740   24.2830   36.8360 C   0  0  0  0  0  3  0  0  0  0  0  0
   36.9300   24.8550   37.4190 H   0  0  0  0  0  0  0  0  0  0  0  0
   38.6060   23.5320   37.7890 C   0  0  0  0  0  3  0  0  0  0  0  0
   38.0520   23.0660   38.6250 H   0  0  0  0  0  0  0  0  0  0  0  0
   39.3550   22.6010   37.0600 O   0  0  0  0  0  0  0  0  0  0  0  0
   40.2740   23.2890   36.2740 C   0  0  0  0  0  3  0  0  0  0  0  0
   40.9500   23.9520   36.8430 H   0  0  0  0  0  0  0  0  0  0  0  0
   39.5290   24.1500   35.2880 C   0  0  0  0  0  3  0  0  0  0  0  0
   38.9030   23.5230   34.6190 H   0  0  0  0  0  0  0  0  0  0  0  0
   36.0190   29.0580   34.2400 C   0  0  0  0  0  0  0  0  0  0  0  0
   36.6110   29.6470   35.3560 F   0  0  0  0  0  0  0  0  0  0  0  0
   36.1560   29.7870   33.1000 F   0  0  0  0  0  0  0  0  0  0  0  0
   34.6830   28.8580   34.5640 F   0  0  0  0  0  0  0  0  0  0  0  0
  1 19  1  0  0  0  0
  1  2  1  0  0  0  0
  2  7  1  0  0  0  0
  3  2  2  0  0  0  0
  3  9  1  0  0  0  0
  4  3  1  0  0  0  0
  5  6  1  0  0  0  0
  5  4  2  0  0  0  0
  6  1  2  0  0  0  0
  8  5  1  0  0  0  0
  9 10  1  0  0  0  0
 10 11  1  0  0  0  0
 10 12  1  0  0  0  0
 12 13  1  0  0  0  0
 14 12  1  0  0  0  0
 15 16  1  0  0  0  0
 15 14  1  0  0  0  0
 17  9  1  0  0  0  0
 17 15  1  0  0  0  0
 18 17  1  0  0  0  0
 19 22  1  0  0  0  0
 19 20  1  0  0  0  0
 21 19  1  0  0  0  0
M  END
>  <minimizedAffinity>
-4.4309535

$$$$
