
 OpenBabel03272505283D

 32 34  0  0  0  0  0  0  0  0999 V2000
   37.3880   31.0730   47.1270 N   0  0  0  0  0  0  0  0  0  0  0  0
   36.8040   30.7370   45.9460 C   0  0  0  0  0  0  0  0  0  0  0  0
   37.2710   31.2200   44.7300 C   0  0  0  0  0  0  0  0  0  0  0  0
   38.3830   32.0790   44.7640 C   0  0  0  0  0  0  0  0  0  0  0  0
   38.8370   32.5370   43.6910 O   0  0  0  0  0  0  0  0  0  0  0  0
   38.9640   32.4100   45.9610 N   0  0  0  0  0  0  0  0  0  0  0  0
   38.4230   31.8830   47.0510 C   0  0  0  0  0  0  0  0  0  0  0  0
   38.9820   32.2130   48.1240 O   0  0  0  0  0  0  0  0  0  0  0  0
   35.9470   30.0730   45.9450 H   0  0  0  0  0  0  0  0  0  0  0  0
   36.6090   30.8310   43.4940 C   0  0  0  0  0  3  0  0  0  0  0  0
   35.0920   30.8780   43.5830 C   0  0  0  0  0  3  0  0  0  0  0  0
   34.7350   30.0910   44.2980 H   0  0  0  0  0  0  0  0  0  0  0  0
   34.5650   30.4800   42.2220 C   0  0  0  0  0  3  0  0  0  0  0  0
   34.1040   29.4610   42.2260 H   0  0  0  0  0  0  0  0  0  0  0  0
   35.5450   30.4500   41.2410 O   0  0  0  0  0  0  0  0  0  0  0  0
   36.5220   29.4980   41.4810 C   0  0  0  0  0  3  0  0  0  0  0  0
   36.2320   28.5020   41.1310 H   0  0  0  0  0  0  0  0  0  0  0  0
   36.9700   29.4860   42.9490 C   0  0  0  0  0  3  0  0  0  0  0  0
   38.0480   29.2430   43.0350 H   0  0  0  0  0  0  0  0  0  0  0  0
   37.2260   29.4610   50.4660 C   0  0  0  0  0  0  0  0  0  0  0  0
   37.7180   29.9530   49.2460 C   0  0  0  0  0  0  0  0  0  0  0  0
   36.8990   30.5770   48.3400 C   0  0  0  0  0  0  0  0  0  0  0  0
   35.5780   30.7050   48.6630 N   0  0  0  0  0  0  0  0  0  0  0  0
   35.0790   30.2350   49.8380 C   0  0  0  0  0  0  0  0  0  0  0  0
   35.8950   29.6160   50.7370 N   0  0  0  0  0  0  0  0  0  0  0  0
   37.8060   28.9640   51.2210 H   0  0  0  0  0  0  0  0  0  0  0  0
   38.7640   29.7490   49.1740 H   0  0  0  0  0  0  0  0  0  0  0  0
   34.0220   30.3780   50.0130 H   0  0  0  0  0  0  0  0  0  0  0  0
   40.1160   33.2920   45.9890 C   0  0  0  0  0  0  0  0  0  0  0  0
   39.9920   34.2670   45.0550 F   0  0  0  0  0  0  0  0  0  0  0  0
   41.2970   32.6290   45.7040 F   0  0  0  0  0  0  0  0  0  0  0  0
   40.1880   33.8960   47.2380 F   0  0  0  0  0  0  0  0  0  0  0  0
  1 22  1  0  0  0  0
  2  1  1  0  0  0  0
  3  4  1  0  0  0  0
  3  2  2  0  0  0  0
  4  6  1  0  0  0  0
  5  4  2  0  0  0  0
  6 29  1  0  0  0  0
  6  7  1  0  0  0  0
  7  1  1  0  0  0  0
  7  8  2  0  0  0  0
  9  2  1  0  0  0  0
 10 11  1  0  0  0  0
 10  3  1  0  0  0  0
 11 12  1  0  0  0  0
 13 14  1  0  0  0  0
 13 11  1  0  0  0  0
 15 16  1  0  0  0  0
 15 13  1  0  0  0  0
 16 18  1  0  0  0  0
 17 16  1  0  0  0  0
 18 19  1  0  0  0  0
 18 10  1  0  0  0  0
 20 25  1  0  0  0  0
 20 26  1  0  0  0  0
 21 20  2  0  0  0  0
 22 23  2  0  0  0  0
 22 21  1  0  0  0  0
 23 24  1  0  0  0  0
 24 28  1  0  0  0  0
 24 25  2  0  0  0  0
 27 21  1  0  0  0  0
 29 32  1  0  0  0  0
 30 29  1  0  0  0  0
 31 29  1  0  0  0  0
M  END
>  <minimizedAffinity>
-6.10117388

>  <minimizedRMSD>
0.336690545

$$$$
