
 OpenBabel03272509503D

 34 36  0  0  0  0  0  0  0  0999 V2000
   37.1490   30.2160   51.3380 C   0  0  0  0  0  0  0  0  0  0  0  0
   37.8790   30.6030   50.1920 C   0  0  0  0  0  0  0  0  0  0  0  0
   37.4160   30.1600   48.9650 C   0  0  0  0  0  0  0  0  0  0  0  0
   36.2860   29.3760   48.9280 N   0  0  0  0  0  0  0  0  0  0  0  0
   35.6260   29.0340   50.0380 C   0  0  0  0  0  0  0  0  0  0  0  0
   36.0600   29.4550   51.2370 N   0  0  0  0  0  0  0  0  0  0  0  0
   37.4520   30.5250   52.3300 H   0  0  0  0  0  0  0  0  0  0  0  0
   38.7610   31.2230   50.2970 H   0  0  0  0  0  0  0  0  0  0  0  0
   38.1650   30.5540   47.7460 C   0  0  0  0  0  3  0  0  0  0  0  0
   38.7950   31.8910   47.8880 C   0  0  0  0  0  3  0  0  0  0  0  0
   38.1410   32.6660   48.3170 H   0  0  0  0  0  0  0  0  0  0  0  0
   39.1900   32.4170   46.5220 C   0  0  0  0  0  3  0  0  0  0  0  0
   39.8960   31.7610   45.9810 H   0  0  0  0  0  0  0  0  0  0  0  0
   37.9840   32.5900   45.8160 O   0  0  0  0  0  0  0  0  0  0  0  0
   37.5890   31.3140   45.4240 C   0  0  0  0  0  3  0  0  0  0  0  0
   36.6950   31.4200   44.7750 H   0  0  0  0  0  0  0  0  0  0  0  0
   37.2060   30.4470   46.5910 C   0  0  0  0  0  3  0  0  0  0  0  0
   36.1870   30.7050   46.9490 H   0  0  0  0  0  0  0  0  0  0  0  0
   34.5340   28.2510   49.7570 O   0  0  0  0  0  0  0  0  0  0  0  0
   33.7220   28.5850   48.6400 C   0  0  0  0  0  0  0  0  0  0  0  0
   34.3860   28.8700   47.8000 H   0  0  0  0  0  0  0  0  0  0  0  0
   33.1410   29.4970   48.8810 H   0  0  0  0  0  0  0  0  0  0  0  0
   32.7960   27.4590   48.3120 C   0  0  0  0  0  0  0  0  0  0  0  0
   33.0650   27.1040   47.2800 H   0  0  0  0  0  0  0  0  0  0  0  0
   32.9460   26.6230   49.0240 H   0  0  0  0  0  0  0  0  0  0  0  0
   31.3580   27.8650   48.3220 C   0  0  0  0  0  0  0  0  0  0  0  0
   30.6920   27.7240   49.5190 C   0  0  0  0  0  0  0  0  0  0  0  0
   29.3670   28.0630   49.6530 C   0  0  0  0  0  0  0  0  0  0  0  0
   28.7050   28.5430   48.5920 N   0  0  0  0  0  0  0  0  0  0  0  0
   29.3700   28.6740   47.4300 C   0  0  0  0  0  0  0  0  0  0  0  0
   30.6630   28.3510   47.2710 N   0  0  0  0  0  0  0  0  0  0  0  0
   31.1720   27.3390   50.4230 H   0  0  0  0  0  0  0  0  0  0  0  0
   28.8050   27.9680   50.5810 H   0  0  0  0  0  0  0  0  0  0  0  0
   28.8820   29.0620   46.5240 H   0  0  0  0  0  0  0  0  0  0  0  0
  1  7  1  0  0  0  0
  2  8  1  0  0  0  0
  2  1  2  0  0  0  0
  3  2  1  0  0  0  0
  4  3  2  0  0  0  0
  4  5  1  0  0  0  0
  5  6  2  0  0  0  0
  6  1  1  0  0  0  0
  9 10  1  0  0  0  0
  9  3  1  0  0  0  0
 10 11  1  0  0  0  0
 12 10  1  0  0  0  0
 13 12  1  0  0  0  0
 14 12  1  0  0  0  0
 15 14  1  0  0  0  0
 15 17  1  0  0  0  0
 16 15  1  0  0  0  0
 17 18  1  0  0  0  0
 17  9  1  0  0  0  0
 19  5  1  0  0  0  0
 20 22  1  0  0  0  0
 20 19  1  0  0  0  0
 21 20  1  0  0  0  0
 23 26  1  0  0  0  0
 23 20  1  0  0  0  0
 23 25  1  0  0  0  0
 24 23  1  0  0  0  0
 26 27  1  0  0  0  0
 27 28  2  0  0  0  0
 27 32  1  0  0  0  0
 28 33  1  0  0  0  0
 29 28  1  0  0  0  0
 30 29  2  0  0  0  0
 31 30  1  0  0  0  0
 31 26  2  0  0  0  0
 34 30  1  0  0  0  0
M  END
>  <minimizedAffinity>
-5.7837944

>  <minimizedRMSD>
0.711250305

$$$$
