
 OpenBabel03272507133D

 41 45  0  0  0  0  0  0  0  0999 V2000
   35.9570   29.1600   49.7470 C   0  0  0  0  0  0  0  0  0  0  0  0
   34.9480   29.7250   50.4460 C   0  0  0  0  0  0  0  0  0  0  0  0
   33.7610   29.1740   49.9570 C   0  0  0  0  0  0  0  0  0  0  0  0
   34.1490   28.2750   48.9540 C   0  0  0  0  0  0  0  0  0  0  0  0
   35.4430   28.3190   48.8870 O   0  0  0  0  0  0  0  0  0  0  0  0
   34.9810   30.4770   51.2520 H   0  0  0  0  0  0  0  0  0  0  0  0
   32.7760   29.4570   50.3510 H   0  0  0  0  0  0  0  0  0  0  0  0
   33.5540   26.5340   47.2730 C   0  0  0  0  0  0  0  0  0  0  0  0
   33.1710   27.4940   48.2010 C   0  0  0  0  0  0  0  0  0  0  0  0
   31.8360   27.7540   48.4580 C   0  0  0  0  0  0  0  0  0  0  0  0
   30.8950   27.0340   47.7680 C   0  0  0  0  0  0  0  0  0  0  0  0
   29.5500   27.0640   47.8100 N   0  0  0  0  0  0  0  0  0  0  0  0
   29.1040   26.1590   46.9430 N   0  0  0  0  0  0  0  0  0  0  0  0
   30.1370   25.5540   46.3510 C   0  0  0  0  0  0  0  0  0  0  0  0
   31.3270   26.0830   46.8490 C   0  0  0  0  0  0  0  0  0  0  0  0
   32.6470   25.8090   46.5790 C   0  0  0  0  0  0  0  0  0  0  0  0
   34.6220   26.4010   47.1400 H   0  0  0  0  0  0  0  0  0  0  0  0
   31.4690   28.4910   49.1700 H   0  0  0  0  0  0  0  0  0  0  0  0
   28.9250   27.6660   48.3950 H   0  0  0  0  0  0  0  0  0  0  0  0
   30.1280   24.7590   45.5880 H   0  0  0  0  0  0  0  0  0  0  0  0
   32.9160   25.0690   45.8650 H   0  0  0  0  0  0  0  0  0  0  0  0
   37.3540   29.5020   49.9900 C   0  0  0  0  0  0  0  0  0  0  0  0
   38.0430   28.7560   50.7290 O   0  0  0  0  0  0  0  0  0  0  0  0
   37.8690   30.6910   49.3570 C   0  0  0  0  0  0  0  0  0  0  0  0
   38.1430   31.7770   50.1610 C   0  0  0  0  0  0  0  0  0  0  0  0
   38.6390   32.9410   49.5920 C   0  0  0  0  0  0  0  0  0  0  0  0
   38.8290   32.9400   48.2500 N   0  0  0  0  0  0  0  0  0  0  0  0
   38.5620   31.8890   47.4800 C   0  0  0  0  0  0  0  0  0  0  0  0
   38.0860   30.7770   48.0410 N   0  0  0  0  0  0  0  0  0  0  0  0
   38.0000   31.8080   51.2510 H   0  0  0  0  0  0  0  0  0  0  0  0
   38.8610   33.7960   50.1880 H   0  0  0  0  0  0  0  0  0  0  0  0
   38.7660   31.8750   46.0030 C   0  0  0  0  0  3  0  0  0  0  0  0
   39.7560   32.9190   45.5460 C   0  0  0  0  0  3  0  0  0  0  0  0
   40.8050   32.6440   45.8420 H   0  0  0  0  0  0  0  0  0  0  0  0
   39.6030   33.0050   44.0410 C   0  0  0  0  0  3  0  0  0  0  0  0
   40.3740   33.6550   43.5820 H   0  0  0  0  0  0  0  0  0  0  0  0
   39.4890   31.7740   43.4510 O   0  0  0  0  0  0  0  0  0  0  0  0
   39.9950   30.7200   44.2030 C   0  0  0  0  0  3  0  0  0  0  0  0
   39.8510   29.7980   43.6030 H   0  0  0  0  0  0  0  0  0  0  0  0
   39.2590   30.5380   45.5040 C   0  0  0  0  0  3  0  0  0  0  0  0
   39.9760   30.0690   46.2250 H   0  0  0  0  0  0  0  0  0  0  0  0
  1 22  1  0  0  0  0
  1  2  2  0  0  0  0
  2  6  1  0  0  0  0
  3  7  1  0  0  0  0
  3  2  1  0  0  0  0
  4  3  2  0  0  0  0
  5  4  1  0  0  0  0
  5  1  1  0  0  0  0
  8  9  1  0  0  0  0
  9 10  2  0  0  0  0
  9  4  1  0  0  0  0
 10 18  1  0  0  0  0
 11 12  1  0  0  0  0
 11 10  1  0  0  0  0
 12 19  1  0  0  0  0
 13 12  1  0  0  0  0
 14 15  1  0  0  0  0
 14 13  2  0  0  0  0
 15 11  2  0  0  0  0
 16 15  1  0  0  0  0
 16  8  2  0  0  0  0
 17  8  1  0  0  0  0
 20 14  1  0  0  0  0
 21 16  1  0  0  0  0
 22 23  2  0  0  0  0
 24 22  1  0  0  0  0
 24 25  1  0  0  0  0
 25 30  1  0  0  0  0
 26 25  2  0  0  0  0
 26 31  1  0  0  0  0
 27 26  1  0  0  0  0
 28 29  1  0  0  0  0
 28 27  2  0  0  0  0
 29 24  2  0  0  0  0
 32 28  1  0  0  0  0
 33 34  1  0  0  0  0
 33 32  1  0  0  0  0
 35 33  1  0  0  0  0
 36 35  1  0  0  0  0
 37 35  1  0  0  0  0
 37 38  1  0  0  0  0
 38 40  1  0  0  0  0
 39 38  1  0  0  0  0
 40 32  1  0  0  0  0
 40 41  1  0  0  0  0
M  END
>  <minimizedAffinity>
-7.01529646

>  <minimizedRMSD>
0.598949432

$$$$
