
 OpenBabel03272506583D

 29 31  0  0  0  0  0  0  0  0999 V2000
   39.1100   32.0510   46.5450 C   0  0  0  0  0  0  0  0  0  0  0  0
   39.3900   33.2070   47.2320 C   0  0  0  0  0  0  0  0  0  0  0  0
   39.1520   33.4500   48.5640 C   0  0  0  0  0  0  0  0  0  0  0  0
   38.5830   32.4280   49.2380 N   0  0  0  0  0  0  0  0  0  0  0  0
   38.2830   31.2540   48.5950 C   0  0  0  0  0  0  0  0  0  0  0  0
   38.5380   31.0570   47.2750 N   0  0  0  0  0  0  0  0  0  0  0  0
   39.8460   34.0030   46.6570 H   0  0  0  0  0  0  0  0  0  0  0  0
   39.4010   34.3860   49.0350 H   0  0  0  0  0  0  0  0  0  0  0  0
   37.6570   30.1840   49.4200 C   0  0  0  0  0  0  0  0  0  0  0  0
   36.2150   29.9360   49.0430 C   0  0  0  0  0  0  0  0  0  0  0  0
   35.6480   30.8890   49.2420 H   0  0  0  0  0  0  0  0  0  0  0  0
   35.6980   28.8330   49.9290 C   0  0  0  0  0  0  0  0  0  0  0  0
   36.4150   27.9800   49.8440 H   0  0  0  0  0  0  0  0  0  0  0  0
   35.6540   29.3280   51.2270 O   0  0  0  0  0  0  0  0  0  0  0  0
   36.9130   29.6210   51.7220 C   0  0  0  0  0  0  0  0  0  0  0  0
   36.7800   30.0780   52.7250 H   0  0  0  0  0  0  0  0  0  0  0  0
   37.6760   30.6010   50.8690 C   0  0  0  0  0  0  0  0  0  0  0  0
   37.3130   31.6230   50.9590 H   0  0  0  0  0  0  0  0  0  0  0  0
   40.2700   30.5870   43.4260 C   0  0  0  0  0  0  0  0  0  0  0  0
   39.9970   31.5570   42.4460 C   0  0  0  0  0  0  0  0  0  0  0  0
   39.3920   32.7440   42.9140 C   0  0  0  0  0  0  0  0  0  0  0  0
   39.1160   32.8820   44.2330 N   0  0  0  0  0  0  0  0  0  0  0  0
   39.4100   31.9000   45.1150 C   0  0  0  0  0  0  0  0  0  0  0  0
   39.9880   30.7360   44.7410 N   0  0  0  0  0  0  0  0  0  0  0  0
   40.7300   29.6920   43.0420 H   0  0  0  0  0  0  0  0  0  0  0  0
   39.1620   33.5220   42.1970 H   0  0  0  0  0  0  0  0  0  0  0  0
   40.3080   31.3580   41.0820 N   0  0  0  0  0  0  0  0  0  0  0  0
   40.4460   32.2270   40.5150 H   0  0  0  0  0  0  0  0  0  0  0  0
   40.3700   30.3790   40.7790 H   0  0  0  0  0  0  0  0  0  0  0  0
  1  2  2  0  0  0  0
  1  6  1  0  0  0  0
  2  3  1  0  0  0  0
  3  8  1  0  0  0  0
  3  4  2  0  0  0  0
  5  4  1  0  0  0  0
  5  9  1  0  0  0  0
  6  5  2  0  0  0  0
  7  2  1  0  0  0  0
  9 17  1  0  0  0  0
 10 11  1  0  0  0  0
 10  9  1  0  0  0  0
 10 12  1  0  0  0  0
 12 14  1  0  0  0  0
 13 12  1  0  0  0  0
 14 15  1  0  0  0  0
 15 16  1  0  0  0  0
 17 18  1  0  0  0  0
 17 15  1  0  0  0  0
 19 24  1  0  0  0  0
 20 21  1  0  0  0  0
 20 19  2  0  0  0  0
 21 22  2  0  0  0  0
 22 23  1  0  0  0  0
 23  1  1  0  0  0  0
 24 23  2  0  0  0  0
 25 19  1  0  0  0  0
 26 21  1  0  0  0  0
 27 20  1  0  0  0  0
 28 27  1  0  0  0  0
 29 27  1  0  0  0  0
M  END
>  <minimizedAffinity>
-6.13951683

>  <minimizedRMSD>
7.22836781

$$$$
