
 OpenBabel03272501583D

 32 34  0  0  0  0  0  0  0  0999 V2000
   32.8940   28.2810   47.8890 C   0  0  0  0  0  0  0  0  0  0  0  0
   32.1180   27.5650   48.7570 C   0  0  0  0  0  0  0  0  0  0  0  0
   30.7820   27.5980   48.3900 C   0  0  0  0  0  0  0  0  0  0  0  0
   30.7960   28.3670   47.2640 N   0  0  0  0  0  0  0  0  0  0  0  0
   32.0280   28.7540   46.9890 N   0  0  0  0  0  0  0  0  0  0  0  0
   32.5190   27.0360   49.6290 H   0  0  0  0  0  0  0  0  0  0  0  0
   29.9320   27.1240   48.8840 H   0  0  0  0  0  0  0  0  0  0  0  0
   29.5790   28.6820   46.5130 C   0  0  0  0  0  3  0  0  0  0  0  0
   28.5450   29.2420   47.4230 C   0  0  0  0  0  3  0  0  0  0  0  0
   28.1530   30.2400   47.0860 H   0  0  0  0  0  0  0  0  0  0  0  0
   27.3660   28.3640   47.6920 C   0  0  0  0  0  3  0  0  0  0  0  0
   27.5300   27.6160   48.4900 H   0  0  0  0  0  0  0  0  0  0  0  0
   26.9230   27.8200   46.5100 O   0  0  0  0  0  0  0  0  0  0  0  0
   27.8710   26.8860   46.1190 C   0  0  0  0  0  3  0  0  0  0  0  0
   28.0300   26.1100   46.8970 H   0  0  0  0  0  0  0  0  0  0  0  0
   29.1650   27.5190   45.6860 C   0  0  0  0  0  3  0  0  0  0  0  0
   29.9420   26.7250   45.7120 H   0  0  0  0  0  0  0  0  0  0  0  0
   34.3830   28.4550   47.9870 C   0  0  0  0  0  0  0  0  0  0  0  0
   34.8140   27.6030   47.4260 H   0  0  0  0  0  0  0  0  0  0  0  0
   34.6570   29.4310   47.5720 H   0  0  0  0  0  0  0  0  0  0  0  0
   34.7320   28.2780   49.4470 C   0  0  0  0  0  0  0  0  0  0  0  0
   35.0510   27.2270   49.6540 H   0  0  0  0  0  0  0  0  0  0  0  0
   33.8730   28.5050   50.1120 H   0  0  0  0  0  0  0  0  0  0  0  0
   37.2480   30.1730   51.3830 C   0  0  0  0  0  0  0  0  0  0  0  0
   38.0530   30.7150   50.3770 C   0  0  0  0  0  0  0  0  0  0  0  0
   37.7320   30.4280   49.0280 C   0  0  0  0  0  0  0  0  0  0  0  0
   36.6530   29.6380   48.7900 N   0  0  0  0  0  0  0  0  0  0  0  0
   35.9020   29.1370   49.7920 C   0  0  0  0  0  0  0  0  0  0  0  0
   36.1970   29.4020   51.0690 N   0  0  0  0  0  0  0  0  0  0  0  0
   37.4220   30.3420   52.4420 H   0  0  0  0  0  0  0  0  0  0  0  0
   38.8950   31.3340   50.6560 H   0  0  0  0  0  0  0  0  0  0  0  0
   38.3500   30.8410   48.2500 H   0  0  0  0  0  0  0  0  0  0  0  0
  1 18  1  0  0  0  0
  1  2  1  0  0  0  0
  2  6  1  0  0  0  0
  3  2  2  0  0  0  0
  3  7  1  0  0  0  0
  4  3  1  0  0  0  0
  5  4  1  0  0  0  0
  5  1  2  0  0  0  0
  8  4  1  0  0  0  0
  8  9  1  0  0  0  0
  9 11  1  0  0  0  0
 10  9  1  0  0  0  0
 11 12  1  0  0  0  0
 13 11  1  0  0  0  0
 14 13  1  0  0  0  0
 14 15  1  0  0  0  0
 16 17  1  0  0  0  0
 16 14  1  0  0  0  0
 16  8  1  0  0  0  0
 18 21  1  0  0  0  0
 19 18  1  0  0  0  0
 20 18  1  0  0  0  0
 21 22  1  0  0  0  0
 21 28  1  0  0  0  0
 21 23  1  0  0  0  0
 24 30  1  0  0  0  0
 25 31  1  0  0  0  0
 25 24  2  0  0  0  0
 26 25  1  0  0  0  0
 27 26  2  0  0  0  0
 27 28  1  0  0  0  0
 28 29  2  0  0  0  0
 29 24  1  0  0  0  0
 32 26  1  0  0  0  0
M  END
>  <minimizedAffinity>
-5.03921747

>  <minimizedRMSD>
0.98125428

$$$$
