
 OpenBabel03272501583D

 32 34  0  0  0  0  0  0  0  0999 V2000
   32.9470   28.2160   47.8200 C   0  0  0  0  0  0  0  0  0  0  0  0
   32.0230   27.5030   48.5310 C   0  0  0  0  0  0  0  0  0  0  0  0
   30.7360   27.7410   48.0730 C   0  0  0  0  0  0  0  0  0  0  0  0
   30.9350   28.6280   47.0570 N   0  0  0  0  0  0  0  0  0  0  0  0
   32.2230   28.8910   46.9240 N   0  0  0  0  0  0  0  0  0  0  0  0
   32.2830   26.8330   49.3570 H   0  0  0  0  0  0  0  0  0  0  0  0
   29.7980   27.3200   48.4390 H   0  0  0  0  0  0  0  0  0  0  0  0
   29.8330   29.1730   46.2620 C   0  0  0  0  0  3  0  0  0  0  0  0
   28.8590   28.1000   45.9320 C   0  0  0  0  0  3  0  0  0  0  0  0
   27.8080   28.3440   46.2450 H   0  0  0  0  0  0  0  0  0  0  0  0
   28.8140   27.6740   44.4990 C   0  0  0  0  0  3  0  0  0  0  0  0
   29.5860   26.9320   44.2230 H   0  0  0  0  0  0  0  0  0  0  0  0
   28.8070   28.7890   43.6940 O   0  0  0  0  0  0  0  0  0  0  0  0
   30.0730   29.3470   43.7710 C   0  0  0  0  0  3  0  0  0  0  0  0
   30.8600   28.6240   43.4690 H   0  0  0  0  0  0  0  0  0  0  0  0
   30.3580   29.9580   45.1140 C   0  0  0  0  0  3  0  0  0  0  0  0
   31.4610   30.0740   45.1940 H   0  0  0  0  0  0  0  0  0  0  0  0
   34.4320   28.1950   48.0490 C   0  0  0  0  0  0  0  0  0  0  0  0
   34.7620   27.1870   47.7290 H   0  0  0  0  0  0  0  0  0  0  0  0
   34.8940   29.0050   47.4750 H   0  0  0  0  0  0  0  0  0  0  0  0
   34.6290   28.2970   49.5440 C   0  0  0  0  0  0  0  0  0  0  0  0
   34.8390   27.2940   49.9860 H   0  0  0  0  0  0  0  0  0  0  0  0
   33.7330   28.7090   50.0550 H   0  0  0  0  0  0  0  0  0  0  0  0
   37.2440   30.1700   51.3660 C   0  0  0  0  0  0  0  0  0  0  0  0
   38.0350   30.6680   50.3260 C   0  0  0  0  0  0  0  0  0  0  0  0
   37.6690   30.3580   48.9930 C   0  0  0  0  0  0  0  0  0  0  0  0
   36.5650   29.5920   48.8030 N   0  0  0  0  0  0  0  0  0  0  0  0
   35.8290   29.1340   49.8370 C   0  0  0  0  0  0  0  0  0  0  0  0
   36.1670   29.4200   51.0980 N   0  0  0  0  0  0  0  0  0  0  0  0
   37.4520   30.3590   52.4150 H   0  0  0  0  0  0  0  0  0  0  0  0
   38.9000   31.2710   50.5670 H   0  0  0  0  0  0  0  0  0  0  0  0
   38.2750   30.7380   48.1890 H   0  0  0  0  0  0  0  0  0  0  0  0
  1 18  1  0  0  0  0
  1  2  1  0  0  0  0
  2  6  1  0  0  0  0
  3  7  1  0  0  0  0
  3  2  2  0  0  0  0
  4  3  1  0  0  0  0
  5  4  1  0  0  0  0
  5  1  2  0  0  0  0
  8  4  1  0  0  0  0
  9 10  1  0  0  0  0
  9  8  1  0  0  0  0
 11  9  1  0  0  0  0
 12 11  1  0  0  0  0
 13 14  1  0  0  0  0
 13 11  1  0  0  0  0
 14 16  1  0  0  0  0
 15 14  1  0  0  0  0
 16 17  1  0  0  0  0
 16  8  1  0  0  0  0
 18 21  1  0  0  0  0
 19 18  1  0  0  0  0
 20 18  1  0  0  0  0
 21 28  1  0  0  0  0
 21 22  1  0  0  0  0
 21 23  1  0  0  0  0
 24 30  1  0  0  0  0
 25 31  1  0  0  0  0
 25 24  2  0  0  0  0
 26 25  1  0  0  0  0
 27 26  2  0  0  0  0
 27 28  1  0  0  0  0
 28 29  2  0  0  0  0
 29 24  1  0  0  0  0
 32 26  1  0  0  0  0
M  END
>  <minimizedAffinity>
-4.54189539

>  <minimizedRMSD>
0.0868942067

$$$$
