
 OpenBabel03272509403D

 36 38  0  0  1  0  0  0  0  0999 V2000
   37.0610   30.9600   49.0590 C   0  0  0  0  0  0  0  0  0  0  0  0
   36.8090   31.9060   50.0570 C   0  0  0  0  0  0  0  0  0  0  0  0
   37.4250   33.1410   50.0770 C   0  0  0  0  0  0  0  0  0  0  0  0
   38.3350   33.4810   49.0760 C   0  0  0  0  0  0  0  0  0  0  0  0
   38.5730   32.5450   48.1030 C   0  0  0  0  0  0  0  0  0  0  0  0
   37.9510   31.3170   48.0970 C   0  0  0  0  0  0  0  0  0  0  0  0
   36.0980   31.6510   50.8470 H   0  0  0  0  0  0  0  0  0  0  0  0
   37.1810   33.8230   50.8810 H   0  0  0  0  0  0  0  0  0  0  0  0
   38.8040   34.4430   49.1060 H   0  0  0  0  0  0  0  0  0  0  0  0
   39.2890   32.8720   47.3570 H   0  0  0  0  0  0  0  0  0  0  0  0
   36.3650   29.6920   49.1260 C   0  0  1  0  0  3  0  0  0  0  0  0
   36.8860   28.8400   49.9440 O   0  0  0  0  0  1  0  0  0  0  0  0
   33.6040   30.1560   46.8220 C   0  0  0  0  0  0  0  0  0  0  0  0
   32.9440   28.9340   46.8360 C   0  0  0  0  0  0  0  0  0  0  0  0
   33.4480   27.9280   47.6460 C   0  0  0  0  0  0  0  0  0  0  0  0
   34.5580   28.1670   48.3930 N   0  0  0  0  0  0  0  0  0  0  0  0
   35.1660   29.3460   48.3580 C   0  0  0  0  0  0  0  0  0  0  0  0
   34.6860   30.3270   47.5760 N   0  0  0  0  0  0  0  0  0  0  0  0
   33.2230   30.9420   46.1980 H   0  0  0  0  0  0  0  0  0  0  0  0
   32.0650   28.7890   46.2250 H   0  0  0  0  0  0  0  0  0  0  0  0
   32.9650   26.9670   47.6840 H   0  0  0  0  0  0  0  0  0  0  0  0
   38.3040   30.4350   47.0040 C   0  0  0  0  0  3  0  0  0  0  0  0
   38.9390   30.7870   45.8990 C   0  0  0  0  0  3  0  0  0  0  0  0
   39.3570   30.0190   44.7300 C   0  0  0  0  0  0  0  0  0  0  0  0
   38.6250   29.1920   44.5210 H   0  0  0  0  0  0  0  0  0  0  0  0
   40.3110   29.5010   44.9430 H   0  0  0  0  0  0  0  0  0  0  0  0
   39.4920   30.8060   43.4700 C   0  0  0  0  0  3  0  0  0  0  0  0
   39.0260   32.2380   43.7220 C   0  0  0  0  0  3  0  0  0  0  0  0
   37.9430   32.2660   43.9630 H   0  0  0  0  0  0  0  0  0  0  0  0
   39.2420   33.1000   42.4990 C   0  0  0  0  0  3  0  0  0  0  0  0
   40.2910   33.2510   42.2450 H   0  0  0  0  0  0  0  0  0  0  0  0
   38.4830   32.5200   41.4670 O   0  0  0  0  0  0  0  0  0  0  0  0
   38.9870   31.2530   41.1610 C   0  0  0  0  0  3  0  0  0  0  0  0
   38.6310   30.8910   40.1990 H   0  0  0  0  0  0  0  0  0  0  0  0
   38.7320   30.2660   42.3110 C   0  0  0  0  0  3  0  0  0  0  0  0
   37.6460   30.2060   42.4670 H   0  0  0  0  0  0  0  0  0  0  0  0
  1 11  1  0  0  0  0
  1  2  1  0  0  0  0
  2  3  2  0  0  0  0
  2  7  1  0  0  0  0
  3  8  1  0  0  0  0
  4  9  1  0  0  0  0
  4  3  1  0  0  0  0
  5  4  2  0  0  0  0
  6  5  1  0  0  0  0
  6  1  2  0  0  0  0
 10  5  1  0  0  0  0
 11 12  1  1  0  0  0
 13 14  2  0  0  0  0
 13 18  1  0  0  0  0
 14 15  1  0  0  0  0
 15 21  1  0  0  0  0
 15 16  2  0  0  0  0
 17 16  1  0  0  0  0
 17 11  1  0  0  0  0
 18 17  2  0  0  0  0
 19 13  1  0  0  0  0
 20 14  1  0  0  0  0
 22  6  1  0  0  0  0
 23 22  2  0  0  0  0
 24 26  1  0  0  0  0
 24 23  1  0  0  0  0
 25 24  1  0  0  0  0
 27 28  1  0  0  0  0
 27 24  1  0  0  0  0
 28 29  1  0  0  0  0
 30 28  1  0  0  0  0
 31 30  1  0  0  0  0
 32 30  1  0  0  0  0
 33 32  1  0  0  0  0
 33 35  1  0  0  0  0
 34 33  1  0  0  0  0
 35 36  1  0  0  0  0
 35 27  1  0  0  0  0
M  END
>  <minimizedAffinity>
-5.88458157

>  <minimizedRMSD>
1.80965507

$$$$
