
 OpenBabel03262522433D

 26 28  0  0  1  0  0  0  0  0999 V2000
   37.7270   25.8830   35.8490 C   0  0  1  0  0  0  0  0  0  0  0  0
   38.3730   27.1730   35.6120 C   0  0  0  0  0  0  0  0  0  0  0  0
   38.0990   26.2840   34.4390 C   0  0  2  0  0  0  0  0  0  0  0  0
   36.6230   25.8840   36.0420 H   0  0  0  0  0  0  0  0  0  0  0  0
   37.7690   28.1120   35.5890 H   0  0  0  0  0  0  0  0  0  0  0  0
   39.4240   27.3500   35.8770 H   0  0  0  0  0  0  0  0  0  0  0  0
   38.9240   25.6610   34.0030 H   0  0  0  0  0  0  0  0  0  0  0  0
   36.9460   26.5620   33.5040 C   0  0  0  0  0  3  0  0  0  0  0  0
   36.9630   25.5110   32.4180 C   0  0  0  0  0  3  0  0  0  0  0  0
   35.9970   24.9740   32.3510 H   0  0  0  0  0  0  0  0  0  0  0  0
   37.1980   26.1180   31.0490 C   0  0  0  0  0  3  0  0  0  0  0  0
   38.2540   26.4320   30.9070 H   0  0  0  0  0  0  0  0  0  0  0  0
   36.2920   27.0980   30.7310 O   0  0  0  0  0  0  0  0  0  0  0  0
   36.0250   27.9900   31.7550 C   0  0  0  0  0  3  0  0  0  0  0  0
   35.0330   27.7470   32.1500 H   0  0  0  0  0  0  0  0  0  0  0  0
   37.0820   27.8950   32.8300 C   0  0  0  0  0  3  0  0  0  0  0  0
   38.0880   27.9700   32.3590 H   0  0  0  0  0  0  0  0  0  0  0  0
   39.5690   24.1420   35.8090 C   0  0  0  0  0  0  0  0  0  0  0  0
   38.4890   24.7650   36.4830 C   0  0  0  0  0  0  0  0  0  0  0  0
   38.1400   24.3120   37.7540 C   0  0  0  0  0  0  0  0  0  0  0  0
   38.8590   23.2740   38.3050 N   0  0  0  0  0  0  0  0  0  0  0  0
   39.8920   22.7010   37.6220 C   0  0  0  0  0  0  0  0  0  0  0  0
   40.2380   23.1370   36.3830 N   0  0  0  0  0  0  0  0  0  0  0  0
   39.8780   24.4560   34.8250 H   0  0  0  0  0  0  0  0  0  0  0  0
   37.3270   24.7480   38.3170 H   0  0  0  0  0  0  0  0  0  0  0  0
   40.4580   21.8840   38.0540 H   0  0  0  0  0  0  0  0  0  0  0  0
  1  4  1  1  0  0  0
  1 19  1  0  0  0  0
  2  1  1  0  0  0  0
  2  6  1  0  0  0  0
  3  7  1  6  0  0  0
  3  2  1  0  0  0  0
  3  1  1  0  0  0  0
  5  2  1  0  0  0  0
  8  3  1  0  0  0  0
  9  8  1  0  0  0  0
 10  9  1  0  0  0  0
 11  9  1  0  0  0  0
 12 11  1  0  0  0  0
 13 11  1  0  0  0  0
 13 14  1  0  0  0  0
 14 15  1  0  0  0  0
 14 16  1  0  0  0  0
 16  8  1  0  0  0  0
 17 16  1  0  0  0  0
 18 23  2  0  0  0  0
 18 19  1  0  0  0  0
 19 20  2  0  0  0  0
 20 21  1  0  0  0  0
 20 25  1  0  0  0  0
 22 26  1  0  0  0  0
 22 21  2  0  0  0  0
 23 22  1  0  0  0  0
 24 18  1  0  0  0  0
M  END
>  <minimizedAffinity>
-4.49137545

$$$$

 OpenBabel03262522433D

 26 28  0  0  1  0  0  0  0  0999 V2000
   38.1200   27.0290   34.5270 C   0  0  1  0  0  0  0  0  0  0  0  0
   38.2310   27.2120   35.9740 C   0  0  0  0  0  0  0  0  0  0  0  0
   37.7970   25.8770   35.4530 C   0  0  2  0  0  0  0  0  0  0  0  0
   39.0700   26.8890   33.9500 H   0  0  0  0  0  0  0  0  0  0  0  0
   39.2280   27.1730   36.4740 H   0  0  0  0  0  0  0  0  0  0  0  0
   37.4940   27.7970   36.5390 H   0  0  0  0  0  0  0  0  0  0  0  0
   36.7100   25.6010   35.4540 H   0  0  0  0  0  0  0  0  0  0  0  0
   38.7520   24.7080   35.4150 C   0  0  0  0  0  3  0  0  0  0  0  0
   38.1920   23.6790   34.4600 C   0  0  0  0  0  3  0  0  0  0  0  0
   38.9180   23.4190   33.6640 H   0  0  0  0  0  0  0  0  0  0  0  0
   37.8610   22.3780   35.1630 C   0  0  0  0  0  3  0  0  0  0  0  0
   36.9420   22.4590   35.7810 H   0  0  0  0  0  0  0  0  0  0  0  0
   38.9270   21.8460   35.8430 O   0  0  0  0  0  0  0  0  0  0  0  0
   39.6600   22.7650   36.5740 C   0  0  0  0  0  3  0  0  0  0  0  0
   40.5960   22.9420   36.0340 H   0  0  0  0  0  0  0  0  0  0  0  0
   38.8780   24.0450   36.7530 C   0  0  0  0  0  3  0  0  0  0  0  0
   37.8630   23.8010   37.1410 H   0  0  0  0  0  0  0  0  0  0  0  0
   36.1790   28.6500   34.3710 C   0  0  0  0  0  0  0  0  0  0  0  0
   36.9950   27.6590   33.7730 C   0  0  0  0  0  0  0  0  0  0  0  0
   36.7270   27.2690   32.4620 C   0  0  0  0  0  0  0  0  0  0  0  0
   35.6760   27.8650   31.7990 N   0  0  0  0  0  0  0  0  0  0  0  0
   34.9130   28.8170   32.4120 C   0  0  0  0  0  0  0  0  0  0  0  0
   35.1700   29.2010   33.6890 N   0  0  0  0  0  0  0  0  0  0  0  0
   36.3460   28.9860   35.3830 H   0  0  0  0  0  0  0  0  0  0  0  0
   37.3140   26.5190   31.9530 H   0  0  0  0  0  0  0  0  0  0  0  0
   34.0870   29.2850   31.8920 H   0  0  0  0  0  0  0  0  0  0  0  0
  1  4  1  6  0  0  0
  1  3  1  0  0  0  0
  1  2  1  0  0  0  0
  2  5  1  0  0  0  0
  2  6  1  0  0  0  0
  3  7  1  1  0  0  0
  3  2  1  0  0  0  0
  8  3  1  0  0  0  0
  8 16  1  0  0  0  0
  9 11  1  0  0  0  0
  9  8  1  0  0  0  0
 10  9  1  0  0  0  0
 11 12  1  0  0  0  0
 11 13  1  0  0  0  0
 13 14  1  0  0  0  0
 14 16  1  0  0  0  0
 15 14  1  0  0  0  0
 16 17  1  0  0  0  0
 18 24  1  0  0  0  0
 19 18  1  0  0  0  0
 19  1  1  0  0  0  0
 20 19  2  0  0  0  0
 21 22  2  0  0  0  0
 21 20  1  0  0  0  0
 22 23  1  0  0  0  0
 23 18  2  0  0  0  0
 25 20  1  0  0  0  0
 26 22  1  0  0  0  0
M  END
>  <minimizedAffinity>
-4.28869534

$$$$

 OpenBabel03262522433D

 26 28  0  0  1  0  0  0  0  0999 V2000
   38.2900   24.2980   33.2500 C   0  0  1  0  0  0  0  0  0  0  0  0
   39.0910   25.3310   33.9060 C   0  0  0  0  0  0  0  0  0  0  0  0
   38.1700   24.5000   34.7440 C   0  0  2  0  0  0  0  0  0  0  0  0
   38.8060   23.3450   32.9650 H   0  0  0  0  0  0  0  0  0  0  0  0
   40.1670   25.1470   34.1400 H   0  0  0  0  0  0  0  0  0  0  0  0
   38.8550   26.3980   33.8000 H   0  0  0  0  0  0  0  0  0  0  0  0
   37.1740   24.9110   35.0580 H   0  0  0  0  0  0  0  0  0  0  0  0
   38.7000   23.3820   35.6090 C   0  0  0  0  0  3  0  0  0  0  0  0
   37.8070   23.2670   36.8230 C   0  0  0  0  0  3  0  0  0  0  0  0
   37.3980   22.2440   36.9370 H   0  0  0  0  0  0  0  0  0  0  0  0
   38.5570   23.5620   38.1060 C   0  0  0  0  0  3  0  0  0  0  0  0
   38.7640   24.6460   38.2290 H   0  0  0  0  0  0  0  0  0  0  0  0
   39.6690   22.7750   38.2730 O   0  0  0  0  0  0  0  0  0  0  0  0
   40.4420   22.6210   37.1360 C   0  0  0  0  0  3  0  0  0  0  0  0
   40.2660   21.6110   36.7540 H   0  0  0  0  0  0  0  0  0  0  0  0
   40.0850   23.6670   36.1060 C   0  0  0  0  0  3  0  0  0  0  0  0
   40.1050   24.6730   36.5860 H   0  0  0  0  0  0  0  0  0  0  0  0
   36.7910   26.0380   32.1790 C   0  0  0  0  0  0  0  0  0  0  0  0
   37.1250   24.6790   32.3960 C   0  0  0  0  0  0  0  0  0  0  0  0
   36.3390   23.6920   31.8030 C   0  0  0  0  0  0  0  0  0  0  0  0
   35.2680   24.0790   31.0280 N   0  0  0  0  0  0  0  0  0  0  0  0
   34.9800   25.4010   30.8450 C   0  0  0  0  0  0  0  0  0  0  0  0
   35.7410   26.3670   31.4200 N   0  0  0  0  0  0  0  0  0  0  0  0
   37.3670   26.8390   32.6160 H   0  0  0  0  0  0  0  0  0  0  0  0
   36.5450   22.6390   31.9310 H   0  0  0  0  0  0  0  0  0  0  0  0
   34.1370   25.7060   30.2360 H   0  0  0  0  0  0  0  0  0  0  0  0
  1  4  1  6  0  0  0
  1  2  1  0  0  0  0
  1  3  1  0  0  0  0
  2  5  1  0  0  0  0
  2  3  1  0  0  0  0
  3  7  1  1  0  0  0
  3  8  1  0  0  0  0
  6  2  1  0  0  0  0
  8 16  1  0  0  0  0
  8  9  1  0  0  0  0
  9 10  1  0  0  0  0
  9 11  1  0  0  0  0
 11 12  1  0  0  0  0
 11 13  1  0  0  0  0
 14 13  1  0  0  0  0
 15 14  1  0  0  0  0
 16 17  1  0  0  0  0
 16 14  1  0  0  0  0
 18 19  1  0  0  0  0
 18 24  1  0  0  0  0
 19  1  1  0  0  0  0
 20 25  1  0  0  0  0
 20 19  2  0  0  0  0
 21 20  1  0  0  0  0
 22 21  2  0  0  0  0
 22 23  1  0  0  0  0
 23 18  2  0  0  0  0
 26 22  1  0  0  0  0
M  END
>  <minimizedAffinity>
-4.17417431

$$$$

 OpenBabel03262522433D

 26 28  0  0  1  0  0  0  0  0999 V2000
   37.9120   25.8180   35.7480 C   0  0  1  0  0  0  0  0  0  0  0  0
   38.5520   27.1230   35.9130 C   0  0  0  0  0  0  0  0  0  0  0  0
   37.9850   26.7680   34.5730 C   0  0  2  0  0  0  0  0  0  0  0  0
   36.8780   25.6920   36.1620 H   0  0  0  0  0  0  0  0  0  0  0  0
   38.0030   27.9630   36.4010 H   0  0  0  0  0  0  0  0  0  0  0  0
   39.6420   27.2250   35.9890 H   0  0  0  0  0  0  0  0  0  0  0  0
   38.6630   26.4100   33.7540 H   0  0  0  0  0  0  0  0  0  0  0  0
   36.6710   27.3460   34.1050 C   0  0  0  0  0  3  0  0  0  0  0  0
   36.6830   27.3720   32.5940 C   0  0  0  0  0  3  0  0  0  0  0  0
   35.8160   26.8310   32.1670 H   0  0  0  0  0  0  0  0  0  0  0  0
   36.6010   28.7850   32.0530 C   0  0  0  0  0  3  0  0  0  0  0  0
   37.5580   29.3350   32.1760 H   0  0  0  0  0  0  0  0  0  0  0  0
   35.5120   29.4780   32.5190 O   0  0  0  0  0  0  0  0  0  0  0  0
   35.2710   29.3290   33.8740 C   0  0  0  0  0  3  0  0  0  0  0  0
   34.4040   28.6680   33.9810 H   0  0  0  0  0  0  0  0  0  0  0  0
   36.4850   28.7590   34.5690 C   0  0  0  0  0  3  0  0  0  0  0  0
   37.3800   29.3600   34.2900 H   0  0  0  0  0  0  0  0  0  0  0  0
   40.1060   24.6220   35.3260 C   0  0  0  0  0  0  0  0  0  0  0  0
   38.7390   24.5750   35.6960 C   0  0  0  0  0  0  0  0  0  0  0  0
   38.1700   23.3410   36.0070 C   0  0  0  0  0  0  0  0  0  0  0  0
   38.9610   22.2150   35.9410 N   0  0  0  0  0  0  0  0  0  0  0  0
   40.2740   22.3040   35.5790 C   0  0  0  0  0  0  0  0  0  0  0  0
   40.8350   23.5020   35.2750 N   0  0  0  0  0  0  0  0  0  0  0  0
   40.5930   25.5520   35.0760 H   0  0  0  0  0  0  0  0  0  0  0  0
   37.1340   23.2420   36.2970 H   0  0  0  0  0  0  0  0  0  0  0  0
   40.8960   21.4180   35.5270 H   0  0  0  0  0  0  0  0  0  0  0  0
  1  2  1  0  0  0  0
  1  4  1  1  0  0  0
  2  6  1  0  0  0  0
  2  5  1  0  0  0  0
  3  7  1  6  0  0  0
  3  1  1  0  0  0  0
  3  2  1  0  0  0  0
  8 16  1  0  0  0  0
  8  3  1  0  0  0  0
  9  8  1  0  0  0  0
 10  9  1  0  0  0  0
 11 12  1  0  0  0  0
 11 13  1  0  0  0  0
 11  9  1  0  0  0  0
 13 14  1  0  0  0  0
 14 15  1  0  0  0  0
 14 16  1  0  0  0  0
 17 16  1  0  0  0  0
 18 19  1  0  0  0  0
 19  1  1  0  0  0  0
 19 20  2  0  0  0  0
 20 25  1  0  0  0  0
 21 20  1  0  0  0  0
 22 21  2  0  0  0  0
 23 18  2  0  0  0  0
 23 22  1  0  0  0  0
 24 18  1  0  0  0  0
 26 22  1  0  0  0  0
M  END
>  <minimizedAffinity>
-4.08422565

$$$$

 OpenBabel03262522433D

 26 28  0  0  1  0  0  0  0  0999 V2000
   35.4330   29.2150   34.4160 C   0  0  1  0  0  0  0  0  0  0  0  0
   35.5620   28.6410   33.0770 C   0  0  0  0  0  0  0  0  0  0  0  0
   36.7280   28.5440   34.0120 C   0  0  2  0  0  0  0  0  0  0  0  0
   34.8440   28.6360   35.1730 H   0  0  0  0  0  0  0  0  0  0  0  0
   35.1150   27.6450   32.8440 H   0  0  0  0  0  0  0  0  0  0  0  0
   35.6790   29.2740   32.1870 H   0  0  0  0  0  0  0  0  0  0  0  0
   37.5860   29.2600   33.9130 H   0  0  0  0  0  0  0  0  0  0  0  0
   37.0530   27.2510   34.7190 C   0  0  0  0  0  3  0  0  0  0  0  0
   38.2170   27.5070   35.6490 C   0  0  0  0  0  3  0  0  0  0  0  0
   37.9790   27.2250   36.6930 H   0  0  0  0  0  0  0  0  0  0  0  0
   39.4370   26.6940   35.2640 C   0  0  0  0  0  3  0  0  0  0  0  0
   39.9360   27.0930   34.3570 H   0  0  0  0  0  0  0  0  0  0  0  0
   39.1860   25.3460   35.1980 O   0  0  0  0  0  0  0  0  0  0  0  0
   38.0040   25.0110   34.5610 C   0  0  0  0  0  3  0  0  0  0  0  0
   37.2900   24.7080   35.3330 H   0  0  0  0  0  0  0  0  0  0  0  0
   37.4820   26.1810   33.7600 C   0  0  0  0  0  3  0  0  0  0  0  0
   38.2990   26.5730   33.1120 H   0  0  0  0  0  0  0  0  0  0  0  0
   34.9030   31.5600   33.6180 C   0  0  0  0  0  0  0  0  0  0  0  0
   35.4410   30.6970   34.6040 C   0  0  0  0  0  0  0  0  0  0  0  0
   35.9900   31.2540   35.7570 C   0  0  0  0  0  0  0  0  0  0  0  0
   35.9880   32.6240   35.8930 N   0  0  0  0  0  0  0  0  0  0  0  0
   35.4590   33.4220   34.9190 C   0  0  0  0  0  0  0  0  0  0  0  0
   34.9230   32.8860   33.7930 N   0  0  0  0  0  0  0  0  0  0  0  0
   34.4660   31.1790   32.7090 H   0  0  0  0  0  0  0  0  0  0  0  0
   36.4150   30.6460   36.5440 H   0  0  0  0  0  0  0  0  0  0  0  0
   35.4570   34.5000   35.0260 H   0  0  0  0  0  0  0  0  0  0  0  0
  1 19  1  0  0  0  0
  1  4  1  1  0  0  0
  2  3  1  0  0  0  0
  2  1  1  0  0  0  0
  3  7  1  6  0  0  0
  3  1  1  0  0  0  0
  3  8  1  0  0  0  0
  5  2  1  0  0  0  0
  6  2  1  0  0  0  0
  8  9  1  0  0  0  0
  9 10  1  0  0  0  0
 11  9  1  0  0  0  0
 12 11  1  0  0  0  0
 13 11  1  0  0  0  0
 14 13  1  0  0  0  0
 14 15  1  0  0  0  0
 16 14  1  0  0  0  0
 16  8  1  0  0  0  0
 17 16  1  0  0  0  0
 18 23  2  0  0  0  0
 18 19  1  0  0  0  0
 19 20  2  0  0  0  0
 20 21  1  0  0  0  0
 20 25  1  0  0  0  0
 22 26  1  0  0  0  0
 22 21  2  0  0  0  0
 23 22  1  0  0  0  0
 24 18  1  0  0  0  0
M  END
>  <minimizedAffinity>
-4.08206558

$$$$

 OpenBabel03262522433D

 26 28  0  0  1  0  0  0  0  0999 V2000
   38.3860   27.1010   34.1280 C   0  0  1  0  0  0  0  0  0  0  0  0
   37.7480   27.3850   35.4130 C   0  0  0  0  0  0  0  0  0  0  0  0
   37.7360   25.9770   34.9040 C   0  0  2  0  0  0  0  0  0  0  0  0
   39.5050   27.0460   34.1060 H   0  0  0  0  0  0  0  0  0  0  0  0
   38.3650   27.5020   36.3360 H   0  0  0  0  0  0  0  0  0  0  0  0
   36.7850   27.9080   35.4760 H   0  0  0  0  0  0  0  0  0  0  0  0
   36.8170   25.5680   34.4070 H   0  0  0  0  0  0  0  0  0  0  0  0
   38.6720   24.9360   35.4700 C   0  0  0  0  0  3  0  0  0  0  0  0
   38.6480   23.7370   34.5500 C   0  0  0  0  0  3  0  0  0  0  0  0
   39.6630   23.4700   34.1960 H   0  0  0  0  0  0  0  0  0  0  0  0
   38.1110   22.5020   35.2460 C   0  0  0  0  0  3  0  0  0  0  0  0
   37.0110   22.5480   35.3880 H   0  0  0  0  0  0  0  0  0  0  0  0
   38.7940   22.1910   36.3940 O   0  0  0  0  0  0  0  0  0  0  0  0
   39.0780   23.2740   37.2080 C   0  0  0  0  0  3  0  0  0  0  0  0
   40.1440   23.4950   37.0990 H   0  0  0  0  0  0  0  0  0  0  0  0
   38.2290   24.4630   36.8220 C   0  0  0  0  0  3  0  0  0  0  0  0
   37.1620   24.1480   36.7720 H   0  0  0  0  0  0  0  0  0  0  0  0
   36.5270   28.2710   32.8640 C   0  0  0  0  0  0  0  0  0  0  0  0
   37.7390   27.5390   32.8540 C   0  0  0  0  0  0  0  0  0  0  0  0
   38.3220   27.2220   31.6280 C   0  0  0  0  0  0  0  0  0  0  0  0
   37.6940   27.6340   30.4740 N   0  0  0  0  0  0  0  0  0  0  0  0
   36.5260   28.3380   30.5270 C   0  0  0  0  0  0  0  0  0  0  0  0
   35.9530   28.6500   31.7180 N   0  0  0  0  0  0  0  0  0  0  0  0
   36.0370   28.5410   33.7860 H   0  0  0  0  0  0  0  0  0  0  0  0
   39.2460   26.6660   31.5570 H   0  0  0  0  0  0  0  0  0  0  0  0
   36.0310   28.6620   29.6190 H   0  0  0  0  0  0  0  0  0  0  0  0
  1  4  1  1  0  0  0
  1  3  1  0  0  0  0
  1  2  1  0  0  0  0
  2  6  1  0  0  0  0
  2  5  1  0  0  0  0
  3  7  1  6  0  0  0
  3  2  1  0  0  0  0
  3  8  1  0  0  0  0
  8 16  1  0  0  0  0
  9 11  1  0  0  0  0
  9  8  1  0  0  0  0
 10  9  1  0  0  0  0
 11 12  1  0  0  0  0
 11 13  1  0  0  0  0
 13 14  1  0  0  0  0
 15 14  1  0  0  0  0
 16 14  1  0  0  0  0
 17 16  1  0  0  0  0
 18 24  1  0  0  0  0
 19 18  1  0  0  0  0
 19  1  1  0  0  0  0
 20 19  2  0  0  0  0
 21 22  2  0  0  0  0
 21 20  1  0  0  0  0
 22 23  1  0  0  0  0
 23 18  2  0  0  0  0
 25 20  1  0  0  0  0
 26 22  1  0  0  0  0
M  END
>  <minimizedAffinity>
-4.06591606

$$$$

 OpenBabel03262522433D

 26 28  0  0  1  0  0  0  0  0999 V2000
   36.3740   28.8870   33.4120 C   0  0  1  0  0  0  0  0  0  0  0  0
   34.9780   28.9420   32.9790 C   0  0  0  0  0  0  0  0  0  0  0  0
   35.3410   29.5420   34.3020 C   0  0  2  0  0  0  0  0  0  0  0  0
   37.0900   29.6120   32.9450 H   0  0  0  0  0  0  0  0  0  0  0  0
   34.6460   29.7090   32.2370 H   0  0  0  0  0  0  0  0  0  0  0  0
   34.3360   28.0520   32.9860 H   0  0  0  0  0  0  0  0  0  0  0  0
   35.1450   28.9720   35.2480 H   0  0  0  0  0  0  0  0  0  0  0  0
   35.4640   31.0370   34.4720 C   0  0  0  0  0  3  0  0  0  0  0  0
   36.0020   31.3060   35.8590 C   0  0  0  0  0  3  0  0  0  0  0  0
   36.9240   31.9200   35.8300 H   0  0  0  0  0  0  0  0  0  0  0  0
   35.0130   32.0790   36.7080 C   0  0  0  0  0  3  0  0  0  0  0  0
   34.1660   31.4440   37.0440 H   0  0  0  0  0  0  0  0  0  0  0  0
   34.6120   33.2570   36.1300 O   0  0  0  0  0  0  0  0  0  0  0  0
   34.3170   33.1660   34.7810 C   0  0  0  0  0  3  0  0  0  0  0  0
   35.1420   33.6330   34.2330 H   0  0  0  0  0  0  0  0  0  0  0  0
   34.1350   31.7230   34.3740 C   0  0  0  0  0  3  0  0  0  0  0  0
   33.4160   31.2350   35.0710 H   0  0  0  0  0  0  0  0  0  0  0  0
   36.9360   26.4450   33.0380 C   0  0  0  0  0  0  0  0  0  0  0  0
   36.9710   27.5950   33.8650 C   0  0  0  0  0  0  0  0  0  0  0  0
   37.5670   27.5010   35.1210 C   0  0  0  0  0  0  0  0  0  0  0  0
   38.1000   26.2910   35.5090 N   0  0  0  0  0  0  0  0  0  0  0  0
   38.0460   25.2060   34.6820 C   0  0  0  0  0  0  0  0  0  0  0  0
   37.4650   25.2910   33.4570 N   0  0  0  0  0  0  0  0  0  0  0  0
   36.4860   26.4660   32.0580 H   0  0  0  0  0  0  0  0  0  0  0  0
   37.6250   28.3430   35.7950 H   0  0  0  0  0  0  0  0  0  0  0  0
   38.4640   24.2550   34.9870 H   0  0  0  0  0  0  0  0  0  0  0  0
  1  4  1  6  0  0  0
  1 19  1  0  0  0  0
  1  3  1  0  0  0  0
  2  6  1  0  0  0  0
  2  1  1  0  0  0  0
  2  3  1  0  0  0  0
  3  8  1  0  0  0  0
  3  7  1  1  0  0  0
  5  2  1  0  0  0  0
  8  9  1  0  0  0  0
  9 11  1  0  0  0  0
 10  9  1  0  0  0  0
 11 12  1  0  0  0  0
 13 11  1  0  0  0  0
 14 13  1  0  0  0  0
 15 14  1  0  0  0  0
 16  8  1  0  0  0  0
 16 14  1  0  0  0  0
 16 17  1  0  0  0  0
 18 23  2  0  0  0  0
 18 19  1  0  0  0  0
 19 20  2  0  0  0  0
 20 21  1  0  0  0  0
 20 25  1  0  0  0  0
 22 26  1  0  0  0  0
 22 21  2  0  0  0  0
 23 22  1  0  0  0  0
 24 18  1  0  0  0  0
M  END
>  <minimizedAffinity>
-4.06113625

$$$$

 OpenBabel03262522433D

 26 28  0  0  1  0  0  0  0  0999 V2000
   38.3540   23.8940   36.1030 C   0  0  1  0  0  0  0  0  0  0  0  0
   38.0610   24.9320   37.0910 C   0  0  0  0  0  0  0  0  0  0  0  0
   38.5670   25.3480   35.7440 C   0  0  2  0  0  0  0  0  0  0  0  0
   37.4850   23.4230   35.5740 H   0  0  0  0  0  0  0  0  0  0  0  0
   37.0080   25.2580   37.2720 H   0  0  0  0  0  0  0  0  0  0  0  0
   38.7160   25.1080   37.9540 H   0  0  0  0  0  0  0  0  0  0  0  0
   39.6480   25.6180   35.6110 H   0  0  0  0  0  0  0  0  0  0  0  0
   37.6340   25.9180   34.7030 C   0  0  0  0  0  3  0  0  0  0  0  0
   38.3230   25.8300   33.3610 C   0  0  0  0  0  3  0  0  0  0  0  0
   37.7120   25.2780   32.6200 H   0  0  0  0  0  0  0  0  0  0  0  0
   38.5670   27.2000   32.7610 C   0  0  0  0  0  3  0  0  0  0  0  0
   39.3950   27.7370   33.2700 H   0  0  0  0  0  0  0  0  0  0  0  0
   37.4230   27.9500   32.6460 O   0  0  0  0  0  0  0  0  0  0  0  0
   36.5940   27.9080   33.7530 C   0  0  0  0  0  3  0  0  0  0  0  0
   35.7370   27.2760   33.4960 H   0  0  0  0  0  0  0  0  0  0  0  0
   37.3360   27.3660   34.9520 C   0  0  0  0  0  3  0  0  0  0  0  0
   38.2920   27.9240   35.0720 H   0  0  0  0  0  0  0  0  0  0  0  0
   40.2720   22.5560   35.1280 C   0  0  0  0  0  0  0  0  0  0  0  0
   39.5600   23.0260   36.2580 C   0  0  0  0  0  0  0  0  0  0  0  0
   39.9990   22.6580   37.5290 C   0  0  0  0  0  0  0  0  0  0  0  0
   41.1090   21.8510   37.6340 N   0  0  0  0  0  0  0  0  0  0  0  0
   41.7680   21.4190   36.5190 C   0  0  0  0  0  0  0  0  0  0  0  0
   41.3450   21.7730   35.2780 N   0  0  0  0  0  0  0  0  0  0  0  0
   39.9730   22.8130   34.1230 H   0  0  0  0  0  0  0  0  0  0  0  0
   39.4970   22.9860   38.4280 H   0  0  0  0  0  0  0  0  0  0  0  0
   42.6410   20.7830   36.6020 H   0  0  0  0  0  0  0  0  0  0  0  0
  1  4  1  6  0  0  0
  1 19  1  0  0  0  0
  1  2  1  0  0  0  0
  2  5  1  0  0  0  0
  2  6  1  0  0  0  0
  3  7  1  6  0  0  0
  3  1  1  0  0  0  0
  3  2  1  0  0  0  0
  8 16  1  0  0  0  0
  8  3  1  0  0  0  0
  9  8  1  0  0  0  0
 10  9  1  0  0  0  0
 11 12  1  0  0  0  0
 11  9  1  0  0  0  0
 13 11  1  0  0  0  0
 13 14  1  0  0  0  0
 14 16  1  0  0  0  0
 15 14  1  0  0  0  0
 16 17  1  0  0  0  0
 18 23  2  0  0  0  0
 18 19  1  0  0  0  0
 19 20  2  0  0  0  0
 20 21  1  0  0  0  0
 20 25  1  0  0  0  0
 22 26  1  0  0  0  0
 22 21  2  0  0  0  0
 23 22  1  0  0  0  0
 24 18  1  0  0  0  0
M  END
>  <minimizedAffinity>
-4.04631376

$$$$

 OpenBabel03262522433D

 26 28  0  0  1  0  0  0  0  0999 V2000
   39.1730   26.6040   34.6840 C   0  0  1  0  0  0  0  0  0  0  0  0
   40.2890   26.7960   33.7580 C   0  0  0  0  0  0  0  0  0  0  0  0
   38.9420   26.4640   33.1960 C   0  0  2  0  0  0  0  0  0  0  0  0
   38.7060   27.5200   35.1280 H   0  0  0  0  0  0  0  0  0  0  0  0
   40.6260   27.8250   33.4860 H   0  0  0  0  0  0  0  0  0  0  0  0
   41.0820   26.0450   33.6480 H   0  0  0  0  0  0  0  0  0  0  0  0
   38.7100   25.4130   32.8790 H   0  0  0  0  0  0  0  0  0  0  0  0
   38.0820   27.5280   32.5560 C   0  0  0  0  0  3  0  0  0  0  0  0
   36.6760   26.9840   32.4410 C   0  0  0  0  0  3  0  0  0  0  0  0
   35.9380   27.6480   32.9320 H   0  0  0  0  0  0  0  0  0  0  0  0
   36.2340   26.8640   30.9970 C   0  0  0  0  0  3  0  0  0  0  0  0
   36.7200   26.0100   30.4810 H   0  0  0  0  0  0  0  0  0  0  0  0
   36.3320   28.0450   30.3040 O   0  0  0  0  0  0  0  0  0  0  0  0
   37.5030   28.7480   30.5260 C   0  0  0  0  0  3  0  0  0  0  0  0
   37.2570   29.5990   31.1680 H   0  0  0  0  0  0  0  0  0  0  0  0
   38.5420   27.8580   31.1680 C   0  0  0  0  0  3  0  0  0  0  0  0
   38.6330   26.9190   30.5760 H   0  0  0  0  0  0  0  0  0  0  0  0
   38.0230   25.1680   36.4260 C   0  0  0  0  0  0  0  0  0  0  0  0
   39.0960   25.3710   35.5240 C   0  0  0  0  0  0  0  0  0  0  0  0
   40.0920   24.4000   35.4350 C   0  0  0  0  0  0  0  0  0  0  0  0
   39.9930   23.2800   36.2310 N   0  0  0  0  0  0  0  0  0  0  0  0
   38.9420   23.1220   37.0880 C   0  0  0  0  0  0  0  0  0  0  0  0
   37.9680   24.0640   37.1790 N   0  0  0  0  0  0  0  0  0  0  0  0
   37.2270   25.8890   36.5310 H   0  0  0  0  0  0  0  0  0  0  0  0
   40.9340   24.4990   34.7660 H   0  0  0  0  0  0  0  0  0  0  0  0
   38.8630   22.2410   37.7140 H   0  0  0  0  0  0  0  0  0  0  0  0
  1  4  1  1  0  0  0
  1 19  1  0  0  0  0
  2  1  1  0  0  0  0
  3  7  1  6  0  0  0
  3  2  1  0  0  0  0
  3  1  1  0  0  0  0
  5  2  1  0  0  0  0
  6  2  1  0  0  0  0
  8  3  1  0  0  0  0
  9  8  1  0  0  0  0
  9 10  1  0  0  0  0
 11  9  1  0  0  0  0
 12 11  1  0  0  0  0
 13 14  1  0  0  0  0
 13 11  1  0  0  0  0
 14 16  1  0  0  0  0
 14 15  1  0  0  0  0
 16  8  1  0  0  0  0
 17 16  1  0  0  0  0
 18 24  1  0  0  0  0
 18 23  1  0  0  0  0
 19 18  2  0  0  0  0
 20 19  1  0  0  0  0
 20 21  2  0  0  0  0
 21 22  1  0  0  0  0
 22 23  2  0  0  0  0
 22 26  1  0  0  0  0
 25 20  1  0  0  0  0
M  END
>  <minimizedAffinity>
-3.97533751

$$$$
