
 OpenBabel03272509413D

 36 38  0  0  1  0  0  0  0  0999 V2000
   36.4730   28.6750   32.5300 C   0  0  0  0  0  0  0  0  0  0  0  0
   35.9800   29.7400   31.7690 C   0  0  0  0  0  0  0  0  0  0  0  0
   35.3090   30.8050   32.3360 C   0  0  0  0  0  0  0  0  0  0  0  0
   35.1030   30.8420   33.7150 C   0  0  0  0  0  0  0  0  0  0  0  0
   35.5910   29.7930   34.4500 C   0  0  0  0  0  0  0  0  0  0  0  0
   36.2580   28.7380   33.8690 C   0  0  0  0  0  0  0  0  0  0  0  0
   36.1360   29.7220   30.6870 H   0  0  0  0  0  0  0  0  0  0  0  0
   34.9550   31.5940   31.6850 H   0  0  0  0  0  0  0  0  0  0  0  0
   34.5810   31.6750   34.1400 H   0  0  0  0  0  0  0  0  0  0  0  0
   35.3970   29.8840   35.5130 H   0  0  0  0  0  0  0  0  0  0  0  0
   37.1640   27.6050   31.8420 C   0  0  1  0  0  3  0  0  0  0  0  0
   38.3050   27.9430   31.3390 O   0  0  0  0  0  1  0  0  0  0  0  0
   34.9250   24.9390   30.8330 C   0  0  0  0  0  0  0  0  0  0  0  0
   35.5410   23.7850   31.2990 C   0  0  0  0  0  0  0  0  0  0  0  0
   36.7460   23.9160   31.9720 C   0  0  0  0  0  0  0  0  0  0  0  0
   37.2790   25.1510   32.1530 N   0  0  0  0  0  0  0  0  0  0  0  0
   36.6650   26.2350   31.6950 C   0  0  0  0  0  0  0  0  0  0  0  0
   35.4980   26.1210   31.0400 N   0  0  0  0  0  0  0  0  0  0  0  0
   33.9920   24.8500   30.3090 H   0  0  0  0  0  0  0  0  0  0  0  0
   35.0810   22.8220   31.1320 H   0  0  0  0  0  0  0  0  0  0  0  0
   37.2550   23.0440   32.3500 H   0  0  0  0  0  0  0  0  0  0  0  0
   36.7150   27.7040   34.7750 C   0  0  0  0  0  3  0  0  0  0  0  0
   37.8770   27.6860   35.4060 C   0  0  0  0  0  3  0  0  0  0  0  0
   38.4640   26.7250   36.3350 C   0  0  0  0  0  0  0  0  0  0  0  0
   38.1070   26.9210   37.3820 H   0  0  0  0  0  0  0  0  0  0  0  0
   39.5610   26.8700   36.3820 H   0  0  0  0  0  0  0  0  0  0  0  0
   38.1690   25.2930   36.0370 C   0  0  0  0  0  3  0  0  0  0  0  0
   37.9590   24.5430   37.3510 C   0  0  0  0  0  3  0  0  0  0  0  0
   38.8920   24.5250   37.9500 H   0  0  0  0  0  0  0  0  0  0  0  0
   37.5560   23.1080   37.0940 C   0  0  0  0  0  3  0  0  0  0  0  0
   36.5800   23.0020   36.6210 H   0  0  0  0  0  0  0  0  0  0  0  0
   38.6080   22.5250   36.3670 O   0  0  0  0  0  0  0  0  0  0  0  0
   38.7220   23.1410   35.1170 C   0  0  0  0  0  3  0  0  0  0  0  0
   39.3120   22.5490   34.4210 H   0  0  0  0  0  0  0  0  0  0  0  0
   39.2220   24.5860   35.2600 C   0  0  0  0  0  3  0  0  0  0  0  0
   40.2050   24.5550   35.7490 H   0  0  0  0  0  0  0  0  0  0  0  0
  1  6  1  0  0  0  0
  2  3  1  0  0  0  0
  2  1  2  0  0  0  0
  3  4  2  0  0  0  0
  4  9  1  0  0  0  0
  4  5  1  0  0  0  0
  5 10  1  0  0  0  0
  6  5  2  0  0  0  0
  6 22  1  0  0  0  0
  7  2  1  0  0  0  0
  8  3  1  0  0  0  0
 11 12  1  1  0  0  0
 11  1  1  0  0  0  0
 13 18  2  0  0  0  0
 13 14  1  0  0  0  0
 14 15  2  0  0  0  0
 15 16  1  0  0  0  0
 15 21  1  0  0  0  0
 17 11  1  0  0  0  0
 17 16  2  0  0  0  0
 18 17  1  0  0  0  0
 19 13  1  0  0  0  0
 20 14  1  0  0  0  0
 22 23  2  0  0  0  0
 23 24  1  0  0  0  0
 24 26  1  0  0  0  0
 24 25  1  0  0  0  0
 27 24  1  0  0  0  0
 27 28  1  0  0  0  0
 28 29  1  0  0  0  0
 30 28  1  0  0  0  0
 31 30  1  0  0  0  0
 32 30  1  0  0  0  0
 33 35  1  0  0  0  0
 33 32  1  0  0  0  0
 34 33  1  0  0  0  0
 35 36  1  0  0  0  0
 35 27  1  0  0  0  0
M  END
>  <minimizedAffinity>
-6.01362514

$$$$

 OpenBabel03272509413D

 36 38  0  0  1  0  0  0  0  0999 V2000
   35.8630   29.3160   32.7570 C   0  0  0  0  0  0  0  0  0  0  0  0
   35.8600   29.7950   31.4430 C   0  0  0  0  0  0  0  0  0  0  0  0
   36.6910   29.2810   30.4680 C   0  0  0  0  0  0  0  0  0  0  0  0
   37.5730   28.2470   30.7800 C   0  0  0  0  0  0  0  0  0  0  0  0
   37.5680   27.7870   32.0710 C   0  0  0  0  0  0  0  0  0  0  0  0
   36.7330   28.3100   33.0330 C   0  0  0  0  0  0  0  0  0  0  0  0
   35.1710   30.6040   31.1860 H   0  0  0  0  0  0  0  0  0  0  0  0
   36.6330   29.7000   29.4720 H   0  0  0  0  0  0  0  0  0  0  0  0
   38.2110   27.8600   30.0120 H   0  0  0  0  0  0  0  0  0  0  0  0
   38.2760   26.9850   32.2470 H   0  0  0  0  0  0  0  0  0  0  0  0
   34.9530   29.9210   33.7080 C   0  0  1  0  0  3  0  0  0  0  0  0
   35.4550   30.9080   34.3730 O   0  0  0  0  0  1  0  0  0  0  0  0
   31.9560   29.1310   35.5880 C   0  0  0  0  0  0  0  0  0  0  0  0
   31.0410   28.7440   34.6190 C   0  0  0  0  0  0  0  0  0  0  0  0
   31.4520   28.7510   33.2940 C   0  0  0  0  0  0  0  0  0  0  0  0
   32.7190   29.1310   32.9900 N   0  0  0  0  0  0  0  0  0  0  0  0
   33.5710   29.4960   33.9410 C   0  0  0  0  0  0  0  0  0  0  0  0
   33.1840   29.4940   35.2270 N   0  0  0  0  0  0  0  0  0  0  0  0
   31.6500   29.1300   36.6170 H   0  0  0  0  0  0  0  0  0  0  0  0
   30.0430   28.4490   34.9050 H   0  0  0  0  0  0  0  0  0  0  0  0
   30.7710   28.4570   32.5130 H   0  0  0  0  0  0  0  0  0  0  0  0
   36.8410   27.7210   34.3520 C   0  0  0  0  0  3  0  0  0  0  0  0
   37.9660   27.3760   34.9560 C   0  0  0  0  0  3  0  0  0  0  0  0
   38.2240   26.7820   36.2630 C   0  0  0  0  0  0  0  0  0  0  0  0
   37.4990   27.1760   37.0250 H   0  0  0  0  0  0  0  0  0  0  0  0
   39.2180   27.1030   36.6320 H   0  0  0  0  0  0  0  0  0  0  0  0
   38.1370   25.2930   36.3120 C   0  0  0  0  0  3  0  0  0  0  0  0
   38.0850   24.8440   37.7710 C   0  0  0  0  0  3  0  0  0  0  0  0
   39.0290   25.0940   38.2970 H   0  0  0  0  0  0  0  0  0  0  0  0
   37.8920   23.3470   37.8670 C   0  0  0  0  0  3  0  0  0  0  0  0
   36.9290   23.0010   37.4950 H   0  0  0  0  0  0  0  0  0  0  0  0
   38.9960   22.7640   37.2200 O   0  0  0  0  0  0  0  0  0  0  0  0
   38.9760   23.0850   35.8610 C   0  0  0  0  0  3  0  0  0  0  0  0
   39.6250   22.4370   35.2760 H   0  0  0  0  0  0  0  0  0  0  0  0
   39.2580   24.5790   35.6450 C   0  0  0  0  0  3  0  0  0  0  0  0
   40.2500   24.7980   36.0620 H   0  0  0  0  0  0  0  0  0  0  0  0
  1  6  1  0  0  0  0
  1 11  1  0  0  0  0
  2  1  2  0  0  0  0
  3  4  2  0  0  0  0
  3  2  1  0  0  0  0
  4  5  1  0  0  0  0
  5 10  1  0  0  0  0
  5  6  2  0  0  0  0
  6 22  1  0  0  0  0
  7  2  1  0  0  0  0
  8  3  1  0  0  0  0
  9  4  1  0  0  0  0
 11 17  1  0  0  0  0
 11 12  1  6  0  0  0
 13 19  1  0  0  0  0
 14 20  1  0  0  0  0
 14 13  2  0  0  0  0
 15 14  1  0  0  0  0
 16 15  2  0  0  0  0
 16 17  1  0  0  0  0
 17 18  2  0  0  0  0
 18 13  1  0  0  0  0
 21 15  1  0  0  0  0
 22 23  2  0  0  0  0
 23 24  1  0  0  0  0
 24 27  1  0  0  0  0
 24 26  1  0  0  0  0
 24 25  1  0  0  0  0
 27 28  1  0  0  0  0
 28 30  1  0  0  0  0
 28 29  1  0  0  0  0
 31 30  1  0  0  0  0
 32 30  1  0  0  0  0
 33 32  1  0  0  0  0
 34 33  1  0  0  0  0
 35 33  1  0  0  0  0
 35 36  1  0  0  0  0
 35 27  1  0  0  0  0
M  END
>  <minimizedAffinity>
-5.73507357

$$$$

 OpenBabel03272509413D

 36 38  0  0  1  0  0  0  0  0999 V2000
   36.2700   28.8850   32.2160 C   0  0  0  0  0  0  0  0  0  0  0  0
   36.4040   29.2600   30.8760 C   0  0  0  0  0  0  0  0  0  0  0  0
   37.3090   28.6550   30.0260 C   0  0  0  0  0  0  0  0  0  0  0  0
   38.1290   27.6310   30.4990 C   0  0  0  0  0  0  0  0  0  0  0  0
   37.9880   27.2730   31.8150 C   0  0  0  0  0  0  0  0  0  0  0  0
   37.0810   27.8870   32.6490 C   0  0  0  0  0  0  0  0  0  0  0  0
   35.7660   30.0610   30.4930 H   0  0  0  0  0  0  0  0  0  0  0  0
   37.3570   28.9970   29.0000 H   0  0  0  0  0  0  0  0  0  0  0  0
   38.8250   27.1710   29.8270 H   0  0  0  0  0  0  0  0  0  0  0  0
   38.6540   26.4730   32.1180 H   0  0  0  0  0  0  0  0  0  0  0  0
   35.2920   29.5810   33.0260 C   0  0  1  0  0  3  0  0  0  0  0  0
   34.0900   29.1210   32.9220 O   0  0  0  0  0  1  0  0  0  0  0  0
   35.9220   33.0240   33.9700 C   0  0  0  0  0  0  0  0  0  0  0  0
   36.1050   32.9700   35.3450 C   0  0  0  0  0  0  0  0  0  0  0  0
   36.0130   31.7340   35.9670 C   0  0  0  0  0  0  0  0  0  0  0  0
   35.7500   30.6300   35.2220 N   0  0  0  0  0  0  0  0  0  0  0  0
   35.5790   30.7150   33.9080 C   0  0  0  0  0  0  0  0  0  0  0  0
   35.6660   31.9070   33.2950 N   0  0  0  0  0  0  0  0  0  0  0  0
   35.9910   33.9750   33.4770 H   0  0  0  0  0  0  0  0  0  0  0  0
   36.3120   33.8740   35.8990 H   0  0  0  0  0  0  0  0  0  0  0  0
   36.1490   31.6500   37.0330 H   0  0  0  0  0  0  0  0  0  0  0  0
   37.0480   27.4000   34.0130 C   0  0  0  0  0  3  0  0  0  0  0  0
   38.0980   27.2190   34.7970 C   0  0  0  0  0  3  0  0  0  0  0  0
   38.2150   26.7430   36.1710 C   0  0  0  0  0  0  0  0  0  0  0  0
   37.4050   27.1860   36.8120 H   0  0  0  0  0  0  0  0  0  0  0  0
   39.1580   27.1130   36.6180 H   0  0  0  0  0  0  0  0  0  0  0  0
   38.1370   25.2630   36.3390 C   0  0  0  0  0  3  0  0  0  0  0  0
   38.1410   24.9280   37.8290 C   0  0  0  0  0  3  0  0  0  0  0  0
   39.1030   25.2200   38.2980 H   0  0  0  0  0  0  0  0  0  0  0  0
   37.9600   23.4420   38.0480 C   0  0  0  0  0  3  0  0  0  0  0  0
   36.9850   23.0660   37.7400 H   0  0  0  0  0  0  0  0  0  0  0  0
   39.0420   22.8130   37.4080 O   0  0  0  0  0  0  0  0  0  0  0  0
   38.9700   23.0280   36.0290 C   0  0  0  0  0  3  0  0  0  0  0  0
   39.6010   22.3380   35.4730 H   0  0  0  0  0  0  0  0  0  0  0  0
   39.2370   24.5010   35.6870 C   0  0  0  0  0  3  0  0  0  0  0  0
   40.2430   24.7550   36.0500 H   0  0  0  0  0  0  0  0  0  0  0  0
  1  6  1  0  0  0  0
  1 11  1  0  0  0  0
  2  1  2  0  0  0  0
  3  4  2  0  0  0  0
  3  2  1  0  0  0  0
  4  5  1  0  0  0  0
  5 10  1  0  0  0  0
  5  6  2  0  0  0  0
  6 22  1  0  0  0  0
  7  2  1  0  0  0  0
  8  3  1  0  0  0  0
  9  4  1  0  0  0  0
 11 12  1  1  0  0  0
 11 17  1  0  0  0  0
 13 14  1  0  0  0  0
 14 20  1  0  0  0  0
 14 15  2  0  0  0  0
 15 21  1  0  0  0  0
 16 15  1  0  0  0  0
 17 16  2  0  0  0  0
 18 17  1  0  0  0  0
 18 13  2  0  0  0  0
 19 13  1  0  0  0  0
 22 23  2  0  0  0  0
 23 24  1  0  0  0  0
 24 27  1  0  0  0  0
 24 26  1  0  0  0  0
 24 25  1  0  0  0  0
 27 28  1  0  0  0  0
 28 30  1  0  0  0  0
 28 29  1  0  0  0  0
 31 30  1  0  0  0  0
 32 30  1  0  0  0  0
 33 32  1  0  0  0  0
 34 33  1  0  0  0  0
 35 33  1  0  0  0  0
 35 36  1  0  0  0  0
 35 27  1  0  0  0  0
M  END
>  <minimizedAffinity>
-5.67357922

$$$$

 OpenBabel03272509413D

 36 38  0  0  1  0  0  0  0  0999 V2000
   38.8990   23.6020   35.7530 C   0  0  0  0  0  0  0  0  0  0  0  0
   39.6150   22.6850   36.5290 C   0  0  0  0  0  0  0  0  0  0  0  0
   39.5910   22.7090   37.9100 C   0  0  0  0  0  0  0  0  0  0  0  0
   38.8330   23.6720   38.5750 C   0  0  0  0  0  0  0  0  0  0  0  0
   38.1370   24.5650   37.8030 C   0  0  0  0  0  0  0  0  0  0  0  0
   38.1710   24.5290   36.4270 C   0  0  0  0  0  0  0  0  0  0  0  0
   40.2120   21.9250   36.0190 H   0  0  0  0  0  0  0  0  0  0  0  0
   40.1690   21.9670   38.4450 H   0  0  0  0  0  0  0  0  0  0  0  0
   38.8250   23.6770   39.6460 H   0  0  0  0  0  0  0  0  0  0  0  0
   37.5700   25.2860   38.3820 H   0  0  0  0  0  0  0  0  0  0  0  0
   38.9890   23.4950   34.3110 C   0  0  1  0  0  3  0  0  0  0  0  0
   40.1230   23.8670   33.8190 O   0  0  0  0  0  1  0  0  0  0  0  0
   36.4750   21.2250   33.0190 C   0  0  0  0  0  0  0  0  0  0  0  0
   35.9300   21.9050   31.9380 C   0  0  0  0  0  0  0  0  0  0  0  0
   36.4280   23.1640   31.6400 C   0  0  0  0  0  0  0  0  0  0  0  0
   37.4210   23.6870   32.4050 N   0  0  0  0  0  0  0  0  0  0  0  0
   37.9210   23.0120   33.4330 C   0  0  0  0  0  0  0  0  0  0  0  0
   37.4460   21.7910   33.7300 N   0  0  0  0  0  0  0  0  0  0  0  0
   36.0970   20.2500   33.2590 H   0  0  0  0  0  0  0  0  0  0  0  0
   35.1410   21.4510   31.3570 H   0  0  0  0  0  0  0  0  0  0  0  0
   36.0320   23.7230   30.8090 H   0  0  0  0  0  0  0  0  0  0  0  0
   37.3840   25.5370   35.7480 C   0  0  0  0  0  3  0  0  0  0  0  0
   37.7920   26.7560   35.4340 C   0  0  0  0  0  3  0  0  0  0  0  0
   37.1200   27.8620   34.7600 C   0  0  0  0  0  0  0  0  0  0  0  0
   37.7140   28.8090   34.8700 H   0  0  0  0  0  0  0  0  0  0  0  0
   36.1560   28.0760   35.2590 H   0  0  0  0  0  0  0  0  0  0  0  0
   36.8850   27.6660   33.2990 C   0  0  0  0  0  3  0  0  0  0  0  0
   38.2140   27.3440   32.6190 C   0  0  0  0  0  3  0  0  0  0  0  0
   38.9110   28.2040   32.6850 H   0  0  0  0  0  0  0  0  0  0  0  0
   38.0080   27.0360   31.1520 C   0  0  0  0  0  3  0  0  0  0  0  0
   37.4400   26.1250   30.9680 H   0  0  0  0  0  0  0  0  0  0  0  0
   37.4400   28.1880   30.5820 O   0  0  0  0  0  0  0  0  0  0  0  0
   36.1730   28.4140   31.1270 C   0  0  0  0  0  3  0  0  0  0  0  0
   35.5840   29.1040   30.5260 H   0  0  0  0  0  0  0  0  0  0  0  0
   36.2750   28.8300   32.6020 C   0  0  0  0  0  3  0  0  0  0  0  0
   36.8690   29.7530   32.6510 H   0  0  0  0  0  0  0  0  0  0  0  0
  1  6  2  0  0  0  0
  1  2  1  0  0  0  0
  2  3  2  0  0  0  0
  3  8  1  0  0  0  0
  3  4  1  0  0  0  0
  4  9  1  0  0  0  0
  5 10  1  0  0  0  0
  5  4  2  0  0  0  0
  6  5  1  0  0  0  0
  7  2  1  0  0  0  0
 11 12  1  1  0  0  0
 11  1  1  0  0  0  0
 13 19  1  0  0  0  0
 13 18  1  0  0  0  0
 14 13  2  0  0  0  0
 15 14  1  0  0  0  0
 15 16  2  0  0  0  0
 16 17  1  0  0  0  0
 17 18  2  0  0  0  0
 17 11  1  0  0  0  0
 20 14  1  0  0  0  0
 21 15  1  0  0  0  0
 22  6  1  0  0  0  0
 23 22  2  0  0  0  0
 24 25  1  0  0  0  0
 24 26  1  0  0  0  0
 24 23  1  0  0  0  0
 27 24  1  0  0  0  0
 28 29  1  0  0  0  0
 28 27  1  0  0  0  0
 30 28  1  0  0  0  0
 31 30  1  0  0  0  0
 32 33  1  0  0  0  0
 32 30  1  0  0  0  0
 33 35  1  0  0  0  0
 34 33  1  0  0  0  0
 35 36  1  0  0  0  0
 35 27  1  0  0  0  0
M  END
>  <minimizedAffinity>
-5.44551086

$$$$

 OpenBabel03272509413D

 36 38  0  0  1  0  0  0  0  0999 V2000
   33.4300   31.2440   35.4890 C   0  0  0  0  0  0  0  0  0  0  0  0
   33.3600   32.3830   36.2960 C   0  0  0  0  0  0  0  0  0  0  0  0
   34.4860   33.0770   36.6940 C   0  0  0  0  0  0  0  0  0  0  0  0
   35.7480   32.6440   36.2890 C   0  0  0  0  0  0  0  0  0  0  0  0
   35.8030   31.5260   35.4980 C   0  0  0  0  0  0  0  0  0  0  0  0
   34.6710   30.8460   35.1100 C   0  0  0  0  0  0  0  0  0  0  0  0
   32.3760   32.7330   36.6200 H   0  0  0  0  0  0  0  0  0  0  0  0
   34.3550   33.9510   37.3190 H   0  0  0  0  0  0  0  0  0  0  0  0
   36.6110   33.1940   36.6060 H   0  0  0  0  0  0  0  0  0  0  0  0
   36.8120   31.2440   35.2190 H   0  0  0  0  0  0  0  0  0  0  0  0
   32.1920   30.5860   35.1250 C   0  0  2  0  0  3  0  0  0  0  0  0
   31.5460   31.1600   34.1660 O   0  0  0  0  0  1  0  0  0  0  0  0
   31.3150   28.3010   37.7990 C   0  0  0  0  0  0  0  0  0  0  0  0
   30.7480   27.2160   37.1440 C   0  0  0  0  0  0  0  0  0  0  0  0
   30.6600   27.2620   35.7610 C   0  0  0  0  0  0  0  0  0  0  0  0
   31.1260   28.3510   35.0980 N   0  0  0  0  0  0  0  0  0  0  0  0
   31.6640   29.3730   35.7540 C   0  0  0  0  0  0  0  0  0  0  0  0
   31.7530   29.3390   37.0940 N   0  0  0  0  0  0  0  0  0  0  0  0
   31.3880   28.2760   38.8700 H   0  0  0  0  0  0  0  0  0  0  0  0
   30.3880   26.3700   37.7110 H   0  0  0  0  0  0  0  0  0  0  0  0
   30.2250   26.4400   35.2160 H   0  0  0  0  0  0  0  0  0  0  0  0
   34.8890   29.6830   34.2740 C   0  0  0  0  0  3  0  0  0  0  0  0
   36.0340   29.0370   34.1290 C   0  0  0  0  0  3  0  0  0  0  0  0
   36.3970   27.8680   33.3340 C   0  0  0  0  0  0  0  0  0  0  0  0
   36.6580   28.1710   32.2840 H   0  0  0  0  0  0  0  0  0  0  0  0
   35.5200   27.2020   33.2230 H   0  0  0  0  0  0  0  0  0  0  0  0
   37.5510   27.0800   33.8570 C   0  0  0  0  0  3  0  0  0  0  0  0
   37.8760   27.5490   35.2730 C   0  0  0  0  0  3  0  0  0  0  0  0
   38.2240   28.6030   35.2710 H   0  0  0  0  0  0  0  0  0  0  0  0
   38.9750   26.7080   35.8820 C   0  0  0  0  0  3  0  0  0  0  0  0
   38.6930   25.6700   36.0530 H   0  0  0  0  0  0  0  0  0  0  0  0
   40.0990   26.8630   35.0510 O   0  0  0  0  0  0  0  0  0  0  0  0
   39.8350   26.3270   33.7880 C   0  0  0  0  0  3  0  0  0  0  0  0
   40.7440   26.1620   33.2140 H   0  0  0  0  0  0  0  0  0  0  0  0
   38.7910   27.1710   33.0400 C   0  0  0  0  0  3  0  0  0  0  0  0
   39.1930   28.1880   32.9350 H   0  0  0  0  0  0  0  0  0  0  0  0
  1  2  1  0  0  0  0
  2  7  1  0  0  0  0
  2  3  2  0  0  0  0
  3  8  1  0  0  0  0
  4  9  1  0  0  0  0
  4  3  1  0  0  0  0
  5  4  2  0  0  0  0
  6  1  2  0  0  0  0
  6  5  1  0  0  0  0
 10  5  1  0  0  0  0
 11 12  1  1  0  0  0
 11  1  1  0  0  0  0
 11 17  1  0  0  0  0
 13 19  1  0  0  0  0
 14 20  1  0  0  0  0
 14 13  1  0  0  0  0
 15 14  2  0  0  0  0
 16 17  2  0  0  0  0
 16 15  1  0  0  0  0
 17 18  1  0  0  0  0
 18 13  2  0  0  0  0
 21 15  1  0  0  0  0
 22  6  1  0  0  0  0
 23 22  2  0  0  0  0
 24 27  1  0  0  0  0
 24 23  1  0  0  0  0
 25 24  1  0  0  0  0
 26 24  1  0  0  0  0
 27 28  1  0  0  0  0
 28 30  1  0  0  0  0
 29 28  1  0  0  0  0
 30 31  1  0  0  0  0
 32 30  1  0  0  0  0
 33 32  1  0  0  0  0
 34 33  1  0  0  0  0
 35 33  1  0  0  0  0
 35 27  1  0  0  0  0
 36 35  1  0  0  0  0
M  END
>  <minimizedAffinity>
-5.42742395

$$$$

 OpenBabel03272509413D

 36 38  0  0  1  0  0  0  0  0999 V2000
   36.3040   28.7770   32.4520 C   0  0  0  0  0  0  0  0  0  0  0  0
   35.7540   29.8860   31.8010 C   0  0  0  0  0  0  0  0  0  0  0  0
   35.1420   30.9160   32.4870 C   0  0  0  0  0  0  0  0  0  0  0  0
   35.0570   30.8720   33.8780 C   0  0  0  0  0  0  0  0  0  0  0  0
   35.6000   29.7800   34.5040 C   0  0  0  0  0  0  0  0  0  0  0  0
   36.2070   28.7600   33.8060 C   0  0  0  0  0  0  0  0  0  0  0  0
   35.8150   29.9320   30.7110 H   0  0  0  0  0  0  0  0  0  0  0  0
   34.7380   31.7430   31.9170 H   0  0  0  0  0  0  0  0  0  0  0  0
   34.5790   31.6790   34.3950 H   0  0  0  0  0  0  0  0  0  0  0  0
   35.5000   29.8080   35.5840 H   0  0  0  0  0  0  0  0  0  0  0  0
   36.9250   27.7480   31.6440 C   0  0  1  0  0  3  0  0  0  0  0  0
   36.1140   26.8330   31.2300 O   0  0  0  0  0  1  0  0  0  0  0  0
   39.8990   28.1990   29.6210 C   0  0  0  0  0  0  0  0  0  0  0  0
   40.9260   27.7030   30.4140 C   0  0  0  0  0  0  0  0  0  0  0  0
   40.6000   27.2040   31.6660 C   0  0  0  0  0  0  0  0  0  0  0  0
   39.3050   27.2140   32.0720 N   0  0  0  0  0  0  0  0  0  0  0  0
   38.3460   27.6950   31.2900 C   0  0  0  0  0  0  0  0  0  0  0  0
   38.6500   28.1820   30.0760 N   0  0  0  0  0  0  0  0  0  0  0  0
   40.1390   28.5880   28.6500 H   0  0  0  0  0  0  0  0  0  0  0  0
   41.9430   27.7150   30.0500 H   0  0  0  0  0  0  0  0  0  0  0  0
   41.3690   26.8110   32.3110 H   0  0  0  0  0  0  0  0  0  0  0  0
   36.7340   27.6730   34.6060 C   0  0  0  0  0  3  0  0  0  0  0  0
   37.8080   27.7290   35.3750 C   0  0  0  0  0  3  0  0  0  0  0  0
   38.4480   26.7300   36.2250 C   0  0  0  0  0  0  0  0  0  0  0  0
   38.2290   26.9350   37.3080 H   0  0  0  0  0  0  0  0  0  0  0  0
   39.5480   26.8140   36.1420 H   0  0  0  0  0  0  0  0  0  0  0  0
   38.0400   25.3190   35.9620 C   0  0  0  0  0  3  0  0  0  0  0  0
   37.9870   24.5590   37.2860 C   0  0  0  0  0  3  0  0  0  0  0  0
   38.9950   24.4860   37.7420 H   0  0  0  0  0  0  0  0  0  0  0  0
   37.4780   23.1500   37.0790 C   0  0  0  0  0  3  0  0  0  0  0  0
   36.4400   23.0990   36.7540 H   0  0  0  0  0  0  0  0  0  0  0  0
   38.3820   22.5280   36.2010 O   0  0  0  0  0  0  0  0  0  0  0  0
   38.3440   23.1560   34.9530 C   0  0  0  0  0  3  0  0  0  0  0  0
   38.7950   22.5480   34.1730 H   0  0  0  0  0  0  0  0  0  0  0  0
   38.9320   24.5730   35.0330 C   0  0  0  0  0  3  0  0  0  0  0  0
   39.9730   24.4870   35.3730 H   0  0  0  0  0  0  0  0  0  0  0  0
  1  6  1  0  0  0  0
  2  1  2  0  0  0  0
  2  3  1  0  0  0  0
  3  4  2  0  0  0  0
  4  9  1  0  0  0  0
  4  5  1  0  0  0  0
  5 10  1  0  0  0  0
  6  5  2  0  0  0  0
  6 22  1  0  0  0  0
  7  2  1  0  0  0  0
  8  3  1  0  0  0  0
 11 12  1  6  0  0  0
 11  1  1  0  0  0  0
 13 18  2  0  0  0  0
 13 14  1  0  0  0  0
 14 15  2  0  0  0  0
 15 16  1  0  0  0  0
 15 21  1  0  0  0  0
 17 11  1  0  0  0  0
 17 16  2  0  0  0  0
 18 17  1  0  0  0  0
 19 13  1  0  0  0  0
 20 14  1  0  0  0  0
 22 23  2  0  0  0  0
 23 24  1  0  0  0  0
 24 25  1  0  0  0  0
 26 24  1  0  0  0  0
 27 24  1  0  0  0  0
 27 28  1  0  0  0  0
 28 29  1  0  0  0  0
 30 28  1  0  0  0  0
 31 30  1  0  0  0  0
 32 30  1  0  0  0  0
 33 35  1  0  0  0  0
 33 32  1  0  0  0  0
 34 33  1  0  0  0  0
 35 36  1  0  0  0  0
 35 27  1  0  0  0  0
M  END
>  <minimizedAffinity>
-5.41385984

$$$$

 OpenBabel03272509413D

 36 38  0  0  1  0  0  0  0  0999 V2000
   38.9650   26.4520   33.8740 C   0  0  0  0  0  0  0  0  0  0  0  0
   40.2330   27.0400   33.8650 C   0  0  0  0  0  0  0  0  0  0  0  0
   40.9330   27.2700   32.6970 C   0  0  0  0  0  0  0  0  0  0  0  0
   40.3740   26.9120   31.4700 C   0  0  0  0  0  0  0  0  0  0  0  0
   39.1300   26.3360   31.4930 C   0  0  0  0  0  0  0  0  0  0  0  0
   38.4460   26.1130   32.6660 C   0  0  0  0  0  0  0  0  0  0  0  0
   40.6820   27.3260   34.8200 H   0  0  0  0  0  0  0  0  0  0  0  0
   41.9100   27.7300   32.7660 H   0  0  0  0  0  0  0  0  0  0  0  0
   40.9290   27.0980   30.5730 H   0  0  0  0  0  0  0  0  0  0  0  0
   38.7540   26.0820   30.5080 H   0  0  0  0  0  0  0  0  0  0  0  0
   38.3130   26.2520   35.1520 C   0  0  1  0  0  3  0  0  0  0  0  0
   37.4680   27.1760   35.4690 O   0  0  0  0  0  1  0  0  0  0  0  0
   39.7490   23.1370   36.3220 C   0  0  0  0  0  0  0  0  0  0  0  0
   39.1480   22.9290   37.5560 C   0  0  0  0  0  0  0  0  0  0  0  0
   38.2330   23.8710   38.0020 C   0  0  0  0  0  0  0  0  0  0  0  0
   37.9560   24.9510   37.2280 N   0  0  0  0  0  0  0  0  0  0  0  0
   38.5480   25.1210   36.0520 C   0  0  0  0  0  0  0  0  0  0  0  0
   39.4370   24.2160   35.6110 N   0  0  0  0  0  0  0  0  0  0  0  0
   40.4600   22.4150   35.9660 H   0  0  0  0  0  0  0  0  0  0  0  0
   39.3980   22.0550   38.1390 H   0  0  0  0  0  0  0  0  0  0  0  0
   37.7450   23.7460   38.9550 H   0  0  0  0  0  0  0  0  0  0  0  0
   37.1420   25.4970   32.5300 C   0  0  0  0  0  3  0  0  0  0  0  0
   36.8510   24.4640   31.7570 C   0  0  0  0  0  3  0  0  0  0  0  0
   35.6020   23.7470   31.5230 C   0  0  0  0  0  0  0  0  0  0  0  0
   35.0460   24.1970   30.6570 H   0  0  0  0  0  0  0  0  0  0  0  0
   34.9250   23.8780   32.3890 H   0  0  0  0  0  0  0  0  0  0  0  0
   35.7520   22.2910   31.2300 C   0  0  0  0  0  3  0  0  0  0  0  0
   35.0980   21.4870   32.3520 C   0  0  0  0  0  3  0  0  0  0  0  0
   35.6290   21.6430   33.3130 H   0  0  0  0  0  0  0  0  0  0  0  0
   35.1360   20.0060   32.0460 C   0  0  0  0  0  3  0  0  0  0  0  0
   34.5320   19.7170   31.1870 H   0  0  0  0  0  0  0  0  0  0  0  0
   36.4930   19.6600   31.9310 O   0  0  0  0  0  0  0  0  0  0  0  0
   37.0590   20.3120   30.8330 C   0  0  0  0  0  3  0  0  0  0  0  0
   38.0050   19.8650   30.5330 H   0  0  0  0  0  0  0  0  0  0  0  0
   37.1560   21.8250   31.0810 C   0  0  0  0  0  3  0  0  0  0  0  0
   37.7850   21.9810   31.9690 H   0  0  0  0  0  0  0  0  0  0  0  0
  1 11  1  0  0  0  0
  2  1  1  0  0  0  0
  2  7  1  0  0  0  0
  3  8  1  0  0  0  0
  3  2  2  0  0  0  0
  4  5  2  0  0  0  0
  4  3  1  0  0  0  0
  5  6  1  0  0  0  0
  6  1  2  0  0  0  0
  9  4  1  0  0  0  0
 10  5  1  0  0  0  0
 11 12  1  6  0  0  0
 11 17  1  0  0  0  0
 13 14  1  0  0  0  0
 14 15  2  0  0  0  0
 14 20  1  0  0  0  0
 15 21  1  0  0  0  0
 16 15  1  0  0  0  0
 17 16  2  0  0  0  0
 18 17  1  0  0  0  0
 18 13  2  0  0  0  0
 19 13  1  0  0  0  0
 22  6  1  0  0  0  0
 23 22  2  0  0  0  0
 24 23  1  0  0  0  0
 24 26  1  0  0  0  0
 25 24  1  0  0  0  0
 27 24  1  0  0  0  0
 27 28  1  0  0  0  0
 28 29  1  0  0  0  0
 30 28  1  0  0  0  0
 31 30  1  0  0  0  0
 32 30  1  0  0  0  0
 33 35  1  0  0  0  0
 33 32  1  0  0  0  0
 34 33  1  0  0  0  0
 35 27  1  0  0  0  0
 35 36  1  0  0  0  0
M  END
>  <minimizedAffinity>
-5.39405394

$$$$

 OpenBabel03272509413D

 36 38  0  0  1  0  0  0  0  0999 V2000
   37.5730   22.0330   33.2940 C   0  0  0  0  0  0  0  0  0  0  0  0
   36.7960   20.8710   33.2770 C   0  0  0  0  0  0  0  0  0  0  0  0
   35.6340   20.7700   32.5380 C   0  0  0  0  0  0  0  0  0  0  0  0
   35.2010   21.8530   31.7730 C   0  0  0  0  0  0  0  0  0  0  0  0
   35.9710   22.9860   31.7980 C   0  0  0  0  0  0  0  0  0  0  0  0
   37.1280   23.0710   32.5410 C   0  0  0  0  0  0  0  0  0  0  0  0
   37.1250   20.0150   33.8730 H   0  0  0  0  0  0  0  0  0  0  0  0
   35.0830   19.8390   32.5730 H   0  0  0  0  0  0  0  0  0  0  0  0
   34.2980   21.7580   31.2050 H   0  0  0  0  0  0  0  0  0  0  0  0
   35.5790   23.7880   31.1830 H   0  0  0  0  0  0  0  0  0  0  0  0
   38.7760   22.0400   34.1020 C   0  0  1  0  0  3  0  0  0  0  0  0
   39.8370   21.6460   33.4810 O   0  0  0  0  0  1  0  0  0  0  0  0
   37.6880   23.5290   37.2230 C   0  0  0  0  0  0  0  0  0  0  0  0
   38.7480   23.3040   38.0920 C   0  0  0  0  0  0  0  0  0  0  0  0
   39.8580   22.6300   37.6070 C   0  0  0  0  0  0  0  0  0  0  0  0
   39.8750   22.2170   36.3130 N   0  0  0  0  0  0  0  0  0  0  0  0
   38.8460   22.4480   35.5070 C   0  0  0  0  0  0  0  0  0  0  0  0
   37.7650   23.0990   35.9670 N   0  0  0  0  0  0  0  0  0  0  0  0
   36.8230   24.0490   37.5880 H   0  0  0  0  0  0  0  0  0  0  0  0
   38.6910   23.6490   39.1140 H   0  0  0  0  0  0  0  0  0  0  0  0
   40.7010   22.4360   38.2500 H   0  0  0  0  0  0  0  0  0  0  0  0
   37.8350   24.3330   32.4670 C   0  0  0  0  0  3  0  0  0  0  0  0
   37.5140   25.4400   33.1160 C   0  0  0  0  0  3  0  0  0  0  0  0
   38.1240   26.7650   33.1390 C   0  0  0  0  0  0  0  0  0  0  0  0
   38.8650   26.8720   32.3010 H   0  0  0  0  0  0  0  0  0  0  0  0
   38.7250   26.8850   34.0610 H   0  0  0  0  0  0  0  0  0  0  0  0
   37.1690   27.9050   33.0200 C   0  0  0  0  0  3  0  0  0  0  0  0
   36.5230   28.1590   34.3810 C   0  0  0  0  0  3  0  0  0  0  0  0
   35.9010   27.2940   34.6910 H   0  0  0  0  0  0  0  0  0  0  0  0
   35.6220   29.3730   34.3320 C   0  0  0  0  0  3  0  0  0  0  0  0
   36.1530   30.3090   34.1620 H   0  0  0  0  0  0  0  0  0  0  0  0
   34.6350   29.0950   33.3710 O   0  0  0  0  0  0  0  0  0  0  0  0
   35.2190   28.9770   32.1070 C   0  0  0  0  0  3  0  0  0  0  0  0
   34.4860   29.0510   31.3080 H   0  0  0  0  0  0  0  0  0  0  0  0
   36.0860   27.7120   32.0190 C   0  0  0  0  0  3  0  0  0  0  0  0
   35.4390   26.8450   32.2100 H   0  0  0  0  0  0  0  0  0  0  0  0
  1 11  1  0  0  0  0
  2  1  1  0  0  0  0
  2  7  1  0  0  0  0
  3  8  1  0  0  0  0
  3  2  2  0  0  0  0
  4  5  2  0  0  0  0
  4  3  1  0  0  0  0
  5  6  1  0  0  0  0
  6  1  2  0  0  0  0
  9  4  1  0  0  0  0
 10  5  1  0  0  0  0
 11 12  1  6  0  0  0
 11 17  1  0  0  0  0
 13 19  1  0  0  0  0
 13 14  1  0  0  0  0
 14 20  1  0  0  0  0
 15 14  2  0  0  0  0
 15 21  1  0  0  0  0
 16 15  1  0  0  0  0
 17 18  1  0  0  0  0
 17 16  2  0  0  0  0
 18 13  2  0  0  0  0
 22  6  1  0  0  0  0
 22 23  2  0  0  0  0
 23 24  1  0  0  0  0
 24 26  1  0  0  0  0
 25 24  1  0  0  0  0
 27 24  1  0  0  0  0
 27 28  1  0  0  0  0
 28 29  1  0  0  0  0
 30 28  1  0  0  0  0
 31 30  1  0  0  0  0
 32 30  1  0  0  0  0
 33 32  1  0  0  0  0
 34 33  1  0  0  0  0
 35 33  1  0  0  0  0
 35 36  1  0  0  0  0
 35 27  1  0  0  0  0
M  END
>  <minimizedAffinity>
-5.36835051

$$$$

 OpenBabel03272509413D

 36 38  0  0  1  0  0  0  0  0999 V2000
   37.2270   21.6190   33.2910 C   0  0  0  0  0  0  0  0  0  0  0  0
   36.5440   20.4250   33.5420 C   0  0  0  0  0  0  0  0  0  0  0  0
   35.3650   20.1000   32.9020 C   0  0  0  0  0  0  0  0  0  0  0  0
   34.8170   20.9770   31.9670 C   0  0  0  0  0  0  0  0  0  0  0  0
   35.4950   22.1440   31.7300 C   0  0  0  0  0  0  0  0  0  0  0  0
   36.6700   22.4540   32.3770 C   0  0  0  0  0  0  0  0  0  0  0  0
   36.9650   19.7290   34.2730 H   0  0  0  0  0  0  0  0  0  0  0  0
   34.8920   19.1570   33.1460 H   0  0  0  0  0  0  0  0  0  0  0  0
   33.9020   20.7090   31.4780 H   0  0  0  0  0  0  0  0  0  0  0  0
   35.0160   22.7800   30.9940 H   0  0  0  0  0  0  0  0  0  0  0  0
   38.4570   21.8690   34.0150 C   0  0  1  0  0  3  0  0  0  0  0  0
   39.5240   21.4790   33.4020 O   0  0  0  0  0  1  0  0  0  0  0  0
   39.7870   22.5950   37.3080 C   0  0  0  0  0  0  0  0  0  0  0  0
   38.9200   23.5510   37.8190 C   0  0  0  0  0  0  0  0  0  0  0  0
   37.8590   23.9610   37.0260 C   0  0  0  0  0  0  0  0  0  0  0  0
   37.7010   23.4190   35.7910 N   0  0  0  0  0  0  0  0  0  0  0  0
   38.5470   22.5060   35.3310 C   0  0  0  0  0  0  0  0  0  0  0  0
   39.5790   22.1030   36.0900 N   0  0  0  0  0  0  0  0  0  0  0  0
   40.6120   22.2710   37.9120 H   0  0  0  0  0  0  0  0  0  0  0  0
   39.0840   23.9560   38.8070 H   0  0  0  0  0  0  0  0  0  0  0  0
   37.1640   24.7010   37.3870 H   0  0  0  0  0  0  0  0  0  0  0  0
   37.2710   23.7230   32.0210 C   0  0  0  0  0  3  0  0  0  0  0  0
   36.8530   24.9150   32.4140 C   0  0  0  0  0  3  0  0  0  0  0  0
   37.3520   26.2590   32.1400 C   0  0  0  0  0  0  0  0  0  0  0  0
   36.5190   26.9240   31.7850 H   0  0  0  0  0  0  0  0  0  0  0  0
   38.0660   26.2300   31.2950 H   0  0  0  0  0  0  0  0  0  0  0  0
   37.9890   26.9470   33.3010 C   0  0  0  0  0  3  0  0  0  0  0  0
   39.3450   26.3030   33.5810 C   0  0  0  0  0  3  0  0  0  0  0  0
   39.2230   25.2480   33.9030 H   0  0  0  0  0  0  0  0  0  0  0  0
   40.0730   27.0350   34.6860 C   0  0  0  0  0  3  0  0  0  0  0  0
   40.3620   28.0530   34.4240 H   0  0  0  0  0  0  0  0  0  0  0  0
   39.2530   26.9510   35.8240 O   0  0  0  0  0  0  0  0  0  0  0  0
   38.0580   27.6410   35.6030 C   0  0  0  0  0  3  0  0  0  0  0  0
   37.5270   27.8490   36.5290 H   0  0  0  0  0  0  0  0  0  0  0  0
   37.1930   26.9210   34.5570 C   0  0  0  0  0  3  0  0  0  0  0  0
   36.9740   25.9140   34.9370 H   0  0  0  0  0  0  0  0  0  0  0  0
  1  2  1  0  0  0  0
  1 11  1  0  0  0  0
  2  7  1  0  0  0  0
  3  8  1  0  0  0  0
  3  2  2  0  0  0  0
  4  3  1  0  0  0  0
  5  4  2  0  0  0  0
  5  6  1  0  0  0  0
  6  1  2  0  0  0  0
  9  4  1  0  0  0  0
 10  5  1  0  0  0  0
 11 12  1  6  0  0  0
 11 17  1  0  0  0  0
 13 14  1  0  0  0  0
 13 19  1  0  0  0  0
 14 20  1  0  0  0  0
 15 21  1  0  0  0  0
 15 14  2  0  0  0  0
 16 15  1  0  0  0  0
 17 16  2  0  0  0  0
 17 18  1  0  0  0  0
 18 13  2  0  0  0  0
 22  6  1  0  0  0  0
 22 23  2  0  0  0  0
 24 23  1  0  0  0  0
 24 27  1  0  0  0  0
 25 24  1  0  0  0  0
 26 24  1  0  0  0  0
 27 28  1  0  0  0  0
 27 35  1  0  0  0  0
 28 29  1  0  0  0  0
 28 30  1  0  0  0  0
 30 32  1  0  0  0  0
 31 30  1  0  0  0  0
 33 32  1  0  0  0  0
 33 34  1  0  0  0  0
 35 36  1  0  0  0  0
 35 33  1  0  0  0  0
M  END
>  <minimizedAffinity>
-5.35495901

$$$$
