
 OpenBabel03272502123D

 27 29  0  0  0  0  0  0  0  0999 V2000
   36.0980   23.6420   31.7360 C   0  0  0  0  0  0  0  0  0  0  0  0
   35.2530   24.4540   31.0020 C   0  0  0  0  0  0  0  0  0  0  0  0
   35.2760   25.8460   31.0160 C   0  0  0  0  0  0  0  0  0  0  0  0
   36.2070   26.4240   31.8210 N   0  0  0  0  0  0  0  0  0  0  0  0
   37.0430   25.6420   32.5490 C   0  0  0  0  0  0  0  0  0  0  0  0
   36.9760   24.3030   32.4970 N   0  0  0  0  0  0  0  0  0  0  0  0
   34.5030   24.0200   30.3520 H   0  0  0  0  0  0  0  0  0  0  0  0
   34.6020   26.4210   30.4310 H   0  0  0  0  0  0  0  0  0  0  0  0
   38.0590   26.2560   33.4280 C   0  0  0  0  0  3  0  0  0  0  0  0
   38.7540   25.2150   34.3110 C   0  0  0  0  0  3  0  0  0  0  0  0
   38.1070   24.8700   35.1180 H   0  0  0  0  0  0  0  0  0  0  0  0
   39.9560   25.9290   34.8920 C   0  0  0  0  0  3  0  0  0  0  0  0
   40.6080   26.2140   34.0150 H   0  0  0  0  0  0  0  0  0  0  0  0
   39.6170   27.1140   35.5140 O   0  0  0  0  0  0  0  0  0  0  0  0
   38.2500   27.2610   35.7070 C   0  0  0  0  0  3  0  0  0  0  0  0
   38.0880   28.2540   36.1720 H   0  0  0  0  0  0  0  0  0  0  0  0
   37.4700   27.2660   34.3930 C   0  0  0  0  0  3  0  0  0  0  0  0
   37.3860   28.2720   33.9550 H   0  0  0  0  0  0  0  0  0  0  0  0
   35.0500   21.4360   32.3410 C   0  0  0  0  0  0  0  0  0  0  0  0
   36.0310   22.2060   31.6840 C   0  0  0  0  0  0  0  0  0  0  0  0
   36.9880   21.5310   30.9440 C   0  0  0  0  0  0  0  0  0  0  0  0
   36.9200   20.1770   30.8980 N   0  0  0  0  0  0  0  0  0  0  0  0
   35.9710   19.4550   31.5360 C   0  0  0  0  0  0  0  0  0  0  0  0
   35.0290   20.1040   32.2650 N   0  0  0  0  0  0  0  0  0  0  0  0
   34.3390   22.0630   32.9010 H   0  0  0  0  0  0  0  0  0  0  0  0
   37.7900   21.9770   30.3950 H   0  0  0  0  0  0  0  0  0  0  0  0
   35.9780   18.3810   31.4570 H   0  0  0  0  0  0  0  0  0  0  0  0
  1  6  1  0  0  0  0
  2  3  1  0  0  0  0
  2  1  2  0  0  0  0
  3  4  2  0  0  0  0
  4  5  1  0  0  0  0
  5  9  1  0  0  0  0
  6  5  2  0  0  0  0
  7  2  1  0  0  0  0
  8  3  1  0  0  0  0
  9 10  1  0  0  0  0
  9 17  1  0  0  0  0
 10 12  1  0  0  0  0
 10 11  1  0  0  0  0
 12 14  1  0  0  0  0
 13 12  1  0  0  0  0
 14 15  1  0  0  0  0
 15 16  1  0  0  0  0
 17 15  1  0  0  0  0
 18 17  1  0  0  0  0
 19 25  1  0  0  0  0
 20  1  1  0  0  0  0
 20 19  2  0  0  0  0
 21 20  1  0  0  0  0
 22 21  2  0  0  0  0
 22 23  1  0  0  0  0
 23 24  2  0  0  0  0
 24 19  1  0  0  0  0
 26 21  1  0  0  0  0
 27 23  1  0  0  0  0
M  END
>  <minimizedAffinity>
-4.92861223

$$$$

 OpenBabel03272502123D

 27 29  0  0  0  0  0  0  0  0999 V2000
   37.1990   26.2780   33.4560 C   0  0  0  0  0  0  0  0  0  0  0  0
   37.1500   25.3300   32.4510 C   0  0  0  0  0  0  0  0  0  0  0  0
   37.6270   24.0270   32.5630 C   0  0  0  0  0  0  0  0  0  0  0  0
   38.1780   23.6880   33.7590 N   0  0  0  0  0  0  0  0  0  0  0  0
   38.2340   24.6060   34.7560 C   0  0  0  0  0  0  0  0  0  0  0  0
   37.7580   25.8510   34.5920 N   0  0  0  0  0  0  0  0  0  0  0  0
   36.7170   25.5720   31.4880 H   0  0  0  0  0  0  0  0  0  0  0  0
   37.5650   23.3380   31.7570 H   0  0  0  0  0  0  0  0  0  0  0  0
   38.8290   24.2530   36.0610 C   0  0  0  0  0  3  0  0  0  0  0  0
   39.1810   22.7640   36.1430 C   0  0  0  0  0  3  0  0  0  0  0  0
   38.2920   22.1430   36.2590 H   0  0  0  0  0  0  0  0  0  0  0  0
   40.0560   22.6340   37.3720 C   0  0  0  0  0  3  0  0  0  0  0  0
   40.9780   23.2550   37.1710 H   0  0  0  0  0  0  0  0  0  0  0  0
   39.4700   23.1760   38.4980 O   0  0  0  0  0  0  0  0  0  0  0  0
   38.1260   23.4760   38.3280 C   0  0  0  0  0  3  0  0  0  0  0  0
   37.7690   23.9390   39.2700 H   0  0  0  0  0  0  0  0  0  0  0  0
   37.8900   24.5050   37.2240 C   0  0  0  0  0  3  0  0  0  0  0  0
   37.9410   25.5400   37.5940 H   0  0  0  0  0  0  0  0  0  0  0  0
   36.5940   28.2710   32.0430 C   0  0  0  0  0  0  0  0  0  0  0  0
   36.6900   27.6130   33.2870 C   0  0  0  0  0  0  0  0  0  0  0  0
   36.2670   28.3010   34.4110 C   0  0  0  0  0  0  0  0  0  0  0  0
   35.7880   29.5600   34.2460 N   0  0  0  0  0  0  0  0  0  0  0  0
   35.7030   30.1750   33.0450 C   0  0  0  0  0  0  0  0  0  0  0  0
   36.1150   29.5110   31.9350 N   0  0  0  0  0  0  0  0  0  0  0  0
   36.9540   27.6420   31.2150 H   0  0  0  0  0  0  0  0  0  0  0  0
   36.2800   27.9360   35.4170 H   0  0  0  0  0  0  0  0  0  0  0  0
   35.3130   31.1770   32.9870 H   0  0  0  0  0  0  0  0  0  0  0  0
  1  6  1  0  0  0  0
  2  3  1  0  0  0  0
  2  1  2  0  0  0  0
  3  4  2  0  0  0  0
  4  5  1  0  0  0  0
  5  9  1  0  0  0  0
  6  5  2  0  0  0  0
  7  2  1  0  0  0  0
  8  3  1  0  0  0  0
  9 10  1  0  0  0  0
  9 17  1  0  0  0  0
 10 11  1  0  0  0  0
 10 12  1  0  0  0  0
 12 14  1  0  0  0  0
 13 12  1  0  0  0  0
 15 14  1  0  0  0  0
 15 16  1  0  0  0  0
 17 18  1  0  0  0  0
 17 15  1  0  0  0  0
 19 20  1  0  0  0  0
 20  1  1  0  0  0  0
 20 21  2  0  0  0  0
 21 26  1  0  0  0  0
 22 21  1  0  0  0  0
 23 22  2  0  0  0  0
 24 19  2  0  0  0  0
 24 23  1  0  0  0  0
 25 19  1  0  0  0  0
 27 23  1  0  0  0  0
M  END
>  <minimizedAffinity>
-4.85629797

$$$$

 OpenBabel03272502123D

 27 29  0  0  0  0  0  0  0  0999 V2000
   38.3530   24.7680   35.9970 C   0  0  0  0  0  0  0  0  0  0  0  0
   37.7680   24.6110   37.2400 C   0  0  0  0  0  0  0  0  0  0  0  0
   38.2240   23.7440   38.2300 C   0  0  0  0  0  0  0  0  0  0  0  0
   39.3260   23.0090   37.9250 N   0  0  0  0  0  0  0  0  0  0  0  0
   39.9120   23.1510   36.7100 C   0  0  0  0  0  0  0  0  0  0  0  0
   39.4290   24.0030   35.7920 N   0  0  0  0  0  0  0  0  0  0  0  0
   36.8890   25.1840   37.5100 H   0  0  0  0  0  0  0  0  0  0  0  0
   37.7340   23.6630   39.1690 H   0  0  0  0  0  0  0  0  0  0  0  0
   41.1110   22.3590   36.3650 C   0  0  0  0  0  3  0  0  0  0  0  0
   41.5930   21.5090   37.5450 C   0  0  0  0  0  3  0  0  0  0  0  0
   42.0810   22.1160   38.3090 H   0  0  0  0  0  0  0  0  0  0  0  0
   42.5920   20.5400   36.9500 C   0  0  0  0  0  3  0  0  0  0  0  0
   42.0180   19.9100   36.2080 H   0  0  0  0  0  0  0  0  0  0  0  0
   43.5790   21.1760   36.2250 O   0  0  0  0  0  0  0  0  0  0  0  0
   43.6000   22.5510   36.4150 C   0  0  0  0  0  3  0  0  0  0  0  0
   44.3960   22.9620   35.7620 H   0  0  0  0  0  0  0  0  0  0  0  0
   42.2980   23.2220   35.9850 C   0  0  0  0  0  3  0  0  0  0  0  0
   42.2970   23.5000   34.9200 H   0  0  0  0  0  0  0  0  0  0  0  0
   37.3990   26.9880   35.2950 C   0  0  0  0  0  0  0  0  0  0  0  0
   37.8400   25.6800   35.0100 C   0  0  0  0  0  0  0  0  0  0  0  0
   37.7730   25.2530   33.6940 C   0  0  0  0  0  0  0  0  0  0  0  0
   37.2890   26.1170   32.7660 N   0  0  0  0  0  0  0  0  0  0  0  0
   36.8710   27.3690   33.0600 C   0  0  0  0  0  0  0  0  0  0  0  0
   36.9310   27.7990   34.3450 N   0  0  0  0  0  0  0  0  0  0  0  0
   37.4920   27.2310   36.3640 H   0  0  0  0  0  0  0  0  0  0  0  0
   38.0690   24.2920   33.3270 H   0  0  0  0  0  0  0  0  0  0  0  0
   36.4960   28.0010   32.2730 H   0  0  0  0  0  0  0  0  0  0  0  0
  1  2  1  0  0  0  0
  2  7  1  0  0  0  0
  2  3  2  0  0  0  0
  3  8  1  0  0  0  0
  4  3  1  0  0  0  0
  5  4  2  0  0  0  0
  6  1  2  0  0  0  0
  6  5  1  0  0  0  0
  9  5  1  0  0  0  0
  9 10  1  0  0  0  0
 10 11  1  0  0  0  0
 12 10  1  0  0  0  0
 13 12  1  0  0  0  0
 14 15  1  0  0  0  0
 14 12  1  0  0  0  0
 16 15  1  0  0  0  0
 17  9  1  0  0  0  0
 17 15  1  0  0  0  0
 18 17  1  0  0  0  0
 19 25  1  0  0  0  0
 20 19  1  0  0  0  0
 20  1  1  0  0  0  0
 21 20  2  0  0  0  0
 22 23  2  0  0  0  0
 22 21  1  0  0  0  0
 23 24  1  0  0  0  0
 24 19  2  0  0  0  0
 26 21  1  0  0  0  0
 27 23  1  0  0  0  0
M  END
>  <minimizedAffinity>
-4.83868551

$$$$

 OpenBabel03272502123D

 27 29  0  0  0  0  0  0  0  0999 V2000
   38.0840   23.2230   34.7530 C   0  0  0  0  0  0  0  0  0  0  0  0
   38.1230   24.3140   33.9050 C   0  0  0  0  0  0  0  0  0  0  0  0
   37.8080   24.2790   32.5490 C   0  0  0  0  0  0  0  0  0  0  0  0
   37.4380   23.0710   32.0470 N   0  0  0  0  0  0  0  0  0  0  0  0
   37.3950   21.9900   32.8650 C   0  0  0  0  0  0  0  0  0  0  0  0
   37.7100   22.0810   34.1670 N   0  0  0  0  0  0  0  0  0  0  0  0
   38.4140   25.2890   34.2770 H   0  0  0  0  0  0  0  0  0  0  0  0
   37.8560   25.1500   31.9430 H   0  0  0  0  0  0  0  0  0  0  0  0
   36.9950   20.6700   32.3350 C   0  0  0  0  0  3  0  0  0  0  0  0
   36.5470   20.7550   30.8720 C   0  0  0  0  0  3  0  0  0  0  0  0
   35.5620   21.2130   30.7750 H   0  0  0  0  0  0  0  0  0  0  0  0
   36.4900   19.3200   30.3940 C   0  0  0  0  0  3  0  0  0  0  0  0
   37.5440   18.9200   30.4700 H   0  0  0  0  0  0  0  0  0  0  0  0
   35.7190   18.5200   31.2130 O   0  0  0  0  0  0  0  0  0  0  0  0
   34.9590   19.2390   32.1250 C   0  0  0  0  0  3  0  0  0  0  0  0
   34.4160   18.5040   32.7520 H   0  0  0  0  0  0  0  0  0  0  0  0
   35.8170   20.0690   33.0770 C   0  0  0  0  0  3  0  0  0  0  0  0
   36.1230   19.5060   33.9710 H   0  0  0  0  0  0  0  0  0  0  0  0
   39.5750   22.7450   36.7220 C   0  0  0  0  0  0  0  0  0  0  0  0
   38.4200   23.3140   36.1480 C   0  0  0  0  0  0  0  0  0  0  0  0
   37.5590   24.0010   36.9870 C   0  0  0  0  0  0  0  0  0  0  0  0
   37.8810   24.0840   38.3030 N   0  0  0  0  0  0  0  0  0  0  0  0
   38.9940   23.5320   38.8350 C   0  0  0  0  0  0  0  0  0  0  0  0
   39.8460   22.8550   38.0240 N   0  0  0  0  0  0  0  0  0  0  0  0
   40.1920   22.2220   35.9750 H   0  0  0  0  0  0  0  0  0  0  0  0
   36.6480   24.4830   36.6990 H   0  0  0  0  0  0  0  0  0  0  0  0
   39.1870   23.6360   39.8890 H   0  0  0  0  0  0  0  0  0  0  0  0
  1 20  1  0  0  0  0
  2  7  1  0  0  0  0
  2  1  2  0  0  0  0
  3  2  1  0  0  0  0
  4  3  2  0  0  0  0
  4  5  1  0  0  0  0
  5  6  2  0  0  0  0
  6  1  1  0  0  0  0
  8  3  1  0  0  0  0
  9  5  1  0  0  0  0
  9 17  1  0  0  0  0
 10  9  1  0  0  0  0
 11 10  1  0  0  0  0
 12 13  1  0  0  0  0
 12 10  1  0  0  0  0
 12 14  1  0  0  0  0
 14 15  1  0  0  0  0
 15 16  1  0  0  0  0
 15 17  1  0  0  0  0
 17 18  1  0  0  0  0
 19 24  1  0  0  0  0
 20 19  2  0  0  0  0
 20 21  1  0  0  0  0
 21 22  2  0  0  0  0
 22 23  1  0  0  0  0
 23 27  1  0  0  0  0
 24 23  2  0  0  0  0
 25 19  1  0  0  0  0
 26 21  1  0  0  0  0
M  END
>  <minimizedAffinity>
-4.81988573

$$$$

 OpenBabel03272502123D

 27 29  0  0  0  0  0  0  0  0999 V2000
   36.1020   28.1810   32.3220 C   0  0  0  0  0  0  0  0  0  0  0  0
   36.4080   29.1240   31.3590 C   0  0  0  0  0  0  0  0  0  0  0  0
   36.2880   30.5010   31.5280 C   0  0  0  0  0  0  0  0  0  0  0  0
   35.8330   30.9220   32.7380 N   0  0  0  0  0  0  0  0  0  0  0  0
   35.5280   30.0090   33.6940 C   0  0  0  0  0  0  0  0  0  0  0  0
   35.6620   28.6920   33.4770 N   0  0  0  0  0  0  0  0  0  0  0  0
   36.7720   28.8170   30.3860 H   0  0  0  0  0  0  0  0  0  0  0  0
   36.5370   31.1820   30.7510 H   0  0  0  0  0  0  0  0  0  0  0  0
   35.0330   30.4520   35.0140 C   0  0  0  0  0  3  0  0  0  0  0  0
   33.7240   31.2390   34.8980 C   0  0  0  0  0  3  0  0  0  0  0  0
   33.8880   32.2430   34.5030 H   0  0  0  0  0  0  0  0  0  0  0  0
   33.1920   31.3310   36.3120 C   0  0  0  0  0  3  0  0  0  0  0  0
   32.9950   30.2690   36.6450 H   0  0  0  0  0  0  0  0  0  0  0  0
   34.1230   31.8390   37.1950 O   0  0  0  0  0  0  0  0  0  0  0  0
   35.2280   32.3970   36.5680 C   0  0  0  0  0  3  0  0  0  0  0  0
   35.9230   32.7350   37.3620 H   0  0  0  0  0  0  0  0  0  0  0  0
   35.9960   31.3830   35.7230 C   0  0  0  0  0  3  0  0  0  0  0  0
   36.7600   30.8430   36.3020 H   0  0  0  0  0  0  0  0  0  0  0  0
   35.5450   26.0520   31.1020 C   0  0  0  0  0  0  0  0  0  0  0  0
   36.2450   26.7680   32.0950 C   0  0  0  0  0  0  0  0  0  0  0  0
   37.1220   26.0590   32.8990 C   0  0  0  0  0  0  0  0  0  0  0  0
   37.2530   24.7260   32.6810 N   0  0  0  0  0  0  0  0  0  0  0  0
   36.5730   24.0570   31.7230 C   0  0  0  0  0  0  0  0  0  0  0  0
   35.7100   24.7390   30.9290 N   0  0  0  0  0  0  0  0  0  0  0  0
   34.8750   26.7020   30.5200 H   0  0  0  0  0  0  0  0  0  0  0  0
   37.7190   26.4630   33.6900 H   0  0  0  0  0  0  0  0  0  0  0  0
   36.7260   22.9970   31.6060 H   0  0  0  0  0  0  0  0  0  0  0  0
  1  6  1  0  0  0  0
  2  3  1  0  0  0  0
  2  1  2  0  0  0  0
  3  4  2  0  0  0  0
  4  5  1  0  0  0  0
  5  9  1  0  0  0  0
  6  5  2  0  0  0  0
  7  2  1  0  0  0  0
  8  3  1  0  0  0  0
  9 17  1  0  0  0  0
 10  9  1  0  0  0  0
 10 12  1  0  0  0  0
 11 10  1  0  0  0  0
 12 13  1  0  0  0  0
 12 14  1  0  0  0  0
 15 14  1  0  0  0  0
 15 16  1  0  0  0  0
 17 18  1  0  0  0  0
 17 15  1  0  0  0  0
 19 20  1  0  0  0  0
 20  1  1  0  0  0  0
 20 21  2  0  0  0  0
 21 26  1  0  0  0  0
 22 21  1  0  0  0  0
 23 22  2  0  0  0  0
 24 19  2  0  0  0  0
 24 23  1  0  0  0  0
 25 19  1  0  0  0  0
 27 23  1  0  0  0  0
M  END
>  <minimizedAffinity>
-4.76059914

$$$$

 OpenBabel03272502123D

 27 29  0  0  0  0  0  0  0  0999 V2000
   36.1260   28.5960   33.7890 C   0  0  0  0  0  0  0  0  0  0  0  0
   35.8340   28.7960   32.4520 C   0  0  0  0  0  0  0  0  0  0  0  0
   35.0390   29.8260   31.9570 C   0  0  0  0  0  0  0  0  0  0  0  0
   34.5230   30.6840   32.8770 N   0  0  0  0  0  0  0  0  0  0  0  0
   34.7990   30.5020   34.1920 C   0  0  0  0  0  0  0  0  0  0  0  0
   35.5730   29.4900   34.6140 N   0  0  0  0  0  0  0  0  0  0  0  0
   36.2310   28.1280   31.6970 H   0  0  0  0  0  0  0  0  0  0  0  0
   34.8470   29.9320   30.9170 H   0  0  0  0  0  0  0  0  0  0  0  0
   34.2460   31.4260   35.2040 C   0  0  0  0  0  3  0  0  0  0  0  0
   35.2530   31.7190   36.3200 C   0  0  0  0  0  3  0  0  0  0  0  0
   35.3660   30.8720   36.9990 H   0  0  0  0  0  0  0  0  0  0  0  0
   34.6750   32.8990   37.0730 C   0  0  0  0  0  3  0  0  0  0  0  0
   34.6320   33.7530   36.3350 H   0  0  0  0  0  0  0  0  0  0  0  0
   33.3740   32.6810   37.4790 O   0  0  0  0  0  0  0  0  0  0  0  0
   32.9730   31.3580   37.3520 C   0  0  0  0  0  3  0  0  0  0  0  0
   31.9110   31.3040   37.6640 H   0  0  0  0  0  0  0  0  0  0  0  0
   33.0250   30.8670   35.9070 C   0  0  0  0  0  3  0  0  0  0  0  0
   32.0920   31.0670   35.3590 H   0  0  0  0  0  0  0  0  0  0  0  0
   37.0700   26.2720   33.5880 C   0  0  0  0  0  0  0  0  0  0  0  0
   36.9540   27.5130   34.2470 C   0  0  0  0  0  0  0  0  0  0  0  0
   37.6880   27.6950   35.4080 C   0  0  0  0  0  0  0  0  0  0  0  0
   38.4680   26.6700   35.8360 N   0  0  0  0  0  0  0  0  0  0  0  0
   38.5660   25.4860   35.1900 C   0  0  0  0  0  0  0  0  0  0  0  0
   37.8520   25.2960   34.0520 N   0  0  0  0  0  0  0  0  0  0  0  0
   36.4500   26.2280   32.6800 H   0  0  0  0  0  0  0  0  0  0  0  0
   37.7020   28.5760   36.0140 H   0  0  0  0  0  0  0  0  0  0  0  0
   39.2050   24.7160   35.5880 H   0  0  0  0  0  0  0  0  0  0  0  0
  1 20  1  0  0  0  0
  1  6  1  0  0  0  0
  2  1  2  0  0  0  0
  3  2  1  0  0  0  0
  3  4  2  0  0  0  0
  4  5  1  0  0  0  0
  5  6  2  0  0  0  0
  5  9  1  0  0  0  0
  7  2  1  0  0  0  0
  8  3  1  0  0  0  0
  9 17  1  0  0  0  0
  9 10  1  0  0  0  0
 10 11  1  0  0  0  0
 10 12  1  0  0  0  0
 12 14  1  0  0  0  0
 13 12  1  0  0  0  0
 15 14  1  0  0  0  0
 15 16  1  0  0  0  0
 17 15  1  0  0  0  0
 18 17  1  0  0  0  0
 19 24  2  0  0  0  0
 19 20  1  0  0  0  0
 20 21  2  0  0  0  0
 21 22  1  0  0  0  0
 21 26  1  0  0  0  0
 23 27  1  0  0  0  0
 23 22  2  0  0  0  0
 24 23  1  0  0  0  0
 25 19  1  0  0  0  0
M  END
>  <minimizedAffinity>
-4.75571012

$$$$

 OpenBabel03272502123D

 27 29  0  0  0  0  0  0  0  0999 V2000
   35.5920   29.6190   34.1380 C   0  0  0  0  0  0  0  0  0  0  0  0
   35.3630   29.7400   32.7800 C   0  0  0  0  0  0  0  0  0  0  0  0
   35.9180   28.9170   31.8030 C   0  0  0  0  0  0  0  0  0  0  0  0
   36.7410   27.9300   32.2450 N   0  0  0  0  0  0  0  0  0  0  0  0
   36.9760   27.7970   33.5740 C   0  0  0  0  0  0  0  0  0  0  0  0
   36.4150   28.6200   34.4730 N   0  0  0  0  0  0  0  0  0  0  0  0
   34.7120   30.5170   32.4000 H   0  0  0  0  0  0  0  0  0  0  0  0
   35.7080   29.0570   30.7710 H   0  0  0  0  0  0  0  0  0  0  0  0
   37.8690   26.7280   34.0690 C   0  0  0  0  0  3  0  0  0  0  0  0
   37.8490   26.6300   35.5980 C   0  0  0  0  0  3  0  0  0  0  0  0
   38.3950   27.4510   36.0650 H   0  0  0  0  0  0  0  0  0  0  0  0
   38.5340   25.3190   35.9180 C   0  0  0  0  0  3  0  0  0  0  0  0
   37.8970   24.5090   35.4530 H   0  0  0  0  0  0  0  0  0  0  0  0
   39.7760   25.2120   35.3250 O   0  0  0  0  0  0  0  0  0  0  0  0
   40.2370   26.4100   34.7970 C   0  0  0  0  0  3  0  0  0  0  0  0
   41.2140   26.2040   34.3160 H   0  0  0  0  0  0  0  0  0  0  0  0
   39.3230   26.9600   33.7050 C   0  0  0  0  0  3  0  0  0  0  0  0
   39.5770   26.5720   32.7070 H   0  0  0  0  0  0  0  0  0  0  0  0
   35.7180   31.4010   35.9100 C   0  0  0  0  0  0  0  0  0  0  0  0
   34.9930   30.4980   35.1060 C   0  0  0  0  0  0  0  0  0  0  0  0
   33.6170   30.4600   35.2640 C   0  0  0  0  0  0  0  0  0  0  0  0
   33.0570   31.2910   36.1780 N   0  0  0  0  0  0  0  0  0  0  0  0
   33.7700   32.1510   36.9410 C   0  0  0  0  0  0  0  0  0  0  0  0
   35.1180   32.1970   36.7960 N   0  0  0  0  0  0  0  0  0  0  0  0
   36.7990   31.3540   35.7110 H   0  0  0  0  0  0  0  0  0  0  0  0
   32.9380   29.8300   34.7290 H   0  0  0  0  0  0  0  0  0  0  0  0
   33.2590   32.7820   37.6490 H   0  0  0  0  0  0  0  0  0  0  0  0
  1  6  1  0  0  0  0
  1 20  1  0  0  0  0
  2  1  2  0  0  0  0
  3  4  2  0  0  0  0
  3  2  1  0  0  0  0
  4  5  1  0  0  0  0
  5  9  1  0  0  0  0
  5  6  2  0  0  0  0
  7  2  1  0  0  0  0
  8  3  1  0  0  0  0
  9 10  1  0  0  0  0
 10 12  1  0  0  0  0
 10 11  1  0  0  0  0
 13 12  1  0  0  0  0
 14 12  1  0  0  0  0
 15 14  1  0  0  0  0
 16 15  1  0  0  0  0
 17  9  1  0  0  0  0
 17 15  1  0  0  0  0
 18 17  1  0  0  0  0
 19 24  1  0  0  0  0
 20 21  1  0  0  0  0
 20 19  2  0  0  0  0
 21 22  2  0  0  0  0
 22 23  1  0  0  0  0
 23 27  1  0  0  0  0
 24 23  2  0  0  0  0
 25 19  1  0  0  0  0
 26 21  1  0  0  0  0
M  END
>  <minimizedAffinity>
-4.74513102

$$$$

 OpenBabel03272502123D

 27 29  0  0  0  0  0  0  0  0999 V2000
   37.3360   23.2550   32.6860 C   0  0  0  0  0  0  0  0  0  0  0  0
   37.0240   24.5400   32.2830 C   0  0  0  0  0  0  0  0  0  0  0  0
   37.2640   25.6890   33.0320 C   0  0  0  0  0  0  0  0  0  0  0  0
   37.8490   25.5060   34.2450 N   0  0  0  0  0  0  0  0  0  0  0  0
   38.1630   24.2520   34.6550 C   0  0  0  0  0  0  0  0  0  0  0  0
   37.9080   23.1780   33.8920 N   0  0  0  0  0  0  0  0  0  0  0  0
   36.5570   24.7160   31.3210 H   0  0  0  0  0  0  0  0  0  0  0  0
   37.0020   26.6540   32.6720 H   0  0  0  0  0  0  0  0  0  0  0  0
   38.7990   24.0360   35.9710 C   0  0  0  0  0  3  0  0  0  0  0  0
   39.2040   22.5730   36.1770 C   0  0  0  0  0  3  0  0  0  0  0  0
   38.3400   21.9360   36.3700 H   0  0  0  0  0  0  0  0  0  0  0  0
   40.1100   22.5810   37.3900 C   0  0  0  0  0  3  0  0  0  0  0  0
   41.0050   23.2120   37.1110 H   0  0  0  0  0  0  0  0  0  0  0  0
   39.5310   23.2040   38.4780 O   0  0  0  0  0  0  0  0  0  0  0  0
   38.1730   23.4430   38.3160 C   0  0  0  0  0  3  0  0  0  0  0  0
   37.8220   23.9770   39.2220 H   0  0  0  0  0  0  0  0  0  0  0  0
   37.8780   24.3610   37.1310 C   0  0  0  0  0  3  0  0  0  0  0  0
   37.9010   25.4260   37.4060 H   0  0  0  0  0  0  0  0  0  0  0  0
   37.9780   21.5560   30.9440 C   0  0  0  0  0  0  0  0  0  0  0  0
   37.0660   22.1010   31.8720 C   0  0  0  0  0  0  0  0  0  0  0  0
   35.8350   21.4790   32.0020 C   0  0  0  0  0  0  0  0  0  0  0  0
   35.5850   20.3910   31.2310 N   0  0  0  0  0  0  0  0  0  0  0  0
   36.4730   19.8830   30.3470 C   0  0  0  0  0  0  0  0  0  0  0  0
   37.6820   20.4830   30.2090 N   0  0  0  0  0  0  0  0  0  0  0  0
   38.9230   22.1200   30.9150 H   0  0  0  0  0  0  0  0  0  0  0  0
   35.0450   21.7760   32.6600 H   0  0  0  0  0  0  0  0  0  0  0  0
   36.2070   19.0160   29.7660 H   0  0  0  0  0  0  0  0  0  0  0  0
  1  6  1  0  0  0  0
  2  1  2  0  0  0  0
  2  3  1  0  0  0  0
  3  4  2  0  0  0  0
  4  5  1  0  0  0  0
  5  9  1  0  0  0  0
  6  5  2  0  0  0  0
  7  2  1  0  0  0  0
  8  3  1  0  0  0  0
  9 10  1  0  0  0  0
  9 17  1  0  0  0  0
 10 11  1  0  0  0  0
 10 12  1  0  0  0  0
 12 14  1  0  0  0  0
 13 12  1  0  0  0  0
 15 14  1  0  0  0  0
 15 16  1  0  0  0  0
 17 18  1  0  0  0  0
 17 15  1  0  0  0  0
 19 20  1  0  0  0  0
 20 21  2  0  0  0  0
 20  1  1  0  0  0  0
 21 26  1  0  0  0  0
 22 21  1  0  0  0  0
 23 22  2  0  0  0  0
 24 23  1  0  0  0  0
 24 19  2  0  0  0  0
 25 19  1  0  0  0  0
 27 23  1  0  0  0  0
M  END
>  <minimizedAffinity>
-4.73089838

$$$$

 OpenBabel03272502123D

 27 29  0  0  0  0  0  0  0  0999 V2000
   37.2770   25.2770   32.4540 C   0  0  0  0  0  0  0  0  0  0  0  0
   36.3930   26.1740   31.8830 C   0  0  0  0  0  0  0  0  0  0  0  0
   35.2940   25.8210   31.1030 C   0  0  0  0  0  0  0  0  0  0  0  0
   35.1000   24.4910   30.9050 N   0  0  0  0  0  0  0  0  0  0  0  0
   35.9570   23.5970   31.4580 C   0  0  0  0  0  0  0  0  0  0  0  0
   37.0020   23.9930   32.2010 N   0  0  0  0  0  0  0  0  0  0  0  0
   36.5240   27.2400   32.0250 H   0  0  0  0  0  0  0  0  0  0  0  0
   34.6470   26.5540   30.6880 H   0  0  0  0  0  0  0  0  0  0  0  0
   35.7590   22.1480   31.2500 C   0  0  0  0  0  3  0  0  0  0  0  0
   35.1290   21.4770   32.4760 C   0  0  0  0  0  3  0  0  0  0  0  0
   35.8440   21.3720   33.2930 H   0  0  0  0  0  0  0  0  0  0  0  0
   34.6990   20.1070   31.9970 C   0  0  0  0  0  3  0  0  0  0  0  0
   33.9260   20.2810   31.1920 H   0  0  0  0  0  0  0  0  0  0  0  0
   35.7270   19.4110   31.3930 O   0  0  0  0  0  0  0  0  0  0  0  0
   36.9730   19.9910   31.5880 C   0  0  0  0  0  3  0  0  0  0  0  0
   37.7120   19.3800   31.0320 H   0  0  0  0  0  0  0  0  0  0  0  0
   37.0580   21.4030   31.0130 C   0  0  0  0  0  3  0  0  0  0  0  0
   37.3630   21.4110   29.9560 H   0  0  0  0  0  0  0  0  0  0  0  0
   39.1760   26.8400   32.9830 C   0  0  0  0  0  0  0  0  0  0  0  0
   38.3980   25.6950   33.2520 C   0  0  0  0  0  0  0  0  0  0  0  0
   38.7400   24.9310   34.3550 C   0  0  0  0  0  0  0  0  0  0  0  0
   39.7980   25.3310   35.1050 N   0  0  0  0  0  0  0  0  0  0  0  0
   40.5330   26.4320   34.8310 C   0  0  0  0  0  0  0  0  0  0  0  0
   40.2090   27.1890   33.7520 N   0  0  0  0  0  0  0  0  0  0  0  0
   38.8260   27.3770   32.0890 H   0  0  0  0  0  0  0  0  0  0  0  0
   38.2460   24.0400   34.6830 H   0  0  0  0  0  0  0  0  0  0  0  0
   41.3620   26.6900   35.4690 H   0  0  0  0  0  0  0  0  0  0  0  0
  1 20  1  0  0  0  0
  2  7  1  0  0  0  0
  2  1  2  0  0  0  0
  3  2  1  0  0  0  0
  4  3  2  0  0  0  0
  4  5  1  0  0  0  0
  5  6  2  0  0  0  0
  6  1  1  0  0  0  0
  8  3  1  0  0  0  0
  9  5  1  0  0  0  0
  9 10  1  0  0  0  0
 10 11  1  0  0  0  0
 12 10  1  0  0  0  0
 13 12  1  0  0  0  0
 14 15  1  0  0  0  0
 14 12  1  0  0  0  0
 16 15  1  0  0  0  0
 17  9  1  0  0  0  0
 17 15  1  0  0  0  0
 18 17  1  0  0  0  0
 19 20  2  0  0  0  0
 19 24  1  0  0  0  0
 20 21  1  0  0  0  0
 21 26  1  0  0  0  0
 21 22  2  0  0  0  0
 23 22  1  0  0  0  0
 23 27  1  0  0  0  0
 24 23  2  0  0  0  0
 25 19  1  0  0  0  0
M  END
>  <minimizedAffinity>
-4.70931625

$$$$
