
 OpenBabel03272509403D

 36 38  0  0  1  0  0  0  0  0999 V2000
   37.6470   31.0560   48.9010 C   0  0  0  0  0  0  0  0  0  0  0  0
   37.8580   32.0100   49.9020 C   0  0  0  0  0  0  0  0  0  0  0  0
   38.5680   33.1720   49.6760 C   0  0  0  0  0  0  0  0  0  0  0  0
   39.1030   33.4260   48.4130 C   0  0  0  0  0  0  0  0  0  0  0  0
   38.8890   32.4840   47.4420 C   0  0  0  0  0  0  0  0  0  0  0  0
   38.1790   31.3290   47.6830 C   0  0  0  0  0  0  0  0  0  0  0  0
   37.4430   31.8220   50.8960 H   0  0  0  0  0  0  0  0  0  0  0  0
   38.6910   33.8660   50.4980 H   0  0  0  0  0  0  0  0  0  0  0  0
   39.6500   34.3330   48.2550 H   0  0  0  0  0  0  0  0  0  0  0  0
   39.3310   32.7420   46.4860 H   0  0  0  0  0  0  0  0  0  0  0  0
   36.8890   29.8680   49.2380 C   0  0  1  0  0  3  0  0  0  0  0  0
   37.4300   29.1310   50.1490 O   0  0  0  0  0  1  0  0  0  0  0  0
   33.8570   30.2280   47.2840 C   0  0  0  0  0  0  0  0  0  0  0  0
   33.2270   28.9970   47.4070 C   0  0  0  0  0  0  0  0  0  0  0  0
   33.8470   28.0200   48.1730 C   0  0  0  0  0  0  0  0  0  0  0  0
   35.0350   28.2960   48.7710 N   0  0  0  0  0  0  0  0  0  0  0  0
   35.6120   29.4830   48.6330 C   0  0  0  0  0  0  0  0  0  0  0  0
   35.0200   30.4360   47.8930 N   0  0  0  0  0  0  0  0  0  0  0  0
   33.3870   30.9910   46.6930 H   0  0  0  0  0  0  0  0  0  0  0  0
   32.2830   28.8210   46.9140 H   0  0  0  0  0  0  0  0  0  0  0  0
   33.3900   27.0520   48.2930 H   0  0  0  0  0  0  0  0  0  0  0  0
   38.0370   30.4280   46.5570 C   0  0  0  0  0  3  0  0  0  0  0  0
   37.4680   30.7200   45.3990 C   0  0  0  0  0  3  0  0  0  0  0  0
   37.2570   29.9270   44.1930 C   0  0  0  0  0  0  0  0  0  0  0  0
   36.3350   30.2730   43.6510 H   0  0  0  0  0  0  0  0  0  0  0  0
   37.0420   28.8760   44.4670 H   0  0  0  0  0  0  0  0  0  0  0  0
   38.3760   29.9610   43.2070 C   0  0  0  0  0  3  0  0  0  0  0  0
   39.2100   28.6890   43.3550 C   0  0  0  0  0  3  0  0  0  0  0  0
   39.7010   28.6490   44.3480 H   0  0  0  0  0  0  0  0  0  0  0  0
   40.2970   28.6320   42.3050 C   0  0  0  0  0  3  0  0  0  0  0  0
   39.9230   28.5340   41.2860 H   0  0  0  0  0  0  0  0  0  0  0  0
   41.1040   29.7640   42.5100 O   0  0  0  0  0  0  0  0  0  0  0  0
   40.3670   30.9260   42.2630 C   0  0  0  0  0  3  0  0  0  0  0  0
   41.0060   31.7960   42.1260 H   0  0  0  0  0  0  0  0  0  0  0  0
   39.2870   31.1300   43.3360 C   0  0  0  0  0  3  0  0  0  0  0  0
   39.7900   31.2110   44.3100 H   0  0  0  0  0  0  0  0  0  0  0  0
  1 11  1  0  0  0  0
  1  2  1  0  0  0  0
  2  7  1  0  0  0  0
  3  2  2  0  0  0  0
  3  8  1  0  0  0  0
  4  3  1  0  0  0  0
  5  6  1  0  0  0  0
  5  4  2  0  0  0  0
  6  1  2  0  0  0  0
  9  4  1  0  0  0  0
 10  5  1  0  0  0  0
 11 12  1  1  0  0  0
 13 14  2  0  0  0  0
 13 18  1  0  0  0  0
 14 15  1  0  0  0  0
 15 21  1  0  0  0  0
 15 16  2  0  0  0  0
 17 16  1  0  0  0  0
 17 11  1  0  0  0  0
 18 17  2  0  0  0  0
 19 13  1  0  0  0  0
 20 14  1  0  0  0  0
 22  6  1  0  0  0  0
 23 22  2  0  0  0  0
 24 26  1  0  0  0  0
 24 23  1  0  0  0  0
 25 24  1  0  0  0  0
 27 35  1  0  0  0  0
 27 28  1  0  0  0  0
 27 24  1  0  0  0  0
 28 29  1  0  0  0  0
 30 32  1  0  0  0  0
 30 28  1  0  0  0  0
 31 30  1  0  0  0  0
 33 32  1  0  0  0  0
 33 35  1  0  0  0  0
 34 33  1  0  0  0  0
 35 36  1  0  0  0  0
M  END
>  <minimizedAffinity>
-5.97022915

>  <minimizedRMSD>
1.55435288

$$$$
