
 OpenBabel03262521083D

 46 48  0  0  1  0  0  0  0  0999 V2000
   32.7130   28.6980   45.6250 C   0  0  2  0  0  0  0  0  0  0  0  0
   33.0490   27.9730   44.4050 C   0  0  0  0  0  0  0  0  0  0  0  0
   34.5520   27.8280   44.1970 C   0  0  0  0  0  0  0  0  0  0  0  0
   35.2660   29.1430   44.1880 C   0  0  0  0  0  0  0  0  0  0  0  0
   34.7220   30.1280   45.1660 C   0  0  0  0  0  0  0  0  0  0  0  0
   33.8650   29.4520   46.2340 C   0  0  2  0  0  0  0  0  0  0  0  0
   31.9270   29.4670   45.3580 H   0  0  0  0  0  0  0  0  0  0  0  0
   32.6750   28.4510   43.4700 H   0  0  0  0  0  0  0  0  0  0  0  0
   32.6810   26.9390   44.3740 H   0  0  0  0  0  0  0  0  0  0  0  0
   34.9310   27.0960   44.9240 H   0  0  0  0  0  0  0  0  0  0  0  0
   34.6710   27.3820   43.1890 H   0  0  0  0  0  0  0  0  0  0  0  0
   36.3280   28.9400   44.5020 H   0  0  0  0  0  0  0  0  0  0  0  0
   35.3450   29.5660   43.1540 H   0  0  0  0  0  0  0  0  0  0  0  0
   35.4290   30.8140   45.6220 H   0  0  0  0  0  0  0  0  0  0  0  0
   33.9870   30.7690   44.5970 H   0  0  0  0  0  0  0  0  0  0  0  0
   33.4300   30.3090   46.7920 H   0  0  0  0  0  0  0  0  0  0  0  0
   32.1150   27.8930   46.6900 C   0  0  0  0  0  0  0  0  0  0  0  0
   32.0630   26.5220   46.4190 C   0  0  0  0  0  0  0  0  0  0  0  0
   31.5210   25.7130   47.4060 C   0  0  0  0  0  0  0  0  0  0  0  0
   31.0710   26.2690   48.5670 N   0  0  0  0  0  0  0  0  0  0  0  0
   31.1370   27.5930   48.7890 C   0  0  0  0  0  0  0  0  0  0  0  0
   31.6480   28.3340   47.8540 N   0  0  0  0  0  0  0  0  0  0  0  0
   32.3280   25.8720   45.6110 H   0  0  0  0  0  0  0  0  0  0  0  0
   31.3790   24.6440   47.4250 H   0  0  0  0  0  0  0  0  0  0  0  0
   30.7860   28.0460   49.6990 H   0  0  0  0  0  0  0  0  0  0  0  0
   34.7400   28.7980   47.0900 N   0  0  0  0  0  0  0  0  0  0  0  0
   34.3830   27.9260   47.5500 H   0  0  0  0  0  0  0  0  0  0  0  0
   35.5570   29.7220   48.2440 S   0  0  1  0  0  0  0  0  0  0  0  0
   36.3570   28.6940   49.0530 O   0  0  0  0  0  0  0  0  0  0  0  0
   37.0170   28.1440   48.5930 H   0  0  0  0  0  0  0  0  0  0  0  0
   36.4360   30.7010   47.6960 O   0  0  0  0  0  0  0  0  0  0  0  0
   37.6200   31.0870   47.3320 C   0  0  0  0  0  3  0  0  0  0  0  0
   38.1680   32.1090   48.3080 C   0  0  0  0  0  3  0  0  0  0  0  0
   38.6940   31.6270   49.1550 H   0  0  0  0  0  0  0  0  0  0  0  0
   39.1870   33.0140   47.6320 C   0  0  0  0  0  3  0  0  0  0  0  0
   38.6990   33.9420   47.2270 H   0  0  0  0  0  0  0  0  0  0  0  0
   39.9290   32.3460   46.6920 O   0  0  0  0  0  0  0  0  0  0  0  0
   39.1580   31.8970   45.6370 C   0  0  0  0  0  3  0  0  0  0  0  0
   39.3310   32.4510   44.6950 H   0  0  0  0  0  0  0  0  0  0  0  0
   37.6860   31.8260   45.9820 C   0  0  0  0  0  3  0  0  0  0  0  0
   37.1660   31.3090   45.1800 H   0  0  0  0  0  0  0  0  0  0  0  0
   34.4980   30.3930   49.3600 O   0  0  0  0  0  0  0  0  0  0  0  0
   34.1420   29.5190   50.3680 C   0  0  0  0  0  0  0  0  0  0  0  0
   34.0840   28.2450   49.8880 F   0  0  0  0  0  0  0  0  0  0  0  0
   35.1670   29.5350   51.2910 F   0  0  0  0  0  0  0  0  0  0  0  0
   32.9980   29.8980   51.0560 F   0  0  0  0  0  0  0  0  0  0  0  0
  1  7  1  6  0  0  0
  1  6  1  0  0  0  0
  1 17  1  0  0  0  0
  2  1  1  0  0  0  0
  3  2  1  0  0  0  0
  3 10  1  0  0  0  0
  4  3  1  0  0  0  0
  4 12  1  0  0  0  0
  4  5  1  0  0  0  0
  5 14  1  0  0  0  0
  5  6  1  0  0  0  0
  6 16  1  1  0  0  0
  6 26  1  0  0  0  0
  8  2  1  0  0  0  0
  9  2  1  0  0  0  0
 11  3  1  0  0  0  0
 13  4  1  0  0  0  0
 15  5  1  0  0  0  0
 17 22  1  0  0  0  0
 18 17  2  0  0  0  0
 18 19  1  0  0  0  0
 19 24  1  0  0  0  0
 19 20  2  0  0  0  0
 20 21  1  0  0  0  0
 21 25  1  0  0  0  0
 22 21  2  0  0  0  0
 23 18  1  0  0  0  0
 26 27  1  0  0  0  0
 26 28  1  0  0  0  0
 28 31  1  6  0  0  0
 28 29  1  0  0  0  0
 28 42  1  0  0  0  0
 30 29  1  0  0  0  0
 32 31  1  0  0  0  0
 32 33  1  0  0  0  0
 33 34  1  0  0  0  0
 35 33  1  0  0  0  0
 36 35  1  0  0  0  0
 37 35  1  0  0  0  0
 38 40  1  0  0  0  0
 38 37  1  0  0  0  0
 39 38  1  0  0  0  0
 40 32  1  0  0  0  0
 41 40  1  0  0  0  0
 42 43  1  0  0  0  0
 43 46  1  0  0  0  0
 43 45  1  0  0  0  0
 44 43  1  0  0  0  0
M  END
>  <minimizedAffinity>
-4.69624853

>  <minimizedRMSD>
4.72515154

$$$$
