
 OpenBabel03262522523D

 34 37  0  0  0  0  0  0  0  0999 V2000
   32.8500   27.8710   48.6770 C   0  0  0  0  0  0  0  0  0  0  0  0
   32.8440   26.8180   47.8070 C   0  0  0  0  0  0  0  0  0  0  0  0
   31.6360   26.1710   47.6360 C   0  0  0  0  0  0  0  0  0  0  0  0
   30.5090   26.5370   48.2790 N   0  0  0  0  0  0  0  0  0  0  0  0
   30.6300   27.6020   49.1230 C   0  0  0  0  0  0  0  0  0  0  0  0
   31.7690   28.2870   49.3470 N   0  0  0  0  0  0  0  0  0  0  0  0
   33.7540   26.5300   47.2950 H   0  0  0  0  0  0  0  0  0  0  0  0
   31.5790   25.3260   46.9540 H   0  0  0  0  0  0  0  0  0  0  0  0
   29.3770   27.9900   49.8230 C   0  0  0  0  0  0  0  0  0  0  0  0
   28.3890   28.7090   48.9450 C   0  0  0  0  0  0  0  0  0  0  0  0
   28.7590   29.6940   48.5670 H   0  0  0  0  0  0  0  0  0  0  0  0
   27.1220   28.8500   49.7660 C   0  0  0  0  0  0  0  0  0  0  0  0
   26.8120   29.9300   49.6810 H   0  0  0  0  0  0  0  0  0  0  0  0
   27.3680   28.6630   51.1280 O   0  0  0  0  0  0  0  0  0  0  0  0
   27.6760   27.3340   51.4250 C   0  0  0  0  0  0  0  0  0  0  0  0
   28.1680   27.3300   52.4080 H   0  0  0  0  0  0  0  0  0  0  0  0
   28.6600   26.7890   50.4050 C   0  0  0  0  0  0  0  0  0  0  0  0
   28.1640   26.2650   49.5630 H   0  0  0  0  0  0  0  0  0  0  0  0
   36.1470   30.2440   48.9230 C   0  0  0  0  0  0  0  0  0  0  0  0
   36.1480   29.2410   49.7980 C   0  0  0  0  0  0  0  0  0  0  0  0
   35.0780   28.3660   49.8120 C   0  0  0  0  0  0  0  0  0  0  0  0
   34.0900   28.6070   48.9100 C   0  0  0  0  0  0  0  0  0  0  0  0
   34.6850   30.0890   48.0340 S   0  0  0  0  0  0  0  0  0  0  0  0
   36.9940   29.1180   50.4970 H   0  0  0  0  0  0  0  0  0  0  0  0
   34.9810   27.5160   50.4850 H   0  0  0  0  0  0  0  0  0  0  0  0
   38.1150   33.2710   49.4400 C   0  0  0  0  0  0  0  0  0  0  0  0
   39.0220   33.2570   48.3860 C   0  0  0  0  0  0  0  0  0  0  0  0
   38.9600   32.1930   47.4790 C   0  0  0  0  0  0  0  0  0  0  0  0
   38.0140   31.2230   47.6740 N   0  0  0  0  0  0  0  0  0  0  0  0
   37.1620   31.2920   48.7170 C   0  0  0  0  0  0  0  0  0  0  0  0
   37.1960   32.2870   49.5910 N   0  0  0  0  0  0  0  0  0  0  0  0
   38.1760   34.1020   50.1320 H   0  0  0  0  0  0  0  0  0  0  0  0
   39.7700   33.9930   48.2020 H   0  0  0  0  0  0  0  0  0  0  0  0
   39.6020   32.0640   46.6220 H   0  0  0  0  0  0  0  0  0  0  0  0
  1 22  1  0  0  0  0
  1  6  1  0  0  0  0
  2  1  2  0  0  0  0
  3  2  1  0  0  0  0
  3  4  2  0  0  0  0
  4  5  1  0  0  0  0
  5  6  2  0  0  0  0
  5  9  1  0  0  0  0
  7  2  1  0  0  0  0
  8  3  1  0  0  0  0
  9 17  1  0  0  0  0
 10 12  1  0  0  0  0
 10  9  1  0  0  0  0
 11 10  1  0  0  0  0
 12 14  1  0  0  0  0
 13 12  1  0  0  0  0
 14 15  1  0  0  0  0
 15 16  1  0  0  0  0
 17 15  1  0  0  0  0
 18 17  1  0  0  0  0
 19 20  2  0  0  0  0
 20 21  1  0  0  0  0
 20 24  1  0  0  0  0
 21 25  1  0  0  0  0
 22 21  2  0  0  0  0
 23 22  1  0  0  0  0
 23 19  1  0  0  0  0
 26 31  1  0  0  0  0
 26 32  1  0  0  0  0
 27 26  2  0  0  0  0
 28 29  2  0  0  0  0
 28 27  1  0  0  0  0
 29 30  1  0  0  0  0
 30 19  1  0  0  0  0
 30 31  2  0  0  0  0
 33 27  1  0  0  0  0
 34 28  1  0  0  0  0
M  END
>  <minimizedAffinity>
-6.95510292

>  <minimizedRMSD>
0.874796212

$$$$
