
 OpenBabel03272508033D

 29 31  0  0  0  0  0  0  0  0999 V2000
   38.9570   22.1500   33.8620 C   0  0  0  0  0  0  0  0  0  0  0  0
   39.5770   22.3430   32.6560 C   0  0  0  0  0  0  0  0  0  0  0  0
   38.6770   22.0800   31.6170 C   0  0  0  0  0  0  0  0  0  0  0  0
   37.5230   21.7310   32.2570 N   0  0  0  0  0  0  0  0  0  0  0  0
   37.7130   21.7790   33.5560 N   0  0  0  0  0  0  0  0  0  0  0  0
   40.6170   22.6560   32.4870 H   0  0  0  0  0  0  0  0  0  0  0  0
   38.8670   22.1440   30.5380 H   0  0  0  0  0  0  0  0  0  0  0  0
   36.3120   21.3720   31.5480 C   0  0  0  0  0  3  0  0  0  0  0  0
   35.1540   21.1650   32.5330 C   0  0  0  0  0  3  0  0  0  0  0  0
   35.5670   20.8030   33.4970 H   0  0  0  0  0  0  0  0  0  0  0  0
   34.3090   20.0470   31.9550 C   0  0  0  0  0  3  0  0  0  0  0  0
   33.3420   20.0260   32.5050 H   0  0  0  0  0  0  0  0  0  0  0  0
   34.9230   18.8050   32.0700 O   0  0  0  0  0  0  0  0  0  0  0  0
   36.2840   18.9270   31.8970 C   0  0  0  0  0  3  0  0  0  0  0  0
   36.7440   17.9720   31.5320 H   0  0  0  0  0  0  0  0  0  0  0  0
   36.5100   20.0320   30.8700 C   0  0  0  0  0  3  0  0  0  0  0  0
   35.8920   19.8890   29.9790 H   0  0  0  0  0  0  0  0  0  0  0  0
   39.5220   22.3100   35.1960 C   0  0  0  0  0  0  0  0  0  0  0  0
   38.7070   22.9160   36.1920 C   0  0  0  0  0  0  0  0  0  0  0  0
   39.2610   23.0620   37.4640 C   0  0  0  0  0  0  0  0  0  0  0  0
   40.5240   22.6310   37.6880 N   0  0  0  0  0  0  0  0  0  0  0  0
   41.2750   22.0590   36.7250 C   0  0  0  0  0  0  0  0  0  0  0  0
   40.7590   21.9060   35.4850 N   0  0  0  0  0  0  0  0  0  0  0  0
   37.7060   23.2410   35.9510 H   0  0  0  0  0  0  0  0  0  0  0  0
   42.2870   21.7090   36.8880 H   0  0  0  0  0  0  0  0  0  0  0  0
   38.4260   23.6940   38.5220 C   0  0  0  0  0  0  0  0  0  0  0  0
   39.2370   23.8640   39.6120 F   0  0  0  0  0  0  0  0  0  0  0  0
   37.9330   24.9360   38.1440 F   0  0  0  0  0  0  0  0  0  0  0  0
   37.3670   22.8780   38.9060 F   0  0  0  0  0  0  0  0  0  0  0  0
  1 18  1  0  0  0  0
  2  1  1  0  0  0  0
  3  4  1  0  0  0  0
  3  2  2  0  0  0  0
  4  5  1  0  0  0  0
  5  1  2  0  0  0  0
  6  2  1  0  0  0  0
  7  3  1  0  0  0  0
  8  4  1  0  0  0  0
  8  9  1  0  0  0  0
  9 10  1  0  0  0  0
 11 13  1  0  0  0  0
 11 12  1  0  0  0  0
 11  9  1  0  0  0  0
 14 13  1  0  0  0  0
 15 14  1  0  0  0  0
 16  8  1  0  0  0  0
 16 14  1  0  0  0  0
 17 16  1  0  0  0  0
 18 23  2  0  0  0  0
 18 19  1  0  0  0  0
 19 20  2  0  0  0  0
 20 21  1  0  0  0  0
 20 26  1  0  0  0  0
 22 25  1  0  0  0  0
 22 21  2  0  0  0  0
 23 22  1  0  0  0  0
 24 19  1  0  0  0  0
 26 29  1  0  0  0  0
 26 27  1  0  0  0  0
 28 26  1  0  0  0  0
M  END
>  <minimizedAffinity>
-5.6339612

$$$$

 OpenBabel03272508033D

 29 31  0  0  0  0  0  0  0  0999 V2000
   38.0130   25.5650   33.6030 C   0  0  0  0  0  0  0  0  0  0  0  0
   39.0230   26.4190   33.2480 C   0  0  0  0  0  0  0  0  0  0  0  0
   38.5250   27.4060   32.3900 C   0  0  0  0  0  0  0  0  0  0  0  0
   37.2010   27.0970   32.2610 N   0  0  0  0  0  0  0  0  0  0  0  0
   36.9320   26.0270   32.9730 N   0  0  0  0  0  0  0  0  0  0  0  0
   40.0750   26.3730   33.5650 H   0  0  0  0  0  0  0  0  0  0  0  0
   39.0800   28.2350   31.9310 H   0  0  0  0  0  0  0  0  0  0  0  0
   36.2910   27.8740   31.4450 C   0  0  0  0  0  3  0  0  0  0  0  0
   37.0170   29.0770   30.8270 C   0  0  0  0  0  3  0  0  0  0  0  0
   37.8290   29.3920   31.5130 H   0  0  0  0  0  0  0  0  0  0  0  0
   36.0000   30.2000   30.7830 C   0  0  0  0  0  3  0  0  0  0  0  0
   36.4050   31.0060   30.1330 H   0  0  0  0  0  0  0  0  0  0  0  0
   35.7350   30.7240   32.0440 O   0  0  0  0  0  0  0  0  0  0  0  0
   35.7560   29.7240   32.9900 C   0  0  0  0  0  3  0  0  0  0  0  0
   35.1290   29.9840   33.8830 H   0  0  0  0  0  0  0  0  0  0  0  0
   35.2110   28.4640   32.3270 C   0  0  0  0  0  3  0  0  0  0  0  0
   34.2680   28.6560   31.8080 H   0  0  0  0  0  0  0  0  0  0  0  0
   38.0890   24.4010   34.4780 C   0  0  0  0  0  0  0  0  0  0  0  0
   38.1540   24.6290   35.8790 C   0  0  0  0  0  0  0  0  0  0  0  0
   38.2260   23.5060   36.7030 C   0  0  0  0  0  0  0  0  0  0  0  0
   38.2320   22.2740   36.1420 N   0  0  0  0  0  0  0  0  0  0  0  0
   38.1690   22.0860   34.8080 C   0  0  0  0  0  0  0  0  0  0  0  0
   38.0980   23.1600   33.9900 N   0  0  0  0  0  0  0  0  0  0  0  0
   38.1460   25.6370   36.2670 H   0  0  0  0  0  0  0  0  0  0  0  0
   38.1730   21.1080   34.3440 H   0  0  0  0  0  0  0  0  0  0  0  0
   38.2950   23.7200   38.1750 C   0  0  0  0  0  0  0  0  0  0  0  0
   37.3270   22.9290   38.7320 F   0  0  0  0  0  0  0  0  0  0  0  0
   39.5230   23.3560   38.7110 F   0  0  0  0  0  0  0  0  0  0  0  0
   38.0160   25.0380   38.5220 F   0  0  0  0  0  0  0  0  0  0  0  0
  1 18  1  0  0  0  0
  2  6  1  0  0  0  0
  2  1  1  0  0  0  0
  3  2  2  0  0  0  0
  4  3  1  0  0  0  0
  4  5  1  0  0  0  0
  5  1  2  0  0  0  0
  7  3  1  0  0  0  0
  8  4  1  0  0  0  0
  8 16  1  0  0  0  0
  9  8  1  0  0  0  0
  9 10  1  0  0  0  0
 11  9  1  0  0  0  0
 11 13  1  0  0  0  0
 12 11  1  0  0  0  0
 13 14  1  0  0  0  0
 14 15  1  0  0  0  0
 16 14  1  0  0  0  0
 17 16  1  0  0  0  0
 18 19  1  0  0  0  0
 19 24  1  0  0  0  0
 19 20  2  0  0  0  0
 20 26  1  0  0  0  0
 21 20  1  0  0  0  0
 22 21  2  0  0  0  0
 23 18  2  0  0  0  0
 23 22  1  0  0  0  0
 25 22  1  0  0  0  0
 26 29  1  0  0  0  0
 26 28  1  0  0  0  0
 26 27  1  0  0  0  0
M  END
>  <minimizedAffinity>
-5.50031233

$$$$

 OpenBabel03272508033D

 29 31  0  0  0  0  0  0  0  0999 V2000
   37.3370   26.6830   34.0720 C   0  0  0  0  0  0  0  0  0  0  0  0
   36.7850   26.6070   32.8210 C   0  0  0  0  0  0  0  0  0  0  0  0
   36.0980   27.7930   32.5360 C   0  0  0  0  0  0  0  0  0  0  0  0
   36.2690   28.5530   33.6580 N   0  0  0  0  0  0  0  0  0  0  0  0
   36.9900   27.8870   34.5310 N   0  0  0  0  0  0  0  0  0  0  0  0
   36.8490   25.7650   32.1160 H   0  0  0  0  0  0  0  0  0  0  0  0
   35.5510   28.0440   31.6190 H   0  0  0  0  0  0  0  0  0  0  0  0
   35.7120   29.8830   33.7960 C   0  0  0  0  0  3  0  0  0  0  0  0
   35.8430   30.3730   35.2430 C   0  0  0  0  0  3  0  0  0  0  0  0
   35.8090   29.4960   35.9210 H   0  0  0  0  0  0  0  0  0  0  0  0
   34.6070   31.2050   35.5160 C   0  0  0  0  0  3  0  0  0  0  0  0
   34.7720   31.7710   36.4600 H   0  0  0  0  0  0  0  0  0  0  0  0
   33.4630   30.4260   35.6500 O   0  0  0  0  0  0  0  0  0  0  0  0
   33.5110   29.3560   34.7840 C   0  0  0  0  0  3  0  0  0  0  0  0
   32.4840   28.9860   34.5240 H   0  0  0  0  0  0  0  0  0  0  0  0
   34.2230   29.8290   33.5220 C   0  0  0  0  0  3  0  0  0  0  0  0
   33.8050   30.7690   33.1490 H   0  0  0  0  0  0  0  0  0  0  0  0
   38.1330   25.6760   34.7630 C   0  0  0  0  0  0  0  0  0  0  0  0
   37.7670   25.3440   36.0970 C   0  0  0  0  0  0  0  0  0  0  0  0
   38.5370   24.3790   36.7450 C   0  0  0  0  0  0  0  0  0  0  0  0
   39.5780   23.8130   36.0890 N   0  0  0  0  0  0  0  0  0  0  0  0
   39.9020   24.1470   34.8230 C   0  0  0  0  0  0  0  0  0  0  0  0
   39.1700   25.0800   34.1750 N   0  0  0  0  0  0  0  0  0  0  0  0
   36.9260   25.8310   36.5670 H   0  0  0  0  0  0  0  0  0  0  0  0
   40.7310   23.7040   34.2850 H   0  0  0  0  0  0  0  0  0  0  0  0
   38.1730   24.0160   38.1420 C   0  0  0  0  0  0  0  0  0  0  0  0
   39.2900   23.4600   38.7060 F   0  0  0  0  0  0  0  0  0  0  0  0
   37.7990   25.1170   38.9010 F   0  0  0  0  0  0  0  0  0  0  0  0
   37.1600   23.0640   38.1850 F   0  0  0  0  0  0  0  0  0  0  0  0
  1  5  2  0  0  0  0
  1 18  1  0  0  0  0
  2  1  1  0  0  0  0
  3  2  2  0  0  0  0
  3  4  1  0  0  0  0
  4  8  1  0  0  0  0
  4  5  1  0  0  0  0
  6  2  1  0  0  0  0
  7  3  1  0  0  0  0
  8  9  1  0  0  0  0
  9 11  1  0  0  0  0
  9 10  1  0  0  0  0
 11 13  1  0  0  0  0
 11 12  1  0  0  0  0
 14 13  1  0  0  0  0
 15 14  1  0  0  0  0
 16  8  1  0  0  0  0
 16 14  1  0  0  0  0
 17 16  1  0  0  0  0
 18 19  1  0  0  0  0
 19 24  1  0  0  0  0
 19 20  2  0  0  0  0
 20 26  1  0  0  0  0
 21 20  1  0  0  0  0
 22 21  2  0  0  0  0
 23 18  2  0  0  0  0
 23 22  1  0  0  0  0
 25 22  1  0  0  0  0
 26 29  1  0  0  0  0
 26 27  1  0  0  0  0
 26 28  1  0  0  0  0
M  END
>  <minimizedAffinity>
-5.43431425

$$$$

 OpenBabel03272508033D

 29 31  0  0  0  0  0  0  0  0999 V2000
   37.4550   26.9030   33.9680 C   0  0  0  0  0  0  0  0  0  0  0  0
   36.6480   27.8340   34.5670 C   0  0  0  0  0  0  0  0  0  0  0  0
   36.0430   28.6320   33.5890 C   0  0  0  0  0  0  0  0  0  0  0  0
   36.5240   28.1350   32.4110 N   0  0  0  0  0  0  0  0  0  0  0  0
   37.3380   27.1360   32.6600 N   0  0  0  0  0  0  0  0  0  0  0  0
   36.4740   27.9670   35.6440 H   0  0  0  0  0  0  0  0  0  0  0  0
   35.3440   29.4630   33.7440 H   0  0  0  0  0  0  0  0  0  0  0  0
   36.1500   28.6780   31.1220 C   0  0  0  0  0  3  0  0  0  0  0  0
   37.3990   28.9830   30.2840 C   0  0  0  0  0  3  0  0  0  0  0  0
   38.2310   29.2420   30.9690 H   0  0  0  0  0  0  0  0  0  0  0  0
   37.0700   30.2250   29.4810 C   0  0  0  0  0  3  0  0  0  0  0  0
   37.8460   30.3420   28.6930 H   0  0  0  0  0  0  0  0  0  0  0  0
   37.0440   31.3720   30.2660 O   0  0  0  0  0  0  0  0  0  0  0  0
   36.5300   31.0870   31.5110 C   0  0  0  0  0  3  0  0  0  0  0  0
   36.0750   31.9930   31.9910 H   0  0  0  0  0  0  0  0  0  0  0  0
   35.4640   30.0130   31.3240 C   0  0  0  0  0  3  0  0  0  0  0  0
   34.7600   30.2760   30.5290 H   0  0  0  0  0  0  0  0  0  0  0  0
   38.2680   25.8770   34.6090 C   0  0  0  0  0  0  0  0  0  0  0  0
   37.8640   25.4150   35.8910 C   0  0  0  0  0  0  0  0  0  0  0  0
   38.6520   24.4330   36.4900 C   0  0  0  0  0  0  0  0  0  0  0  0
   39.7450   23.9730   35.8380 N   0  0  0  0  0  0  0  0  0  0  0  0
   40.1060   24.4290   34.6210 C   0  0  0  0  0  0  0  0  0  0  0  0
   39.3570   25.3810   34.0210 N   0  0  0  0  0  0  0  0  0  0  0  0
   36.9800   25.8210   36.3610 H   0  0  0  0  0  0  0  0  0  0  0  0
   40.9770   24.0720   34.0870 H   0  0  0  0  0  0  0  0  0  0  0  0
   38.2470   23.9340   37.8330 C   0  0  0  0  0  0  0  0  0  0  0  0
   37.1260   23.1710   37.6470 F   0  0  0  0  0  0  0  0  0  0  0  0
   39.2230   23.1440   38.4270 F   0  0  0  0  0  0  0  0  0  0  0  0
   37.9120   24.9730   38.6950 F   0  0  0  0  0  0  0  0  0  0  0  0
  1  2  1  0  0  0  0
  1 18  1  0  0  0  0
  2  6  1  0  0  0  0
  3  7  1  0  0  0  0
  3  2  2  0  0  0  0
  4  5  1  0  0  0  0
  4  3  1  0  0  0  0
  5  1  2  0  0  0  0
  8 16  1  0  0  0  0
  8  4  1  0  0  0  0
  9 10  1  0  0  0  0
  9  8  1  0  0  0  0
 11 13  1  0  0  0  0
 11  9  1  0  0  0  0
 12 11  1  0  0  0  0
 13 14  1  0  0  0  0
 14 15  1  0  0  0  0
 16 14  1  0  0  0  0
 17 16  1  0  0  0  0
 18 19  1  0  0  0  0
 19 24  1  0  0  0  0
 19 20  2  0  0  0  0
 20 26  1  0  0  0  0
 21 20  1  0  0  0  0
 22 21  2  0  0  0  0
 23 18  2  0  0  0  0
 23 22  1  0  0  0  0
 25 22  1  0  0  0  0
 26 28  1  0  0  0  0
 26 29  1  0  0  0  0
 27 26  1  0  0  0  0
M  END
>  <minimizedAffinity>
-5.32873631

$$$$

 OpenBabel03272508033D

 29 31  0  0  0  0  0  0  0  0999 V2000
   36.2310   28.2960   33.5590 C   0  0  0  0  0  0  0  0  0  0  0  0
   35.5630   28.7570   32.4560 C   0  0  0  0  0  0  0  0  0  0  0  0
   35.0740   30.0450   32.7050 C   0  0  0  0  0  0  0  0  0  0  0  0
   35.4780   30.3120   33.9820 N   0  0  0  0  0  0  0  0  0  0  0  0
   36.1450   29.2830   34.4530 N   0  0  0  0  0  0  0  0  0  0  0  0
   35.4120   28.2300   31.5030 H   0  0  0  0  0  0  0  0  0  0  0  0
   34.4990   30.6840   32.0240 H   0  0  0  0  0  0  0  0  0  0  0  0
   35.1800   31.5610   34.6530 C   0  0  0  0  0  3  0  0  0  0  0  0
   35.7540   31.5570   36.0760 C   0  0  0  0  0  3  0  0  0  0  0  0
   35.7650   30.5140   36.4520 H   0  0  0  0  0  0  0  0  0  0  0  0
   34.7680   32.3330   36.9250 C   0  0  0  0  0  3  0  0  0  0  0  0
   35.2550   32.5590   37.9000 H   0  0  0  0  0  0  0  0  0  0  0  0
   33.5950   31.6250   37.1570 O   0  0  0  0  0  0  0  0  0  0  0  0
   33.2570   30.8840   36.0470 C   0  0  0  0  0  3  0  0  0  0  0  0
   32.1550   30.6800   36.0020 H   0  0  0  0  0  0  0  0  0  0  0  0
   33.6810   31.6890   34.8230 C   0  0  0  0  0  3  0  0  0  0  0  0
   33.3260   32.7220   34.8750 H   0  0  0  0  0  0  0  0  0  0  0  0
   36.8940   27.0100   33.7330 C   0  0  0  0  0  0  0  0  0  0  0  0
   37.1790   26.5850   35.0600 C   0  0  0  0  0  0  0  0  0  0  0  0
   37.8140   25.3530   35.2100 C   0  0  0  0  0  0  0  0  0  0  0  0
   38.1250   24.6300   34.1080 N   0  0  0  0  0  0  0  0  0  0  0  0
   37.8430   25.0570   32.8610 C   0  0  0  0  0  0  0  0  0  0  0  0
   37.2280   26.2490   32.6910 N   0  0  0  0  0  0  0  0  0  0  0  0
   36.9060   27.2070   35.9000 H   0  0  0  0  0  0  0  0  0  0  0  0
   38.0850   24.4920   31.9690 H   0  0  0  0  0  0  0  0  0  0  0  0
   38.1220   24.8880   36.5910 C   0  0  0  0  0  0  0  0  0  0  0  0
   37.0550   24.1320   36.9970 F   0  0  0  0  0  0  0  0  0  0  0  0
   39.2650   24.1010   36.6470 F   0  0  0  0  0  0  0  0  0  0  0  0
   38.2520   25.9490   37.4800 F   0  0  0  0  0  0  0  0  0  0  0  0
  1 18  1  0  0  0  0
  1  5  2  0  0  0  0
  2  3  2  0  0  0  0
  2  1  1  0  0  0  0
  3  4  1  0  0  0  0
  4  5  1  0  0  0  0
  4  8  1  0  0  0  0
  6  2  1  0  0  0  0
  7  3  1  0  0  0  0
  8 16  1  0  0  0  0
  8  9  1  0  0  0  0
  9 10  1  0  0  0  0
  9 11  1  0  0  0  0
 11 13  1  0  0  0  0
 11 12  1  0  0  0  0
 14 13  1  0  0  0  0
 15 14  1  0  0  0  0
 16 17  1  0  0  0  0
 16 14  1  0  0  0  0
 18 19  1  0  0  0  0
 19 20  2  0  0  0  0
 19 24  1  0  0  0  0
 20 26  1  0  0  0  0
 21 20  1  0  0  0  0
 22 21  2  0  0  0  0
 23 22  1  0  0  0  0
 23 18  2  0  0  0  0
 25 22  1  0  0  0  0
 26 28  1  0  0  0  0
 26 27  1  0  0  0  0
 26 29  1  0  0  0  0
M  END
>  <minimizedAffinity>
-5.30358934

$$$$

 OpenBabel03272508033D

 29 31  0  0  0  0  0  0  0  0999 V2000
   37.5690   27.0000   34.3800 C   0  0  0  0  0  0  0  0  0  0  0  0
   38.2880   27.5270   35.4210 C   0  0  0  0  0  0  0  0  0  0  0  0
   38.3920   26.5820   36.4480 C   0  0  0  0  0  0  0  0  0  0  0  0
   37.7140   25.4960   35.9700 N   0  0  0  0  0  0  0  0  0  0  0  0
   37.2480   25.7660   34.7720 N   0  0  0  0  0  0  0  0  0  0  0  0
   38.7320   28.5310   35.4800 H   0  0  0  0  0  0  0  0  0  0  0  0
   38.9040   26.6960   37.4110 H   0  0  0  0  0  0  0  0  0  0  0  0
   37.5690   24.2690   36.7250 C   0  0  0  0  0  3  0  0  0  0  0  0
   38.1270   24.4420   38.1440 C   0  0  0  0  0  3  0  0  0  0  0  0
   38.9490   25.1860   38.1150 H   0  0  0  0  0  0  0  0  0  0  0  0
   38.7380   23.1070   38.5180 C   0  0  0  0  0  3  0  0  0  0  0  0
   38.9380   23.1140   39.6130 H   0  0  0  0  0  0  0  0  0  0  0  0
   39.9270   22.8600   37.8410 O   0  0  0  0  0  0  0  0  0  0  0  0
   39.8590   23.3570   36.5590 C   0  0  0  0  0  3  0  0  0  0  0  0
   40.5500   22.8120   35.8640 H   0  0  0  0  0  0  0  0  0  0  0  0
   38.4180   23.1890   36.0870 C   0  0  0  0  0  3  0  0  0  0  0  0
   38.0510   22.1740   36.2610 H   0  0  0  0  0  0  0  0  0  0  0  0
   37.2240   27.6380   33.1160 C   0  0  0  0  0  0  0  0  0  0  0  0
   36.2280   28.6530   33.1360 C   0  0  0  0  0  0  0  0  0  0  0  0
   35.9090   29.2530   31.9180 C   0  0  0  0  0  0  0  0  0  0  0  0
   36.5470   28.8500   30.7940 N   0  0  0  0  0  0  0  0  0  0  0  0
   37.4890   27.8850   30.8050 C   0  0  0  0  0  0  0  0  0  0  0  0
   37.8150   27.2880   31.9730 N   0  0  0  0  0  0  0  0  0  0  0  0
   35.7540   28.9300   34.0650 H   0  0  0  0  0  0  0  0  0  0  0  0
   38.0080   27.5510   29.9150 H   0  0  0  0  0  0  0  0  0  0  0  0
   34.8690   30.3190   31.9150 C   0  0  0  0  0  0  0  0  0  0  0  0
   34.8730   30.8660   30.6600 F   0  0  0  0  0  0  0  0  0  0  0  0
   33.5970   29.8260   32.1760 F   0  0  0  0  0  0  0  0  0  0  0  0
   35.1610   31.3340   32.8200 F   0  0  0  0  0  0  0  0  0  0  0  0
  1  5  2  0  0  0  0
  1  2  1  0  0  0  0
  2  6  1  0  0  0  0
  2  3  2  0  0  0  0
  3  7  1  0  0  0  0
  4  3  1  0  0  0  0
  4  8  1  0  0  0  0
  5  4  1  0  0  0  0
  8  9  1  0  0  0  0
  9 11  1  0  0  0  0
 10  9  1  0  0  0  0
 11 12  1  0  0  0  0
 13 11  1  0  0  0  0
 14 13  1  0  0  0  0
 15 14  1  0  0  0  0
 16 17  1  0  0  0  0
 16 14  1  0  0  0  0
 16  8  1  0  0  0  0
 18 19  1  0  0  0  0
 18  1  1  0  0  0  0
 19 24  1  0  0  0  0
 20 19  2  0  0  0  0
 21 22  2  0  0  0  0
 21 20  1  0  0  0  0
 22 23  1  0  0  0  0
 23 18  2  0  0  0  0
 25 22  1  0  0  0  0
 26 20  1  0  0  0  0
 26 28  1  0  0  0  0
 26 29  1  0  0  0  0
 27 26  1  0  0  0  0
M  END
>  <minimizedAffinity>
-5.14869165

$$$$

 OpenBabel03272508033D

 29 31  0  0  0  0  0  0  0  0999 V2000
   37.5750   27.0360   34.3000 C   0  0  0  0  0  0  0  0  0  0  0  0
   38.2200   27.5970   35.3690 C   0  0  0  0  0  0  0  0  0  0  0  0
   38.3160   26.6620   36.4060 C   0  0  0  0  0  0  0  0  0  0  0  0
   37.7080   25.5460   35.9040 N   0  0  0  0  0  0  0  0  0  0  0  0
   37.2880   25.7910   34.6830 N   0  0  0  0  0  0  0  0  0  0  0  0
   38.6180   28.6200   35.4440 H   0  0  0  0  0  0  0  0  0  0  0  0
   38.7760   26.8020   37.3920 H   0  0  0  0  0  0  0  0  0  0  0  0
   37.5810   24.3170   36.6580 C   0  0  0  0  0  3  0  0  0  0  0  0
   38.1790   24.4830   38.0610 C   0  0  0  0  0  3  0  0  0  0  0  0
   39.0030   25.2240   38.0110 H   0  0  0  0  0  0  0  0  0  0  0  0
   38.7960   23.1450   38.4140 C   0  0  0  0  0  3  0  0  0  0  0  0
   39.0270   23.1470   39.5020 H   0  0  0  0  0  0  0  0  0  0  0  0
   39.9640   22.8950   37.7020 O   0  0  0  0  0  0  0  0  0  0  0  0
   39.8610   23.3970   36.4240 C   0  0  0  0  0  3  0  0  0  0  0  0
   40.5310   22.8520   35.7080 H   0  0  0  0  0  0  0  0  0  0  0  0
   38.4070   23.2360   35.9930 C   0  0  0  0  0  3  0  0  0  0  0  0
   38.0410   22.2220   36.1740 H   0  0  0  0  0  0  0  0  0  0  0  0
   37.2630   27.6530   33.0160 C   0  0  0  0  0  0  0  0  0  0  0  0
   38.1850   27.4680   31.9510 C   0  0  0  0  0  0  0  0  0  0  0  0
   37.8730   28.0640   30.7290 C   0  0  0  0  0  0  0  0  0  0  0  0
   36.7280   28.7780   30.6150 N   0  0  0  0  0  0  0  0  0  0  0  0
   35.8700   28.9370   31.6430 C   0  0  0  0  0  0  0  0  0  0  0  0
   36.1520   28.3680   32.8370 N   0  0  0  0  0  0  0  0  0  0  0  0
   39.0830   26.8880   32.1030 H   0  0  0  0  0  0  0  0  0  0  0  0
   34.9510   29.5050   31.5680 H   0  0  0  0  0  0  0  0  0  0  0  0
   38.8240   27.8840   29.5990 C   0  0  0  0  0  0  0  0  0  0  0  0
   39.1520   26.5550   29.5690 F   0  0  0  0  0  0  0  0  0  0  0  0
   38.2700   28.2280   28.3720 F   0  0  0  0  0  0  0  0  0  0  0  0
   39.9990   28.6040   29.7880 F   0  0  0  0  0  0  0  0  0  0  0  0
  1  5  2  0  0  0  0
  1  2  1  0  0  0  0
  2  6  1  0  0  0  0
  2  3  2  0  0  0  0
  3  7  1  0  0  0  0
  4  3  1  0  0  0  0
  4  8  1  0  0  0  0
  5  4  1  0  0  0  0
  8  9  1  0  0  0  0
  9 11  1  0  0  0  0
 10  9  1  0  0  0  0
 11 12  1  0  0  0  0
 13 11  1  0  0  0  0
 14 13  1  0  0  0  0
 15 14  1  0  0  0  0
 16 17  1  0  0  0  0
 16 14  1  0  0  0  0
 16  8  1  0  0  0  0
 18  1  1  0  0  0  0
 19 24  1  0  0  0  0
 19 18  2  0  0  0  0
 20 19  1  0  0  0  0
 21 20  2  0  0  0  0
 21 22  1  0  0  0  0
 22 23  2  0  0  0  0
 23 18  1  0  0  0  0
 25 22  1  0  0  0  0
 26 29  1  0  0  0  0
 26 20  1  0  0  0  0
 27 26  1  0  0  0  0
 28 26  1  0  0  0  0
M  END
>  <minimizedAffinity>
-5.10865784

$$$$

 OpenBabel03272508033D

 29 31  0  0  0  0  0  0  0  0999 V2000
   37.3310   27.1880   33.9830 C   0  0  0  0  0  0  0  0  0  0  0  0
   37.3350   27.6750   32.7030 C   0  0  0  0  0  0  0  0  0  0  0  0
   36.3430   28.6530   32.5670 C   0  0  0  0  0  0  0  0  0  0  0  0
   35.7670   28.7160   33.8040 N   0  0  0  0  0  0  0  0  0  0  0  0
   36.3580   27.8570   34.6040 N   0  0  0  0  0  0  0  0  0  0  0  0
   37.9990   27.3730   31.8800 H   0  0  0  0  0  0  0  0  0  0  0  0
   36.0940   29.2320   31.6690 H   0  0  0  0  0  0  0  0  0  0  0  0
   34.6750   29.6140   34.1150 C   0  0  0  0  0  3  0  0  0  0  0  0
   34.1990   30.3390   32.8490 C   0  0  0  0  0  3  0  0  0  0  0  0
   35.0590   30.4510   32.1590 H   0  0  0  0  0  0  0  0  0  0  0  0
   33.7910   31.7300   33.2920 C   0  0  0  0  0  3  0  0  0  0  0  0
   33.2220   32.2040   32.4620 H   0  0  0  0  0  0  0  0  0  0  0  0
   34.8850   32.5280   33.6070 O   0  0  0  0  0  0  0  0  0  0  0  0
   35.8700   31.7740   34.2040 C   0  0  0  0  0  3  0  0  0  0  0  0
   36.5300   32.3980   34.8620 H   0  0  0  0  0  0  0  0  0  0  0  0
   35.1750   30.7050   35.0400 C   0  0  0  0  0  3  0  0  0  0  0  0
   34.4000   31.1330   35.6820 H   0  0  0  0  0  0  0  0  0  0  0  0
   38.1940   26.1630   34.5550 C   0  0  0  0  0  0  0  0  0  0  0  0
   37.8100   25.5920   35.7990 C   0  0  0  0  0  0  0  0  0  0  0  0
   38.6460   24.6110   36.3330 C   0  0  0  0  0  0  0  0  0  0  0  0
   39.7640   24.2560   35.6580 N   0  0  0  0  0  0  0  0  0  0  0  0
   40.1050   24.8140   34.4780 C   0  0  0  0  0  0  0  0  0  0  0  0
   39.3090   25.7660   33.9410 N   0  0  0  0  0  0  0  0  0  0  0  0
   36.9060   25.9180   36.2900 H   0  0  0  0  0  0  0  0  0  0  0  0
   40.9950   24.5410   33.9260 H   0  0  0  0  0  0  0  0  0  0  0  0
   38.2640   23.9990   37.6350 C   0  0  0  0  0  0  0  0  0  0  0  0
   37.1300   23.2680   37.4070 F   0  0  0  0  0  0  0  0  0  0  0  0
   39.2420   23.1490   38.1340 F   0  0  0  0  0  0  0  0  0  0  0  0
   37.9600   24.9610   38.5930 F   0  0  0  0  0  0  0  0  0  0  0  0
  1 18  1  0  0  0  0
  1  5  2  0  0  0  0
  2  1  1  0  0  0  0
  3  2  2  0  0  0  0
  3  4  1  0  0  0  0
  4  8  1  0  0  0  0
  4  5  1  0  0  0  0
  6  2  1  0  0  0  0
  7  3  1  0  0  0  0
  8 16  1  0  0  0  0
  9 11  1  0  0  0  0
  9  8  1  0  0  0  0
 10  9  1  0  0  0  0
 11 13  1  0  0  0  0
 12 11  1  0  0  0  0
 13 14  1  0  0  0  0
 14 15  1  0  0  0  0
 14 16  1  0  0  0  0
 16 17  1  0  0  0  0
 18 19  1  0  0  0  0
 19 24  1  0  0  0  0
 19 20  2  0  0  0  0
 20 26  1  0  0  0  0
 21 20  1  0  0  0  0
 22 21  2  0  0  0  0
 23 22  1  0  0  0  0
 23 18  2  0  0  0  0
 25 22  1  0  0  0  0
 26 28  1  0  0  0  0
 26 29  1  0  0  0  0
 27 26  1  0  0  0  0
M  END
>  <minimizedAffinity>
-5.08536196

$$$$

 OpenBabel03272508033D

 29 31  0  0  0  0  0  0  0  0999 V2000
   36.1070   28.9110   33.0420 C   0  0  0  0  0  0  0  0  0  0  0  0
   35.7400   29.6930   31.9790 C   0  0  0  0  0  0  0  0  0  0  0  0
   35.3390   30.9530   32.4370 C   0  0  0  0  0  0  0  0  0  0  0  0
   35.4850   30.8750   33.7930 N   0  0  0  0  0  0  0  0  0  0  0  0
   35.9300   29.6830   34.1160 N   0  0  0  0  0  0  0  0  0  0  0  0
   35.7450   29.4130   30.9160 H   0  0  0  0  0  0  0  0  0  0  0  0
   34.9890   31.8020   31.8360 H   0  0  0  0  0  0  0  0  0  0  0  0
   35.1750   31.9780   34.6780 C   0  0  0  0  0  3  0  0  0  0  0  0
   35.7470   31.7210   36.0790 C   0  0  0  0  0  3  0  0  0  0  0  0
   35.7680   30.6270   36.2590 H   0  0  0  0  0  0  0  0  0  0  0  0
   34.7540   32.3220   37.0530 C   0  0  0  0  0  3  0  0  0  0  0  0
   35.2390   32.3700   38.0530 H   0  0  0  0  0  0  0  0  0  0  0  0
   33.5870   31.5730   37.1490 O   0  0  0  0  0  0  0  0  0  0  0  0
   33.2570   31.0430   35.9220 C   0  0  0  0  0  3  0  0  0  0  0  0
   32.1570   30.8410   35.8380 H   0  0  0  0  0  0  0  0  0  0  0  0
   33.6740   32.0610   34.8650 C   0  0  0  0  0  3  0  0  0  0  0  0
   33.3100   33.0640   35.1030 H   0  0  0  0  0  0  0  0  0  0  0  0
   36.5870   27.5350   33.0190 C   0  0  0  0  0  0  0  0  0  0  0  0
   35.9810   26.6370   32.0990 C   0  0  0  0  0  0  0  0  0  0  0  0
   36.4510   25.3240   32.0890 C   0  0  0  0  0  0  0  0  0  0  0  0
   37.4430   24.9700   32.9400 N   0  0  0  0  0  0  0  0  0  0  0  0
   38.0010   25.8440   33.8020 C   0  0  0  0  0  0  0  0  0  0  0  0
   37.5610   27.1220   33.8300 N   0  0  0  0  0  0  0  0  0  0  0  0
   35.1920   26.9780   31.4460 H   0  0  0  0  0  0  0  0  0  0  0  0
   38.7950   25.5770   34.4890 H   0  0  0  0  0  0  0  0  0  0  0  0
   35.8310   24.3650   31.1340 C   0  0  0  0  0  0  0  0  0  0  0  0
   36.8410   23.8930   30.3400 F   0  0  0  0  0  0  0  0  0  0  0  0
   35.2320   23.2870   31.7710 F   0  0  0  0  0  0  0  0  0  0  0  0
   34.8990   24.9840   30.3070 F   0  0  0  0  0  0  0  0  0  0  0  0
  1  5  2  0  0  0  0
  2  3  2  0  0  0  0
  2  1  1  0  0  0  0
  3  4  1  0  0  0  0
  4  5  1  0  0  0  0
  4  8  1  0  0  0  0
  6  2  1  0  0  0  0
  7  3  1  0  0  0  0
  8 16  1  0  0  0  0
  8  9  1  0  0  0  0
  9 10  1  0  0  0  0
  9 11  1  0  0  0  0
 11 13  1  0  0  0  0
 11 12  1  0  0  0  0
 14 13  1  0  0  0  0
 15 14  1  0  0  0  0
 16 17  1  0  0  0  0
 16 14  1  0  0  0  0
 18  1  1  0  0  0  0
 18 23  1  0  0  0  0
 19 18  2  0  0  0  0
 20 19  1  0  0  0  0
 20 21  2  0  0  0  0
 21 22  1  0  0  0  0
 22 23  2  0  0  0  0
 22 25  1  0  0  0  0
 24 19  1  0  0  0  0
 26 28  1  0  0  0  0
 26 20  1  0  0  0  0
 27 26  1  0  0  0  0
 29 26  1  0  0  0  0
M  END
>  <minimizedAffinity>
-5.03840876

$$$$
