
 OpenBabel03272509503D

 34 36  0  0  0  0  0  0  0  0999 V2000
   37.1990   30.1760   51.3360 C   0  0  0  0  0  0  0  0  0  0  0  0
   37.6610   30.9020   50.2160 C   0  0  0  0  0  0  0  0  0  0  0  0
   37.0270   30.6750   49.0070 C   0  0  0  0  0  0  0  0  0  0  0  0
   35.9950   29.7660   48.9610 N   0  0  0  0  0  0  0  0  0  0  0  0
   35.5900   29.1010   50.0470 C   0  0  0  0  0  0  0  0  0  0  0  0
   36.1930   29.3090   51.2280 N   0  0  0  0  0  0  0  0  0  0  0  0
   37.6470   30.3010   52.3130 H   0  0  0  0  0  0  0  0  0  0  0  0
   38.4800   31.6020   50.3270 H   0  0  0  0  0  0  0  0  0  0  0  0
   37.4940   31.4260   47.8150 C   0  0  0  0  0  3  0  0  0  0  0  0
   37.9690   30.5210   46.7370 C   0  0  0  0  0  3  0  0  0  0  0  0
   38.6260   29.7060   47.0770 H   0  0  0  0  0  0  0  0  0  0  0  0
   38.7930   31.3060   45.7370 C   0  0  0  0  0  3  0  0  0  0  0  0
   38.2410   32.1400   45.2660 H   0  0  0  0  0  0  0  0  0  0  0  0
   39.9260   31.7540   46.4420 O   0  0  0  0  0  0  0  0  0  0  0  0
   39.4910   32.8250   47.2150 C   0  0  0  0  0  3  0  0  0  0  0  0
   40.3800   33.2710   47.7080 H   0  0  0  0  0  0  0  0  0  0  0  0
   38.5340   32.4030   48.2960 C   0  0  0  0  0  3  0  0  0  0  0  0
   39.0830   31.9490   49.1460 H   0  0  0  0  0  0  0  0  0  0  0  0
   34.5490   28.2520   49.7620 O   0  0  0  0  0  0  0  0  0  0  0  0
   33.6770   28.5750   48.6890 C   0  0  0  0  0  0  0  0  0  0  0  0
   34.2920   28.8630   47.8140 H   0  0  0  0  0  0  0  0  0  0  0  0
   33.1020   29.4840   48.9570 H   0  0  0  0  0  0  0  0  0  0  0  0
   32.7430   27.4420   48.4140 C   0  0  0  0  0  0  0  0  0  0  0  0
   33.0200   27.0260   47.4060 H   0  0  0  0  0  0  0  0  0  0  0  0
   32.8780   26.6450   49.1740 H   0  0  0  0  0  0  0  0  0  0  0  0
   31.3090   27.8600   48.3850 C   0  0  0  0  0  0  0  0  0  0  0  0
   30.6170   27.7500   49.5690 C   0  0  0  0  0  0  0  0  0  0  0  0
   29.2920   28.1030   49.6680 C   0  0  0  0  0  0  0  0  0  0  0  0
   28.6580   28.5670   48.5830 N   0  0  0  0  0  0  0  0  0  0  0  0
   29.3480   28.6690   47.4330 C   0  0  0  0  0  0  0  0  0  0  0  0
   30.6420   28.3310   47.3090 N   0  0  0  0  0  0  0  0  0  0  0  0
   31.0740   27.3800   50.4910 H   0  0  0  0  0  0  0  0  0  0  0  0
   28.7090   28.0330   50.5850 H   0  0  0  0  0  0  0  0  0  0  0  0
   28.8830   29.0420   46.5090 H   0  0  0  0  0  0  0  0  0  0  0  0
  1  7  1  0  0  0  0
  2  8  1  0  0  0  0
  2  1  2  0  0  0  0
  3  2  1  0  0  0  0
  4  3  2  0  0  0  0
  4  5  1  0  0  0  0
  5  6  2  0  0  0  0
  6  1  1  0  0  0  0
  9 17  1  0  0  0  0
  9  3  1  0  0  0  0
 10 11  1  0  0  0  0
 10  9  1  0  0  0  0
 12 14  1  0  0  0  0
 12 10  1  0  0  0  0
 13 12  1  0  0  0  0
 14 15  1  0  0  0  0
 15 16  1  0  0  0  0
 15 17  1  0  0  0  0
 17 18  1  0  0  0  0
 19  5  1  0  0  0  0
 20 22  1  0  0  0  0
 20 19  1  0  0  0  0
 21 20  1  0  0  0  0
 23 20  1  0  0  0  0
 23 25  1  0  0  0  0
 24 23  1  0  0  0  0
 26 23  1  0  0  0  0
 26 27  1  0  0  0  0
 27 28  2  0  0  0  0
 27 32  1  0  0  0  0
 28 33  1  0  0  0  0
 29 28  1  0  0  0  0
 30 29  2  0  0  0  0
 31 30  1  0  0  0  0
 31 26  2  0  0  0  0
 34 30  1  0  0  0  0
M  END
>  <minimizedAffinity>
-5.64643478

>  <minimizedRMSD>
0.638242424

$$$$
