
 OpenBabel03272509093D

 41 44  0  0  0  0  0  0  0  0999 V2000
   33.2800   28.0250   47.4760 C   0  0  0  0  0  0  0  0  0  0  0  0
   32.6470   28.6970   46.8910 H   0  0  0  0  0  0  0  0  0  0  0  0
   32.6030   27.6600   48.3070 H   0  0  0  0  0  0  0  0  0  0  0  0
   33.6920   26.7850   46.7740 C   0  0  0  0  0  0  0  0  0  0  0  0
   33.9240   25.5670   47.4090 C   0  0  0  0  0  0  0  0  0  0  0  0
   34.3010   24.4490   46.7060 C   0  0  0  0  0  0  0  0  0  0  0  0
   34.4600   24.5130   45.3230 C   0  0  0  0  0  0  0  0  0  0  0  0
   34.2340   25.7020   44.6980 C   0  0  0  0  0  0  0  0  0  0  0  0
   33.8540   26.8320   45.4010 C   0  0  0  0  0  0  0  0  0  0  0  0
   33.7680   25.6430   48.4870 H   0  0  0  0  0  0  0  0  0  0  0  0
   34.4300   23.6170   47.3840 H   0  0  0  0  0  0  0  0  0  0  0  0
   34.7590   23.5720   44.8850 H   0  0  0  0  0  0  0  0  0  0  0  0
   34.3880   25.6370   43.6310 H   0  0  0  0  0  0  0  0  0  0  0  0
   33.6670   28.0270   44.5470 C   0  0  0  0  0  3  0  0  0  0  0  0
   32.6190   28.9110   45.2120 C   0  0  0  0  0  3  0  0  0  0  0  0
   32.8840   28.8970   46.3110 H   0  0  0  0  0  0  0  0  0  0  0  0
   32.6220   30.3160   44.6970 C   0  0  0  0  0  3  0  0  0  0  0  0
   31.7700   30.4860   44.0050 H   0  0  0  0  0  0  0  0  0  0  0  0
   33.8250   30.7460   44.1870 O   0  0  0  0  0  0  0  0  0  0  0  0
   34.8490   30.1760   44.9740 C   0  0  0  0  0  3  0  0  0  0  0  0
   34.5490   30.1880   46.0410 H   0  0  0  0  0  0  0  0  0  0  0  0
   34.9880   28.7480   44.4300 C   0  0  0  0  0  3  0  0  0  0  0  0
   35.8430   28.2300   44.8560 H   0  0  0  0  0  0  0  0  0  0  0  0
   34.8390   28.4850   49.3760 C   0  0  0  0  0  3  0  0  0  0  0  0
   34.3820   28.7120   48.1690 C   0  0  0  0  0  3  0  0  0  0  0  0
   37.3220   30.0830   51.5160 C   0  0  0  0  0  0  0  0  0  0  0  0
   38.0540   30.8510   50.5800 C   0  0  0  0  0  0  0  0  0  0  0  0
   37.6630   30.7900   49.2330 C   0  0  0  0  0  0  0  0  0  0  0  0
   36.5980   29.9980   48.8920 N   0  0  0  0  0  0  0  0  0  0  0  0
   35.9440   29.2890   49.8530 C   0  0  0  0  0  0  0  0  0  0  0  0
   36.2990   29.3320   51.1350 N   0  0  0  0  0  0  0  0  0  0  0  0
   37.6420   30.1410   52.5630 H   0  0  0  0  0  0  0  0  0  0  0  0
   38.8900   31.4750   50.8340 H   0  0  0  0  0  0  0  0  0  0  0  0
   38.3480   31.5470   48.1780 C   0  0  0  0  0  0  0  0  0  0  0  0
   38.5880   31.0240   46.9300 C   0  0  0  0  0  0  0  0  0  0  0  0
   39.2470   32.0040   46.1870 C   0  0  0  0  0  0  0  0  0  0  0  0
   39.3800   33.0750   47.0100 N   0  0  0  0  0  0  0  0  0  0  0  0
   38.8430   32.7870   48.1820 N   0  0  0  0  0  0  0  0  0  0  0  0
   38.3150   30.0330   46.5840 H   0  0  0  0  0  0  0  0  0  0  0  0
   39.5800   31.9100   45.1590 H   0  0  0  0  0  0  0  0  0  0  0  0
   39.8360   33.9810   46.7510 H   0  0  0  0  0  0  0  0  0  0  0  0
  1 25  1  0  0  0  0
  1  3  1  0  0  0  0
  2  1  1  0  0  0  0
  4  5  1  0  0  0  0
  4  1  1  0  0  0  0
  5 10  1  0  0  0  0
  6 11  1  0  0  0  0
  6  5  2  0  0  0  0
  7  6  1  0  0  0  0
  8  7  2  0  0  0  0
  8  9  1  0  0  0  0
  9  4  2  0  0  0  0
 12  7  1  0  0  0  0
 13  8  1  0  0  0  0
 14 15  1  0  0  0  0
 14  9  1  0  0  0  0
 15 16  1  0  0  0  0
 17 15  1  0  0  0  0
 18 17  1  0  0  0  0
 19 17  1  0  0  0  0
 19 20  1  0  0  0  0
 20 21  1  0  0  0  0
 22 14  1  0  0  0  0
 22 23  1  0  0  0  0
 22 20  1  0  0  0  0
 24 30  1  0  0  0  0
 25 24  2  0  0  0  0
 26 32  1  0  0  0  0
 27 33  1  0  0  0  0
 27 26  2  0  0  0  0
 28 27  1  0  0  0  0
 29 28  2  0  0  0  0
 29 30  1  0  0  0  0
 30 31  2  0  0  0  0
 31 26  1  0  0  0  0
 34 38  2  0  0  0  0
 34 28  1  0  0  0  0
 35 34  1  0  0  0  0
 36 35  2  0  0  0  0
 36 37  1  0  0  0  0
 37 38  1  0  0  0  0
 39 35  1  0  0  0  0
 40 36  1  0  0  0  0
 41 37  1  0  0  0  0
M  END
>  <minimizedAffinity>
-6.26629114

>  <minimizedRMSD>
0.552820683

$$$$
