
 OpenBabel03272509093D

 41 44  0  0  0  0  0  0  0  0999 V2000
   33.0950   28.0180   48.0190 C   0  0  0  0  0  0  0  0  0  0  0  0
   32.2680   28.6620   47.7070 H   0  0  0  0  0  0  0  0  0  0  0  0
   32.6650   27.4050   48.8670 H   0  0  0  0  0  0  0  0  0  0  0  0
   33.5100   27.0060   47.0160 C   0  0  0  0  0  0  0  0  0  0  0  0
   33.7110   25.6570   47.3040 C   0  0  0  0  0  0  0  0  0  0  0  0
   34.0940   24.7630   46.3330 C   0  0  0  0  0  0  0  0  0  0  0  0
   34.2900   25.1960   45.0230 C   0  0  0  0  0  0  0  0  0  0  0  0
   34.0950   26.5130   44.7380 C   0  0  0  0  0  0  0  0  0  0  0  0
   33.7100   27.4180   45.7120 C   0  0  0  0  0  0  0  0  0  0  0  0
   33.5280   25.4420   48.3580 H   0  0  0  0  0  0  0  0  0  0  0  0
   34.1940   23.7770   46.7640 H   0  0  0  0  0  0  0  0  0  0  0  0
   34.5890   24.4020   44.3540 H   0  0  0  0  0  0  0  0  0  0  0  0
   34.2760   26.7360   43.6970 H   0  0  0  0  0  0  0  0  0  0  0  0
   33.5600   28.8030   45.2090 C   0  0  0  0  0  3  0  0  0  0  0  0
   34.9520   29.3280   44.8740 C   0  0  0  0  0  3  0  0  0  0  0  0
   35.4640   28.4680   44.3490 H   0  0  0  0  0  0  0  0  0  0  0  0
   34.9270   30.5350   43.9890 C   0  0  0  0  0  3  0  0  0  0  0  0
   35.1390   31.4570   44.5720 H   0  0  0  0  0  0  0  0  0  0  0  0
   33.8120   30.6470   43.1890 O   0  0  0  0  0  0  0  0  0  0  0  0
   33.4470   29.3450   42.7830 C   0  0  0  0  0  3  0  0  0  0  0  0
   34.3590   28.7560   42.5580 H   0  0  0  0  0  0  0  0  0  0  0  0
   32.6790   28.7810   43.9850 C   0  0  0  0  0  3  0  0  0  0  0  0
   32.2140   27.8240   43.7590 H   0  0  0  0  0  0  0  0  0  0  0  0
   35.0950   28.3120   49.4900 C   0  0  0  0  0  3  0  0  0  0  0  0
   34.2170   28.7540   48.6230 C   0  0  0  0  0  3  0  0  0  0  0  0
   37.3980   30.2000   51.5950 C   0  0  0  0  0  0  0  0  0  0  0  0
   38.0900   30.9770   50.6360 C   0  0  0  0  0  0  0  0  0  0  0  0
   37.7360   30.8210   49.2870 C   0  0  0  0  0  0  0  0  0  0  0  0
   36.7440   29.9330   48.9650 N   0  0  0  0  0  0  0  0  0  0  0  0
   36.1240   29.2210   49.9470 C   0  0  0  0  0  0  0  0  0  0  0  0
   36.4450   29.3540   51.2320 N   0  0  0  0  0  0  0  0  0  0  0  0
   37.6870   30.3340   52.6450 H   0  0  0  0  0  0  0  0  0  0  0  0
   38.8690   31.6760   50.8750 H   0  0  0  0  0  0  0  0  0  0  0  0
   38.3850   31.5770   48.2090 C   0  0  0  0  0  0  0  0  0  0  0  0
   38.5870   31.0520   46.9550 C   0  0  0  0  0  0  0  0  0  0  0  0
   39.2200   32.0320   46.1900 C   0  0  0  0  0  0  0  0  0  0  0  0
   39.3760   33.1050   47.0060 N   0  0  0  0  0  0  0  0  0  0  0  0
   38.8760   32.8180   48.1940 N   0  0  0  0  0  0  0  0  0  0  0  0
   38.3070   30.0590   46.6210 H   0  0  0  0  0  0  0  0  0  0  0  0
   39.5210   31.9360   45.1520 H   0  0  0  0  0  0  0  0  0  0  0  0
   39.8200   34.0110   46.7300 H   0  0  0  0  0  0  0  0  0  0  0  0
  1 25  1  0  0  0  0
  1  3  1  0  0  0  0
  2  1  1  0  0  0  0
  4  5  1  0  0  0  0
  4  1  1  0  0  0  0
  5 10  1  0  0  0  0
  6 11  1  0  0  0  0
  6  5  2  0  0  0  0
  7  6  1  0  0  0  0
  8  7  2  0  0  0  0
  8  9  1  0  0  0  0
  9  4  2  0  0  0  0
 12  7  1  0  0  0  0
 13  8  1  0  0  0  0
 14  9  1  0  0  0  0
 15 14  1  0  0  0  0
 16 15  1  0  0  0  0
 17 18  1  0  0  0  0
 17 15  1  0  0  0  0
 19 17  1  0  0  0  0
 20 19  1  0  0  0  0
 20 22  1  0  0  0  0
 21 20  1  0  0  0  0
 22 14  1  0  0  0  0
 23 22  1  0  0  0  0
 24 30  1  0  0  0  0
 25 24  2  0  0  0  0
 26 32  1  0  0  0  0
 27 33  1  0  0  0  0
 27 26  2  0  0  0  0
 28 27  1  0  0  0  0
 29 28  2  0  0  0  0
 29 30  1  0  0  0  0
 30 31  2  0  0  0  0
 31 26  1  0  0  0  0
 34 28  1  0  0  0  0
 35 34  1  0  0  0  0
 36 35  2  0  0  0  0
 36 37  1  0  0  0  0
 37 38  1  0  0  0  0
 38 34  2  0  0  0  0
 39 35  1  0  0  0  0
 40 36  1  0  0  0  0
 41 37  1  0  0  0  0
M  END
>  <minimizedAffinity>
-6.21979952

>  <minimizedRMSD>
0.870378017

$$$$
