
 OpenBabel03272509403D

 36 38  0  0  1  0  0  0  0  0999 V2000
   37.0390   30.9560   49.0710 C   0  0  0  0  0  0  0  0  0  0  0  0
   36.7690   31.8890   50.0780 C   0  0  0  0  0  0  0  0  0  0  0  0
   37.3730   33.1300   50.1160 C   0  0  0  0  0  0  0  0  0  0  0  0
   38.2860   33.4890   49.1250 C   0  0  0  0  0  0  0  0  0  0  0  0
   38.5420   32.5670   48.1440 C   0  0  0  0  0  0  0  0  0  0  0  0
   37.9320   31.3320   48.1210 C   0  0  0  0  0  0  0  0  0  0  0  0
   36.0540   31.6190   50.8600 H   0  0  0  0  0  0  0  0  0  0  0  0
   37.1150   33.8010   50.9250 H   0  0  0  0  0  0  0  0  0  0  0  0
   38.7450   34.4560   49.1680 H   0  0  0  0  0  0  0  0  0  0  0  0
   39.2600   32.9080   47.4070 H   0  0  0  0  0  0  0  0  0  0  0  0
   36.3540   29.6810   49.1200 C   0  0  2  0  0  0  0  0  0  0  0  0
   36.8880   28.8200   49.9210 O   0  0  0  0  0  0  0  0  0  0  0  0
   33.5960   30.1480   46.8150 C   0  0  0  0  0  0  0  0  0  0  0  0
   32.9340   28.9280   46.8280 C   0  0  0  0  0  0  0  0  0  0  0  0
   33.4360   27.9210   47.6400 C   0  0  0  0  0  0  0  0  0  0  0  0
   34.5450   28.1580   48.3870 N   0  0  0  0  0  0  0  0  0  0  0  0
   35.1550   29.3360   48.3520 C   0  0  0  0  0  0  0  0  0  0  0  0
   34.6780   30.3170   47.5680 N   0  0  0  0  0  0  0  0  0  0  0  0
   33.2170   30.9340   46.1900 H   0  0  0  0  0  0  0  0  0  0  0  0
   32.0550   28.7830   46.2170 H   0  0  0  0  0  0  0  0  0  0  0  0
   32.9500   26.9600   47.6780 H   0  0  0  0  0  0  0  0  0  0  0  0
   38.3030   30.4650   47.0220 C   0  0  0  0  0  0  0  0  0  0  0  0
   39.0160   30.8170   45.9650 C   0  0  0  0  0  0  0  0  0  0  0  0
   39.4610   30.0620   44.7970 C   0  0  0  0  0  0  0  0  0  0  0  0
   38.6600   29.3500   44.4600 H   0  0  0  0  0  0  0  0  0  0  0  0
   40.3150   29.4140   45.0720 H   0  0  0  0  0  0  0  0  0  0  0  0
   39.8310   30.8890   43.6120 C   0  0  0  0  0  0  0  0  0  0  0  0
   38.8750   32.0750   43.5120 C   0  0  0  0  0  0  0  0  0  0  0  0
   37.8390   31.7330   43.3110 H   0  0  0  0  0  0  0  0  0  0  0  0
   39.2760   32.9980   42.3820 C   0  0  0  0  0  0  0  0  0  0  0  0
   40.2310   33.4980   42.5390 H   0  0  0  0  0  0  0  0  0  0  0  0
   39.2200   32.2310   41.2060 O   0  0  0  0  0  0  0  0  0  0  0  0
   40.1770   31.2140   41.2540 C   0  0  0  0  0  0  0  0  0  0  0  0
   40.3700   30.7860   40.2730 H   0  0  0  0  0  0  0  0  0  0  0  0
   39.8110   30.1640   42.3130 C   0  0  0  0  0  0  0  0  0  0  0  0
   38.8340   29.7400   42.0430 H   0  0  0  0  0  0  0  0  0  0  0  0
  1 11  1  0  0  0  0
  1  2  1  0  0  0  0
  2  3  2  0  0  0  0
  2  7  1  0  0  0  0
  3  8  1  0  0  0  0
  4  9  1  0  0  0  0
  4  3  1  0  0  0  0
  5  4  2  0  0  0  0
  6  5  1  0  0  0  0
  6  1  2  0  0  0  0
 10  5  1  0  0  0  0
 11 12  1  6  0  0  0
 13 14  2  0  0  0  0
 13 18  1  0  0  0  0
 14 15  1  0  0  0  0
 15 21  1  0  0  0  0
 15 16  2  0  0  0  0
 17 16  1  0  0  0  0
 17 11  1  0  0  0  0
 18 17  2  0  0  0  0
 19 13  1  0  0  0  0
 20 14  1  0  0  0  0
 22  6  1  0  0  0  0
 23 22  2  0  0  0  0
 24 26  1  0  0  0  0
 24 23  1  0  0  0  0
 25 24  1  0  0  0  0
 27 24  1  0  0  0  0
 28 27  1  0  0  0  0
 29 28  1  0  0  0  0
 30 31  1  0  0  0  0
 30 28  1  0  0  0  0
 32 33  1  0  0  0  0
 32 30  1  0  0  0  0
 33 35  1  0  0  0  0
 34 33  1  0  0  0  0
 35 27  1  0  0  0  0
 36 35  1  0  0  0  0
M  END
>  <minimizedAffinity>
-5.99248266

>  <minimizedRMSD>
1.4284991

$$$$
