
 OpenBabel03272507143D

 41 45  0  0  0  0  0  0  0  0999 V2000
   35.8180   29.0850   49.8840 C   0  0  0  0  0  0  0  0  0  0  0  0
   34.7820   29.6270   50.5630 C   0  0  0  0  0  0  0  0  0  0  0  0
   33.6180   29.0640   50.0350 C   0  0  0  0  0  0  0  0  0  0  0  0
   34.0460   28.1840   49.0310 C   0  0  0  0  0  0  0  0  0  0  0  0
   35.3400   28.2480   49.0000 O   0  0  0  0  0  0  0  0  0  0  0  0
   34.7830   30.3680   51.3780 H   0  0  0  0  0  0  0  0  0  0  0  0
   32.6190   29.3280   50.4060 H   0  0  0  0  0  0  0  0  0  0  0  0
   33.5210   26.4320   47.3390 C   0  0  0  0  0  0  0  0  0  0  0  0
   33.1000   27.3990   48.2440 C   0  0  0  0  0  0  0  0  0  0  0  0
   31.7560   27.6600   48.4420 C   0  0  0  0  0  0  0  0  0  0  0  0
   30.8440   26.9360   47.7180 C   0  0  0  0  0  0  0  0  0  0  0  0
   29.4980   26.9670   47.7020 N   0  0  0  0  0  0  0  0  0  0  0  0
   29.0890   26.0570   46.8240 N   0  0  0  0  0  0  0  0  0  0  0  0
   30.1450   25.4470   46.2800 C   0  0  0  0  0  0  0  0  0  0  0  0
   31.3140   25.9790   46.8240 C   0  0  0  0  0  0  0  0  0  0  0  0
   32.6440   25.7030   46.6120 C   0  0  0  0  0  0  0  0  0  0  0  0
   34.5940   26.2980   47.2520 H   0  0  0  0  0  0  0  0  0  0  0  0
   31.3590   28.4020   49.1330 H   0  0  0  0  0  0  0  0  0  0  0  0
   28.8500   27.5730   48.2560 H   0  0  0  0  0  0  0  0  0  0  0  0
   30.1690   24.6470   45.5220 H   0  0  0  0  0  0  0  0  0  0  0  0
   32.9430   24.9580   45.9140 H   0  0  0  0  0  0  0  0  0  0  0  0
   37.2040   29.4450   50.1680 C   0  0  0  0  0  0  0  0  0  0  0  0
   37.8330   28.7980   51.0420 O   0  0  0  0  0  0  0  0  0  0  0  0
   37.7770   30.5350   49.4180 C   0  0  0  0  0  0  0  0  0  0  0  0
   38.0500   31.7050   50.0960 C   0  0  0  0  0  0  0  0  0  0  0  0
   38.6010   32.7780   49.4110 C   0  0  0  0  0  0  0  0  0  0  0  0
   38.8430   32.6080   48.0880 N   0  0  0  0  0  0  0  0  0  0  0  0
   38.5760   31.4770   47.4400 C   0  0  0  0  0  0  0  0  0  0  0  0
   38.0470   30.4540   48.1120 N   0  0  0  0  0  0  0  0  0  0  0  0
   37.8660   31.8710   51.1670 H   0  0  0  0  0  0  0  0  0  0  0  0
   38.8240   33.6940   49.9070 H   0  0  0  0  0  0  0  0  0  0  0  0
   38.8370   31.2790   45.9860 C   0  0  0  0  0  3  0  0  0  0  0  0
   38.2230   32.3640   45.1350 C   0  0  0  0  0  3  0  0  0  0  0  0
   38.7750   33.3350   45.2530 H   0  0  0  0  0  0  0  0  0  0  0  0
   38.2820   31.8550   43.7090 C   0  0  0  0  0  3  0  0  0  0  0  0
   37.9700   32.6280   42.9790 H   0  0  0  0  0  0  0  0  0  0  0  0
   39.4780   31.2580   43.4090 O   0  0  0  0  0  0  0  0  0  0  0  0
   40.5350   31.6300   44.2320 C   0  0  0  0  0  3  0  0  0  0  0  0
   41.4330   31.0880   43.8690 H   0  0  0  0  0  0  0  0  0  0  0  0
   40.3130   31.2380   45.6680 C   0  0  0  0  0  3  0  0  0  0  0  0
   40.8900   31.9590   46.3010 H   0  0  0  0  0  0  0  0  0  0  0  0
  1 22  1  0  0  0  0
  1  2  2  0  0  0  0
  2  6  1  0  0  0  0
  3  7  1  0  0  0  0
  3  2  1  0  0  0  0
  4  3  2  0  0  0  0
  5  4  1  0  0  0  0
  5  1  1  0  0  0  0
  8  9  1  0  0  0  0
  9 10  2  0  0  0  0
  9  4  1  0  0  0  0
 10 18  1  0  0  0  0
 11 10  1  0  0  0  0
 12 11  1  0  0  0  0
 12 19  1  0  0  0  0
 13 12  1  0  0  0  0
 14 15  1  0  0  0  0
 14 13  2  0  0  0  0
 15 11  2  0  0  0  0
 16 15  1  0  0  0  0
 16  8  2  0  0  0  0
 17  8  1  0  0  0  0
 20 14  1  0  0  0  0
 21 16  1  0  0  0  0
 22 23  2  0  0  0  0
 24 25  1  0  0  0  0
 24 22  1  0  0  0  0
 25 30  1  0  0  0  0
 26 31  1  0  0  0  0
 26 25  2  0  0  0  0
 27 26  1  0  0  0  0
 28 27  2  0  0  0  0
 28 29  1  0  0  0  0
 29 24  2  0  0  0  0
 32 28  1  0  0  0  0
 33 34  1  0  0  0  0
 33 32  1  0  0  0  0
 35 33  1  0  0  0  0
 36 35  1  0  0  0  0
 37 35  1  0  0  0  0
 37 38  1  0  0  0  0
 38 40  1  0  0  0  0
 39 38  1  0  0  0  0
 40 32  1  0  0  0  0
 40 41  1  0  0  0  0
M  END
>  <minimizedAffinity>
-7.21406269

>  <minimizedRMSD>
0.300416172

$$$$
