
 OpenBabel03262523163D

 40 43  0  0  0  0  0  0  0  0999 V2000
   34.7220   29.1820   48.3300 C   0  0  0  0  0  0  0  0  0  0  0  0
   34.4260   27.9120   48.7850 C   0  0  0  0  0  0  0  0  0  0  0  0
   33.3270   27.3500   48.1890 C   0  0  0  0  0  0  0  0  0  0  0  0
   32.5830   27.9880   47.2240 C   0  0  0  0  0  0  0  0  0  0  0  0
   32.9510   29.2460   46.8340 C   0  0  0  0  0  0  0  0  0  0  0  0
   34.0240   29.8350   47.3950 N   0  0  0  0  0  0  0  0  0  0  0  0
   35.0180   27.4190   49.5440 H   0  0  0  0  0  0  0  0  0  0  0  0
   33.0490   26.3370   48.5190 H   0  0  0  0  0  0  0  0  0  0  0  0
   31.7520   27.4440   46.8300 H   0  0  0  0  0  0  0  0  0  0  0  0
   29.9370   29.1000   47.0250 Cl  0  0  0  0  0  0  0  0  0  0  0  0
   30.8270   29.9730   45.8170 C   0  0  0  0  0  0  0  0  0  0  0  0
   32.2030   29.9710   45.8250 C   0  0  0  0  0  0  0  0  0  0  0  0
   32.7750   30.7130   44.8010 C   0  0  0  0  0  0  0  0  0  0  0  0
   32.0790   31.4000   43.8480 C   0  0  0  0  0  0  0  0  0  0  0  0
   30.6900   31.3740   43.8780 C   0  0  0  0  0  0  0  0  0  0  0  0
   29.7650   32.2380   42.6770 Cl  0  0  0  0  0  0  0  0  0  0  0  0
   30.0830   30.6540   44.8720 C   0  0  0  0  0  0  0  0  0  0  0  0
   33.8600   30.7530   44.7480 H   0  0  0  0  0  0  0  0  0  0  0  0
   32.5620   31.9670   43.0650 H   0  0  0  0  0  0  0  0  0  0  0  0
   29.0000   30.6390   44.8890 H   0  0  0  0  0  0  0  0  0  0  0  0
   37.3640   30.2490   50.6530 C   0  0  0  0  0  0  0  0  0  0  0  0
   38.0570   31.2150   49.9170 C   0  0  0  0  0  0  0  0  0  0  0  0
   37.6080   31.4850   48.6410 C   0  0  0  0  0  0  0  0  0  0  0  0
   36.5420   30.8130   48.1790 N   0  0  0  0  0  0  0  0  0  0  0  0
   35.8860   29.8890   48.8930 C   0  0  0  0  0  0  0  0  0  0  0  0
   36.3180   29.6180   50.1420 N   0  0  0  0  0  0  0  0  0  0  0  0
   38.9080   31.7160   50.3570 H   0  0  0  0  0  0  0  0  0  0  0  0
   38.2840   32.4960   47.7880 C   0  0  0  0  0  0  0  0  0  0  0  0
   39.0270   33.4930   48.6730 C   0  0  0  0  0  0  0  0  0  0  0  0
   38.3750   34.3290   48.9900 H   0  0  0  0  0  0  0  0  0  0  0  0
   40.2270   33.9670   47.8700 C   0  0  0  0  0  0  0  0  0  0  0  0
   41.0950   33.2850   48.0060 H   0  0  0  0  0  0  0  0  0  0  0  0
   39.9450   34.0290   46.5040 O   0  0  0  0  0  0  0  0  0  0  0  0
   39.9430   32.7350   45.9860 C   0  0  0  0  0  0  0  0  0  0  0  0
   39.3310   32.7230   45.0500 H   0  0  0  0  0  0  0  0  0  0  0  0
   39.3650   31.7500   46.9950 C   0  0  0  0  0  0  0  0  0  0  0  0
   38.9430   30.8790   46.4520 H   0  0  0  0  0  0  0  0  0  0  0  0
   37.7490   29.8880   52.0000 N   0  0  0  0  0  0  0  0  0  0  0  0
   37.7700   28.8670   52.2950 H   0  0  0  0  0  0  0  0  0  0  0  0
   37.9840   30.7210   52.5870 H   0  0  0  0  0  0  0  0  0  0  0  0
  1  2  1  0  0  0  0
  1 25  1  0  0  0  0
  2  7  1  0  0  0  0
  3  8  1  0  0  0  0
  3  2  2  0  0  0  0
  4  3  1  0  0  0  0
  5  4  2  0  0  0  0
  5  6  1  0  0  0  0
  6  1  2  0  0  0  0
  9  4  1  0  0  0  0
 11 12  1  0  0  0  0
 11 10  1  0  0  0  0
 12  5  1  0  0  0  0
 13 12  2  0  0  0  0
 14 15  2  0  0  0  0
 14 13  1  0  0  0  0
 15 17  1  0  0  0  0
 16 15  1  0  0  0  0
 17 20  1  0  0  0  0
 17 11  2  0  0  0  0
 18 13  1  0  0  0  0
 19 14  1  0  0  0  0
 21 38  1  0  0  0  0
 22 27  1  0  0  0  0
 22 21  2  0  0  0  0
 23 22  1  0  0  0  0
 24 23  2  0  0  0  0
 24 25  1  0  0  0  0
 25 26  2  0  0  0  0
 26 21  1  0  0  0  0
 28 23  1  0  0  0  0
 28 29  1  0  0  0  0
 29 30  1  0  0  0  0
 31 32  1  0  0  0  0
 31 29  1  0  0  0  0
 33 31  1  0  0  0  0
 34 33  1  0  0  0  0
 34 36  1  0  0  0  0
 35 34  1  0  0  0  0
 36 28  1  0  0  0  0
 37 36  1  0  0  0  0
 38 39  1  0  0  0  0
 38 40  1  0  0  0  0
M  END
>  <minimizedAffinity>
-6.79648113

>  <minimizedRMSD>
0.379072398

$$$$
