
 OpenBabel03272501413D

 46 50  0  0  1  0  0  0  0  0999 V2000
   38.8360   27.8860   30.7620 C   0  0  0  0  0  0  0  0  0  0  0  0
   37.7930   28.7690   30.6100 C   0  0  0  0  0  0  0  0  0  0  0  0
   36.7740   28.9060   31.5600 C   0  0  0  0  0  0  0  0  0  0  0  0
   36.8490   28.1520   32.6250 N   0  0  0  0  0  0  0  0  0  0  0  0
   37.8910   27.2750   32.7700 C   0  0  0  0  0  0  0  0  0  0  0  0
   38.8570   27.1420   31.8670 N   0  0  0  0  0  0  0  0  0  0  0  0
   39.6140   27.7940   30.0170 H   0  0  0  0  0  0  0  0  0  0  0  0
   37.8120   29.3620   29.6920 H   0  0  0  0  0  0  0  0  0  0  0  0
   37.9940   26.4380   33.9620 C   0  0  0  0  0  0  0  0  0  0  0  0
   38.0850   26.7790   35.3020 C   0  0  0  0  0  0  0  0  0  0  0  0
   38.1490   25.8120   36.2320 C   0  0  0  0  0  0  0  0  0  0  0  0
   38.1160   24.4980   35.7580 C   0  0  0  0  0  0  0  0  0  0  0  0
   37.9940   24.6720   33.9390 S   0  0  0  0  0  0  0  0  0  0  0  0
   38.1000   27.8390   35.5250 H   0  0  0  0  0  0  0  0  0  0  0  0
   38.2200   25.9720   37.2980 H   0  0  0  0  0  0  0  0  0  0  0  0
   38.1620   23.1810   36.4250 C   0  0  0  0  0  3  0  0  0  0  0  0
   38.7900   23.3510   37.7670 C   0  0  0  0  0  3  0  0  0  0  0  0
   38.2020   22.7860   38.5280 H   0  0  0  0  0  0  0  0  0  0  0  0
   40.2210   22.9220   37.8600 C   0  0  0  0  0  3  0  0  0  0  0  0
   40.4190   22.6800   38.9430 H   0  0  0  0  0  0  0  0  0  0  0  0
   40.5250   21.7850   37.1490 O   0  0  0  0  0  0  0  0  0  0  0  0
   40.2950   22.0010   35.7910 C   0  0  0  0  0  3  0  0  0  0  0  0
   40.8980   22.8030   35.3650 H   0  0  0  0  0  0  0  0  0  0  0  0
   38.8240   22.1230   35.5730 C   0  0  0  0  0  3  0  0  0  0  0  0
   38.6130   22.2960   34.5100 H   0  0  0  0  0  0  0  0  0  0  0  0
   35.7090   29.8040   31.2020 C   0  0  1  0  0  0  0  0  0  0  0  0
   34.9890   29.0190   30.7310 H   0  0  0  0  0  0  0  0  0  0  0  0
   34.9360   30.4260   32.3470 C   0  0  2  0  0  0  0  0  0  0  0  0
   35.5460   31.8090   32.5840 C   0  0  0  0  0  0  0  0  0  0  0  0
   35.5930   30.7190   33.5960 C   0  0  1  0  0  0  0  0  0  0  0  0
   33.8410   30.3940   32.1720 H   0  0  0  0  0  0  0  0  0  0  0  0
   36.5190   32.1210   32.2080 H   0  0  0  0  0  0  0  0  0  0  0  0
   34.8120   32.6240   32.6970 H   0  0  0  0  0  0  0  0  0  0  0  0
   36.5110   30.1190   33.7750 H   0  0  0  0  0  0  0  0  0  0  0  0
   34.9200   31.0550   34.8570 C   0  0  0  0  0  0  0  0  0  0  0  0
   35.6110   31.8190   35.7620 C   0  0  0  0  0  0  0  0  0  0  0  0
   34.9510   32.1430   36.9210 C   0  0  0  0  0  0  0  0  0  0  0  0
   33.6590   31.7390   37.2010 C   0  0  0  0  0  0  0  0  0  0  0  0
   32.9980   30.9690   36.2620 C   0  0  0  0  0  0  0  0  0  0  0  0
   33.6330   30.6440   35.1210 N   0  0  0  0  0  0  0  0  0  0  0  0
   36.6200   32.1480   35.5690 H   0  0  0  0  0  0  0  0  0  0  0  0
   35.4190   32.7460   37.6950 H   0  0  0  0  0  0  0  0  0  0  0  0
   33.0840   31.9500   38.0750 H   0  0  0  0  0  0  0  0  0  0  0  0
   31.9910   30.5600   36.2990 H   0  0  0  0  0  0  0  0  0  0  0  0
   35.7660   30.5510   30.1350 O   0  0  0  0  0  0  0  0  0  0  0  0
   36.3880   31.3000   30.1570 H   0  0  0  0  0  0  0  0  0  0  0  0
  1  6  1  0  0  0  0
  2  1  2  0  0  0  0
  2  3  1  0  0  0  0
  3  4  2  0  0  0  0
  4  5  1  0  0  0  0
  5  9  1  0  0  0  0
  6  5  2  0  0  0  0
  7  1  1  0  0  0  0
  8  2  1  0  0  0  0
  9 10  2  0  0  0  0
 10 14  1  0  0  0  0
 10 11  1  0  0  0  0
 11 15  1  0  0  0  0
 12 11  2  0  0  0  0
 12 16  1  0  0  0  0
 13  9  1  0  0  0  0
 13 12  1  0  0  0  0
 16 17  1  0  0  0  0
 17 19  1  0  0  0  0
 17 18  1  0  0  0  0
 19 20  1  0  0  0  0
 21 19  1  0  0  0  0
 22 21  1  0  0  0  0
 23 22  1  0  0  0  0
 24 22  1  0  0  0  0
 24 16  1  0  0  0  0
 25 24  1  0  0  0  0
 26 27  1  6  0  0  0
 26  3  1  0  0  0  0
 26 28  1  0  0  0  0
 28 31  1  6  0  0  0
 28 29  1  0  0  0  0
 28 30  1  0  0  0  0
 29 33  1  0  0  0  0
 29 30  1  0  0  0  0
 30 34  1  1  0  0  0
 30 35  1  0  0  0  0
 32 29  1  0  0  0  0
 35 40  2  0  0  0  0
 35 36  1  0  0  0  0
 36 37  2  0  0  0  0
 37 38  1  0  0  0  0
 37 42  1  0  0  0  0
 38 43  1  0  0  0  0
 39 44  1  0  0  0  0
 39 38  2  0  0  0  0
 40 39  1  0  0  0  0
 41 36  1  0  0  0  0
 45 46  1  0  0  0  0
 45 26  1  0  0  0  0
M  END
>  <minimizedAffinity>
-6.63747072

$$$$

 OpenBabel03272501413D

 46 50  0  0  1  0  0  0  0  0999 V2000
   35.8340   29.4500   31.4640 C   0  0  0  0  0  0  0  0  0  0  0  0
   36.3280   28.2060   31.7770 C   0  0  0  0  0  0  0  0  0  0  0  0
   36.4900   27.7670   33.0970 C   0  0  0  0  0  0  0  0  0  0  0  0
   36.1440   28.5970   34.0460 N   0  0  0  0  0  0  0  0  0  0  0  0
   35.6510   29.8350   33.7260 C   0  0  0  0  0  0  0  0  0  0  0  0
   35.5000   30.2530   32.4740 N   0  0  0  0  0  0  0  0  0  0  0  0
   35.7170   29.7710   30.4380 H   0  0  0  0  0  0  0  0  0  0  0  0
   36.5890   27.5770   30.9230 H   0  0  0  0  0  0  0  0  0  0  0  0
   35.2460   30.7650   34.7760 C   0  0  0  0  0  0  0  0  0  0  0  0
   36.0030   31.4990   35.6750 C   0  0  0  0  0  0  0  0  0  0  0  0
   35.3920   32.3170   36.5480 C   0  0  0  0  0  0  0  0  0  0  0  0
   33.9970   32.3630   36.4750 C   0  0  0  0  0  0  0  0  0  0  0  0
   33.5710   31.2020   35.1250 S   0  0  0  0  0  0  0  0  0  0  0  0
   37.0760   31.3640   35.6180 H   0  0  0  0  0  0  0  0  0  0  0  0
   35.8890   32.9300   37.2850 H   0  0  0  0  0  0  0  0  0  0  0  0
   32.9690   33.1090   37.2310 C   0  0  0  0  0  3  0  0  0  0  0  0
   31.8150   33.3760   36.3250 C   0  0  0  0  0  3  0  0  0  0  0  0
   30.8620   33.1610   36.8630 H   0  0  0  0  0  0  0  0  0  0  0  0
   31.7460   34.7660   35.7760 C   0  0  0  0  0  3  0  0  0  0  0  0
   30.6670   34.9580   35.5110 H   0  0  0  0  0  0  0  0  0  0  0  0
   32.1060   35.7520   36.6650 O   0  0  0  0  0  0  0  0  0  0  0  0
   33.4330   35.5780   37.0510 C   0  0  0  0  0  3  0  0  0  0  0  0
   34.1440   35.6310   36.2250 H   0  0  0  0  0  0  0  0  0  0  0  0
   33.5240   34.3480   37.8930 C   0  0  0  0  0  3  0  0  0  0  0  0
   34.5610   34.1850   38.2110 H   0  0  0  0  0  0  0  0  0  0  0  0
   37.1100   26.4790   33.2510 C   0  0  1  0  0  0  0  0  0  0  0  0
   38.1040   26.7100   32.6900 H   0  0  0  0  0  0  0  0  0  0  0  0
   37.5190   26.0890   34.6560 C   0  0  2  0  0  0  0  0  0  0  0  0
   39.0160   26.3820   34.7720 C   0  0  0  0  0  0  0  0  0  0  0  0
   38.4490   25.0100   34.8720 C   0  0  1  0  0  0  0  0  0  0  0  0
   36.8650   26.5560   35.4220 H   0  0  0  0  0  0  0  0  0  0  0  0
   39.6760   26.5390   33.9200 H   0  0  0  0  0  0  0  0  0  0  0  0
   39.3120   26.9160   35.6900 H   0  0  0  0  0  0  0  0  0  0  0  0
   38.5050   24.2860   34.0310 H   0  0  0  0  0  0  0  0  0  0  0  0
   38.7140   24.3540   36.1590 C   0  0  0  0  0  0  0  0  0  0  0  0
   37.9240   24.7020   37.2240 C   0  0  0  0  0  0  0  0  0  0  0  0
   38.1730   24.0570   38.4090 C   0  0  0  0  0  0  0  0  0  0  0  0
   39.1600   23.1010   38.5640 C   0  0  0  0  0  0  0  0  0  0  0  0
   39.9360   22.7800   37.4650 C   0  0  0  0  0  0  0  0  0  0  0  0
   39.7020   23.4050   36.2970 N   0  0  0  0  0  0  0  0  0  0  0  0
   37.1460   25.4440   37.1310 H   0  0  0  0  0  0  0  0  0  0  0  0
   37.5970   24.2670   39.3070 H   0  0  0  0  0  0  0  0  0  0  0  0
   39.4120   22.5590   39.4490 H   0  0  0  0  0  0  0  0  0  0  0  0
   40.7500   22.0630   37.3880 H   0  0  0  0  0  0  0  0  0  0  0  0
   36.7930   25.4670   32.4930 O   0  0  0  0  0  0  0  0  0  0  0  0
   35.9190   25.0620   32.6430 H   0  0  0  0  0  0  0  0  0  0  0  0
  1  2  2  0  0  0  0
  1  6  1  0  0  0  0
  2  3  1  0  0  0  0
  3 26  1  0  0  0  0
  3  4  2  0  0  0  0
  5  4  1  0  0  0  0
  5  9  1  0  0  0  0
  6  5  2  0  0  0  0
  7  1  1  0  0  0  0
  8  2  1  0  0  0  0
  9 13  1  0  0  0  0
  9 10  2  0  0  0  0
 10 11  1  0  0  0  0
 11 15  1  0  0  0  0
 12 11  2  0  0  0  0
 12 16  1  0  0  0  0
 13 12  1  0  0  0  0
 14 10  1  0  0  0  0
 16 24  1  0  0  0  0
 17 18  1  0  0  0  0
 17 16  1  0  0  0  0
 19 17  1  0  0  0  0
 19 21  1  0  0  0  0
 20 19  1  0  0  0  0
 21 22  1  0  0  0  0
 22 24  1  0  0  0  0
 23 22  1  0  0  0  0
 24 25  1  0  0  0  0
 26 27  1  6  0  0  0
 26 28  1  0  0  0  0
 28 29  1  0  0  0  0
 28 30  1  0  0  0  0
 28 31  1  1  0  0  0
 29 30  1  0  0  0  0
 29 33  1  0  0  0  0
 30 34  1  6  0  0  0
 30 35  1  0  0  0  0
 32 29  1  0  0  0  0
 35 40  2  0  0  0  0
 35 36  1  0  0  0  0
 36 37  2  0  0  0  0
 37 38  1  0  0  0  0
 37 42  1  0  0  0  0
 38 43  1  0  0  0  0
 39 38  2  0  0  0  0
 40 39  1  0  0  0  0
 41 36  1  0  0  0  0
 44 39  1  0  0  0  0
 45 46  1  0  0  0  0
 45 26  1  0  0  0  0
M  END
>  <minimizedAffinity>
-6.38683128

$$$$

 OpenBabel03272501413D

 46 50  0  0  1  0  0  0  0  0999 V2000
   36.2640   29.1270   30.9460 C   0  0  0  0  0  0  0  0  0  0  0  0
   37.0880   28.1150   31.3780 C   0  0  0  0  0  0  0  0  0  0  0  0
   37.1250   27.6870   32.7110 C   0  0  0  0  0  0  0  0  0  0  0  0
   36.3290   28.2920   33.5520 N   0  0  0  0  0  0  0  0  0  0  0  0
   35.5100   29.2990   33.1140 C   0  0  0  0  0  0  0  0  0  0  0  0
   35.4770   29.7090   31.8500 N   0  0  0  0  0  0  0  0  0  0  0  0
   36.2500   29.4440   29.9120 H   0  0  0  0  0  0  0  0  0  0  0  0
   37.7170   27.6620   30.6080 H   0  0  0  0  0  0  0  0  0  0  0  0
   34.6050   29.9730   34.0410 C   0  0  0  0  0  0  0  0  0  0  0  0
   33.2310   29.8720   34.1990 C   0  0  0  0  0  0  0  0  0  0  0  0
   32.6160   30.5910   35.1520 C   0  0  0  0  0  0  0  0  0  0  0  0
   33.4380   31.4090   35.9330 C   0  0  0  0  0  0  0  0  0  0  0  0
   35.1220   31.1300   35.2700 S   0  0  0  0  0  0  0  0  0  0  0  0
   32.7210   29.1970   33.5220 H   0  0  0  0  0  0  0  0  0  0  0  0
   31.5560   30.5820   35.3560 H   0  0  0  0  0  0  0  0  0  0  0  0
   33.1710   32.3340   37.0540 C   0  0  0  0  0  3  0  0  0  0  0  0
   31.9220   33.0920   36.7560 C   0  0  0  0  0  3  0  0  0  0  0  0
   31.2810   33.1270   37.6670 H   0  0  0  0  0  0  0  0  0  0  0  0
   32.1290   34.4920   36.2680 C   0  0  0  0  0  3  0  0  0  0  0  0
   31.1870   35.0630   36.5100 H   0  0  0  0  0  0  0  0  0  0  0  0
   33.1580   35.1660   36.8820 O   0  0  0  0  0  0  0  0  0  0  0  0
   34.3640   34.5120   36.6370 C   0  0  0  0  0  3  0  0  0  0  0  0
   34.6230   34.4480   35.5790 H   0  0  0  0  0  0  0  0  0  0  0  0
   34.3570   33.2140   37.3720 C   0  0  0  0  0  3  0  0  0  0  0  0
   35.2960   32.6750   37.1960 H   0  0  0  0  0  0  0  0  0  0  0  0
   38.1110   26.6840   33.0130 C   0  0  1  0  0  0  0  0  0  0  0  0
   39.0610   27.3370   32.8440 H   0  0  0  0  0  0  0  0  0  0  0  0
   38.1870   26.2240   34.4540 C   0  0  2  0  0  0  0  0  0  0  0  0
   39.5900   26.5760   34.9510 C   0  0  0  0  0  0  0  0  0  0  0  0
   39.0990   25.1760   34.8370 C   0  0  1  0  0  0  0  0  0  0  0  0
   37.3390   26.6100   35.0560 H   0  0  0  0  0  0  0  0  0  0  0  0
   40.4280   26.8180   34.2990 H   0  0  0  0  0  0  0  0  0  0  0  0
   39.6200   27.0630   35.9410 H   0  0  0  0  0  0  0  0  0  0  0  0
   39.4020   24.5120   34.0000 H   0  0  0  0  0  0  0  0  0  0  0  0
   39.0800   24.4520   36.1150 C   0  0  0  0  0  0  0  0  0  0  0  0
   38.1120   24.7920   37.0240 C   0  0  0  0  0  0  0  0  0  0  0  0
   38.0970   24.0830   38.1990 C   0  0  0  0  0  0  0  0  0  0  0  0
   38.9950   23.0730   38.4900 C   0  0  0  0  0  0  0  0  0  0  0  0
   39.9570   22.7620   37.5470 C   0  0  0  0  0  0  0  0  0  0  0  0
   39.9830   23.4500   36.3900 N   0  0  0  0  0  0  0  0  0  0  0  0
   37.3980   25.5760   36.8220 H   0  0  0  0  0  0  0  0  0  0  0  0
   37.3660   24.2830   38.9780 H   0  0  0  0  0  0  0  0  0  0  0  0
   39.0480   22.4810   39.3780 H   0  0  0  0  0  0  0  0  0  0  0  0
   40.7410   22.0100   37.5910 H   0  0  0  0  0  0  0  0  0  0  0  0
   38.4530   25.7710   32.1480 O   0  0  0  0  0  0  0  0  0  0  0  0
   37.8000   25.0710   31.9660 H   0  0  0  0  0  0  0  0  0  0  0  0
  1  2  2  0  0  0  0
  1  6  1  0  0  0  0
  2  3  1  0  0  0  0
  3 26  1  0  0  0  0
  3  4  2  0  0  0  0
  5  4  1  0  0  0  0
  5  9  1  0  0  0  0
  6  5  2  0  0  0  0
  7  1  1  0  0  0  0
  8  2  1  0  0  0  0
  9 10  2  0  0  0  0
  9 13  1  0  0  0  0
 10 11  1  0  0  0  0
 11 15  1  0  0  0  0
 11 12  2  0  0  0  0
 12 16  1  0  0  0  0
 13 12  1  0  0  0  0
 14 10  1  0  0  0  0
 16 24  1  0  0  0  0
 17 16  1  0  0  0  0
 17 18  1  0  0  0  0
 19 20  1  0  0  0  0
 19 17  1  0  0  0  0
 19 21  1  0  0  0  0
 22 21  1  0  0  0  0
 22 24  1  0  0  0  0
 23 22  1  0  0  0  0
 25 24  1  0  0  0  0
 26 27  1  6  0  0  0
 26 28  1  0  0  0  0
 28 30  1  0  0  0  0
 28 29  1  0  0  0  0
 28 31  1  1  0  0  0
 29 33  1  0  0  0  0
 30 34  1  6  0  0  0
 30 29  1  0  0  0  0
 30 35  1  0  0  0  0
 32 29  1  0  0  0  0
 35 40  2  0  0  0  0
 35 36  1  0  0  0  0
 36 37  2  0  0  0  0
 37 38  1  0  0  0  0
 37 42  1  0  0  0  0
 38 43  1  0  0  0  0
 39 44  1  0  0  0  0
 39 38  2  0  0  0  0
 40 39  1  0  0  0  0
 41 36  1  0  0  0  0
 45 26  1  0  0  0  0
 46 45  1  0  0  0  0
M  END
>  <minimizedAffinity>
-6.17969894

$$$$

 OpenBabel03272501413D

 46 50  0  0  1  0  0  0  0  0999 V2000
   36.4440   24.4570   31.3270 C   0  0  0  0  0  0  0  0  0  0  0  0
   36.2990   25.8240   31.3770 C   0  0  0  0  0  0  0  0  0  0  0  0
   36.8380   26.6040   32.4070 C   0  0  0  0  0  0  0  0  0  0  0  0
   37.5050   25.9770   33.3400 N   0  0  0  0  0  0  0  0  0  0  0  0
   37.6460   24.6150   33.2830 C   0  0  0  0  0  0  0  0  0  0  0  0
   37.1310   23.8740   32.3080 N   0  0  0  0  0  0  0  0  0  0  0  0
   36.0180   23.8710   30.5230 H   0  0  0  0  0  0  0  0  0  0  0  0
   35.7300   26.2650   30.5550 H   0  0  0  0  0  0  0  0  0  0  0  0
   38.4010   23.9050   34.3110 C   0  0  0  0  0  0  0  0  0  0  0  0
   38.1220   22.7290   34.9890 C   0  0  0  0  0  0  0  0  0  0  0  0
   38.9970   22.2570   35.8910 C   0  0  0  0  0  0  0  0  0  0  0  0
   40.1570   23.0140   36.0790 C   0  0  0  0  0  0  0  0  0  0  0  0
   39.9690   24.4290   34.9320 S   0  0  0  0  0  0  0  0  0  0  0  0
   37.1840   22.2470   34.7420 H   0  0  0  0  0  0  0  0  0  0  0  0
   38.8740   21.3530   36.4700 H   0  0  0  0  0  0  0  0  0  0  0  0
   41.3390   22.8530   36.9510 C   0  0  0  0  0  3  0  0  0  0  0  0
   42.4970   23.5410   36.3120 C   0  0  0  0  0  3  0  0  0  0  0  0
   43.0480   24.1330   37.0780 H   0  0  0  0  0  0  0  0  0  0  0  0
   43.4710   22.6390   35.6200 C   0  0  0  0  0  3  0  0  0  0  0  0
   44.4570   23.1850   35.5910 H   0  0  0  0  0  0  0  0  0  0  0  0
   43.7090   21.4490   36.2690 O   0  0  0  0  0  0  0  0  0  0  0  0
   42.5280   20.7140   36.3550 C   0  0  0  0  0  3  0  0  0  0  0  0
   42.0960   20.4580   35.3870 H   0  0  0  0  0  0  0  0  0  0  0  0
   41.6070   21.4080   37.3020 C   0  0  0  0  0  3  0  0  0  0  0  0
   40.6650   20.8510   37.3900 H   0  0  0  0  0  0  0  0  0  0  0  0
   36.5130   28.0040   32.3610 C   0  0  1  0  0  0  0  0  0  0  0  0
   35.7290   27.9580   31.5010 H   0  0  0  0  0  0  0  0  0  0  0  0
   35.7720   28.5650   33.5560 C   0  0  2  0  0  0  0  0  0  0  0  0
   34.4160   29.0500   33.0410 C   0  0  0  0  0  0  0  0  0  0  0  0
   35.4390   29.9660   33.6140 C   0  0  1  0  0  0  0  0  0  0  0  0
   35.7510   27.8480   34.4030 H   0  0  0  0  0  0  0  0  0  0  0  0
   34.1880   29.2260   31.9900 H   0  0  0  0  0  0  0  0  0  0  0  0
   33.5530   28.7450   33.6560 H   0  0  0  0  0  0  0  0  0  0  0  0
   36.0790   30.6100   32.9750 H   0  0  0  0  0  0  0  0  0  0  0  0
   34.9810   30.6860   34.8100 C   0  0  0  0  0  0  0  0  0  0  0  0
   35.8770   31.5150   35.4340 C   0  0  0  0  0  0  0  0  0  0  0  0
   35.4180   32.1990   36.5330 C   0  0  0  0  0  0  0  0  0  0  0  0
   34.1280   32.0830   37.0170 C   0  0  0  0  0  0  0  0  0  0  0  0
   33.2560   31.2360   36.3590 C   0  0  0  0  0  0  0  0  0  0  0  0
   33.6930   30.5600   35.2800 N   0  0  0  0  0  0  0  0  0  0  0  0
   36.8890   31.6240   35.0770 H   0  0  0  0  0  0  0  0  0  0  0  0
   36.0560   32.8780   37.0910 H   0  0  0  0  0  0  0  0  0  0  0  0
   33.7010   32.5780   37.8610 H   0  0  0  0  0  0  0  0  0  0  0  0
   32.2160   31.0140   36.5840 H   0  0  0  0  0  0  0  0  0  0  0  0
   37.2800   28.8700   31.7590 O   0  0  0  0  0  0  0  0  0  0  0  0
   38.1260   29.0830   32.1920 H   0  0  0  0  0  0  0  0  0  0  0  0
  1  2  2  0  0  0  0
  1  6  1  0  0  0  0
  2  3  1  0  0  0  0
  3  4  2  0  0  0  0
  5  4  1  0  0  0  0
  5  9  1  0  0  0  0
  6  5  2  0  0  0  0
  7  1  1  0  0  0  0
  8  2  1  0  0  0  0
  9 13  1  0  0  0  0
  9 10  2  0  0  0  0
 10 11  1  0  0  0  0
 11 12  2  0  0  0  0
 11 15  1  0  0  0  0
 12 16  1  0  0  0  0
 13 12  1  0  0  0  0
 14 10  1  0  0  0  0
 16 24  1  0  0  0  0
 17 16  1  0  0  0  0
 17 18  1  0  0  0  0
 19 21  1  0  0  0  0
 19 17  1  0  0  0  0
 20 19  1  0  0  0  0
 21 22  1  0  0  0  0
 22 24  1  0  0  0  0
 23 22  1  0  0  0  0
 24 25  1  0  0  0  0
 26 27  1  6  0  0  0
 26  3  1  0  0  0  0
 26 28  1  0  0  0  0
 28 30  1  0  0  0  0
 28 31  1  1  0  0  0
 29 28  1  0  0  0  0
 29 30  1  0  0  0  0
 29 33  1  0  0  0  0
 30 34  1  6  0  0  0
 30 35  1  0  0  0  0
 32 29  1  0  0  0  0
 35 40  2  0  0  0  0
 35 36  1  0  0  0  0
 36 37  2  0  0  0  0
 37 38  1  0  0  0  0
 37 42  1  0  0  0  0
 38 43  1  0  0  0  0
 39 44  1  0  0  0  0
 39 38  2  0  0  0  0
 40 39  1  0  0  0  0
 41 36  1  0  0  0  0
 45 46  1  0  0  0  0
 45 26  1  0  0  0  0
M  END
>  <minimizedAffinity>
-6.142591

$$$$

 OpenBabel03272501413D

 46 50  0  0  1  0  0  0  0  0999 V2000
   38.5350   27.5480   30.3580 C   0  0  0  0  0  0  0  0  0  0  0  0
   37.6790   28.5700   30.6950 C   0  0  0  0  0  0  0  0  0  0  0  0
   36.4490   28.3480   31.3260 C   0  0  0  0  0  0  0  0  0  0  0  0
   36.1340   27.1090   31.5950 N   0  0  0  0  0  0  0  0  0  0  0  0
   36.9920   26.0960   31.2570 C   0  0  0  0  0  0  0  0  0  0  0  0
   38.1580   26.3050   30.6550 N   0  0  0  0  0  0  0  0  0  0  0  0
   39.4810   27.7390   29.8700 H   0  0  0  0  0  0  0  0  0  0  0  0
   38.0240   29.5740   30.4360 H   0  0  0  0  0  0  0  0  0  0  0  0
   36.6580   24.7080   31.5660 C   0  0  0  0  0  0  0  0  0  0  0  0
   35.5870   23.9240   31.1640 C   0  0  0  0  0  0  0  0  0  0  0  0
   35.5090   22.6470   31.5700 C   0  0  0  0  0  0  0  0  0  0  0  0
   36.5470   22.1960   32.3910 C   0  0  0  0  0  0  0  0  0  0  0  0
   37.6470   23.6490   32.5750 S   0  0  0  0  0  0  0  0  0  0  0  0
   34.8560   24.4060   30.5270 H   0  0  0  0  0  0  0  0  0  0  0  0
   34.7200   21.9550   31.3140 H   0  0  0  0  0  0  0  0  0  0  0  0
   36.8350   20.8990   33.0370 C   0  0  0  0  0  3  0  0  0  0  0  0
   37.7780   20.1360   32.1700 C   0  0  0  0  0  3  0  0  0  0  0  0
   38.5780   19.6830   32.7990 H   0  0  0  0  0  0  0  0  0  0  0  0
   37.1520   19.0530   31.3480 C   0  0  0  0  0  3  0  0  0  0  0  0
   37.9660   18.3080   31.1170 H   0  0  0  0  0  0  0  0  0  0  0  0
   36.1560   18.3510   31.9880 O   0  0  0  0  0  0  0  0  0  0  0  0
   35.1100   19.2110   32.3180 C   0  0  0  0  0  3  0  0  0  0  0  0
   34.6460   19.6910   31.4560 H   0  0  0  0  0  0  0  0  0  0  0  0
   35.5790   20.1380   33.3900 C   0  0  0  0  0  3  0  0  0  0  0  0
   34.7740   20.8290   33.6700 H   0  0  0  0  0  0  0  0  0  0  0  0
   35.6330   29.5160   31.5210 C   0  0  1  0  0  0  0  0  0  0  0  0
   34.5920   29.0070   31.4000 H   0  0  0  0  0  0  0  0  0  0  0  0
   35.6320   30.1150   32.9120 C   0  0  2  0  0  0  0  0  0  0  0  0
   34.3420   29.6460   33.5880 C   0  0  0  0  0  0  0  0  0  0  0  0
   34.6270   31.0760   33.2910 C   0  0  1  0  0  0  0  0  0  0  0  0
   36.5770   29.9040   33.4530 H   0  0  0  0  0  0  0  0  0  0  0  0
   33.4870   29.2330   33.0550 H   0  0  0  0  0  0  0  0  0  0  0  0
   34.4720   29.2680   34.6160 H   0  0  0  0  0  0  0  0  0  0  0  0
   34.1600   31.6040   32.4330 H   0  0  0  0  0  0  0  0  0  0  0  0
   34.6680   31.9290   34.4860 C   0  0  0  0  0  0  0  0  0  0  0  0
   34.9680   31.3330   35.6830 C   0  0  0  0  0  0  0  0  0  0  0  0
   35.0280   32.1550   36.7810 C   0  0  0  0  0  0  0  0  0  0  0  0
   34.8020   33.5170   36.7240 C   0  0  0  0  0  0  0  0  0  0  0  0
   34.5010   34.0800   35.4980 C   0  0  0  0  0  0  0  0  0  0  0  0
   34.4400   33.2850   34.4130 N   0  0  0  0  0  0  0  0  0  0  0  0
   35.1500   30.2710   35.7550 H   0  0  0  0  0  0  0  0  0  0  0  0
   35.2600   31.7700   37.7710 H   0  0  0  0  0  0  0  0  0  0  0  0
   34.8300   34.2180   37.5300 H   0  0  0  0  0  0  0  0  0  0  0  0
   34.2950   35.1190   35.2530 H   0  0  0  0  0  0  0  0  0  0  0  0
   35.4370   30.3860   30.5710 O   0  0  0  0  0  0  0  0  0  0  0  0
   36.1910   30.9560   30.3340 H   0  0  0  0  0  0  0  0  0  0  0  0
  1  6  2  0  0  0  0
  1  2  1  0  0  0  0
  2  3  2  0  0  0  0
  3 26  1  0  0  0  0
  3  4  1  0  0  0  0
  5  9  1  0  0  0  0
  5  4  2  0  0  0  0
  6  5  1  0  0  0  0
  7  1  1  0  0  0  0
  8  2  1  0  0  0  0
  9 13  1  0  0  0  0
 10  9  2  0  0  0  0
 10 11  1  0  0  0  0
 11 12  2  0  0  0  0
 12 13  1  0  0  0  0
 12 16  1  0  0  0  0
 14 10  1  0  0  0  0
 15 11  1  0  0  0  0
 16 24  1  0  0  0  0
 17 18  1  0  0  0  0
 17 16  1  0  0  0  0
 19 21  1  0  0  0  0
 19 17  1  0  0  0  0
 20 19  1  0  0  0  0
 21 22  1  0  0  0  0
 22 24  1  0  0  0  0
 23 22  1  0  0  0  0
 24 25  1  0  0  0  0
 26 27  1  1  0  0  0
 26 28  1  0  0  0  0
 28 30  1  0  0  0  0
 28 31  1  1  0  0  0
 28 29  1  0  0  0  0
 29 33  1  0  0  0  0
 30 34  1  6  0  0  0
 30 29  1  0  0  0  0
 30 35  1  0  0  0  0
 32 29  1  0  0  0  0
 35 36  1  0  0  0  0
 36 41  1  0  0  0  0
 36 37  2  0  0  0  0
 37 42  1  0  0  0  0
 38 37  1  0  0  0  0
 38 43  1  0  0  0  0
 39 38  2  0  0  0  0
 40 35  2  0  0  0  0
 40 39  1  0  0  0  0
 44 39  1  0  0  0  0
 45 26  1  0  0  0  0
 46 45  1  0  0  0  0
M  END
>  <minimizedAffinity>
-5.99645424

$$$$

 OpenBabel03272501413D

 46 50  0  0  1  0  0  0  0  0999 V2000
   36.4060   29.8880   30.3020 C   0  0  0  0  0  0  0  0  0  0  0  0
   36.9730   28.6380   30.2160 C   0  0  0  0  0  0  0  0  0  0  0  0
   36.6220   27.5880   31.0730 C   0  0  0  0  0  0  0  0  0  0  0  0
   35.7120   27.8380   31.9770 N   0  0  0  0  0  0  0  0  0  0  0  0
   35.1500   29.0850   32.0560 C   0  0  0  0  0  0  0  0  0  0  0  0
   35.4860   30.0830   31.2460 N   0  0  0  0  0  0  0  0  0  0  0  0
   36.6910   30.6870   29.6310 H   0  0  0  0  0  0  0  0  0  0  0  0
   37.7220   28.5170   29.4300 H   0  0  0  0  0  0  0  0  0  0  0  0
   34.1220   29.3720   33.0520 C   0  0  0  0  0  0  0  0  0  0  0  0
   32.7480   29.1930   33.0110 C   0  0  0  0  0  0  0  0  0  0  0  0
   32.0020   29.5190   34.0790 C   0  0  0  0  0  0  0  0  0  0  0  0
   32.6950   30.0280   35.1820 C   0  0  0  0  0  0  0  0  0  0  0  0
   34.4490   30.0340   34.6560 S   0  0  0  0  0  0  0  0  0  0  0  0
   32.3460   28.7890   32.0900 H   0  0  0  0  0  0  0  0  0  0  0  0
   30.9290   29.4180   34.1490 H   0  0  0  0  0  0  0  0  0  0  0  0
   32.2670   30.4960   36.5160 C   0  0  0  0  0  3  0  0  0  0  0  0
   30.8350   30.9030   36.4400 C   0  0  0  0  0  3  0  0  0  0  0  0
   30.2850   30.5000   37.3220 H   0  0  0  0  0  0  0  0  0  0  0  0
   30.5960   32.3780   36.3660 C   0  0  0  0  0  3  0  0  0  0  0  0
   29.5530   32.5590   36.7560 H   0  0  0  0  0  0  0  0  0  0  0  0
   31.4370   33.1350   37.1480 O   0  0  0  0  0  0  0  0  0  0  0  0
   32.7550   32.9570   36.7320 C   0  0  0  0  0  3  0  0  0  0  0  0
   32.9360   33.2590   35.7000 H   0  0  0  0  0  0  0  0  0  0  0  0
   33.1760   31.5660   37.0730 C   0  0  0  0  0  3  0  0  0  0  0  0
   34.2120   31.3970   36.7550 H   0  0  0  0  0  0  0  0  0  0  0  0
   37.3780   26.3760   30.9110 C   0  0  1  0  0  0  0  0  0  0  0  0
   38.1550   26.5560   31.7610 H   0  0  0  0  0  0  0  0  0  0  0  0
   36.6730   25.0850   31.2740 C   0  0  2  0  0  0  0  0  0  0  0  0
   37.3200   24.5820   32.5650 C   0  0  0  0  0  0  0  0  0  0  0  0
   37.3940   23.8370   31.2790 C   0  0  1  0  0  0  0  0  0  0  0  0
   35.5700   25.2080   31.2900 H   0  0  0  0  0  0  0  0  0  0  0  0
   38.2810   24.9300   32.9440 H   0  0  0  0  0  0  0  0  0  0  0  0
   36.6080   24.2570   33.3420 H   0  0  0  0  0  0  0  0  0  0  0  0
   38.3080   23.8400   30.6480 H   0  0  0  0  0  0  0  0  0  0  0  0
   36.7880   22.5010   31.3360 C   0  0  0  0  0  0  0  0  0  0  0  0
   35.5680   22.3820   31.9510 C   0  0  0  0  0  0  0  0  0  0  0  0
   35.0090   21.1280   31.9680 C   0  0  0  0  0  0  0  0  0  0  0  0
   35.6120   20.0180   31.4070 C   0  0  0  0  0  0  0  0  0  0  0  0
   36.8420   20.1810   30.7970 C   0  0  0  0  0  0  0  0  0  0  0  0
   37.4020   21.4050   30.7740 N   0  0  0  0  0  0  0  0  0  0  0  0
   35.0750   23.2320   32.3960 H   0  0  0  0  0  0  0  0  0  0  0  0
   34.0450   20.9390   32.4330 H   0  0  0  0  0  0  0  0  0  0  0  0
   35.2420   19.0170   31.3820 H   0  0  0  0  0  0  0  0  0  0  0  0
   37.4670   19.4380   30.3060 H   0  0  0  0  0  0  0  0  0  0  0  0
   38.2750   26.2430   29.9740 O   0  0  0  0  0  0  0  0  0  0  0  0
   37.9470   26.1570   29.0610 H   0  0  0  0  0  0  0  0  0  0  0  0
  1  6  1  0  0  0  0
  2  1  2  0  0  0  0
  2  3  1  0  0  0  0
  3  4  2  0  0  0  0
  4  5  1  0  0  0  0
  5  9  1  0  0  0  0
  6  5  2  0  0  0  0
  7  1  1  0  0  0  0
  8  2  1  0  0  0  0
  9 13  1  0  0  0  0
 10  9  2  0  0  0  0
 10 11  1  0  0  0  0
 11 15  1  0  0  0  0
 11 12  2  0  0  0  0
 12 16  1  0  0  0  0
 13 12  1  0  0  0  0
 14 10  1  0  0  0  0
 16 24  1  0  0  0  0
 17 16  1  0  0  0  0
 17 18  1  0  0  0  0
 19 17  1  0  0  0  0
 19 20  1  0  0  0  0
 19 21  1  0  0  0  0
 22 24  1  0  0  0  0
 22 21  1  0  0  0  0
 23 22  1  0  0  0  0
 25 24  1  0  0  0  0
 26  3  1  0  0  0  0
 26 28  1  0  0  0  0
 26 27  1  1  0  0  0
 28 30  1  0  0  0  0
 28 31  1  6  0  0  0
 28 29  1  0  0  0  0
 29 32  1  0  0  0  0
 29 33  1  0  0  0  0
 30 34  1  6  0  0  0
 30 35  1  0  0  0  0
 30 29  1  0  0  0  0
 35 36  1  0  0  0  0
 36 37  2  0  0  0  0
 36 41  1  0  0  0  0
 37 42  1  0  0  0  0
 38 37  1  0  0  0  0
 39 38  2  0  0  0  0
 40 39  1  0  0  0  0
 40 35  2  0  0  0  0
 43 38  1  0  0  0  0
 44 39  1  0  0  0  0
 45 26  1  0  0  0  0
 46 45  1  0  0  0  0
M  END
>  <minimizedAffinity>
-5.99533463

$$$$

 OpenBabel03272501413D

 46 50  0  0  1  0  0  0  0  0999 V2000
   36.9770   29.0260   30.1550 C   0  0  0  0  0  0  0  0  0  0  0  0
   37.8380   28.2190   30.8620 C   0  0  0  0  0  0  0  0  0  0  0  0
   37.6140   27.8620   32.1970 C   0  0  0  0  0  0  0  0  0  0  0  0
   36.5330   28.3290   32.7640 N   0  0  0  0  0  0  0  0  0  0  0  0
   35.6800   29.1320   32.0530 C   0  0  0  0  0  0  0  0  0  0  0  0
   35.8930   29.4740   30.7870 N   0  0  0  0  0  0  0  0  0  0  0  0
   37.1680   29.2910   29.1240 H   0  0  0  0  0  0  0  0  0  0  0  0
   38.7140   27.8710   30.3090 H   0  0  0  0  0  0  0  0  0  0  0  0
   34.4610   29.6470   32.6700 C   0  0  0  0  0  0  0  0  0  0  0  0
   33.3560   30.2690   32.1100 C   0  0  0  0  0  0  0  0  0  0  0  0
   32.3320   30.6400   32.8950 C   0  0  0  0  0  0  0  0  0  0  0  0
   32.4670   30.3600   34.2580 C   0  0  0  0  0  0  0  0  0  0  0  0
   34.1040   29.5500   34.3970 S   0  0  0  0  0  0  0  0  0  0  0  0
   33.3870   30.4230   31.0380 H   0  0  0  0  0  0  0  0  0  0  0  0
   31.4300   31.1280   32.5580 H   0  0  0  0  0  0  0  0  0  0  0  0
   31.5990   30.5960   35.4290 C   0  0  0  0  0  3  0  0  0  0  0  0
   32.2330   29.9670   36.6240 C   0  0  0  0  0  3  0  0  0  0  0  0
   32.1790   30.6690   37.4880 H   0  0  0  0  0  0  0  0  0  0  0  0
   31.6420   28.6570   37.0410 C   0  0  0  0  0  3  0  0  0  0  0  0
   31.8750   28.5290   38.1370 H   0  0  0  0  0  0  0  0  0  0  0  0
   30.2730   28.5830   36.9270 O   0  0  0  0  0  0  0  0  0  0  0  0
   29.9020   28.7430   35.5940 C   0  0  0  0  0  3  0  0  0  0  0  0
   30.3090   27.9810   34.9280 H   0  0  0  0  0  0  0  0  0  0  0  0
   30.1740   30.1540   35.1920 C   0  0  0  0  0  3  0  0  0  0  0  0
   29.8920   30.3090   34.1430 H   0  0  0  0  0  0  0  0  0  0  0  0
   38.6590   27.0920   32.8170 C   0  0  1  0  0  0  0  0  0  0  0  0
   39.3850   27.9700   33.0560 H   0  0  0  0  0  0  0  0  0  0  0  0
   38.3310   26.4610   34.1540 C   0  0  2  0  0  0  0  0  0  0  0  0
   39.2130   27.1560   35.1920 C   0  0  0  0  0  0  0  0  0  0  0  0
   39.3300   25.7080   34.8690 C   0  0  1  0  0  0  0  0  0  0  0  0
   37.2390   26.4620   34.3540 H   0  0  0  0  0  0  0  0  0  0  0  0
   40.0940   27.7470   34.9490 H   0  0  0  0  0  0  0  0  0  0  0  0
   38.6870   27.4670   36.1100 H   0  0  0  0  0  0  0  0  0  0  0  0
   40.1430   25.3110   34.2250 H   0  0  0  0  0  0  0  0  0  0  0  0
   39.0760   24.8250   36.0150 C   0  0  0  0  0  0  0  0  0  0  0  0
   38.0030   25.1170   36.8170 C   0  0  0  0  0  0  0  0  0  0  0  0
   37.7700   24.2620   37.8650 C   0  0  0  0  0  0  0  0  0  0  0  0
   38.5540   23.1560   38.1340 C   0  0  0  0  0  0  0  0  0  0  0  0
   39.6270   22.8970   37.3020 C   0  0  0  0  0  0  0  0  0  0  0  0
   39.8670   23.7270   36.2700 N   0  0  0  0  0  0  0  0  0  0  0  0
   37.3750   25.9740   36.6290 H   0  0  0  0  0  0  0  0  0  0  0  0
   36.9420   24.4140   38.5530 H   0  0  0  0  0  0  0  0  0  0  0  0
   38.4370   22.4490   38.9270 H   0  0  0  0  0  0  0  0  0  0  0  0
   40.3500   22.0870   37.3490 H   0  0  0  0  0  0  0  0  0  0  0  0
   39.5290   26.4220   32.1150 O   0  0  0  0  0  0  0  0  0  0  0  0
   39.2070   25.6200   31.6650 H   0  0  0  0  0  0  0  0  0  0  0  0
  1  6  2  0  0  0  0
  1  2  1  0  0  0  0
  2  3  2  0  0  0  0
  3  4  1  0  0  0  0
  3 26  1  0  0  0  0
  5  9  1  0  0  0  0
  5  4  2  0  0  0  0
  6  5  1  0  0  0  0
  7  1  1  0  0  0  0
  8  2  1  0  0  0  0
  9 13  1  0  0  0  0
 10  9  2  0  0  0  0
 10 11  1  0  0  0  0
 11 12  2  0  0  0  0
 12 13  1  0  0  0  0
 12 16  1  0  0  0  0
 14 10  1  0  0  0  0
 15 11  1  0  0  0  0
 16 17  1  0  0  0  0
 17 19  1  0  0  0  0
 17 18  1  0  0  0  0
 19 20  1  0  0  0  0
 21 19  1  0  0  0  0
 22 21  1  0  0  0  0
 23 22  1  0  0  0  0
 24 16  1  0  0  0  0
 24 22  1  0  0  0  0
 25 24  1  0  0  0  0
 26 27  1  1  0  0  0
 26 28  1  0  0  0  0
 28 31  1  1  0  0  0
 28 30  1  0  0  0  0
 28 29  1  0  0  0  0
 29 33  1  0  0  0  0
 30 34  1  6  0  0  0
 30 29  1  0  0  0  0
 30 35  1  0  0  0  0
 32 29  1  0  0  0  0
 35 40  2  0  0  0  0
 35 36  1  0  0  0  0
 36 37  2  0  0  0  0
 37 38  1  0  0  0  0
 37 42  1  0  0  0  0
 38 43  1  0  0  0  0
 39 44  1  0  0  0  0
 39 38  2  0  0  0  0
 40 39  1  0  0  0  0
 41 36  1  0  0  0  0
 45 26  1  0  0  0  0
 46 45  1  0  0  0  0
M  END
>  <minimizedAffinity>
-5.95431709

$$$$

 OpenBabel03272501413D

 46 50  0  0  1  0  0  0  0  0999 V2000
   36.9990   28.7900   30.5680 C   0  0  0  0  0  0  0  0  0  0  0  0
   37.7570   27.7340   31.0160 C   0  0  0  0  0  0  0  0  0  0  0  0
   37.7170   27.2840   32.3410 C   0  0  0  0  0  0  0  0  0  0  0  0
   36.9140   27.9120   33.1580 N   0  0  0  0  0  0  0  0  0  0  0  0
   36.1610   28.9630   32.7050 C   0  0  0  0  0  0  0  0  0  0  0  0
   36.2010   29.3940   31.4480 N   0  0  0  0  0  0  0  0  0  0  0  0
   37.0440   29.1250   29.5400 H   0  0  0  0  0  0  0  0  0  0  0  0
   38.3980   27.2660   30.2650 H   0  0  0  0  0  0  0  0  0  0  0  0
   35.2490   29.6630   33.6040 C   0  0  0  0  0  0  0  0  0  0  0  0
   33.8710   29.8150   33.5570 C   0  0  0  0  0  0  0  0  0  0  0  0
   33.2440   30.4970   34.5290 C   0  0  0  0  0  0  0  0  0  0  0  0
   34.0570   31.0150   35.5420 C   0  0  0  0  0  0  0  0  0  0  0  0
   35.7520   30.5040   35.0730 S   0  0  0  0  0  0  0  0  0  0  0  0
   33.3690   29.3610   32.7120 H   0  0  0  0  0  0  0  0  0  0  0  0
   32.1800   30.6710   34.5850 H   0  0  0  0  0  0  0  0  0  0  0  0
   33.7760   31.8030   36.7600 C   0  0  0  0  0  3  0  0  0  0  0  0
   32.3690   31.5450   37.1780 C   0  0  0  0  0  3  0  0  0  0  0  0
   32.3310   31.3830   38.2800 H   0  0  0  0  0  0  0  0  0  0  0  0
   31.3920   32.6220   36.8240 C   0  0  0  0  0  3  0  0  0  0  0  0
   30.5320   32.5320   37.5480 H   0  0  0  0  0  0  0  0  0  0  0  0
   31.8770   33.9020   36.9600 O   0  0  0  0  0  0  0  0  0  0  0  0
   32.9570   34.0910   36.0990 C   0  0  0  0  0  3  0  0  0  0  0  0
   32.7070   33.9640   35.0450 H   0  0  0  0  0  0  0  0  0  0  0  0
   34.1020   33.2680   36.5880 C   0  0  0  0  0  3  0  0  0  0  0  0
   34.9680   33.3960   35.9270 H   0  0  0  0  0  0  0  0  0  0  0  0
   38.6420   26.2320   32.6670 C   0  0  1  0  0  0  0  0  0  0  0  0
   39.6200   26.7690   32.3310 H   0  0  0  0  0  0  0  0  0  0  0  0
   38.8310   25.9300   34.1390 C   0  0  2  0  0  0  0  0  0  0  0  0
   40.2430   25.3610   34.2900 C   0  0  0  0  0  0  0  0  0  0  0  0
   39.0160   24.5730   34.5860 C   0  0  1  0  0  0  0  0  0  0  0  0
   38.5800   26.8040   34.7750 H   0  0  0  0  0  0  0  0  0  0  0  0
   40.8400   24.9790   33.4640 H   0  0  0  0  0  0  0  0  0  0  0  0
   40.8260   25.7910   35.1220 H   0  0  0  0  0  0  0  0  0  0  0  0
   38.6240   23.8070   33.8840 H   0  0  0  0  0  0  0  0  0  0  0  0
   38.9330   24.1130   35.9790 C   0  0  0  0  0  0  0  0  0  0  0  0
   39.9300   23.2930   36.4390 C   0  0  0  0  0  0  0  0  0  0  0  0
   39.8450   22.8990   37.7500 C   0  0  0  0  0  0  0  0  0  0  0  0
   38.8220   23.2850   38.5970 C   0  0  0  0  0  0  0  0  0  0  0  0
   37.8350   24.1120   38.0940 C   0  0  0  0  0  0  0  0  0  0  0  0
   37.9070   24.5060   36.8090 N   0  0  0  0  0  0  0  0  0  0  0  0
   40.7410   22.9770   35.8000 H   0  0  0  0  0  0  0  0  0  0  0  0
   40.5910   22.2490   38.2020 H   0  0  0  0  0  0  0  0  0  0  0  0
   38.6880   23.0200   39.6230 H   0  0  0  0  0  0  0  0  0  0  0  0
   36.9610   24.5180   38.5960 H   0  0  0  0  0  0  0  0  0  0  0  0
   38.8150   25.2000   31.8890 O   0  0  0  0  0  0  0  0  0  0  0  0
   38.0900   24.5500   31.8560 H   0  0  0  0  0  0  0  0  0  0  0  0
  1  2  2  0  0  0  0
  1  6  1  0  0  0  0
  2  3  1  0  0  0  0
  3 26  1  0  0  0  0
  3  4  2  0  0  0  0
  5  4  1  0  0  0  0
  5  9  1  0  0  0  0
  6  5  2  0  0  0  0
  7  1  1  0  0  0  0
  8  2  1  0  0  0  0
  9 13  1  0  0  0  0
 10  9  2  0  0  0  0
 10 11  1  0  0  0  0
 11 15  1  0  0  0  0
 11 12  2  0  0  0  0
 12 16  1  0  0  0  0
 13 12  1  0  0  0  0
 14 10  1  0  0  0  0
 16 17  1  0  0  0  0
 17 18  1  0  0  0  0
 19 21  1  0  0  0  0
 19 17  1  0  0  0  0
 19 20  1  0  0  0  0
 22 24  1  0  0  0  0
 22 21  1  0  0  0  0
 23 22  1  0  0  0  0
 24 16  1  0  0  0  0
 25 24  1  0  0  0  0
 26 27  1  6  0  0  0
 26 28  1  0  0  0  0
 28 29  1  0  0  0  0
 28 30  1  0  0  0  0
 28 31  1  1  0  0  0
 29 30  1  0  0  0  0
 29 33  1  0  0  0  0
 30 34  1  6  0  0  0
 30 35  1  0  0  0  0
 32 29  1  0  0  0  0
 35 36  2  0  0  0  0
 35 40  1  0  0  0  0
 36 37  1  0  0  0  0
 37 42  1  0  0  0  0
 37 38  2  0  0  0  0
 38 43  1  0  0  0  0
 39 44  1  0  0  0  0
 39 38  1  0  0  0  0
 40 39  2  0  0  0  0
 41 36  1  0  0  0  0
 45 26  1  0  0  0  0
 46 45  1  0  0  0  0
M  END
>  <minimizedAffinity>
-5.9422965

$$$$

 OpenBabel03272501413D

 46 50  0  0  1  0  0  0  0  0999 V2000
   38.0010   26.8960   34.7790 C   0  0  0  0  0  0  0  0  0  0  0  0
   37.7620   26.1620   33.6410 C   0  0  0  0  0  0  0  0  0  0  0  0
   36.7600   26.4950   32.7220 C   0  0  0  0  0  0  0  0  0  0  0  0
   36.0440   27.5560   32.9840 N   0  0  0  0  0  0  0  0  0  0  0  0
   36.2870   28.2830   34.1190 C   0  0  0  0  0  0  0  0  0  0  0  0
   37.2350   27.9650   34.9940 N   0  0  0  0  0  0  0  0  0  0  0  0
   38.7790   26.6210   35.4780 H   0  0  0  0  0  0  0  0  0  0  0  0
   38.4110   25.2930   33.5000 H   0  0  0  0  0  0  0  0  0  0  0  0
   35.5030   29.4790   34.4150 C   0  0  0  0  0  0  0  0  0  0  0  0
   35.8530   30.6530   35.0640 C   0  0  0  0  0  0  0  0  0  0  0  0
   34.9470   31.6350   35.1970 C   0  0  0  0  0  0  0  0  0  0  0  0
   33.6830   31.3860   34.6540 C   0  0  0  0  0  0  0  0  0  0  0  0
   33.8160   29.7030   33.9430 S   0  0  0  0  0  0  0  0  0  0  0  0
   36.8690   30.7090   35.4350 H   0  0  0  0  0  0  0  0  0  0  0  0
   35.1190   32.5840   35.6830 H   0  0  0  0  0  0  0  0  0  0  0  0
   32.4380   32.1770   34.5870 C   0  0  0  0  0  3  0  0  0  0  0  0
   32.5330   33.2950   35.5690 C   0  0  0  0  0  3  0  0  0  0  0  0
   32.1740   34.2380   35.0960 H   0  0  0  0  0  0  0  0  0  0  0  0
   31.7760   33.0880   36.8440 C   0  0  0  0  0  3  0  0  0  0  0  0
   31.5600   34.1120   37.2640 H   0  0  0  0  0  0  0  0  0  0  0  0
   30.5570   32.4680   36.6930 O   0  0  0  0  0  0  0  0  0  0  0  0
   30.7400   31.1920   36.1640 C   0  0  0  0  0  3  0  0  0  0  0  0
   31.3440   30.5370   36.7930 H   0  0  0  0  0  0  0  0  0  0  0  0
   31.2010   31.3240   34.7510 C   0  0  0  0  0  3  0  0  0  0  0  0
   31.3550   30.3320   34.3090 H   0  0  0  0  0  0  0  0  0  0  0  0
   36.5810   25.5690   31.6360 C   0  0  1  0  0  0  0  0  0  0  0  0
   37.5400   25.8390   31.0340 H   0  0  0  0  0  0  0  0  0  0  0  0
   36.7140   24.0990   31.9740 C   0  0  2  0  0  0  0  0  0  0  0  0
   37.5610   23.4720   30.8650 C   0  0  0  0  0  0  0  0  0  0  0  0
   36.1410   23.0980   31.1090 C   0  0  1  0  0  0  0  0  0  0  0  0
   37.0700   23.9440   33.0130 H   0  0  0  0  0  0  0  0  0  0  0  0
   37.7470   23.9390   29.8990 H   0  0  0  0  0  0  0  0  0  0  0  0
   38.3660   22.8080   31.2200 H   0  0  0  0  0  0  0  0  0  0  0  0
   35.3140   23.4730   30.4690 H   0  0  0  0  0  0  0  0  0  0  0  0
   35.9550   21.6810   31.4490 C   0  0  0  0  0  0  0  0  0  0  0  0
   35.3750   21.3880   32.6560 C   0  0  0  0  0  0  0  0  0  0  0  0
   35.1860   20.0580   32.9390 C   0  0  0  0  0  0  0  0  0  0  0  0
   35.5490   19.0380   32.0800 C   0  0  0  0  0  0  0  0  0  0  0  0
   36.1320   19.3760   30.8730 C   0  0  0  0  0  0  0  0  0  0  0  0
   36.3230   20.6770   30.5830 N   0  0  0  0  0  0  0  0  0  0  0  0
   35.0810   22.1650   33.3440 H   0  0  0  0  0  0  0  0  0  0  0  0
   34.7330   19.7310   33.8710 H   0  0  0  0  0  0  0  0  0  0  0  0
   35.4350   17.9860   32.2290 H   0  0  0  0  0  0  0  0  0  0  0  0
   36.4810   18.7250   30.0750 H   0  0  0  0  0  0  0  0  0  0  0  0
   35.7640   25.8140   30.6500 O   0  0  0  0  0  0  0  0  0  0  0  0
   34.8110   25.7650   30.8470 H   0  0  0  0  0  0  0  0  0  0  0  0
  1  6  1  0  0  0  0
  1  7  1  0  0  0  0
  2  1  2  0  0  0  0
  3  4  2  0  0  0  0
  3  2  1  0  0  0  0
  4  5  1  0  0  0  0
  5  9  1  0  0  0  0
  5  6  2  0  0  0  0
  8  2  1  0  0  0  0
  9 10  2  0  0  0  0
 10 11  1  0  0  0  0
 10 14  1  0  0  0  0
 11 15  1  0  0  0  0
 12 11  2  0  0  0  0
 13  9  1  0  0  0  0
 13 12  1  0  0  0  0
 16 12  1  0  0  0  0
 16 24  1  0  0  0  0
 16 17  1  0  0  0  0
 17 19  1  0  0  0  0
 18 17  1  0  0  0  0
 19 20  1  0  0  0  0
 21 19  1  0  0  0  0
 22 21  1  0  0  0  0
 22 23  1  0  0  0  0
 24 22  1  0  0  0  0
 25 24  1  0  0  0  0
 26 27  1  6  0  0  0
 26 28  1  0  0  0  0
 26  3  1  0  0  0  0
 28 31  1  1  0  0  0
 29 30  1  0  0  0  0
 29 33  1  0  0  0  0
 29 28  1  0  0  0  0
 30 34  1  6  0  0  0
 30 35  1  0  0  0  0
 30 28  1  0  0  0  0
 32 29  1  0  0  0  0
 35 36  1  0  0  0  0
 36 37  2  0  0  0  0
 36 41  1  0  0  0  0
 37 42  1  0  0  0  0
 38 43  1  0  0  0  0
 38 37  1  0  0  0  0
 39 38  2  0  0  0  0
 40 39  1  0  0  0  0
 40 35  2  0  0  0  0
 44 39  1  0  0  0  0
 45 46  1  0  0  0  0
 45 26  1  0  0  0  0
M  END
>  <minimizedAffinity>
-5.92293262

$$$$
