
 OpenBabel03272509093D

 41 44  0  0  0  0  0  0  0  0999 V2000
   32.6330   27.9710   48.8900 C   0  0  0  0  0  0  0  0  0  0  0  0
   31.8200   28.7010   48.8840 H   0  0  0  0  0  0  0  0  0  0  0  0
   32.3880   27.2900   49.7610 H   0  0  0  0  0  0  0  0  0  0  0  0
   32.6670   27.0610   47.7180 C   0  0  0  0  0  0  0  0  0  0  0  0
   33.7770   26.3060   47.3470 C   0  0  0  0  0  0  0  0  0  0  0  0
   33.7500   25.4760   46.2520 C   0  0  0  0  0  0  0  0  0  0  0  0
   32.5940   25.3750   45.4810 C   0  0  0  0  0  0  0  0  0  0  0  0
   31.5060   26.1120   45.8410 C   0  0  0  0  0  0  0  0  0  0  0  0
   31.5280   26.9490   46.9420 C   0  0  0  0  0  0  0  0  0  0  0  0
   34.6170   26.4700   48.0250 H   0  0  0  0  0  0  0  0  0  0  0  0
   34.7070   24.9860   46.1410 H   0  0  0  0  0  0  0  0  0  0  0  0
   32.6960   24.6930   44.6490 H   0  0  0  0  0  0  0  0  0  0  0  0
   30.6710   25.9580   45.1740 H   0  0  0  0  0  0  0  0  0  0  0  0
   30.2550   27.6740   47.1630 C   0  0  0  0  0  0  0  0  0  0  0  0
   29.6360   27.9490   45.7980 C   0  0  0  0  0  0  0  0  0  0  0  0
   29.7780   26.9890   45.2180 H   0  0  0  0  0  0  0  0  0  0  0  0
   28.1830   28.2990   45.8720 C   0  0  0  0  0  0  0  0  0  0  0  0
   28.0320   29.3920   45.7330 H   0  0  0  0  0  0  0  0  0  0  0  0
   27.5190   27.7980   46.9680 O   0  0  0  0  0  0  0  0  0  0  0  0
   28.0510   26.5190   47.2410 C   0  0  0  0  0  0  0  0  0  0  0  0
   28.2420   25.9850   46.2880 H   0  0  0  0  0  0  0  0  0  0  0  0
   29.3480   26.8120   48.0070 C   0  0  0  0  0  0  0  0  0  0  0  0
   29.8010   25.9060   48.4040 H   0  0  0  0  0  0  0  0  0  0  0  0
   34.2070   29.4590   50.1400 C   0  0  0  0  0  0  0  0  0  0  0  0
   33.9420   28.5530   49.2310 C   0  0  0  0  0  0  0  0  0  0  0  0
   37.5300   30.0660   51.5140 C   0  0  0  0  0  0  0  0  0  0  0  0
   38.1610   30.7450   50.4450 C   0  0  0  0  0  0  0  0  0  0  0  0
   37.4130   30.9710   49.2790 C   0  0  0  0  0  0  0  0  0  0  0  0
   36.1170   30.5290   49.2320 N   0  0  0  0  0  0  0  0  0  0  0  0
   35.5810   29.8830   50.3050 C   0  0  0  0  0  0  0  0  0  0  0  0
   36.2730   29.6580   51.4190 N   0  0  0  0  0  0  0  0  0  0  0  0
   38.1290   29.8980   52.4180 H   0  0  0  0  0  0  0  0  0  0  0  0
   39.1750   31.0970   50.4690 H   0  0  0  0  0  0  0  0  0  0  0  0
   37.9650   31.6670   48.1110 C   0  0  0  0  0  0  0  0  0  0  0  0
   37.5790   31.3750   46.8250 C   0  0  0  0  0  0  0  0  0  0  0  0
   38.2930   32.2170   45.9730 C   0  0  0  0  0  0  0  0  0  0  0  0
   39.0800   32.9820   46.7720 N   0  0  0  0  0  0  0  0  0  0  0  0
   38.8730   32.6430   48.0320 N   0  0  0  0  0  0  0  0  0  0  0  0
   36.8520   30.6270   46.5250 H   0  0  0  0  0  0  0  0  0  0  0  0
   38.2220   32.2420   44.8910 H   0  0  0  0  0  0  0  0  0  0  0  0
   39.7420   33.7200   46.4370 H   0  0  0  0  0  0  0  0  0  0  0  0
  1 25  1  0  0  0  0
  1  3  1  0  0  0  0
  2  1  1  0  0  0  0
  4  1  1  0  0  0  0
  5  4  1  0  0  0  0
  5 10  1  0  0  0  0
  6  5  2  0  0  0  0
  7  8  2  0  0  0  0
  7  6  1  0  0  0  0
  8  9  1  0  0  0  0
  9 14  1  0  0  0  0
  9  4  2  0  0  0  0
 11  6  1  0  0  0  0
 12  7  1  0  0  0  0
 13  8  1  0  0  0  0
 14 22  1  0  0  0  0
 15 17  1  0  0  0  0
 15 14  1  0  0  0  0
 16 15  1  0  0  0  0
 17 19  1  0  0  0  0
 18 17  1  0  0  0  0
 19 20  1  0  0  0  0
 20 22  1  0  0  0  0
 21 20  1  0  0  0  0
 22 23  1  0  0  0  0
 24 30  1  0  0  0  0
 25 24  2  0  0  0  0
 26 32  1  0  0  0  0
 27 33  1  0  0  0  0
 27 26  2  0  0  0  0
 28 27  1  0  0  0  0
 29 28  2  0  0  0  0
 29 30  1  0  0  0  0
 30 31  2  0  0  0  0
 31 26  1  0  0  0  0
 34 28  1  0  0  0  0
 35 34  1  0  0  0  0
 36 37  1  0  0  0  0
 36 35  2  0  0  0  0
 37 38  1  0  0  0  0
 38 34  2  0  0  0  0
 39 35  1  0  0  0  0
 40 36  1  0  0  0  0
 41 37  1  0  0  0  0
M  END
>  <minimizedAffinity>
-6.37287331

>  <minimizedRMSD>
2.66122341

$$$$
