
 OpenBabel03272509403D

 36 38  0  0  1  0  0  0  0  0999 V2000
   37.0600   30.9690   49.0680 C   0  0  0  0  0  0  0  0  0  0  0  0
   36.7980   31.9170   50.0620 C   0  0  0  0  0  0  0  0  0  0  0  0
   37.4090   33.1560   50.0800 C   0  0  0  0  0  0  0  0  0  0  0  0
   38.3220   33.4950   49.0820 C   0  0  0  0  0  0  0  0  0  0  0  0
   38.5700   32.5570   48.1150 C   0  0  0  0  0  0  0  0  0  0  0  0
   37.9530   31.3260   48.1110 C   0  0  0  0  0  0  0  0  0  0  0  0
   36.0830   31.6630   50.8490 H   0  0  0  0  0  0  0  0  0  0  0  0
   37.1570   33.8400   50.8800 H   0  0  0  0  0  0  0  0  0  0  0  0
   38.7870   34.4600   49.1110 H   0  0  0  0  0  0  0  0  0  0  0  0
   39.2890   32.8830   47.3710 H   0  0  0  0  0  0  0  0  0  0  0  0
   36.3680   29.6980   49.1370 C   0  0  1  0  0  3  0  0  0  0  0  0
   36.8930   28.8490   49.9550 O   0  0  0  0  0  1  0  0  0  0  0  0
   33.6090   30.1470   46.8290 C   0  0  0  0  0  0  0  0  0  0  0  0
   32.9500   28.9250   46.8480 C   0  0  0  0  0  0  0  0  0  0  0  0
   33.4550   27.9240   47.6640 C   0  0  0  0  0  0  0  0  0  0  0  0
   34.5630   28.1670   48.4100 N   0  0  0  0  0  0  0  0  0  0  0  0
   35.1700   29.3460   48.3700 C   0  0  0  0  0  0  0  0  0  0  0  0
   34.6900   30.3230   47.5820 N   0  0  0  0  0  0  0  0  0  0  0  0
   33.2270   30.9290   46.2010 H   0  0  0  0  0  0  0  0  0  0  0  0
   32.0720   28.7750   46.2370 H   0  0  0  0  0  0  0  0  0  0  0  0
   32.9720   26.9610   47.7060 H   0  0  0  0  0  0  0  0  0  0  0  0
   38.3160   30.4410   47.0230 C   0  0  0  0  0  3  0  0  0  0  0  0
   38.9940   30.7830   45.9400 C   0  0  0  0  0  3  0  0  0  0  0  0
   39.4270   30.0100   44.7800 C   0  0  0  0  0  0  0  0  0  0  0  0
   38.9280   29.0040   44.7680 H   0  0  0  0  0  0  0  0  0  0  0  0
   40.5080   29.7850   44.8600 H   0  0  0  0  0  0  0  0  0  0  0  0
   39.1520   30.6440   43.4570 C   0  0  0  0  0  3  0  0  0  0  0  0
   39.7730   29.7890   42.3550 C   0  0  0  0  0  3  0  0  0  0  0  0
   40.8790   29.7720   42.4410 H   0  0  0  0  0  0  0  0  0  0  0  0
   39.4320   30.3400   40.9890 C   0  0  0  0  0  3  0  0  0  0  0  0
   38.3730   30.2830   40.7400 H   0  0  0  0  0  0  0  0  0  0  0  0
   39.9590   31.6420   40.9450 O   0  0  0  0  0  0  0  0  0  0  0  0
   39.3070   32.4510   41.8780 C   0  0  0  0  0  3  0  0  0  0  0  0
   39.4680   33.5100   41.6870 H   0  0  0  0  0  0  0  0  0  0  0  0
   39.6640   32.0340   43.3120 C   0  0  0  0  0  3  0  0  0  0  0  0
   40.7510   32.1330   43.4320 H   0  0  0  0  0  0  0  0  0  0  0  0
  1 11  1  0  0  0  0
  1  2  1  0  0  0  0
  2  3  2  0  0  0  0
  2  7  1  0  0  0  0
  3  8  1  0  0  0  0
  4  9  1  0  0  0  0
  4  3  1  0  0  0  0
  5  4  2  0  0  0  0
  6  5  1  0  0  0  0
  6  1  2  0  0  0  0
 10  5  1  0  0  0  0
 11 12  1  1  0  0  0
 13 14  2  0  0  0  0
 13 18  1  0  0  0  0
 14 15  1  0  0  0  0
 15 21  1  0  0  0  0
 15 16  2  0  0  0  0
 17 16  1  0  0  0  0
 17 11  1  0  0  0  0
 18 17  2  0  0  0  0
 19 13  1  0  0  0  0
 20 14  1  0  0  0  0
 22  6  1  0  0  0  0
 23 22  2  0  0  0  0
 24 26  1  0  0  0  0
 24 23  1  0  0  0  0
 25 24  1  0  0  0  0
 27 24  1  0  0  0  0
 28 29  1  0  0  0  0
 28 27  1  0  0  0  0
 30 28  1  0  0  0  0
 31 30  1  0  0  0  0
 32 30  1  0  0  0  0
 32 33  1  0  0  0  0
 33 35  1  0  0  0  0
 34 33  1  0  0  0  0
 35 36  1  0  0  0  0
 35 27  1  0  0  0  0
M  END
>  <minimizedAffinity>
-5.91212749

>  <minimizedRMSD>
1.8939985

$$$$
