
 OpenBabel03272502263D

 41 44  0  0  0  0  0  0  0  0999 V2000
   34.7780   28.4690   49.8770 O   0  0  0  0  0  0  0  0  0  0  0  0
   33.5370   26.7860   46.8490 N   0  0  0  0  0  0  0  0  0  0  0  0
   34.1010   26.8970   48.0640 C   0  0  0  0  0  0  0  0  0  0  0  0
   34.2320   28.1430   48.6510 C   0  0  0  0  0  0  0  0  0  0  0  0
   33.7760   29.2510   47.9600 C   0  0  0  0  0  0  0  0  0  0  0  0
   33.7920   30.4640   48.3000 O   0  0  0  0  0  0  0  0  0  0  0  0
   33.2160   29.0980   46.7360 N   0  0  0  0  0  0  0  0  0  0  0  0
   33.0950   27.8580   46.1770 C   0  0  0  0  0  0  0  0  0  0  0  0
   32.5820   27.6590   45.0460 O   0  0  0  0  0  0  0  0  0  0  0  0
   33.4910   25.7990   46.5090 H   0  0  0  0  0  0  0  0  0  0  0  0
   34.4790   26.0930   48.6660 H   0  0  0  0  0  0  0  0  0  0  0  0
   32.7040   30.1580   45.9140 C   0  0  0  0  0  0  0  0  0  0  0  0
   33.5640   30.4230   44.6820 C   0  0  0  0  0  0  0  0  0  0  0  0
   34.1750   29.5400   44.3970 H   0  0  0  0  0  0  0  0  0  0  0  0
   32.7230   30.7840   43.4840 C   0  0  0  0  0  0  0  0  0  0  0  0
   33.4120   31.3160   42.7690 H   0  0  0  0  0  0  0  0  0  0  0  0
   31.6660   31.6110   43.7270 O   0  0  0  0  0  0  0  0  0  0  0  0
   30.9730   31.4210   44.8890 C   0  0  0  0  0  0  0  0  0  0  0  0
   29.8910   31.3560   44.6090 H   0  0  0  0  0  0  0  0  0  0  0  0
   31.3110   30.0230   45.4470 C   0  0  0  0  0  0  0  0  0  0  0  0
   30.5430   29.8860   46.2360 H   0  0  0  0  0  0  0  0  0  0  0  0
   37.6890   30.2700   51.0260 C   0  0  0  0  0  0  0  0  0  0  0  0
   38.1640   30.8340   49.8260 C   0  0  0  0  0  0  0  0  0  0  0  0
   37.4500   30.5600   48.6770 C   0  0  0  0  0  0  0  0  0  0  0  0
   36.3630   29.7820   48.7890 N   0  0  0  0  0  0  0  0  0  0  0  0
   35.9210   29.2500   49.9440 C   0  0  0  0  0  0  0  0  0  0  0  0
   36.6000   29.5040   51.0710 N   0  0  0  0  0  0  0  0  0  0  0  0
   38.2880   30.5220   51.8850 H   0  0  0  0  0  0  0  0  0  0  0  0
   39.0320   31.4570   49.7270 H   0  0  0  0  0  0  0  0  0  0  0  0
   37.8180   31.0820   47.3810 C   0  0  0  0  0  0  0  0  0  0  0  0
   37.0860   30.7510   46.2450 C   0  0  0  0  0  0  0  0  0  0  0  0
   37.3850   31.2240   44.9950 C   0  0  0  0  0  0  0  0  0  0  0  0
   38.4470   32.0550   44.8520 N   0  0  0  0  0  0  0  0  0  0  0  0
   39.1410   32.3650   45.9490 C   0  0  0  0  0  0  0  0  0  0  0  0
   38.8690   31.9150   47.1920 N   0  0  0  0  0  0  0  0  0  0  0  0
   36.2380   30.0800   46.3990 H   0  0  0  0  0  0  0  0  0  0  0  0
   36.7780   30.9300   44.1490 H   0  0  0  0  0  0  0  0  0  0  0  0
   40.3080   33.2750   45.8100 C   0  0  0  0  0  0  0  0  0  0  0  0
   40.4140   34.0050   47.0080 F   0  0  0  0  0  0  0  0  0  0  0  0
   41.4580   32.5700   45.5670 F   0  0  0  0  0  0  0  0  0  0  0  0
   40.1130   34.2190   44.8240 F   0  0  0  0  0  0  0  0  0  0  0  0
  1 26  1  0  0  0  0
  2  3  1  0  0  0  0
  3  4  2  0  0  0  0
  3 11  1  0  0  0  0
  4  1  1  0  0  0  0
  5  6  2  0  0  0  0
  5  4  1  0  0  0  0
  7  5  1  0  0  0  0
  8  7  1  0  0  0  0
  8  2  1  0  0  0  0
  9  8  2  0  0  0  0
 10  2  1  0  0  0  0
 12  7  1  0  0  0  0
 13 12  1  0  0  0  0
 14 13  1  0  0  0  0
 15 17  1  0  0  0  0
 15 13  1  0  0  0  0
 16 15  1  0  0  0  0
 17 18  1  0  0  0  0
 18 20  1  0  0  0  0
 19 18  1  0  0  0  0
 20 12  1  0  0  0  0
 20 21  1  0  0  0  0
 22 27  1  0  0  0  0
 22 28  1  0  0  0  0
 23 22  2  0  0  0  0
 24 25  2  0  0  0  0
 24 23  1  0  0  0  0
 25 26  1  0  0  0  0
 26 27  2  0  0  0  0
 29 23  1  0  0  0  0
 30 24  1  0  0  0  0
 31 36  1  0  0  0  0
 31 30  2  0  0  0  0
 32 31  1  0  0  0  0
 33 32  2  0  0  0  0
 33 34  1  0  0  0  0
 34 35  2  0  0  0  0
 35 30  1  0  0  0  0
 37 32  1  0  0  0  0
 38 34  1  0  0  0  0
 38 39  1  0  0  0  0
 40 38  1  0  0  0  0
 41 38  1  0  0  0  0
M  END
>  <minimizedAffinity>
-6.79306507

>  <minimizedRMSD>
1.19328737

$$$$
