
 OpenBabel03272504343D

 41 44  0  0  0  0  0  0  0  0999 V2000
   39.0080   25.0980   35.2990 C   0  0  0  0  0  0  0  0  0  0  0  0
   40.2590   25.3310   34.7600 C   0  0  0  0  0  0  0  0  0  0  0  0
   40.4440   26.3680   33.8540 C   0  0  0  0  0  0  0  0  0  0  0  0
   39.3520   27.1320   33.5290 N   0  0  0  0  0  0  0  0  0  0  0  0
   38.1310   26.8790   34.0770 C   0  0  0  0  0  0  0  0  0  0  0  0
   37.9570   25.8670   34.9580 N   0  0  0  0  0  0  0  0  0  0  0  0
   41.0830   24.6970   35.0530 H   0  0  0  0  0  0  0  0  0  0  0  0
   41.4060   26.5740   33.4170 H   0  0  0  0  0  0  0  0  0  0  0  0
   38.7570   24.0480   36.2330 N   0  0  0  0  0  0  0  0  0  0  0  0
   37.8250   24.2090   37.3410 C   0  0  0  0  0  0  0  0  0  0  0  0
   38.2920   23.6680   38.6470 C   0  0  0  0  0  0  0  0  0  0  0  0
   39.2280   22.6090   38.6280 N   0  0  0  0  0  0  0  0  0  0  0  0
   40.1650   22.6780   37.5170 C   0  0  0  0  0  0  0  0  0  0  0  0
   39.3180   22.7550   36.2630 C   0  0  0  0  0  0  0  0  0  0  0  0
   37.6070   25.2930   37.4270 H   0  0  0  0  0  0  0  0  0  0  0  0
   36.8850   23.7220   37.0430 H   0  0  0  0  0  0  0  0  0  0  0  0
   38.7090   24.5300   39.2440 H   0  0  0  0  0  0  0  0  0  0  0  0
   37.3830   23.3500   39.2260 H   0  0  0  0  0  0  0  0  0  0  0  0
   39.7500   22.6230   39.5380 H   0  0  0  0  0  0  0  0  0  0  0  0
   40.6920   23.6540   37.6200 H   0  0  0  0  0  0  0  0  0  0  0  0
   40.8390   21.8200   37.5430 H   0  0  0  0  0  0  0  0  0  0  0  0
   38.5440   21.9360   36.3070 H   0  0  0  0  0  0  0  0  0  0  0  0
   39.9630   22.5630   35.3640 H   0  0  0  0  0  0  0  0  0  0  0  0
   37.0090   27.7220   33.6940 C   0  0  0  0  0  0  0  0  0  0  0  0
   36.4570   27.6000   32.4340 C   0  0  0  0  0  0  0  0  0  0  0  0
   35.3870   28.3750   32.0100 C   0  0  0  0  0  0  0  0  0  0  0  0
   34.9120   29.2680   32.9170 N   0  0  0  0  0  0  0  0  0  0  0  0
   35.4550   29.3760   34.1350 C   0  0  0  0  0  0  0  0  0  0  0  0
   36.5070   28.6150   34.5520 N   0  0  0  0  0  0  0  0  0  0  0  0
   36.8220   26.8940   31.6950 H   0  0  0  0  0  0  0  0  0  0  0  0
   34.9550   28.2790   31.0220 H   0  0  0  0  0  0  0  0  0  0  0  0
   34.8270   30.3970   35.0170 C   0  0  0  0  0  3  0  0  0  0  0  0
   35.9100   31.1900   35.6760 C   0  0  0  0  0  3  0  0  0  0  0  0
   35.6260   31.4370   36.7390 H   0  0  0  0  0  0  0  0  0  0  0  0
   36.0640   32.4640   34.8620 C   0  0  0  0  0  3  0  0  0  0  0  0
   36.0870   32.1950   33.7970 H   0  0  0  0  0  0  0  0  0  0  0  0
   34.9080   33.1940   35.0830 O   0  0  0  0  0  0  0  0  0  0  0  0
   33.7830   32.6450   34.5120 C   0  0  0  0  0  3  0  0  0  0  0  0
   32.9270   32.8250   35.1960 H   0  0  0  0  0  0  0  0  0  0  0  0
   33.8970   31.2020   34.1530 C   0  0  0  0  0  3  0  0  0  0  0  0
   32.8800   30.7430   34.2790 H   0  0  0  0  0  0  0  0  0  0  0  0
  1  9  1  0  0  0  0
  2  7  1  0  0  0  0
  2  1  2  0  0  0  0
  3  2  1  0  0  0  0
  4  3  2  0  0  0  0
  4  5  1  0  0  0  0
  5  6  2  0  0  0  0
  6  1  1  0  0  0  0
  8  3  1  0  0  0  0
  9 14  1  0  0  0  0
  9 10  1  0  0  0  0
 10 15  1  0  0  0  0
 10 11  1  0  0  0  0
 11 18  1  0  0  0  0
 11 17  1  0  0  0  0
 12 11  1  0  0  0  0
 12 19  1  0  0  0  0
 13 21  1  0  0  0  0
 13 20  1  0  0  0  0
 13 12  1  0  0  0  0
 14 22  1  0  0  0  0
 14 13  1  0  0  0  0
 16 10  1  0  0  0  0
 23 14  1  0  0  0  0
 24  5  1  0  0  0  0
 24 29  1  0  0  0  0
 25 24  2  0  0  0  0
 26 25  1  0  0  0  0
 26 27  2  0  0  0  0
 27 28  1  0  0  0  0
 28 29  2  0  0  0  0
 28 32  1  0  0  0  0
 30 25  1  0  0  0  0
 31 26  1  0  0  0  0
 32 33  1  0  0  0  0
 33 34  1  0  0  0  0
 35 37  1  0  0  0  0
 35 33  1  0  0  0  0
 36 35  1  0  0  0  0
 38 37  1  0  0  0  0
 38 39  1  0  0  0  0
 40 41  1  0  0  0  0
 40 38  1  0  0  0  0
 40 32  1  0  0  0  0
M  END
>  <minimizedAffinity>
-6.19523859

$$$$

 OpenBabel03272504343D

 41 44  0  0  0  0  0  0  0  0999 V2000
   39.2920   25.0150   35.2550 C   0  0  0  0  0  0  0  0  0  0  0  0
   40.5780   25.1890   34.7780 C   0  0  0  0  0  0  0  0  0  0  0  0
   40.8520   26.2090   33.8760 C   0  0  0  0  0  0  0  0  0  0  0  0
   39.8120   27.0170   33.4920 N   0  0  0  0  0  0  0  0  0  0  0  0
   38.5550   26.8220   33.9800 C   0  0  0  0  0  0  0  0  0  0  0  0
   38.2940   25.8260   34.8580 N   0  0  0  0  0  0  0  0  0  0  0  0
   41.3580   24.5220   35.1150 H   0  0  0  0  0  0  0  0  0  0  0  0
   41.8430   26.3700   33.4860 H   0  0  0  0  0  0  0  0  0  0  0  0
   38.9490   23.9850   36.1820 N   0  0  0  0  0  0  0  0  0  0  0  0
   37.8920   24.1570   37.1690 C   0  0  0  0  0  0  0  0  0  0  0  0
   38.2110   23.6580   38.5350 C   0  0  0  0  0  0  0  0  0  0  0  0
   39.1590   22.6150   38.6540 N   0  0  0  0  0  0  0  0  0  0  0  0
   40.2180   22.6730   37.6590 C   0  0  0  0  0  0  0  0  0  0  0  0
   39.5220   22.7030   36.3120 C   0  0  0  0  0  0  0  0  0  0  0  0
   37.6500   25.2380   37.2000 H   0  0  0  0  0  0  0  0  0  0  0  0
   37.0010   23.6460   36.7780 H   0  0  0  0  0  0  0  0  0  0  0  0
   38.5430   24.5420   39.1530 H   0  0  0  0  0  0  0  0  0  0  0  0
   37.2460   23.3390   39.0130 H   0  0  0  0  0  0  0  0  0  0  0  0
   39.5710   22.6620   39.6180 H   0  0  0  0  0  0  0  0  0  0  0  0
   40.7150   23.6610   37.7940 H   0  0  0  0  0  0  0  0  0  0  0  0
   40.8980   21.8280   37.7860 H   0  0  0  0  0  0  0  0  0  0  0  0
   38.7610   21.8720   36.2890 H   0  0  0  0  0  0  0  0  0  0  0  0
   40.2700   22.5000   35.5000 H   0  0  0  0  0  0  0  0  0  0  0  0
   37.4920   27.7100   33.5360 C   0  0  0  0  0  0  0  0  0  0  0  0
   36.5750   28.1920   34.4490 C   0  0  0  0  0  0  0  0  0  0  0  0
   35.5390   29.0410   34.0880 C   0  0  0  0  0  0  0  0  0  0  0  0
   35.4820   29.3720   32.7710 N   0  0  0  0  0  0  0  0  0  0  0  0
   36.3760   28.8990   31.8970 C   0  0  0  0  0  0  0  0  0  0  0  0
   37.3950   28.0640   32.2510 N   0  0  0  0  0  0  0  0  0  0  0  0
   36.6030   27.9390   35.5040 H   0  0  0  0  0  0  0  0  0  0  0  0
   34.8200   29.4200   34.8040 H   0  0  0  0  0  0  0  0  0  0  0  0
   36.1850   29.3490   30.4910 C   0  0  0  0  0  3  0  0  0  0  0  0
   36.2870   30.8410   30.4490 C   0  0  0  0  0  3  0  0  0  0  0  0
   35.5460   31.2640   29.7120 H   0  0  0  0  0  0  0  0  0  0  0  0
   37.7060   31.1600   30.0130 C   0  0  0  0  0  3  0  0  0  0  0  0
   38.3980   30.5330   30.5930 H   0  0  0  0  0  0  0  0  0  0  0  0
   37.7920   30.7640   28.6890 O   0  0  0  0  0  0  0  0  0  0  0  0
   37.7590   29.3990   28.5120 C   0  0  0  0  0  3  0  0  0  0  0  0
   37.1970   29.1870   27.5780 H   0  0  0  0  0  0  0  0  0  0  0  0
   37.2100   28.6260   29.6630 C   0  0  0  0  0  3  0  0  0  0  0  0
   36.6920   27.7230   29.2450 H   0  0  0  0  0  0  0  0  0  0  0  0
  1  9  1  0  0  0  0
  2  7  1  0  0  0  0
  2  1  2  0  0  0  0
  3  2  1  0  0  0  0
  4  3  2  0  0  0  0
  4  5  1  0  0  0  0
  5  6  2  0  0  0  0
  6  1  1  0  0  0  0
  8  3  1  0  0  0  0
  9 14  1  0  0  0  0
  9 10  1  0  0  0  0
 10 15  1  0  0  0  0
 10 11  1  0  0  0  0
 11 12  1  0  0  0  0
 11 18  1  0  0  0  0
 11 17  1  0  0  0  0
 12 19  1  0  0  0  0
 13 21  1  0  0  0  0
 13 20  1  0  0  0  0
 13 12  1  0  0  0  0
 14 13  1  0  0  0  0
 16 10  1  0  0  0  0
 22 14  1  0  0  0  0
 23 14  1  0  0  0  0
 24  5  1  0  0  0  0
 24 25  1  0  0  0  0
 25 30  1  0  0  0  0
 26 25  2  0  0  0  0
 26 31  1  0  0  0  0
 27 26  1  0  0  0  0
 28 29  1  0  0  0  0
 28 27  2  0  0  0  0
 29 24  2  0  0  0  0
 32 28  1  0  0  0  0
 33 32  1  0  0  0  0
 34 33  1  0  0  0  0
 35 33  1  0  0  0  0
 35 36  1  0  0  0  0
 37 35  1  0  0  0  0
 38 37  1  0  0  0  0
 38 40  1  0  0  0  0
 39 38  1  0  0  0  0
 40 32  1  0  0  0  0
 41 40  1  0  0  0  0
M  END
>  <minimizedAffinity>
-6.00209761

$$$$

 OpenBabel03272504343D

 41 44  0  0  0  0  0  0  0  0999 V2000
   38.1550   24.0170   34.6610 C   0  0  0  0  0  0  0  0  0  0  0  0
   37.8910   22.8520   33.9660 C   0  0  0  0  0  0  0  0  0  0  0  0
   37.3620   22.9120   32.6830 C   0  0  0  0  0  0  0  0  0  0  0  0
   37.1210   24.1520   32.1510 N   0  0  0  0  0  0  0  0  0  0  0  0
   37.3910   25.2840   32.8590 C   0  0  0  0  0  0  0  0  0  0  0  0
   37.9060   25.2200   34.1090 N   0  0  0  0  0  0  0  0  0  0  0  0
   38.1020   21.9020   34.4360 H   0  0  0  0  0  0  0  0  0  0  0  0
   37.1470   22.0220   32.1170 H   0  0  0  0  0  0  0  0  0  0  0  0
   38.6970   24.0190   35.9820 N   0  0  0  0  0  0  0  0  0  0  0  0
   40.0000   23.4400   36.2810 C   0  0  0  0  0  0  0  0  0  0  0  0
   40.0590   22.6210   37.5230 C   0  0  0  0  0  0  0  0  0  0  0  0
   39.1340   22.9120   38.5520 N   0  0  0  0  0  0  0  0  0  0  0  0
   37.8400   23.3590   38.0650 C   0  0  0  0  0  0  0  0  0  0  0  0
   38.1220   24.5410   37.1590 C   0  0  0  0  0  0  0  0  0  0  0  0
   40.2940   22.8310   35.4020 H   0  0  0  0  0  0  0  0  0  0  0  0
   40.7150   24.2720   36.3410 H   0  0  0  0  0  0  0  0  0  0  0  0
   39.9620   21.5370   37.2230 H   0  0  0  0  0  0  0  0  0  0  0  0
   41.1040   22.6990   37.9290 H   0  0  0  0  0  0  0  0  0  0  0  0
   39.0180   22.0470   39.1350 H   0  0  0  0  0  0  0  0  0  0  0  0
   37.4520   22.5370   37.4210 H   0  0  0  0  0  0  0  0  0  0  0  0
   37.1830   23.5940   38.9050 H   0  0  0  0  0  0  0  0  0  0  0  0
   38.8030   25.2530   37.7080 H   0  0  0  0  0  0  0  0  0  0  0  0
   37.1640   25.0860   36.9450 H   0  0  0  0  0  0  0  0  0  0  0  0
   37.1140   26.5720   32.2440 C   0  0  0  0  0  0  0  0  0  0  0  0
   37.4530   26.7890   30.9230 C   0  0  0  0  0  0  0  0  0  0  0  0
   37.2150   27.9950   30.2790 C   0  0  0  0  0  0  0  0  0  0  0  0
   36.6220   28.9580   31.0350 N   0  0  0  0  0  0  0  0  0  0  0  0
   36.2980   28.7350   32.3130 C   0  0  0  0  0  0  0  0  0  0  0  0
   36.5320   27.5500   32.9460 N   0  0  0  0  0  0  0  0  0  0  0  0
   37.9270   26.0350   30.3030 H   0  0  0  0  0  0  0  0  0  0  0  0
   37.4800   28.1650   29.2440 H   0  0  0  0  0  0  0  0  0  0  0  0
   35.6560   29.8820   33.0100 C   0  0  0  0  0  3  0  0  0  0  0  0
   34.5810   30.4360   32.1300 C   0  0  0  0  0  3  0  0  0  0  0  0
   34.5470   31.5600   32.2110 H   0  0  0  0  0  0  0  0  0  0  0  0
   33.2750   29.8320   32.6160 C   0  0  0  0  0  3  0  0  0  0  0  0
   33.4250   28.7540   32.7650 H   0  0  0  0  0  0  0  0  0  0  0  0
   33.0390   30.3970   33.8580 O   0  0  0  0  0  0  0  0  0  0  0  0
   33.9090   29.9760   34.8380 C   0  0  0  0  0  3  0  0  0  0  0  0
   34.1130   30.8360   35.5090 H   0  0  0  0  0  0  0  0  0  0  0  0
   35.1750   29.3660   34.3380 C   0  0  0  0  0  3  0  0  0  0  0  0
   35.9820   29.6130   35.0780 H   0  0  0  0  0  0  0  0  0  0  0  0
  1  9  1  0  0  0  0
  2  7  1  0  0  0  0
  2  1  2  0  0  0  0
  3  2  1  0  0  0  0
  4  3  2  0  0  0  0
  4  5  1  0  0  0  0
  5  6  2  0  0  0  0
  6  1  1  0  0  0  0
  8  3  1  0  0  0  0
  9 10  1  0  0  0  0
  9 14  1  0  0  0  0
 10 16  1  0  0  0  0
 10 11  1  0  0  0  0
 11 18  1  0  0  0  0
 11 12  1  0  0  0  0
 12 19  1  0  0  0  0
 13 12  1  0  0  0  0
 13 21  1  0  0  0  0
 14 22  1  0  0  0  0
 14 13  1  0  0  0  0
 15 10  1  0  0  0  0
 17 11  1  0  0  0  0
 20 13  1  0  0  0  0
 23 14  1  0  0  0  0
 24  5  1  0  0  0  0
 24 29  1  0  0  0  0
 25 24  2  0  0  0  0
 26 25  1  0  0  0  0
 26 27  2  0  0  0  0
 27 28  1  0  0  0  0
 28 29  2  0  0  0  0
 28 32  1  0  0  0  0
 30 25  1  0  0  0  0
 31 26  1  0  0  0  0
 32 40  1  0  0  0  0
 33 34  1  0  0  0  0
 33 35  1  0  0  0  0
 33 32  1  0  0  0  0
 35 36  1  0  0  0  0
 35 37  1  0  0  0  0
 37 38  1  0  0  0  0
 38 39  1  0  0  0  0
 40 38  1  0  0  0  0
 40 41  1  0  0  0  0
M  END
>  <minimizedAffinity>
-5.91180849

$$$$

 OpenBabel03272504343D

 41 44  0  0  0  0  0  0  0  0999 V2000
   37.8850   24.9840   34.1020 C   0  0  0  0  0  0  0  0  0  0  0  0
   37.7110   24.1590   33.0070 C   0  0  0  0  0  0  0  0  0  0  0  0
   37.1170   24.6520   31.8530 C   0  0  0  0  0  0  0  0  0  0  0  0
   36.7210   25.9650   31.8510 N   0  0  0  0  0  0  0  0  0  0  0  0
   36.9070   26.7550   32.9450 C   0  0  0  0  0  0  0  0  0  0  0  0
   37.4860   26.2690   34.0670 N   0  0  0  0  0  0  0  0  0  0  0  0
   38.0420   23.1320   33.0660 H   0  0  0  0  0  0  0  0  0  0  0  0
   36.9670   24.0340   30.9840 H   0  0  0  0  0  0  0  0  0  0  0  0
   38.4890   24.5340   35.3160 N   0  0  0  0  0  0  0  0  0  0  0  0
   39.6510   23.6570   35.3200 C   0  0  0  0  0  0  0  0  0  0  0  0
   39.6030   22.5450   36.3090 C   0  0  0  0  0  0  0  0  0  0  0  0
   38.8210   22.7280   37.4730 N   0  0  0  0  0  0  0  0  0  0  0  0
   37.6270   23.5290   37.2540 C   0  0  0  0  0  0  0  0  0  0  0  0
   38.1060   24.8300   36.6400 C   0  0  0  0  0  0  0  0  0  0  0  0
   39.7580   23.2550   34.2920 H   0  0  0  0  0  0  0  0  0  0  0  0
   40.5310   24.2900   35.5040 H   0  0  0  0  0  0  0  0  0  0  0  0
   39.2590   21.6180   35.7640 H   0  0  0  0  0  0  0  0  0  0  0  0
   40.6610   22.3100   36.6050 H   0  0  0  0  0  0  0  0  0  0  0  0
   38.5540   21.7790   37.8350 H   0  0  0  0  0  0  0  0  0  0  0  0
   37.0360   22.9950   36.4740 H   0  0  0  0  0  0  0  0  0  0  0  0
   37.0850   23.6570   38.1930 H   0  0  0  0  0  0  0  0  0  0  0  0
   38.9530   25.2270   37.2690 H   0  0  0  0  0  0  0  0  0  0  0  0
   37.2770   25.5860   36.6730 H   0  0  0  0  0  0  0  0  0  0  0  0
   36.4670   28.1400   32.8850 C   0  0  0  0  0  0  0  0  0  0  0  0
   36.5760   28.8450   31.7020 C   0  0  0  0  0  0  0  0  0  0  0  0
   36.1750   30.1670   31.5810 C   0  0  0  0  0  0  0  0  0  0  0  0
   35.6630   30.7310   32.7070 N   0  0  0  0  0  0  0  0  0  0  0  0
   35.5620   30.0380   33.8460 C   0  0  0  0  0  0  0  0  0  0  0  0
   35.9560   28.7380   33.9650 N   0  0  0  0  0  0  0  0  0  0  0  0
   36.9830   28.4130   30.7930 H   0  0  0  0  0  0  0  0  0  0  0  0
   36.2610   30.7190   30.6540 H   0  0  0  0  0  0  0  0  0  0  0  0
   34.9820   30.7900   34.9930 C   0  0  0  0  0  3  0  0  0  0  0  0
   36.0950   31.2290   35.8890 C   0  0  0  0  0  3  0  0  0  0  0  0
   35.7810   31.1590   36.9690 H   0  0  0  0  0  0  0  0  0  0  0  0
   36.3970   32.6720   35.5190 C   0  0  0  0  0  3  0  0  0  0  0  0
   36.4500   32.7470   34.4250 H   0  0  0  0  0  0  0  0  0  0  0  0
   35.2990   33.4050   35.9360 O   0  0  0  0  0  0  0  0  0  0  0  0
   34.1600   33.1740   35.1990 C   0  0  0  0  0  3  0  0  0  0  0  0
   33.2900   33.2140   35.8880 H   0  0  0  0  0  0  0  0  0  0  0  0
   34.1670   31.9100   34.4070 C   0  0  0  0  0  3  0  0  0  0  0  0
   33.1100   31.5350   34.3620 H   0  0  0  0  0  0  0  0  0  0  0  0
  1  9  1  0  0  0  0
  2  7  1  0  0  0  0
  2  1  2  0  0  0  0
  3  2  1  0  0  0  0
  4  3  2  0  0  0  0
  4  5  1  0  0  0  0
  5  6  2  0  0  0  0
  6  1  1  0  0  0  0
  8  3  1  0  0  0  0
  9 10  1  0  0  0  0
  9 14  1  0  0  0  0
 10 16  1  0  0  0  0
 10 11  1  0  0  0  0
 11 18  1  0  0  0  0
 11 12  1  0  0  0  0
 12 19  1  0  0  0  0
 13 12  1  0  0  0  0
 13 21  1  0  0  0  0
 14 23  1  0  0  0  0
 14 13  1  0  0  0  0
 14 22  1  0  0  0  0
 15 10  1  0  0  0  0
 17 11  1  0  0  0  0
 20 13  1  0  0  0  0
 24  5  1  0  0  0  0
 24 29  1  0  0  0  0
 25 24  2  0  0  0  0
 26 25  1  0  0  0  0
 26 27  2  0  0  0  0
 27 28  1  0  0  0  0
 28 29  2  0  0  0  0
 28 32  1  0  0  0  0
 30 25  1  0  0  0  0
 31 26  1  0  0  0  0
 32 33  1  0  0  0  0
 33 34  1  0  0  0  0
 35 33  1  0  0  0  0
 35 37  1  0  0  0  0
 36 35  1  0  0  0  0
 38 39  1  0  0  0  0
 38 37  1  0  0  0  0
 40 32  1  0  0  0  0
 40 38  1  0  0  0  0
 41 40  1  0  0  0  0
M  END
>  <minimizedAffinity>
-5.8634572

$$$$

 OpenBabel03272504343D

 41 44  0  0  0  0  0  0  0  0999 V2000
   38.1730   24.6640   34.8920 C   0  0  0  0  0  0  0  0  0  0  0  0
   38.1110   23.7480   33.8590 C   0  0  0  0  0  0  0  0  0  0  0  0
   37.5540   24.1130   32.6400 C   0  0  0  0  0  0  0  0  0  0  0  0
   37.0820   25.3940   32.5130 N   0  0  0  0  0  0  0  0  0  0  0  0
   37.1580   26.2750   33.5490 C   0  0  0  0  0  0  0  0  0  0  0  0
   37.7010   25.9150   34.7350 N   0  0  0  0  0  0  0  0  0  0  0  0
   38.4980   22.7520   34.0170 H   0  0  0  0  0  0  0  0  0  0  0  0
   37.4910   23.4220   31.8170 H   0  0  0  0  0  0  0  0  0  0  0  0
   38.7320   24.3480   36.1680 N   0  0  0  0  0  0  0  0  0  0  0  0
   39.9790   23.6060   36.3000 C   0  0  0  0  0  0  0  0  0  0  0  0
   39.9790   22.5480   37.3490 C   0  0  0  0  0  0  0  0  0  0  0  0
   39.1000   22.7040   38.4460 N   0  0  0  0  0  0  0  0  0  0  0  0
   37.8460   23.3550   38.1010 C   0  0  0  0  0  0  0  0  0  0  0  0
   38.2260   24.6670   37.4440 C   0  0  0  0  0  0  0  0  0  0  0  0
   40.2020   23.1660   35.3080 H   0  0  0  0  0  0  0  0  0  0  0  0
   40.7700   24.3410   36.5040 H   0  0  0  0  0  0  0  0  0  0  0  0
   39.7760   21.5620   36.8390 H   0  0  0  0  0  0  0  0  0  0  0  0
   41.0320   22.4470   37.7270 H   0  0  0  0  0  0  0  0  0  0  0  0
   38.9110   21.7510   38.8450 H   0  0  0  0  0  0  0  0  0  0  0  0
   37.3740   22.7190   37.3180 H   0  0  0  0  0  0  0  0  0  0  0  0
   37.2270   23.4710   38.9940 H   0  0  0  0  0  0  0  0  0  0  0  0
   38.9780   25.1880   38.1030 H   0  0  0  0  0  0  0  0  0  0  0  0
   37.3200   25.3280   37.3770 H   0  0  0  0  0  0  0  0  0  0  0  0
   36.6410   27.6210   33.3550 C   0  0  0  0  0  0  0  0  0  0  0  0
   36.2560   28.3720   34.4480 C   0  0  0  0  0  0  0  0  0  0  0  0
   35.7560   29.6610   34.3290 C   0  0  0  0  0  0  0  0  0  0  0  0
   35.6670   30.1420   33.0610 N   0  0  0  0  0  0  0  0  0  0  0  0
   36.0440   29.4050   32.0110 C   0  0  0  0  0  0  0  0  0  0  0  0
   36.5360   28.1390   32.1270 N   0  0  0  0  0  0  0  0  0  0  0  0
   36.3180   28.0070   35.4680 H   0  0  0  0  0  0  0  0  0  0  0  0
   35.4540   30.2500   35.1860 H   0  0  0  0  0  0  0  0  0  0  0  0
   35.8890   30.0670   30.6870 C   0  0  0  0  0  3  0  0  0  0  0  0
   35.9260   31.5490   30.8850 C   0  0  0  0  0  3  0  0  0  0  0  0
   35.1970   32.0570   30.1910 H   0  0  0  0  0  0  0  0  0  0  0  0
   37.3470   31.9870   30.5720 C   0  0  0  0  0  3  0  0  0  0  0  0
   38.0410   31.3010   31.0760 H   0  0  0  0  0  0  0  0  0  0  0  0
   37.5020   31.8100   29.2070 O   0  0  0  0  0  0  0  0  0  0  0  0
   37.5360   30.4920   28.8150 C   0  0  0  0  0  3  0  0  0  0  0  0
   37.0220   30.4110   27.8350 H   0  0  0  0  0  0  0  0  0  0  0  0
   36.9770   29.5240   29.8030 C   0  0  0  0  0  3  0  0  0  0  0  0
   36.5160   28.6810   29.2240 H   0  0  0  0  0  0  0  0  0  0  0  0
  1  9  1  0  0  0  0
  2  7  1  0  0  0  0
  2  1  2  0  0  0  0
  3  2  1  0  0  0  0
  4  3  2  0  0  0  0
  4  5  1  0  0  0  0
  5  6  2  0  0  0  0
  6  1  1  0  0  0  0
  8  3  1  0  0  0  0
  9 10  1  0  0  0  0
  9 14  1  0  0  0  0
 10 16  1  0  0  0  0
 10 11  1  0  0  0  0
 11 18  1  0  0  0  0
 11 12  1  0  0  0  0
 12 19  1  0  0  0  0
 13 12  1  0  0  0  0
 13 21  1  0  0  0  0
 14 13  1  0  0  0  0
 14 22  1  0  0  0  0
 15 10  1  0  0  0  0
 17 11  1  0  0  0  0
 20 13  1  0  0  0  0
 23 14  1  0  0  0  0
 24  5  1  0  0  0  0
 24 25  1  0  0  0  0
 25 30  1  0  0  0  0
 26 25  2  0  0  0  0
 26 31  1  0  0  0  0
 27 26  1  0  0  0  0
 28 29  1  0  0  0  0
 28 27  2  0  0  0  0
 29 24  2  0  0  0  0
 32 33  1  0  0  0  0
 32 28  1  0  0  0  0
 34 33  1  0  0  0  0
 35 33  1  0  0  0  0
 35 36  1  0  0  0  0
 37 35  1  0  0  0  0
 38 37  1  0  0  0  0
 38 40  1  0  0  0  0
 39 38  1  0  0  0  0
 40 32  1  0  0  0  0
 41 40  1  0  0  0  0
M  END
>  <minimizedAffinity>
-5.77427816

$$$$

 OpenBabel03272504343D

 41 44  0  0  0  0  0  0  0  0999 V2000
   38.7520   22.5750   34.5380 C   0  0  0  0  0  0  0  0  0  0  0  0
   39.5270   21.8450   33.6570 C   0  0  0  0  0  0  0  0  0  0  0  0
   39.4730   22.1160   32.2950 C   0  0  0  0  0  0  0  0  0  0  0  0
   38.6350   23.1180   31.8780 N   0  0  0  0  0  0  0  0  0  0  0  0
   37.8840   23.8210   32.7710 C   0  0  0  0  0  0  0  0  0  0  0  0
   37.9400   23.5530   34.0960 N   0  0  0  0  0  0  0  0  0  0  0  0
   40.1690   21.0670   34.0430 H   0  0  0  0  0  0  0  0  0  0  0  0
   40.0640   21.5650   31.5840 H   0  0  0  0  0  0  0  0  0  0  0  0
   38.7640   22.3430   35.9470 N   0  0  0  0  0  0  0  0  0  0  0  0
   37.6290   22.6830   36.7940 C   0  0  0  0  0  0  0  0  0  0  0  0
   37.9740   23.3380   38.0850 C   0  0  0  0  0  0  0  0  0  0  0  0
   39.2480   23.0770   38.6410 N   0  0  0  0  0  0  0  0  0  0  0  0
   40.2910   22.8860   37.6450 C   0  0  0  0  0  0  0  0  0  0  0  0
   39.7960   21.7850   36.7300 C   0  0  0  0  0  0  0  0  0  0  0  0
   36.9620   23.3350   36.1960 H   0  0  0  0  0  0  0  0  0  0  0  0
   37.0760   21.7500   36.9780 H   0  0  0  0  0  0  0  0  0  0  0  0
   37.8430   24.4510   37.9490 H   0  0  0  0  0  0  0  0  0  0  0  0
   37.1800   23.0600   38.8290 H   0  0  0  0  0  0  0  0  0  0  0  0
   39.4960   23.8790   39.2710 H   0  0  0  0  0  0  0  0  0  0  0  0
   40.3190   23.8250   37.0460 H   0  0  0  0  0  0  0  0  0  0  0  0
   41.2400   22.6600   38.1360 H   0  0  0  0  0  0  0  0  0  0  0  0
   39.4520   20.9220   37.3680 H   0  0  0  0  0  0  0  0  0  0  0  0
   40.6460   21.4180   36.0940 H   0  0  0  0  0  0  0  0  0  0  0  0
   37.0130   24.8730   32.2690 C   0  0  0  0  0  0  0  0  0  0  0  0
   36.0080   24.5640   31.3740 C   0  0  0  0  0  0  0  0  0  0  0  0
   35.1450   25.5220   30.8610 C   0  0  0  0  0  0  0  0  0  0  0  0
   35.3520   26.7930   31.2950 N   0  0  0  0  0  0  0  0  0  0  0  0
   36.3290   27.0790   32.1630 C   0  0  0  0  0  0  0  0  0  0  0  0
   37.1770   26.1380   32.6680 N   0  0  0  0  0  0  0  0  0  0  0  0
   35.8270   23.5570   31.0140 H   0  0  0  0  0  0  0  0  0  0  0  0
   34.3580   25.2790   30.1590 H   0  0  0  0  0  0  0  0  0  0  0  0
   36.4320   28.5140   32.5460 C   0  0  0  0  0  3  0  0  0  0  0  0
   35.4110   29.2890   31.7760 C   0  0  0  0  0  3  0  0  0  0  0  0
   35.8260   30.2940   31.4750 H   0  0  0  0  0  0  0  0  0  0  0  0
   34.2200   29.4660   32.7020 C   0  0  0  0  0  3  0  0  0  0  0  0
   34.0000   28.4980   33.1740 H   0  0  0  0  0  0  0  0  0  0  0  0
   34.6420   30.3300   33.6980 O   0  0  0  0  0  0  0  0  0  0  0  0
   35.5690   29.7840   34.5560 C   0  0  0  0  0  3  0  0  0  0  0  0
   36.2900   30.5810   34.8360 H   0  0  0  0  0  0  0  0  0  0  0  0
   36.2710   28.5740   34.0400 C   0  0  0  0  0  3  0  0  0  0  0  0
   37.3100   28.5810   34.4650 H   0  0  0  0  0  0  0  0  0  0  0  0
  1  9  1  0  0  0  0
  2  7  1  0  0  0  0
  2  1  2  0  0  0  0
  3  2  1  0  0  0  0
  4  3  2  0  0  0  0
  4  5  1  0  0  0  0
  5  6  2  0  0  0  0
  6  1  1  0  0  0  0
  8  3  1  0  0  0  0
  9 14  1  0  0  0  0
  9 10  1  0  0  0  0
 10 16  1  0  0  0  0
 10 11  1  0  0  0  0
 11 12  1  0  0  0  0
 11 18  1  0  0  0  0
 12 19  1  0  0  0  0
 13 21  1  0  0  0  0
 13 12  1  0  0  0  0
 14 22  1  0  0  0  0
 14 13  1  0  0  0  0
 15 10  1  0  0  0  0
 17 11  1  0  0  0  0
 20 13  1  0  0  0  0
 23 14  1  0  0  0  0
 24 29  1  0  0  0  0
 24  5  1  0  0  0  0
 25 24  2  0  0  0  0
 26 27  2  0  0  0  0
 26 25  1  0  0  0  0
 27 28  1  0  0  0  0
 28 32  1  0  0  0  0
 28 29  2  0  0  0  0
 30 25  1  0  0  0  0
 31 26  1  0  0  0  0
 32 40  1  0  0  0  0
 33 32  1  0  0  0  0
 33 35  1  0  0  0  0
 34 33  1  0  0  0  0
 35 36  1  0  0  0  0
 35 37  1  0  0  0  0
 37 38  1  0  0  0  0
 38 39  1  0  0  0  0
 40 41  1  0  0  0  0
 40 38  1  0  0  0  0
M  END
>  <minimizedAffinity>
-5.69574451

$$$$

 OpenBabel03272504343D

 41 44  0  0  0  0  0  0  0  0999 V2000
   36.3300   23.0590   31.8630 C   0  0  0  0  0  0  0  0  0  0  0  0
   35.4900   23.7500   31.0100 C   0  0  0  0  0  0  0  0  0  0  0  0
   35.4560   25.1380   31.0400 C   0  0  0  0  0  0  0  0  0  0  0  0
   36.2770   25.7760   31.9340 N   0  0  0  0  0  0  0  0  0  0  0  0
   37.0960   25.0690   32.7630 C   0  0  0  0  0  0  0  0  0  0  0  0
   37.1240   23.7160   32.7290 N   0  0  0  0  0  0  0  0  0  0  0  0
   34.8650   23.1940   30.3260 H   0  0  0  0  0  0  0  0  0  0  0  0
   34.8120   25.7030   30.3880 H   0  0  0  0  0  0  0  0  0  0  0  0
   36.4090   21.6340   31.8780 N   0  0  0  0  0  0  0  0  0  0  0  0
   37.1400   20.8910   30.8610 C   0  0  0  0  0  0  0  0  0  0  0  0
   36.4520   19.6750   30.3460 C   0  0  0  0  0  0  0  0  0  0  0  0
   35.5220   19.0310   31.1940 N   0  0  0  0  0  0  0  0  0  0  0  0
   34.7890   19.9440   32.0560 C   0  0  0  0  0  0  0  0  0  0  0  0
   35.8370   20.7400   32.8080 C   0  0  0  0  0  0  0  0  0  0  0  0
   37.3510   21.5960   30.0330 H   0  0  0  0  0  0  0  0  0  0  0  0
   38.1120   20.6200   31.2990 H   0  0  0  0  0  0  0  0  0  0  0  0
   35.9480   19.9540   29.3750 H   0  0  0  0  0  0  0  0  0  0  0  0
   37.2460   18.9410   30.0400 H   0  0  0  0  0  0  0  0  0  0  0  0
   34.8530   18.4930   30.5900 H   0  0  0  0  0  0  0  0  0  0  0  0
   34.2620   20.6530   31.3770 H   0  0  0  0  0  0  0  0  0  0  0  0
   34.1110   19.3850   32.7050 H   0  0  0  0  0  0  0  0  0  0  0  0
   36.5840   20.0170   33.2450 H   0  0  0  0  0  0  0  0  0  0  0  0
   35.3530   21.2840   33.6620 H   0  0  0  0  0  0  0  0  0  0  0  0
   37.9440   25.8000   33.6910 C   0  0  0  0  0  0  0  0  0  0  0  0
   37.4280   26.2380   34.8940 C   0  0  0  0  0  0  0  0  0  0  0  0
   38.1860   26.9400   35.8200 C   0  0  0  0  0  0  0  0  0  0  0  0
   39.4780   27.1710   35.4680 N   0  0  0  0  0  0  0  0  0  0  0  0
   39.9670   26.7400   34.3000 C   0  0  0  0  0  0  0  0  0  0  0  0
   39.2220   26.0510   33.3890 N   0  0  0  0  0  0  0  0  0  0  0  0
   36.3990   26.0650   35.1930 H   0  0  0  0  0  0  0  0  0  0  0  0
   37.7800   27.2840   36.7630 H   0  0  0  0  0  0  0  0  0  0  0  0
   41.3980   27.0670   34.0560 C   0  0  0  0  0  3  0  0  0  0  0  0
   42.2390   25.9340   34.5500 C   0  0  0  0  0  3  0  0  0  0  0  0
   43.1870   26.3240   35.0210 H   0  0  0  0  0  0  0  0  0  0  0  0
   42.5650   25.0820   33.3360 C   0  0  0  0  0  3  0  0  0  0  0  0
   41.6420   24.9300   32.7600 H   0  0  0  0  0  0  0  0  0  0  0  0
   43.4220   25.8440   32.5600 O   0  0  0  0  0  0  0  0  0  0  0  0
   42.8220   26.9320   31.9690 C   0  0  0  0  0  3  0  0  0  0  0  0
   43.5550   27.7660   31.9590 H   0  0  0  0  0  0  0  0  0  0  0  0
   41.5300   27.3530   32.5850 C   0  0  0  0  0  3  0  0  0  0  0  0
   41.4530   28.4670   32.4760 H   0  0  0  0  0  0  0  0  0  0  0  0
  1  9  1  0  0  0  0
  1  6  1  0  0  0  0
  2  3  1  0  0  0  0
  2  1  2  0  0  0  0
  3  4  2  0  0  0  0
  4  5  1  0  0  0  0
  5 24  1  0  0  0  0
  6  5  2  0  0  0  0
  7  2  1  0  0  0  0
  8  3  1  0  0  0  0
  9 14  1  0  0  0  0
 10 16  1  0  0  0  0
 10  9  1  0  0  0  0
 11 10  1  0  0  0  0
 11 12  1  0  0  0  0
 12 13  1  0  0  0  0
 13 21  1  0  0  0  0
 13 14  1  0  0  0  0
 14 22  1  0  0  0  0
 14 23  1  0  0  0  0
 15 10  1  0  0  0  0
 17 11  1  0  0  0  0
 18 11  1  0  0  0  0
 19 12  1  0  0  0  0
 20 13  1  0  0  0  0
 24 25  1  0  0  0  0
 25 30  1  0  0  0  0
 25 26  2  0  0  0  0
 26 31  1  0  0  0  0
 27 26  1  0  0  0  0
 28 27  2  0  0  0  0
 29 24  2  0  0  0  0
 29 28  1  0  0  0  0
 32 28  1  0  0  0  0
 32 33  1  0  0  0  0
 33 34  1  0  0  0  0
 35 33  1  0  0  0  0
 36 35  1  0  0  0  0
 37 35  1  0  0  0  0
 38 37  1  0  0  0  0
 38 40  1  0  0  0  0
 39 38  1  0  0  0  0
 40 32  1  0  0  0  0
 41 40  1  0  0  0  0
M  END
>  <minimizedAffinity>
-5.60018635

$$$$

 OpenBabel03272504343D

 41 44  0  0  0  0  0  0  0  0999 V2000
   40.0860   22.4930   37.1260 C   0  0  0  0  0  0  0  0  0  0  0  0
   39.4760   23.1760   38.1610 C   0  0  0  0  0  0  0  0  0  0  0  0
   38.1160   23.4520   38.1060 C   0  0  0  0  0  0  0  0  0  0  0  0
   37.4230   23.0250   37.0030 N   0  0  0  0  0  0  0  0  0  0  0  0
   38.0510   22.3530   35.9970 C   0  0  0  0  0  0  0  0  0  0  0  0
   39.3760   22.0870   36.0560 N   0  0  0  0  0  0  0  0  0  0  0  0
   40.0720   23.4880   39.0060 H   0  0  0  0  0  0  0  0  0  0  0  0
   37.6130   23.9820   38.8970 H   0  0  0  0  0  0  0  0  0  0  0  0
   41.4790   22.1810   37.1250 N   0  0  0  0  0  0  0  0  0  0  0  0
   42.4820   23.1340   36.6680 C   0  0  0  0  0  0  0  0  0  0  0  0
   43.5530   22.5620   35.8060 C   0  0  0  0  0  0  0  0  0  0  0  0
   43.8610   21.1900   35.9550 N   0  0  0  0  0  0  0  0  0  0  0  0
   42.7120   20.3660   36.2900 C   0  0  0  0  0  0  0  0  0  0  0  0
   42.1040   20.9850   37.5330 C   0  0  0  0  0  0  0  0  0  0  0  0
   41.9430   23.9400   36.1320 H   0  0  0  0  0  0  0  0  0  0  0  0
   42.9220   23.5920   37.5650 H   0  0  0  0  0  0  0  0  0  0  0  0
   43.2740   22.7720   34.7320 H   0  0  0  0  0  0  0  0  0  0  0  0
   44.4820   23.1730   35.9700 H   0  0  0  0  0  0  0  0  0  0  0  0
   44.2920   20.8570   35.0580 H   0  0  0  0  0  0  0  0  0  0  0  0
   41.9800   20.5070   35.4620 H   0  0  0  0  0  0  0  0  0  0  0  0
   43.0200   19.3270   36.4200 H   0  0  0  0  0  0  0  0  0  0  0  0
   42.9280   21.1490   38.2860 H   0  0  0  0  0  0  0  0  0  0  0  0
   41.3690   20.2680   37.9870 H   0  0  0  0  0  0  0  0  0  0  0  0
   37.2650   21.9250   34.8510 C   0  0  0  0  0  0  0  0  0  0  0  0
   36.3080   20.9410   35.0040 C   0  0  0  0  0  0  0  0  0  0  0  0
   35.5260   20.4900   33.9500 C   0  0  0  0  0  0  0  0  0  0  0  0
   35.7630   21.0800   32.7480 N   0  0  0  0  0  0  0  0  0  0  0  0
   36.6920   22.0320   32.6130 C   0  0  0  0  0  0  0  0  0  0  0  0
   37.4600   22.4760   33.6490 N   0  0  0  0  0  0  0  0  0  0  0  0
   36.1050   20.4570   35.9540 H   0  0  0  0  0  0  0  0  0  0  0  0
   34.7760   19.7190   34.0700 H   0  0  0  0  0  0  0  0  0  0  0  0
   36.8350   22.5830   31.2380 C   0  0  0  0  0  3  0  0  0  0  0  0
   36.0410   23.8470   31.1440 C   0  0  0  0  0  3  0  0  0  0  0  0
   35.5530   23.9300   30.1320 H   0  0  0  0  0  0  0  0  0  0  0  0
   37.0250   24.9860   31.3520 C   0  0  0  0  0  3  0  0  0  0  0  0
   37.6590   24.7450   32.2150 H   0  0  0  0  0  0  0  0  0  0  0  0
   37.8330   24.9950   30.2280 O   0  0  0  0  0  0  0  0  0  0  0  0
   38.6860   23.9180   30.1450 C   0  0  0  0  0  3  0  0  0  0  0  0
   38.7760   23.6310   29.0770 H   0  0  0  0  0  0  0  0  0  0  0  0
   38.3090   22.7480   30.9910 C   0  0  0  0  0  3  0  0  0  0  0  0
   38.6400   21.8220   30.4500 H   0  0  0  0  0  0  0  0  0  0  0  0
  1  2  1  0  0  0  0
  2  7  1  0  0  0  0
  3  2  2  0  0  0  0
  3  8  1  0  0  0  0
  4  3  1  0  0  0  0
  5  6  1  0  0  0  0
  5  4  2  0  0  0  0
  6  1  2  0  0  0  0
  9  1  1  0  0  0  0
  9 14  1  0  0  0  0
 10  9  1  0  0  0  0
 10 16  1  0  0  0  0
 11 12  1  0  0  0  0
 11 18  1  0  0  0  0
 11 10  1  0  0  0  0
 12 13  1  0  0  0  0
 13 21  1  0  0  0  0
 13 14  1  0  0  0  0
 14 23  1  0  0  0  0
 14 22  1  0  0  0  0
 15 10  1  0  0  0  0
 17 11  1  0  0  0  0
 19 12  1  0  0  0  0
 20 13  1  0  0  0  0
 24 25  1  0  0  0  0
 24  5  1  0  0  0  0
 25 30  1  0  0  0  0
 26 31  1  0  0  0  0
 26 25  2  0  0  0  0
 27 26  1  0  0  0  0
 28 27  2  0  0  0  0
 28 29  1  0  0  0  0
 29 24  2  0  0  0  0
 32 28  1  0  0  0  0
 33 32  1  0  0  0  0
 33 35  1  0  0  0  0
 34 33  1  0  0  0  0
 35 36  1  0  0  0  0
 37 35  1  0  0  0  0
 38 37  1  0  0  0  0
 38 40  1  0  0  0  0
 39 38  1  0  0  0  0
 40 32  1  0  0  0  0
 41 40  1  0  0  0  0
M  END
>  <minimizedAffinity>
-5.58193588

$$$$

 OpenBabel03272504343D

 41 44  0  0  0  0  0  0  0  0999 V2000
   37.8120   26.4870   34.1460 C   0  0  0  0  0  0  0  0  0  0  0  0
   37.9570   26.2440   32.7930 C   0  0  0  0  0  0  0  0  0  0  0  0
   37.2630   27.0170   31.8700 C   0  0  0  0  0  0  0  0  0  0  0  0
   36.4480   28.0080   32.3530 N   0  0  0  0  0  0  0  0  0  0  0  0
   36.3250   28.2240   33.6920 C   0  0  0  0  0  0  0  0  0  0  0  0
   37.0030   27.4690   34.5870 N   0  0  0  0  0  0  0  0  0  0  0  0
   38.6130   25.4490   32.4700 H   0  0  0  0  0  0  0  0  0  0  0  0
   37.3560   26.8510   30.8100 H   0  0  0  0  0  0  0  0  0  0  0  0
   38.4970   25.7270   35.1420 N   0  0  0  0  0  0  0  0  0  0  0  0
   39.6930   24.9550   34.8340 C   0  0  0  0  0  0  0  0  0  0  0  0
   39.7440   23.5960   35.4410 C   0  0  0  0  0  0  0  0  0  0  0  0
   39.0180   23.3760   36.6340 N   0  0  0  0  0  0  0  0  0  0  0  0
   37.7830   24.1380   36.7150 C   0  0  0  0  0  0  0  0  0  0  0  0
   38.1730   25.5870   36.5070 C   0  0  0  0  0  0  0  0  0  0  0  0
   39.7620   24.8890   33.7300 H   0  0  0  0  0  0  0  0  0  0  0  0
   40.5540   25.5510   35.1680 H   0  0  0  0  0  0  0  0  0  0  0  0
   39.4100   22.8580   34.6540 H   0  0  0  0  0  0  0  0  0  0  0  0
   40.8250   23.3420   35.6110 H   0  0  0  0  0  0  0  0  0  0  0  0
   38.8110   22.3490   36.7010 H   0  0  0  0  0  0  0  0  0  0  0  0
   37.1730   23.8320   35.8330 H   0  0  0  0  0  0  0  0  0  0  0  0
   37.2860   23.9470   37.6680 H   0  0  0  0  0  0  0  0  0  0  0  0
   39.0360   25.8230   37.1940 H   0  0  0  0  0  0  0  0  0  0  0  0
   37.3160   26.2510   36.7990 H   0  0  0  0  0  0  0  0  0  0  0  0
   35.4450   29.2900   34.1460 C   0  0  0  0  0  0  0  0  0  0  0  0
   34.1730   29.4000   33.6210 C   0  0  0  0  0  0  0  0  0  0  0  0
   33.2870   30.3940   34.0130 C   0  0  0  0  0  0  0  0  0  0  0  0
   33.7530   31.2600   34.9520 N   0  0  0  0  0  0  0  0  0  0  0  0
   34.9870   31.1420   35.4530 C   0  0  0  0  0  0  0  0  0  0  0  0
   35.8580   30.1650   35.0680 N   0  0  0  0  0  0  0  0  0  0  0  0
   33.7830   28.7200   32.8710 H   0  0  0  0  0  0  0  0  0  0  0  0
   32.2900   30.4800   33.6020 H   0  0  0  0  0  0  0  0  0  0  0  0
   35.3550   32.1620   36.4720 C   0  0  0  0  0  3  0  0  0  0  0  0
   36.1030   33.2660   35.7960 C   0  0  0  0  0  3  0  0  0  0  0  0
   36.9310   33.6450   36.4610 H   0  0  0  0  0  0  0  0  0  0  0  0
   35.0910   34.3690   35.5330 C   0  0  0  0  0  3  0  0  0  0  0  0
   34.1860   33.9160   35.1070 H   0  0  0  0  0  0  0  0  0  0  0  0
   34.7580   34.8790   36.7760 O   0  0  0  0  0  0  0  0  0  0  0  0
   34.0180   34.0180   37.5530 C   0  0  0  0  0  3  0  0  0  0  0  0
   34.3370   34.1460   38.6090 H   0  0  0  0  0  0  0  0  0  0  0  0
   34.0750   32.5860   37.1390 C   0  0  0  0  0  3  0  0  0  0  0  0
   33.9880   31.9630   38.0690 H   0  0  0  0  0  0  0  0  0  0  0  0
  1  6  1  0  0  0  0
  1  9  1  0  0  0  0
  2  1  2  0  0  0  0
  3  4  2  0  0  0  0
  3  2  1  0  0  0  0
  4  5  1  0  0  0  0
  5 24  1  0  0  0  0
  5  6  2  0  0  0  0
  7  2  1  0  0  0  0
  8  3  1  0  0  0  0
  9 14  1  0  0  0  0
 10  9  1  0  0  0  0
 10 16  1  0  0  0  0
 10 11  1  0  0  0  0
 11 18  1  0  0  0  0
 11 12  1  0  0  0  0
 12 19  1  0  0  0  0
 12 13  1  0  0  0  0
 13 21  1  0  0  0  0
 14 13  1  0  0  0  0
 14 23  1  0  0  0  0
 14 22  1  0  0  0  0
 15 10  1  0  0  0  0
 17 11  1  0  0  0  0
 20 13  1  0  0  0  0
 24 29  1  0  0  0  0
 25 26  1  0  0  0  0
 25 24  2  0  0  0  0
 26 27  2  0  0  0  0
 27 28  1  0  0  0  0
 28 32  1  0  0  0  0
 29 28  2  0  0  0  0
 30 25  1  0  0  0  0
 31 26  1  0  0  0  0
 32 40  1  0  0  0  0
 33 34  1  0  0  0  0
 33 32  1  0  0  0  0
 35 33  1  0  0  0  0
 35 37  1  0  0  0  0
 36 35  1  0  0  0  0
 37 38  1  0  0  0  0
 38 39  1  0  0  0  0
 40 38  1  0  0  0  0
 40 41  1  0  0  0  0
M  END
>  <minimizedAffinity>
-5.52915049

$$$$
