
 OpenBabel03272509513D

 34 36  0  0  0  0  0  0  0  0999 V2000
   37.2890   30.3310   51.1280 C   0  0  0  0  0  0  0  0  0  0  0  0
   37.7310   31.0920   50.0230 C   0  0  0  0  0  0  0  0  0  0  0  0
   37.1740   30.8030   48.7900 C   0  0  0  0  0  0  0  0  0  0  0  0
   36.2320   29.8040   48.7060 N   0  0  0  0  0  0  0  0  0  0  0  0
   35.8420   29.1080   49.7790 C   0  0  0  0  0  0  0  0  0  0  0  0
   36.3720   29.3750   50.9830 N   0  0  0  0  0  0  0  0  0  0  0  0
   37.6800   30.5000   52.1230 H   0  0  0  0  0  0  0  0  0  0  0  0
   38.4780   31.8640   50.1640 H   0  0  0  0  0  0  0  0  0  0  0  0
   37.6220   31.5900   47.6140 C   0  0  0  0  0  3  0  0  0  0  0  0
   36.8040   31.3030   46.4080 C   0  0  0  0  0  3  0  0  0  0  0  0
   36.6140   30.2340   46.2240 H   0  0  0  0  0  0  0  0  0  0  0  0
   37.5280   31.7980   45.1700 C   0  0  0  0  0  3  0  0  0  0  0  0
   37.7460   32.8810   45.1880 H   0  0  0  0  0  0  0  0  0  0  0  0
   38.7010   31.0240   45.0800 O   0  0  0  0  0  0  0  0  0  0  0  0
   39.5720   31.5450   46.0320 C   0  0  0  0  0  3  0  0  0  0  0  0
   40.5460   31.0270   45.9190 H   0  0  0  0  0  0  0  0  0  0  0  0
   39.0910   31.3120   47.4380 C   0  0  0  0  0  3  0  0  0  0  0  0
   39.2960   30.2680   47.7510 H   0  0  0  0  0  0  0  0  0  0  0  0
   34.8980   28.1670   49.4550 O   0  0  0  0  0  0  0  0  0  0  0  0
   33.8380   28.5320   48.5840 C   0  0  0  0  0  0  0  0  0  0  0  0
   34.2770   28.8860   47.6300 H   0  0  0  0  0  0  0  0  0  0  0  0
   33.3100   29.4090   49.0100 H   0  0  0  0  0  0  0  0  0  0  0  0
   32.8840   27.3940   48.4140 C   0  0  0  0  0  0  0  0  0  0  0  0
   33.1100   26.9240   47.4180 H   0  0  0  0  0  0  0  0  0  0  0  0
   33.0490   26.6380   49.2070 H   0  0  0  0  0  0  0  0  0  0  0  0
   31.4530   27.8240   48.4310 C   0  0  0  0  0  0  0  0  0  0  0  0
   30.8250   27.8050   49.6550 C   0  0  0  0  0  0  0  0  0  0  0  0
   29.5090   28.1780   49.7990 C   0  0  0  0  0  0  0  0  0  0  0  0
   28.8210   28.5700   48.7180 N   0  0  0  0  0  0  0  0  0  0  0  0
   29.4490   28.5830   47.5290 C   0  0  0  0  0  0  0  0  0  0  0  0
   30.7320   28.2240   47.3610 N   0  0  0  0  0  0  0  0  0  0  0  0
   31.3280   27.4970   50.5750 H   0  0  0  0  0  0  0  0  0  0  0  0
   28.9760   28.1790   50.7480 H   0  0  0  0  0  0  0  0  0  0  0  0
   28.9380   28.8950   46.6070 H   0  0  0  0  0  0  0  0  0  0  0  0
  1  7  1  0  0  0  0
  2  8  1  0  0  0  0
  2  1  2  0  0  0  0
  3  2  1  0  0  0  0
  4  3  2  0  0  0  0
  4  5  1  0  0  0  0
  5  6  2  0  0  0  0
  6  1  1  0  0  0  0
  9  3  1  0  0  0  0
 10  9  1  0  0  0  0
 11 10  1  0  0  0  0
 12 13  1  0  0  0  0
 12 10  1  0  0  0  0
 14 12  1  0  0  0  0
 14 15  1  0  0  0  0
 15 17  1  0  0  0  0
 16 15  1  0  0  0  0
 17  9  1  0  0  0  0
 17 18  1  0  0  0  0
 19  5  1  0  0  0  0
 20 22  1  0  0  0  0
 20 19  1  0  0  0  0
 21 20  1  0  0  0  0
 23 26  1  0  0  0  0
 23 20  1  0  0  0  0
 23 25  1  0  0  0  0
 24 23  1  0  0  0  0
 26 27  1  0  0  0  0
 27 28  2  0  0  0  0
 27 32  1  0  0  0  0
 28 33  1  0  0  0  0
 29 28  1  0  0  0  0
 30 29  2  0  0  0  0
 31 30  1  0  0  0  0
 31 26  2  0  0  0  0
 34 30  1  0  0  0  0
M  END
>  <minimizedAffinity>
-4.91819382

>  <minimizedRMSD>
0.753200352

$$$$
