
 OpenBabel03272508493D

 41 45  0  0  0  0  0  0  0  0999 V2000
   35.5270   29.5920   49.7210 C   0  0  0  0  0  0  0  0  0  0  0  0
   36.5460   29.2530   50.5880 C   0  0  0  0  0  0  0  0  0  0  0  0
   37.6790   29.7780   49.9740 C   0  0  0  0  0  0  0  0  0  0  0  0
   37.3060   30.3880   48.8020 C   0  0  0  0  0  0  0  0  0  0  0  0
   36.0080   30.2580   48.6820 O   0  0  0  0  0  0  0  0  0  0  0  0
   36.5420   28.7180   51.5270 H   0  0  0  0  0  0  0  0  0  0  0  0
   38.6750   29.6900   50.3950 H   0  0  0  0  0  0  0  0  0  0  0  0
   38.5890   32.3560   48.0880 C   0  0  0  0  0  0  0  0  0  0  0  0
   38.1730   31.0640   47.8490 C   0  0  0  0  0  0  0  0  0  0  0  0
   38.5690   30.3780   46.6980 C   0  0  0  0  0  0  0  0  0  0  0  0
   39.3980   31.0110   45.7750 C   0  0  0  0  0  0  0  0  0  0  0  0
   39.9430   30.6280   44.5950 N   0  0  0  0  0  0  0  0  0  0  0  0
   40.6550   31.6520   44.1500 N   0  0  0  0  0  0  0  0  0  0  0  0
   40.5770   32.6740   45.0150 C   0  0  0  0  0  0  0  0  0  0  0  0
   39.7700   32.2940   46.0830 C   0  0  0  0  0  0  0  0  0  0  0  0
   39.4230   33.0230   47.1850 C   0  0  0  0  0  0  0  0  0  0  0  0
   38.2600   32.8460   48.9900 H   0  0  0  0  0  0  0  0  0  0  0  0
   38.2310   29.3620   46.5260 H   0  0  0  0  0  0  0  0  0  0  0  0
   39.8160   29.6920   44.1280 H   0  0  0  0  0  0  0  0  0  0  0  0
   41.0710   33.6480   44.8980 H   0  0  0  0  0  0  0  0  0  0  0  0
   39.7320   34.0180   47.3890 H   0  0  0  0  0  0  0  0  0  0  0  0
   34.1190   29.2490   49.9430 C   0  0  0  0  0  0  0  0  0  0  0  0
   33.5150   29.8300   50.8590 O   0  0  0  0  0  0  0  0  0  0  0  0
   31.4950   27.2230   48.4330 C   0  0  0  0  0  0  0  0  0  0  0  0
   32.2010   26.4110   47.5400 C   0  0  0  0  0  0  0  0  0  0  0  0
   33.5820   26.5480   47.4460 C   0  0  0  0  0  0  0  0  0  0  0  0
   34.1740   27.4650   48.2270 N   0  0  0  0  0  0  0  0  0  0  0  0
   33.4830   28.2500   49.0910 C   0  0  0  0  0  0  0  0  0  0  0  0
   32.1440   28.1110   49.1760 N   0  0  0  0  0  0  0  0  0  0  0  0
   30.4220   27.1220   48.5110 H   0  0  0  0  0  0  0  0  0  0  0  0
   31.6510   25.6900   46.9400 H   0  0  0  0  0  0  0  0  0  0  0  0
   34.3420   25.6890   46.4990 C   0  0  0  0  0  0  0  0  0  0  0  0
   33.9030   26.0170   45.1050 C   0  0  0  0  0  0  0  0  0  0  0  0
   32.8920   26.5140   45.1340 H   0  0  0  0  0  0  0  0  0  0  0  0
   33.7940   24.8770   44.1630 C   0  0  0  0  0  0  0  0  0  0  0  0
   34.1420   25.1600   43.1420 H   0  0  0  0  0  0  0  0  0  0  0  0
   34.5110   23.7780   44.6400 O   0  0  0  0  0  0  0  0  0  0  0  0
   33.7980   23.3460   45.7750 C   0  0  0  0  0  0  0  0  0  0  0  0
   32.7090   23.4290   45.6300 H   0  0  0  0  0  0  0  0  0  0  0  0
   34.1860   24.2740   46.9000 C   0  0  0  0  0  0  0  0  0  0  0  0
   33.3810   24.1550   47.6790 H   0  0  0  0  0  0  0  0  0  0  0  0
  1 22  1  0  0  0  0
  1  2  2  0  0  0  0
  2  6  1  0  0  0  0
  3  7  1  0  0  0  0
  3  2  1  0  0  0  0
  4  3  2  0  0  0  0
  5  4  1  0  0  0  0
  5  1  1  0  0  0  0
  8 17  1  0  0  0  0
  9  8  1  0  0  0  0
  9  4  1  0  0  0  0
 10  9  2  0  0  0  0
 11 15  2  0  0  0  0
 11 10  1  0  0  0  0
 12 11  1  0  0  0  0
 13 12  1  0  0  0  0
 13 14  2  0  0  0  0
 14 15  1  0  0  0  0
 15 16  1  0  0  0  0
 16 21  1  0  0  0  0
 16  8  2  0  0  0  0
 18 10  1  0  0  0  0
 19 12  1  0  0  0  0
 20 14  1  0  0  0  0
 22 23  2  0  0  0  0
 24 30  1  0  0  0  0
 24 29  1  0  0  0  0
 25 24  2  0  0  0  0
 26 25  1  0  0  0  0
 26 27  2  0  0  0  0
 27 28  1  0  0  0  0
 28 29  2  0  0  0  0
 28 22  1  0  0  0  0
 31 25  1  0  0  0  0
 32 40  1  0  0  0  0
 32 26  1  0  0  0  0
 33 34  1  0  0  0  0
 33 32  1  0  0  0  0
 35 37  1  0  0  0  0
 35 33  1  0  0  0  0
 36 35  1  0  0  0  0
 37 38  1  0  0  0  0
 38 40  1  0  0  0  0
 39 38  1  0  0  0  0
 40 41  1  0  0  0  0
M  END
>  <minimizedAffinity>
-6.67396164

>  <minimizedRMSD>
0.636085153

$$$$
