
 OpenBabel03262521333D

 26 28  0  0  1  0  0  0  0  0999 V2000
   38.1670   30.5260   47.3940 C   0  0  1  0  0  0  0  0  0  0  0  0
   37.5510   31.3780   46.4060 C   0  0  0  0  0  0  0  0  0  0  0  0
   38.6690   31.9700   47.2730 C   0  0  2  0  0  0  0  0  0  0  0  0
   38.9260   29.7500   47.1050 H   0  0  0  0  0  0  0  0  0  0  0  0
   36.5540   31.8210   46.6300 H   0  0  0  0  0  0  0  0  0  0  0  0
   37.7150   31.2380   45.3240 H   0  0  0  0  0  0  0  0  0  0  0  0
   38.4000   32.6780   48.0600 H   0  0  0  0  0  0  0  0  0  0  0  0
   39.9020   32.2670   46.5030 C   0  0  0  0  0  0  0  0  0  0  0  0
   39.7220   33.3640   45.4840 C   0  0  0  0  0  0  0  0  0  0  0  0
   39.1660   34.2380   45.9030 H   0  0  0  0  0  0  0  0  0  0  0  0
   38.9390   32.9040   44.2980 C   0  0  0  0  0  0  0  0  0  0  0  0
   38.8760   33.7680   43.6050 H   0  0  0  0  0  0  0  0  0  0  0  0
   39.5270   31.8640   43.6110 O   0  0  0  0  0  0  0  0  0  0  0  0
   40.5870   31.2860   44.2920 C   0  0  0  0  0  0  0  0  0  0  0  0
   41.5120   31.8580   44.2340 H   0  0  0  0  0  0  0  0  0  0  0  0
   40.2860   31.0160   45.7330 C   0  0  0  0  0  0  0  0  0  0  0  0
   41.2140   30.5680   46.1730 H   0  0  0  0  0  0  0  0  0  0  0  0
   37.5080   30.5200   51.0770 C   0  0  0  0  0  0  0  0  0  0  0  0
   38.1170   30.7970   49.8420 C   0  0  0  0  0  0  0  0  0  0  0  0
   37.5230   30.2480   48.6950 C   0  0  0  0  0  0  0  0  0  0  0  0
   36.3890   29.4770   48.8530 N   0  0  0  0  0  0  0  0  0  0  0  0
   35.8480   29.2440   50.0520 C   0  0  0  0  0  0  0  0  0  0  0  0
   36.4030   29.7620   51.1630 N   0  0  0  0  0  0  0  0  0  0  0  0
   37.9290   30.9220   51.9930 H   0  0  0  0  0  0  0  0  0  0  0  0
   39.0060   31.4090   49.7930 H   0  0  0  0  0  0  0  0  0  0  0  0
   34.9650   28.6290   50.0520 H   0  0  0  0  0  0  0  0  0  0  0  0
  1  4  1  6  0  0  0
  1 20  1  0  0  0  0
  2  5  1  0  0  0  0
  2  3  1  0  0  0  0
  2  1  1  0  0  0  0
  3  1  1  0  0  0  0
  3  7  1  1  0  0  0
  6  2  1  0  0  0  0
  8  3  1  0  0  0  0
  9 10  1  0  0  0  0
  9  8  1  0  0  0  0
 11  9  1  0  0  0  0
 12 11  1  0  0  0  0
 13 14  1  0  0  0  0
 13 11  1  0  0  0  0
 14 16  1  0  0  0  0
 15 14  1  0  0  0  0
 16 17  1  0  0  0  0
 16  8  1  0  0  0  0
 18 23  1  0  0  0  0
 18 24  1  0  0  0  0
 19 18  2  0  0  0  0
 20 21  2  0  0  0  0
 20 19  1  0  0  0  0
 21 22  1  0  0  0  0
 22 26  1  0  0  0  0
 22 23  2  0  0  0  0
 25 19  1  0  0  0  0
M  END
>  <minimizedAffinity>
-5.43611526

>  <minimizedRMSD>
1.35417581

$$$$
