
 OpenBabel03272507343D

 37 40  0  0  1  0  0  0  0  0999 V2000
   32.9760   29.3140   46.4330 C   0  0  0  0  0  0  0  0  0  0  0  0
   32.6730   28.3080   45.7180 O   0  0  0  0  0  0  0  0  0  0  0  0
   35.2860   29.4770   49.1560 C   0  0  0  0  0  0  0  0  0  0  0  0
   34.7250   28.2530   49.4330 C   0  0  0  0  0  0  0  0  0  0  0  0
   33.7580   27.9990   48.4440 C   0  0  0  0  0  0  0  0  0  0  0  0
   33.8020   29.1030   47.6240 C   0  0  0  0  0  0  0  0  0  0  0  0
   34.7070   29.9430   48.0750 O   0  0  0  0  0  0  0  0  0  0  0  0
   34.8970   27.5300   50.2170 H   0  0  0  0  0  0  0  0  0  0  0  0
   33.0910   27.1470   48.2980 H   0  0  0  0  0  0  0  0  0  0  0  0
   36.3330   30.0570   49.9840 C   0  0  0  0  0  0  0  0  0  0  0  0
   36.4230   29.7180   51.1730 O   0  0  0  0  0  0  0  0  0  0  0  0
   37.2100   31.0030   49.3520 C   0  0  0  0  0  0  0  0  0  0  0  0
   37.2370   32.2920   49.8670 C   0  0  0  0  0  0  0  0  0  0  0  0
   38.0780   33.2370   49.2700 C   0  0  0  0  0  0  0  0  0  0  0  0
   38.8330   32.8310   48.2000 N   0  0  0  0  0  0  0  0  0  0  0  0
   38.7890   31.5870   47.7260 C   0  0  0  0  0  0  0  0  0  0  0  0
   37.9840   30.6690   48.2910 N   0  0  0  0  0  0  0  0  0  0  0  0
   36.6190   32.5710   50.7200 H   0  0  0  0  0  0  0  0  0  0  0  0
   38.0810   34.2190   49.6840 H   0  0  0  0  0  0  0  0  0  0  0  0
   39.4030   31.3100   46.8800 H   0  0  0  0  0  0  0  0  0  0  0  0
   32.5030   30.6760   46.0540 C   0  0  1  0  0  0  0  0  0  0  0  0
   32.5570   30.8620   44.4860 C   0  0  0  0  0  0  0  0  0  0  0  0
   31.3130   30.9260   45.2730 C   0  0  1  0  0  0  0  0  0  0  0  0
   33.1230   31.4810   46.5030 H   0  0  0  0  0  0  0  0  0  0  0  0
   32.9940   31.7960   44.1110 H   0  0  0  0  0  0  0  0  0  0  0  0
   32.8120   29.9730   43.8970 H   0  0  0  0  0  0  0  0  0  0  0  0
   30.8880   31.9740   45.4000 H   0  0  0  0  0  0  0  0  0  0  0  0
   30.2570   29.9640   44.9100 C   0  0  0  0  0  0  0  0  0  0  0  0
   29.2470   29.7230   46.0270 C   0  0  0  0  0  0  0  0  0  0  0  0
   29.0800   28.6540   46.2200 H   0  0  0  0  0  0  0  0  0  0  0  0
   27.8940   30.3000   45.5890 C   0  0  0  0  0  0  0  0  0  0  0  0
   27.1680   30.1710   46.4050 H   0  0  0  0  0  0  0  0  0  0  0  0
   28.0810   31.6490   45.2950 O   0  0  0  0  0  0  0  0  0  0  0  0
   28.7040   31.7430   44.0500 C   0  0  0  0  0  0  0  0  0  0  0  0
   29.3760   32.6190   43.9770 H   0  0  0  0  0  0  0  0  0  0  0  0
   29.4840   30.4940   43.7190 C   0  0  0  0  0  0  0  0  0  0  0  0
   28.8690   29.7320   43.2150 H   0  0  0  0  0  0  0  0  0  0  0  0
  1  6  1  0  0  0  0
  2  1  2  0  0  0  0
  3  4  2  0  0  0  0
  3 10  1  0  0  0  0
  4  8  1  0  0  0  0
  5  4  1  0  0  0  0
  6  7  1  0  0  0  0
  6  5  2  0  0  0  0
  7  3  1  0  0  0  0
  9  5  1  0  0  0  0
 10 11  2  0  0  0  0
 12 13  1  0  0  0  0
 12 10  1  0  0  0  0
 13 18  1  0  0  0  0
 14 19  1  0  0  0  0
 14 13  2  0  0  0  0
 15 14  1  0  0  0  0
 16 15  2  0  0  0  0
 16 17  1  0  0  0  0
 17 12  2  0  0  0  0
 20 16  1  0  0  0  0
 21  1  1  0  0  0  0
 21 24  1  1  0  0  0
 22 23  1  0  0  0  0
 22 21  1  0  0  0  0
 23 27  1  1  0  0  0
 23 21  1  0  0  0  0
 25 22  1  0  0  0  0
 26 22  1  0  0  0  0
 28 23  1  0  0  0  0
 28 29  1  0  0  0  0
 29 30  1  0  0  0  0
 31 29  1  0  0  0  0
 31 32  1  0  0  0  0
 33 31  1  0  0  0  0
 34 33  1  0  0  0  0
 35 34  1  0  0  0  0
 36 34  1  0  0  0  0
 36 28  1  0  0  0  0
 37 36  1  0  0  0  0
M  END
>  <minimizedAffinity>
-5.4300766

>  <minimizedRMSD>
4.19465637

$$$$
