
 OpenBabel03272504543D

 26 28  0  0  0  0  0  0  0  0999 V2000
   37.1770   31.3210   49.1960 C   0  0  0  0  0  0  0  0  0  0  0  0
   37.3320   32.5970   49.7620 C   0  0  0  0  0  0  0  0  0  0  0  0
   38.2950   33.4100   49.1880 C   0  0  0  0  0  0  0  0  0  0  0  0
   39.0320   32.9540   48.1300 N   0  0  0  0  0  0  0  0  0  0  0  0
   38.8520   31.7050   47.6060 C   0  0  0  0  0  0  0  0  0  0  0  0
   37.9150   30.8910   48.1520 N   0  0  0  0  0  0  0  0  0  0  0  0
   36.7390   32.9200   50.5880 H   0  0  0  0  0  0  0  0  0  0  0  0
   38.4720   34.4090   49.5700 H   0  0  0  0  0  0  0  0  0  0  0  0
   39.6860   31.2750   46.4560 C   0  0  0  0  0  0  0  0  0  0  0  0
   38.8250   30.4270   45.5600 C   0  0  0  0  0  0  0  0  0  0  0  0
   38.7000   29.4450   46.0540 H   0  0  0  0  0  0  0  0  0  0  0  0
   39.3770   30.2720   44.1640 C   0  0  0  0  0  0  0  0  0  0  0  0
   39.6770   29.2110   44.0350 H   0  0  0  0  0  0  0  0  0  0  0  0
   40.5030   31.0640   43.9520 O   0  0  0  0  0  0  0  0  0  0  0  0
   40.2580   32.3930   44.2680 C   0  0  0  0  0  0  0  0  0  0  0  0
   41.1890   32.9530   43.9800 H   0  0  0  0  0  0  0  0  0  0  0  0
   40.1060   32.5680   45.7530 C   0  0  0  0  0  0  0  0  0  0  0  0
   41.0640   32.8660   46.2450 H   0  0  0  0  0  0  0  0  0  0  0  0
   36.1150   30.4250   49.7900 C   0  0  0  0  0  0  0  0  0  0  0  0
   36.1620   28.9820   49.5970 C   0  0  0  0  0  0  0  0  0  0  0  0
   36.6620   29.5340   50.9000 C   0  0  0  0  0  0  0  0  0  0  0  0
   35.1260   30.9110   50.0280 H   0  0  0  0  0  0  0  0  0  0  0  0
   35.2630   28.3710   49.5440 H   0  0  0  0  0  0  0  0  0  0  0  0
   36.9970   28.6030   48.9360 H   0  0  0  0  0  0  0  0  0  0  0  0
   37.7290   29.5750   51.1540 H   0  0  0  0  0  0  0  0  0  0  0  0
   35.9890   29.3600   51.7470 H   0  0  0  0  0  0  0  0  0  0  0  0
  1  2  1  0  0  0  0
  1 19  1  0  0  0  0
  2  7  1  0  0  0  0
  3  8  1  0  0  0  0
  3  2  2  0  0  0  0
  4  3  1  0  0  0  0
  5  4  2  0  0  0  0
  5  6  1  0  0  0  0
  6  1  2  0  0  0  0
  9  5  1  0  0  0  0
 10 11  1  0  0  0  0
 10  9  1  0  0  0  0
 12 10  1  0  0  0  0
 13 12  1  0  0  0  0
 14 12  1  0  0  0  0
 14 15  1  0  0  0  0
 15 17  1  0  0  0  0
 16 15  1  0  0  0  0
 17 18  1  0  0  0  0
 17  9  1  0  0  0  0
 19 22  1  0  0  0  0
 19 21  1  0  0  0  0
 20 19  1  0  0  0  0
 20 21  1  0  0  0  0
 21 25  1  0  0  0  0
 21 26  1  0  0  0  0
 23 20  1  0  0  0  0
 24 20  1  0  0  0  0
M  END
>  <minimizedAffinity>
-5.78564024

>  <minimizedRMSD>
1.45884168

$$$$
