
 OpenBabel03272502363D

 37 39  0  0  1  0  0  0  0  0999 V2000
   36.4120   27.9790   34.6250 C   0  0  0  0  0  3  0  0  0  0  0  0
   35.9570   28.7330   33.6780 C   0  0  0  0  0  3  0  0  0  0  0  0
   39.2190   26.1110   33.0420 C   0  0  0  0  0  0  0  0  0  0  0  0
   38.2640   27.0710   33.3350 C   0  0  0  0  0  0  0  0  0  0  0  0
   37.3900   26.9500   34.3840 C   0  0  0  0  0  0  0  0  0  0  0  0
   37.4990   25.8270   35.1460 N   0  0  0  0  0  0  0  0  0  0  0  0
   38.4200   24.9080   34.8580 C   0  0  0  0  0  0  0  0  0  0  0  0
   39.2760   25.0230   33.8310 N   0  0  0  0  0  0  0  0  0  0  0  0
   39.9230   26.1730   32.2230 H   0  0  0  0  0  0  0  0  0  0  0  0
   38.3150   27.8930   32.6380 H   0  0  0  0  0  0  0  0  0  0  0  0
   38.4870   23.7030   35.7300 C   0  0  0  0  0  3  0  0  0  0  0  0
   37.5330   23.7610   36.8840 C   0  0  0  0  0  3  0  0  0  0  0  0
   36.9660   22.8250   36.9620 H   0  0  0  0  0  0  0  0  0  0  0  0
   38.3200   24.0560   38.1400 C   0  0  0  0  0  3  0  0  0  0  0  0
   38.8560   25.0080   38.0040 H   0  0  0  0  0  0  0  0  0  0  0  0
   39.2390   23.0570   38.4500 O   0  0  0  0  0  0  0  0  0  0  0  0
   39.9630   22.6250   37.3600 C   0  0  0  0  0  3  0  0  0  0  0  0
   41.0100   22.4520   37.6550 H   0  0  0  0  0  0  0  0  0  0  0  0
   39.9340   23.6310   36.2310 C   0  0  0  0  0  3  0  0  0  0  0  0
   40.2550   24.6240   36.5670 H   0  0  0  0  0  0  0  0  0  0  0  0
   34.9260   29.7650   34.0400 C   0  0  1  0  0  0  0  0  0  0  0  0
   34.4650   29.5070   35.0110 H   0  0  0  0  0  0  0  0  0  0  0  0
   35.5570   31.0960   34.0650 C   0  0  0  0  0  0  0  0  0  0  0  0
   35.8470   31.5580   35.3750 C   0  0  0  0  0  0  0  0  0  0  0  0
   36.4340   32.7680   35.6450 C   0  0  0  0  0  0  0  0  0  0  0  0
   36.7890   33.6410   34.6020 C   0  0  0  0  0  0  0  0  0  0  0  0
   36.4730   33.1140   33.3550 C   0  0  0  0  0  0  0  0  0  0  0  0
   35.9000   31.9380   33.0660 N   0  0  0  0  0  0  0  0  0  0  0  0
   35.6690   31.0650   36.3460 H   0  0  0  0  0  0  0  0  0  0  0  0
   36.6780   33.1730   36.6160 H   0  0  0  0  0  0  0  0  0  0  0  0
   37.2450   34.6020   34.6290 H   0  0  0  0  0  0  0  0  0  0  0  0
   36.6870   33.6750   32.4430 H   0  0  0  0  0  0  0  0  0  0  0  0
   33.7200   29.8080   32.6690 S   0  0  0  0  0  0  0  0  0  0  0  0
   32.1450   29.1450   33.1800 C   0  0  0  0  0  0  0  0  0  0  0  0
   31.0880   30.0140   32.9610 F   0  0  0  0  0  0  0  0  0  0  0  0
   31.9130   27.9020   32.6160 F   0  0  0  0  0  0  0  0  0  0  0  0
   32.2430   28.9270   34.5710 F   0  0  0  0  0  0  0  0  0  0  0  0
  2 21  1  0  0  0  0
  2  1  2  0  0  0  0
  3  4  2  0  0  0  0
  3  8  1  0  0  0  0
  4  5  1  0  0  0  0
  5  1  1  0  0  0  0
  5  6  2  0  0  0  0
  7  6  1  0  0  0  0
  7 11  1  0  0  0  0
  8  7  2  0  0  0  0
  9  3  1  0  0  0  0
 10  4  1  0  0  0  0
 11 19  1  0  0  0  0
 11 12  1  0  0  0  0
 12 13  1  0  0  0  0
 12 14  1  0  0  0  0
 14 16  1  0  0  0  0
 15 14  1  0  0  0  0
 17 18  1  0  0  0  0
 17 16  1  0  0  0  0
 19 20  1  0  0  0  0
 19 17  1  0  0  0  0
 21 23  1  0  0  0  0
 21 22  1  1  0  0  0
 23 24  1  0  0  0  0
 24 25  2  0  0  0  0
 24 29  1  0  0  0  0
 25 30  1  0  0  0  0
 26 31  1  0  0  0  0
 26 25  1  0  0  0  0
 27 26  2  0  0  0  0
 28 27  1  0  0  0  0
 28 23  2  0  0  0  0
 32 27  1  0  0  0  0
 33 34  1  0  0  0  0
 33 21  1  0  0  0  0
 34 37  1  0  0  0  0
 35 34  1  0  0  0  0
 36 34  1  0  0  0  0
M  END
>  <minimizedAffinity>
-5.74750519

$$$$

 OpenBabel03272502363D

 37 39  0  0  1  0  0  0  0  0999 V2000
   37.7910   26.5070   32.6880 C   0  0  0  0  0  3  0  0  0  0  0  0
   37.3970   25.5300   33.4370 C   0  0  0  0  0  3  0  0  0  0  0  0
   36.5070   29.7670   31.4200 C   0  0  0  0  0  0  0  0  0  0  0  0
   37.1360   28.5360   31.5140 C   0  0  0  0  0  0  0  0  0  0  0  0
   37.1020   27.7720   32.6520 C   0  0  0  0  0  0  0  0  0  0  0  0
   36.4100   28.2790   33.7090 N   0  0  0  0  0  0  0  0  0  0  0  0
   35.8080   29.4620   33.6110 C   0  0  0  0  0  0  0  0  0  0  0  0
   35.8400   30.2120   32.4990 N   0  0  0  0  0  0  0  0  0  0  0  0
   36.5130   30.3950   30.5400 H   0  0  0  0  0  0  0  0  0  0  0  0
   37.6340   28.2840   30.5910 H   0  0  0  0  0  0  0  0  0  0  0  0
   35.0680   29.9600   34.8040 C   0  0  0  0  0  3  0  0  0  0  0  0
   33.7250   30.5320   34.4630 C   0  0  0  0  0  3  0  0  0  0  0  0
   32.9530   30.1220   35.1260 H   0  0  0  0  0  0  0  0  0  0  0  0
   33.8120   32.0380   34.5520 C   0  0  0  0  0  3  0  0  0  0  0  0
   34.5940   32.3880   33.8600 H   0  0  0  0  0  0  0  0  0  0  0  0
   34.1070   32.4880   35.8360 O   0  0  0  0  0  0  0  0  0  0  0  0
   35.1210   31.7790   36.4430 C   0  0  0  0  0  3  0  0  0  0  0  0
   35.7690   32.4680   37.0080 H   0  0  0  0  0  0  0  0  0  0  0  0
   35.9650   31.0310   35.4350 C   0  0  0  0  0  3  0  0  0  0  0  0
   36.3440   31.6980   34.6520 H   0  0  0  0  0  0  0  0  0  0  0  0
   38.1820   24.2490   33.3830 C   0  0  1  0  0  0  0  0  0  0  0  0
   39.0810   24.3880   32.7570 H   0  0  0  0  0  0  0  0  0  0  0  0
   38.5230   23.8280   34.7530 C   0  0  0  0  0  0  0  0  0  0  0  0
   37.9580   24.6600   35.7550 C   0  0  0  0  0  0  0  0  0  0  0  0
   38.1380   24.4650   37.1010 C   0  0  0  0  0  0  0  0  0  0  0  0
   38.9180   23.3930   37.5710 C   0  0  0  0  0  0  0  0  0  0  0  0
   39.4310   22.6290   36.5280 C   0  0  0  0  0  0  0  0  0  0  0  0
   39.2710   22.8010   35.2100 N   0  0  0  0  0  0  0  0  0  0  0  0
   37.3170   25.5510   35.6440 H   0  0  0  0  0  0  0  0  0  0  0  0
   37.7370   25.0600   37.9060 H   0  0  0  0  0  0  0  0  0  0  0  0
   39.1590   23.0960   38.5630 H   0  0  0  0  0  0  0  0  0  0  0  0
   40.0590   21.7600   36.7330 H   0  0  0  0  0  0  0  0  0  0  0  0
   37.0530   22.9680   32.7330 S   0  0  0  0  0  0  0  0  0  0  0  0
   36.1170   23.5840   31.3440 C   0  0  0  0  0  0  0  0  0  0  0  0
   35.0570   24.3950   31.7160 F   0  0  0  0  0  0  0  0  0  0  0  0
   36.9370   24.2040   30.4170 F   0  0  0  0  0  0  0  0  0  0  0  0
   35.5860   22.4500   30.6930 F   0  0  0  0  0  0  0  0  0  0  0  0
  1  2  2  0  0  0  0
  3  4  2  0  0  0  0
  3  8  1  0  0  0  0
  4  5  1  0  0  0  0
  5  1  1  0  0  0  0
  5  6  2  0  0  0  0
  7  6  1  0  0  0  0
  7 11  1  0  0  0  0
  8  7  2  0  0  0  0
  9  3  1  0  0  0  0
 10  4  1  0  0  0  0
 11 19  1  0  0  0  0
 12 14  1  0  0  0  0
 12 11  1  0  0  0  0
 12 13  1  0  0  0  0
 14 16  1  0  0  0  0
 15 14  1  0  0  0  0
 16 17  1  0  0  0  0
 17 18  1  0  0  0  0
 19 17  1  0  0  0  0
 20 19  1  0  0  0  0
 21 22  1  6  0  0  0
 21  2  1  0  0  0  0
 21 23  1  0  0  0  0
 23 28  2  0  0  0  0
 23 24  1  0  0  0  0
 24 25  2  0  0  0  0
 25 26  1  0  0  0  0
 25 30  1  0  0  0  0
 26 31  1  0  0  0  0
 27 32  1  0  0  0  0
 27 26  2  0  0  0  0
 28 27  1  0  0  0  0
 29 24  1  0  0  0  0
 33 21  1  0  0  0  0
 34 35  1  0  0  0  0
 34 33  1  0  0  0  0
 36 34  1  0  0  0  0
 37 34  1  0  0  0  0
M  END
>  <minimizedAffinity>
-5.6868577

$$$$

 OpenBabel03272502363D

 37 39  0  0  1  0  0  0  0  0999 V2000
   35.8850   29.9360   33.8100 C   0  0  0  0  0  3  0  0  0  0  0  0
   35.8100   28.6910   33.4690 C   0  0  0  0  0  3  0  0  0  0  0  0
   34.9180   31.9910   36.7630 C   0  0  0  0  0  0  0  0  0  0  0  0
   35.6270   31.4300   35.7130 C   0  0  0  0  0  0  0  0  0  0  0  0
   35.0870   30.4900   34.8730 C   0  0  0  0  0  0  0  0  0  0  0  0
   33.7990   30.1220   35.1140 N   0  0  0  0  0  0  0  0  0  0  0  0
   33.1230   30.6660   36.1240 C   0  0  0  0  0  0  0  0  0  0  0  0
   33.6490   31.5850   36.9480 N   0  0  0  0  0  0  0  0  0  0  0  0
   35.3110   32.7330   37.4430 H   0  0  0  0  0  0  0  0  0  0  0  0
   36.6270   31.8320   35.6620 H   0  0  0  0  0  0  0  0  0  0  0  0
   31.7180   30.2200   36.3330 C   0  0  0  0  0  3  0  0  0  0  0  0
   31.6050   29.0650   37.2810 C   0  0  0  0  0  3  0  0  0  0  0  0
   30.8300   29.2600   38.0330 H   0  0  0  0  0  0  0  0  0  0  0  0
   31.3180   27.8160   36.4790 C   0  0  0  0  0  3  0  0  0  0  0  0
   32.1320   27.6700   35.7520 H   0  0  0  0  0  0  0  0  0  0  0  0
   30.1050   27.8760   35.7990 O   0  0  0  0  0  0  0  0  0  0  0  0
   29.8990   29.0770   35.1560 C   0  0  0  0  0  3  0  0  0  0  0  0
   29.4290   28.8970   34.1760 H   0  0  0  0  0  0  0  0  0  0  0  0
   31.1930   29.8310   34.9460 C   0  0  0  0  0  3  0  0  0  0  0  0
   31.9400   29.2150   34.4310 H   0  0  0  0  0  0  0  0  0  0  0  0
   36.6780   28.2240   32.3330 C   0  0  1  0  0  0  0  0  0  0  0  0
   37.7410   28.2910   32.6250 H   0  0  0  0  0  0  0  0  0  0  0  0
   36.2930   26.8530   31.9590 C   0  0  0  0  0  0  0  0  0  0  0  0
   37.1230   25.8570   32.5360 C   0  0  0  0  0  0  0  0  0  0  0  0
   36.9570   24.5110   32.3290 C   0  0  0  0  0  0  0  0  0  0  0  0
   35.9200   24.0340   31.5070 C   0  0  0  0  0  0  0  0  0  0  0  0
   35.1560   25.0720   30.9830 C   0  0  0  0  0  0  0  0  0  0  0  0
   35.2990   26.3900   31.1690 N   0  0  0  0  0  0  0  0  0  0  0  0
   37.9890   25.9720   33.2080 H   0  0  0  0  0  0  0  0  0  0  0  0
   37.5530   23.7090   32.7390 H   0  0  0  0  0  0  0  0  0  0  0  0
   35.6490   23.0410   31.2410 H   0  0  0  0  0  0  0  0  0  0  0  0
   34.3120   24.8620   30.3240 H   0  0  0  0  0  0  0  0  0  0  0  0
   36.2670   29.2710   30.8930 S   0  0  0  0  0  0  0  0  0  0  0  0
   37.6460   29.3770   29.7650 C   0  0  0  0  0  0  0  0  0  0  0  0
   37.3520   28.9050   28.4960 F   0  0  0  0  0  0  0  0  0  0  0  0
   38.1710   30.6570   29.7290 F   0  0  0  0  0  0  0  0  0  0  0  0
   38.6610   28.5580   30.3060 F   0  0  0  0  0  0  0  0  0  0  0  0
  1  5  1  0  0  0  0
  2  1  2  0  0  0  0
  3  8  1  0  0  0  0
  3  9  1  0  0  0  0
  4  3  2  0  0  0  0
  5  6  2  0  0  0  0
  5  4  1  0  0  0  0
  6  7  1  0  0  0  0
  7 11  1  0  0  0  0
  7  8  2  0  0  0  0
 10  4  1  0  0  0  0
 11 12  1  0  0  0  0
 12 13  1  0  0  0  0
 14 12  1  0  0  0  0
 15 14  1  0  0  0  0
 16 14  1  0  0  0  0
 17 16  1  0  0  0  0
 18 17  1  0  0  0  0
 19 17  1  0  0  0  0
 19 11  1  0  0  0  0
 20 19  1  0  0  0  0
 21 22  1  1  0  0  0
 21  2  1  0  0  0  0
 23 21  1  0  0  0  0
 23 24  1  0  0  0  0
 24 29  1  0  0  0  0
 25 24  2  0  0  0  0
 25 30  1  0  0  0  0
 26 25  1  0  0  0  0
 27 28  1  0  0  0  0
 27 26  2  0  0  0  0
 28 23  2  0  0  0  0
 31 26  1  0  0  0  0
 32 27  1  0  0  0  0
 33 21  1  0  0  0  0
 34 37  1  0  0  0  0
 34 33  1  0  0  0  0
 35 34  1  0  0  0  0
 36 34  1  0  0  0  0
M  END
>  <minimizedAffinity>
-5.65660048

$$$$

 OpenBabel03272502363D

 37 39  0  0  1  0  0  0  0  0999 V2000
   37.1220   27.0110   33.7720 C   0  0  0  0  0  3  0  0  0  0  0  0
   36.8460   28.2630   33.9400 C   0  0  0  0  0  3  0  0  0  0  0  0
   40.7510   26.6990   34.5560 C   0  0  0  0  0  0  0  0  0  0  0  0
   39.5140   27.1950   34.1740 C   0  0  0  0  0  0  0  0  0  0  0  0
   38.3730   26.4370   34.1970 C   0  0  0  0  0  0  0  0  0  0  0  0
   38.5010   25.1490   34.6200 N   0  0  0  0  0  0  0  0  0  0  0  0
   39.6920   24.6790   34.9860 C   0  0  0  0  0  0  0  0  0  0  0  0
   40.8110   25.4190   34.9640 N   0  0  0  0  0  0  0  0  0  0  0  0
   41.6700   27.2680   34.5500 H   0  0  0  0  0  0  0  0  0  0  0  0
   39.5890   28.2280   33.8690 H   0  0  0  0  0  0  0  0  0  0  0  0
   39.7640   23.2630   35.4400 C   0  0  0  0  0  3  0  0  0  0  0  0
   38.9540   23.0010   36.6730 C   0  0  0  0  0  3  0  0  0  0  0  0
   38.3300   22.1080   36.5400 H   0  0  0  0  0  0  0  0  0  0  0  0
   39.8990   22.8650   37.8440 C   0  0  0  0  0  3  0  0  0  0  0  0
   40.4890   23.7910   37.9310 H   0  0  0  0  0  0  0  0  0  0  0  0
   40.7680   21.7840   37.7170 O   0  0  0  0  0  0  0  0  0  0  0  0
   41.3280   21.6800   36.4630 C   0  0  0  0  0  3  0  0  0  0  0  0
   42.3850   21.3840   36.5520 H   0  0  0  0  0  0  0  0  0  0  0  0
   41.2490   22.9840   35.7020 C   0  0  0  0  0  3  0  0  0  0  0  0
   41.6810   23.8130   36.2750 H   0  0  0  0  0  0  0  0  0  0  0  0
   35.5160   28.7580   33.4440 C   0  0  1  0  0  0  0  0  0  0  0  0
   34.8510   27.9000   33.2410 H   0  0  0  0  0  0  0  0  0  0  0  0
   34.9400   29.6810   34.4360 C   0  0  0  0  0  0  0  0  0  0  0  0
   35.9030   30.5240   35.0500 C   0  0  0  0  0  0  0  0  0  0  0  0
   35.6010   31.4620   36.0030 C   0  0  0  0  0  0  0  0  0  0  0  0
   34.2740   31.6430   36.4360 C   0  0  0  0  0  0  0  0  0  0  0  0
   33.3960   30.7820   35.7870 C   0  0  0  0  0  0  0  0  0  0  0  0
   33.6680   29.8580   34.8550 N   0  0  0  0  0  0  0  0  0  0  0  0
   36.9920   30.5760   34.8840 H   0  0  0  0  0  0  0  0  0  0  0  0
   36.2860   32.1290   36.5040 H   0  0  0  0  0  0  0  0  0  0  0  0
   33.8660   32.3130   37.1540 H   0  0  0  0  0  0  0  0  0  0  0  0
   32.3290   30.8010   36.0150 H   0  0  0  0  0  0  0  0  0  0  0  0
   35.8520   29.7670   31.9580 S   0  0  0  0  0  0  0  0  0  0  0  0
   36.7100   28.8130   30.7170 C   0  0  0  0  0  0  0  0  0  0  0  0
   38.0540   28.6310   31.0000 F   0  0  0  0  0  0  0  0  0  0  0  0
   36.0690   27.6110   30.4720 F   0  0  0  0  0  0  0  0  0  0  0  0
   36.6170   29.5530   29.5190 F   0  0  0  0  0  0  0  0  0  0  0  0
  1  2  2  0  0  0  0
  1  5  1  0  0  0  0
  3  8  1  0  0  0  0
  4  5  1  0  0  0  0
  4  3  2  0  0  0  0
  5  6  2  0  0  0  0
  6  7  1  0  0  0  0
  7 11  1  0  0  0  0
  8  7  2  0  0  0  0
  9  3  1  0  0  0  0
 10  4  1  0  0  0  0
 11 19  1  0  0  0  0
 11 12  1  0  0  0  0
 12 14  1  0  0  0  0
 13 12  1  0  0  0  0
 14 15  1  0  0  0  0
 16 14  1  0  0  0  0
 17 18  1  0  0  0  0
 17 16  1  0  0  0  0
 19 20  1  0  0  0  0
 19 17  1  0  0  0  0
 21 22  1  6  0  0  0
 21  2  1  0  0  0  0
 21 23  1  0  0  0  0
 23 28  2  0  0  0  0
 23 24  1  0  0  0  0
 24 25  2  0  0  0  0
 25 26  1  0  0  0  0
 25 30  1  0  0  0  0
 26 31  1  0  0  0  0
 27 32  1  0  0  0  0
 27 26  2  0  0  0  0
 28 27  1  0  0  0  0
 29 24  1  0  0  0  0
 33 21  1  0  0  0  0
 34 35  1  0  0  0  0
 34 33  1  0  0  0  0
 36 34  1  0  0  0  0
 37 34  1  0  0  0  0
M  END
>  <minimizedAffinity>
-5.64084053

$$$$

 OpenBabel03272502363D

 37 39  0  0  1  0  0  0  0  0999 V2000
   35.1430   30.3020   34.8520 C   0  0  0  0  0  3  0  0  0  0  0  0
   35.8300   31.0650   35.6390 C   0  0  0  0  0  3  0  0  0  0  0  0
   36.0470   28.0890   31.9940 C   0  0  0  0  0  0  0  0  0  0  0  0
   35.5090   29.1090   32.7640 C   0  0  0  0  0  0  0  0  0  0  0  0
   35.7460   29.2260   34.1080 C   0  0  0  0  0  0  0  0  0  0  0  0
   36.5490   28.2820   34.6730 N   0  0  0  0  0  0  0  0  0  0  0  0
   37.0630   27.3060   33.9280 C   0  0  0  0  0  0  0  0  0  0  0  0
   36.8320   27.1880   32.6110 N   0  0  0  0  0  0  0  0  0  0  0  0
   35.8810   27.9660   30.9330 H   0  0  0  0  0  0  0  0  0  0  0  0
   34.9020   29.7680   32.1620 H   0  0  0  0  0  0  0  0  0  0  0  0
   37.9330   26.3060   34.6070 C   0  0  0  0  0  3  0  0  0  0  0  0
   38.9830   26.9350   35.4710 C   0  0  0  0  0  3  0  0  0  0  0  0
   38.9990   26.4620   36.4620 H   0  0  0  0  0  0  0  0  0  0  0  0
   40.3140   26.8220   34.7650 C   0  0  0  0  0  3  0  0  0  0  0  0
   40.2370   27.3220   33.7870 H   0  0  0  0  0  0  0  0  0  0  0  0
   40.7140   25.5030   34.5710 O   0  0  0  0  0  0  0  0  0  0  0  0
   39.7030   24.6890   34.1080 C   0  0  0  0  0  3  0  0  0  0  0  0
   40.1050   23.9910   33.3560 H   0  0  0  0  0  0  0  0  0  0  0  0
   38.5810   25.4870   33.4840 C   0  0  0  0  0  3  0  0  0  0  0  0
   38.9510   26.1630   32.7040 H   0  0  0  0  0  0  0  0  0  0  0  0
   35.1010   32.1680   36.3530 C   0  0  1  0  0  0  0  0  0  0  0  0
   35.1070   31.9760   37.4410 H   0  0  0  0  0  0  0  0  0  0  0  0
   35.7230   33.4600   36.0170 C   0  0  0  0  0  0  0  0  0  0  0  0
   36.9480   33.3300   35.3120 C   0  0  0  0  0  0  0  0  0  0  0  0
   37.7060   34.3950   34.8950 C   0  0  0  0  0  0  0  0  0  0  0  0
   37.2930   35.7140   35.1540 C   0  0  0  0  0  0  0  0  0  0  0  0
   36.0880   35.7530   35.8470 C   0  0  0  0  0  0  0  0  0  0  0  0
   35.3320   34.7290   36.2650 N   0  0  0  0  0  0  0  0  0  0  0  0
   37.4760   32.4160   34.9900 H   0  0  0  0  0  0  0  0  0  0  0  0
   38.6410   34.3590   34.3570 H   0  0  0  0  0  0  0  0  0  0  0  0
   37.7490   36.6420   34.9080 H   0  0  0  0  0  0  0  0  0  0  0  0
   35.6360   36.7070   36.1230 H   0  0  0  0  0  0  0  0  0  0  0  0
   33.4160   32.2270   35.6490 S   0  0  0  0  0  0  0  0  0  0  0  0
   32.2630   31.3270   36.6720 C   0  0  0  0  0  0  0  0  0  0  0  0
   31.1000   32.0330   36.9370 F   0  0  0  0  0  0  0  0  0  0  0  0
   31.9950   30.0740   36.1500 F   0  0  0  0  0  0  0  0  0  0  0  0
   32.9210   31.1020   37.9020 F   0  0  0  0  0  0  0  0  0  0  0  0
  1  2  2  0  0  0  0
  2 21  1  0  0  0  0
  3  8  2  0  0  0  0
  3  4  1  0  0  0  0
  4  5  2  0  0  0  0
  5  6  1  0  0  0  0
  5  1  1  0  0  0  0
  7 11  1  0  0  0  0
  7  6  2  0  0  0  0
  8  7  1  0  0  0  0
  9  3  1  0  0  0  0
 10  4  1  0  0  0  0
 11 12  1  0  0  0  0
 12 13  1  0  0  0  0
 14 12  1  0  0  0  0
 15 14  1  0  0  0  0
 16 14  1  0  0  0  0
 17 16  1  0  0  0  0
 18 17  1  0  0  0  0
 19 17  1  0  0  0  0
 19 11  1  0  0  0  0
 20 19  1  0  0  0  0
 21 22  1  1  0  0  0
 23 28  1  0  0  0  0
 23 21  1  0  0  0  0
 24 23  2  0  0  0  0
 25 26  2  0  0  0  0
 25 24  1  0  0  0  0
 26 27  1  0  0  0  0
 27 32  1  0  0  0  0
 27 28  2  0  0  0  0
 29 24  1  0  0  0  0
 30 25  1  0  0  0  0
 31 26  1  0  0  0  0
 33 21  1  0  0  0  0
 33 34  1  0  0  0  0
 34 35  1  0  0  0  0
 34 37  1  0  0  0  0
 36 34  1  0  0  0  0
M  END
>  <minimizedAffinity>
-5.6224432

$$$$

 OpenBabel03272502363D

 37 39  0  0  1  0  0  0  0  0999 V2000
   36.3240   28.3510   34.5440 C   0  0  0  0  0  3  0  0  0  0  0  0
   35.9030   29.1190   33.5920 C   0  0  0  0  0  3  0  0  0  0  0  0
   37.8670   25.5220   32.6730 C   0  0  0  0  0  0  0  0  0  0  0  0
   37.2190   26.7050   32.9910 C   0  0  0  0  0  0  0  0  0  0  0  0
   37.0190   27.1160   34.2830 C   0  0  0  0  0  0  0  0  0  0  0  0
   37.4940   26.3020   35.2660 N   0  0  0  0  0  0  0  0  0  0  0  0
   38.1170   25.1680   34.9530 C   0  0  0  0  0  0  0  0  0  0  0  0
   38.3130   24.7610   33.6890 N   0  0  0  0  0  0  0  0  0  0  0  0
   38.0410   25.1670   31.6670 H   0  0  0  0  0  0  0  0  0  0  0  0
   36.9090   27.2280   32.0990 H   0  0  0  0  0  0  0  0  0  0  0  0
   38.6130   24.3220   36.0740 C   0  0  0  0  0  3  0  0  0  0  0  0
   38.1850   22.8910   35.9610 C   0  0  0  0  0  3  0  0  0  0  0  0
   39.0410   22.2210   36.1110 H   0  0  0  0  0  0  0  0  0  0  0  0
   37.0850   22.6410   36.9670 C   0  0  0  0  0  3  0  0  0  0  0  0
   36.2540   23.3340   36.7590 H   0  0  0  0  0  0  0  0  0  0  0  0
   37.5040   22.8150   38.2830 O   0  0  0  0  0  0  0  0  0  0  0  0
   38.2570   23.9540   38.4690 C   0  0  0  0  0  3  0  0  0  0  0  0
   37.9830   24.4270   39.4260 H   0  0  0  0  0  0  0  0  0  0  0  0
   38.0500   24.9530   37.3530 C   0  0  0  0  0  3  0  0  0  0  0  0
   36.9880   25.1850   37.2100 H   0  0  0  0  0  0  0  0  0  0  0  0
   35.1750   30.3760   33.9790 C   0  0  1  0  0  0  0  0  0  0  0  0
   35.2670   31.1240   33.1720 H   0  0  0  0  0  0  0  0  0  0  0  0
   33.7690   30.0530   34.2750 C   0  0  0  0  0  0  0  0  0  0  0  0
   33.0760   29.4880   33.1720 C   0  0  0  0  0  0  0  0  0  0  0  0
   31.7590   29.1080   33.2120 C   0  0  0  0  0  0  0  0  0  0  0  0
   31.0020   29.2660   34.3870 C   0  0  0  0  0  0  0  0  0  0  0  0
   31.7530   29.8240   35.4160 C   0  0  0  0  0  0  0  0  0  0  0  0
   33.0380   30.2030   35.4010 N   0  0  0  0  0  0  0  0  0  0  0  0
   33.4430   29.2640   32.1560 H   0  0  0  0  0  0  0  0  0  0  0  0
   31.1800   28.6750   32.4100 H   0  0  0  0  0  0  0  0  0  0  0  0
   29.9860   29.0300   34.5920 H   0  0  0  0  0  0  0  0  0  0  0  0
   31.3050   30.0090   36.3930 H   0  0  0  0  0  0  0  0  0  0  0  0
   35.9020   30.9390   35.5580 S   0  0  0  0  0  0  0  0  0  0  0  0
   35.8910   32.7200   35.6690 C   0  0  0  0  0  0  0  0  0  0  0  0
   35.3030   33.1920   36.8320 F   0  0  0  0  0  0  0  0  0  0  0  0
   37.1580   33.2450   35.4840 F   0  0  0  0  0  0  0  0  0  0  0  0
   35.1190   33.1770   34.5790 F   0  0  0  0  0  0  0  0  0  0  0  0
  2 21  1  0  0  0  0
  2  1  2  0  0  0  0
  3  4  2  0  0  0  0
  3  8  1  0  0  0  0
  4  5  1  0  0  0  0
  5  1  1  0  0  0  0
  5  6  2  0  0  0  0
  7  6  1  0  0  0  0
  7 11  1  0  0  0  0
  8  7  2  0  0  0  0
  9  3  1  0  0  0  0
 10  4  1  0  0  0  0
 11 19  1  0  0  0  0
 12 11  1  0  0  0  0
 12 13  1  0  0  0  0
 12 14  1  0  0  0  0
 14 16  1  0  0  0  0
 15 14  1  0  0  0  0
 16 17  1  0  0  0  0
 17 18  1  0  0  0  0
 19 17  1  0  0  0  0
 20 19  1  0  0  0  0
 21 22  1  6  0  0  0
 21 23  1  0  0  0  0
 21 33  1  0  0  0  0
 23 28  1  0  0  0  0
 24 25  1  0  0  0  0
 24 23  2  0  0  0  0
 25 26  2  0  0  0  0
 26 31  1  0  0  0  0
 26 27  1  0  0  0  0
 27 32  1  0  0  0  0
 28 27  2  0  0  0  0
 29 24  1  0  0  0  0
 30 25  1  0  0  0  0
 33 34  1  0  0  0  0
 34 35  1  0  0  0  0
 36 34  1  0  0  0  0
 37 34  1  0  0  0  0
M  END
>  <minimizedAffinity>
-5.56366348

$$$$

 OpenBabel03272502363D

 37 39  0  0  1  0  0  0  0  0999 V2000
   36.0610   29.0730   34.5480 C   0  0  0  0  0  3  0  0  0  0  0  0
   35.4270   29.8470   33.7290 C   0  0  0  0  0  3  0  0  0  0  0  0
   37.2440   26.3340   32.3160 C   0  0  0  0  0  0  0  0  0  0  0  0
   36.6460   27.4890   32.7970 C   0  0  0  0  0  0  0  0  0  0  0  0
   36.7180   27.8670   34.1120 C   0  0  0  0  0  0  0  0  0  0  0  0
   37.4150   27.0490   34.9480 N   0  0  0  0  0  0  0  0  0  0  0  0
   37.9870   25.9420   34.4790 C   0  0  0  0  0  0  0  0  0  0  0  0
   37.9180   25.5680   33.1920 N   0  0  0  0  0  0  0  0  0  0  0  0
   37.2070   26.0060   31.2860 H   0  0  0  0  0  0  0  0  0  0  0  0
   36.1390   28.0200   32.0060 H   0  0  0  0  0  0  0  0  0  0  0  0
   38.7350   25.0900   35.4450 C   0  0  0  0  0  3  0  0  0  0  0  0
   39.1500   23.7730   34.8640 C   0  0  0  0  0  3  0  0  0  0  0  0
   40.2100   23.5780   35.0720 H   0  0  0  0  0  0  0  0  0  0  0  0
   38.2530   22.6970   35.4310 C   0  0  0  0  0  3  0  0  0  0  0  0
   37.2080   22.9430   35.1830 H   0  0  0  0  0  0  0  0  0  0  0  0
   38.3720   22.5640   36.8120 O   0  0  0  0  0  0  0  0  0  0  0  0
   38.3780   23.7710   37.4770 C   0  0  0  0  0  3  0  0  0  0  0  0
   37.7950   23.6840   38.4080 H   0  0  0  0  0  0  0  0  0  0  0  0
   37.7900   24.8800   36.6340 C   0  0  0  0  0  3  0  0  0  0  0  0
   36.7910   24.6210   36.2660 H   0  0  0  0  0  0  0  0  0  0  0  0
   34.7650   31.0710   34.2970 C   0  0  1  0  0  0  0  0  0  0  0  0
   34.5500   31.7890   33.4850 H   0  0  0  0  0  0  0  0  0  0  0  0
   33.5450   30.6740   35.0200 C   0  0  0  0  0  0  0  0  0  0  0  0
   33.4380   31.2570   36.3100 C   0  0  0  0  0  0  0  0  0  0  0  0
   32.3900   31.0330   37.1650 C   0  0  0  0  0  0  0  0  0  0  0  0
   31.3310   30.1850   36.7950 C   0  0  0  0  0  0  0  0  0  0  0  0
   31.5120   29.6570   35.5210 C   0  0  0  0  0  0  0  0  0  0  0  0
   32.5260   29.8600   34.6690 N   0  0  0  0  0  0  0  0  0  0  0  0
   34.1280   31.9490   36.8230 H   0  0  0  0  0  0  0  0  0  0  0  0
   32.2540   31.4460   38.1530 H   0  0  0  0  0  0  0  0  0  0  0  0
   30.4530   29.9040   37.3240 H   0  0  0  0  0  0  0  0  0  0  0  0
   30.7730   28.9780   35.0910 H   0  0  0  0  0  0  0  0  0  0  0  0
   35.8990   31.7440   35.5610 S   0  0  0  0  0  0  0  0  0  0  0  0
   36.6030   33.2950   35.0290 C   0  0  0  0  0  0  0  0  0  0  0  0
   35.7240   34.3610   35.1400 F   0  0  0  0  0  0  0  0  0  0  0  0
   37.8030   33.5510   35.6680 F   0  0  0  0  0  0  0  0  0  0  0  0
   36.9180   33.1360   33.6620 F   0  0  0  0  0  0  0  0  0  0  0  0
  2 21  1  0  0  0  0
  2  1  2  0  0  0  0
  3  4  2  0  0  0  0
  3  8  1  0  0  0  0
  4  5  1  0  0  0  0
  5  1  1  0  0  0  0
  5  6  2  0  0  0  0
  7  6  1  0  0  0  0
  7 11  1  0  0  0  0
  8  7  2  0  0  0  0
  9  3  1  0  0  0  0
 10  4  1  0  0  0  0
 11 19  1  0  0  0  0
 12 13  1  0  0  0  0
 12 14  1  0  0  0  0
 12 11  1  0  0  0  0
 14 16  1  0  0  0  0
 15 14  1  0  0  0  0
 16 17  1  0  0  0  0
 17 18  1  0  0  0  0
 19 17  1  0  0  0  0
 20 19  1  0  0  0  0
 21 22  1  6  0  0  0
 21 23  1  0  0  0  0
 21 33  1  0  0  0  0
 23 24  1  0  0  0  0
 24 29  1  0  0  0  0
 24 25  2  0  0  0  0
 25 30  1  0  0  0  0
 26 25  1  0  0  0  0
 26 31  1  0  0  0  0
 27 26  2  0  0  0  0
 28 23  2  0  0  0  0
 28 27  1  0  0  0  0
 32 27  1  0  0  0  0
 34 35  1  0  0  0  0
 34 33  1  0  0  0  0
 34 36  1  0  0  0  0
 37 34  1  0  0  0  0
M  END
>  <minimizedAffinity>
-5.52866507

$$$$

 OpenBabel03272502363D

 37 39  0  0  1  0  0  0  0  0999 V2000
   37.2710   26.6210   34.4360 C   0  0  0  0  0  3  0  0  0  0  0  0
   38.2740   25.8850   34.0810 C   0  0  0  0  0  3  0  0  0  0  0  0
   36.7680   28.8720   31.5110 C   0  0  0  0  0  0  0  0  0  0  0  0
   37.1560   27.8170   32.3210 C   0  0  0  0  0  0  0  0  0  0  0  0
   36.8230   27.7400   33.6480 C   0  0  0  0  0  0  0  0  0  0  0  0
   36.0770   28.7610   34.1520 N   0  0  0  0  0  0  0  0  0  0  0  0
   35.7080   29.7720   33.3690 C   0  0  0  0  0  0  0  0  0  0  0  0
   36.0330   29.8510   32.0690 N   0  0  0  0  0  0  0  0  0  0  0  0
   37.0130   28.9650   30.4620 H   0  0  0  0  0  0  0  0  0  0  0  0
   37.7370   27.0960   31.7650 H   0  0  0  0  0  0  0  0  0  0  0  0
   34.8930   30.8580   33.9820 C   0  0  0  0  0  3  0  0  0  0  0  0
   35.7240   31.8770   34.7010 C   0  0  0  0  0  3  0  0  0  0  0  0
   35.4290   32.8910   34.4040 H   0  0  0  0  0  0  0  0  0  0  0  0
   35.5710   31.6530   36.1880 C   0  0  0  0  0  3  0  0  0  0  0  0
   35.8900   30.6250   36.4240 H   0  0  0  0  0  0  0  0  0  0  0  0
   34.2650   31.8370   36.6330 O   0  0  0  0  0  0  0  0  0  0  0  0
   33.3240   31.2380   35.8230 C   0  0  0  0  0  3  0  0  0  0  0  0
   32.5330   30.7880   36.4440 H   0  0  0  0  0  0  0  0  0  0  0  0
   33.9340   30.1610   34.9540 C   0  0  0  0  0  3  0  0  0  0  0  0
   34.4870   29.4260   35.5510 H   0  0  0  0  0  0  0  0  0  0  0  0
   38.6650   24.7530   34.9890 C   0  0  1  0  0  0  0  0  0  0  0  0
   38.1950   23.8160   34.6400 H   0  0  0  0  0  0  0  0  0  0  0  0
   40.1340   24.6500   35.0330 C   0  0  0  0  0  0  0  0  0  0  0  0
   40.7950   25.8490   34.6590 C   0  0  0  0  0  0  0  0  0  0  0  0
   42.1590   25.9910   34.6250 C   0  0  0  0  0  0  0  0  0  0  0  0
   43.0000   24.9180   34.9710 C   0  0  0  0  0  0  0  0  0  0  0  0
   42.2750   23.7850   35.3250 C   0  0  0  0  0  0  0  0  0  0  0  0
   40.9460   23.6230   35.3650 N   0  0  0  0  0  0  0  0  0  0  0  0
   40.3650   26.8170   34.3510 H   0  0  0  0  0  0  0  0  0  0  0  0
   42.7170   26.8730   34.3500 H   0  0  0  0  0  0  0  0  0  0  0  0
   44.0610   24.8530   35.0010 H   0  0  0  0  0  0  0  0  0  0  0  0
   42.7870   22.8670   35.6190 H   0  0  0  0  0  0  0  0  0  0  0  0
   38.1450   25.2260   36.6750 S   0  0  0  0  0  0  0  0  0  0  0  0
   38.0070   23.7920   37.7280 C   0  0  0  0  0  0  0  0  0  0  0  0
   37.1520   22.8250   37.2250 F   0  0  0  0  0  0  0  0  0  0  0  0
   39.2500   23.2690   38.0360 F   0  0  0  0  0  0  0  0  0  0  0  0
   37.4670   24.2520   38.9490 F   0  0  0  0  0  0  0  0  0  0  0  0
  2  1  2  0  0  0  0
  2 21  1  0  0  0  0
  3  8  2  0  0  0  0
  3  4  1  0  0  0  0
  4  5  2  0  0  0  0
  5  6  1  0  0  0  0
  5  1  1  0  0  0  0
  7 11  1  0  0  0  0
  7  6  2  0  0  0  0
  8  7  1  0  0  0  0
  9  3  1  0  0  0  0
 10  4  1  0  0  0  0
 11 12  1  0  0  0  0
 11 19  1  0  0  0  0
 12 14  1  0  0  0  0
 13 12  1  0  0  0  0
 14 15  1  0  0  0  0
 14 16  1  0  0  0  0
 17 18  1  0  0  0  0
 17 16  1  0  0  0  0
 19 20  1  0  0  0  0
 19 17  1  0  0  0  0
 21 22  1  6  0  0  0
 21 23  1  0  0  0  0
 21 33  1  0  0  0  0
 23 28  1  0  0  0  0
 24 23  2  0  0  0  0
 25 24  1  0  0  0  0
 25 26  2  0  0  0  0
 26 31  1  0  0  0  0
 26 27  1  0  0  0  0
 27 28  2  0  0  0  0
 27 32  1  0  0  0  0
 29 24  1  0  0  0  0
 30 25  1  0  0  0  0
 33 34  1  0  0  0  0
 34 36  1  0  0  0  0
 34 37  1  0  0  0  0
 35 34  1  0  0  0  0
M  END
>  <minimizedAffinity>
-5.52545738

$$$$

 OpenBabel03272502363D

 37 39  0  0  1  0  0  0  0  0999 V2000
   35.9220   29.0750   33.3430 C   0  0  0  0  0  3  0  0  0  0  0  0
   34.9570   29.5420   34.0670 C   0  0  0  0  0  3  0  0  0  0  0  0
   37.7720   26.4910   35.2880 C   0  0  0  0  0  0  0  0  0  0  0  0
   37.1030   27.6480   34.9200 C   0  0  0  0  0  0  0  0  0  0  0  0
   36.5940   27.8420   33.6630 C   0  0  0  0  0  0  0  0  0  0  0  0
   36.7710   26.8310   32.7680 N   0  0  0  0  0  0  0  0  0  0  0  0
   37.4140   25.7220   33.1280 C   0  0  0  0  0  0  0  0  0  0  0  0
   37.9150   25.5300   34.3580 N   0  0  0  0  0  0  0  0  0  0  0  0
   38.1870   26.3060   36.2690 H   0  0  0  0  0  0  0  0  0  0  0  0
   37.0490   28.3420   35.7450 H   0  0  0  0  0  0  0  0  0  0  0  0
   37.5750   24.6550   32.1020 C   0  0  0  0  0  3  0  0  0  0  0  0
   36.5410   24.7230   31.0190 C   0  0  0  0  0  3  0  0  0  0  0  0
   37.0140   24.6580   30.0310 H   0  0  0  0  0  0  0  0  0  0  0  0
   35.5410   23.6130   31.2450 C   0  0  0  0  0  3  0  0  0  0  0  0
   35.0950   23.7380   32.2440 H   0  0  0  0  0  0  0  0  0  0  0  0
   36.1080   22.3450   31.1560 O   0  0  0  0  0  0  0  0  0  0  0  0
   37.3070   22.2360   31.8280 C   0  0  0  0  0  3  0  0  0  0  0  0
   37.3610   21.2580   32.3310 H   0  0  0  0  0  0  0  0  0  0  0  0
   37.4720   23.3270   32.8610 C   0  0  0  0  0  3  0  0  0  0  0  0
   36.6200   23.3650   33.5500 H   0  0  0  0  0  0  0  0  0  0  0  0
   34.3380   30.8460   33.6490 C   0  0  1  0  0  0  0  0  0  0  0  0
   33.9730   30.7700   32.6090 H   0  0  0  0  0  0  0  0  0  0  0  0
   33.2600   31.1970   34.5890 C   0  0  0  0  0  0  0  0  0  0  0  0
   33.0480   30.2180   35.5940 C   0  0  0  0  0  0  0  0  0  0  0  0
   32.0970   30.3260   36.5780 C   0  0  0  0  0  0  0  0  0  0  0  0
   31.2570   31.4530   36.6410 C   0  0  0  0  0  0  0  0  0  0  0  0
   31.5300   32.3610   35.6240 C   0  0  0  0  0  0  0  0  0  0  0  0
   32.4490   32.2760   34.6530 N   0  0  0  0  0  0  0  0  0  0  0  0
   33.5700   29.2610   35.7590 H   0  0  0  0  0  0  0  0  0  0  0  0
   31.8900   29.6190   37.3660 H   0  0  0  0  0  0  0  0  0  0  0  0
   30.4800   31.6980   37.3240 H   0  0  0  0  0  0  0  0  0  0  0  0
   30.9600   33.2870   35.5380 H   0  0  0  0  0  0  0  0  0  0  0  0
   35.6220   32.1290   33.8600 S   0  0  0  0  0  0  0  0  0  0  0  0
   36.1330   32.2490   35.5650 C   0  0  0  0  0  0  0  0  0  0  0  0
   35.1630   32.7960   36.3900 F   0  0  0  0  0  0  0  0  0  0  0  0
   36.5870   31.0320   36.0430 F   0  0  0  0  0  0  0  0  0  0  0  0
   37.2500   33.1130   35.5810 F   0  0  0  0  0  0  0  0  0  0  0  0
  1  5  1  0  0  0  0
  1  2  2  0  0  0  0
  3  9  1  0  0  0  0
  4  3  1  0  0  0  0
  4 10  1  0  0  0  0
  5  4  2  0  0  0  0
  6  7  2  0  0  0  0
  6  5  1  0  0  0  0
  7  8  1  0  0  0  0
  8  3  2  0  0  0  0
 11 19  1  0  0  0  0
 11  7  1  0  0  0  0
 12 14  1  0  0  0  0
 12 11  1  0  0  0  0
 13 12  1  0  0  0  0
 14 15  1  0  0  0  0
 16 14  1  0  0  0  0
 16 17  1  0  0  0  0
 17 18  1  0  0  0  0
 17 19  1  0  0  0  0
 19 20  1  0  0  0  0
 21 22  1  6  0  0  0
 21 33  1  0  0  0  0
 21  2  1  0  0  0  0
 21 23  1  0  0  0  0
 23 28  2  0  0  0  0
 23 24  1  0  0  0  0
 24 29  1  0  0  0  0
 24 25  2  0  0  0  0
 25 26  1  0  0  0  0
 25 30  1  0  0  0  0
 26 31  1  0  0  0  0
 27 26  2  0  0  0  0
 28 27  1  0  0  0  0
 32 27  1  0  0  0  0
 33 34  1  0  0  0  0
 34 37  1  0  0  0  0
 34 36  1  0  0  0  0
 34 35  1  0  0  0  0
M  END
>  <minimizedAffinity>
-5.44231081

$$$$
