
 OpenBabel03262522113D

 31 33  0  0  0  0  0  0  0  0999 V2000
   37.5170   31.3680   46.8630 C   0  0  0  0  0  0  0  0  0  0  0  0
   38.5200   32.0470   47.5650 C   0  0  0  0  0  0  0  0  0  0  0  0
   39.5060   32.7200   46.8750 C   0  0  0  0  0  0  0  0  0  0  0  0
   39.4260   32.6680   45.4810 C   0  0  0  0  0  0  0  0  0  0  0  0
   38.4410   32.0010   44.8090 C   0  0  0  0  0  0  0  0  0  0  0  0
   37.4760   31.3440   45.5010 N   0  0  0  0  0  0  0  0  0  0  0  0
   38.5330   32.0530   48.6470 H   0  0  0  0  0  0  0  0  0  0  0  0
   40.3080   33.2630   47.3780 H   0  0  0  0  0  0  0  0  0  0  0  0
   40.2000   33.1960   44.9410 H   0  0  0  0  0  0  0  0  0  0  0  0
   36.5210   30.6880   47.6630 C   0  0  0  0  0  0  0  0  0  0  0  0
   35.4360   30.3430   47.1530 O   0  0  0  0  0  0  0  0  0  0  0  0
   37.9070   30.7660   49.6890 C   0  0  0  0  0  0  0  0  0  0  0  0
   36.7130   30.3760   49.0650 C   0  0  0  0  0  0  0  0  0  0  0  0
   35.7780   29.7040   49.8400 C   0  0  0  0  0  0  0  0  0  0  0  0
   36.0230   29.4430   51.1520 N   0  0  0  0  0  0  0  0  0  0  0  0
   37.2020   29.8430   51.7180 C   0  0  0  0  0  0  0  0  0  0  0  0
   38.1140   30.4860   51.0030 N   0  0  0  0  0  0  0  0  0  0  0  0
   38.6490   31.2900   49.1040 H   0  0  0  0  0  0  0  0  0  0  0  0
   34.8430   29.3930   49.3680 H   0  0  0  0  0  0  0  0  0  0  0  0
   37.2570   29.5670   52.7650 H   0  0  0  0  0  0  0  0  0  0  0  0
   38.3550   31.9490   43.0250 S   0  0  0  0  0  0  0  0  0  0  0  0
   38.3510   30.2490   42.3930 C   0  0  0  0  0  0  0  0  0  0  0  0
   38.8640   30.2910   40.9560 C   0  0  0  0  0  0  0  0  0  0  0  0
   38.1770   30.7880   40.2730 H   0  0  0  0  0  0  0  0  0  0  0  0
   40.2360   30.9410   41.0400 C   0  0  0  0  0  0  0  0  0  0  0  0
   40.2080   31.8090   41.7380 H   0  0  0  0  0  0  0  0  0  0  0  0
   41.1380   30.0390   41.5870 O   0  0  0  0  0  0  0  0  0  0  0  0
   40.5670   29.0440   42.3310 C   0  0  0  0  0  0  0  0  0  0  0  0
   41.3530   28.7430   43.0870 H   0  0  0  0  0  0  0  0  0  0  0  0
   39.3850   29.4690   43.1690 C   0  0  0  0  0  0  0  0  0  0  0  0
   38.8850   28.5270   43.5090 H   0  0  0  0  0  0  0  0  0  0  0  0
  1  2  1  0  0  0  0
  1 10  1  0  0  0  0
  2  7  1  0  0  0  0
  3  8  1  0  0  0  0
  3  2  2  0  0  0  0
  4  3  1  0  0  0  0
  5  4  2  0  0  0  0
  5  6  1  0  0  0  0
  6  1  2  0  0  0  0
  9  4  1  0  0  0  0
 10 13  1  0  0  0  0
 11 10  2  0  0  0  0
 12 17  1  0  0  0  0
 13 12  2  0  0  0  0
 13 14  1  0  0  0  0
 14 15  2  0  0  0  0
 15 16  1  0  0  0  0
 16 20  1  0  0  0  0
 17 16  2  0  0  0  0
 18 12  1  0  0  0  0
 19 14  1  0  0  0  0
 21  5  1  0  0  0  0
 22 21  1  0  0  0  0
 22 30  1  0  0  0  0
 23 25  1  0  0  0  0
 23 22  1  0  0  0  0
 24 23  1  0  0  0  0
 25 27  1  0  0  0  0
 25 26  1  0  0  0  0
 27 28  1  0  0  0  0
 28 29  1  0  0  0  0
 28 30  1  0  0  0  0
 30 31  1  0  0  0  0
M  END
>  <minimizedAffinity>
-5.40669918

>  <minimizedRMSD>
3.4329412

$$$$
