
 OpenBabel03272505283D

 32 34  0  0  0  0  0  0  0  0999 V2000
   37.9480   23.1490   34.7420 N   0  0  0  0  0  0  0  0  0  0  0  0
   37.5160   21.9870   34.1830 C   0  0  0  0  0  0  0  0  0  0  0  0
   37.0910   21.9180   32.8630 C   0  0  0  0  0  0  0  0  0  0  0  0
   37.1240   23.1080   32.1140 C   0  0  0  0  0  0  0  0  0  0  0  0
   36.7490   23.0910   30.9200 O   0  0  0  0  0  0  0  0  0  0  0  0
   37.5620   24.2730   32.6880 N   0  0  0  0  0  0  0  0  0  0  0  0
   37.9410   24.2060   33.9570 C   0  0  0  0  0  0  0  0  0  0  0  0
   38.3330   25.2930   34.4440 O   0  0  0  0  0  0  0  0  0  0  0  0
   37.4990   21.0820   34.7800 H   0  0  0  0  0  0  0  0  0  0  0  0
   36.6360   20.6500   32.3130 C   0  0  0  0  0  3  0  0  0  0  0  0
   35.6500   19.9240   33.2150 C   0  0  0  0  0  3  0  0  0  0  0  0
   36.1720   19.6000   34.1540 H   0  0  0  0  0  0  0  0  0  0  0  0
   35.2540   18.6540   32.4920 C   0  0  0  0  0  3  0  0  0  0  0  0
   35.6970   17.7410   32.9640 H   0  0  0  0  0  0  0  0  0  0  0  0
   35.6570   18.6310   31.1650 O   0  0  0  0  0  0  0  0  0  0  0  0
   37.0340   18.6520   31.0170 C   0  0  0  0  0  3  0  0  0  0  0  0
   37.4810   17.6550   31.1050 H   0  0  0  0  0  0  0  0  0  0  0  0
   37.7030   19.6650   31.9550 C   0  0  0  0  0  3  0  0  0  0  0  0
   38.5920   20.1230   31.4800 H   0  0  0  0  0  0  0  0  0  0  0  0
   40.0280   22.7910   37.7940 C   0  0  0  0  0  0  0  0  0  0  0  0
   39.6050   22.7370   36.4570 C   0  0  0  0  0  0  0  0  0  0  0  0
   38.3700   23.1950   36.0740 C   0  0  0  0  0  0  0  0  0  0  0  0
   37.5560   23.7070   37.0450 N   0  0  0  0  0  0  0  0  0  0  0  0
   37.9440   23.7680   38.3460 C   0  0  0  0  0  0  0  0  0  0  0  0
   39.1720   23.3130   38.7240 N   0  0  0  0  0  0  0  0  0  0  0  0
   40.9780   22.4530   38.1650 H   0  0  0  0  0  0  0  0  0  0  0  0
   40.3710   22.2970   35.8560 H   0  0  0  0  0  0  0  0  0  0  0  0
   37.2380   24.1880   39.0490 H   0  0  0  0  0  0  0  0  0  0  0  0
   37.6000   25.4960   31.9080 C   0  0  0  0  0  0  0  0  0  0  0  0
   37.7830   25.2180   30.5940 F   0  0  0  0  0  0  0  0  0  0  0  0
   38.6440   26.3280   32.2790 F   0  0  0  0  0  0  0  0  0  0  0  0
   36.3840   26.1540   32.0460 F   0  0  0  0  0  0  0  0  0  0  0  0
  1 22  1  0  0  0  0
  2  1  1  0  0  0  0
  2  9  1  0  0  0  0
  3  2  2  0  0  0  0
  4  6  1  0  0  0  0
  4  3  1  0  0  0  0
  5  4  2  0  0  0  0
  6  7  1  0  0  0  0
  7  8  2  0  0  0  0
  7  1  1  0  0  0  0
 10  3  1  0  0  0  0
 10 11  1  0  0  0  0
 11 12  1  0  0  0  0
 13 14  1  0  0  0  0
 13 11  1  0  0  0  0
 15 13  1  0  0  0  0
 16 17  1  0  0  0  0
 16 15  1  0  0  0  0
 16 18  1  0  0  0  0
 18 10  1  0  0  0  0
 19 18  1  0  0  0  0
 20 26  1  0  0  0  0
 20 25  1  0  0  0  0
 21 20  2  0  0  0  0
 22 21  1  0  0  0  0
 22 23  2  0  0  0  0
 23 24  1  0  0  0  0
 24 25  2  0  0  0  0
 24 28  1  0  0  0  0
 27 21  1  0  0  0  0
 29 32  1  0  0  0  0
 29 31  1  0  0  0  0
 29  6  1  0  0  0  0
 30 29  1  0  0  0  0
M  END
>  <minimizedAffinity>
-5.61061811

$$$$

 OpenBabel03272505283D

 32 34  0  0  0  0  0  0  0  0999 V2000
   37.9560   23.6440   34.2680 N   0  0  0  0  0  0  0  0  0  0  0  0
   37.8140   24.9130   33.7990 C   0  0  0  0  0  0  0  0  0  0  0  0
   37.1450   25.1890   32.6130 C   0  0  0  0  0  0  0  0  0  0  0  0
   36.6130   24.0960   31.9060 C   0  0  0  0  0  0  0  0  0  0  0  0
   36.0030   24.2990   30.8330 O   0  0  0  0  0  0  0  0  0  0  0  0
   36.7620   22.8220   32.3900 N   0  0  0  0  0  0  0  0  0  0  0  0
   37.4220   22.6920   33.5330 C   0  0  0  0  0  0  0  0  0  0  0  0
   37.5380   21.5110   33.9380 O   0  0  0  0  0  0  0  0  0  0  0  0
   38.2330   25.7390   34.3610 H   0  0  0  0  0  0  0  0  0  0  0  0
   37.0220   26.5640   32.1540 C   0  0  0  0  0  3  0  0  0  0  0  0
   38.1890   27.0150   31.2900 C   0  0  0  0  0  3  0  0  0  0  0  0
   39.1210   27.0580   31.9130 H   0  0  0  0  0  0  0  0  0  0  0  0
   37.8940   28.4400   30.8720 C   0  0  0  0  0  3  0  0  0  0  0  0
   38.5530   29.1790   31.3930 H   0  0  0  0  0  0  0  0  0  0  0  0
   36.5920   28.8320   31.1430 O   0  0  0  0  0  0  0  0  0  0  0  0
   36.3010   28.8430   32.4970 C   0  0  0  0  0  3  0  0  0  0  0  0
   36.6150   29.7710   32.9860 H   0  0  0  0  0  0  0  0  0  0  0  0
   36.8430   27.6010   33.2160 C   0  0  0  0  0  3  0  0  0  0  0  0
   36.1680   27.2880   34.0370 H   0  0  0  0  0  0  0  0  0  0  0  0
   38.7160   23.2930   37.8840 C   0  0  0  0  0  0  0  0  0  0  0  0
   38.0330   23.5550   36.6850 C   0  0  0  0  0  0  0  0  0  0  0  0
   38.6350   23.3900   35.4640 C   0  0  0  0  0  0  0  0  0  0  0  0
   39.9330   22.9610   35.4490 N   0  0  0  0  0  0  0  0  0  0  0  0
   40.6130   22.7020   36.5980 C   0  0  0  0  0  0  0  0  0  0  0  0
   40.0130   22.8660   37.8100 N   0  0  0  0  0  0  0  0  0  0  0  0
   38.3090   23.3980   38.8720 H   0  0  0  0  0  0  0  0  0  0  0  0
   37.0420   23.8880   36.9020 H   0  0  0  0  0  0  0  0  0  0  0  0
   41.6360   22.3670   36.4960 H   0  0  0  0  0  0  0  0  0  0  0  0
   36.2050   21.6990   31.6580 C   0  0  0  0  0  0  0  0  0  0  0  0
   35.2500   22.1200   30.7930 F   0  0  0  0  0  0  0  0  0  0  0  0
   35.5960   20.7750   32.4910 F   0  0  0  0  0  0  0  0  0  0  0  0
   37.2180   21.0940   30.9240 F   0  0  0  0  0  0  0  0  0  0  0  0
  1 22  1  0  0  0  0
  2  1  1  0  0  0  0
  2  9  1  0  0  0  0
  3  2  2  0  0  0  0
  4  6  1  0  0  0  0
  4  3  1  0  0  0  0
  5  4  2  0  0  0  0
  6  7  1  0  0  0  0
  7  8  2  0  0  0  0
  7  1  1  0  0  0  0
 10  3  1  0  0  0  0
 10 18  1  0  0  0  0
 11 12  1  0  0  0  0
 11 10  1  0  0  0  0
 13 15  1  0  0  0  0
 13 11  1  0  0  0  0
 13 14  1  0  0  0  0
 15 16  1  0  0  0  0
 16 17  1  0  0  0  0
 16 18  1  0  0  0  0
 18 19  1  0  0  0  0
 20 26  1  0  0  0  0
 21 27  1  0  0  0  0
 21 20  2  0  0  0  0
 22 21  1  0  0  0  0
 23 22  2  0  0  0  0
 23 24  1  0  0  0  0
 24 25  2  0  0  0  0
 25 20  1  0  0  0  0
 28 24  1  0  0  0  0
 29  6  1  0  0  0  0
 29 31  1  0  0  0  0
 30 29  1  0  0  0  0
 32 29  1  0  0  0  0
M  END
>  <minimizedAffinity>
-5.57616854

$$$$

 OpenBabel03272505283D

 32 34  0  0  0  0  0  0  0  0999 V2000
   37.4220   25.0640   32.5850 N   0  0  0  0  0  0  0  0  0  0  0  0
   38.1470   24.7350   33.6870 C   0  0  0  0  0  0  0  0  0  0  0  0
   38.1710   23.4410   34.1930 C   0  0  0  0  0  0  0  0  0  0  0  0
   37.4110   22.4720   33.5150 C   0  0  0  0  0  0  0  0  0  0  0  0
   37.4040   21.2930   33.9360 O   0  0  0  0  0  0  0  0  0  0  0  0
   36.6850   22.8160   32.4040 N   0  0  0  0  0  0  0  0  0  0  0  0
   36.7450   24.0860   32.0230 C   0  0  0  0  0  0  0  0  0  0  0  0
   36.0660   24.3590   31.0050 O   0  0  0  0  0  0  0  0  0  0  0  0
   38.7250   25.4990   34.1940 H   0  0  0  0  0  0  0  0  0  0  0  0
   38.9610   23.1400   35.3770 C   0  0  0  0  0  3  0  0  0  0  0  0
   38.2680   23.5240   36.6740 C   0  0  0  0  0  3  0  0  0  0  0  0
   38.1750   24.6410   36.7320 H   0  0  0  0  0  0  0  0  0  0  0  0
   39.1980   23.1200   37.7990 C   0  0  0  0  0  3  0  0  0  0  0  0
   39.6740   24.0040   38.2940 H   0  0  0  0  0  0  0  0  0  0  0  0
   40.2420   22.3100   37.3820 O   0  0  0  0  0  0  0  0  0  0  0  0
   41.0950   22.9400   36.4900 C   0  0  0  0  0  3  0  0  0  0  0  0
   41.8530   23.5490   36.9950 H   0  0  0  0  0  0  0  0  0  0  0  0
   40.3320   23.7370   35.4240 C   0  0  0  0  0  3  0  0  0  0  0  0
   40.8630   23.7140   34.4530 H   0  0  0  0  0  0  0  0  0  0  0  0
   36.6080   28.6600   32.1580 C   0  0  0  0  0  0  0  0  0  0  0  0
   36.6130   27.3440   32.6480 C   0  0  0  0  0  0  0  0  0  0  0  0
   37.4110   26.3740   32.0950 C   0  0  0  0  0  0  0  0  0  0  0  0
   38.2050   26.7310   31.0420 N   0  0  0  0  0  0  0  0  0  0  0  0
   38.2150   27.9990   30.5510 C   0  0  0  0  0  0  0  0  0  0  0  0
   37.4220   28.9610   31.1010 N   0  0  0  0  0  0  0  0  0  0  0  0
   36.0130   29.4680   32.5400 H   0  0  0  0  0  0  0  0  0  0  0  0
   35.9230   27.2610   33.4590 H   0  0  0  0  0  0  0  0  0  0  0  0
   38.8730   28.1950   29.7150 H   0  0  0  0  0  0  0  0  0  0  0  0
   35.9080   21.8100   31.7040 C   0  0  0  0  0  0  0  0  0  0  0  0
   35.2690   22.3560   30.6400 F   0  0  0  0  0  0  0  0  0  0  0  0
   34.9240   21.2520   32.5030 F   0  0  0  0  0  0  0  0  0  0  0  0
   36.7680   20.8250   31.2340 F   0  0  0  0  0  0  0  0  0  0  0  0
  1  2  1  0  0  0  0
  2  3  2  0  0  0  0
  2  9  1  0  0  0  0
  3 10  1  0  0  0  0
  4  5  2  0  0  0  0
  4  3  1  0  0  0  0
  6  4  1  0  0  0  0
  7  6  1  0  0  0  0
  7  1  1  0  0  0  0
  8  7  2  0  0  0  0
 10 18  1  0  0  0  0
 10 11  1  0  0  0  0
 11 12  1  0  0  0  0
 11 13  1  0  0  0  0
 13 14  1  0  0  0  0
 15 13  1  0  0  0  0
 16 17  1  0  0  0  0
 16 15  1  0  0  0  0
 18 16  1  0  0  0  0
 19 18  1  0  0  0  0
 20 26  1  0  0  0  0
 20 21  1  0  0  0  0
 21 27  1  0  0  0  0
 22  1  1  0  0  0  0
 22 21  2  0  0  0  0
 23 22  1  0  0  0  0
 24 23  2  0  0  0  0
 24 25  1  0  0  0  0
 25 20  2  0  0  0  0
 28 24  1  0  0  0  0
 29  6  1  0  0  0  0
 29 31  1  0  0  0  0
 30 29  1  0  0  0  0
 32 29  1  0  0  0  0
M  END
>  <minimizedAffinity>
-5.52976704

$$$$

 OpenBabel03272505283D

 32 34  0  0  0  0  0  0  0  0999 V2000
   37.4050   23.2140   32.8340 N   0  0  0  0  0  0  0  0  0  0  0  0
   37.9020   22.9800   34.0780 C   0  0  0  0  0  0  0  0  0  0  0  0
   38.2130   24.0140   34.9530 C   0  0  0  0  0  0  0  0  0  0  0  0
   37.9920   25.3270   34.5010 C   0  0  0  0  0  0  0  0  0  0  0  0
   38.2580   26.2880   35.2570 O   0  0  0  0  0  0  0  0  0  0  0  0
   37.4900   25.5490   33.2450 N   0  0  0  0  0  0  0  0  0  0  0  0
   37.2350   24.4780   32.5070 C   0  0  0  0  0  0  0  0  0  0  0  0
   36.7790   24.7260   31.3650 O   0  0  0  0  0  0  0  0  0  0  0  0
   38.0640   21.9600   34.4040 H   0  0  0  0  0  0  0  0  0  0  0  0
   38.7440   23.7100   36.2730 C   0  0  0  0  0  3  0  0  0  0  0  0
   39.8610   22.6780   36.2480 C   0  0  0  0  0  3  0  0  0  0  0  0
   39.4460   21.6860   35.9280 H   0  0  0  0  0  0  0  0  0  0  0  0
   40.3200   22.5020   37.6790 C   0  0  0  0  0  3  0  0  0  0  0  0
   40.0040   21.5170   38.1080 H   0  0  0  0  0  0  0  0  0  0  0  0
   39.8210   23.4680   38.5390 O   0  0  0  0  0  0  0  0  0  0  0  0
   38.4410   23.4310   38.6520 C   0  0  0  0  0  3  0  0  0  0  0  0
   38.1000   22.6930   39.3870 H   0  0  0  0  0  0  0  0  0  0  0  0
   37.7520   23.2500   37.2930 C   0  0  0  0  0  3  0  0  0  0  0  0
   36.7890   23.7960   37.2580 H   0  0  0  0  0  0  0  0  0  0  0  0
   35.5600   20.5100   31.0860 C   0  0  0  0  0  0  0  0  0  0  0  0
   35.8640   21.5660   31.9600 C   0  0  0  0  0  0  0  0  0  0  0  0
   37.1010   22.1580   31.9690 C   0  0  0  0  0  0  0  0  0  0  0  0
   38.0370   21.6830   31.0940 N   0  0  0  0  0  0  0  0  0  0  0  0
   37.7650   20.6610   30.2400 C   0  0  0  0  0  0  0  0  0  0  0  0
   36.5350   20.0740   30.2330 N   0  0  0  0  0  0  0  0  0  0  0  0
   34.6170   20.0010   31.0230 H   0  0  0  0  0  0  0  0  0  0  0  0
   35.0130   21.7850   32.5670 H   0  0  0  0  0  0  0  0  0  0  0  0
   38.5640   20.3470   29.5820 H   0  0  0  0  0  0  0  0  0  0  0  0
   37.2580   26.9070   32.7870 C   0  0  0  0  0  0  0  0  0  0  0  0
   36.9350   27.7130   33.8290 F   0  0  0  0  0  0  0  0  0  0  0  0
   36.2060   26.9900   31.8900 F   0  0  0  0  0  0  0  0  0  0  0  0
   38.4260   27.3920   32.2100 F   0  0  0  0  0  0  0  0  0  0  0  0
  1  2  1  0  0  0  0
  2  9  1  0  0  0  0
  2  3  2  0  0  0  0
  3 10  1  0  0  0  0
  4  3  1  0  0  0  0
  4  5  2  0  0  0  0
  6  4  1  0  0  0  0
  7  1  1  0  0  0  0
  7  6  1  0  0  0  0
  8  7  2  0  0  0  0
 10 18  1  0  0  0  0
 11 10  1  0  0  0  0
 11 13  1  0  0  0  0
 12 11  1  0  0  0  0
 13 14  1  0  0  0  0
 13 15  1  0  0  0  0
 15 16  1  0  0  0  0
 16 17  1  0  0  0  0
 18 16  1  0  0  0  0
 19 18  1  0  0  0  0
 20 21  1  0  0  0  0
 21 22  2  0  0  0  0
 21 27  1  0  0  0  0
 22  1  1  0  0  0  0
 23 22  1  0  0  0  0
 24 23  2  0  0  0  0
 25 24  1  0  0  0  0
 25 20  2  0  0  0  0
 26 20  1  0  0  0  0
 28 24  1  0  0  0  0
 29  6  1  0  0  0  0
 29 30  1  0  0  0  0
 31 29  1  0  0  0  0
 32 29  1  0  0  0  0
M  END
>  <minimizedAffinity>
-5.47853756

$$$$

 OpenBabel03272505283D

 32 34  0  0  0  0  0  0  0  0999 V2000
   35.9190   29.2550   34.0130 N   0  0  0  0  0  0  0  0  0  0  0  0
   36.6820   28.2540   34.5280 C   0  0  0  0  0  0  0  0  0  0  0  0
   37.5280   27.4900   33.7340 C   0  0  0  0  0  0  0  0  0  0  0  0
   37.5690   27.7920   32.3620 C   0  0  0  0  0  0  0  0  0  0  0  0
   38.3180   27.1290   31.6100 O   0  0  0  0  0  0  0  0  0  0  0  0
   36.7960   28.8040   31.8540 N   0  0  0  0  0  0  0  0  0  0  0  0
   36.0300   29.4580   32.7170 C   0  0  0  0  0  0  0  0  0  0  0  0
   35.3370   30.3740   32.2120 O   0  0  0  0  0  0  0  0  0  0  0  0
   36.6340   28.0390   35.5890 H   0  0  0  0  0  0  0  0  0  0  0  0
   38.3220   26.4290   34.3350 C   0  0  0  0  0  3  0  0  0  0  0  0
   37.6530   25.7860   35.5390 C   0  0  0  0  0  3  0  0  0  0  0  0
   37.5900   26.5330   36.3740 H   0  0  0  0  0  0  0  0  0  0  0  0
   38.5830   24.6930   36.0210 C   0  0  0  0  0  3  0  0  0  0  0  0
   39.0870   24.9590   36.9840 H   0  0  0  0  0  0  0  0  0  0  0  0
   39.6010   24.4060   35.1240 O   0  0  0  0  0  0  0  0  0  0  0  0
   40.4610   25.4730   34.9210 C   0  0  0  0  0  3  0  0  0  0  0  0
   41.2400   25.5350   35.6890 H   0  0  0  0  0  0  0  0  0  0  0  0
   39.7090   26.7990   34.7550 C   0  0  0  0  0  3  0  0  0  0  0  0
   40.2290   27.4670   34.0410 H   0  0  0  0  0  0  0  0  0  0  0  0
   34.6910   31.8030   36.4150 C   0  0  0  0  0  0  0  0  0  0  0  0
   35.5440   31.0430   35.6000 C   0  0  0  0  0  0  0  0  0  0  0  0
   35.0720   30.0100   34.8300 C   0  0  0  0  0  0  0  0  0  0  0  0
   33.7340   29.7400   34.8850 N   0  0  0  0  0  0  0  0  0  0  0  0
   32.8890   30.4620   35.6680 C   0  0  0  0  0  0  0  0  0  0  0  0
   33.3600   31.4880   36.4310 N   0  0  0  0  0  0  0  0  0  0  0  0
   34.9890   32.6230   37.0400 H   0  0  0  0  0  0  0  0  0  0  0  0
   36.5470   31.3980   35.7010 H   0  0  0  0  0  0  0  0  0  0  0  0
   31.8450   30.1810   35.6510 H   0  0  0  0  0  0  0  0  0  0  0  0
   36.8470   29.1160   30.4380 C   0  0  0  0  0  0  0  0  0  0  0  0
   35.9730   30.1080   30.1360 F   0  0  0  0  0  0  0  0  0  0  0  0
   36.4980   28.0350   29.6450 F   0  0  0  0  0  0  0  0  0  0  0  0
   38.1270   29.5560   30.1210 F   0  0  0  0  0  0  0  0  0  0  0  0
  1  2  1  0  0  0  0
  1 22  1  0  0  0  0
  2  9  1  0  0  0  0
  3 10  1  0  0  0  0
  3  2  2  0  0  0  0
  4  3  1  0  0  0  0
  5  4  2  0  0  0  0
  6  4  1  0  0  0  0
  6  7  1  0  0  0  0
  7  1  1  0  0  0  0
  8  7  2  0  0  0  0
 10 18  1  0  0  0  0
 10 11  1  0  0  0  0
 11 13  1  0  0  0  0
 11 12  1  0  0  0  0
 13 14  1  0  0  0  0
 15 13  1  0  0  0  0
 16 15  1  0  0  0  0
 16 17  1  0  0  0  0
 18 16  1  0  0  0  0
 19 18  1  0  0  0  0
 20 25  1  0  0  0  0
 20 26  1  0  0  0  0
 21 27  1  0  0  0  0
 21 20  2  0  0  0  0
 22 23  2  0  0  0  0
 22 21  1  0  0  0  0
 23 24  1  0  0  0  0
 24 25  2  0  0  0  0
 28 24  1  0  0  0  0
 29  6  1  0  0  0  0
 30 29  1  0  0  0  0
 31 29  1  0  0  0  0
 32 29  1  0  0  0  0
M  END
>  <minimizedAffinity>
-5.4550972

$$$$

 OpenBabel03272505283D

 32 34  0  0  0  0  0  0  0  0999 V2000
   37.4670   25.1890   32.7460 N   0  0  0  0  0  0  0  0  0  0  0  0
   36.9970   24.0190   32.2370 C   0  0  0  0  0  0  0  0  0  0  0  0
   37.1340   22.8140   32.9140 C   0  0  0  0  0  0  0  0  0  0  0  0
   37.7840   22.8470   34.1600 C   0  0  0  0  0  0  0  0  0  0  0  0
   37.9280   21.7840   34.8040 O   0  0  0  0  0  0  0  0  0  0  0  0
   38.2520   24.0330   34.6630 N   0  0  0  0  0  0  0  0  0  0  0  0
   38.0590   25.1140   33.9190 C   0  0  0  0  0  0  0  0  0  0  0  0
   38.5050   26.1760   34.4140 O   0  0  0  0  0  0  0  0  0  0  0  0
   36.5000   24.0180   31.2740 H   0  0  0  0  0  0  0  0  0  0  0  0
   36.6150   21.5890   32.3240 C   0  0  0  0  0  3  0  0  0  0  0  0
   37.1020   21.3530   30.9030 C   0  0  0  0  0  3  0  0  0  0  0  0
   36.6740   22.1390   30.2270 H   0  0  0  0  0  0  0  0  0  0  0  0
   36.5040   20.0370   30.4530 C   0  0  0  0  0  3  0  0  0  0  0  0
   35.6950   20.1770   29.6930 H   0  0  0  0  0  0  0  0  0  0  0  0
   35.9340   19.3120   31.4870 O   0  0  0  0  0  0  0  0  0  0  0  0
   34.8550   19.9550   32.0700 C   0  0  0  0  0  3  0  0  0  0  0  0
   33.9210   19.7870   31.5230 H   0  0  0  0  0  0  0  0  0  0  0  0
   35.1260   21.4470   32.3020 C   0  0  0  0  0  3  0  0  0  0  0  0
   34.6290   21.8050   33.2240 H   0  0  0  0  0  0  0  0  0  0  0  0
   38.1050   28.0210   30.4320 C   0  0  0  0  0  0  0  0  0  0  0  0
   38.2570   26.8170   31.1380 C   0  0  0  0  0  0  0  0  0  0  0  0
   37.3200   26.3910   32.0450 C   0  0  0  0  0  0  0  0  0  0  0  0
   36.2250   27.1830   32.2440 N   0  0  0  0  0  0  0  0  0  0  0  0
   36.0570   28.3540   31.5720 C   0  0  0  0  0  0  0  0  0  0  0  0
   36.9890   28.7740   30.6710 N   0  0  0  0  0  0  0  0  0  0  0  0
   38.7940   28.4140   29.7100 H   0  0  0  0  0  0  0  0  0  0  0  0
   39.1750   26.3490   30.8560 H   0  0  0  0  0  0  0  0  0  0  0  0
   35.1610   28.9190   31.7900 H   0  0  0  0  0  0  0  0  0  0  0  0
   38.9160   24.0620   35.9540 C   0  0  0  0  0  0  0  0  0  0  0  0
   38.6400   22.9360   36.6570 F   0  0  0  0  0  0  0  0  0  0  0  0
   38.4990   25.1230   36.7400 F   0  0  0  0  0  0  0  0  0  0  0  0
   40.2890   24.1200   35.7510 F   0  0  0  0  0  0  0  0  0  0  0  0
  1  7  1  0  0  0  0
  2  1  1  0  0  0  0
  2  3  2  0  0  0  0
  3  4  1  0  0  0  0
  4  6  1  0  0  0  0
  4  5  2  0  0  0  0
  6 29  1  0  0  0  0
  7  8  2  0  0  0  0
  7  6  1  0  0  0  0
  9  2  1  0  0  0  0
 10  3  1  0  0  0  0
 11 10  1  0  0  0  0
 12 11  1  0  0  0  0
 13 11  1  0  0  0  0
 13 15  1  0  0  0  0
 14 13  1  0  0  0  0
 15 16  1  0  0  0  0
 16 18  1  0  0  0  0
 17 16  1  0  0  0  0
 18 10  1  0  0  0  0
 18 19  1  0  0  0  0
 20 25  2  0  0  0  0
 20 21  1  0  0  0  0
 21 22  2  0  0  0  0
 22 23  1  0  0  0  0
 22  1  1  0  0  0  0
 24 28  1  0  0  0  0
 24 23  2  0  0  0  0
 25 24  1  0  0  0  0
 26 20  1  0  0  0  0
 27 21  1  0  0  0  0
 29 30  1  0  0  0  0
 29 31  1  0  0  0  0
 32 29  1  0  0  0  0
M  END
>  <minimizedAffinity>
-5.35041094

$$$$

 OpenBabel03272505283D

 32 34  0  0  0  0  0  0  0  0999 V2000
   37.3070   24.2520   32.7130 N   0  0  0  0  0  0  0  0  0  0  0  0
   37.0750   25.4600   32.1340 C   0  0  0  0  0  0  0  0  0  0  0  0
   37.2200   26.6520   32.8330 C   0  0  0  0  0  0  0  0  0  0  0  0
   37.6200   26.5630   34.1780 C   0  0  0  0  0  0  0  0  0  0  0  0
   37.7620   27.6120   34.8450 O   0  0  0  0  0  0  0  0  0  0  0  0
   37.8510   25.3390   34.7500 N   0  0  0  0  0  0  0  0  0  0  0  0
   37.6770   24.2770   33.9750 C   0  0  0  0  0  0  0  0  0  0  0  0
   37.8970   23.1780   34.5380 O   0  0  0  0  0  0  0  0  0  0  0  0
   36.7670   25.5040   31.0950 H   0  0  0  0  0  0  0  0  0  0  0  0
   36.9580   27.9190   32.1670 C   0  0  0  0  0  3  0  0  0  0  0  0
   35.5080   28.3650   32.2740 C   0  0  0  0  0  3  0  0  0  0  0  0
   34.8560   27.6580   31.6970 H   0  0  0  0  0  0  0  0  0  0  0  0
   35.4120   29.7000   31.5670 C   0  0  0  0  0  3  0  0  0  0  0  0
   34.8670   29.6250   30.5920 H   0  0  0  0  0  0  0  0  0  0  0  0
   36.6480   30.2540   31.2710 O   0  0  0  0  0  0  0  0  0  0  0  0
   37.3850   29.4890   30.3830 C   0  0  0  0  0  3  0  0  0  0  0  0
   37.1180   29.6840   29.3380 H   0  0  0  0  0  0  0  0  0  0  0  0
   37.3290   27.9930   30.7200 C   0  0  0  0  0  3  0  0  0  0  0  0
   38.2870   27.4930   30.4780 H   0  0  0  0  0  0  0  0  0  0  0  0
   35.7750   21.2740   31.1110 C   0  0  0  0  0  0  0  0  0  0  0  0
   35.9280   22.4630   31.8430 C   0  0  0  0  0  0  0  0  0  0  0  0
   37.1530   23.0650   31.9900 C   0  0  0  0  0  0  0  0  0  0  0  0
   38.2290   22.4640   31.4000 N   0  0  0  0  0  0  0  0  0  0  0  0
   38.1040   21.3120   30.6880 C   0  0  0  0  0  0  0  0  0  0  0  0
   36.8870   20.7170   30.5430 N   0  0  0  0  0  0  0  0  0  0  0  0
   34.8520   20.7510   30.9540 H   0  0  0  0  0  0  0  0  0  0  0  0
   34.9820   22.7690   32.2320 H   0  0  0  0  0  0  0  0  0  0  0  0
   39.0070   20.9040   30.2550 H   0  0  0  0  0  0  0  0  0  0  0  0
   38.2700   25.2540   36.1370 C   0  0  0  0  0  0  0  0  0  0  0  0
   37.3850   24.5220   36.8580 F   0  0  0  0  0  0  0  0  0  0  0  0
   38.3350   26.4960   36.7470 F   0  0  0  0  0  0  0  0  0  0  0  0
   39.5050   24.6210   36.1950 F   0  0  0  0  0  0  0  0  0  0  0  0
  1  7  1  0  0  0  0
  2  1  1  0  0  0  0
  2  3  2  0  0  0  0
  3  4  1  0  0  0  0
  4  6  1  0  0  0  0
  4  5  2  0  0  0  0
  6 29  1  0  0  0  0
  7  8  2  0  0  0  0
  7  6  1  0  0  0  0
  9  2  1  0  0  0  0
 10 11  1  0  0  0  0
 10  3  1  0  0  0  0
 12 11  1  0  0  0  0
 13 11  1  0  0  0  0
 14 13  1  0  0  0  0
 15 13  1  0  0  0  0
 16 18  1  0  0  0  0
 16 15  1  0  0  0  0
 17 16  1  0  0  0  0
 18 10  1  0  0  0  0
 19 18  1  0  0  0  0
 20 21  1  0  0  0  0
 21 22  2  0  0  0  0
 21 27  1  0  0  0  0
 22  1  1  0  0  0  0
 23 22  1  0  0  0  0
 24 23  2  0  0  0  0
 25 24  1  0  0  0  0
 25 20  2  0  0  0  0
 26 20  1  0  0  0  0
 28 24  1  0  0  0  0
 29 32  1  0  0  0  0
 29 31  1  0  0  0  0
 29 30  1  0  0  0  0
M  END
>  <minimizedAffinity>
-5.32179832

$$$$

 OpenBabel03272505283D

 32 34  0  0  0  0  0  0  0  0999 V2000
   38.0640   23.7320   34.7380 N   0  0  0  0  0  0  0  0  0  0  0  0
   37.8220   24.9480   34.1780 C   0  0  0  0  0  0  0  0  0  0  0  0
   37.5270   25.0910   32.8280 C   0  0  0  0  0  0  0  0  0  0  0  0
   37.4870   23.9200   32.0510 C   0  0  0  0  0  0  0  0  0  0  0  0
   37.2250   24.0040   30.8300 O   0  0  0  0  0  0  0  0  0  0  0  0
   37.7320   22.7010   32.6270 N   0  0  0  0  0  0  0  0  0  0  0  0
   38.0030   22.6980   33.9250 C   0  0  0  0  0  0  0  0  0  0  0  0
   38.2230   21.5630   34.4120 O   0  0  0  0  0  0  0  0  0  0  0  0
   37.8590   25.8360   34.7970 H   0  0  0  0  0  0  0  0  0  0  0  0
   37.2770   26.4150   32.2780 C   0  0  0  0  0  3  0  0  0  0  0  0
   38.4250   26.9390   31.4300 C   0  0  0  0  0  3  0  0  0  0  0  0
   39.3190   27.1210   32.0820 H   0  0  0  0  0  0  0  0  0  0  0  0
   37.9970   28.2960   30.9120 C   0  0  0  0  0  3  0  0  0  0  0  0
   38.5500   29.1330   31.4080 H   0  0  0  0  0  0  0  0  0  0  0  0
   36.6510   28.5580   31.1100 O   0  0  0  0  0  0  0  0  0  0  0  0
   36.3020   28.6170   32.4490 C   0  0  0  0  0  3  0  0  0  0  0  0
   36.4930   29.6020   32.8890 H   0  0  0  0  0  0  0  0  0  0  0  0
   36.9420   27.4870   33.2650 C   0  0  0  0  0  3  0  0  0  0  0  0
   36.2700   27.1520   34.0790 H   0  0  0  0  0  0  0  0  0  0  0  0
   37.8610   24.0430   38.4300 C   0  0  0  0  0  0  0  0  0  0  0  0
   37.5640   24.1710   37.0640 C   0  0  0  0  0  0  0  0  0  0  0  0
   38.3620   23.6120   36.0990 C   0  0  0  0  0  0  0  0  0  0  0  0
   39.4670   22.9220   36.5110 N   0  0  0  0  0  0  0  0  0  0  0  0
   39.7750   22.7860   37.8290 C   0  0  0  0  0  0  0  0  0  0  0  0
   38.9810   23.3420   38.7860 N   0  0  0  0  0  0  0  0  0  0  0  0
   37.2840   24.4510   39.2380 H   0  0  0  0  0  0  0  0  0  0  0  0
   36.6740   24.7490   36.9440 H   0  0  0  0  0  0  0  0  0  0  0  0
   40.6680   22.2250   38.0680 H   0  0  0  0  0  0  0  0  0  0  0  0
   37.6830   21.4950   31.8210 C   0  0  0  0  0  0  0  0  0  0  0  0
   37.6040   21.8060   30.5030 F   0  0  0  0  0  0  0  0  0  0  0  0
   36.5740   20.7140   32.1030 F   0  0  0  0  0  0  0  0  0  0  0  0
   38.8500   20.7700   32.0250 F   0  0  0  0  0  0  0  0  0  0  0  0
  1 22  1  0  0  0  0
  2  1  1  0  0  0  0
  2  9  1  0  0  0  0
  3  2  2  0  0  0  0
  4  6  1  0  0  0  0
  4  3  1  0  0  0  0
  5  4  2  0  0  0  0
  6  7  1  0  0  0  0
  7  8  2  0  0  0  0
  7  1  1  0  0  0  0
 10  3  1  0  0  0  0
 10 18  1  0  0  0  0
 11 12  1  0  0  0  0
 11 10  1  0  0  0  0
 13 15  1  0  0  0  0
 13 14  1  0  0  0  0
 13 11  1  0  0  0  0
 15 16  1  0  0  0  0
 16 17  1  0  0  0  0
 16 18  1  0  0  0  0
 18 19  1  0  0  0  0
 20 25  1  0  0  0  0
 20 26  1  0  0  0  0
 21 20  2  0  0  0  0
 22 23  2  0  0  0  0
 22 21  1  0  0  0  0
 23 24  1  0  0  0  0
 24 28  1  0  0  0  0
 24 25  2  0  0  0  0
 27 21  1  0  0  0  0
 29 32  1  0  0  0  0
 29 31  1  0  0  0  0
 29  6  1  0  0  0  0
 30 29  1  0  0  0  0
M  END
>  <minimizedAffinity>
-5.31988573

$$$$

 OpenBabel03272505283D

 32 34  0  0  0  0  0  0  0  0999 V2000
   36.0850   28.0960   31.8970 N   0  0  0  0  0  0  0  0  0  0  0  0
   35.5660   28.7370   32.9790 C   0  0  0  0  0  0  0  0  0  0  0  0
   35.4870   30.1220   33.0470 C   0  0  0  0  0  0  0  0  0  0  0  0
   35.9690   30.8480   31.9430 C   0  0  0  0  0  0  0  0  0  0  0  0
   35.9170   32.0980   31.9620 O   0  0  0  0  0  0  0  0  0  0  0  0
   36.4890   30.1910   30.8580 N   0  0  0  0  0  0  0  0  0  0  0  0
   36.5080   28.8660   30.9170 C   0  0  0  0  0  0  0  0  0  0  0  0
   36.9930   28.3040   29.9060 O   0  0  0  0  0  0  0  0  0  0  0  0
   35.2010   28.1560   33.8180 H   0  0  0  0  0  0  0  0  0  0  0  0
   34.9250   30.7580   34.2280 C   0  0  0  0  0  3  0  0  0  0  0  0
   35.9510   31.0070   35.3220 C   0  0  0  0  0  3  0  0  0  0  0  0
   36.3060   30.0250   35.7310 H   0  0  0  0  0  0  0  0  0  0  0  0
   35.2200   31.6970   36.4540 C   0  0  0  0  0  3  0  0  0  0  0  0
   35.0760   31.0250   37.3380 H   0  0  0  0  0  0  0  0  0  0  0  0
   33.9540   32.1370   36.1010 O   0  0  0  0  0  0  0  0  0  0  0  0
   33.0950   31.1040   35.7650 C   0  0  0  0  0  3  0  0  0  0  0  0
   32.6220   30.6490   36.6430 H   0  0  0  0  0  0  0  0  0  0  0  0
   33.7690   30.0580   34.8680 C   0  0  0  0  0  3  0  0  0  0  0  0
   33.0500   29.6290   34.1440 H   0  0  0  0  0  0  0  0  0  0  0  0
   35.3230   24.5520   31.1000 C   0  0  0  0  0  0  0  0  0  0  0  0
   35.2450   25.9540   31.1490 C   0  0  0  0  0  0  0  0  0  0  0  0
   36.1560   26.7000   31.8520 C   0  0  0  0  0  0  0  0  0  0  0  0
   37.1500   26.0320   32.5100 N   0  0  0  0  0  0  0  0  0  0  0  0
   37.2440   24.6760   32.4780 C   0  0  0  0  0  0  0  0  0  0  0  0
   36.3380   23.9360   31.7790 N   0  0  0  0  0  0  0  0  0  0  0  0
   34.6480   23.9060   30.5720 H   0  0  0  0  0  0  0  0  0  0  0  0
   34.4010   26.2860   30.5850 H   0  0  0  0  0  0  0  0  0  0  0  0
   38.0600   24.2280   33.0270 H   0  0  0  0  0  0  0  0  0  0  0  0
   36.9780   30.9450   29.7190 C   0  0  0  0  0  0  0  0  0  0  0  0
   36.1150   31.9420   29.4010 F   0  0  0  0  0  0  0  0  0  0  0  0
   37.1050   30.1650   28.5820 F   0  0  0  0  0  0  0  0  0  0  0  0
   38.1990   31.5190   30.0520 F   0  0  0  0  0  0  0  0  0  0  0  0
  1  2  1  0  0  0  0
  2  3  2  0  0  0  0
  2  9  1  0  0  0  0
  3 10  1  0  0  0  0
  4  5  2  0  0  0  0
  4  3  1  0  0  0  0
  6  7  1  0  0  0  0
  6  4  1  0  0  0  0
  7  1  1  0  0  0  0
  8  7  2  0  0  0  0
 10 18  1  0  0  0  0
 10 11  1  0  0  0  0
 11 12  1  0  0  0  0
 11 13  1  0  0  0  0
 13 14  1  0  0  0  0
 15 13  1  0  0  0  0
 16 15  1  0  0  0  0
 16 17  1  0  0  0  0
 18 16  1  0  0  0  0
 19 18  1  0  0  0  0
 20 21  2  0  0  0  0
 20 25  1  0  0  0  0
 21 22  1  0  0  0  0
 22  1  1  0  0  0  0
 22 23  2  0  0  0  0
 24 23  1  0  0  0  0
 24 28  1  0  0  0  0
 25 24  2  0  0  0  0
 26 20  1  0  0  0  0
 27 21  1  0  0  0  0
 29 32  1  0  0  0  0
 29  6  1  0  0  0  0
 30 29  1  0  0  0  0
 31 29  1  0  0  0  0
M  END
>  <minimizedAffinity>
-5.27770567

$$$$
