
 OpenBabel03272506273D

 40 43  0  0  0  0  0  0  0  0999 V2000
   31.6670   26.3270   47.6360 C   0  0  0  0  0  0  0  0  0  0  0  0
   31.6730   24.9540   47.7950 C   0  0  0  0  0  0  0  0  0  0  0  0
   32.6860   24.1130   47.3420 C   0  0  0  0  0  0  0  0  0  0  0  0
   33.7820   24.6950   46.6750 C   0  0  0  0  0  0  0  0  0  0  0  0
   33.7610   26.0650   46.5260 C   0  0  0  0  0  0  0  0  0  0  0  0
   32.7640   26.8790   46.9740 C   0  0  0  0  0  0  0  0  0  0  0  0
   30.8310   24.4620   48.3110 H   0  0  0  0  0  0  0  0  0  0  0  0
   32.5780   23.0310   47.5290 H   0  0  0  0  0  0  0  0  0  0  0  0
   34.4960   23.9590   46.3730 H   0  0  0  0  0  0  0  0  0  0  0  0
   34.6520   26.3000   46.0030 H   0  0  0  0  0  0  0  0  0  0  0  0
   30.6750   27.5660   49.4570 C   0  0  0  0  0  0  0  0  0  0  0  0
   30.5370   27.0350   48.1650 C   0  0  0  0  0  0  0  0  0  0  0  0
   29.3210   27.2340   47.4960 C   0  0  0  0  0  0  0  0  0  0  0  0
   28.3310   27.9270   48.1190 N   0  0  0  0  0  0  0  0  0  0  0  0
   28.4920   28.4320   49.3770 C   0  0  0  0  0  0  0  0  0  0  0  0
   29.6650   28.2480   50.0410 N   0  0  0  0  0  0  0  0  0  0  0  0
   31.5870   27.4330   49.9990 H   0  0  0  0  0  0  0  0  0  0  0  0
   27.7110   28.9840   49.8820 H   0  0  0  0  0  0  0  0  0  0  0  0
   29.0330   26.7260   46.1240 C   0  0  0  0  0  0  0  0  0  0  0  0
   27.7890   27.2240   45.6950 F   0  0  0  0  0  0  0  0  0  0  0  0
   29.9560   27.0030   45.1840 F   0  0  0  0  0  0  0  0  0  0  0  0
   28.8310   25.3410   46.1720 F   0  0  0  0  0  0  0  0  0  0  0  0
   32.7550   28.6220   46.7760 S   0  0  0  0  0  0  0  0  0  0  0  0
   34.1290   28.4700   49.5610 Cl  0  0  0  0  0  0  0  0  0  0  0  0
   34.9240   29.2490   48.2210 C   0  0  0  0  0  0  0  0  0  0  0  0
   34.3500   29.3680   46.9560 C   0  0  0  0  0  0  0  0  0  0  0  0
   35.0080   30.0120   45.9490 C   0  0  0  0  0  0  0  0  0  0  0  0
   36.2630   30.5440   46.2090 C   0  0  0  0  0  0  0  0  0  0  0  0
   36.8440   30.4260   47.4760 C   0  0  0  0  0  0  0  0  0  0  0  0
   36.1780   29.7770   48.4940 C   0  0  0  0  0  0  0  0  0  0  0  0
   34.6430   30.1850   44.9710 H   0  0  0  0  0  0  0  0  0  0  0  0
   36.8270   31.0640   45.4400 H   0  0  0  0  0  0  0  0  0  0  0  0
   37.8340   30.8680   47.6100 H   0  0  0  0  0  0  0  0  0  0  0  0
   36.8140   29.6740   49.8020 C   0  0  0  0  0  0  0  0  0  0  0  0
   36.6770   30.6310   50.7370 N   0  0  0  0  0  0  0  0  0  0  0  0
   37.3870   30.2400   51.8380 C   0  0  0  0  0  0  0  0  0  0  0  0
   37.5720   30.6700   52.8160 H   0  0  0  0  0  0  0  0  0  0  0  0
   37.9410   29.0320   51.5240 N   0  0  0  0  0  0  0  0  0  0  0  0
   38.5520   28.3900   52.0750 H   0  0  0  0  0  0  0  0  0  0  0  0
   37.5920   28.6940   50.2940 N   0  0  0  0  0  0  0  0  0  0  0  0
  1  2  1  0  0  0  0
  1 12  1  0  0  0  0
  2  7  1  0  0  0  0
  3  8  1  0  0  0  0
  3  2  2  0  0  0  0
  4  3  1  0  0  0  0
  5  4  2  0  0  0  0
  5  6  1  0  0  0  0
  6  1  2  0  0  0  0
  9  4  1  0  0  0  0
 10  5  1  0  0  0  0
 11 17  1  0  0  0  0
 11 16  1  0  0  0  0
 12 11  2  0  0  0  0
 13 14  2  0  0  0  0
 13 12  1  0  0  0  0
 14 15  1  0  0  0  0
 15 18  1  0  0  0  0
 15 16  2  0  0  0  0
 19 22  1  0  0  0  0
 19 13  1  0  0  0  0
 20 19  1  0  0  0  0
 21 19  1  0  0  0  0
 23 26  1  0  0  0  0
 23  6  1  0  0  0  0
 25 30  1  0  0  0  0
 25 24  1  0  0  0  0
 26 25  2  0  0  0  0
 27 28  2  0  0  0  0
 27 26  1  0  0  0  0
 28 29  1  0  0  0  0
 29 33  1  0  0  0  0
 29 30  2  0  0  0  0
 30 34  1  0  0  0  0
 31 27  1  0  0  0  0
 32 28  1  0  0  0  0
 34 40  2  0  0  0  0
 34 35  1  0  0  0  0
 35 36  2  0  0  0  0
 36 37  1  0  0  0  0
 38 36  1  0  0  0  0
 38 39  1  0  0  0  0
 40 38  1  0  0  0  0
M  END
>  <minimizedAffinity>
-5.869699

>  <minimizedRMSD>
3.72531295

$$$$
