
 OpenBabel03272506123D

 42 45  0  0  1  0  0  0  0  0999 V2000
   36.7950   30.8190   47.3210 C   0  0  1  0  0  0  0  0  0  0  0  0
   35.8100   29.7430   47.9320 C   0  0  0  0  0  0  0  0  0  0  0  0
   35.3000   30.1660   49.3000 C   0  0  0  0  0  0  0  0  0  0  0  0
   36.4490   30.6600   50.1260 C   0  0  0  0  0  0  0  0  0  0  0  0
   37.7150   30.1230   49.5610 C   0  0  0  0  0  0  0  0  0  0  0  0
   37.9800   30.7680   48.2270 C   0  0  2  0  0  0  0  0  0  0  0  0
   36.4170   31.7660   47.5420 H   0  0  0  0  0  0  0  0  0  0  0  0
   36.4690   28.8710   48.0910 H   0  0  0  0  0  0  0  0  0  0  0  0
   35.0560   29.4510   47.2190 H   0  0  0  0  0  0  0  0  0  0  0  0
   34.9140   29.2450   49.7660 H   0  0  0  0  0  0  0  0  0  0  0  0
   34.4660   30.8750   49.2300 H   0  0  0  0  0  0  0  0  0  0  0  0
   36.3520   30.2750   51.1720 H   0  0  0  0  0  0  0  0  0  0  0  0
   36.4610   31.7480   50.1270 H   0  0  0  0  0  0  0  0  0  0  0  0
   37.8280   29.0420   49.5990 H   0  0  0  0  0  0  0  0  0  0  0  0
   38.5280   30.5150   50.2280 H   0  0  0  0  0  0  0  0  0  0  0  0
   38.8790   30.2630   47.8490 H   0  0  0  0  0  0  0  0  0  0  0  0
   35.9080   29.9980   45.2210 C   0  0  0  0  0  0  0  0  0  0  0  0
   36.1850   29.6440   43.8860 C   0  0  0  0  0  0  0  0  0  0  0  0
   37.4190   29.5990   43.3170 C   0  0  0  0  0  0  0  0  0  0  0  0
   38.5270   29.9180   44.0870 C   0  0  0  0  0  0  0  0  0  0  0  0
   38.2750   30.2670   45.4020 C   0  0  0  0  0  0  0  0  0  0  0  0
   37.0130   30.3150   45.9720 C   0  0  0  0  0  0  0  0  0  0  0  0
   35.4260   29.3720   43.1240 H   0  0  0  0  0  0  0  0  0  0  0  0
   37.5840   29.3330   42.3080 H   0  0  0  0  0  0  0  0  0  0  0  0
   39.5170   29.8860   43.6460 H   0  0  0  0  0  0  0  0  0  0  0  0
   39.1970   30.4800   45.9260 H   0  0  0  0  0  0  0  0  0  0  0  0
   34.0000   28.6880   45.9140 C   0  0  0  0  0  0  0  0  0  0  0  0
   34.5390   29.9410   45.5720 C   0  0  0  0  0  0  0  0  0  0  0  0
   33.6710   31.0320   45.5900 C   0  0  0  0  0  0  0  0  0  0  0  0
   32.3610   30.8150   45.9340 N   0  0  0  0  0  0  0  0  0  0  0  0
   31.8750   29.6190   46.2530 C   0  0  0  0  0  0  0  0  0  0  0  0
   32.7030   28.5650   46.2390 N   0  0  0  0  0  0  0  0  0  0  0  0
   34.4650   27.7170   45.9840 H   0  0  0  0  0  0  0  0  0  0  0  0
   33.7850   32.0160   45.3640 H   0  0  0  0  0  0  0  0  0  0  0  0
   30.8160   29.4860   46.5230 H   0  0  0  0  0  0  0  0  0  0  0  0
   38.5510   32.1620   48.4770 C   0  0  0  0  0  0  0  0  0  0  0  0
   38.6150   32.8120   49.6290 N   0  0  0  0  0  0  0  0  0  0  0  0
   39.1980   34.0320   49.4310 C   0  0  0  0  0  0  0  0  0  0  0  0
   39.4080   34.8150   50.1430 H   0  0  0  0  0  0  0  0  0  0  0  0
   39.4820   34.0920   48.1190 N   0  0  0  0  0  0  0  0  0  0  0  0
   39.9280   34.8400   47.5420 H   0  0  0  0  0  0  0  0  0  0  0  0
   39.0930   32.9730   47.5520 N   0  0  0  0  0  0  0  0  0  0  0  0
  1  7  1  6  0  0  0
  1  2  1  0  0  0  0
  1  6  1  0  0  0  0
  2  8  1  0  0  0  0
  2  3  1  0  0  0  0
  3 10  1  0  0  0  0
  3  4  1  0  0  0  0
  4 13  1  0  0  0  0
  4 12  1  0  0  0  0
  5 14  1  0  0  0  0
  5  4  1  0  0  0  0
  5 15  1  0  0  0  0
  6 16  1  6  0  0  0
  6 36  1  0  0  0  0
  6  5  1  0  0  0  0
  9  2  1  0  0  0  0
 11  3  1  0  0  0  0
 17 28  1  0  0  0  0
 17 22  1  0  0  0  0
 18 17  2  0  0  0  0
 19 18  1  0  0  0  0
 19 20  2  0  0  0  0
 20 21  1  0  0  0  0
 21 26  1  0  0  0  0
 21 22  2  0  0  0  0
 22  1  1  0  0  0  0
 23 18  1  0  0  0  0
 24 19  1  0  0  0  0
 25 20  1  0  0  0  0
 27 33  1  0  0  0  0
 27 32  1  0  0  0  0
 28 29  1  0  0  0  0
 28 27  2  0  0  0  0
 29 30  2  0  0  0  0
 30 31  1  0  0  0  0
 31 35  1  0  0  0  0
 32 31  2  0  0  0  0
 34 29  1  0  0  0  0
 36 37  1  0  0  0  0
 38 37  2  0  0  0  0
 38 39  1  0  0  0  0
 40 38  1  0  0  0  0
 41 40  1  0  0  0  0
 42 40  1  0  0  0  0
 42 36  2  0  0  0  0
M  END
>  <minimizedAffinity>
-5.90245199

>  <minimizedRMSD>
3.40109849

$$$$
