
 OpenBabel03272509403D

 33 35  0  0  0  0  0  0  0  0999 V2000
   37.0540   30.9570   49.0610 C   0  0  0  0  0  0  0  0  0  0  0  0
   36.8000   31.9070   50.0540 C   0  0  0  0  0  0  0  0  0  0  0  0
   37.4220   33.1480   50.0680 C   0  0  0  0  0  0  0  0  0  0  0  0
   38.3360   33.4660   49.0560 C   0  0  0  0  0  0  0  0  0  0  0  0
   38.5730   32.5290   48.0930 C   0  0  0  0  0  0  0  0  0  0  0  0
   37.9400   31.2980   48.1030 C   0  0  0  0  0  0  0  0  0  0  0  0
   36.0880   31.6430   50.8320 H   0  0  0  0  0  0  0  0  0  0  0  0
   37.1540   33.8090   50.8810 H   0  0  0  0  0  0  0  0  0  0  0  0
   38.7980   34.4360   49.0960 H   0  0  0  0  0  0  0  0  0  0  0  0
   39.2920   32.8590   47.3530 H   0  0  0  0  0  0  0  0  0  0  0  0
   36.3590   29.6840   49.1260 C   0  0  0  0  0  0  0  0  0  0  0  0
   36.8800   28.8350   49.9330 O   0  0  0  0  0  0  0  0  0  0  0  0
   33.6040   30.1540   46.8180 C   0  0  0  0  0  0  0  0  0  0  0  0
   32.9350   28.9430   46.8300 C   0  0  0  0  0  0  0  0  0  0  0  0
   33.4280   27.9300   47.6480 C   0  0  0  0  0  0  0  0  0  0  0  0
   34.5420   28.1720   48.3940 N   0  0  0  0  0  0  0  0  0  0  0  0
   35.1580   29.3460   48.3560 C   0  0  0  0  0  0  0  0  0  0  0  0
   34.6800   30.3320   47.5640 N   0  0  0  0  0  0  0  0  0  0  0  0
   33.1770   30.9170   46.1620 H   0  0  0  0  0  0  0  0  0  0  0  0
   32.0470   28.6890   46.2610 H   0  0  0  0  0  0  0  0  0  0  0  0
   33.0300   26.9310   47.7750 H   0  0  0  0  0  0  0  0  0  0  0  0
   38.3080   30.4230   47.0110 C   0  0  0  0  0  3  0  0  0  0  0  0
   38.8980   30.7810   45.8790 C   0  0  0  0  0  3  0  0  0  0  0  0
   39.3300   30.0150   44.7010 C   0  0  0  0  0  0  0  0  0  0  0  0
   38.6540   29.1410   44.5640 H   0  0  0  0  0  0  0  0  0  0  0  0
   40.3450   29.5790   44.7870 H   0  0  0  0  0  0  0  0  0  0  0  0
   39.2900   30.8340   43.4570 C   0  0  0  0  0  0  0  0  0  0  0  0
   39.5710   32.1460   43.2930 N   0  0  0  0  0  0  0  0  0  0  0  0
   39.3940   32.4390   41.9840 C   0  0  0  0  0  0  0  0  0  0  0  0
   39.4860   33.3190   41.3650 H   0  0  0  0  0  0  0  0  0  0  0  0
   39.0080   31.2980   41.3740 N   0  0  0  0  0  0  0  0  0  0  0  0
   38.7620   31.0540   40.3740 H   0  0  0  0  0  0  0  0  0  0  0  0
   38.9410   30.3160   42.2550 N   0  0  0  0  0  0  0  0  0  0  0  0
  1 11  1  0  0  0  0
  1  2  1  0  0  0  0
  2  3  2  0  0  0  0
  2  7  1  0  0  0  0
  3  8  1  0  0  0  0
  4  9  1  0  0  0  0
  4  3  1  0  0  0  0
  5  6  1  0  0  0  0
  5  4  2  0  0  0  0
  6  1  2  0  0  0  0
 10  5  1  0  0  0  0
 11 12  2  0  0  0  0
 13 14  2  0  0  0  0
 13 18  1  0  0  0  0
 14 15  1  0  0  0  0
 15 21  1  0  0  0  0
 15 16  2  0  0  0  0
 17 16  1  0  0  0  0
 17 11  1  0  0  0  0
 18 17  2  0  0  0  0
 19 13  1  0  0  0  0
 20 14  1  0  0  0  0
 22  6  1  0  0  0  0
 23 22  2  0  0  0  0
 24 26  1  0  0  0  0
 24 23  1  0  0  0  0
 25 24  1  0  0  0  0
 27 24  1  0  0  0  0
 28 27  1  0  0  0  0
 29 28  2  0  0  0  0
 30 29  1  0  0  0  0
 31 29  1  0  0  0  0
 31 33  1  0  0  0  0
 32 31  1  0  0  0  0
 33 27  2  0  0  0  0
M  END
>  <minimizedAffinity>
-5.71965265

>  <minimizedRMSD>
1.5632515

$$$$
