
 OpenBabel03272509103D

 38 41  0  0  0  0  0  0  0  0999 V2000
   35.0990   29.6050   33.5110 C   0  0  0  0  0  0  0  0  0  0  0  0
   34.2790   29.3560   32.7690 H   0  0  0  0  0  0  0  0  0  0  0  0
   34.5660   29.7740   34.4510 H   0  0  0  0  0  0  0  0  0  0  0  0
   35.7290   30.8300   32.9430 C   0  0  0  0  0  0  0  0  0  0  0  0
   36.2540   30.8760   31.6550 C   0  0  0  0  0  0  0  0  0  0  0  0
   36.8380   32.0040   31.1450 C   0  0  0  0  0  0  0  0  0  0  0  0
   36.9220   33.1510   31.9070 C   0  0  0  0  0  0  0  0  0  0  0  0
   36.4070   33.1130   33.1740 C   0  0  0  0  0  0  0  0  0  0  0  0
   35.8190   31.9800   33.6930 C   0  0  0  0  0  0  0  0  0  0  0  0
   36.1610   29.9350   31.0910 H   0  0  0  0  0  0  0  0  0  0  0  0
   37.1960   31.8800   30.1340 H   0  0  0  0  0  0  0  0  0  0  0  0
   37.3900   34.0140   31.4610 H   0  0  0  0  0  0  0  0  0  0  0  0
   36.4960   34.0350   33.7320 H   0  0  0  0  0  0  0  0  0  0  0  0
   35.3090   32.0770   35.0560 C   0  0  0  0  0  0  0  0  0  0  0  0
   34.1080   32.5740   35.3970 N   0  0  0  0  0  0  0  0  0  0  0  0
   33.9030   32.5380   36.7220 C   0  0  0  0  0  0  0  0  0  0  0  0
   32.9850   32.9010   37.1600 H   0  0  0  0  0  0  0  0  0  0  0  0
   35.0210   31.9960   37.2220 N   0  0  0  0  0  0  0  0  0  0  0  0
   35.1520   31.8400   38.2510 H   0  0  0  0  0  0  0  0  0  0  0  0
   35.8390   31.7300   36.2380 N   0  0  0  0  0  0  0  0  0  0  0  0
   36.6400   27.9500   34.5390 C   0  0  0  0  0  3  0  0  0  0  0  0
   35.9870   28.4320   33.5100 C   0  0  0  0  0  3  0  0  0  0  0  0
   38.7540   25.3710   33.0590 C   0  0  0  0  0  0  0  0  0  0  0  0
   39.0230   24.5410   34.1680 C   0  0  0  0  0  0  0  0  0  0  0  0
   38.4600   24.9030   35.4050 C   0  0  0  0  0  0  0  0  0  0  0  0
   37.6810   26.0370   35.4740 N   0  0  0  0  0  0  0  0  0  0  0  0
   37.4730   26.7810   34.3520 C   0  0  0  0  0  0  0  0  0  0  0  0
   37.9970   26.4540   33.1740 N   0  0  0  0  0  0  0  0  0  0  0  0
   39.2300   25.0060   32.1610 H   0  0  0  0  0  0  0  0  0  0  0  0
   39.6160   23.6470   34.1940 H   0  0  0  0  0  0  0  0  0  0  0  0
   38.6590   24.1240   36.6350 C   0  0  0  0  0  0  0  0  0  0  0  0
   37.9420   24.3480   37.7820 C   0  0  0  0  0  0  0  0  0  0  0  0
   38.3910   23.4320   38.7390 C   0  0  0  0  0  0  0  0  0  0  0  0
   39.3620   22.6950   38.1250 N   0  0  0  0  0  0  0  0  0  0  0  0
   39.5150   23.1120   36.8790 N   0  0  0  0  0  0  0  0  0  0  0  0
   37.1580   25.0560   38.0330 H   0  0  0  0  0  0  0  0  0  0  0  0
   38.0360   23.3330   39.7570 H   0  0  0  0  0  0  0  0  0  0  0  0
   39.8670   21.9280   38.6310 H   0  0  0  0  0  0  0  0  0  0  0  0
  1  3  1  0  0  0  0
  2  1  1  0  0  0  0
  4  1  1  0  0  0  0
  4  9  1  0  0  0  0
  5  4  2  0  0  0  0
  6  5  1  0  0  0  0
  6  7  2  0  0  0  0
  7  8  1  0  0  0  0
  8  9  2  0  0  0  0
  8 13  1  0  0  0  0
  9 14  1  0  0  0  0
 10  5  1  0  0  0  0
 11  6  1  0  0  0  0
 12  7  1  0  0  0  0
 14 15  1  0  0  0  0
 14 20  2  0  0  0  0
 15 16  2  0  0  0  0
 16 17  1  0  0  0  0
 16 18  1  0  0  0  0
 18 19  1  0  0  0  0
 20 18  1  0  0  0  0
 22  1  1  0  0  0  0
 22 21  2  0  0  0  0
 23 28  2  0  0  0  0
 23 24  1  0  0  0  0
 24 30  1  0  0  0  0
 24 25  2  0  0  0  0
 25 26  1  0  0  0  0
 25 31  1  0  0  0  0
 27 21  1  0  0  0  0
 27 26  2  0  0  0  0
 28 27  1  0  0  0  0
 29 23  1  0  0  0  0
 31 35  2  0  0  0  0
 31 32  1  0  0  0  0
 32 36  1  0  0  0  0
 32 33  2  0  0  0  0
 33 37  1  0  0  0  0
 34 38  1  0  0  0  0
 34 33  1  0  0  0  0
 35 34  1  0  0  0  0
M  END
>  <minimizedAffinity>
-6.35310984

$$$$

 OpenBabel03272509103D

 38 41  0  0  0  0  0  0  0  0999 V2000
   35.0290   29.3380   34.1030 C   0  0  0  0  0  0  0  0  0  0  0  0
   35.2320   29.9060   33.1440 H   0  0  0  0  0  0  0  0  0  0  0  0
   34.1480   28.7310   33.8730 H   0  0  0  0  0  0  0  0  0  0  0  0
   34.7800   30.4130   35.1040 C   0  0  0  0  0  0  0  0  0  0  0  0
   35.7630   31.3180   35.4950 C   0  0  0  0  0  0  0  0  0  0  0  0
   35.5250   32.2980   36.4210 C   0  0  0  0  0  0  0  0  0  0  0  0
   34.2800   32.4210   37.0030 C   0  0  0  0  0  0  0  0  0  0  0  0
   33.3090   31.5340   36.6220 C   0  0  0  0  0  0  0  0  0  0  0  0
   33.5420   30.5450   35.6920 C   0  0  0  0  0  0  0  0  0  0  0  0
   36.7360   31.1760   35.0000 H   0  0  0  0  0  0  0  0  0  0  0  0
   36.3870   32.9170   36.6170 H   0  0  0  0  0  0  0  0  0  0  0  0
   34.1420   33.2080   37.7260 H   0  0  0  0  0  0  0  0  0  0  0  0
   32.3520   31.6700   37.1060 H   0  0  0  0  0  0  0  0  0  0  0  0
   32.4190   29.6710   35.3760 C   0  0  0  0  0  0  0  0  0  0  0  0
   32.1010   28.5500   36.0460 N   0  0  0  0  0  0  0  0  0  0  0  0
   31.0190   27.9450   35.5360 C   0  0  0  0  0  0  0  0  0  0  0  0
   30.6310   27.0310   35.9610 H   0  0  0  0  0  0  0  0  0  0  0  0
   30.6500   28.7220   34.5090 N   0  0  0  0  0  0  0  0  0  0  0  0
   29.8190   28.4960   33.9100 H   0  0  0  0  0  0  0  0  0  0  0  0
   31.4770   29.7300   34.4230 N   0  0  0  0  0  0  0  0  0  0  0  0
   36.6480   27.4920   33.7220 C   0  0  0  0  0  3  0  0  0  0  0  0
   36.2560   28.5680   34.3600 C   0  0  0  0  0  3  0  0  0  0  0  0
   40.1600   26.5260   33.9250 C   0  0  0  0  0  0  0  0  0  0  0  0
   40.1440   25.5830   34.9740 C   0  0  0  0  0  0  0  0  0  0  0  0
   38.9070   25.3080   35.5850 C   0  0  0  0  0  0  0  0  0  0  0  0
   37.7840   25.9650   35.1340 N   0  0  0  0  0  0  0  0  0  0  0  0
   37.8910   26.8610   34.1140 C   0  0  0  0  0  0  0  0  0  0  0  0
   39.0520   27.1340   33.5250 N   0  0  0  0  0  0  0  0  0  0  0  0
   41.1540   26.6640   33.5260 H   0  0  0  0  0  0  0  0  0  0  0  0
   40.9720   25.0340   35.3790 H   0  0  0  0  0  0  0  0  0  0  0  0
   38.7520   24.3460   36.6850 C   0  0  0  0  0  0  0  0  0  0  0  0
   37.7760   24.4590   37.6410 C   0  0  0  0  0  0  0  0  0  0  0  0
   37.9260   23.3800   38.5190 C   0  0  0  0  0  0  0  0  0  0  0  0
   38.9890   22.6630   38.0520 N   0  0  0  0  0  0  0  0  0  0  0  0
   39.4730   23.2430   36.9660 N   0  0  0  0  0  0  0  0  0  0  0  0
   36.9850   25.1860   37.8020 H   0  0  0  0  0  0  0  0  0  0  0  0
   37.3180   23.1650   39.3890 H   0  0  0  0  0  0  0  0  0  0  0  0
   39.3150   21.7920   38.5360 H   0  0  0  0  0  0  0  0  0  0  0  0
  1 22  1  0  0  0  0
  1  4  1  0  0  0  0
  2  1  1  0  0  0  0
  3  1  1  0  0  0  0
  4  5  2  0  0  0  0
  4  9  1  0  0  0  0
  5  6  1  0  0  0  0
  6 11  1  0  0  0  0
  6  7  2  0  0  0  0
  7 12  1  0  0  0  0
  8  7  1  0  0  0  0
  8 13  1  0  0  0  0
  9  8  2  0  0  0  0
 10  5  1  0  0  0  0
 14  9  1  0  0  0  0
 14 15  1  0  0  0  0
 16 17  1  0  0  0  0
 16 15  2  0  0  0  0
 18 16  1  0  0  0  0
 19 18  1  0  0  0  0
 20 18  1  0  0  0  0
 20 14  2  0  0  0  0
 21 27  1  0  0  0  0
 21 22  2  0  0  0  0
 23 24  1  0  0  0  0
 24 30  1  0  0  0  0
 24 25  2  0  0  0  0
 25 31  1  0  0  0  0
 26 25  1  0  0  0  0
 27 26  2  0  0  0  0
 28 23  2  0  0  0  0
 28 27  1  0  0  0  0
 29 23  1  0  0  0  0
 31 35  2  0  0  0  0
 31 32  1  0  0  0  0
 32 36  1  0  0  0  0
 32 33  2  0  0  0  0
 33 37  1  0  0  0  0
 34 33  1  0  0  0  0
 34 38  1  0  0  0  0
 35 34  1  0  0  0  0
M  END
>  <minimizedAffinity>
-6.33928299

$$$$

 OpenBabel03272509103D

 38 41  0  0  0  0  0  0  0  0999 V2000
   35.4470   30.0150   33.9520 C   0  0  0  0  0  0  0  0  0  0  0  0
   35.7170   30.3770   34.9910 H   0  0  0  0  0  0  0  0  0  0  0  0
   35.9000   30.7560   33.2860 H   0  0  0  0  0  0  0  0  0  0  0  0
   33.9570   30.0270   33.9490 C   0  0  0  0  0  0  0  0  0  0  0  0
   33.2020   29.2330   33.0910 C   0  0  0  0  0  0  0  0  0  0  0  0
   31.8330   29.2560   33.0920 C   0  0  0  0  0  0  0  0  0  0  0  0
   31.1490   30.0820   33.9600 C   0  0  0  0  0  0  0  0  0  0  0  0
   31.8870   30.8650   34.8080 C   0  0  0  0  0  0  0  0  0  0  0  0
   33.2640   30.8470   34.8110 C   0  0  0  0  0  0  0  0  0  0  0  0
   33.7960   28.5940   32.4210 H   0  0  0  0  0  0  0  0  0  0  0  0
   31.3950   28.5850   32.3690 H   0  0  0  0  0  0  0  0  0  0  0  0
   30.0720   30.0650   33.9230 H   0  0  0  0  0  0  0  0  0  0  0  0
   31.3070   31.4950   35.4680 H   0  0  0  0  0  0  0  0  0  0  0  0
   33.9250   31.7290   35.7660 C   0  0  0  0  0  0  0  0  0  0  0  0
   34.4600   32.9260   35.4690 N   0  0  0  0  0  0  0  0  0  0  0  0
   35.0000   33.5190   36.5430 C   0  0  0  0  0  0  0  0  0  0  0  0
   35.4720   34.4880   36.4740 H   0  0  0  0  0  0  0  0  0  0  0  0
   34.7920   32.6570   37.5470 N   0  0  0  0  0  0  0  0  0  0  0  0
   35.1110   32.8530   38.5260 H   0  0  0  0  0  0  0  0  0  0  0  0
   34.1610   31.6110   37.0810 N   0  0  0  0  0  0  0  0  0  0  0  0
   36.6860   28.0310   34.7900 C   0  0  0  0  0  3  0  0  0  0  0  0
   36.0250   28.6660   33.8530 C   0  0  0  0  0  3  0  0  0  0  0  0
   37.7000   24.9670   33.0880 C   0  0  0  0  0  0  0  0  0  0  0  0
   38.1550   24.1730   34.1620 C   0  0  0  0  0  0  0  0  0  0  0  0
   38.0970   24.7270   35.4520 C   0  0  0  0  0  0  0  0  0  0  0  0
   37.6040   26.0040   35.6060 N   0  0  0  0  0  0  0  0  0  0  0  0
   37.1850   26.7000   34.5120 C   0  0  0  0  0  0  0  0  0  0  0  0
   37.2330   26.1920   33.2840 N   0  0  0  0  0  0  0  0  0  0  0  0
   37.7860   24.4510   32.1430 H   0  0  0  0  0  0  0  0  0  0  0  0
   38.5500   23.1760   34.1220 H   0  0  0  0  0  0  0  0  0  0  0  0
   38.5360   24.0050   36.6550 C   0  0  0  0  0  0  0  0  0  0  0  0
   38.0280   24.2600   37.9030 C   0  0  0  0  0  0  0  0  0  0  0  0
   38.6680   23.3950   38.7970 C   0  0  0  0  0  0  0  0  0  0  0  0
   39.5350   22.6560   38.0470 N   0  0  0  0  0  0  0  0  0  0  0  0
   39.4500   23.0240   36.7790 N   0  0  0  0  0  0  0  0  0  0  0  0
   37.2790   24.9600   38.2640 H   0  0  0  0  0  0  0  0  0  0  0  0
   38.5020   23.3310   39.8650 H   0  0  0  0  0  0  0  0  0  0  0  0
   40.1450   21.9230   38.4820 H   0  0  0  0  0  0  0  0  0  0  0  0
  1  2  1  0  0  0  0
  3  1  1  0  0  0  0
  4  1  1  0  0  0  0
  4  9  1  0  0  0  0
  5  6  1  0  0  0  0
  5  4  2  0  0  0  0
  6  7  2  0  0  0  0
  7  8  1  0  0  0  0
  8  9  2  0  0  0  0
  8 13  1  0  0  0  0
  9 14  1  0  0  0  0
 10  5  1  0  0  0  0
 11  6  1  0  0  0  0
 12  7  1  0  0  0  0
 14 20  2  0  0  0  0
 15 14  1  0  0  0  0
 15 16  2  0  0  0  0
 16 18  1  0  0  0  0
 17 16  1  0  0  0  0
 18 19  1  0  0  0  0
 20 18  1  0  0  0  0
 22  1  1  0  0  0  0
 22 21  2  0  0  0  0
 23 28  2  0  0  0  0
 23 24  1  0  0  0  0
 24 25  2  0  0  0  0
 25 26  1  0  0  0  0
 25 31  1  0  0  0  0
 27 21  1  0  0  0  0
 27 26  2  0  0  0  0
 28 27  1  0  0  0  0
 29 23  1  0  0  0  0
 30 24  1  0  0  0  0
 31 35  2  0  0  0  0
 31 32  1  0  0  0  0
 32 36  1  0  0  0  0
 32 33  2  0  0  0  0
 33 37  1  0  0  0  0
 34 38  1  0  0  0  0
 34 33  1  0  0  0  0
 35 34  1  0  0  0  0
M  END
>  <minimizedAffinity>
-6.28953934

$$$$

 OpenBabel03272509103D

 38 41  0  0  0  0  0  0  0  0999 V2000
   38.9970   25.3380   34.6100 C   0  0  0  0  0  0  0  0  0  0  0  0
   40.0010   25.3850   34.0870 H   0  0  0  0  0  0  0  0  0  0  0  0
   39.2520   25.2900   35.6740 H   0  0  0  0  0  0  0  0  0  0  0  0
   38.3800   24.0900   34.0780 C   0  0  0  0  0  0  0  0  0  0  0  0
   38.0390   23.9330   32.7380 C   0  0  0  0  0  0  0  0  0  0  0  0
   37.4670   22.7850   32.2610 C   0  0  0  0  0  0  0  0  0  0  0  0
   37.2070   21.7300   33.1100 C   0  0  0  0  0  0  0  0  0  0  0  0
   37.5400   21.8770   34.4300 C   0  0  0  0  0  0  0  0  0  0  0  0
   38.1160   23.0300   34.9170 C   0  0  0  0  0  0  0  0  0  0  0  0
   38.2680   24.8040   32.1050 H   0  0  0  0  0  0  0  0  0  0  0  0
   37.2620   22.8190   31.2020 H   0  0  0  0  0  0  0  0  0  0  0  0
   36.7550   20.8470   32.6870 H   0  0  0  0  0  0  0  0  0  0  0  0
   37.3170   21.0250   35.0560 H   0  0  0  0  0  0  0  0  0  0  0  0
   38.4230   23.0540   36.3420 C   0  0  0  0  0  0  0  0  0  0  0  0
   37.5990   23.5110   37.3010 N   0  0  0  0  0  0  0  0  0  0  0  0
   38.1410   23.4100   38.5230 C   0  0  0  0  0  0  0  0  0  0  0  0
   37.6070   23.7340   39.4050 H   0  0  0  0  0  0  0  0  0  0  0  0
   39.3490   22.8690   38.3150 N   0  0  0  0  0  0  0  0  0  0  0  0
   40.0130   22.6690   39.1000 H   0  0  0  0  0  0  0  0  0  0  0  0
   39.5040   22.6650   37.0330 N   0  0  0  0  0  0  0  0  0  0  0  0
   37.0570   26.8850   34.4970 C   0  0  0  0  0  3  0  0  0  0  0  0
   38.2930   26.5630   34.2020 C   0  0  0  0  0  3  0  0  0  0  0  0
   36.0110   29.6190   32.3190 C   0  0  0  0  0  0  0  0  0  0  0  0
   35.4900   30.5470   33.2450 C   0  0  0  0  0  0  0  0  0  0  0  0
   35.5170   30.1950   34.6060 C   0  0  0  0  0  0  0  0  0  0  0  0
   36.0440   28.9750   34.9660 N   0  0  0  0  0  0  0  0  0  0  0  0
   36.5260   28.1390   34.0050 C   0  0  0  0  0  0  0  0  0  0  0  0
   36.5090   28.4550   32.7130 N   0  0  0  0  0  0  0  0  0  0  0  0
   35.9440   29.9840   31.3050 H   0  0  0  0  0  0  0  0  0  0  0  0
   35.0650   31.5110   33.0420 H   0  0  0  0  0  0  0  0  0  0  0  0
   35.0090   31.0720   35.6710 C   0  0  0  0  0  0  0  0  0  0  0  0
   33.6790   31.1610   35.9910 C   0  0  0  0  0  0  0  0  0  0  0  0
   33.5640   32.0800   37.0390 C   0  0  0  0  0  0  0  0  0  0  0  0
   34.8320   32.5060   37.3050 N   0  0  0  0  0  0  0  0  0  0  0  0
   35.6830   31.9040   36.4890 N   0  0  0  0  0  0  0  0  0  0  0  0
   32.7930   30.6750   35.5940 H   0  0  0  0  0  0  0  0  0  0  0  0
   32.6500   32.3860   37.5340 H   0  0  0  0  0  0  0  0  0  0  0  0
   35.0270   33.2080   38.0600 H   0  0  0  0  0  0  0  0  0  0  0  0
  1  3  1  0  0  0  0
  2  1  1  0  0  0  0
  4  1  1  0  0  0  0
  4  9  1  0  0  0  0
  5  4  2  0  0  0  0
  6  5  1  0  0  0  0
  6  7  2  0  0  0  0
  7  8  1  0  0  0  0
  8  9  2  0  0  0  0
  8 13  1  0  0  0  0
  9 14  1  0  0  0  0
 10  5  1  0  0  0  0
 11  6  1  0  0  0  0
 12  7  1  0  0  0  0
 14 20  2  0  0  0  0
 14 15  1  0  0  0  0
 15 16  2  0  0  0  0
 16 17  1  0  0  0  0
 18 16  1  0  0  0  0
 18 19  1  0  0  0  0
 20 18  1  0  0  0  0
 22 21  2  0  0  0  0
 22  1  1  0  0  0  0
 23 28  2  0  0  0  0
 23 24  1  0  0  0  0
 24 25  2  0  0  0  0
 25 26  1  0  0  0  0
 25 31  1  0  0  0  0
 27 21  1  0  0  0  0
 27 26  2  0  0  0  0
 28 27  1  0  0  0  0
 29 23  1  0  0  0  0
 30 24  1  0  0  0  0
 31 32  1  0  0  0  0
 31 35  2  0  0  0  0
 32 33  2  0  0  0  0
 33 34  1  0  0  0  0
 33 37  1  0  0  0  0
 34 38  1  0  0  0  0
 35 34  1  0  0  0  0
 36 32  1  0  0  0  0
M  END
>  <minimizedAffinity>
-6.05456352

$$$$

 OpenBabel03272509103D

 38 41  0  0  0  0  0  0  0  0999 V2000
   35.9530   28.6930   34.5330 C   0  0  0  0  0  0  0  0  0  0  0  0
   35.1020   27.9620   34.3780 H   0  0  0  0  0  0  0  0  0  0  0  0
   35.8080   29.0590   35.5550 H   0  0  0  0  0  0  0  0  0  0  0  0
   35.7290   29.7250   33.4820 C   0  0  0  0  0  0  0  0  0  0  0  0
   35.9720   29.4870   32.1330 C   0  0  0  0  0  0  0  0  0  0  0  0
   35.7690   30.4440   31.1750 C   0  0  0  0  0  0  0  0  0  0  0  0
   35.3080   31.6960   31.5270 C   0  0  0  0  0  0  0  0  0  0  0  0
   35.0660   31.9360   32.8530 C   0  0  0  0  0  0  0  0  0  0  0  0
   35.2690   30.9770   33.8210 C   0  0  0  0  0  0  0  0  0  0  0  0
   36.3370   28.4730   31.9070 H   0  0  0  0  0  0  0  0  0  0  0  0
   36.0030   30.1050   30.1770 H   0  0  0  0  0  0  0  0  0  0  0  0
   35.1640   32.4150   30.7370 H   0  0  0  0  0  0  0  0  0  0  0  0
   34.7070   32.9300   33.0780 H   0  0  0  0  0  0  0  0  0  0  0  0
   34.9700   31.3650   35.1940 C   0  0  0  0  0  0  0  0  0  0  0  0
   33.7510   31.3290   35.7590 N   0  0  0  0  0  0  0  0  0  0  0  0
   33.7720   31.7400   37.0350 C   0  0  0  0  0  0  0  0  0  0  0  0
   32.8720   31.7710   37.6320 H   0  0  0  0  0  0  0  0  0  0  0  0
   35.0550   32.0430   37.2720 N   0  0  0  0  0  0  0  0  0  0  0  0
   35.3810   32.3990   38.2030 H   0  0  0  0  0  0  0  0  0  0  0  0
   35.7490   31.8200   36.1870 N   0  0  0  0  0  0  0  0  0  0  0  0
   37.8830   27.3090   35.2640 C   0  0  0  0  0  3  0  0  0  0  0  0
   37.1790   27.9040   34.3320 C   0  0  0  0  0  3  0  0  0  0  0  0
   40.9610   26.2700   33.6030 C   0  0  0  0  0  0  0  0  0  0  0  0
   41.2630   25.0660   34.2740 C   0  0  0  0  0  0  0  0  0  0  0  0
   40.3850   24.6480   35.2900 C   0  0  0  0  0  0  0  0  0  0  0  0
   39.2850   25.4240   35.5780 N   0  0  0  0  0  0  0  0  0  0  0  0
   39.0690   26.5730   34.8790 C   0  0  0  0  0  0  0  0  0  0  0  0
   39.8880   26.9840   33.9150 N   0  0  0  0  0  0  0  0  0  0  0  0
   41.6940   26.5000   32.8440 H   0  0  0  0  0  0  0  0  0  0  0  0
   42.0960   24.4100   34.1080 H   0  0  0  0  0  0  0  0  0  0  0  0
   40.5830   23.4130   36.0630 C   0  0  0  0  0  0  0  0  0  0  0  0
   41.8230   22.9540   36.4280 C   0  0  0  0  0  0  0  0  0  0  0  0
   41.6320   21.7690   37.1460 C   0  0  0  0  0  0  0  0  0  0  0  0
   40.2840   21.5650   37.1820 N   0  0  0  0  0  0  0  0  0  0  0  0
   39.6700   22.5440   36.5370 N   0  0  0  0  0  0  0  0  0  0  0  0
   42.8260   23.3350   36.2610 H   0  0  0  0  0  0  0  0  0  0  0  0
   42.4040   21.1460   37.5820 H   0  0  0  0  0  0  0  0  0  0  0  0
   39.8700   20.7330   37.6680 H   0  0  0  0  0  0  0  0  0  0  0  0
  1  3  1  0  0  0  0
  2  1  1  0  0  0  0
  4  9  1  0  0  0  0
  4  1  1  0  0  0  0
  5  4  2  0  0  0  0
  6  7  2  0  0  0  0
  6  5  1  0  0  0  0
  7  8  1  0  0  0  0
  8 13  1  0  0  0  0
  8  9  2  0  0  0  0
  9 14  1  0  0  0  0
 10  5  1  0  0  0  0
 11  6  1  0  0  0  0
 12  7  1  0  0  0  0
 14 15  1  0  0  0  0
 14 20  2  0  0  0  0
 15 16  2  0  0  0  0
 16 18  1  0  0  0  0
 16 17  1  0  0  0  0
 18 19  1  0  0  0  0
 20 18  1  0  0  0  0
 22  1  1  0  0  0  0
 22 21  2  0  0  0  0
 23 28  2  0  0  0  0
 23 24  1  0  0  0  0
 24 25  2  0  0  0  0
 25 26  1  0  0  0  0
 25 31  1  0  0  0  0
 27 21  1  0  0  0  0
 27 26  2  0  0  0  0
 28 27  1  0  0  0  0
 29 23  1  0  0  0  0
 30 24  1  0  0  0  0
 31 32  1  0  0  0  0
 31 35  2  0  0  0  0
 32 33  2  0  0  0  0
 33 34  1  0  0  0  0
 33 37  1  0  0  0  0
 34 38  1  0  0  0  0
 35 34  1  0  0  0  0
 36 32  1  0  0  0  0
M  END
>  <minimizedAffinity>
-5.97586966

$$$$

 OpenBabel03272509103D

 38 41  0  0  0  0  0  0  0  0999 V2000
   38.5880   26.4620   35.8690 C   0  0  0  0  0  0  0  0  0  0  0  0
   39.0380   26.9220   36.8010 H   0  0  0  0  0  0  0  0  0  0  0  0
   38.0850   25.5600   36.2330 H   0  0  0  0  0  0  0  0  0  0  0  0
   39.7700   26.1890   35.0030 C   0  0  0  0  0  0  0  0  0  0  0  0
   40.5470   27.2030   34.4530 C   0  0  0  0  0  0  0  0  0  0  0  0
   41.6270   26.9420   33.6530 C   0  0  0  0  0  0  0  0  0  0  0  0
   41.9840   25.6400   33.3650 C   0  0  0  0  0  0  0  0  0  0  0  0
   41.2240   24.6370   33.9050 C   0  0  0  0  0  0  0  0  0  0  0  0
   40.1350   24.8940   34.7100 C   0  0  0  0  0  0  0  0  0  0  0  0
   40.2200   28.2210   34.7140 H   0  0  0  0  0  0  0  0  0  0  0  0
   42.1260   27.8330   33.3050 H   0  0  0  0  0  0  0  0  0  0  0  0
   42.8420   25.4860   32.7310 H   0  0  0  0  0  0  0  0  0  0  0  0
   41.5420   23.6360   33.6510 H   0  0  0  0  0  0  0  0  0  0  0  0
   39.4140   23.7340   35.2190 C   0  0  0  0  0  0  0  0  0  0  0  0
   38.3790   23.1360   34.6050 N   0  0  0  0  0  0  0  0  0  0  0  0
   37.9110   22.0910   35.3010 C   0  0  0  0  0  0  0  0  0  0  0  0
   37.0790   21.5020   34.9430 H   0  0  0  0  0  0  0  0  0  0  0  0
   38.6870   22.0370   36.3920 N   0  0  0  0  0  0  0  0  0  0  0  0
   38.5550   21.3080   37.1340 H   0  0  0  0  0  0  0  0  0  0  0  0
   39.5640   23.0040   36.3350 N   0  0  0  0  0  0  0  0  0  0  0  0
   36.9930   27.4120   34.2180 C   0  0  0  0  0  3  0  0  0  0  0  0
   37.6870   27.4910   35.3280 C   0  0  0  0  0  3  0  0  0  0  0  0
   34.9960   29.7830   32.2950 C   0  0  0  0  0  0  0  0  0  0  0  0
   34.5740   30.6870   33.2930 C   0  0  0  0  0  0  0  0  0  0  0  0
   34.9970   30.4460   34.6120 C   0  0  0  0  0  0  0  0  0  0  0  0
   35.7940   29.3510   34.8640 N   0  0  0  0  0  0  0  0  0  0  0  0
   36.1550   28.5300   33.8390 C   0  0  0  0  0  0  0  0  0  0  0  0
   35.7640   28.7430   32.5860 N   0  0  0  0  0  0  0  0  0  0  0  0
   34.6190   30.0580   31.3210 H   0  0  0  0  0  0  0  0  0  0  0  0
   33.9560   31.5570   33.1760 H   0  0  0  0  0  0  0  0  0  0  0  0
   34.6310   31.3110   35.7430 C   0  0  0  0  0  0  0  0  0  0  0  0
   33.3380   31.6860   36.0050 C   0  0  0  0  0  0  0  0  0  0  0  0
   33.3640   32.4990   37.1430 C   0  0  0  0  0  0  0  0  0  0  0  0
   34.6730   32.5780   37.5170 N   0  0  0  0  0  0  0  0  0  0  0  0
   35.4170   31.8720   36.6820 N   0  0  0  0  0  0  0  0  0  0  0  0
   32.3950   31.4680   35.5130 H   0  0  0  0  0  0  0  0  0  0  0  0
   32.5130   32.9660   37.6240 H   0  0  0  0  0  0  0  0  0  0  0  0
   34.9700   33.1360   38.3550 H   0  0  0  0  0  0  0  0  0  0  0  0
  1  3  1  0  0  0  0
  1  2  1  0  0  0  0
  4  1  1  0  0  0  0
  5 10  1  0  0  0  0
  5  4  2  0  0  0  0
  6  5  1  0  0  0  0
  7  6  2  0  0  0  0
  7  8  1  0  0  0  0
  8  9  2  0  0  0  0
  9  4  1  0  0  0  0
  9 14  1  0  0  0  0
 11  6  1  0  0  0  0
 12  7  1  0  0  0  0
 13  8  1  0  0  0  0
 14 20  2  0  0  0  0
 15 14  1  0  0  0  0
 15 16  2  0  0  0  0
 16 18  1  0  0  0  0
 17 16  1  0  0  0  0
 18 19  1  0  0  0  0
 20 18  1  0  0  0  0
 21 22  2  0  0  0  0
 22  1  1  0  0  0  0
 23 28  2  0  0  0  0
 23 24  1  0  0  0  0
 24 25  2  0  0  0  0
 25 26  1  0  0  0  0
 25 31  1  0  0  0  0
 27 21  1  0  0  0  0
 27 26  2  0  0  0  0
 28 27  1  0  0  0  0
 29 23  1  0  0  0  0
 30 24  1  0  0  0  0
 31 32  1  0  0  0  0
 31 35  2  0  0  0  0
 32 33  2  0  0  0  0
 33 34  1  0  0  0  0
 33 37  1  0  0  0  0
 34 38  1  0  0  0  0
 35 34  1  0  0  0  0
 36 32  1  0  0  0  0
M  END
>  <minimizedAffinity>
-5.95792627

$$$$

 OpenBabel03272509103D

 38 41  0  0  0  0  0  0  0  0999 V2000
   38.7580   25.4310   34.8030 C   0  0  0  0  0  0  0  0  0  0  0  0
   39.8540   25.4670   34.5190 H   0  0  0  0  0  0  0  0  0  0  0  0
   38.7650   25.4690   35.8970 H   0  0  0  0  0  0  0  0  0  0  0  0
   38.2900   24.1310   34.2440 C   0  0  0  0  0  0  0  0  0  0  0  0
   37.9370   23.9730   32.9080 C   0  0  0  0  0  0  0  0  0  0  0  0
   37.5010   22.7760   32.4060 C   0  0  0  0  0  0  0  0  0  0  0  0
   37.4000   21.6710   33.2260 C   0  0  0  0  0  0  0  0  0  0  0  0
   37.7470   21.8200   34.5420 C   0  0  0  0  0  0  0  0  0  0  0  0
   38.1850   23.0220   35.0530 C   0  0  0  0  0  0  0  0  0  0  0  0
   38.0360   24.8840   32.2990 H   0  0  0  0  0  0  0  0  0  0  0  0
   37.2660   22.8150   31.3530 H   0  0  0  0  0  0  0  0  0  0  0  0
   37.0520   20.7510   32.7840 H   0  0  0  0  0  0  0  0  0  0  0  0
   37.6510   20.9270   35.1430 H   0  0  0  0  0  0  0  0  0  0  0  0
   38.5240   23.0420   36.4710 C   0  0  0  0  0  0  0  0  0  0  0  0
   37.7200   23.4880   37.4510 N   0  0  0  0  0  0  0  0  0  0  0  0
   38.2900   23.3860   38.6600 C   0  0  0  0  0  0  0  0  0  0  0  0
   37.7740   23.7020   39.5550 H   0  0  0  0  0  0  0  0  0  0  0  0
   39.4960   22.8550   38.4210 N   0  0  0  0  0  0  0  0  0  0  0  0
   40.1800   22.6570   39.1900 H   0  0  0  0  0  0  0  0  0  0  0  0
   39.6240   22.6580   37.1350 N   0  0  0  0  0  0  0  0  0  0  0  0
   36.9940   27.1420   34.4410 C   0  0  0  0  0  3  0  0  0  0  0  0
   38.1540   26.6040   34.1520 C   0  0  0  0  0  3  0  0  0  0  0  0
   35.4420   30.3040   33.4910 C   0  0  0  0  0  0  0  0  0  0  0  0
   35.8140   30.4170   32.1340 C   0  0  0  0  0  0  0  0  0  0  0  0
   36.5980   29.3870   31.5860 C   0  0  0  0  0  0  0  0  0  0  0  0
   36.9610   28.3290   32.3900 N   0  0  0  0  0  0  0  0  0  0  0  0
   36.5560   28.3000   33.6900 C   0  0  0  0  0  0  0  0  0  0  0  0
   35.8140   29.2660   34.2260 N   0  0  0  0  0  0  0  0  0  0  0  0
   34.8430   31.1430   33.8120 H   0  0  0  0  0  0  0  0  0  0  0  0
   35.5730   31.2060   31.4480 H   0  0  0  0  0  0  0  0  0  0  0  0
   37.0510   29.3810   30.1880 C   0  0  0  0  0  0  0  0  0  0  0  0
   37.3690   30.5260   29.5040 C   0  0  0  0  0  0  0  0  0  0  0  0
   37.7560   30.1460   28.2140 C   0  0  0  0  0  0  0  0  0  0  0  0
   37.6530   28.7870   28.1780 N   0  0  0  0  0  0  0  0  0  0  0  0
   37.2340   28.3410   29.3510 N   0  0  0  0  0  0  0  0  0  0  0  0
   37.3680   31.5750   29.7850 H   0  0  0  0  0  0  0  0  0  0  0  0
   38.0720   30.8040   27.4140 H   0  0  0  0  0  0  0  0  0  0  0  0
   37.8880   28.2440   27.3120 H   0  0  0  0  0  0  0  0  0  0  0  0
  1  3  1  0  0  0  0
  2  1  1  0  0  0  0
  4  1  1  0  0  0  0
  4  9  1  0  0  0  0
  5  4  2  0  0  0  0
  6  5  1  0  0  0  0
  6  7  2  0  0  0  0
  7  8  1  0  0  0  0
  8  9  2  0  0  0  0
  8 13  1  0  0  0  0
  9 14  1  0  0  0  0
 10  5  1  0  0  0  0
 11  6  1  0  0  0  0
 12  7  1  0  0  0  0
 14 20  2  0  0  0  0
 14 15  1  0  0  0  0
 15 16  2  0  0  0  0
 16 17  1  0  0  0  0
 18 16  1  0  0  0  0
 18 19  1  0  0  0  0
 20 18  1  0  0  0  0
 22 21  2  0  0  0  0
 22  1  1  0  0  0  0
 23 29  1  0  0  0  0
 23 28  1  0  0  0  0
 24 23  2  0  0  0  0
 25 24  1  0  0  0  0
 25 26  2  0  0  0  0
 26 27  1  0  0  0  0
 27 28  2  0  0  0  0
 27 21  1  0  0  0  0
 30 24  1  0  0  0  0
 31 25  1  0  0  0  0
 32 36  1  0  0  0  0
 32 31  1  0  0  0  0
 33 32  2  0  0  0  0
 34 33  1  0  0  0  0
 34 35  1  0  0  0  0
 35 31  2  0  0  0  0
 37 33  1  0  0  0  0
 38 34  1  0  0  0  0
M  END
>  <minimizedAffinity>
-5.91178274

$$$$

 OpenBabel03272509103D

 38 41  0  0  0  0  0  0  0  0999 V2000
   38.4230   26.7090   35.8050 C   0  0  0  0  0  0  0  0  0  0  0  0
   38.7710   27.3710   36.6570 H   0  0  0  0  0  0  0  0  0  0  0  0
   37.7950   25.9560   36.2910 H   0  0  0  0  0  0  0  0  0  0  0  0
   39.6910   26.1670   35.2390 C   0  0  0  0  0  0  0  0  0  0  0  0
   40.6530   26.9760   34.6420 C   0  0  0  0  0  0  0  0  0  0  0  0
   41.8110   26.4680   34.1190 C   0  0  0  0  0  0  0  0  0  0  0  0
   42.0650   25.1130   34.1710 C   0  0  0  0  0  0  0  0  0  0  0  0
   41.1230   24.3110   34.7580 C   0  0  0  0  0  0  0  0  0  0  0  0
   39.9550   24.8170   35.2860 C   0  0  0  0  0  0  0  0  0  0  0  0
   40.4010   28.0480   34.6270 H   0  0  0  0  0  0  0  0  0  0  0  0
   42.4530   27.2230   33.6910 H   0  0  0  0  0  0  0  0  0  0  0  0
   42.9910   24.7610   33.7460 H   0  0  0  0  0  0  0  0  0  0  0  0
   41.3660   23.2580   34.7750 H   0  0  0  0  0  0  0  0  0  0  0  0
   39.0390   23.8530   35.8840 C   0  0  0  0  0  0  0  0  0  0  0  0
   38.1650   23.0930   35.2030 N   0  0  0  0  0  0  0  0  0  0  0  0
   37.4510   22.2950   36.0090 C   0  0  0  0  0  0  0  0  0  0  0  0
   36.7030   21.6210   35.6180 H   0  0  0  0  0  0  0  0  0  0  0  0
   37.9000   22.5700   37.2410 N   0  0  0  0  0  0  0  0  0  0  0  0
   37.5210   22.0910   38.0930 H   0  0  0  0  0  0  0  0  0  0  0  0
   38.8310   23.4840   37.1560 N   0  0  0  0  0  0  0  0  0  0  0  0
   36.9910   27.2500   33.8490 C   0  0  0  0  0  3  0  0  0  0  0  0
   37.7060   27.6080   34.8870 C   0  0  0  0  0  3  0  0  0  0  0  0
   34.7520   29.8960   32.7100 C   0  0  0  0  0  0  0  0  0  0  0  0
   35.2670   30.1830   31.4280 C   0  0  0  0  0  0  0  0  0  0  0  0
   36.3830   29.4460   30.9940 C   0  0  0  0  0  0  0  0  0  0  0  0
   36.9140   28.4900   31.8310 N   0  0  0  0  0  0  0  0  0  0  0  0
   36.3530   28.2780   33.0540 C   0  0  0  0  0  0  0  0  0  0  0  0
   35.2970   28.9650   33.4810 N   0  0  0  0  0  0  0  0  0  0  0  0
   33.8990   30.5140   32.9460 H   0  0  0  0  0  0  0  0  0  0  0  0
   34.9110   30.9090   30.7230 H   0  0  0  0  0  0  0  0  0  0  0  0
   37.0140   29.6450   29.6810 C   0  0  0  0  0  0  0  0  0  0  0  0
   37.2060   30.8840   29.1280 C   0  0  0  0  0  0  0  0  0  0  0  0
   37.8270   30.6950   27.8880 C   0  0  0  0  0  0  0  0  0  0  0  0
   37.9810   29.3470   27.7490 N   0  0  0  0  0  0  0  0  0  0  0  0
   37.4970   28.7320   28.8160 N   0  0  0  0  0  0  0  0  0  0  0  0
   36.9740   31.8880   29.4720 H   0  0  0  0  0  0  0  0  0  0  0  0
   38.1220   31.4670   27.1880 H   0  0  0  0  0  0  0  0  0  0  0  0
   38.4280   28.9330   26.8950 H   0  0  0  0  0  0  0  0  0  0  0  0
  1  3  1  0  0  0  0
  1  2  1  0  0  0  0
  4  9  1  0  0  0  0
  4  1  1  0  0  0  0
  5  4  2  0  0  0  0
  6  7  2  0  0  0  0
  6  5  1  0  0  0  0
  7  8  1  0  0  0  0
  8 13  1  0  0  0  0
  8  9  2  0  0  0  0
  9 14  1  0  0  0  0
 10  5  1  0  0  0  0
 11  6  1  0  0  0  0
 12  7  1  0  0  0  0
 14 20  2  0  0  0  0
 15 14  1  0  0  0  0
 15 16  2  0  0  0  0
 16 18  1  0  0  0  0
 17 16  1  0  0  0  0
 18 19  1  0  0  0  0
 20 18  1  0  0  0  0
 21 22  2  0  0  0  0
 22  1  1  0  0  0  0
 23 29  1  0  0  0  0
 23 28  1  0  0  0  0
 24 23  2  0  0  0  0
 25 24  1  0  0  0  0
 25 26  2  0  0  0  0
 26 27  1  0  0  0  0
 27 28  2  0  0  0  0
 27 21  1  0  0  0  0
 30 24  1  0  0  0  0
 31 25  1  0  0  0  0
 32 36  1  0  0  0  0
 32 31  1  0  0  0  0
 33 32  2  0  0  0  0
 34 33  1  0  0  0  0
 34 35  1  0  0  0  0
 35 31  2  0  0  0  0
 37 33  1  0  0  0  0
 38 34  1  0  0  0  0
M  END
>  <minimizedAffinity>
-5.84804058

$$$$

 OpenBabel03272509103D

 38 41  0  0  0  0  0  0  0  0999 V2000
   38.8350   26.5520   35.3420 C   0  0  0  0  0  0  0  0  0  0  0  0
   39.2500   26.1700   34.3590 H   0  0  0  0  0  0  0  0  0  0  0  0
   39.6800   27.0700   35.8050 H   0  0  0  0  0  0  0  0  0  0  0  0
   38.4190   25.3120   36.0560 C   0  0  0  0  0  0  0  0  0  0  0  0
   38.1570   25.2850   37.4220 C   0  0  0  0  0  0  0  0  0  0  0  0
   37.7820   24.1390   38.0700 C   0  0  0  0  0  0  0  0  0  0  0  0
   37.6490   22.9550   37.3750 C   0  0  0  0  0  0  0  0  0  0  0  0
   37.9040   22.9750   36.0300 C   0  0  0  0  0  0  0  0  0  0  0  0
   38.2830   24.1250   35.3720 C   0  0  0  0  0  0  0  0  0  0  0  0
   38.2770   26.2540   37.9290 H   0  0  0  0  0  0  0  0  0  0  0  0
   37.6160   24.2810   39.1270 H   0  0  0  0  0  0  0  0  0  0  0  0
   37.3510   22.0800   37.9290 H   0  0  0  0  0  0  0  0  0  0  0  0
   37.7870   22.0250   35.5280 H   0  0  0  0  0  0  0  0  0  0  0  0
   38.5220   24.0070   33.9390 C   0  0  0  0  0  0  0  0  0  0  0  0
   37.5830   24.1360   32.9860 N   0  0  0  0  0  0  0  0  0  0  0  0
   38.0870   23.9800   31.7530 C   0  0  0  0  0  0  0  0  0  0  0  0
   37.4620   24.0530   30.8750 H   0  0  0  0  0  0  0  0  0  0  0  0
   39.3910   23.7450   31.9490 N   0  0  0  0  0  0  0  0  0  0  0  0
   40.0530   23.5800   31.1530 H   0  0  0  0  0  0  0  0  0  0  0  0
   39.6360   23.7620   33.2330 N   0  0  0  0  0  0  0  0  0  0  0  0
   37.2440   27.6220   33.7620 C   0  0  0  0  0  3  0  0  0  0  0  0
   37.7080   27.4230   34.9710 C   0  0  0  0  0  3  0  0  0  0  0  0
   34.3820   29.3990   32.3610 C   0  0  0  0  0  0  0  0  0  0  0  0
   34.0380   30.2740   33.4120 C   0  0  0  0  0  0  0  0  0  0  0  0
   34.8130   30.2220   34.5840 C   0  0  0  0  0  0  0  0  0  0  0  0
   35.8600   29.3290   34.6480 N   0  0  0  0  0  0  0  0  0  0  0  0
   36.1220   28.5200   33.5850 C   0  0  0  0  0  0  0  0  0  0  0  0
   35.4000   28.5560   32.4680 N   0  0  0  0  0  0  0  0  0  0  0  0
   33.7280   29.5190   31.5100 H   0  0  0  0  0  0  0  0  0  0  0  0
   33.2420   30.9930   33.4370 H   0  0  0  0  0  0  0  0  0  0  0  0
   34.5620   31.0810   35.7500 C   0  0  0  0  0  0  0  0  0  0  0  0
   33.3040   31.3370   36.2300 C   0  0  0  0  0  0  0  0  0  0  0  0
   33.4430   32.1810   37.3360 C   0  0  0  0  0  0  0  0  0  0  0  0
   34.7830   32.3980   37.4740 N   0  0  0  0  0  0  0  0  0  0  0  0
   35.4390   31.7420   36.5310 N   0  0  0  0  0  0  0  0  0  0  0  0
   32.3160   31.0140   35.9120 H   0  0  0  0  0  0  0  0  0  0  0  0
   32.6450   32.5780   37.9510 H   0  0  0  0  0  0  0  0  0  0  0  0
   35.1620   33.0060   38.2400 H   0  0  0  0  0  0  0  0  0  0  0  0
  1  3  1  0  0  0  0
  1  4  1  0  0  0  0
  2  1  1  0  0  0  0
  4  5  1  0  0  0  0
  5 10  1  0  0  0  0
  5  6  2  0  0  0  0
  6 11  1  0  0  0  0
  7 12  1  0  0  0  0
  7  6  1  0  0  0  0
  8  7  2  0  0  0  0
  9  8  1  0  0  0  0
  9  4  2  0  0  0  0
 13  8  1  0  0  0  0
 14  9  1  0  0  0  0
 15 14  1  0  0  0  0
 16 18  1  0  0  0  0
 16 15  2  0  0  0  0
 17 16  1  0  0  0  0
 18 20  1  0  0  0  0
 19 18  1  0  0  0  0
 20 14  2  0  0  0  0
 21 22  2  0  0  0  0
 22  1  1  0  0  0  0
 23 28  2  0  0  0  0
 23 24  1  0  0  0  0
 24 30  1  0  0  0  0
 24 25  2  0  0  0  0
 25 26  1  0  0  0  0
 25 31  1  0  0  0  0
 27 21  1  0  0  0  0
 27 26  2  0  0  0  0
 28 27  1  0  0  0  0
 29 23  1  0  0  0  0
 31 32  1  0  0  0  0
 31 35  2  0  0  0  0
 32 33  2  0  0  0  0
 33 34  1  0  0  0  0
 33 37  1  0  0  0  0
 34 38  1  0  0  0  0
 35 34  1  0  0  0  0
 36 32  1  0  0  0  0
M  END
>  <minimizedAffinity>
-5.82982302

$$$$
