
 OpenBabel03272510133D

 39 42  0  0  0  0  0  0  0  0999 V2000
   38.3270   31.5930   48.8620 C   0  0  0  0  0  0  0  0  0  0  0  0
   38.5070   32.8540   49.3850 C   0  0  0  0  0  0  0  0  0  0  0  0
   39.1650   33.6070   48.4080 C   0  0  0  0  0  0  0  0  0  0  0  0
   39.3550   32.8000   47.3590 N   0  0  0  0  0  0  0  0  0  0  0  0
   38.8630   31.6350   47.6370 N   0  0  0  0  0  0  0  0  0  0  0  0
   38.2690   33.3540   50.3140 H   0  0  0  0  0  0  0  0  0  0  0  0
   39.4880   34.6520   48.4330 H   0  0  0  0  0  0  0  0  0  0  0  0
   40.0000   33.1560   46.1290 C   0  0  0  0  0  0  0  0  0  0  0  0
   40.7270   33.9610   46.3530 H   0  0  0  0  0  0  0  0  0  0  0  0
   39.2810   33.6370   45.4050 H   0  0  0  0  0  0  0  0  0  0  0  0
   40.6540   31.9590   45.5420 C   0  0  0  0  0  0  0  0  0  0  0  0
   41.7520   32.0750   45.7140 H   0  0  0  0  0  0  0  0  0  0  0  0
   40.3860   31.0920   46.2190 H   0  0  0  0  0  0  0  0  0  0  0  0
   40.4100   31.6370   44.1570 C   0  0  0  0  0  0  0  0  0  0  0  0
   39.7410   32.4830   43.3190 N   0  0  0  0  0  0  0  0  0  0  0  0
   39.6490   31.9590   42.0880 C   0  0  0  0  0  0  0  0  0  0  0  0
   39.1830   32.3780   41.2070 H   0  0  0  0  0  0  0  0  0  0  0  0
   40.2640   30.7670   42.1310 N   0  0  0  0  0  0  0  0  0  0  0  0
   40.4160   30.0480   41.3980 H   0  0  0  0  0  0  0  0  0  0  0  0
   40.7070   30.5950   43.3600 N   0  0  0  0  0  0  0  0  0  0  0  0
   37.6850   30.7050   49.7010 O   0  0  0  0  0  0  0  0  0  0  0  0
   34.1230   28.8890   48.3950 C   0  0  0  0  0  0  0  0  0  0  0  0
   34.8500   28.3610   49.4160 C   0  0  0  0  0  0  0  0  0  0  0  0
   36.0170   28.8990   49.8920 C   0  0  0  0  0  0  0  0  0  0  0  0
   36.5270   30.0320   49.3460 C   0  0  0  0  0  0  0  0  0  0  0  0
   35.7930   30.5850   48.2980 C   0  0  0  0  0  0  0  0  0  0  0  0
   34.6460   30.0300   47.8530 N   0  0  0  0  0  0  0  0  0  0  0  0
   34.5160   27.4610   49.9070 H   0  0  0  0  0  0  0  0  0  0  0  0
   36.5900   28.4670   50.7110 H   0  0  0  0  0  0  0  0  0  0  0  0
   36.1200   31.4950   47.7930 H   0  0  0  0  0  0  0  0  0  0  0  0
   31.9910   27.6310   48.6730 C   0  0  0  0  0  0  0  0  0  0  0  0
   32.9040   28.3380   47.8860 C   0  0  0  0  0  0  0  0  0  0  0  0
   32.5870   28.4940   46.5540 C   0  0  0  0  0  0  0  0  0  0  0  0
   31.4240   27.9680   46.0630 N   0  0  0  0  0  0  0  0  0  0  0  0
   30.5760   27.2910   46.8730 C   0  0  0  0  0  0  0  0  0  0  0  0
   30.8420   27.1090   48.1940 N   0  0  0  0  0  0  0  0  0  0  0  0
   32.1960   27.4830   49.7230 H   0  0  0  0  0  0  0  0  0  0  0  0
   33.2710   29.0390   45.9060 H   0  0  0  0  0  0  0  0  0  0  0  0
   29.6840   26.9180   46.3750 H   0  0  0  0  0  0  0  0  0  0  0  0
  1  2  1  0  0  0  0
  1 21  1  0  0  0  0
  2  6  1  0  0  0  0
  3  7  1  0  0  0  0
  3  2  2  0  0  0  0
  4  5  1  0  0  0  0
  4  3  1  0  0  0  0
  5  1  2  0  0  0  0
  8  9  1  0  0  0  0
  8  4  1  0  0  0  0
 10  8  1  0  0  0  0
 11 12  1  0  0  0  0
 11  8  1  0  0  0  0
 11 13  1  0  0  0  0
 14 11  1  0  0  0  0
 15 14  1  0  0  0  0
 16 18  1  0  0  0  0
 16 15  2  0  0  0  0
 17 16  1  0  0  0  0
 18 20  1  0  0  0  0
 19 18  1  0  0  0  0
 20 14  2  0  0  0  0
 22 23  1  0  0  0  0
 23 24  2  0  0  0  0
 23 28  1  0  0  0  0
 24 29  1  0  0  0  0
 25 21  1  0  0  0  0
 25 24  1  0  0  0  0
 26 25  2  0  0  0  0
 27 26  1  0  0  0  0
 27 22  2  0  0  0  0
 30 26  1  0  0  0  0
 31 37  1  0  0  0  0
 32 22  1  0  0  0  0
 32 31  2  0  0  0  0
 33 32  1  0  0  0  0
 34 33  2  0  0  0  0
 34 35  1  0  0  0  0
 35 36  2  0  0  0  0
 36 31  1  0  0  0  0
 38 33  1  0  0  0  0
 39 35  1  0  0  0  0
M  END
>  <minimizedAffinity>
-6.18907642

>  <minimizedRMSD>
1.21352327

$$$$
