
 OpenBabel03272507533D

 30 32  0  0  0  0  0  0  0  0999 V2000
   36.5780   31.3610   48.8200 N   0  0  0  0  0  0  0  0  0  0  0  0
   36.6590   32.2430   49.8220 C   0  0  0  0  0  0  0  0  0  0  0  0
   37.6830   33.1840   49.8450 C   0  0  0  0  0  0  0  0  0  0  0  0
   38.5410   33.1120   48.7920 C   0  0  0  0  0  0  0  0  0  0  0  0
   39.4780   33.9660   48.8040 O   0  0  0  0  0  0  0  0  0  0  0  0
   38.4970   32.2560   47.7790 N   0  0  0  0  0  0  0  0  0  0  0  0
   37.4800   31.3630   47.8110 C   0  0  0  0  0  0  0  0  0  0  0  0
   37.4200   30.5300   46.8420 O   0  0  0  0  0  0  0  0  0  0  0  0
   35.8960   32.1680   50.5850 H   0  0  0  0  0  0  0  0  0  0  0  0
   37.7400   33.8850   50.6520 H   0  0  0  0  0  0  0  0  0  0  0  0
   39.4250   32.2250   46.7010 C   0  0  0  0  0  0  0  0  0  0  0  0
   40.0410   33.0660   45.8510 N   0  0  0  0  0  0  0  0  0  0  0  0
   40.8370   32.3360   45.0350 C   0  0  0  0  0  0  0  0  0  0  0  0
   41.4530   32.7590   44.2510 H   0  0  0  0  0  0  0  0  0  0  0  0
   40.7130   31.0240   45.3850 N   0  0  0  0  0  0  0  0  0  0  0  0
   41.2150   30.2260   44.9220 H   0  0  0  0  0  0  0  0  0  0  0  0
   39.8490   30.9800   46.4010 N   0  0  0  0  0  0  0  0  0  0  0  0
   35.3460   29.5590   49.8780 C   0  0  0  0  0  0  0  0  0  0  0  0
   35.5430   30.3670   48.7490 C   0  0  0  0  0  0  0  0  0  0  0  0
   34.7400   30.1800   47.6150 C   0  0  0  0  0  0  0  0  0  0  0  0
   33.7940   29.2080   47.6680 N   0  0  0  0  0  0  0  0  0  0  0  0
   33.6100   28.4460   48.7330 C   0  0  0  0  0  0  0  0  0  0  0  0
   34.3730   28.6130   49.8280 N   0  0  0  0  0  0  0  0  0  0  0  0
   34.9250   30.8300   46.7580 H   0  0  0  0  0  0  0  0  0  0  0  0
   32.8510   27.6720   48.7640 H   0  0  0  0  0  0  0  0  0  0  0  0
   37.3910   29.1890   51.4470 C   0  0  0  0  0  0  0  0  0  0  0  0
   38.1260   28.5580   50.6550 O   0  0  0  0  0  0  0  0  0  0  0  0
   36.0960   29.6770   51.0680 N   0  0  0  0  0  0  0  0  0  0  0  0
   37.8020   29.3380   52.4310 H   0  0  0  0  0  0  0  0  0  0  0  0
   35.6620   30.2250   51.8710 H   0  0  0  0  0  0  0  0  0  0  0  0
  1  2  1  0  0  0  0
  2  3  2  0  0  0  0
  2  9  1  0  0  0  0
  3 10  1  0  0  0  0
  4  5  2  0  0  0  0
  4  3  1  0  0  0  0
  6  7  1  0  0  0  0
  6  4  1  0  0  0  0
  7  1  1  0  0  0  0
  8  7  2  0  0  0  0
 11  6  1  0  0  0  0
 12 11  1  0  0  0  0
 13 15  1  0  0  0  0
 13 12  2  0  0  0  0
 14 13  1  0  0  0  0
 15 17  1  0  0  0  0
 16 15  1  0  0  0  0
 17 11  2  0  0  0  0
 18 28  1  0  0  0  0
 19  1  1  0  0  0  0
 19 18  2  0  0  0  0
 20 21  2  0  0  0  0
 20 19  1  0  0  0  0
 21 22  1  0  0  0  0
 22 25  1  0  0  0  0
 22 23  2  0  0  0  0
 23 18  1  0  0  0  0
 24 20  1  0  0  0  0
 26 29  1  0  0  0  0
 27 26  2  0  0  0  0
 28 26  1  0  0  0  0
 28 30  1  0  0  0  0
M  END
>  <minimizedAffinity>
-6.59521055

>  <minimizedRMSD>
0.844335079

$$$$
