
 OpenBabel03262520543D

 24 26  0  0  1  0  0  0  0  0999 V2000
   38.4360   32.1370   49.6990 C   0  0  2  0  0  0  0  0  0  0  0  0
   38.1510   33.4570   49.1410 C   0  0  0  0  0  0  0  0  0  0  0  0
   38.8880   32.4450   48.3130 C   0  0  2  0  0  0  0  0  0  0  0  0
   39.2650   32.0010   50.4370 H   0  0  0  0  0  0  0  0  0  0  0  0
   37.0750   33.6440   48.8570 H   0  0  0  0  0  0  0  0  0  0  0  0
   38.7130   34.3370   49.5440 H   0  0  0  0  0  0  0  0  0  0  0  0
   39.9680   32.6970   48.1570 H   0  0  0  0  0  0  0  0  0  0  0  0
   35.1130   30.4370   49.8150 C   0  0  0  0  0  0  0  0  0  0  0  0
   35.4920   29.1370   50.1630 C   0  0  0  0  0  0  0  0  0  0  0  0
   36.8620   28.8420   50.3510 C   0  0  0  0  0  0  0  0  0  0  0  0
   37.7750   29.8540   50.1840 N   0  0  0  0  0  0  0  0  0  0  0  0
   37.3640   31.0940   49.8480 C   0  0  0  0  0  0  0  0  0  0  0  0
   36.0520   31.4030   49.6610 N   0  0  0  0  0  0  0  0  0  0  0  0
   34.0620   30.6440   49.6750 H   0  0  0  0  0  0  0  0  0  0  0  0
   34.7590   28.3390   50.2930 H   0  0  0  0  0  0  0  0  0  0  0  0
   37.2050   27.8720   50.6160 H   0  0  0  0  0  0  0  0  0  0  0  0
   38.0130   31.6050   46.9660 S   0  0  0  0  0  0  0  0  0  0  0  0
   39.1520   31.1220   45.6750 C   0  0  0  0  0  0  0  0  0  0  0  0
   38.7310   30.6570   44.4820 N   0  0  0  0  0  0  0  0  0  0  0  0
   39.8070   30.3740   43.7110 C   0  0  0  0  0  0  0  0  0  0  0  0
   39.7480   29.9800   42.6920 H   0  0  0  0  0  0  0  0  0  0  0  0
   40.9070   30.6720   44.4450 N   0  0  0  0  0  0  0  0  0  0  0  0
   41.8960   30.5600   44.1190 H   0  0  0  0  0  0  0  0  0  0  0  0
   40.4950   31.1240   45.6330 N   0  0  0  0  0  0  0  0  0  0  0  0
  1 12  1  0  0  0  0
  1  4  1  1  0  0  0
  2  6  1  0  0  0  0
  2  1  1  0  0  0  0
  3  7  1  6  0  0  0
  3  2  1  0  0  0  0
  3  1  1  0  0  0  0
  5  2  1  0  0  0  0
  8  9  1  0  0  0  0
  9 15  1  0  0  0  0
  9 10  2  0  0  0  0
 10 16  1  0  0  0  0
 11 10  1  0  0  0  0
 12 11  2  0  0  0  0
 13  8  2  0  0  0  0
 13 12  1  0  0  0  0
 14  8  1  0  0  0  0
 17  3  1  0  0  0  0
 18 17  1  0  0  0  0
 19 18  1  0  0  0  0
 20 22  1  0  0  0  0
 20 19  2  0  0  0  0
 21 20  1  0  0  0  0
 22 24  1  0  0  0  0
 23 22  1  0  0  0  0
 24 18  2  0  0  0  0
M  END
>  <minimizedAffinity>
-5.00276709

>  <minimizedRMSD>
6.27545452

$$$$
