
 OpenBabel03262521133D

 29 31  0  0  0  0  0  0  0  0999 V2000
   33.0320   30.4920   46.2850 O   0  0  0  0  0  0  0  0  0  0  0  0
   31.9220   29.6910   45.9930 C   0  0  0  0  0  0  0  0  0  0  0  0
   31.5120   29.1450   44.7820 C   0  0  0  0  0  0  0  0  0  0  0  0
   30.3870   28.4490   44.9960 N   0  0  0  0  0  0  0  0  0  0  0  0
   30.0640   28.5270   46.2910 C   0  0  0  0  0  0  0  0  0  0  0  0
   30.9950   29.2830   46.9060 N   0  0  0  0  0  0  0  0  0  0  0  0
   32.0430   29.2860   43.8480 H   0  0  0  0  0  0  0  0  0  0  0  0
   29.8200   27.9130   44.2870 H   0  0  0  0  0  0  0  0  0  0  0  0
   28.9150   27.9140   46.9450 C   0  0  0  0  0  0  0  0  0  0  0  0
   27.7320   28.4970   47.2050 N   0  0  0  0  0  0  0  0  0  0  0  0
   26.9200   27.5920   47.8260 C   0  0  0  0  0  0  0  0  0  0  0  0
   25.9010   27.7660   48.1620 H   0  0  0  0  0  0  0  0  0  0  0  0
   27.6310   26.4550   47.9380 N   0  0  0  0  0  0  0  0  0  0  0  0
   27.3320   25.5580   48.3600 H   0  0  0  0  0  0  0  0  0  0  0  0
   28.8270   26.6580   47.4070 N   0  0  0  0  0  0  0  0  0  0  0  0
   35.5470   29.9350   46.3960 O   0  0  0  0  0  0  0  0  0  0  0  0
   34.2680   29.7720   47.2050 P   0  0  2  0  0  0  0  0  0  0  0  0
   33.9200   28.1390   47.4850 O   0  0  0  0  0  0  0  0  0  0  0  0
   34.2290   27.8910   48.3710 H   0  0  0  0  0  0  0  0  0  0  0  0
   34.3610   30.5500   48.7140 O   0  0  0  0  0  0  0  0  0  0  0  0
   35.4830   30.4200   49.5380 C   0  0  0  0  0  0  0  0  0  0  0  0
   35.6860   29.4370   50.5190 C   0  0  0  0  0  0  0  0  0  0  0  0
   36.8650   29.4830   51.2300 C   0  0  0  0  0  0  0  0  0  0  0  0
   37.7810   30.4470   50.9780 N   0  0  0  0  0  0  0  0  0  0  0  0
   37.5480   31.3990   50.0070 C   0  0  0  0  0  0  0  0  0  0  0  0
   36.3980   31.3720   49.2980 N   0  0  0  0  0  0  0  0  0  0  0  0
   34.8730   28.7280   50.6160 H   0  0  0  0  0  0  0  0  0  0  0  0
   36.9970   28.7280   51.9670 H   0  0  0  0  0  0  0  0  0  0  0  0
   38.3120   32.1570   49.8360 H   0  0  0  0  0  0  0  0  0  0  0  0
  1 17  1  0  0  0  0
  2  1  1  0  0  0  0
  2  6  1  0  0  0  0
  3  4  1  0  0  0  0
  3  2  2  0  0  0  0
  4  5  1  0  0  0  0
  5  6  2  0  0  0  0
  5  9  1  0  0  0  0
  7  3  1  0  0  0  0
  8  4  1  0  0  0  0
  9 10  1  0  0  0  0
  9 15  2  0  0  0  0
 10 11  2  0  0  0  0
 11 13  1  0  0  0  0
 11 12  1  0  0  0  0
 13 14  1  0  0  0  0
 15 13  1  0  0  0  0
 17 16  2  6  0  0  0
 17 18  1  0  0  0  0
 17 20  1  0  0  0  0
 18 19  1  0  0  0  0
 20 21  1  0  0  0  0
 21 22  1  0  0  0  0
 22 27  1  0  0  0  0
 22 23  2  0  0  0  0
 23 28  1  0  0  0  0
 24 23  1  0  0  0  0
 25 24  2  0  0  0  0
 26 21  2  0  0  0  0
 26 25  1  0  0  0  0
 29 25  1  0  0  0  0
M  END
>  <minimizedAffinity>
-4.37184

>  <minimizedRMSD>
0.986359417

$$$$
