
 OpenBabel03272508523D

 27 29  0  0  1  0  0  0  0  0999 V2000
   39.8430   25.2030   34.7420 C   0  0  2  0  0  0  0  0  0  0  0  0
   41.0510   26.0170   34.6760 C   0  0  0  0  0  0  0  0  0  0  0  0
   39.6500   26.6460   34.6330 C   0  0  1  0  0  0  0  0  0  0  0  0
   39.4570   24.6360   33.8290 H   0  0  0  0  0  0  0  0  0  0  0  0
   41.6110   26.1130   33.7500 H   0  0  0  0  0  0  0  0  0  0  0  0
   41.6800   26.1580   35.5770 H   0  0  0  0  0  0  0  0  0  0  0  0
   39.5770   27.3910   35.4210 H   0  0  0  0  0  0  0  0  0  0  0  0
   37.8970   24.2820   37.7580 C   0  0  0  0  0  0  0  0  0  0  0  0
   38.6420   23.1880   38.2670 C   0  0  0  0  0  0  0  0  0  0  0  0
   39.8190   22.7740   37.5580 C   0  0  0  0  0  0  0  0  0  0  0  0
   40.1580   23.4570   36.4310 N   0  0  0  0  0  0  0  0  0  0  0  0
   39.4050   24.5000   35.9890 C   0  0  0  0  0  0  0  0  0  0  0  0
   38.2920   24.9290   36.6160 N   0  0  0  0  0  0  0  0  0  0  0  0
   37.0310   24.5170   38.3590 H   0  0  0  0  0  0  0  0  0  0  0  0
   38.3590   22.6690   39.1480 H   0  0  0  0  0  0  0  0  0  0  0  0
   40.4070   21.9450   37.9190 H   0  0  0  0  0  0  0  0  0  0  0  0
   37.8690   27.2990   33.0520 C   0  0  0  0  0  0  0  0  0  0  0  0
   37.0300   27.1440   33.9740 O   0  0  0  0  0  0  0  0  0  0  0  0
   39.2790   27.1630   33.3090 N   0  0  0  0  0  0  0  0  0  0  0  0
   39.9830   27.4170   32.6000 H   0  0  0  0  0  0  0  0  0  0  0  0
   37.4410   27.6250   31.6870 C   0  0  0  0  0  0  0  0  0  0  0  0
   37.9150   28.5800   30.8400 N   0  0  0  0  0  0  0  0  0  0  0  0
   37.2190   28.5190   29.6810 C   0  0  0  0  0  0  0  0  0  0  0  0
   37.4240   29.1880   28.8570 H   0  0  0  0  0  0  0  0  0  0  0  0
   36.3040   27.5140   29.8130 N   0  0  0  0  0  0  0  0  0  0  0  0
   35.6780   27.3300   28.9990 H   0  0  0  0  0  0  0  0  0  0  0  0
   36.4570   26.9960   31.0180 N   0  0  0  0  0  0  0  0  0  0  0  0
  1  4  1  6  0  0  0
  1 12  1  0  0  0  0
  2  1  1  0  0  0  0
  2  6  1  0  0  0  0
  3  2  1  0  0  0  0
  3  1  1  0  0  0  0
  3  7  1  1  0  0  0
  5  2  1  0  0  0  0
  8  9  1  0  0  0  0
  8 14  1  0  0  0  0
  9 15  1  0  0  0  0
 10 16  1  0  0  0  0
 10  9  2  0  0  0  0
 11 10  1  0  0  0  0
 12 11  2  0  0  0  0
 12 13  1  0  0  0  0
 13  8  2  0  0  0  0
 17 19  1  0  0  0  0
 17 18  2  0  0  0  0
 19  3  1  0  0  0  0
 20 19  1  0  0  0  0
 21 17  1  0  0  0  0
 22 21  1  0  0  0  0
 23 25  1  0  0  0  0
 23 22  2  0  0  0  0
 24 23  1  0  0  0  0
 25 27  1  0  0  0  0
 26 25  1  0  0  0  0
 27 21  2  0  0  0  0
M  END
>  <minimizedAffinity>
-4.53945684

$$$$

 OpenBabel03272508523D

 27 29  0  0  1  0  0  0  0  0999 V2000
   39.2790   27.1200   33.5180 C   0  0  2  0  0  0  0  0  0  0  0  0
   40.7360   27.1500   33.4610 C   0  0  0  0  0  0  0  0  0  0  0  0
   39.9580   25.8280   33.5430 C   0  0  1  0  0  0  0  0  0  0  0  0
   38.7170   27.3410   34.4870 H   0  0  0  0  0  0  0  0  0  0  0  0
   41.3260   27.3740   34.3460 H   0  0  0  0  0  0  0  0  0  0  0  0
   41.2540   27.4160   32.5190 H   0  0  0  0  0  0  0  0  0  0  0  0
   40.2580   25.1930   32.7130 H   0  0  0  0  0  0  0  0  0  0  0  0
   38.1900   27.9180   30.0680 C   0  0  0  0  0  0  0  0  0  0  0  0
   36.7950   28.1080   30.2350 C   0  0  0  0  0  0  0  0  0  0  0  0
   36.2380   27.9570   31.5490 C   0  0  0  0  0  0  0  0  0  0  0  0
   37.0820   27.6390   32.5670 N   0  0  0  0  0  0  0  0  0  0  0  0
   38.4140   27.4680   32.3470 C   0  0  0  0  0  0  0  0  0  0  0  0
   38.9880   27.5980   31.1360 N   0  0  0  0  0  0  0  0  0  0  0  0
   38.5130   28.0530   29.0460 H   0  0  0  0  0  0  0  0  0  0  0  0
   36.1540   28.3560   29.4270 H   0  0  0  0  0  0  0  0  0  0  0  0
   35.1800   28.0940   31.7090 H   0  0  0  0  0  0  0  0  0  0  0  0
   38.9590   24.3200   35.2230 C   0  0  0  0  0  0  0  0  0  0  0  0
   38.0510   24.0450   34.4000 O   0  0  0  0  0  0  0  0  0  0  0  0
   40.0630   25.1630   34.8480 N   0  0  0  0  0  0  0  0  0  0  0  0
   40.8800   25.2880   35.4660 H   0  0  0  0  0  0  0  0  0  0  0  0
   38.9240   23.7900   36.5910 C   0  0  0  0  0  0  0  0  0  0  0  0
   38.0690   24.0870   37.6090 N   0  0  0  0  0  0  0  0  0  0  0  0
   38.4140   23.3570   38.6950 C   0  0  0  0  0  0  0  0  0  0  0  0
   37.8700   23.4300   39.6260 H   0  0  0  0  0  0  0  0  0  0  0  0
   39.4950   22.6000   38.3450 N   0  0  0  0  0  0  0  0  0  0  0  0
   39.8920   21.9700   39.0760 H   0  0  0  0  0  0  0  0  0  0  0  0
   39.7800   22.8760   37.0850 N   0  0  0  0  0  0  0  0  0  0  0  0
  1  3  1  0  0  0  0
  1  4  1  1  0  0  0
  2  1  1  0  0  0  0
  2  3  1  0  0  0  0
  2  5  1  0  0  0  0
  3  7  1  6  0  0  0
  3 19  1  0  0  0  0
  6  2  1  0  0  0  0
  8  9  2  0  0  0  0
  8 13  1  0  0  0  0
  9 10  1  0  0  0  0
 10 16  1  0  0  0  0
 10 11  2  0  0  0  0
 12 11  1  0  0  0  0
 12  1  1  0  0  0  0
 13 12  2  0  0  0  0
 14  8  1  0  0  0  0
 15  9  1  0  0  0  0
 17 21  1  0  0  0  0
 18 17  2  0  0  0  0
 19 17  1  0  0  0  0
 19 20  1  0  0  0  0
 21 27  2  0  0  0  0
 21 22  1  0  0  0  0
 22 23  2  0  0  0  0
 23 24  1  0  0  0  0
 25 23  1  0  0  0  0
 25 26  1  0  0  0  0
 27 25  1  0  0  0  0
M  END
>  <minimizedAffinity>
-4.52092266

$$$$

 OpenBabel03272508523D

 27 29  0  0  1  0  0  0  0  0999 V2000
   37.5780   26.3760   34.8650 C   0  0  2  0  0  0  0  0  0  0  0  0
   38.4470   27.2230   35.6750 C   0  0  0  0  0  0  0  0  0  0  0  0
   38.9880   26.0000   34.9190 C   0  0  1  0  0  0  0  0  0  0  0  0
   36.8950   25.5950   35.3420 H   0  0  0  0  0  0  0  0  0  0  0  0
   38.4730   27.1250   36.7570 H   0  0  0  0  0  0  0  0  0  0  0  0
   38.7200   28.2390   35.3270 H   0  0  0  0  0  0  0  0  0  0  0  0
   39.8090   26.3180   34.2810 H   0  0  0  0  0  0  0  0  0  0  0  0
   36.2150   26.3220   31.4200 C   0  0  0  0  0  0  0  0  0  0  0  0
   35.9200   27.6910   31.1970 C   0  0  0  0  0  0  0  0  0  0  0  0
   36.1970   28.6280   32.2490 C   0  0  0  0  0  0  0  0  0  0  0  0
   36.7300   28.1510   33.4050 N   0  0  0  0  0  0  0  0  0  0  0  0
   36.9920   26.8250   33.5630 C   0  0  0  0  0  0  0  0  0  0  0  0
   36.7510   25.9040   32.6100 N   0  0  0  0  0  0  0  0  0  0  0  0
   35.9720   25.6970   30.5730 H   0  0  0  0  0  0  0  0  0  0  0  0
   35.5050   28.0430   30.2870 H   0  0  0  0  0  0  0  0  0  0  0  0
   35.9840   29.6760   32.1100 H   0  0  0  0  0  0  0  0  0  0  0  0
   40.6420   24.2990   35.6000 C   0  0  0  0  0  0  0  0  0  0  0  0
   41.4810   24.8470   34.8430 O   0  0  0  0  0  0  0  0  0  0  0  0
   39.3380   24.8740   35.7950 N   0  0  0  0  0  0  0  0  0  0  0  0
   38.6900   24.5120   36.5110 H   0  0  0  0  0  0  0  0  0  0  0  0
   40.9650   23.0560   36.3100 C   0  0  0  0  0  0  0  0  0  0  0  0
   41.9090   22.1170   36.0200 N   0  0  0  0  0  0  0  0  0  0  0  0
   41.8490   21.1370   36.9500 C   0  0  0  0  0  0  0  0  0  0  0  0
   42.5100   20.2820   36.9200 H   0  0  0  0  0  0  0  0  0  0  0  0
   40.8560   21.4710   37.8250 N   0  0  0  0  0  0  0  0  0  0  0  0
   40.6750   20.8140   38.6150 H   0  0  0  0  0  0  0  0  0  0  0  0
   40.3440   22.6200   37.4220 N   0  0  0  0  0  0  0  0  0  0  0  0
  1  3  1  0  0  0  0
  1  4  1  1  0  0  0
  1  2  1  0  0  0  0
  2  5  1  0  0  0  0
  3  7  1  6  0  0  0
  3  2  1  0  0  0  0
  3 19  1  0  0  0  0
  6  2  1  0  0  0  0
  8 13  1  0  0  0  0
  9  8  2  0  0  0  0
  9 10  1  0  0  0  0
 10 11  2  0  0  0  0
 11 12  1  0  0  0  0
 12  1  1  0  0  0  0
 13 12  2  0  0  0  0
 14  8  1  0  0  0  0
 15  9  1  0  0  0  0
 16 10  1  0  0  0  0
 17 19  1  0  0  0  0
 17 21  1  0  0  0  0
 18 17  2  0  0  0  0
 19 20  1  0  0  0  0
 21 27  2  0  0  0  0
 22 21  1  0  0  0  0
 22 23  2  0  0  0  0
 23 25  1  0  0  0  0
 24 23  1  0  0  0  0
 25 26  1  0  0  0  0
 27 25  1  0  0  0  0
M  END
>  <minimizedAffinity>
-4.47743177

$$$$

 OpenBabel03272508523D

 27 29  0  0  1  0  0  0  0  0999 V2000
   38.1710   26.1900   32.8410 C   0  0  2  0  0  0  0  0  0  0  0  0
   38.1720   25.1190   31.8510 C   0  0  0  0  0  0  0  0  0  0  0  0
   37.4880   24.9560   33.2170 C   0  0  1  0  0  0  0  0  0  0  0  0
   39.0870   26.4030   33.4880 H   0  0  0  0  0  0  0  0  0  0  0  0
   39.0440   24.4870   31.7110 H   0  0  0  0  0  0  0  0  0  0  0  0
   37.5470   25.2000   30.9400 H   0  0  0  0  0  0  0  0  0  0  0  0
   36.4520   24.6670   33.0580 H   0  0  0  0  0  0  0  0  0  0  0  0
   36.6740   29.2340   31.3500 C   0  0  0  0  0  0  0  0  0  0  0  0
   35.8980   29.7380   32.4240 C   0  0  0  0  0  0  0  0  0  0  0  0
   35.8990   29.0160   33.6650 C   0  0  0  0  0  0  0  0  0  0  0  0
   36.6470   27.8830   33.7430 N   0  0  0  0  0  0  0  0  0  0  0  0
   37.3720   27.4460   32.6780 C   0  0  0  0  0  0  0  0  0  0  0  0
   37.4060   28.0840   31.4930 N   0  0  0  0  0  0  0  0  0  0  0  0
   36.6090   29.8450   30.4620 H   0  0  0  0  0  0  0  0  0  0  0  0
   35.3210   30.6250   32.3420 H   0  0  0  0  0  0  0  0  0  0  0  0
   35.3190   29.3740   34.5010 H   0  0  0  0  0  0  0  0  0  0  0  0
   38.1560   24.3970   35.5280 C   0  0  0  0  0  0  0  0  0  0  0  0
   37.3990   25.3100   35.9410 O   0  0  0  0  0  0  0  0  0  0  0  0
   38.2060   24.0570   34.1300 N   0  0  0  0  0  0  0  0  0  0  0  0
   38.7190   23.2270   33.7950 H   0  0  0  0  0  0  0  0  0  0  0  0
   39.0120   23.6490   36.4550 C   0  0  0  0  0  0  0  0  0  0  0  0
   40.2710   23.1630   36.2660 N   0  0  0  0  0  0  0  0  0  0  0  0
   40.6710   22.5360   37.3960 C   0  0  0  0  0  0  0  0  0  0  0  0
   41.6440   22.0720   37.4760 H   0  0  0  0  0  0  0  0  0  0  0  0
   39.6490   22.6340   38.2950 N   0  0  0  0  0  0  0  0  0  0  0  0
   39.7940   22.1980   39.2320 H   0  0  0  0  0  0  0  0  0  0  0  0
   38.6700   23.3020   37.7100 N   0  0  0  0  0  0  0  0  0  0  0  0
  1  3  1  0  0  0  0
  1  4  1  1  0  0  0
  2  1  1  0  0  0  0
  2  3  1  0  0  0  0
  3  7  1  1  0  0  0
  3 19  1  0  0  0  0
  5  2  1  0  0  0  0
  6  2  1  0  0  0  0
  8 13  2  0  0  0  0
  8  9  1  0  0  0  0
  9 10  2  0  0  0  0
 10 11  1  0  0  0  0
 10 16  1  0  0  0  0
 12  1  1  0  0  0  0
 12 11  2  0  0  0  0
 13 12  1  0  0  0  0
 14  8  1  0  0  0  0
 15  9  1  0  0  0  0
 17 18  2  0  0  0  0
 17 21  1  0  0  0  0
 19 17  1  0  0  0  0
 20 19  1  0  0  0  0
 21 27  2  0  0  0  0
 22 21  1  0  0  0  0
 22 23  2  0  0  0  0
 23 24  1  0  0  0  0
 23 25  1  0  0  0  0
 25 26  1  0  0  0  0
 27 25  1  0  0  0  0
M  END
>  <minimizedAffinity>
-4.4761529

$$$$

 OpenBabel03272508523D

 27 29  0  0  1  0  0  0  0  0999 V2000
   36.8300   27.3420   32.4340 C   0  0  2  0  0  0  0  0  0  0  0  0
   36.2930   28.2380   33.4520 C   0  0  0  0  0  0  0  0  0  0  0  0
   37.5190   27.3530   33.7210 C   0  0  1  0  0  0  0  0  0  0  0  0
   36.3370   26.3380   32.2070 H   0  0  0  0  0  0  0  0  0  0  0  0
   35.4130   27.9670   34.0290 H   0  0  0  0  0  0  0  0  0  0  0  0
   36.4270   29.3340   33.3600 H   0  0  0  0  0  0  0  0  0  0  0  0
   38.3400   27.9830   34.0560 H   0  0  0  0  0  0  0  0  0  0  0  0
   39.5380   28.1490   30.0380 C   0  0  0  0  0  0  0  0  0  0  0  0
   38.8200   28.7510   28.9730 C   0  0  0  0  0  0  0  0  0  0  0  0
   37.3950   28.8740   29.0940 C   0  0  0  0  0  0  0  0  0  0  0  0
   36.8080   28.4050   30.2270 N   0  0  0  0  0  0  0  0  0  0  0  0
   37.5480   27.8350   31.2170 C   0  0  0  0  0  0  0  0  0  0  0  0
   38.8860   27.6940   31.1550 N   0  0  0  0  0  0  0  0  0  0  0  0
   40.6010   28.1020   29.8540 H   0  0  0  0  0  0  0  0  0  0  0  0
   39.2980   29.1110   28.0970 H   0  0  0  0  0  0  0  0  0  0  0  0
   36.8210   29.3270   28.3010 H   0  0  0  0  0  0  0  0  0  0  0  0
   38.1340   26.0860   35.7490 C   0  0  0  0  0  0  0  0  0  0  0  0
   38.9770   26.9770   36.0200 O   0  0  0  0  0  0  0  0  0  0  0  0
   37.2460   26.2280   34.6260 N   0  0  0  0  0  0  0  0  0  0  0  0
   36.4640   25.5740   34.4700 H   0  0  0  0  0  0  0  0  0  0  0  0
   38.0260   24.8750   36.5700 C   0  0  0  0  0  0  0  0  0  0  0  0
   38.0370   24.7480   37.9260 N   0  0  0  0  0  0  0  0  0  0  0  0
   37.9110   23.4390   38.2420 C   0  0  0  0  0  0  0  0  0  0  0  0
   37.8950   23.0990   39.2690 H   0  0  0  0  0  0  0  0  0  0  0  0
   37.8220   22.7470   37.0690 N   0  0  0  0  0  0  0  0  0  0  0  0
   37.7190   21.7100   37.1330 H   0  0  0  0  0  0  0  0  0  0  0  0
   37.8930   23.6260   36.0860 N   0  0  0  0  0  0  0  0  0  0  0  0
  1  4  1  6  0  0  0
  1  2  1  0  0  0  0
  1  3  1  0  0  0  0
  2  3  1  0  0  0  0
  2  5  1  0  0  0  0
  3  7  1  1  0  0  0
  3 19  1  0  0  0  0
  6  2  1  0  0  0  0
  8 13  1  0  0  0  0
  9 10  1  0  0  0  0
  9  8  2  0  0  0  0
 10 11  2  0  0  0  0
 11 12  1  0  0  0  0
 12  1  1  0  0  0  0
 13 12  2  0  0  0  0
 14  8  1  0  0  0  0
 15  9  1  0  0  0  0
 16 10  1  0  0  0  0
 17 18  2  0  0  0  0
 17 21  1  0  0  0  0
 19 17  1  0  0  0  0
 20 19  1  0  0  0  0
 21 22  1  0  0  0  0
 22 23  2  0  0  0  0
 23 24  1  0  0  0  0
 25 26  1  0  0  0  0
 25 23  1  0  0  0  0
 27 21  2  0  0  0  0
 27 25  1  0  0  0  0
M  END
>  <minimizedAffinity>
-4.42810059

$$$$

 OpenBabel03272508523D

 27 29  0  0  1  0  0  0  0  0999 V2000
   38.9210   26.2580   35.3200 C   0  0  2  0  0  0  0  0  0  0  0  0
   38.4390   27.2920   36.2290 C   0  0  0  0  0  0  0  0  0  0  0  0
   37.5290   26.6680   35.1600 C   0  0  1  0  0  0  0  0  0  0  0  0
   39.5640   26.5160   34.4130 H   0  0  0  0  0  0  0  0  0  0  0  0
   38.6720   28.3400   36.0580 H   0  0  0  0  0  0  0  0  0  0  0  0
   38.2590   27.0590   37.2970 H   0  0  0  0  0  0  0  0  0  0  0  0
   36.6380   26.2770   35.6440 H   0  0  0  0  0  0  0  0  0  0  0  0
   38.7140   23.0150   37.1000 C   0  0  0  0  0  0  0  0  0  0  0  0
   39.8180   22.3090   36.5580 C   0  0  0  0  0  0  0  0  0  0  0  0
   40.6310   22.9660   35.5740 C   0  0  0  0  0  0  0  0  0  0  0  0
   40.2970   24.2340   35.2140 N   0  0  0  0  0  0  0  0  0  0  0  0
   39.2250   24.8620   35.7680 C   0  0  0  0  0  0  0  0  0  0  0  0
   38.4290   24.2930   36.6940 N   0  0  0  0  0  0  0  0  0  0  0  0
   38.1650   22.4390   37.8300 H   0  0  0  0  0  0  0  0  0  0  0  0
   40.0610   21.3190   36.8530 H   0  0  0  0  0  0  0  0  0  0  0  0
   41.4780   22.4560   35.1430 H   0  0  0  0  0  0  0  0  0  0  0  0
   36.9160   26.9430   32.7840 C   0  0  0  0  0  0  0  0  0  0  0  0
   36.7420   25.7010   32.7120 O   0  0  0  0  0  0  0  0  0  0  0  0
   37.2320   27.5700   34.0400 N   0  0  0  0  0  0  0  0  0  0  0  0
   37.2460   28.5970   34.1420 H   0  0  0  0  0  0  0  0  0  0  0  0
   36.8040   27.7920   31.5930 C   0  0  0  0  0  0  0  0  0  0  0  0
   36.6900   29.1470   31.5090 N   0  0  0  0  0  0  0  0  0  0  0  0
   36.6130   29.4970   30.2040 C   0  0  0  0  0  0  0  0  0  0  0  0
   36.5170   30.5290   29.8960 H   0  0  0  0  0  0  0  0  0  0  0  0
   36.6790   28.3460   29.4730 N   0  0  0  0  0  0  0  0  0  0  0  0
   36.6330   28.4380   28.4350 H   0  0  0  0  0  0  0  0  0  0  0  0
   36.7920   27.3430   30.3250 N   0  0  0  0  0  0  0  0  0  0  0  0
  1  4  1  6  0  0  0
  1 12  1  0  0  0  0
  1  2  1  0  0  0  0
  2  6  1  0  0  0  0
  3  1  1  0  0  0  0
  3  7  1  1  0  0  0
  3  2  1  0  0  0  0
  5  2  1  0  0  0  0
  8 14  1  0  0  0  0
  9 15  1  0  0  0  0
  9  8  2  0  0  0  0
 10  9  1  0  0  0  0
 11 10  2  0  0  0  0
 11 12  1  0  0  0  0
 12 13  2  0  0  0  0
 13  8  1  0  0  0  0
 16 10  1  0  0  0  0
 17 19  1  0  0  0  0
 18 17  2  0  0  0  0
 19 20  1  0  0  0  0
 19  3  1  0  0  0  0
 21 17  1  0  0  0  0
 22 21  1  0  0  0  0
 23 22  2  0  0  0  0
 24 23  1  0  0  0  0
 25 23  1  0  0  0  0
 25 27  1  0  0  0  0
 26 25  1  0  0  0  0
 27 21  2  0  0  0  0
M  END
>  <minimizedAffinity>
-4.40686798

$$$$

 OpenBabel03272508523D

 27 29  0  0  1  0  0  0  0  0999 V2000
   38.9340   26.2800   35.3090 C   0  0  2  0  0  0  0  0  0  0  0  0
   38.4240   27.3000   36.2190 C   0  0  0  0  0  0  0  0  0  0  0  0
   37.5390   26.6720   35.1320 C   0  0  1  0  0  0  0  0  0  0  0  0
   39.5860   26.5550   34.4130 H   0  0  0  0  0  0  0  0  0  0  0  0
   38.6450   28.3520   36.0610 H   0  0  0  0  0  0  0  0  0  0  0  0
   38.2320   27.0550   37.2820 H   0  0  0  0  0  0  0  0  0  0  0  0
   36.6460   26.2650   35.6000 H   0  0  0  0  0  0  0  0  0  0  0  0
   40.6500   23.0180   35.6820 C   0  0  0  0  0  0  0  0  0  0  0  0
   39.7900   22.3330   36.5770 C   0  0  0  0  0  0  0  0  0  0  0  0
   38.6150   23.0090   37.0480 C   0  0  0  0  0  0  0  0  0  0  0  0
   38.3890   24.2770   36.6080 N   0  0  0  0  0  0  0  0  0  0  0  0
   39.2510   24.8850   35.7480 C   0  0  0  0  0  0  0  0  0  0  0  0
   40.3670   24.2960   35.2770 N   0  0  0  0  0  0  0  0  0  0  0  0
   41.5040   22.4270   35.3860 H   0  0  0  0  0  0  0  0  0  0  0  0
   39.9850   21.3440   36.9090 H   0  0  0  0  0  0  0  0  0  0  0  0
   37.9410   22.5150   37.7290 H   0  0  0  0  0  0  0  0  0  0  0  0
   36.9220   26.9590   32.7580 C   0  0  0  0  0  0  0  0  0  0  0  0
   36.7390   25.7180   32.6820 O   0  0  0  0  0  0  0  0  0  0  0  0
   37.2450   27.5800   34.0150 N   0  0  0  0  0  0  0  0  0  0  0  0
   37.2670   28.6060   34.1200 H   0  0  0  0  0  0  0  0  0  0  0  0
   36.8120   27.8130   31.5700 C   0  0  0  0  0  0  0  0  0  0  0  0
   36.7030   29.1680   31.4900 N   0  0  0  0  0  0  0  0  0  0  0  0
   36.6270   29.5230   30.1870 C   0  0  0  0  0  0  0  0  0  0  0  0
   36.5350   30.5560   29.8820 H   0  0  0  0  0  0  0  0  0  0  0  0
   36.6900   28.3740   29.4510 N   0  0  0  0  0  0  0  0  0  0  0  0
   36.6440   28.4690   28.4130 H   0  0  0  0  0  0  0  0  0  0  0  0
   36.8000   27.3680   30.3000 N   0  0  0  0  0  0  0  0  0  0  0  0
  1  4  1  6  0  0  0
  1 12  1  0  0  0  0
  1  2  1  0  0  0  0
  2  6  1  0  0  0  0
  3  1  1  0  0  0  0
  3  7  1  1  0  0  0
  3  2  1  0  0  0  0
  5  2  1  0  0  0  0
  8  9  1  0  0  0  0
  9 15  1  0  0  0  0
  9 10  2  0  0  0  0
 10 16  1  0  0  0  0
 11 10  1  0  0  0  0
 12 11  2  0  0  0  0
 13  8  2  0  0  0  0
 13 12  1  0  0  0  0
 14  8  1  0  0  0  0
 17 19  1  0  0  0  0
 18 17  2  0  0  0  0
 19 20  1  0  0  0  0
 19  3  1  0  0  0  0
 21 17  1  0  0  0  0
 22 21  1  0  0  0  0
 23 22  2  0  0  0  0
 24 23  1  0  0  0  0
 25 23  1  0  0  0  0
 25 27  1  0  0  0  0
 26 25  1  0  0  0  0
 27 21  2  0  0  0  0
M  END
>  <minimizedAffinity>
-4.40671492

$$$$

 OpenBabel03272508523D

 27 29  0  0  1  0  0  0  0  0999 V2000
   38.2960   23.7030   34.5010 C   0  0  2  0  0  0  0  0  0  0  0  0
   39.0960   22.9720   33.5240 C   0  0  0  0  0  0  0  0  0  0  0  0
   39.2200   24.4940   33.6950 C   0  0  1  0  0  0  0  0  0  0  0  0
   37.2020   23.9610   34.3000 H   0  0  0  0  0  0  0  0  0  0  0  0
   38.6720   22.6640   32.5720 H   0  0  0  0  0  0  0  0  0  0  0  0
   39.9280   22.3210   33.8580 H   0  0  0  0  0  0  0  0  0  0  0  0
   40.2610   24.7410   33.8860 H   0  0  0  0  0  0  0  0  0  0  0  0
   39.7760   22.7900   37.7730 C   0  0  0  0  0  0  0  0  0  0  0  0
   38.8950   23.4270   38.6840 C   0  0  0  0  0  0  0  0  0  0  0  0
   37.7880   24.1720   38.1550 C   0  0  0  0  0  0  0  0  0  0  0  0
   37.6430   24.2280   36.8030 N   0  0  0  0  0  0  0  0  0  0  0  0
   38.5210   23.5970   35.9770 C   0  0  0  0  0  0  0  0  0  0  0  0
   39.5760   22.8850   36.4200 N   0  0  0  0  0  0  0  0  0  0  0  0
   40.5740   22.2560   38.2660 H   0  0  0  0  0  0  0  0  0  0  0  0
   39.0260   23.3710   39.7350 H   0  0  0  0  0  0  0  0  0  0  0  0
   37.1000   24.6680   38.8210 H   0  0  0  0  0  0  0  0  0  0  0  0
   38.2410   26.6100   32.8820 C   0  0  0  0  0  0  0  0  0  0  0  0
   38.5400   27.1410   33.9810 O   0  0  0  0  0  0  0  0  0  0  0  0
   38.6380   25.2590   32.5840 N   0  0  0  0  0  0  0  0  0  0  0  0
   38.5180   24.8570   31.6420 H   0  0  0  0  0  0  0  0  0  0  0  0
   37.4810   27.3500   31.8690 C   0  0  0  0  0  0  0  0  0  0  0  0
   37.0760   28.6500   31.8730 N   0  0  0  0  0  0  0  0  0  0  0  0
   36.3990   28.9000   30.7290 C   0  0  0  0  0  0  0  0  0  0  0  0
   35.9830   29.8740   30.5140 H   0  0  0  0  0  0  0  0  0  0  0  0
   36.3840   27.7410   30.0080 N   0  0  0  0  0  0  0  0  0  0  0  0
   35.8950   27.7590   29.0860 H   0  0  0  0  0  0  0  0  0  0  0  0
   37.0350   26.8310   30.7100 N   0  0  0  0  0  0  0  0  0  0  0  0
  1  4  1  6  0  0  0
  1 12  1  0  0  0  0
  2  3  1  0  0  0  0
  2  6  1  0  0  0  0
  2  1  1  0  0  0  0
  3  7  1  1  0  0  0
  3  1  1  0  0  0  0
  5  2  1  0  0  0  0
  8 14  1  0  0  0  0
  8  9  1  0  0  0  0
  9 15  1  0  0  0  0
 10  9  2  0  0  0  0
 10 16  1  0  0  0  0
 11 10  1  0  0  0  0
 12 13  1  0  0  0  0
 12 11  2  0  0  0  0
 13  8  2  0  0  0  0
 17 18  2  0  0  0  0
 19 17  1  0  0  0  0
 19  3  1  0  0  0  0
 20 19  1  0  0  0  0
 21 22  1  0  0  0  0
 21 17  1  0  0  0  0
 23 22  2  0  0  0  0
 24 23  1  0  0  0  0
 25 27  1  0  0  0  0
 25 23  1  0  0  0  0
 26 25  1  0  0  0  0
 27 21  2  0  0  0  0
M  END
>  <minimizedAffinity>
-4.39849043

$$$$

 OpenBabel03272508523D

 27 29  0  0  1  0  0  0  0  0999 V2000
   38.2510   26.2650   34.7670 C   0  0  2  0  0  0  0  0  0  0  0  0
   38.1480   27.4040   35.6730 C   0  0  0  0  0  0  0  0  0  0  0  0
   37.0560   27.0930   34.6380 C   0  0  1  0  0  0  0  0  0  0  0  0
   38.9150   26.3020   33.8390 H   0  0  0  0  0  0  0  0  0  0  0  0
   38.6950   28.3230   35.4810 H   0  0  0  0  0  0  0  0  0  0  0  0
   37.9350   27.2460   36.7480 H   0  0  0  0  0  0  0  0  0  0  0  0
   36.1010   27.0080   35.1510 H   0  0  0  0  0  0  0  0  0  0  0  0
   37.6890   23.3130   36.9340 C   0  0  0  0  0  0  0  0  0  0  0  0
   37.8670   22.2410   36.0240 C   0  0  0  0  0  0  0  0  0  0  0  0
   38.1820   22.5490   34.6580 C   0  0  0  0  0  0  0  0  0  0  0  0
   38.2930   23.8590   34.3090 N   0  0  0  0  0  0  0  0  0  0  0  0
   38.1110   24.8480   35.2260 C   0  0  0  0  0  0  0  0  0  0  0  0
   37.8150   24.6140   36.5190 N   0  0  0  0  0  0  0  0  0  0  0  0
   37.4560   22.9800   37.9340 H   0  0  0  0  0  0  0  0  0  0  0  0
   37.7750   21.2250   36.3170 H   0  0  0  0  0  0  0  0  0  0  0  0
   38.3230   21.7560   33.9410 H   0  0  0  0  0  0  0  0  0  0  0  0
   35.9210   28.9600   33.4870 C   0  0  0  0  0  0  0  0  0  0  0  0
   35.1360   29.0520   34.4630 O   0  0  0  0  0  0  0  0  0  0  0  0
   37.0260   28.0380   33.5130 N   0  0  0  0  0  0  0  0  0  0  0  0
   37.7520   28.0450   32.7810 H   0  0  0  0  0  0  0  0  0  0  0  0
   35.7380   29.7890   32.2900 C   0  0  0  0  0  0  0  0  0  0  0  0
   36.6740   30.2890   31.4360 N   0  0  0  0  0  0  0  0  0  0  0  0
   36.0470   31.0000   30.4700 C   0  0  0  0  0  0  0  0  0  0  0  0
   36.5950   31.4910   29.6780 H   0  0  0  0  0  0  0  0  0  0  0  0
   34.7080   30.9390   30.7290 N   0  0  0  0  0  0  0  0  0  0  0  0
   34.0720   31.4410   30.0710 H   0  0  0  0  0  0  0  0  0  0  0  0
   34.5500   30.2110   31.8200 N   0  0  0  0  0  0  0  0  0  0  0  0
  1  4  1  6  0  0  0
  1 12  1  0  0  0  0
  1  2  1  0  0  0  0
  2  6  1  0  0  0  0
  3  1  1  0  0  0  0
  3  7  1  1  0  0  0
  3  2  1  0  0  0  0
  5  2  1  0  0  0  0
  8 14  1  0  0  0  0
  9 15  1  0  0  0  0
  9  8  2  0  0  0  0
 10  9  1  0  0  0  0
 11 10  2  0  0  0  0
 11 12  1  0  0  0  0
 12 13  2  0  0  0  0
 13  8  1  0  0  0  0
 16 10  1  0  0  0  0
 17 19  1  0  0  0  0
 17 18  2  0  0  0  0
 19  3  1  0  0  0  0
 20 19  1  0  0  0  0
 21 17  1  0  0  0  0
 22 21  1  0  0  0  0
 23 25  1  0  0  0  0
 23 22  2  0  0  0  0
 24 23  1  0  0  0  0
 25 27  1  0  0  0  0
 26 25  1  0  0  0  0
 27 21  2  0  0  0  0
M  END
>  <minimizedAffinity>
-4.23621655

$$$$
