
 OpenBabel03272505093D

 27 29  0  0  0  0  0  0  0  0999 V2000
   36.3160   30.8650   45.6890 Cl  0  0  0  0  0  0  0  0  0  0  0  0
   36.6210   30.6930   47.4000 C   0  0  0  0  0  0  0  0  0  0  0  0
   37.8730   31.0110   47.8320 C   0  0  0  0  0  0  0  0  0  0  0  0
   38.1370   30.8810   49.1970 C   0  0  0  0  0  0  0  0  0  0  0  0
   37.1450   30.4450   50.0470 C   0  0  0  0  0  0  0  0  0  0  0  0
   35.9090   30.1430   49.5410 C   0  0  0  0  0  0  0  0  0  0  0  0
   35.5940   30.2510   48.2210 C   0  0  0  0  0  0  0  0  0  0  0  0
   39.1200   31.1260   49.5640 H   0  0  0  0  0  0  0  0  0  0  0  0
   37.3820   30.3550   51.0980 H   0  0  0  0  0  0  0  0  0  0  0  0
   35.1370   29.8010   50.2200 H   0  0  0  0  0  0  0  0  0  0  0  0
   40.1520   33.2630   46.0750 C   0  0  0  0  0  0  0  0  0  0  0  0
   40.8530   32.4130   45.1860 C   0  0  0  0  0  0  0  0  0  0  0  0
   40.5180   31.0560   45.2120 C   0  0  0  0  0  0  0  0  0  0  0  0
   39.5520   30.6280   46.0750 N   0  0  0  0  0  0  0  0  0  0  0  0
   38.9160   31.4770   46.8990 C   0  0  0  0  0  0  0  0  0  0  0  0
   39.2230   32.7680   46.8860 N   0  0  0  0  0  0  0  0  0  0  0  0
   40.3740   34.3110   46.0900 H   0  0  0  0  0  0  0  0  0  0  0  0
   41.6120   32.8150   44.5210 H   0  0  0  0  0  0  0  0  0  0  0  0
   41.0320   30.3720   44.5460 H   0  0  0  0  0  0  0  0  0  0  0  0
   33.9950   29.8690   47.5140 S   0  0  0  0  0  0  0  0  0  0  0  0
   33.9410   28.1680   46.9740 C   0  0  0  0  0  0  0  0  0  0  0  0
   33.8700   27.2490   47.9550 N   0  0  0  0  0  0  0  0  0  0  0  0
   33.8340   26.0070   47.4530 C   0  0  0  0  0  0  0  0  0  0  0  0
   33.7780   25.0500   47.9550 H   0  0  0  0  0  0  0  0  0  0  0  0
   33.8850   26.1610   46.1200 N   0  0  0  0  0  0  0  0  0  0  0  0
   33.8810   25.4660   45.3360 H   0  0  0  0  0  0  0  0  0  0  0  0
   33.9490   27.4660   45.8040 N   0  0  0  0  0  0  0  0  0  0  0  0
  1  2  1  0  0  0  0
  2  3  2  0  0  0  0
  2  7  1  0  0  0  0
  3  4  1  0  0  0  0
  4  8  1  0  0  0  0
  4  5  2  0  0  0  0
  5  9  1  0  0  0  0
  6  5  1  0  0  0  0
  6 10  1  0  0  0  0
  7  6  2  0  0  0  0
 11 17  1  0  0  0  0
 11 16  1  0  0  0  0
 12 13  1  0  0  0  0
 12 11  2  0  0  0  0
 13 14  2  0  0  0  0
 14 15  1  0  0  0  0
 15  3  1  0  0  0  0
 16 15  2  0  0  0  0
 18 12  1  0  0  0  0
 19 13  1  0  0  0  0
 20  7  1  0  0  0  0
 21 20  1  0  0  0  0
 21 22  1  0  0  0  0
 23 24  1  0  0  0  0
 23 22  2  0  0  0  0
 25 23  1  0  0  0  0
 26 25  1  0  0  0  0
 27 25  1  0  0  0  0
 27 21  2  0  0  0  0
M  END
>  <minimizedAffinity>
-5.21814203

>  <minimizedRMSD>
1.00884581

$$$$
