
 OpenBabel03272500253D

 32 34  0  0  0  0  0  0  0  0999 V2000
   39.7130   31.8360   46.4680 C   0  0  0  0  0  0  0  0  0  0  0  0
   40.7380   32.3050   46.5510 H   0  0  0  0  0  0  0  0  0  0  0  0
   39.9170   30.7760   46.7970 H   0  0  0  0  0  0  0  0  0  0  0  0
   39.3470   31.8760   45.0860 C   0  0  0  0  0  0  0  0  0  0  0  0
   38.2310   32.5360   44.6780 C   0  0  0  0  0  0  0  0  0  0  0  0
   37.8610   32.5810   43.3250 C   0  0  0  0  0  0  0  0  0  0  0  0
   38.7100   31.9110   42.4580 N   0  0  0  0  0  0  0  0  0  0  0  0
   39.8060   31.2670   42.8900 C   0  0  0  0  0  0  0  0  0  0  0  0
   40.1030   31.2650   44.2070 N   0  0  0  0  0  0  0  0  0  0  0  0
   37.5520   33.0630   45.3030 H   0  0  0  0  0  0  0  0  0  0  0  0
   36.9810   33.0970   42.9710 H   0  0  0  0  0  0  0  0  0  0  0  0
   40.6270   30.5960   41.8840 C   0  0  0  0  0  0  0  0  0  0  0  0
   40.8900   30.6990   40.5770 N   0  0  0  0  0  0  0  0  0  0  0  0
   41.7740   29.7280   40.2580 C   0  0  0  0  0  0  0  0  0  0  0  0
   42.1800   29.5530   39.2750 H   0  0  0  0  0  0  0  0  0  0  0  0
   42.0690   29.0090   41.3760 N   0  0  0  0  0  0  0  0  0  0  0  0
   42.7300   28.1970   41.4010 H   0  0  0  0  0  0  0  0  0  0  0  0
   41.3630   29.5510   42.3490 N   0  0  0  0  0  0  0  0  0  0  0  0
   38.8470   32.4230   47.4940 C   0  0  0  0  0  0  0  0  0  0  0  0
   38.1250   33.1740   47.1080 H   0  0  0  0  0  0  0  0  0  0  0  0
   39.4340   33.0050   48.2660 H   0  0  0  0  0  0  0  0  0  0  0  0
   38.0800   31.4370   48.2950 C   0  0  0  0  0  0  0  0  0  0  0  0
   37.0230   30.7070   47.7410 C   0  0  0  0  0  0  0  0  0  0  0  0
   36.5300   29.8970   48.7260 C   0  0  0  0  0  0  0  0  0  0  0  0
   37.2380   30.1110   49.8250 N   0  0  0  0  0  0  0  0  0  0  0  0
   38.1530   31.0280   49.5520 N   0  0  0  0  0  0  0  0  0  0  0  0
   36.6330   30.7420   46.7290 H   0  0  0  0  0  0  0  0  0  0  0  0
   35.7170   29.1740   48.7260 H   0  0  0  0  0  0  0  0  0  0  0  0
   37.1020   29.4940   51.1400 C   0  0  0  0  0  0  0  0  0  0  0  0
   37.8670   28.3550   51.2170 F   0  0  0  0  0  0  0  0  0  0  0  0
   35.7820   29.1740   51.4100 F   0  0  0  0  0  0  0  0  0  0  0  0
   37.5330   30.3570   52.1460 F   0  0  0  0  0  0  0  0  0  0  0  0
  1  2  1  0  0  0  0
  1  3  1  0  0  0  0
  1 19  1  0  0  0  0
  4  1  1  0  0  0  0
  5  4  1  0  0  0  0
  5 10  1  0  0  0  0
  6  5  2  0  0  0  0
  7  8  2  0  0  0  0
  7  6  1  0  0  0  0
  8  9  1  0  0  0  0
  9  4  2  0  0  0  0
 11  6  1  0  0  0  0
 12 18  2  0  0  0  0
 12  8  1  0  0  0  0
 13 12  1  0  0  0  0
 14 13  2  0  0  0  0
 14 16  1  0  0  0  0
 15 14  1  0  0  0  0
 16 17  1  0  0  0  0
 16 18  1  0  0  0  0
 19 21  1  0  0  0  0
 19 22  1  0  0  0  0
 20 19  1  0  0  0  0
 22 26  2  0  0  0  0
 23 22  1  0  0  0  0
 23 24  2  0  0  0  0
 24 28  1  0  0  0  0
 24 25  1  0  0  0  0
 25 29  1  0  0  0  0
 26 25  1  0  0  0  0
 27 23  1  0  0  0  0
 29 30  1  0  0  0  0
 29 31  1  0  0  0  0
 29 32  1  0  0  0  0
M  END
>  <minimizedAffinity>
-6.25119305

>  <minimizedRMSD>
0.68583411

$$$$
