
 OpenBabel03272509413D

 33 35  0  0  0  0  0  0  0  0999 V2000
   39.2380   27.2880   32.2490 C   0  0  0  0  0  0  0  0  0  0  0  0
   40.0760   27.5470   31.1610 C   0  0  0  0  0  0  0  0  0  0  0  0
   41.4550   27.6330   31.2940 C   0  0  0  0  0  0  0  0  0  0  0  0
   42.0340   27.4550   32.5570 C   0  0  0  0  0  0  0  0  0  0  0  0
   41.2020   27.2030   33.6090 C   0  0  0  0  0  0  0  0  0  0  0  0
   39.8290   27.1230   33.4490 C   0  0  0  0  0  0  0  0  0  0  0  0
   39.6110   27.6820   30.1880 H   0  0  0  0  0  0  0  0  0  0  0  0
   42.0120   27.8370   30.3900 H   0  0  0  0  0  0  0  0  0  0  0  0
   43.1040   27.5270   32.6240 H   0  0  0  0  0  0  0  0  0  0  0  0
   41.7330   27.0800   34.5450 H   0  0  0  0  0  0  0  0  0  0  0  0
   37.8060   27.2170   32.0180 C   0  0  0  0  0  0  0  0  0  0  0  0
   37.2020   28.3460   32.0750 O   0  0  0  0  0  0  0  0  0  0  0  0
   35.0410   25.1230   30.9650 C   0  0  0  0  0  0  0  0  0  0  0  0
   35.4990   23.8310   31.1460 C   0  0  0  0  0  0  0  0  0  0  0  0
   36.7880   23.6570   31.6430 C   0  0  0  0  0  0  0  0  0  0  0  0
   37.5380   24.7590   31.9260 N   0  0  0  0  0  0  0  0  0  0  0  0
   37.0640   25.9830   31.7390 C   0  0  0  0  0  0  0  0  0  0  0  0
   35.8130   26.1550   31.2580 N   0  0  0  0  0  0  0  0  0  0  0  0
   34.0230   25.2070   30.5740 H   0  0  0  0  0  0  0  0  0  0  0  0
   34.9540   22.9160   30.9400 H   0  0  0  0  0  0  0  0  0  0  0  0
   37.2980   22.7230   31.8430 H   0  0  0  0  0  0  0  0  0  0  0  0
   39.0970   26.8510   34.6680 C   0  0  0  0  0  3  0  0  0  0  0  0
   38.8410   25.6570   35.1840 C   0  0  0  0  0  3  0  0  0  0  0  0
   38.1250   25.2340   36.3960 C   0  0  0  0  0  0  0  0  0  0  0  0
   37.0970   24.9090   36.1200 H   0  0  0  0  0  0  0  0  0  0  0  0
   37.9780   26.0390   37.1430 H   0  0  0  0  0  0  0  0  0  0  0  0
   38.8060   24.0970   37.0780 C   0  0  0  0  0  0  0  0  0  0  0  0
   39.8410   23.3420   36.6450 N   0  0  0  0  0  0  0  0  0  0  0  0
   40.1110   22.4320   37.6090 C   0  0  0  0  0  0  0  0  0  0  0  0
   40.8220   21.6290   37.7440 H   0  0  0  0  0  0  0  0  0  0  0  0
   39.2340   22.6500   38.6120 N   0  0  0  0  0  0  0  0  0  0  0  0
   39.0730   22.1900   39.5520 H   0  0  0  0  0  0  0  0  0  0  0  0
   38.4370   23.6570   38.3040 N   0  0  0  0  0  0  0  0  0  0  0  0
  1  6  1  0  0  0  0
  2  3  1  0  0  0  0
  2  1  2  0  0  0  0
  3  4  2  0  0  0  0
  4  9  1  0  0  0  0
  4  5  1  0  0  0  0
  5 10  1  0  0  0  0
  6  5  2  0  0  0  0
  6 22  1  0  0  0  0
  7  2  1  0  0  0  0
  8  3  1  0  0  0  0
 11 12  2  0  0  0  0
 11  1  1  0  0  0  0
 13 14  2  0  0  0  0
 13 18  1  0  0  0  0
 14 15  1  0  0  0  0
 15 21  1  0  0  0  0
 15 16  2  0  0  0  0
 17 16  1  0  0  0  0
 17 11  1  0  0  0  0
 18 17  2  0  0  0  0
 19 13  1  0  0  0  0
 20 14  1  0  0  0  0
 22 23  2  0  0  0  0
 23 24  1  0  0  0  0
 24 27  1  0  0  0  0
 24 26  1  0  0  0  0
 25 24  1  0  0  0  0
 27 33  2  0  0  0  0
 28 27  1  0  0  0  0
 28 29  2  0  0  0  0
 29 30  1  0  0  0  0
 29 31  1  0  0  0  0
 31 32  1  0  0  0  0
 33 31  1  0  0  0  0
M  END
>  <minimizedAffinity>
-5.67451715

$$$$

 OpenBabel03272509413D

 33 35  0  0  0  0  0  0  0  0999 V2000
   36.9420   27.2220   32.3770 C   0  0  0  0  0  0  0  0  0  0  0  0
   35.9160   28.1220   32.0750 C   0  0  0  0  0  0  0  0  0  0  0  0
   35.3810   28.9810   33.0240 C   0  0  0  0  0  0  0  0  0  0  0  0
   35.8810   28.9510   34.3320 C   0  0  0  0  0  0  0  0  0  0  0  0
   36.8830   28.0670   34.6120 C   0  0  0  0  0  0  0  0  0  0  0  0
   37.3980   27.2210   33.6450 C   0  0  0  0  0  0  0  0  0  0  0  0
   35.5400   28.1320   31.0540 H   0  0  0  0  0  0  0  0  0  0  0  0
   34.5900   29.6370   32.6870 H   0  0  0  0  0  0  0  0  0  0  0  0
   35.4450   29.6290   35.0430 H   0  0  0  0  0  0  0  0  0  0  0  0
   37.2070   28.1120   35.6440 H   0  0  0  0  0  0  0  0  0  0  0  0
   37.4410   26.3600   31.3200 C   0  0  0  0  0  0  0  0  0  0  0  0
   38.1420   26.9620   30.4300 O   0  0  0  0  0  0  0  0  0  0  0  0
   35.5940   23.2490   31.5200 C   0  0  0  0  0  0  0  0  0  0  0  0
   36.5040   22.2830   31.1320 C   0  0  0  0  0  0  0  0  0  0  0  0
   37.7900   22.6930   30.7910 C   0  0  0  0  0  0  0  0  0  0  0  0
   38.0930   24.0200   30.8520 N   0  0  0  0  0  0  0  0  0  0  0  0
   37.1930   24.9180   31.2290 C   0  0  0  0  0  0  0  0  0  0  0  0
   35.9450   24.5220   31.5620 N   0  0  0  0  0  0  0  0  0  0  0  0
   34.5990   22.8760   31.7790 H   0  0  0  0  0  0  0  0  0  0  0  0
   36.3240   21.2150   31.0630 H   0  0  0  0  0  0  0  0  0  0  0  0
   38.6170   22.0740   30.4670 H   0  0  0  0  0  0  0  0  0  0  0  0
   38.4540   26.3480   34.1110 C   0  0  0  0  0  3  0  0  0  0  0  0
   38.3000   25.2080   34.7720 C   0  0  0  0  0  3  0  0  0  0  0  0
   39.2630   24.2290   35.2960 C   0  0  0  0  0  0  0  0  0  0  0  0
   40.2730   24.6930   35.3350 H   0  0  0  0  0  0  0  0  0  0  0  0
   39.3870   23.3280   34.6630 H   0  0  0  0  0  0  0  0  0  0  0  0
   38.9040   23.7750   36.6690 C   0  0  0  0  0  0  0  0  0  0  0  0
   37.8040   24.0620   37.4010 N   0  0  0  0  0  0  0  0  0  0  0  0
   37.9240   23.4210   38.5860 C   0  0  0  0  0  0  0  0  0  0  0  0
   37.3320   23.3310   39.4850 H   0  0  0  0  0  0  0  0  0  0  0  0
   39.0970   22.7530   38.5540 N   0  0  0  0  0  0  0  0  0  0  0  0
   39.5990   22.1280   39.2460 H   0  0  0  0  0  0  0  0  0  0  0  0
   39.7020   22.9590   37.3980 N   0  0  0  0  0  0  0  0  0  0  0  0
  1  6  1  0  0  0  0
  2  1  2  0  0  0  0
  2  3  1  0  0  0  0
  3  4  2  0  0  0  0
  4  5  1  0  0  0  0
  4  9  1  0  0  0  0
  5 10  1  0  0  0  0
  6 22  1  0  0  0  0
  6  5  2  0  0  0  0
  7  2  1  0  0  0  0
  8  3  1  0  0  0  0
 11  1  1  0  0  0  0
 12 11  2  0  0  0  0
 13 18  1  0  0  0  0
 13 19  1  0  0  0  0
 14 13  2  0  0  0  0
 15 16  2  0  0  0  0
 15 14  1  0  0  0  0
 16 17  1  0  0  0  0
 17 11  1  0  0  0  0
 17 18  2  0  0  0  0
 20 14  1  0  0  0  0
 21 15  1  0  0  0  0
 22 23  2  0  0  0  0
 23 24  1  0  0  0  0
 24 25  1  0  0  0  0
 24 27  1  0  0  0  0
 26 24  1  0  0  0  0
 27 33  2  0  0  0  0
 27 28  1  0  0  0  0
 28 29  2  0  0  0  0
 29 30  1  0  0  0  0
 31 29  1  0  0  0  0
 31 32  1  0  0  0  0
 33 31  1  0  0  0  0
M  END
>  <minimizedAffinity>
-5.57988787

$$$$

 OpenBabel03272509413D

 33 35  0  0  0  0  0  0  0  0999 V2000
   37.7860   26.6770   33.2290 C   0  0  0  0  0  0  0  0  0  0  0  0
   38.8600   25.8920   33.6570 C   0  0  0  0  0  0  0  0  0  0  0  0
   39.4160   26.0260   34.9210 C   0  0  0  0  0  0  0  0  0  0  0  0
   38.8890   26.9770   35.8040 C   0  0  0  0  0  0  0  0  0  0  0  0
   37.8410   27.7360   35.3710 C   0  0  0  0  0  0  0  0  0  0  0  0
   37.3050   27.5820   34.1040 C   0  0  0  0  0  0  0  0  0  0  0  0
   39.2570   25.1590   32.9590 H   0  0  0  0  0  0  0  0  0  0  0  0
   40.2440   25.3700   35.1530 H   0  0  0  0  0  0  0  0  0  0  0  0
   39.3430   27.0540   36.7750 H   0  0  0  0  0  0  0  0  0  0  0  0
   37.4980   28.4430   36.1160 H   0  0  0  0  0  0  0  0  0  0  0  0
   37.2680   26.4700   31.8880 C   0  0  0  0  0  0  0  0  0  0  0  0
   36.3190   25.6100   31.8130 O   0  0  0  0  0  0  0  0  0  0  0  0
   37.2780   28.8380   29.1450 C   0  0  0  0  0  0  0  0  0  0  0  0
   38.4540   28.5750   28.4670 C   0  0  0  0  0  0  0  0  0  0  0  0
   39.2760   27.5600   28.9510 C   0  0  0  0  0  0  0  0  0  0  0  0
   38.8890   26.8760   30.0640 N   0  0  0  0  0  0  0  0  0  0  0  0
   37.7530   27.1570   30.6870 C   0  0  0  0  0  0  0  0  0  0  0  0
   36.9530   28.1410   30.2190 N   0  0  0  0  0  0  0  0  0  0  0  0
   36.6670   29.6430   28.7250 H   0  0  0  0  0  0  0  0  0  0  0  0
   38.8170   29.0820   27.5790 H   0  0  0  0  0  0  0  0  0  0  0  0
   40.2230   27.2280   28.5450 H   0  0  0  0  0  0  0  0  0  0  0  0
   36.1990   28.4680   33.8070 C   0  0  0  0  0  3  0  0  0  0  0  0
   35.7850   29.4880   34.5470 C   0  0  0  0  0  3  0  0  0  0  0  0
   34.6980   30.4620   34.3730 C   0  0  0  0  0  0  0  0  0  0  0  0
   33.7780   29.9290   34.0450 H   0  0  0  0  0  0  0  0  0  0  0  0
   34.8850   31.2180   33.5840 H   0  0  0  0  0  0  0  0  0  0  0  0
   34.3920   31.1880   35.6370 C   0  0  0  0  0  0  0  0  0  0  0  0
   33.1890   31.4660   36.1890 N   0  0  0  0  0  0  0  0  0  0  0  0
   33.4160   32.1430   37.3380 C   0  0  0  0  0  0  0  0  0  0  0  0
   32.8070   32.5760   38.1190 H   0  0  0  0  0  0  0  0  0  0  0  0
   34.7540   32.2650   37.4650 N   0  0  0  0  0  0  0  0  0  0  0  0
   35.3790   32.7120   38.1930 H   0  0  0  0  0  0  0  0  0  0  0  0
   35.3590   31.6900   36.4410 N   0  0  0  0  0  0  0  0  0  0  0  0
  1  2  2  0  0  0  0
  1  6  1  0  0  0  0
  2  3  1  0  0  0  0
  3  8  1  0  0  0  0
  3  4  2  0  0  0  0
  4  9  1  0  0  0  0
  5  4  1  0  0  0  0
  5 10  1  0  0  0  0
  6  5  2  0  0  0  0
  7  2  1  0  0  0  0
 11  1  1  0  0  0  0
 12 11  2  0  0  0  0
 13 18  1  0  0  0  0
 14 15  1  0  0  0  0
 14 13  2  0  0  0  0
 15 16  2  0  0  0  0
 16 17  1  0  0  0  0
 17 11  1  0  0  0  0
 18 17  2  0  0  0  0
 19 13  1  0  0  0  0
 20 14  1  0  0  0  0
 21 15  1  0  0  0  0
 22  6  1  0  0  0  0
 22 23  2  0  0  0  0
 24 23  1  0  0  0  0
 24 27  1  0  0  0  0
 25 24  1  0  0  0  0
 26 24  1  0  0  0  0
 27 28  1  0  0  0  0
 27 33  2  0  0  0  0
 28 29  2  0  0  0  0
 29 31  1  0  0  0  0
 29 30  1  0  0  0  0
 31 32  1  0  0  0  0
 33 31  1  0  0  0  0
M  END
>  <minimizedAffinity>
-5.50497103

$$$$

 OpenBabel03272509413D

 33 35  0  0  0  0  0  0  0  0999 V2000
   35.5970   29.0680   32.8500 C   0  0  0  0  0  0  0  0  0  0  0  0
   35.5940   29.5260   31.5290 C   0  0  0  0  0  0  0  0  0  0  0  0
   36.5740   29.1600   30.6170 C   0  0  0  0  0  0  0  0  0  0  0  0
   37.6040   28.3040   31.0260 C   0  0  0  0  0  0  0  0  0  0  0  0
   37.5930   27.8650   32.3180 C   0  0  0  0  0  0  0  0  0  0  0  0
   36.6040   28.2450   33.2080 C   0  0  0  0  0  0  0  0  0  0  0  0
   34.7880   30.1910   31.2290 H   0  0  0  0  0  0  0  0  0  0  0  0
   36.4790   29.5710   29.6210 H   0  0  0  0  0  0  0  0  0  0  0  0
   38.3460   28.0400   30.2940 H   0  0  0  0  0  0  0  0  0  0  0  0
   38.4240   27.2090   32.5460 H   0  0  0  0  0  0  0  0  0  0  0  0
   34.5320   29.5030   33.7360 C   0  0  0  0  0  0  0  0  0  0  0  0
   33.4030   28.9310   33.5290 O   0  0  0  0  0  0  0  0  0  0  0  0
   36.0870   32.1510   35.6610 C   0  0  0  0  0  0  0  0  0  0  0  0
   35.1740   32.4310   36.6610 C   0  0  0  0  0  0  0  0  0  0  0  0
   33.9890   31.7000   36.6900 C   0  0  0  0  0  0  0  0  0  0  0  0
   33.7810   30.7480   35.7380 N   0  0  0  0  0  0  0  0  0  0  0  0
   34.6810   30.5070   34.7940 C   0  0  0  0  0  0  0  0  0  0  0  0
   35.8320   31.2150   34.7640 N   0  0  0  0  0  0  0  0  0  0  0  0
   37.0010   32.7510   35.6820 H   0  0  0  0  0  0  0  0  0  0  0  0
   35.2800   33.1740   37.4450 H   0  0  0  0  0  0  0  0  0  0  0  0
   33.1740   31.7910   37.3970 H   0  0  0  0  0  0  0  0  0  0  0  0
   36.7440   27.6900   34.5370 C   0  0  0  0  0  3  0  0  0  0  0  0
   37.8260   27.1110   35.0400 C   0  0  0  0  0  3  0  0  0  0  0  0
   38.1130   26.5160   36.3520 C   0  0  0  0  0  0  0  0  0  0  0  0
   37.3590   26.8730   37.0890 H   0  0  0  0  0  0  0  0  0  0  0  0
   39.0910   26.8090   36.7820 H   0  0  0  0  0  0  0  0  0  0  0  0
   38.0590   25.0280   36.3130 C   0  0  0  0  0  0  0  0  0  0  0  0
   38.1220   24.2010   35.2450 N   0  0  0  0  0  0  0  0  0  0  0  0
   38.0320   22.9330   35.7060 C   0  0  0  0  0  0  0  0  0  0  0  0
   38.0330   21.9440   35.2690 H   0  0  0  0  0  0  0  0  0  0  0  0
   37.9170   23.0100   37.0490 N   0  0  0  0  0  0  0  0  0  0  0  0
   37.8210   22.2850   37.8150 H   0  0  0  0  0  0  0  0  0  0  0  0
   37.9320   24.2740   37.4310 N   0  0  0  0  0  0  0  0  0  0  0  0
  1  6  1  0  0  0  0
  1 11  1  0  0  0  0
  2  1  2  0  0  0  0
  3  4  2  0  0  0  0
  3  2  1  0  0  0  0
  4  5  1  0  0  0  0
  5 10  1  0  0  0  0
  5  6  2  0  0  0  0
  6 22  1  0  0  0  0
  7  2  1  0  0  0  0
  8  3  1  0  0  0  0
  9  4  1  0  0  0  0
 11 17  1  0  0  0  0
 12 11  2  0  0  0  0
 13 19  1  0  0  0  0
 13 14  1  0  0  0  0
 14 15  2  0  0  0  0
 14 20  1  0  0  0  0
 15 21  1  0  0  0  0
 16 15  1  0  0  0  0
 17 16  2  0  0  0  0
 18 17  1  0  0  0  0
 18 13  2  0  0  0  0
 22 23  2  0  0  0  0
 23 24  1  0  0  0  0
 24 26  1  0  0  0  0
 24 25  1  0  0  0  0
 27 24  1  0  0  0  0
 27 33  2  0  0  0  0
 28 29  2  0  0  0  0
 28 27  1  0  0  0  0
 29 31  1  0  0  0  0
 30 29  1  0  0  0  0
 31 33  1  0  0  0  0
 31 32  1  0  0  0  0
M  END
>  <minimizedAffinity>
-5.46383572

$$$$

 OpenBabel03272509413D

 33 35  0  0  0  0  0  0  0  0999 V2000
   36.7570   28.0580   32.2250 C   0  0  0  0  0  0  0  0  0  0  0  0
   36.3440   28.9560   31.2370 C   0  0  0  0  0  0  0  0  0  0  0  0
   35.6150   30.0990   31.5340 C   0  0  0  0  0  0  0  0  0  0  0  0
   35.2780   30.3690   32.8660 C   0  0  0  0  0  0  0  0  0  0  0  0
   35.6890   29.4830   33.8200 C   0  0  0  0  0  0  0  0  0  0  0  0
   36.4150   28.3500   33.4960 C   0  0  0  0  0  0  0  0  0  0  0  0
   36.6140   28.7310   30.2080 H   0  0  0  0  0  0  0  0  0  0  0  0
   35.3440   30.7260   30.6960 H   0  0  0  0  0  0  0  0  0  0  0  0
   34.7140   31.2630   33.0610 H   0  0  0  0  0  0  0  0  0  0  0  0
   35.3850   29.7700   34.8190 H   0  0  0  0  0  0  0  0  0  0  0  0
   37.5160   26.8870   31.8230 C   0  0  0  0  0  0  0  0  0  0  0  0
   38.7220   27.1330   31.4650 O   0  0  0  0  0  0  0  0  0  0  0  0
   35.2560   24.1590   31.0580 C   0  0  0  0  0  0  0  0  0  0  0  0
   35.8400   23.0530   31.6490 C   0  0  0  0  0  0  0  0  0  0  0  0
   37.0400   23.2310   32.3320 C   0  0  0  0  0  0  0  0  0  0  0  0
   37.5840   24.4790   32.3880 N   0  0  0  0  0  0  0  0  0  0  0  0
   36.9950   25.5170   31.8090 C   0  0  0  0  0  0  0  0  0  0  0  0
   35.8300   25.3460   31.1460 N   0  0  0  0  0  0  0  0  0  0  0  0
   34.3150   23.9670   30.5350 H   0  0  0  0  0  0  0  0  0  0  0  0
   35.4580   22.0370   31.6390 H   0  0  0  0  0  0  0  0  0  0  0  0
   37.6250   22.4800   32.8460 H   0  0  0  0  0  0  0  0  0  0  0  0
   36.7680   27.5180   34.6270 C   0  0  0  0  0  3  0  0  0  0  0  0
   37.8950   27.5710   35.3230 C   0  0  0  0  0  3  0  0  0  0  0  0
   38.3830   26.8060   36.4790 C   0  0  0  0  0  0  0  0  0  0  0  0
   37.7250   27.0040   37.3540 H   0  0  0  0  0  0  0  0  0  0  0  0
   39.4000   27.0890   36.8170 H   0  0  0  0  0  0  0  0  0  0  0  0
   38.3820   25.3390   36.2180 C   0  0  0  0  0  0  0  0  0  0  0  0
   37.5970   24.3790   36.7570 N   0  0  0  0  0  0  0  0  0  0  0  0
   37.9660   23.1980   36.2120 C   0  0  0  0  0  0  0  0  0  0  0  0
   37.6570   22.1660   36.3070 H   0  0  0  0  0  0  0  0  0  0  0  0
   38.9710   23.4600   35.3490 N   0  0  0  0  0  0  0  0  0  0  0  0
   39.5580   22.8550   34.7090 H   0  0  0  0  0  0  0  0  0  0  0  0
   39.2340   24.7540   35.3420 N   0  0  0  0  0  0  0  0  0  0  0  0
  1  6  1  0  0  0  0
  2  3  1  0  0  0  0
  2  1  2  0  0  0  0
  3  4  2  0  0  0  0
  4  9  1  0  0  0  0
  4  5  1  0  0  0  0
  5 10  1  0  0  0  0
  6  5  2  0  0  0  0
  6 22  1  0  0  0  0
  7  2  1  0  0  0  0
  8  3  1  0  0  0  0
 11  1  1  0  0  0  0
 12 11  2  0  0  0  0
 13 18  2  0  0  0  0
 13 14  1  0  0  0  0
 14 15  2  0  0  0  0
 15 16  1  0  0  0  0
 15 21  1  0  0  0  0
 17 11  1  0  0  0  0
 17 16  2  0  0  0  0
 18 17  1  0  0  0  0
 19 13  1  0  0  0  0
 20 14  1  0  0  0  0
 22 23  2  0  0  0  0
 23 24  1  0  0  0  0
 24 26  1  0  0  0  0
 24 25  1  0  0  0  0
 27 24  1  0  0  0  0
 27 28  1  0  0  0  0
 29 30  1  0  0  0  0
 29 28  2  0  0  0  0
 31 29  1  0  0  0  0
 32 31  1  0  0  0  0
 33 31  1  0  0  0  0
 33 27  2  0  0  0  0
M  END
>  <minimizedAffinity>
-5.32287836

$$$$

 OpenBabel03272509413D

 33 35  0  0  0  0  0  0  0  0999 V2000
   38.4680   26.9630   33.6620 C   0  0  0  0  0  0  0  0  0  0  0  0
   39.4370   26.6070   32.7210 C   0  0  0  0  0  0  0  0  0  0  0  0
   39.3660   27.0110   31.3960 C   0  0  0  0  0  0  0  0  0  0  0  0
   38.2900   27.8040   30.9790 C   0  0  0  0  0  0  0  0  0  0  0  0
   37.3510   28.1440   31.9100 C   0  0  0  0  0  0  0  0  0  0  0  0
   37.4460   27.7260   33.2260 C   0  0  0  0  0  0  0  0  0  0  0  0
   40.2670   25.9910   33.0620 H   0  0  0  0  0  0  0  0  0  0  0  0
   40.1680   26.6800   30.7500 H   0  0  0  0  0  0  0  0  0  0  0  0
   38.2660   28.1010   29.9470 H   0  0  0  0  0  0  0  0  0  0  0  0
   36.5570   28.7560   31.5010 H   0  0  0  0  0  0  0  0  0  0  0  0
   38.6220   26.4940   35.0280 C   0  0  0  0  0  0  0  0  0  0  0  0
   39.0970   27.3670   35.8390 O   0  0  0  0  0  0  0  0  0  0  0  0
   38.0660   22.9170   34.8490 C   0  0  0  0  0  0  0  0  0  0  0  0
   37.6920   22.5620   36.1320 C   0  0  0  0  0  0  0  0  0  0  0  0
   37.6220   23.5650   37.0950 C   0  0  0  0  0  0  0  0  0  0  0  0
   37.9250   24.8440   36.7350 N   0  0  0  0  0  0  0  0  0  0  0  0
   38.2810   25.1460   35.4930 C   0  0  0  0  0  0  0  0  0  0  0  0
   38.3480   24.1740   34.5570 N   0  0  0  0  0  0  0  0  0  0  0  0
   38.1050   22.0940   34.1290 H   0  0  0  0  0  0  0  0  0  0  0  0
   37.4390   21.5660   36.4810 H   0  0  0  0  0  0  0  0  0  0  0  0
   37.3490   23.4620   38.1380 H   0  0  0  0  0  0  0  0  0  0  0  0
   36.3650   28.1750   34.0780 C   0  0  0  0  0  3  0  0  0  0  0  0
   35.6600   29.2880   33.9370 C   0  0  0  0  0  3  0  0  0  0  0  0
   34.5490   29.8620   34.7100 C   0  0  0  0  0  0  0  0  0  0  0  0
   34.5960   30.9730   34.6490 H   0  0  0  0  0  0  0  0  0  0  0  0
   34.5820   29.6350   35.7940 H   0  0  0  0  0  0  0  0  0  0  0  0
   33.2230   29.4230   34.1910 C   0  0  0  0  0  0  0  0  0  0  0  0
   32.0970   29.1250   34.8780 N   0  0  0  0  0  0  0  0  0  0  0  0
   31.1510   28.7760   33.9770 C   0  0  0  0  0  0  0  0  0  0  0  0
   30.1170   28.4640   34.0150 H   0  0  0  0  0  0  0  0  0  0  0  0
   31.7190   28.8690   32.7550 N   0  0  0  0  0  0  0  0  0  0  0  0
   31.3660   28.6950   31.7720 H   0  0  0  0  0  0  0  0  0  0  0  0
   32.9750   29.2600   32.8700 N   0  0  0  0  0  0  0  0  0  0  0  0
  1 11  1  0  0  0  0
  2  7  1  0  0  0  0
  2  1  2  0  0  0  0
  3  2  1  0  0  0  0
  4  3  2  0  0  0  0
  4  5  1  0  0  0  0
  5  6  2  0  0  0  0
  6  1  1  0  0  0  0
  6 22  1  0  0  0  0
  8  3  1  0  0  0  0
  9  4  1  0  0  0  0
 10  5  1  0  0  0  0
 11 17  1  0  0  0  0
 11 12  2  0  0  0  0
 13 14  1  0  0  0  0
 14 20  1  0  0  0  0
 14 15  2  0  0  0  0
 15 21  1  0  0  0  0
 16 15  1  0  0  0  0
 17 16  2  0  0  0  0
 18 13  2  0  0  0  0
 18 17  1  0  0  0  0
 19 13  1  0  0  0  0
 23 22  2  0  0  0  0
 23 24  1  0  0  0  0
 24 26  1  0  0  0  0
 25 24  1  0  0  0  0
 27 24  1  0  0  0  0
 27 28  1  0  0  0  0
 29 30  1  0  0  0  0
 29 28  2  0  0  0  0
 31 33  1  0  0  0  0
 31 29  1  0  0  0  0
 32 31  1  0  0  0  0
 33 27  2  0  0  0  0
M  END
>  <minimizedAffinity>
-5.28670549

$$$$

 OpenBabel03272509413D

 33 35  0  0  0  0  0  0  0  0999 V2000
   38.4690   24.0410   35.4320 C   0  0  0  0  0  0  0  0  0  0  0  0
   38.5740   22.9870   36.3440 C   0  0  0  0  0  0  0  0  0  0  0  0
   38.3800   23.1650   37.7060 C   0  0  0  0  0  0  0  0  0  0  0  0
   38.0680   24.4400   38.1930 C   0  0  0  0  0  0  0  0  0  0  0  0
   37.9680   25.4590   37.2900 C   0  0  0  0  0  0  0  0  0  0  0  0
   38.1670   25.2550   35.9360 C   0  0  0  0  0  0  0  0  0  0  0  0
   38.8180   22.0030   35.9490 H   0  0  0  0  0  0  0  0  0  0  0  0
   38.4860   22.2830   38.3240 H   0  0  0  0  0  0  0  0  0  0  0  0
   37.9230   24.5420   39.2530 H   0  0  0  0  0  0  0  0  0  0  0  0
   37.7230   26.4080   37.7530 H   0  0  0  0  0  0  0  0  0  0  0  0
   38.6890   23.7640   34.0240 C   0  0  0  0  0  0  0  0  0  0  0  0
   39.9170   23.8230   33.6570 O   0  0  0  0  0  0  0  0  0  0  0  0
   36.2460   21.7430   32.2690 C   0  0  0  0  0  0  0  0  0  0  0  0
   35.6730   22.6110   31.3570 C   0  0  0  0  0  0  0  0  0  0  0  0
   36.1260   23.9270   31.3310 C   0  0  0  0  0  0  0  0  0  0  0  0
   37.1070   24.3010   32.1990 N   0  0  0  0  0  0  0  0  0  0  0  0
   37.6340   23.4400   33.0600 C   0  0  0  0  0  0  0  0  0  0  0  0
   37.1950   22.1620   33.0870 N   0  0  0  0  0  0  0  0  0  0  0  0
   35.8560   20.7210   32.2500 H   0  0  0  0  0  0  0  0  0  0  0  0
   34.8910   22.3750   30.6430 H   0  0  0  0  0  0  0  0  0  0  0  0
   35.7890   24.7290   30.6860 H   0  0  0  0  0  0  0  0  0  0  0  0
   38.0250   26.4430   35.1210 C   0  0  0  0  0  3  0  0  0  0  0  0
   36.8890   26.9580   34.6700 C   0  0  0  0  0  3  0  0  0  0  0  0
   36.5940   28.1420   33.8500 C   0  0  0  0  0  0  0  0  0  0  0  0
   37.2660   28.9750   34.1540 H   0  0  0  0  0  0  0  0  0  0  0  0
   35.5690   28.5420   33.9790 H   0  0  0  0  0  0  0  0  0  0  0  0
   36.8030   27.8800   32.3980 C   0  0  0  0  0  0  0  0  0  0  0  0
   37.9590   27.8460   31.6970 N   0  0  0  0  0  0  0  0  0  0  0  0
   37.6460   27.5710   30.4100 C   0  0  0  0  0  0  0  0  0  0  0  0
   38.1930   27.4400   29.4870 H   0  0  0  0  0  0  0  0  0  0  0  0
   36.3030   27.4410   30.3520 N   0  0  0  0  0  0  0  0  0  0  0  0
   35.6250   27.2300   29.5660 H   0  0  0  0  0  0  0  0  0  0  0  0
   35.7790   27.6260   31.5500 N   0  0  0  0  0  0  0  0  0  0  0  0
  1  6  2  0  0  0  0
  1  2  1  0  0  0  0
  2  3  2  0  0  0  0
  3  4  1  0  0  0  0
  3  8  1  0  0  0  0
  4  9  1  0  0  0  0
  5 10  1  0  0  0  0
  5  4  2  0  0  0  0
  6  5  1  0  0  0  0
  7  2  1  0  0  0  0
 11  1  1  0  0  0  0
 12 11  2  0  0  0  0
 13 18  1  0  0  0  0
 14 13  2  0  0  0  0
 15 14  1  0  0  0  0
 15 16  2  0  0  0  0
 16 17  1  0  0  0  0
 17 18  2  0  0  0  0
 17 11  1  0  0  0  0
 19 13  1  0  0  0  0
 20 14  1  0  0  0  0
 21 15  1  0  0  0  0
 22  6  1  0  0  0  0
 23 22  2  0  0  0  0
 24 26  1  0  0  0  0
 24 25  1  0  0  0  0
 24 23  1  0  0  0  0
 27 24  1  0  0  0  0
 28 27  1  0  0  0  0
 29 28  2  0  0  0  0
 30 29  1  0  0  0  0
 31 29  1  0  0  0  0
 31 33  1  0  0  0  0
 32 31  1  0  0  0  0
 33 27  2  0  0  0  0
M  END
>  <minimizedAffinity>
-5.27728462

$$$$

 OpenBabel03272509413D

 33 35  0  0  0  0  0  0  0  0999 V2000
   37.9960   26.5640   33.3530 C   0  0  0  0  0  0  0  0  0  0  0  0
   39.1770   25.9280   33.7470 C   0  0  0  0  0  0  0  0  0  0  0  0
   39.7790   26.1780   34.9710 C   0  0  0  0  0  0  0  0  0  0  0  0
   39.1900   27.0980   35.8480 C   0  0  0  0  0  0  0  0  0  0  0  0
   38.0380   27.7100   35.4500 C   0  0  0  0  0  0  0  0  0  0  0  0
   37.4580   27.4430   34.2220 C   0  0  0  0  0  0  0  0  0  0  0  0
   39.6210   25.2170   33.0530 H   0  0  0  0  0  0  0  0  0  0  0  0
   40.6900   25.6330   35.1780 H   0  0  0  0  0  0  0  0  0  0  0  0
   39.6820   27.2670   36.7890 H   0  0  0  0  0  0  0  0  0  0  0  0
   37.6530   28.4040   36.1880 H   0  0  0  0  0  0  0  0  0  0  0  0
   37.4370   26.2420   32.0520 C   0  0  0  0  0  0  0  0  0  0  0  0
   37.3870   27.2300   31.2360 O   0  0  0  0  0  0  0  0  0  0  0  0
   37.5910   22.8490   30.7880 C   0  0  0  0  0  0  0  0  0  0  0  0
   36.2850   22.3970   30.8560 C   0  0  0  0  0  0  0  0  0  0  0  0
   35.3150   23.2680   31.3450 C   0  0  0  0  0  0  0  0  0  0  0  0
   35.6910   24.5180   31.7330 N   0  0  0  0  0  0  0  0  0  0  0  0
   36.9540   24.9160   31.6540 C   0  0  0  0  0  0  0  0  0  0  0  0
   37.8970   24.0730   31.1790 N   0  0  0  0  0  0  0  0  0  0  0  0
   38.3150   22.1280   30.3970 H   0  0  0  0  0  0  0  0  0  0  0  0
   35.9240   21.4160   30.5630 H   0  0  0  0  0  0  0  0  0  0  0  0
   34.2560   23.0760   31.4640 H   0  0  0  0  0  0  0  0  0  0  0  0
   36.2410   28.1810   33.9580 C   0  0  0  0  0  3  0  0  0  0  0  0
   35.8550   29.3030   34.5490 C   0  0  0  0  0  3  0  0  0  0  0  0
   34.6680   30.1530   34.3830 C   0  0  0  0  0  0  0  0  0  0  0  0
   33.7800   29.5100   34.1950 H   0  0  0  0  0  0  0  0  0  0  0  0
   34.7140   30.8360   33.5110 H   0  0  0  0  0  0  0  0  0  0  0  0
   34.3990   30.9780   35.5940 C   0  0  0  0  0  0  0  0  0  0  0  0
   33.2120   31.3240   36.1420 N   0  0  0  0  0  0  0  0  0  0  0  0
   33.4720   32.0790   37.2330 C   0  0  0  0  0  0  0  0  0  0  0  0
   32.8860   32.5830   37.9890 H   0  0  0  0  0  0  0  0  0  0  0  0
   34.8150   32.1780   37.3320 N   0  0  0  0  0  0  0  0  0  0  0  0
   35.4610   32.6630   38.0160 H   0  0  0  0  0  0  0  0  0  0  0  0
   35.3900   31.5150   36.3450 N   0  0  0  0  0  0  0  0  0  0  0  0
  1  2  2  0  0  0  0
  1  6  1  0  0  0  0
  2  3  1  0  0  0  0
  3  8  1  0  0  0  0
  3  4  2  0  0  0  0
  4  9  1  0  0  0  0
  5  4  1  0  0  0  0
  5 10  1  0  0  0  0
  6  5  2  0  0  0  0
  7  2  1  0  0  0  0
 11  1  1  0  0  0  0
 12 11  2  0  0  0  0
 13 14  2  0  0  0  0
 13 18  1  0  0  0  0
 14 15  1  0  0  0  0
 15 21  1  0  0  0  0
 15 16  2  0  0  0  0
 17 16  1  0  0  0  0
 17 11  1  0  0  0  0
 18 17  2  0  0  0  0
 19 13  1  0  0  0  0
 20 14  1  0  0  0  0
 22  6  1  0  0  0  0
 22 23  2  0  0  0  0
 24 23  1  0  0  0  0
 24 27  1  0  0  0  0
 25 24  1  0  0  0  0
 26 24  1  0  0  0  0
 27 28  1  0  0  0  0
 27 33  2  0  0  0  0
 28 29  2  0  0  0  0
 29 31  1  0  0  0  0
 29 30  1  0  0  0  0
 31 32  1  0  0  0  0
 33 31  1  0  0  0  0
M  END
>  <minimizedAffinity>
-5.26848364

$$$$

 OpenBabel03272509413D

 33 35  0  0  0  0  0  0  0  0999 V2000
   38.2180   25.1540   35.5010 C   0  0  0  0  0  0  0  0  0  0  0  0
   38.2270   26.3830   36.1660 C   0  0  0  0  0  0  0  0  0  0  0  0
   37.9080   27.5720   35.5260 C   0  0  0  0  0  0  0  0  0  0  0  0
   37.5650   27.5490   34.1690 C   0  0  0  0  0  0  0  0  0  0  0  0
   37.5600   26.3410   33.5340 C   0  0  0  0  0  0  0  0  0  0  0  0
   37.8830   25.1690   34.1950 C   0  0  0  0  0  0  0  0  0  0  0  0
   38.4960   26.3830   37.2200 H   0  0  0  0  0  0  0  0  0  0  0  0
   37.9460   28.4680   36.1320 H   0  0  0  0  0  0  0  0  0  0  0  0
   37.3220   28.4870   33.7050 H   0  0  0  0  0  0  0  0  0  0  0  0
   37.2840   26.4170   32.4890 H   0  0  0  0  0  0  0  0  0  0  0  0
   38.5660   23.9590   36.2500 C   0  0  0  0  0  0  0  0  0  0  0  0
   37.5840   23.4160   36.8700 O   0  0  0  0  0  0  0  0  0  0  0  0
   41.2300   21.7830   37.3920 C   0  0  0  0  0  0  0  0  0  0  0  0
   42.3260   22.1540   36.6350 C   0  0  0  0  0  0  0  0  0  0  0  0
   42.1630   23.1760   35.7040 C   0  0  0  0  0  0  0  0  0  0  0  0
   40.9400   23.7630   35.5790 N   0  0  0  0  0  0  0  0  0  0  0  0
   39.9110   23.3800   36.3240 C   0  0  0  0  0  0  0  0  0  0  0  0
   40.0670   22.3880   37.2290 N   0  0  0  0  0  0  0  0  0  0  0  0
   41.4090   20.9770   38.1090 H   0  0  0  0  0  0  0  0  0  0  0  0
   43.3220   21.7270   36.6860 H   0  0  0  0  0  0  0  0  0  0  0  0
   42.9100   23.5860   35.0350 H   0  0  0  0  0  0  0  0  0  0  0  0
   37.8300   23.9790   33.3730 C   0  0  0  0  0  3  0  0  0  0  0  0
   37.1550   23.8330   32.2400 C   0  0  0  0  0  3  0  0  0  0  0  0
   37.0130   22.7050   31.3100 C   0  0  0  0  0  0  0  0  0  0  0  0
   38.0240   22.3390   31.0200 H   0  0  0  0  0  0  0  0  0  0  0  0
   36.5180   22.9630   30.3520 H   0  0  0  0  0  0  0  0  0  0  0  0
   36.2650   21.5700   31.9190 C   0  0  0  0  0  0  0  0  0  0  0  0
   36.5290   20.8890   33.0570 N   0  0  0  0  0  0  0  0  0  0  0  0
   35.5700   19.9460   33.1990 C   0  0  0  0  0  0  0  0  0  0  0  0
   35.3390   19.1720   33.9170 H   0  0  0  0  0  0  0  0  0  0  0  0
   34.7370   20.0700   32.1430 N   0  0  0  0  0  0  0  0  0  0  0  0
   33.8630   19.5560   31.8400 H   0  0  0  0  0  0  0  0  0  0  0  0
   35.1460   21.0510   31.3590 N   0  0  0  0  0  0  0  0  0  0  0  0
  1  2  1  0  0  0  0
  1 11  1  0  0  0  0
  2  7  1  0  0  0  0
  3  8  1  0  0  0  0
  3  2  2  0  0  0  0
  4  3  1  0  0  0  0
  5  4  2  0  0  0  0
  5  6  1  0  0  0  0
  6  1  2  0  0  0  0
  9  4  1  0  0  0  0
 10  5  1  0  0  0  0
 11 17  1  0  0  0  0
 11 12  2  0  0  0  0
 13 19  1  0  0  0  0
 14 20  1  0  0  0  0
 14 13  2  0  0  0  0
 15 14  1  0  0  0  0
 16 15  2  0  0  0  0
 16 17  1  0  0  0  0
 17 18  2  0  0  0  0
 18 13  1  0  0  0  0
 21 15  1  0  0  0  0
 22  6  1  0  0  0  0
 23 22  2  0  0  0  0
 24 27  1  0  0  0  0
 24 23  1  0  0  0  0
 25 24  1  0  0  0  0
 26 24  1  0  0  0  0
 27 28  1  0  0  0  0
 28 29  2  0  0  0  0
 29 30  1  0  0  0  0
 31 29  1  0  0  0  0
 32 31  1  0  0  0  0
 33 27  2  0  0  0  0
 33 31  1  0  0  0  0
M  END
>  <minimizedAffinity>
-5.23961878

$$$$
