
 OpenBabel03272509183D

 31 33  0  0  0  0  0  0  0  0999 V2000
   38.0610   31.2530   47.7070 C   0  0  0  0  0  0  0  0  0  0  0  0
   37.0860   31.2640   48.6860 C   0  0  0  0  0  0  0  0  0  0  0  0
   37.1640   32.3680   49.5570 C   0  0  0  0  0  0  0  0  0  0  0  0
   38.1490   33.3450   49.4180 C   0  0  0  0  0  0  0  0  0  0  0  0
   39.0850   33.2440   48.3990 C   0  0  0  0  0  0  0  0  0  0  0  0
   39.0340   32.1670   47.5260 C   0  0  0  0  0  0  0  0  0  0  0  0
   36.4400   32.4390   50.3370 H   0  0  0  0  0  0  0  0  0  0  0  0
   38.1820   34.1820   50.1030 H   0  0  0  0  0  0  0  0  0  0  0  0
   39.8660   33.9840   48.2600 H   0  0  0  0  0  0  0  0  0  0  0  0
   34.9300   30.3170   48.0190 C   0  0  0  0  0  0  0  0  0  0  0  0
   36.0750   30.2650   48.8330 C   0  0  0  0  0  0  0  0  0  0  0  0
   36.1860   29.2310   49.7640 C   0  0  0  0  0  0  0  0  0  0  0  0
   35.1640   28.3290   49.8250 N   0  0  0  0  0  0  0  0  0  0  0  0
   34.0790   28.4030   49.0340 C   0  0  0  0  0  0  0  0  0  0  0  0
   33.9630   29.3870   48.1390 N   0  0  0  0  0  0  0  0  0  0  0  0
   34.8320   31.1180   47.2890 H   0  0  0  0  0  0  0  0  0  0  0  0
   33.3350   27.6350   49.1690 H   0  0  0  0  0  0  0  0  0  0  0  0
   37.3730   29.1380   50.6420 C   0  0  0  0  0  0  0  0  0  0  0  0
   37.6700   28.0960   50.8870 H   0  0  0  0  0  0  0  0  0  0  0  0
   38.1940   29.7250   50.1590 H   0  0  0  0  0  0  0  0  0  0  0  0
   37.1200   29.7180   51.5650 H   0  0  0  0  0  0  0  0  0  0  0  0
   38.0610   30.1890   46.7940 O   0  0  0  0  0  0  0  0  0  0  0  0
   37.2750   29.9410   46.2120 H   0  0  0  0  0  0  0  0  0  0  0  0
   39.9860   32.0830   46.5060 O   0  0  0  0  0  0  0  0  0  0  0  0
   39.4880   32.0800   45.2110 C   0  0  0  0  0  0  0  0  0  0  0  0
   38.7300   32.9820   44.5620 N   0  0  0  0  0  0  0  0  0  0  0  0
   38.5150   32.5120   43.3180 C   0  0  0  0  0  0  0  0  0  0  0  0
   37.9350   33.0160   42.5540 H   0  0  0  0  0  0  0  0  0  0  0  0
   39.1370   31.3250   43.1980 N   0  0  0  0  0  0  0  0  0  0  0  0
   39.1470   30.7230   42.3450 H   0  0  0  0  0  0  0  0  0  0  0  0
   39.7170   31.0880   44.3550 N   0  0  0  0  0  0  0  0  0  0  0  0
  1  2  1  0  0  0  0
  2 11  1  0  0  0  0
  2  3  2  0  0  0  0
  3  7  1  0  0  0  0
  4  3  1  0  0  0  0
  4  8  1  0  0  0  0
  5  4  2  0  0  0  0
  6  1  2  0  0  0  0
  6  5  1  0  0  0  0
  9  5  1  0  0  0  0
 10 15  2  0  0  0  0
 10 11  1  0  0  0  0
 11 12  2  0  0  0  0
 12 13  1  0  0  0  0
 12 18  1  0  0  0  0
 14 17  1  0  0  0  0
 14 13  2  0  0  0  0
 15 14  1  0  0  0  0
 16 10  1  0  0  0  0
 18 19  1  0  0  0  0
 18 21  1  0  0  0  0
 20 18  1  0  0  0  0
 22  1  1  0  0  0  0
 23 22  1  0  0  0  0
 24  6  1  0  0  0  0
 25 24  1  0  0  0  0
 26 25  1  0  0  0  0
 27 26  2  0  0  0  0
 28 27  1  0  0  0  0
 29 27  1  0  0  0  0
 29 31  1  0  0  0  0
 30 29  1  0  0  0  0
 31 25  2  0  0  0  0
M  END
>  <minimizedAffinity>
-6.13733053

>  <minimizedRMSD>
0.290561169

$$$$
