
 OpenBabel03272508573D

 38 41  0  0  1  0  0  0  0  0999 V2000
   38.3580   31.9020   44.5050 C   0  0  0  0  0  0  0  0  0  0  0  0
   37.2500   32.4520   44.4080 O   0  0  0  0  0  0  0  0  0  0  0  0
   38.9450   31.6250   45.8110 N   0  0  0  0  0  0  0  0  0  0  0  0
   39.9260   31.3610   45.9470 H   0  0  0  0  0  0  0  0  0  0  0  0
   39.1450   31.4960   43.3120 C   0  0  0  0  0  0  0  0  0  0  0  0
   40.1320   30.5610   43.4580 C   0  0  0  0  0  0  0  0  0  0  0  0
   40.8470   30.2090   42.3220 C   0  0  0  0  0  0  0  0  0  0  0  0
   40.5120   30.8240   41.1290 C   0  0  0  0  0  0  0  0  0  0  0  0
   39.5130   31.7670   40.9890 C   0  0  0  0  0  0  0  0  0  0  0  0
   38.8400   32.0830   42.1230 N   0  0  0  0  0  0  0  0  0  0  0  0
   40.3620   30.1040   44.4120 H   0  0  0  0  0  0  0  0  0  0  0  0
   41.6360   29.4800   42.3730 H   0  0  0  0  0  0  0  0  0  0  0  0
   41.1030   30.5140   40.2610 H   0  0  0  0  0  0  0  0  0  0  0  0
   39.2050   32.3720   39.7040 C   0  0  0  0  0  0  0  0  0  0  0  0
   38.7690   33.5470   39.6640 O   0  0  0  0  0  0  0  0  0  0  0  0
   39.3990   31.6230   38.4670 C   0  0  0  0  0  0  0  0  0  0  0  0
   40.4000   31.7940   37.5870 N   0  0  0  0  0  0  0  0  0  0  0  0
   40.2460   30.9110   36.5560 C   0  0  0  0  0  0  0  0  0  0  0  0
   40.8110   30.7080   35.6510 H   0  0  0  0  0  0  0  0  0  0  0  0
   39.1210   30.1970   36.8320 N   0  0  0  0  0  0  0  0  0  0  0  0
   38.6010   29.4190   36.3480 H   0  0  0  0  0  0  0  0  0  0  0  0
   38.6150   30.6380   37.9950 N   0  0  0  0  0  0  0  0  0  0  0  0
   38.4400   31.1060   48.1890 C   0  0  2  0  0  0  0  0  0  0  0  0
   38.6800   32.5710   48.1110 C   0  0  0  0  0  0  0  0  0  0  0  0
   38.0820   31.7350   46.9600 C   0  0  1  0  0  0  0  0  0  0  0  0
   39.3740   30.5180   48.2900 H   0  0  0  0  0  0  0  0  0  0  0  0
   39.6870   32.9650   47.9820 H   0  0  0  0  0  0  0  0  0  0  0  0
   37.9990   33.2090   48.7030 H   0  0  0  0  0  0  0  0  0  0  0  0
   37.0000   32.0050   46.7680 H   0  0  0  0  0  0  0  0  0  0  0  0
   35.0730   30.2250   49.5020 C   0  0  0  0  0  0  0  0  0  0  0  0
   35.3980   29.5470   50.7050 C   0  0  0  0  0  0  0  0  0  0  0  0
   36.7940   29.4090   51.0560 C   0  0  0  0  0  0  0  0  0  0  0  0
   37.7510   29.9340   50.2230 N   0  0  0  0  0  0  0  0  0  0  0  0
   37.3500   30.5680   49.0900 C   0  0  0  0  0  0  0  0  0  0  0  0
   36.0280   30.7360   48.6940 N   0  0  0  0  0  0  0  0  0  0  0  0
   34.0190   30.3050   49.2790 H   0  0  0  0  0  0  0  0  0  0  0  0
   34.6420   29.1470   51.3370 H   0  0  0  0  0  0  0  0  0  0  0  0
   37.0510   28.8930   51.9710 H   0  0  0  0  0  0  0  0  0  0  0  0
  1  3  1  0  0  0  0
  2  1  2  0  0  0  0
  3  4  1  0  0  0  0
  3 25  1  0  0  0  0
  5  6  1  0  0  0  0
  5  1  1  0  0  0  0
  6 11  1  0  0  0  0
  7 12  1  0  0  0  0
  7  6  2  0  0  0  0
  8  7  1  0  0  0  0
  9  8  2  0  0  0  0
  9 10  1  0  0  0  0
 10  5  2  0  0  0  0
 13  8  1  0  0  0  0
 14  9  1  0  0  0  0
 15 14  2  0  0  0  0
 16 14  1  0  0  0  0
 17 16  1  0  0  0  0
 18 20  1  0  0  0  0
 18 17  2  0  0  0  0
 19 18  1  0  0  0  0
 20 22  1  0  0  0  0
 21 20  1  0  0  0  0
 22 16  2  0  0  0  0
 23 26  1  6  0  0  0
 23 34  1  0  0  0  0
 24 23  1  0  0  0  0
 24 28  1  0  0  0  0
 25 29  1  6  0  0  0
 25 24  1  0  0  0  0
 25 23  1  0  0  0  0
 27 24  1  0  0  0  0
 30 31  1  0  0  0  0
 31 32  2  0  0  0  0
 31 37  1  0  0  0  0
 32 38  1  0  0  0  0
 33 32  1  0  0  0  0
 34 33  2  0  0  0  0
 35 34  1  0  0  0  0
 35 30  2  0  0  0  0
 36 30  1  0  0  0  0
M  END
>  <minimizedAffinity>
-4.90355825

>  <minimizedRMSD>
0.115841851

$$$$
