
 OpenBabel03272501083D

 38 41  0  0  1  0  0  0  0  0999 V2000
   38.9820   32.4390   47.5780 C   0  0  2  0  0  0  0  0  0  0  0  0
   37.9920   32.6160   48.7620 C   0  0  2  0  0  0  0  0  0  0  0  0
   38.8200   33.3200   49.7280 C   0  0  0  0  0  0  0  0  0  0  0  0
   39.6540   34.1820   49.0240 O   0  0  0  0  0  0  0  0  0  0  0  0
   39.6000   33.8630   47.7050 C   0  0  0  0  0  0  0  0  0  0  0  0
   39.7400   31.7000   47.8320 H   0  0  0  0  0  0  0  0  0  0  0  0
   37.1820   33.2510   48.3020 H   0  0  0  0  0  0  0  0  0  0  0  0
   38.1560   33.9940   50.3430 H   0  0  0  0  0  0  0  0  0  0  0  0
   39.3690   32.6910   50.4190 H   0  0  0  0  0  0  0  0  0  0  0  0
   40.6370   33.7410   47.3250 H   0  0  0  0  0  0  0  0  0  0  0  0
   39.0580   34.5520   47.0440 H   0  0  0  0  0  0  0  0  0  0  0  0
   37.3480   29.3220   50.4700 C   0  0  0  0  0  0  0  0  0  0  0  0
   37.9990   30.5430   50.1380 C   0  0  0  0  0  0  0  0  0  0  0  0
   37.3790   31.3660   49.1530 C   0  0  0  0  0  0  0  0  0  0  0  0
   36.1980   30.9510   48.5800 N   0  0  0  0  0  0  0  0  0  0  0  0
   35.6290   29.7970   48.9280 C   0  0  0  0  0  0  0  0  0  0  0  0
   36.1870   28.9770   49.8650 N   0  0  0  0  0  0  0  0  0  0  0  0
   37.7620   28.6500   51.2070 H   0  0  0  0  0  0  0  0  0  0  0  0
   38.9070   30.7880   50.6240 H   0  0  0  0  0  0  0  0  0  0  0  0
   34.7080   29.5900   48.4030 H   0  0  0  0  0  0  0  0  0  0  0  0
   38.3450   32.3490   46.3870 O   0  0  0  0  0  0  0  0  0  0  0  0
   40.8080   31.8730   44.5950 Cl  0  0  0  0  0  0  0  0  0  0  0  0
   39.2520   31.1020   44.4050 C   0  0  0  0  0  0  0  0  0  0  0  0
   38.3110   31.4910   45.3450 C   0  0  0  0  0  0  0  0  0  0  0  0
   37.0730   30.8840   45.2030 C   0  0  0  0  0  0  0  0  0  0  0  0
   36.8020   29.9710   44.2080 C   0  0  0  0  0  0  0  0  0  0  0  0
   37.7840   29.6350   43.3120 C   0  0  0  0  0  0  0  0  0  0  0  0
   39.0420   30.1980   43.3920 C   0  0  0  0  0  0  0  0  0  0  0  0
   36.2170   31.0630   45.8410 H   0  0  0  0  0  0  0  0  0  0  0  0
   35.8550   29.4810   44.0680 H   0  0  0  0  0  0  0  0  0  0  0  0
   37.6190   28.9220   42.5150 H   0  0  0  0  0  0  0  0  0  0  0  0
   40.1600   29.9150   42.4960 C   0  0  0  0  0  0  0  0  0  0  0  0
   40.5360   30.5540   41.3740 N   0  0  0  0  0  0  0  0  0  0  0  0
   41.6420   29.9230   40.8800 C   0  0  0  0  0  0  0  0  0  0  0  0
   41.9900   30.4060   39.9610 H   0  0  0  0  0  0  0  0  0  0  0  0
   41.9380   28.8890   41.7140 N   0  0  0  0  0  0  0  0  0  0  0  0
   42.7670   28.3530   41.4140 H   0  0  0  0  0  0  0  0  0  0  0  0
   41.0350   28.9030   42.6790 N   0  0  0  0  0  0  0  0  0  0  0  0
  1  5  1  0  0  0  0
  1  6  1  1  0  0  0
  1  2  1  0  0  0  0
  2  7  1  6  0  0  0
  2 14  1  0  0  0  0
  2  3  1  0  0  0  0
  3  8  1  0  0  0  0
  3  9  1  0  0  0  0
  4  3  1  0  0  0  0
  5  4  1  0  0  0  0
 10  5  1  0  0  0  0
 11  5  1  0  0  0  0
 12 18  1  0  0  0  0
 13 12  1  0  0  0  0
 13 19  1  0  0  0  0
 14 13  2  0  0  0  0
 15 16  2  0  0  0  0
 15 14  1  0  0  0  0
 16 17  1  0  0  0  0
 17 12  2  0  0  0  0
 20 16  1  0  0  0  0
 21  1  1  0  0  0  0
 23 22  1  0  0  0  0
 23 24  1  0  0  0  0
 24 21  1  0  0  0  0
 25 24  2  0  0  0  0
 25 29  1  0  0  0  0
 26 25  1  0  0  0  0
 27 28  1  0  0  0  0
 27 26  2  0  0  0  0
 28 23  2  0  0  0  0
 30 26  1  0  0  0  0
 31 27  1  0  0  0  0
 32 38  2  0  0  0  0
 32 28  1  0  0  0  0
 33 32  1  0  0  0  0
 34 33  2  0  0  0  0
 34 36  1  0  0  0  0
 35 34  1  0  0  0  0
 36 38  1  0  0  0  0
 37 36  1  0  0  0  0
M  END
>  <minimizedAffinity>
-6.20418835

>  <minimizedRMSD>
0.84960109

$$$$
