
 OpenBabel03272505093D

 27 29  0  0  0  0  0  0  0  0999 V2000
   36.0530   30.6210   46.0800 Cl  0  0  0  0  0  0  0  0  0  0  0  0
   36.5100   30.3490   47.7430 C   0  0  0  0  0  0  0  0  0  0  0  0
   37.7870   30.6750   48.0870 C   0  0  0  0  0  0  0  0  0  0  0  0
   38.1720   30.4650   49.4120 C   0  0  0  0  0  0  0  0  0  0  0  0
   37.2680   29.9470   50.3130 C   0  0  0  0  0  0  0  0  0  0  0  0
   36.0000   29.6430   49.8960 C   0  0  0  0  0  0  0  0  0  0  0  0
   35.5690   29.8250   48.6180 C   0  0  0  0  0  0  0  0  0  0  0  0
   39.1770   30.7150   49.7100 H   0  0  0  0  0  0  0  0  0  0  0  0
   37.5980   29.7970   51.3320 H   0  0  0  0  0  0  0  0  0  0  0  0
   35.2990   29.2360   50.6140 H   0  0  0  0  0  0  0  0  0  0  0  0
   39.9080   33.0840   46.3410 C   0  0  0  0  0  0  0  0  0  0  0  0
   40.4950   32.3280   45.2970 C   0  0  0  0  0  0  0  0  0  0  0  0
   40.1390   30.9780   45.2160 C   0  0  0  0  0  0  0  0  0  0  0  0
   39.2630   30.4680   46.1290 N   0  0  0  0  0  0  0  0  0  0  0  0
   38.7340   31.2290   47.1010 C   0  0  0  0  0  0  0  0  0  0  0  0
   39.0620   32.5120   47.1910 N   0  0  0  0  0  0  0  0  0  0  0  0
   40.1510   34.1220   46.4420 H   0  0  0  0  0  0  0  0  0  0  0  0
   41.1870   32.7920   44.6000 H   0  0  0  0  0  0  0  0  0  0  0  0
   40.5650   30.3650   44.4310 H   0  0  0  0  0  0  0  0  0  0  0  0
   33.9230   29.4440   48.0260 S   0  0  0  0  0  0  0  0  0  0  0  0
   33.9210   27.8890   47.1470 C   0  0  0  0  0  0  0  0  0  0  0  0
   33.8690   26.7870   47.9180 N   0  0  0  0  0  0  0  0  0  0  0  0
   33.8720   25.6750   47.1700 C   0  0  0  0  0  0  0  0  0  0  0  0
   33.8390   24.6330   47.4640 H   0  0  0  0  0  0  0  0  0  0  0  0
   33.9270   26.1020   45.8980 N   0  0  0  0  0  0  0  0  0  0  0  0
   33.9470   25.5830   44.9880 H   0  0  0  0  0  0  0  0  0  0  0  0
   33.9560   27.4440   45.8580 N   0  0  0  0  0  0  0  0  0  0  0  0
  1  2  1  0  0  0  0
  2  3  2  0  0  0  0
  2  7  1  0  0  0  0
  3  4  1  0  0  0  0
  4  8  1  0  0  0  0
  4  5  2  0  0  0  0
  5  9  1  0  0  0  0
  6  5  1  0  0  0  0
  6 10  1  0  0  0  0
  7  6  2  0  0  0  0
 11 17  1  0  0  0  0
 11 16  1  0  0  0  0
 12 11  2  0  0  0  0
 13 12  1  0  0  0  0
 13 14  2  0  0  0  0
 14 15  1  0  0  0  0
 15 16  2  0  0  0  0
 15  3  1  0  0  0  0
 18 12  1  0  0  0  0
 19 13  1  0  0  0  0
 20  7  1  0  0  0  0
 21 22  1  0  0  0  0
 21 20  1  0  0  0  0
 23 24  1  0  0  0  0
 23 22  2  0  0  0  0
 25 23  1  0  0  0  0
 26 25  1  0  0  0  0
 27 25  1  0  0  0  0
 27 21  2  0  0  0  0
M  END
>  <minimizedAffinity>
-5.14340115

>  <minimizedRMSD>
0.961122632

$$$$
