
 OpenBabel03272509443D

 36 38  0  0  1  0  0  0  0  0999 V2000
   36.4800   28.5930   32.3540 C   0  0  0  0  0  0  0  0  0  0  0  0
   35.8980   29.6210   31.6070 C   0  0  0  0  0  0  0  0  0  0  0  0
   35.1490   30.6220   32.2090 C   0  0  0  0  0  0  0  0  0  0  0  0
   34.9700   30.6080   33.5950 C   0  0  0  0  0  0  0  0  0  0  0  0
   35.5450   29.5960   34.3070 C   0  0  0  0  0  0  0  0  0  0  0  0
   36.2870   28.6110   33.6770 C   0  0  0  0  0  0  0  0  0  0  0  0
   36.0510   29.6120   30.5350 H   0  0  0  0  0  0  0  0  0  0  0  0
   34.7460   31.3600   31.5440 H   0  0  0  0  0  0  0  0  0  0  0  0
   34.3770   31.4200   33.9740 H   0  0  0  0  0  0  0  0  0  0  0  0
   35.3160   29.7200   35.3690 H   0  0  0  0  0  0  0  0  0  0  0  0
   37.2280   27.5270   31.7230 C   0  0  2  0  0  0  0  0  0  0  0  0
   37.1640   27.7430   30.5870 H   0  0  0  0  0  0  0  0  0  0  0  0
   36.9390   23.9100   31.9320 C   0  0  0  0  0  0  0  0  0  0  0  0
   35.6670   23.6500   31.4500 C   0  0  0  0  0  0  0  0  0  0  0  0
   34.9150   24.7120   30.9890 C   0  0  0  0  0  0  0  0  0  0  0  0
   35.4480   25.9820   31.0220 N   0  0  0  0  0  0  0  0  0  0  0  0
   36.6630   26.1680   31.4940 C   0  0  0  0  0  0  0  0  0  0  0  0
   37.4080   25.1460   31.9450 N   0  0  0  0  0  0  0  0  0  0  0  0
   37.4970   23.0530   32.2840 H   0  0  0  0  0  0  0  0  0  0  0  0
   35.1770   22.6900   31.3900 H   0  0  0  0  0  0  0  0  0  0  0  0
   33.9040   24.7030   30.5760 H   0  0  0  0  0  0  0  0  0  0  0  0
   38.5010   27.6820   31.8340 O   0  0  0  0  0  0  0  0  0  0  0  0
   38.9990   27.5790   32.6690 H   0  0  0  0  0  0  0  0  0  0  0  0
   36.8150   27.5860   34.5470 C   0  0  0  0  0  3  0  0  0  0  0  0
   37.8500   27.7760   35.3740 C   0  0  0  0  0  3  0  0  0  0  0  0
   38.4460   26.8140   36.3330 C   0  0  0  0  0  0  0  0  0  0  0  0
   39.5270   26.9270   36.4680 H   0  0  0  0  0  0  0  0  0  0  0  0
   37.9090   26.9750   37.3120 H   0  0  0  0  0  0  0  0  0  0  0  0
   38.0890   25.1350   35.7980 S   0  0  0  0  0  0  0  0  0  0  0  0
   38.7770   23.9250   36.9200 C   0  0  0  0  0  0  0  0  0  0  0  0
   39.8510   23.3070   36.3980 N   0  0  0  0  0  0  0  0  0  0  0  0
   40.3400   22.4070   37.2640 C   0  0  0  0  0  0  0  0  0  0  0  0
   41.1510   21.6900   37.3140 H   0  0  0  0  0  0  0  0  0  0  0  0
   39.5450   22.4770   38.3380 N   0  0  0  0  0  0  0  0  0  0  0  0
   39.5420   21.9660   39.2510 H   0  0  0  0  0  0  0  0  0  0  0  0
   38.6110   23.3710   38.1570 N   0  0  0  0  0  0  0  0  0  0  0  0
  1  6  1  0  0  0  0
  2  3  1  0  0  0  0
  2  1  2  0  0  0  0
  3  4  2  0  0  0  0
  4  9  1  0  0  0  0
  4  5  1  0  0  0  0
  5 10  1  0  0  0  0
  6  5  2  0  0  0  0
  6 24  1  0  0  0  0
  7  2  1  0  0  0  0
  8  3  1  0  0  0  0
 11 12  1  6  0  0  0
 11 22  1  0  0  0  0
 11  1  1  0  0  0  0
 13 18  1  0  0  0  0
 13 19  1  0  0  0  0
 14 13  2  0  0  0  0
 15 16  2  0  0  0  0
 15 14  1  0  0  0  0
 16 17  1  0  0  0  0
 17 11  1  0  0  0  0
 17 18  2  0  0  0  0
 20 14  1  0  0  0  0
 21 15  1  0  0  0  0
 22 23  1  0  0  0  0
 24 25  2  0  0  0  0
 25 26  1  0  0  0  0
 26 27  1  0  0  0  0
 26 28  1  0  0  0  0
 29 26  1  0  0  0  0
 29 30  1  0  0  0  0
 30 36  2  0  0  0  0
 31 30  1  0  0  0  0
 31 32  2  0  0  0  0
 32 33  1  0  0  0  0
 32 34  1  0  0  0  0
 34 35  1  0  0  0  0
 36 34  1  0  0  0  0
M  END
>  <minimizedAffinity>
-5.96982384

$$$$

 OpenBabel03272509443D

 36 38  0  0  1  0  0  0  0  0999 V2000
   35.6060   30.0130   33.6470 C   0  0  0  0  0  0  0  0  0  0  0  0
   35.3320   30.7680   32.5040 C   0  0  0  0  0  0  0  0  0  0  0  0
   35.6480   30.3050   31.2340 C   0  0  0  0  0  0  0  0  0  0  0  0
   36.2510   29.0530   31.0890 C   0  0  0  0  0  0  0  0  0  0  0  0
   36.5110   28.3300   32.2170 C   0  0  0  0  0  0  0  0  0  0  0  0
   36.1860   28.8200   33.4710 C   0  0  0  0  0  0  0  0  0  0  0  0
   34.8630   31.7350   32.6400 H   0  0  0  0  0  0  0  0  0  0  0  0
   35.3960   30.9640   30.4270 H   0  0  0  0  0  0  0  0  0  0  0  0
   36.4580   28.7760   30.0720 H   0  0  0  0  0  0  0  0  0  0  0  0
   36.9830   27.3830   31.9440 H   0  0  0  0  0  0  0  0  0  0  0  0
   35.3140   30.5120   34.9740 C   0  0  2  0  0  0  0  0  0  0  0  0
   35.5900   29.6460   35.6920 H   0  0  0  0  0  0  0  0  0  0  0  0
   31.9230   29.4050   35.6680 C   0  0  0  0  0  0  0  0  0  0  0  0
   31.5010   30.2430   36.6870 C   0  0  0  0  0  0  0  0  0  0  0  0
   32.3590   31.2420   37.1070 C   0  0  0  0  0  0  0  0  0  0  0  0
   33.5910   31.3710   36.5050 N   0  0  0  0  0  0  0  0  0  0  0  0
   33.9370   30.5410   35.5420 C   0  0  0  0  0  0  0  0  0  0  0  0
   33.1160   29.5670   35.1220 N   0  0  0  0  0  0  0  0  0  0  0  0
   31.2240   28.6370   35.3680 H   0  0  0  0  0  0  0  0  0  0  0  0
   30.5580   30.2100   37.2100 H   0  0  0  0  0  0  0  0  0  0  0  0
   32.2030   31.9900   37.8860 H   0  0  0  0  0  0  0  0  0  0  0  0
   36.1990   31.3460   35.3950 O   0  0  0  0  0  0  0  0  0  0  0  0
   36.3160   32.2520   35.0470 H   0  0  0  0  0  0  0  0  0  0  0  0
   36.5420   27.9650   34.5790 C   0  0  0  0  0  3  0  0  0  0  0  0
   37.8030   27.6520   34.8980 C   0  0  0  0  0  3  0  0  0  0  0  0
   38.2820   26.8220   36.0300 C   0  0  0  0  0  0  0  0  0  0  0  0
   39.3440   26.9520   36.2630 H   0  0  0  0  0  0  0  0  0  0  0  0
   37.6470   27.1060   36.9180 H   0  0  0  0  0  0  0  0  0  0  0  0
   37.9630   25.0870   35.6800 S   0  0  0  0  0  0  0  0  0  0  0  0
   38.5720   24.0270   36.9840 C   0  0  0  0  0  0  0  0  0  0  0  0
   39.7180   23.4130   36.6390 N   0  0  0  0  0  0  0  0  0  0  0  0
   40.1460   22.6260   37.6380 C   0  0  0  0  0  0  0  0  0  0  0  0
   40.9730   21.9570   37.8440 H   0  0  0  0  0  0  0  0  0  0  0  0
   39.2390   22.7640   38.6140 N   0  0  0  0  0  0  0  0  0  0  0  0
   39.1590   22.3450   39.5700 H   0  0  0  0  0  0  0  0  0  0  0  0
   38.2970   23.5900   38.2480 N   0  0  0  0  0  0  0  0  0  0  0  0
  1 11  1  0  0  0  0
  2  7  1  0  0  0  0
  2  1  2  0  0  0  0
  3  2  1  0  0  0  0
  4  3  2  0  0  0  0
  4  5  1  0  0  0  0
  5  6  2  0  0  0  0
  6  1  1  0  0  0  0
  6 24  1  0  0  0  0
  8  3  1  0  0  0  0
  9  4  1  0  0  0  0
 10  5  1  0  0  0  0
 11 22  1  0  0  0  0
 11 17  1  0  0  0  0
 11 12  1  1  0  0  0
 13 14  1  0  0  0  0
 14 15  2  0  0  0  0
 14 20  1  0  0  0  0
 15 21  1  0  0  0  0
 16 15  1  0  0  0  0
 17 16  2  0  0  0  0
 18 17  1  0  0  0  0
 18 13  2  0  0  0  0
 19 13  1  0  0  0  0
 23 22  1  0  0  0  0
 24 25  2  0  0  0  0
 25 26  1  0  0  0  0
 26 27  1  0  0  0  0
 26 28  1  0  0  0  0
 29 26  1  0  0  0  0
 29 30  1  0  0  0  0
 30 36  2  0  0  0  0
 31 30  1  0  0  0  0
 31 32  2  0  0  0  0
 32 33  1  0  0  0  0
 32 34  1  0  0  0  0
 34 35  1  0  0  0  0
 36 34  1  0  0  0  0
M  END
>  <minimizedAffinity>
-5.73671961

$$$$

 OpenBabel03272509443D

 36 38  0  0  1  0  0  0  0  0999 V2000
   36.2300   29.3100   31.7120 C   0  0  0  0  0  0  0  0  0  0  0  0
   36.4040   29.9090   30.4610 C   0  0  0  0  0  0  0  0  0  0  0  0
   37.3340   29.4280   29.5490 C   0  0  0  0  0  0  0  0  0  0  0  0
   38.1150   28.3190   29.8820 C   0  0  0  0  0  0  0  0  0  0  0  0
   37.9310   27.7480   31.1080 C   0  0  0  0  0  0  0  0  0  0  0  0
   36.9960   28.2510   31.9970 C   0  0  0  0  0  0  0  0  0  0  0  0
   35.7880   30.7660   30.2240 H   0  0  0  0  0  0  0  0  0  0  0  0
   37.3870   29.9620   28.6210 H   0  0  0  0  0  0  0  0  0  0  0  0
   38.8050   28.0170   29.1170 H   0  0  0  0  0  0  0  0  0  0  0  0
   38.6100   26.8990   31.2220 H   0  0  0  0  0  0  0  0  0  0  0  0
   35.2900   29.8340   32.6790 C   0  0  2  0  0  0  0  0  0  0  0  0
   34.7270   30.6820   32.1260 H   0  0  0  0  0  0  0  0  0  0  0  0
   36.0890   33.0240   34.2270 C   0  0  0  0  0  0  0  0  0  0  0  0
   36.0970   32.7430   35.5840 C   0  0  0  0  0  0  0  0  0  0  0  0
   35.8870   31.4360   35.9800 C   0  0  0  0  0  0  0  0  0  0  0  0
   35.6790   30.4660   35.0240 N   0  0  0  0  0  0  0  0  0  0  0  0
   35.6810   30.7950   33.7490 C   0  0  0  0  0  0  0  0  0  0  0  0
   35.8860   32.0590   33.3470 N   0  0  0  0  0  0  0  0  0  0  0  0
   36.2580   34.0570   33.9570 H   0  0  0  0  0  0  0  0  0  0  0  0
   36.2500   33.4400   36.3930 H   0  0  0  0  0  0  0  0  0  0  0  0
   35.8590   31.0280   36.9910 H   0  0  0  0  0  0  0  0  0  0  0  0
   34.2740   29.0640   32.8500 O   0  0  0  0  0  0  0  0  0  0  0  0
   34.3060   28.1990   33.3040 H   0  0  0  0  0  0  0  0  0  0  0  0
   36.9250   27.5690   33.2680 C   0  0  0  0  0  3  0  0  0  0  0  0
   37.9910   27.0650   33.9010 C   0  0  0  0  0  3  0  0  0  0  0  0
   38.0390   26.3850   35.2180 C   0  0  0  0  0  0  0  0  0  0  0  0
   38.7940   26.7870   35.9020 H   0  0  0  0  0  0  0  0  0  0  0  0
   37.0080   26.4920   35.6630 H   0  0  0  0  0  0  0  0  0  0  0  0
   38.3350   24.6280   34.9770 S   0  0  0  0  0  0  0  0  0  0  0  0
   38.7590   23.8140   36.5110 C   0  0  0  0  0  0  0  0  0  0  0  0
   37.9850   24.2250   37.5300 N   0  0  0  0  0  0  0  0  0  0  0  0
   38.3300   23.5960   38.6640 C   0  0  0  0  0  0  0  0  0  0  0  0
   38.0270   23.5780   39.7040 H   0  0  0  0  0  0  0  0  0  0  0  0
   39.3380   22.7820   38.3270 N   0  0  0  0  0  0  0  0  0  0  0  0
   39.9180   22.1070   38.8780 H   0  0  0  0  0  0  0  0  0  0  0  0
   39.6100   22.8950   37.0550 N   0  0  0  0  0  0  0  0  0  0  0  0
  1  6  1  0  0  0  0
  1 11  1  0  0  0  0
  2  1  2  0  0  0  0
  3  4  2  0  0  0  0
  3  2  1  0  0  0  0
  4  5  1  0  0  0  0
  5 10  1  0  0  0  0
  5  6  2  0  0  0  0
  6 24  1  0  0  0  0
  7  2  1  0  0  0  0
  8  3  1  0  0  0  0
  9  4  1  0  0  0  0
 11 12  1  6  0  0  0
 11 22  1  0  0  0  0
 11 17  1  0  0  0  0
 13 14  1  0  0  0  0
 14 15  2  0  0  0  0
 14 20  1  0  0  0  0
 15 21  1  0  0  0  0
 16 15  1  0  0  0  0
 17 16  2  0  0  0  0
 18 17  1  0  0  0  0
 18 13  2  0  0  0  0
 19 13  1  0  0  0  0
 22 23  1  0  0  0  0
 24 25  2  0  0  0  0
 25 26  1  0  0  0  0
 26 28  1  0  0  0  0
 26 27  1  0  0  0  0
 29 26  1  0  0  0  0
 29 30  1  0  0  0  0
 30 36  2  0  0  0  0
 30 31  1  0  0  0  0
 31 32  2  0  0  0  0
 32 33  1  0  0  0  0
 34 32  1  0  0  0  0
 34 35  1  0  0  0  0
 36 34  1  0  0  0  0
M  END
>  <minimizedAffinity>
-5.50812531

$$$$

 OpenBabel03272509443D

 36 38  0  0  1  0  0  0  0  0999 V2000
   36.7800   27.9120   32.0020 C   0  0  0  0  0  0  0  0  0  0  0  0
   35.9420   28.9910   32.2920 C   0  0  0  0  0  0  0  0  0  0  0  0
   35.6630   29.3630   33.6000 C   0  0  0  0  0  0  0  0  0  0  0  0
   36.2330   28.6460   34.6550 C   0  0  0  0  0  0  0  0  0  0  0  0
   37.0490   27.5950   34.3520 C   0  0  0  0  0  0  0  0  0  0  0  0
   37.3070   27.2480   33.0360 C   0  0  0  0  0  0  0  0  0  0  0  0
   35.5120   29.5330   31.4590 H   0  0  0  0  0  0  0  0  0  0  0  0
   35.0070   30.2030   33.7110 H   0  0  0  0  0  0  0  0  0  0  0  0
   35.9630   29.0040   35.6320 H   0  0  0  0  0  0  0  0  0  0  0  0
   37.4140   27.1360   35.2740 H   0  0  0  0  0  0  0  0  0  0  0  0
   37.0390   27.4980   30.6390 C   0  0  2  0  0  0  0  0  0  0  0  0
   37.7610   26.5970   30.7270 H   0  0  0  0  0  0  0  0  0  0  0  0
   38.2500   29.6760   27.9930 C   0  0  0  0  0  0  0  0  0  0  0  0
   39.6110   29.7680   28.2340 C   0  0  0  0  0  0  0  0  0  0  0  0
   40.1390   29.0310   29.2760 C   0  0  0  0  0  0  0  0  0  0  0  0
   39.3060   28.2370   30.0320 N   0  0  0  0  0  0  0  0  0  0  0  0
   38.0190   28.1920   29.7560 C   0  0  0  0  0  0  0  0  0  0  0  0
   37.4900   28.9010   28.7470 N   0  0  0  0  0  0  0  0  0  0  0  0
   37.8740   30.2670   27.1690 H   0  0  0  0  0  0  0  0  0  0  0  0
   40.3300   30.3630   27.6930 H   0  0  0  0  0  0  0  0  0  0  0  0
   41.1760   28.9750   29.6130 H   0  0  0  0  0  0  0  0  0  0  0  0
   36.0540   26.8540   30.1200 O   0  0  0  0  0  0  0  0  0  0  0  0
   35.2000   27.2580   29.8680 H   0  0  0  0  0  0  0  0  0  0  0  0
   38.1640   26.0990   32.8590 C   0  0  0  0  0  3  0  0  0  0  0  0
   38.3090   25.1330   33.7730 C   0  0  0  0  0  3  0  0  0  0  0  0
   39.1250   23.8980   33.6810 C   0  0  0  0  0  0  0  0  0  0  0  0
   39.2850   23.5420   32.6580 H   0  0  0  0  0  0  0  0  0  0  0  0
   40.1110   24.1370   34.1730 H   0  0  0  0  0  0  0  0  0  0  0  0
   38.3500   22.5930   34.6450 S   0  0  0  0  0  0  0  0  0  0  0  0
   38.7020   22.7640   36.3900 C   0  0  0  0  0  0  0  0  0  0  0  0
   37.6590   23.2770   37.0660 N   0  0  0  0  0  0  0  0  0  0  0  0
   37.9570   23.3910   38.3690 C   0  0  0  0  0  0  0  0  0  0  0  0
   37.4820   23.7320   39.2810 H   0  0  0  0  0  0  0  0  0  0  0  0
   39.2120   22.9380   38.4890 N   0  0  0  0  0  0  0  0  0  0  0  0
   39.8530   22.8410   39.3100 H   0  0  0  0  0  0  0  0  0  0  0  0
   39.6730   22.5610   37.3280 N   0  0  0  0  0  0  0  0  0  0  0  0
  1  2  2  0  0  0  0
  1  6  1  0  0  0  0
  2  3  1  0  0  0  0
  3  8  1  0  0  0  0
  3  4  2  0  0  0  0
  4  9  1  0  0  0  0
  5  4  1  0  0  0  0
  5 10  1  0  0  0  0
  6  5  2  0  0  0  0
  7  2  1  0  0  0  0
 11 12  1  1  0  0  0
 11  1  1  0  0  0  0
 13 14  2  0  0  0  0
 13 18  1  0  0  0  0
 14 15  1  0  0  0  0
 15 21  1  0  0  0  0
 15 16  2  0  0  0  0
 17 16  1  0  0  0  0
 17 11  1  0  0  0  0
 18 17  2  0  0  0  0
 19 13  1  0  0  0  0
 20 14  1  0  0  0  0
 22 11  1  0  0  0  0
 23 22  1  0  0  0  0
 24  6  1  0  0  0  0
 24 25  2  0  0  0  0
 26 25  1  0  0  0  0
 26 28  1  0  0  0  0
 26 29  1  0  0  0  0
 27 26  1  0  0  0  0
 29 30  1  0  0  0  0
 30 31  1  0  0  0  0
 30 36  2  0  0  0  0
 31 32  2  0  0  0  0
 32 34  1  0  0  0  0
 32 33  1  0  0  0  0
 34 35  1  0  0  0  0
 36 34  1  0  0  0  0
M  END
>  <minimizedAffinity>
-5.4542284

$$$$

 OpenBabel03272509443D

 36 38  0  0  1  0  0  0  0  0999 V2000
   36.2630   28.6070   32.3700 C   0  0  0  0  0  0  0  0  0  0  0  0
   35.5970   29.6220   31.6780 C   0  0  0  0  0  0  0  0  0  0  0  0
   34.8440   30.5810   32.3420 C   0  0  0  0  0  0  0  0  0  0  0  0
   34.7490   30.5370   33.7360 C   0  0  0  0  0  0  0  0  0  0  0  0
   35.4070   29.5380   34.3930 C   0  0  0  0  0  0  0  0  0  0  0  0
   36.1490   28.5950   33.7020 C   0  0  0  0  0  0  0  0  0  0  0  0
   35.6850   29.6380   30.5990 H   0  0  0  0  0  0  0  0  0  0  0  0
   34.3730   31.3120   31.7160 H   0  0  0  0  0  0  0  0  0  0  0  0
   34.1470   31.3170   34.1640 H   0  0  0  0  0  0  0  0  0  0  0  0
   35.2370   29.6340   35.4690 H   0  0  0  0  0  0  0  0  0  0  0  0
   37.0160   27.5840   31.6750 C   0  0  2  0  0  0  0  0  0  0  0  0
   37.3610   26.8490   32.5000 H   0  0  0  0  0  0  0  0  0  0  0  0
   40.6090   27.0500   31.5750 C   0  0  0  0  0  0  0  0  0  0  0  0
   41.0160   27.7340   30.4420 C   0  0  0  0  0  0  0  0  0  0  0  0
   40.0660   28.4400   29.7300 C   0  0  0  0  0  0  0  0  0  0  0  0
   38.7590   28.4410   30.1660 N   0  0  0  0  0  0  0  0  0  0  0  0
   38.4320   27.7700   31.2510 C   0  0  0  0  0  0  0  0  0  0  0  0
   39.3430   27.0800   31.9550 N   0  0  0  0  0  0  0  0  0  0  0  0
   41.3820   26.5100   32.1050 H   0  0  0  0  0  0  0  0  0  0  0  0
   42.0140   27.7840   30.0330 H   0  0  0  0  0  0  0  0  0  0  0  0
   40.1960   29.0330   28.8240 H   0  0  0  0  0  0  0  0  0  0  0  0
   36.2600   26.7580   31.0420 O   0  0  0  0  0  0  0  0  0  0  0  0
   35.7550   26.9780   30.2340 H   0  0  0  0  0  0  0  0  0  0  0  0
   36.7700   27.5790   34.5190 C   0  0  0  0  0  3  0  0  0  0  0  0
   37.8180   27.8080   35.3190 C   0  0  0  0  0  3  0  0  0  0  0  0
   38.5050   26.8560   36.2250 C   0  0  0  0  0  0  0  0  0  0  0  0
   39.5960   26.8500   36.1260 H   0  0  0  0  0  0  0  0  0  0  0  0
   38.2070   27.1500   37.2720 H   0  0  0  0  0  0  0  0  0  0  0  0
   37.8770   25.1960   35.9390 S   0  0  0  0  0  0  0  0  0  0  0  0
   38.5710   24.0190   37.0940 C   0  0  0  0  0  0  0  0  0  0  0  0
   39.6810   23.4350   36.6100 N   0  0  0  0  0  0  0  0  0  0  0  0
   40.1740   22.5590   37.4990 C   0  0  0  0  0  0  0  0  0  0  0  0
   41.0070   21.8720   37.5810 H   0  0  0  0  0  0  0  0  0  0  0  0
   39.3440   22.6120   38.5490 N   0  0  0  0  0  0  0  0  0  0  0  0
   39.3300   22.1080   39.4660 H   0  0  0  0  0  0  0  0  0  0  0  0
   38.3850   23.4710   38.3300 N   0  0  0  0  0  0  0  0  0  0  0  0
  1  6  1  0  0  0  0
  2  3  1  0  0  0  0
  2  1  2  0  0  0  0
  3  4  2  0  0  0  0
  4  9  1  0  0  0  0
  4  5  1  0  0  0  0
  5 10  1  0  0  0  0
  6  5  2  0  0  0  0
  6 24  1  0  0  0  0
  7  2  1  0  0  0  0
  8  3  1  0  0  0  0
 11  1  1  0  0  0  0
 11 12  1  1  0  0  0
 13 18  1  0  0  0  0
 13 19  1  0  0  0  0
 14 13  2  0  0  0  0
 15 16  2  0  0  0  0
 15 14  1  0  0  0  0
 16 17  1  0  0  0  0
 17 11  1  0  0  0  0
 17 18  2  0  0  0  0
 20 14  1  0  0  0  0
 21 15  1  0  0  0  0
 22 11  1  0  0  0  0
 23 22  1  0  0  0  0
 24 25  2  0  0  0  0
 25 26  1  0  0  0  0
 26 28  1  0  0  0  0
 27 26  1  0  0  0  0
 29 26  1  0  0  0  0
 29 30  1  0  0  0  0
 30 36  2  0  0  0  0
 31 30  1  0  0  0  0
 31 32  2  0  0  0  0
 32 33  1  0  0  0  0
 32 34  1  0  0  0  0
 34 35  1  0  0  0  0
 36 34  1  0  0  0  0
M  END
>  <minimizedAffinity>
-5.42361832

$$$$

 OpenBabel03272509443D

 36 38  0  0  1  0  0  0  0  0999 V2000
   40.0060   26.9390   34.1930 C   0  0  0  0  0  0  0  0  0  0  0  0
   41.4010   26.9510   34.1150 C   0  0  0  0  0  0  0  0  0  0  0  0
   42.0600   27.1870   32.9160 C   0  0  0  0  0  0  0  0  0  0  0  0
   41.3160   27.4210   31.7570 C   0  0  0  0  0  0  0  0  0  0  0  0
   39.9550   27.4050   31.8520 C   0  0  0  0  0  0  0  0  0  0  0  0
   39.3260   27.1660   33.0630 C   0  0  0  0  0  0  0  0  0  0  0  0
   41.9570   26.7690   35.0260 H   0  0  0  0  0  0  0  0  0  0  0  0
   43.1310   27.1720   32.9680 H   0  0  0  0  0  0  0  0  0  0  0  0
   41.9080   27.5930   30.8770 H   0  0  0  0  0  0  0  0  0  0  0  0
   39.5160   27.6000   30.8700 H   0  0  0  0  0  0  0  0  0  0  0  0
   39.3180   26.6540   35.4340 C   0  0  2  0  0  0  0  0  0  0  0  0
   40.1570   26.4740   36.2110 H   0  0  0  0  0  0  0  0  0  0  0  0
   38.8900   23.0470   35.3180 C   0  0  0  0  0  0  0  0  0  0  0  0
   38.0450   22.7780   36.3830 C   0  0  0  0  0  0  0  0  0  0  0  0
   37.5630   23.8440   37.1170 C   0  0  0  0  0  0  0  0  0  0  0  0
   37.9320   25.1250   36.7710 N   0  0  0  0  0  0  0  0  0  0  0  0
   38.7410   25.3180   35.7500 C   0  0  0  0  0  0  0  0  0  0  0  0
   39.2170   24.2940   35.0250 N   0  0  0  0  0  0  0  0  0  0  0  0
   39.2460   22.1870   34.7670 H   0  0  0  0  0  0  0  0  0  0  0  0
   37.7090   21.8100   36.7190 H   0  0  0  0  0  0  0  0  0  0  0  0
   36.8930   23.8290   37.9790 H   0  0  0  0  0  0  0  0  0  0  0  0
   38.8290   27.7100   35.9820 O   0  0  0  0  0  0  0  0  0  0  0  0
   38.0620   28.2090   35.6360 H   0  0  0  0  0  0  0  0  0  0  0  0
   37.8830   27.1500   33.0160 C   0  0  0  0  0  3  0  0  0  0  0  0
   37.1490   28.1120   32.4460 C   0  0  0  0  0  3  0  0  0  0  0  0
   35.6740   28.1780   32.3050 C   0  0  0  0  0  0  0  0  0  0  0  0
   35.2850   27.6720   31.4150 H   0  0  0  0  0  0  0  0  0  0  0  0
   35.2490   27.7100   33.2400 H   0  0  0  0  0  0  0  0  0  0  0  0
   35.1490   29.8980   32.2840 S   0  0  0  0  0  0  0  0  0  0  0  0
   33.3700   30.0470   32.3750 C   0  0  0  0  0  0  0  0  0  0  0  0
   32.8290   29.1270   33.1940 N   0  0  0  0  0  0  0  0  0  0  0  0
   31.4960   29.2670   33.2380 C   0  0  0  0  0  0  0  0  0  0  0  0
   30.6490   28.7970   33.7240 H   0  0  0  0  0  0  0  0  0  0  0  0
   31.2180   30.2950   32.4270 N   0  0  0  0  0  0  0  0  0  0  0  0
   30.3200   30.7570   32.1530 H   0  0  0  0  0  0  0  0  0  0  0  0
   32.3140   30.7730   31.9040 N   0  0  0  0  0  0  0  0  0  0  0  0
  1 11  1  0  0  0  0
  2  1  1  0  0  0  0
  2  7  1  0  0  0  0
  3  8  1  0  0  0  0
  3  2  2  0  0  0  0
  4  5  2  0  0  0  0
  4  3  1  0  0  0  0
  5  6  1  0  0  0  0
  6  1  2  0  0  0  0
  9  4  1  0  0  0  0
 10  5  1  0  0  0  0
 11 17  1  0  0  0  0
 11 22  1  0  0  0  0
 11 12  1  1  0  0  0
 13 14  1  0  0  0  0
 14 20  1  0  0  0  0
 14 15  2  0  0  0  0
 15 21  1  0  0  0  0
 16 15  1  0  0  0  0
 17 16  2  0  0  0  0
 18 13  2  0  0  0  0
 18 17  1  0  0  0  0
 19 13  1  0  0  0  0
 23 22  1  0  0  0  0
 24  6  1  0  0  0  0
 25 24  2  0  0  0  0
 26 25  1  0  0  0  0
 26 28  1  0  0  0  0
 27 26  1  0  0  0  0
 29 26  1  0  0  0  0
 29 30  1  0  0  0  0
 30 31  1  0  0  0  0
 31 32  2  0  0  0  0
 32 33  1  0  0  0  0
 34 32  1  0  0  0  0
 35 34  1  0  0  0  0
 36 30  2  0  0  0  0
 36 34  1  0  0  0  0
M  END
>  <minimizedAffinity>
-5.32209015

$$$$

 OpenBabel03272509443D

 36 38  0  0  1  0  0  0  0  0999 V2000
   38.8430   24.3310   35.8440 C   0  0  0  0  0  0  0  0  0  0  0  0
   37.9920   25.2180   36.5060 C   0  0  0  0  0  0  0  0  0  0  0  0
   38.1000   26.5920   36.3390 C   0  0  0  0  0  0  0  0  0  0  0  0
   39.0820   27.1060   35.4870 C   0  0  0  0  0  0  0  0  0  0  0  0
   39.9050   26.2230   34.8490 C   0  0  0  0  0  0  0  0  0  0  0  0
   39.7720   24.8580   35.0370 C   0  0  0  0  0  0  0  0  0  0  0  0
   37.2380   24.7980   37.1610 H   0  0  0  0  0  0  0  0  0  0  0  0
   37.3990   27.1810   36.8960 H   0  0  0  0  0  0  0  0  0  0  0  0
   39.0920   28.1780   35.4190 H   0  0  0  0  0  0  0  0  0  0  0  0
   40.6150   26.7710   34.2250 H   0  0  0  0  0  0  0  0  0  0  0  0
   38.7560   22.9010   36.0480 C   0  0  2  0  0  0  0  0  0  0  0  0
   39.5930   22.4480   35.3870 H   0  0  0  0  0  0  0  0  0  0  0  0
   35.7530   20.9010   35.6100 C   0  0  0  0  0  0  0  0  0  0  0  0
   35.6670   20.7260   34.2390 C   0  0  0  0  0  0  0  0  0  0  0  0
   36.6770   21.2430   33.4510 C   0  0  0  0  0  0  0  0  0  0  0  0
   37.7250   21.9080   34.0480 N   0  0  0  0  0  0  0  0  0  0  0  0
   37.7510   22.0450   35.3570 C   0  0  0  0  0  0  0  0  0  0  0  0
   36.7790   21.5470   36.1370 N   0  0  0  0  0  0  0  0  0  0  0  0
   34.9440   20.4820   36.1930 H   0  0  0  0  0  0  0  0  0  0  0  0
   34.8840   20.2210   33.6940 H   0  0  0  0  0  0  0  0  0  0  0  0
   36.7810   21.2040   32.3650 H   0  0  0  0  0  0  0  0  0  0  0  0
   39.2420   22.5320   37.1810 O   0  0  0  0  0  0  0  0  0  0  0  0
   38.8250   22.7120   38.0470 H   0  0  0  0  0  0  0  0  0  0  0  0
   40.7250   24.0410   34.3230 C   0  0  0  0  0  3  0  0  0  0  0  0
   42.0460   24.2530   34.3440 C   0  0  0  0  0  3  0  0  0  0  0  0
   43.1120   23.4600   33.6850 C   0  0  0  0  0  0  0  0  0  0  0  0
   42.7410   22.6910   33.0010 H   0  0  0  0  0  0  0  0  0  0  0  0
   43.7570   24.2020   33.1310 H   0  0  0  0  0  0  0  0  0  0  0  0
   44.1460   22.6880   34.9380 S   0  0  0  0  0  0  0  0  0  0  0  0
   43.1700   21.8030   36.1460 C   0  0  0  0  0  0  0  0  0  0  0  0
   43.5330   20.5130   36.2400 N   0  0  0  0  0  0  0  0  0  0  0  0
   42.7820   19.8790   37.1530 C   0  0  0  0  0  0  0  0  0  0  0  0
   42.6860   18.8860   37.5740 H   0  0  0  0  0  0  0  0  0  0  0  0
   41.9400   20.8070   37.6260 N   0  0  0  0  0  0  0  0  0  0  0  0
   41.1800   20.7710   38.3450 H   0  0  0  0  0  0  0  0  0  0  0  0
   42.1520   21.9550   37.0430 N   0  0  0  0  0  0  0  0  0  0  0  0
  1 11  1  0  0  0  0
  1  2  1  0  0  0  0
  2  7  1  0  0  0  0
  3  2  2  0  0  0  0
  3  8  1  0  0  0  0
  4  3  1  0  0  0  0
  5  6  1  0  0  0  0
  5  4  2  0  0  0  0
  6  1  2  0  0  0  0
  9  4  1  0  0  0  0
 10  5  1  0  0  0  0
 11 12  1  6  0  0  0
 11 22  1  0  0  0  0
 13 18  1  0  0  0  0
 13 19  1  0  0  0  0
 14 13  2  0  0  0  0
 15 16  2  0  0  0  0
 15 14  1  0  0  0  0
 16 17  1  0  0  0  0
 17 11  1  0  0  0  0
 17 18  2  0  0  0  0
 20 14  1  0  0  0  0
 21 15  1  0  0  0  0
 22 23  1  0  0  0  0
 24 25  2  0  0  0  0
 24  6  1  0  0  0  0
 26 25  1  0  0  0  0
 26 29  1  0  0  0  0
 27 26  1  0  0  0  0
 28 26  1  0  0  0  0
 29 30  1  0  0  0  0
 30 31  1  0  0  0  0
 30 36  2  0  0  0  0
 31 32  2  0  0  0  0
 32 33  1  0  0  0  0
 32 34  1  0  0  0  0
 34 35  1  0  0  0  0
 36 34  1  0  0  0  0
M  END
>  <minimizedAffinity>
-5.19710255

$$$$

 OpenBabel03272509443D

 36 38  0  0  1  0  0  0  0  0999 V2000
   36.4170   28.7700   32.3880 C   0  0  0  0  0  0  0  0  0  0  0  0
   35.8320   29.8600   31.7390 C   0  0  0  0  0  0  0  0  0  0  0  0
   35.1300   30.8310   32.4400 C   0  0  0  0  0  0  0  0  0  0  0  0
   35.0040   30.7220   33.8270 C   0  0  0  0  0  0  0  0  0  0  0  0
   35.5820   29.6500   34.4430 C   0  0  0  0  0  0  0  0  0  0  0  0
   36.2760   28.6970   33.7160 C   0  0  0  0  0  0  0  0  0  0  0  0
   35.9430   29.9260   30.6640 H   0  0  0  0  0  0  0  0  0  0  0  0
   34.7200   31.6230   31.8450 H   0  0  0  0  0  0  0  0  0  0  0  0
   34.4450   31.5170   34.2860 H   0  0  0  0  0  0  0  0  0  0  0  0
   35.3970   29.7020   35.5190 H   0  0  0  0  0  0  0  0  0  0  0  0
   37.1160   27.7370   31.6530 C   0  0  2  0  0  0  0  0  0  0  0  0
   36.8260   27.9030   30.5450 H   0  0  0  0  0  0  0  0  0  0  0  0
   34.8610   24.9870   30.9030 C   0  0  0  0  0  0  0  0  0  0  0  0
   35.6500   23.8590   31.0560 C   0  0  0  0  0  0  0  0  0  0  0  0
   36.9530   24.0270   31.4800 C   0  0  0  0  0  0  0  0  0  0  0  0
   37.4220   25.2980   31.7340 N   0  0  0  0  0  0  0  0  0  0  0  0
   36.6250   26.3330   31.5680 C   0  0  0  0  0  0  0  0  0  0  0  0
   35.3550   26.1860   31.1580 N   0  0  0  0  0  0  0  0  0  0  0  0
   33.8470   24.8140   30.5700 H   0  0  0  0  0  0  0  0  0  0  0  0
   35.3620   22.8340   30.8780 H   0  0  0  0  0  0  0  0  0  0  0  0
   37.7150   23.2670   31.6570 H   0  0  0  0  0  0  0  0  0  0  0  0
   38.3710   27.9860   31.5200 O   0  0  0  0  0  0  0  0  0  0  0  0
   39.0220   27.9510   32.2490 H   0  0  0  0  0  0  0  0  0  0  0  0
   36.8120   27.6020   34.4890 C   0  0  0  0  0  3  0  0  0  0  0  0
   37.7860   27.7410   35.3960 C   0  0  0  0  0  3  0  0  0  0  0  0
   38.3810   26.7010   36.2690 C   0  0  0  0  0  0  0  0  0  0  0  0
   39.0100   27.0970   37.0740 H   0  0  0  0  0  0  0  0  0  0  0  0
   37.5150   26.1190   36.6980 H   0  0  0  0  0  0  0  0  0  0  0  0
   39.3490   25.5610   35.2710 S   0  0  0  0  0  0  0  0  0  0  0  0
   40.8190   26.3400   34.6160 C   0  0  0  0  0  0  0  0  0  0  0  0
   40.5590   27.0470   33.5020 N   0  0  0  0  0  0  0  0  0  0  0  0
   41.6810   27.6170   33.0370 C   0  0  0  0  0  0  0  0  0  0  0  0
   41.9860   28.2500   32.2120 H   0  0  0  0  0  0  0  0  0  0  0  0
   42.6470   27.2470   33.8880 N   0  0  0  0  0  0  0  0  0  0  0  0
   43.6730   27.4500   33.9250 H   0  0  0  0  0  0  0  0  0  0  0  0
   42.1580   26.4900   34.8320 N   0  0  0  0  0  0  0  0  0  0  0  0
  1  6  1  0  0  0  0
  2  1  2  0  0  0  0
  2  3  1  0  0  0  0
  3  4  2  0  0  0  0
  4  9  1  0  0  0  0
  4  5  1  0  0  0  0
  5 10  1  0  0  0  0
  6  5  2  0  0  0  0
  6 24  1  0  0  0  0
  7  2  1  0  0  0  0
  8  3  1  0  0  0  0
 11 12  1  6  0  0  0
 11  1  1  0  0  0  0
 13 14  2  0  0  0  0
 13 18  1  0  0  0  0
 14 15  1  0  0  0  0
 15 21  1  0  0  0  0
 15 16  2  0  0  0  0
 17 11  1  0  0  0  0
 17 16  1  0  0  0  0
 18 17  2  0  0  0  0
 19 13  1  0  0  0  0
 20 14  1  0  0  0  0
 22 11  1  0  0  0  0
 22 23  1  0  0  0  0
 24 25  2  0  0  0  0
 25 26  1  0  0  0  0
 26 28  1  0  0  0  0
 26 27  1  0  0  0  0
 29 26  1  0  0  0  0
 30 36  2  0  0  0  0
 30 29  1  0  0  0  0
 31 30  1  0  0  0  0
 32 31  2  0  0  0  0
 32 34  1  0  0  0  0
 33 32  1  0  0  0  0
 34 35  1  0  0  0  0
 34 36  1  0  0  0  0
M  END
>  <minimizedAffinity>
-5.16482592

$$$$

 OpenBabel03272509443D

 36 38  0  0  1  0  0  0  0  0999 V2000
   37.2820   27.5390   31.9160 C   0  0  0  0  0  0  0  0  0  0  0  0
   36.3970   28.5310   31.4860 C   0  0  0  0  0  0  0  0  0  0  0  0
   35.6700   29.2970   32.3880 C   0  0  0  0  0  0  0  0  0  0  0  0
   35.8250   29.0760   33.7590 C   0  0  0  0  0  0  0  0  0  0  0  0
   36.6940   28.1030   34.1590 C   0  0  0  0  0  0  0  0  0  0  0  0
   37.4040   27.3550   33.2350 C   0  0  0  0  0  0  0  0  0  0  0  0
   36.2930   28.6850   30.4200 H   0  0  0  0  0  0  0  0  0  0  0  0
   35.0180   30.0280   31.9520 H   0  0  0  0  0  0  0  0  0  0  0  0
   35.2250   29.7140   34.3810 H   0  0  0  0  0  0  0  0  0  0  0  0
   36.7050   28.0480   35.2510 H   0  0  0  0  0  0  0  0  0  0  0  0
   38.0100   26.7140   30.9760 C   0  0  2  0  0  0  0  0  0  0  0  0
   38.6330   25.9880   31.6280 H   0  0  0  0  0  0  0  0  0  0  0  0
   40.2110   27.6830   28.2510 C   0  0  0  0  0  0  0  0  0  0  0  0
   41.3030   28.2470   28.8890 C   0  0  0  0  0  0  0  0  0  0  0  0
   41.3230   28.2450   30.2700 C   0  0  0  0  0  0  0  0  0  0  0  0
   40.2690   27.6880   30.9600 N   0  0  0  0  0  0  0  0  0  0  0  0
   39.2560   27.1690   30.2970 C   0  0  0  0  0  0  0  0  0  0  0  0
   39.2220   27.1610   28.9560 N   0  0  0  0  0  0  0  0  0  0  0  0
   40.2330   27.7030   27.1700 H   0  0  0  0  0  0  0  0  0  0  0  0
   42.1660   28.7020   28.4270 H   0  0  0  0  0  0  0  0  0  0  0  0
   42.0900   28.6380   30.9410 H   0  0  0  0  0  0  0  0  0  0  0  0
   37.2680   25.8210   30.4220 O   0  0  0  0  0  0  0  0  0  0  0  0
   36.5720   26.0120   29.7620 H   0  0  0  0  0  0  0  0  0  0  0  0
   38.2670   26.3410   33.7950 C   0  0  0  0  0  3  0  0  0  0  0  0
   39.4770   26.5960   34.3050 C   0  0  0  0  0  3  0  0  0  0  0  0
   40.4240   25.6460   34.9380 C   0  0  0  0  0  0  0  0  0  0  0  0
   41.4010   25.5920   34.4450 H   0  0  0  0  0  0  0  0  0  0  0  0
   40.5420   25.9860   36.0070 H   0  0  0  0  0  0  0  0  0  0  0  0
   39.6910   24.0050   34.9780 S   0  0  0  0  0  0  0  0  0  0  0  0
   39.3530   23.4730   36.6510 C   0  0  0  0  0  0  0  0  0  0  0  0
   38.1440   23.8800   37.0740 N   0  0  0  0  0  0  0  0  0  0  0  0
   37.9230   23.4650   38.3310 C   0  0  0  0  0  0  0  0  0  0  0  0
   37.1430   23.5310   39.0800 H   0  0  0  0  0  0  0  0  0  0  0  0
   39.0260   22.7910   38.6820 N   0  0  0  0  0  0  0  0  0  0  0  0
   39.3020   22.2960   39.5610 H   0  0  0  0  0  0  0  0  0  0  0  0
   39.8870   22.7830   37.7010 N   0  0  0  0  0  0  0  0  0  0  0  0
  1  6  1  0  0  0  0
  2  1  2  0  0  0  0
  2  3  1  0  0  0  0
  3  4  2  0  0  0  0
  4  5  1  0  0  0  0
  4  9  1  0  0  0  0
  5 10  1  0  0  0  0
  6 24  1  0  0  0  0
  6  5  2  0  0  0  0
  7  2  1  0  0  0  0
  8  3  1  0  0  0  0
 11 12  1  1  0  0  0
 11  1  1  0  0  0  0
 13 14  2  0  0  0  0
 13 18  1  0  0  0  0
 14 15  1  0  0  0  0
 15 21  1  0  0  0  0
 15 16  2  0  0  0  0
 17 16  1  0  0  0  0
 17 11  1  0  0  0  0
 18 17  2  0  0  0  0
 19 13  1  0  0  0  0
 20 14  1  0  0  0  0
 22 11  1  0  0  0  0
 23 22  1  0  0  0  0
 24 25  2  0  0  0  0
 25 26  1  0  0  0  0
 26 29  1  0  0  0  0
 26 28  1  0  0  0  0
 27 26  1  0  0  0  0
 29 30  1  0  0  0  0
 30 31  1  0  0  0  0
 30 36  2  0  0  0  0
 31 32  2  0  0  0  0
 32 34  1  0  0  0  0
 32 33  1  0  0  0  0
 34 35  1  0  0  0  0
 36 34  1  0  0  0  0
M  END
>  <minimizedAffinity>
-5.11680984

$$$$
