
 OpenBabel03272507193D

 28 30  0  0  1  0  0  0  0  0999 V2000
   37.7320   31.3230   49.4200 C   0  0  0  0  0  0  0  0  0  0  0  0
   38.3170   32.5690   49.6300 C   0  0  0  0  0  0  0  0  0  0  0  0
   38.9260   33.1290   48.5100 C   0  0  0  0  0  0  0  0  0  0  0  0
   38.9310   32.4750   47.3020 N   0  0  0  0  0  0  0  0  0  0  0  0
   38.3460   31.2580   47.1470 C   0  0  0  0  0  0  0  0  0  0  0  0
   37.7390   30.6780   48.2210 N   0  0  0  0  0  0  0  0  0  0  0  0
   38.3010   33.0620   50.5760 H   0  0  0  0  0  0  0  0  0  0  0  0
   39.4110   34.0980   48.5640 H   0  0  0  0  0  0  0  0  0  0  0  0
   37.0550   30.7040   50.6010 C   0  0  1  0  0  0  0  0  0  0  0  0
   36.1390   29.5720   50.4580 C   0  0  2  0  0  0  0  0  0  0  0  0
   37.5490   29.2650   50.8570 C   0  0  0  0  0  0  0  0  0  0  0  0
   37.0940   31.3540   51.5150 H   0  0  0  0  0  0  0  0  0  0  0  0
   35.2960   29.6130   51.2050 H   0  0  0  0  0  0  0  0  0  0  0  0
   38.2170   28.7930   50.1290 H   0  0  0  0  0  0  0  0  0  0  0  0
   37.7120   28.9970   51.9160 H   0  0  0  0  0  0  0  0  0  0  0  0
   35.7150   29.2560   49.1740 O   0  0  0  0  0  0  0  0  0  0  0  0
   34.5040   28.8150   48.7550 C   0  0  0  0  0  0  0  0  0  0  0  0
   34.3550   28.1950   47.6800 O   0  0  0  0  0  0  0  0  0  0  0  0
   33.5450   29.1710   49.7000 N   0  0  0  0  0  0  0  0  0  0  0  0
   33.3860   30.0710   50.1510 H   0  0  0  0  0  0  0  0  0  0  0  0
   32.9240   28.3740   49.9500 H   0  0  0  0  0  0  0  0  0  0  0  0
   38.3990   30.6450   45.8460 C   0  0  0  0  0  0  0  0  0  0  0  0
   37.2740   30.4520   45.0970 N   0  0  0  0  0  0  0  0  0  0  0  0
   37.5910   29.8620   43.9230 C   0  0  0  0  0  0  0  0  0  0  0  0
   36.7830   29.6560   43.2400 H   0  0  0  0  0  0  0  0  0  0  0  0
   38.9240   29.6860   43.9420 N   0  0  0  0  0  0  0  0  0  0  0  0
   39.4020   29.2450   43.1380 H   0  0  0  0  0  0  0  0  0  0  0  0
   39.4180   30.1560   45.0960 N   0  0  0  0  0  0  0  0  0  0  0  0
  1  2  1  0  0  0  0
  1  9  1  0  0  0  0
  2  7  1  0  0  0  0
  3  8  1  0  0  0  0
  3  2  2  0  0  0  0
  4  3  1  0  0  0  0
  5  4  2  0  0  0  0
  5  6  1  0  0  0  0
  6  1  2  0  0  0  0
  9 11  1  0  0  0  0
  9 12  1  1  0  0  0
 10  9  1  0  0  0  0
 10 11  1  0  0  0  0
 10 13  1  1  0  0  0
 11 15  1  0  0  0  0
 14 11  1  0  0  0  0
 16 10  1  0  0  0  0
 17 16  1  0  0  0  0
 17 19  1  0  0  0  0
 18 17  2  0  0  0  0
 19 21  1  0  0  0  0
 19 20  1  0  0  0  0
 22  5  1  0  0  0  0
 23 22  1  0  0  0  0
 24 26  1  0  0  0  0
 24 23  2  0  0  0  0
 25 24  1  0  0  0  0
 26 28  1  0  0  0  0
 27 26  1  0  0  0  0
 28 22  2  0  0  0  0
M  END
>  <minimizedAffinity>
-5.34333229

>  <minimizedRMSD>
1.18194866

$$$$
