
 OpenBabel03272509183D

 31 33  0  0  0  0  0  0  0  0999 V2000
   38.0600   31.2520   47.7070 C   0  0  0  0  0  0  0  0  0  0  0  0
   37.0860   31.2630   48.6850 C   0  0  0  0  0  0  0  0  0  0  0  0
   37.1640   32.3680   49.5560 C   0  0  0  0  0  0  0  0  0  0  0  0
   38.1480   33.3440   49.4180 C   0  0  0  0  0  0  0  0  0  0  0  0
   39.0850   33.2430   48.3990 C   0  0  0  0  0  0  0  0  0  0  0  0
   39.0330   32.1670   47.5250 C   0  0  0  0  0  0  0  0  0  0  0  0
   36.4390   32.4380   50.3370 H   0  0  0  0  0  0  0  0  0  0  0  0
   38.1820   34.1820   50.1030 H   0  0  0  0  0  0  0  0  0  0  0  0
   39.8660   33.9830   48.2600 H   0  0  0  0  0  0  0  0  0  0  0  0
   34.9290   30.3170   48.0190 C   0  0  0  0  0  0  0  0  0  0  0  0
   36.0740   30.2640   48.8320 C   0  0  0  0  0  0  0  0  0  0  0  0
   36.1850   29.2300   49.7640 C   0  0  0  0  0  0  0  0  0  0  0  0
   35.1630   28.3280   49.8240 N   0  0  0  0  0  0  0  0  0  0  0  0
   34.0780   28.4020   49.0330 C   0  0  0  0  0  0  0  0  0  0  0  0
   33.9630   29.3870   48.1380 N   0  0  0  0  0  0  0  0  0  0  0  0
   34.8310   31.1180   47.2890 H   0  0  0  0  0  0  0  0  0  0  0  0
   33.3340   27.6350   49.1680 H   0  0  0  0  0  0  0  0  0  0  0  0
   37.3730   29.1370   50.6420 C   0  0  0  0  0  0  0  0  0  0  0  0
   37.6690   28.0950   50.8860 H   0  0  0  0  0  0  0  0  0  0  0  0
   38.1930   29.7240   50.1590 H   0  0  0  0  0  0  0  0  0  0  0  0
   37.1190   29.7180   51.5650 H   0  0  0  0  0  0  0  0  0  0  0  0
   38.0610   30.1890   46.7940 O   0  0  0  0  0  0  0  0  0  0  0  0
   37.2750   29.9410   46.2120 H   0  0  0  0  0  0  0  0  0  0  0  0
   39.9860   32.0830   46.5060 O   0  0  0  0  0  0  0  0  0  0  0  0
   39.4870   32.0810   45.2100 C   0  0  0  0  0  0  0  0  0  0  0  0
   38.7290   32.9820   44.5620 N   0  0  0  0  0  0  0  0  0  0  0  0
   38.5150   32.5130   43.3180 C   0  0  0  0  0  0  0  0  0  0  0  0
   37.9360   33.0170   42.5540 H   0  0  0  0  0  0  0  0  0  0  0  0
   39.1370   31.3270   43.1980 N   0  0  0  0  0  0  0  0  0  0  0  0
   39.1470   30.7250   42.3430 H   0  0  0  0  0  0  0  0  0  0  0  0
   39.7170   31.0880   44.3540 N   0  0  0  0  0  0  0  0  0  0  0  0
  1  2  1  0  0  0  0
  2 11  1  0  0  0  0
  2  3  2  0  0  0  0
  3  7  1  0  0  0  0
  4  3  1  0  0  0  0
  4  8  1  0  0  0  0
  5  4  2  0  0  0  0
  6  1  2  0  0  0  0
  6  5  1  0  0  0  0
  9  5  1  0  0  0  0
 10 15  2  0  0  0  0
 10 11  1  0  0  0  0
 11 12  2  0  0  0  0
 12 13  1  0  0  0  0
 12 18  1  0  0  0  0
 14 17  1  0  0  0  0
 14 13  2  0  0  0  0
 15 14  1  0  0  0  0
 16 10  1  0  0  0  0
 18 19  1  0  0  0  0
 18 21  1  0  0  0  0
 20 18  1  0  0  0  0
 22  1  1  0  0  0  0
 23 22  1  0  0  0  0
 24  6  1  0  0  0  0
 25 24  1  0  0  0  0
 26 25  1  0  0  0  0
 27 26  2  0  0  0  0
 28 27  1  0  0  0  0
 29 27  1  0  0  0  0
 29 31  1  0  0  0  0
 30 29  1  0  0  0  0
 31 25  2  0  0  0  0
M  END
>  <minimizedAffinity>
-6.13755465

>  <minimizedRMSD>
0.308732927

$$$$
