
 OpenBabel03272509083D

 38 41  0  0  0  0  0  0  0  0999 V2000
   32.8860   27.8650   48.6840 C   0  0  0  0  0  0  0  0  0  0  0  0
   32.6830   27.0600   49.4550 H   0  0  0  0  0  0  0  0  0  0  0  0
   31.9380   28.4070   48.6100 H   0  0  0  0  0  0  0  0  0  0  0  0
   33.2430   27.0980   47.4570 C   0  0  0  0  0  0  0  0  0  0  0  0
   33.6470   25.7670   47.4950 C   0  0  0  0  0  0  0  0  0  0  0  0
   33.9800   25.0740   46.3630 C   0  0  0  0  0  0  0  0  0  0  0  0
   33.9220   25.6860   45.1270 C   0  0  0  0  0  0  0  0  0  0  0  0
   33.5250   26.9950   45.0830 C   0  0  0  0  0  0  0  0  0  0  0  0
   33.1890   27.6990   46.2200 C   0  0  0  0  0  0  0  0  0  0  0  0
   33.6750   25.3280   48.5040 H   0  0  0  0  0  0  0  0  0  0  0  0
   34.2720   24.0530   46.5580 H   0  0  0  0  0  0  0  0  0  0  0  0
   34.1940   25.0980   44.2650 H   0  0  0  0  0  0  0  0  0  0  0  0
   33.4960   27.4310   44.0950 H   0  0  0  0  0  0  0  0  0  0  0  0
   32.7820   29.0850   46.0310 C   0  0  0  0  0  0  0  0  0  0  0  0
   31.5430   29.4880   45.6990 N   0  0  0  0  0  0  0  0  0  0  0  0
   31.4550   30.8220   45.5940 C   0  0  0  0  0  0  0  0  0  0  0  0
   30.5250   31.3060   45.3340 H   0  0  0  0  0  0  0  0  0  0  0  0
   32.6880   31.2650   45.8720 N   0  0  0  0  0  0  0  0  0  0  0  0
   32.9270   32.2860   45.8680 H   0  0  0  0  0  0  0  0  0  0  0  0
   33.4580   30.2400   46.1260 N   0  0  0  0  0  0  0  0  0  0  0  0
   35.2790   28.4010   49.0790 C   0  0  0  0  0  0  0  0  0  0  0  0
   34.0020   28.6510   49.2330 C   0  0  0  0  0  0  0  0  0  0  0  0
   37.3680   30.1350   51.5170 C   0  0  0  0  0  0  0  0  0  0  0  0
   38.0940   31.0260   50.6990 C   0  0  0  0  0  0  0  0  0  0  0  0
   37.8360   30.9990   49.3170 C   0  0  0  0  0  0  0  0  0  0  0  0
   36.8980   30.1140   48.8330 N   0  0  0  0  0  0  0  0  0  0  0  0
   36.2430   29.2890   49.6960 C   0  0  0  0  0  0  0  0  0  0  0  0
   36.4730   29.3010   51.0060 N   0  0  0  0  0  0  0  0  0  0  0  0
   37.6380   30.2360   52.5580 H   0  0  0  0  0  0  0  0  0  0  0  0
   38.8360   31.7400   50.9990 H   0  0  0  0  0  0  0  0  0  0  0  0
   38.5210   31.8760   48.3560 C   0  0  0  0  0  0  0  0  0  0  0  0
   38.8620   31.4720   47.0910 C   0  0  0  0  0  0  0  0  0  0  0  0
   39.4900   32.5530   46.4640 C   0  0  0  0  0  0  0  0  0  0  0  0
   39.5000   33.5630   47.3810 N   0  0  0  0  0  0  0  0  0  0  0  0
   38.9240   33.1530   48.4990 N   0  0  0  0  0  0  0  0  0  0  0  0
   38.7310   30.5350   46.5580 H   0  0  0  0  0  0  0  0  0  0  0  0
   39.8850   32.5760   45.4560 H   0  0  0  0  0  0  0  0  0  0  0  0
   39.9200   34.4980   47.1600 H   0  0  0  0  0  0  0  0  0  0  0  0
  1 22  1  0  0  0  0
  1  2  1  0  0  0  0
  3  1  1  0  0  0  0
  4  5  1  0  0  0  0
  4  1  1  0  0  0  0
  5 10  1  0  0  0  0
  6 11  1  0  0  0  0
  6  5  2  0  0  0  0
  7  6  1  0  0  0  0
  8  7  2  0  0  0  0
  8  9  1  0  0  0  0
  9  4  2  0  0  0  0
 12  7  1  0  0  0  0
 13  8  1  0  0  0  0
 14 20  2  0  0  0  0
 14  9  1  0  0  0  0
 15 14  1  0  0  0  0
 16 15  2  0  0  0  0
 16 18  1  0  0  0  0
 17 16  1  0  0  0  0
 18 20  1  0  0  0  0
 19 18  1  0  0  0  0
 21 22  2  0  0  0  0
 21 27  1  0  0  0  0
 23 29  1  0  0  0  0
 24 30  1  0  0  0  0
 24 23  2  0  0  0  0
 25 24  1  0  0  0  0
 26 25  2  0  0  0  0
 26 27  1  0  0  0  0
 27 28  2  0  0  0  0
 28 23  1  0  0  0  0
 31 35  2  0  0  0  0
 31 25  1  0  0  0  0
 32 31  1  0  0  0  0
 33 32  2  0  0  0  0
 33 34  1  0  0  0  0
 34 35  1  0  0  0  0
 36 32  1  0  0  0  0
 37 33  1  0  0  0  0
 38 34  1  0  0  0  0
M  END
>  <minimizedAffinity>
-6.62131882

>  <minimizedRMSD>
1.10650313

$$$$
