
 OpenBabel03272502263D

 38 41  0  0  0  0  0  0  0  0999 V2000
   37.6940   30.2590   51.0410 C   0  0  0  0  0  0  0  0  0  0  0  0
   38.1590   30.8170   49.8450 C   0  0  0  0  0  0  0  0  0  0  0  0
   37.4310   30.5590   48.6930 C   0  0  0  0  0  0  0  0  0  0  0  0
   36.3350   29.7920   48.8180 N   0  0  0  0  0  0  0  0  0  0  0  0
   35.9020   29.2640   49.9730 C   0  0  0  0  0  0  0  0  0  0  0  0
   36.5940   29.5040   51.0940 N   0  0  0  0  0  0  0  0  0  0  0  0
   38.2780   30.4740   51.9260 H   0  0  0  0  0  0  0  0  0  0  0  0
   39.0320   31.4260   49.7530 H   0  0  0  0  0  0  0  0  0  0  0  0
   37.7930   31.0760   47.3970 C   0  0  0  0  0  0  0  0  0  0  0  0
   37.0560   30.7430   46.2660 C   0  0  0  0  0  0  0  0  0  0  0  0
   37.3540   31.2110   45.0130 C   0  0  0  0  0  0  0  0  0  0  0  0
   38.4110   32.0350   44.8580 N   0  0  0  0  0  0  0  0  0  0  0  0
   39.1180   32.3510   45.9570 C   0  0  0  0  0  0  0  0  0  0  0  0
   38.8420   31.9040   47.1860 N   0  0  0  0  0  0  0  0  0  0  0  0
   36.1930   30.0800   46.3450 H   0  0  0  0  0  0  0  0  0  0  0  0
   36.7540   30.9270   44.1570 H   0  0  0  0  0  0  0  0  0  0  0  0
   40.2920   33.2590   45.8180 C   0  0  0  0  0  0  0  0  0  0  0  0
   40.3960   33.9910   47.0000 F   0  0  0  0  0  0  0  0  0  0  0  0
   41.4360   32.5360   45.5570 F   0  0  0  0  0  0  0  0  0  0  0  0
   40.1070   34.1750   44.8130 F   0  0  0  0  0  0  0  0  0  0  0  0
   34.7490   28.4970   49.9150 O   0  0  0  0  0  0  0  0  0  0  0  0
   33.6500   26.6390   46.9430 N   0  0  0  0  0  0  0  0  0  0  0  0
   34.1980   26.8200   48.1530 C   0  0  0  0  0  0  0  0  0  0  0  0
   34.2430   28.0810   48.7060 C   0  0  0  0  0  0  0  0  0  0  0  0
   33.7060   29.1490   47.9750 C   0  0  0  0  0  0  0  0  0  0  0  0
   33.6390   30.3750   48.2810 O   0  0  0  0  0  0  0  0  0  0  0  0
   33.1660   28.8950   46.7530 N   0  0  0  0  0  0  0  0  0  0  0  0
   33.1380   27.6560   46.2450 C   0  0  0  0  0  0  0  0  0  0  0  0
   32.6410   27.3930   45.1100 O   0  0  0  0  0  0  0  0  0  0  0  0
   33.6730   25.6480   46.6280 H   0  0  0  0  0  0  0  0  0  0  0  0
   34.6290   26.0650   48.7770 H   0  0  0  0  0  0  0  0  0  0  0  0
   32.5940   29.8960   45.9230 C   0  0  0  0  0  0  0  0  0  0  0  0
   32.3220   31.2160   45.9730 N   0  0  0  0  0  0  0  0  0  0  0  0
   31.7490   31.5730   44.8030 C   0  0  0  0  0  0  0  0  0  0  0  0
   31.4690   32.5940   44.6760 H   0  0  0  0  0  0  0  0  0  0  0  0
   31.6700   30.4680   44.0370 N   0  0  0  0  0  0  0  0  0  0  0  0
   31.2520   30.5500   43.0900 H   0  0  0  0  0  0  0  0  0  0  0  0
   32.1790   29.4430   44.7070 N   0  0  0  0  0  0  0  0  0  0  0  0
  1  6  1  0  0  0  0
  1  7  1  0  0  0  0
  2  1  2  0  0  0  0
  3  4  2  0  0  0  0
  3  2  1  0  0  0  0
  4  5  1  0  0  0  0
  5  6  2  0  0  0  0
  8  2  1  0  0  0  0
  9  3  1  0  0  0  0
 10 15  1  0  0  0  0
 10  9  2  0  0  0  0
 11 10  1  0  0  0  0
 12 11  2  0  0  0  0
 12 13  1  0  0  0  0
 13 14  2  0  0  0  0
 14  9  1  0  0  0  0
 16 11  1  0  0  0  0
 17 13  1  0  0  0  0
 17 18  1  0  0  0  0
 19 17  1  0  0  0  0
 20 17  1  0  0  0  0
 21  5  1  0  0  0  0
 22 23  1  0  0  0  0
 23 24  2  0  0  0  0
 23 31  1  0  0  0  0
 24 21  1  0  0  0  0
 25 26  2  0  0  0  0
 25 24  1  0  0  0  0
 27 25  1  0  0  0  0
 28 27  1  0  0  0  0
 28 22  1  0  0  0  0
 29 28  2  0  0  0  0
 30 22  1  0  0  0  0
 32 33  1  0  0  0  0
 32 27  1  0  0  0  0
 34 33  2  0  0  0  0
 35 34  1  0  0  0  0
 36 38  1  0  0  0  0
 36 34  1  0  0  0  0
 37 36  1  0  0  0  0
 38 32  2  0  0  0  0
M  END
>  <minimizedAffinity>
-6.83884001

>  <minimizedRMSD>
1.0292089

$$$$
