
 OpenBabel03272509183D

 31 33  0  0  0  0  0  0  0  0999 V2000
   38.1120   31.2080   47.7460 C   0  0  0  0  0  0  0  0  0  0  0  0
   37.0930   31.2620   48.6770 C   0  0  0  0  0  0  0  0  0  0  0  0
   37.1320   32.4030   49.5020 C   0  0  0  0  0  0  0  0  0  0  0  0
   38.1250   33.3720   49.3690 C   0  0  0  0  0  0  0  0  0  0  0  0
   39.1080   33.2260   48.4010 C   0  0  0  0  0  0  0  0  0  0  0  0
   39.0950   32.1140   47.5720 C   0  0  0  0  0  0  0  0  0  0  0  0
   36.3720   32.5070   50.2440 H   0  0  0  0  0  0  0  0  0  0  0  0
   38.1290   34.2370   50.0190 H   0  0  0  0  0  0  0  0  0  0  0  0
   39.8970   33.9600   48.2670 H   0  0  0  0  0  0  0  0  0  0  0  0
   34.9390   30.3240   47.9900 C   0  0  0  0  0  0  0  0  0  0  0  0
   36.0730   30.2710   48.8180 C   0  0  0  0  0  0  0  0  0  0  0  0
   36.1650   29.2440   49.7590 C   0  0  0  0  0  0  0  0  0  0  0  0
   35.1360   28.3490   49.8130 N   0  0  0  0  0  0  0  0  0  0  0  0
   34.0620   28.4240   49.0080 C   0  0  0  0  0  0  0  0  0  0  0  0
   33.9650   29.4020   48.1040 N   0  0  0  0  0  0  0  0  0  0  0  0
   34.8560   31.1200   47.2520 H   0  0  0  0  0  0  0  0  0  0  0  0
   33.3110   27.6620   49.1390 H   0  0  0  0  0  0  0  0  0  0  0  0
   37.3400   29.1500   50.6530 C   0  0  0  0  0  0  0  0  0  0  0  0
   37.6270   28.1080   50.9100 H   0  0  0  0  0  0  0  0  0  0  0  0
   38.1710   29.7270   50.1770 H   0  0  0  0  0  0  0  0  0  0  0  0
   37.0780   29.7390   51.5680 H   0  0  0  0  0  0  0  0  0  0  0  0
   38.1530   30.1070   46.8800 O   0  0  0  0  0  0  0  0  0  0  0  0
   37.3940   29.8350   46.2730 H   0  0  0  0  0  0  0  0  0  0  0  0
   40.0940   31.9860   46.6030 O   0  0  0  0  0  0  0  0  0  0  0  0
   39.6910   32.1790   45.2890 C   0  0  0  0  0  0  0  0  0  0  0  0
   39.3980   33.3070   44.6180 N   0  0  0  0  0  0  0  0  0  0  0  0
   39.0600   32.9580   43.3640 C   0  0  0  0  0  0  0  0  0  0  0  0
   38.7710   33.6520   42.5820 H   0  0  0  0  0  0  0  0  0  0  0  0
   39.1420   31.6210   43.2560 N   0  0  0  0  0  0  0  0  0  0  0  0
   38.9370   31.0620   42.3980 H   0  0  0  0  0  0  0  0  0  0  0  0
   39.5250   31.1730   44.4330 N   0  0  0  0  0  0  0  0  0  0  0  0
  1  2  1  0  0  0  0
  2 11  1  0  0  0  0
  2  3  2  0  0  0  0
  3  7  1  0  0  0  0
  4  3  1  0  0  0  0
  4  8  1  0  0  0  0
  5  4  2  0  0  0  0
  6  1  2  0  0  0  0
  6  5  1  0  0  0  0
  9  5  1  0  0  0  0
 10 15  2  0  0  0  0
 10 11  1  0  0  0  0
 11 12  2  0  0  0  0
 12 13  1  0  0  0  0
 12 18  1  0  0  0  0
 14 17  1  0  0  0  0
 14 13  2  0  0  0  0
 15 14  1  0  0  0  0
 16 10  1  0  0  0  0
 18 19  1  0  0  0  0
 18 21  1  0  0  0  0
 20 18  1  0  0  0  0
 22  1  1  0  0  0  0
 23 22  1  0  0  0  0
 24  6  1  0  0  0  0
 25 24  1  0  0  0  0
 26 25  1  0  0  0  0
 27 26  2  0  0  0  0
 28 27  1  0  0  0  0
 29 27  1  0  0  0  0
 29 31  1  0  0  0  0
 30 29  1  0  0  0  0
 31 25  2  0  0  0  0
M  END
>  <minimizedAffinity>
-5.97310305

>  <minimizedRMSD>
0.359561443

$$$$
