
 OpenBabel03272506173D

 32 34  0  0  0  0  0  0  0  0999 V2000
   35.4440   30.3580   49.8940 C   0  0  0  0  0  0  0  0  0  0  0  0
   36.4570   31.2030   49.1520 C   0  0  0  0  0  0  0  0  0  0  0  0
   37.8650   30.7080   49.3080 C   0  0  0  0  0  0  0  0  0  0  0  0
   38.2580   30.6040   50.7600 C   0  0  0  0  0  0  0  0  0  0  0  0
   37.2200   29.9370   51.6090 C   0  0  0  0  0  0  0  0  0  0  0  0
   36.0800   29.3560   50.7960 C   0  0  0  0  0  0  0  0  0  0  0  0
   34.7390   31.0100   50.4570 H   0  0  0  0  0  0  0  0  0  0  0  0
   36.4450   32.2220   49.6280 H   0  0  0  0  0  0  0  0  0  0  0  0
   36.2220   31.3020   48.0950 H   0  0  0  0  0  0  0  0  0  0  0  0
   38.0350   29.7280   48.7890 H   0  0  0  0  0  0  0  0  0  0  0  0
   38.5370   31.4200   48.8150 H   0  0  0  0  0  0  0  0  0  0  0  0
   39.2110   30.0660   50.8150 H   0  0  0  0  0  0  0  0  0  0  0  0
   38.4770   31.6460   51.1020 H   0  0  0  0  0  0  0  0  0  0  0  0
   37.6850   29.0710   52.1540 H   0  0  0  0  0  0  0  0  0  0  0  0
   36.8350   30.5940   52.4180 H   0  0  0  0  0  0  0  0  0  0  0  0
   36.5260   28.5530   50.1790 H   0  0  0  0  0  0  0  0  0  0  0  0
   35.3580   28.9230   51.4850 H   0  0  0  0  0  0  0  0  0  0  0  0
   34.5950   29.6140   48.9140 C   0  0  0  0  0  0  0  0  0  0  0  0
   34.2270   30.3020   47.7450 C   0  0  0  0  0  0  0  0  0  0  0  0
   33.4320   29.6220   46.8310 C   0  0  0  0  0  0  0  0  0  0  0  0
   33.0560   28.3430   47.1070 N   0  0  0  0  0  0  0  0  0  0  0  0
   33.4250   27.6990   48.2450 C   0  0  0  0  0  0  0  0  0  0  0  0
   34.1920   28.3460   49.1360 N   0  0  0  0  0  0  0  0  0  0  0  0
   34.4840   31.2960   47.4740 H   0  0  0  0  0  0  0  0  0  0  0  0
   33.0880   26.6820   48.3990 H   0  0  0  0  0  0  0  0  0  0  0  0
   33.0020   30.2540   45.5900 C   0  0  0  0  0  0  0  0  0  0  0  0
   33.2140   30.1340   44.2680 N   0  0  0  0  0  0  0  0  0  0  0  0
   32.4580   31.0900   43.6620 C   0  0  0  0  0  0  0  0  0  0  0  0
   32.3400   31.3320   42.6220 H   0  0  0  0  0  0  0  0  0  0  0  0
   31.7810   31.7980   44.6090 N   0  0  0  0  0  0  0  0  0  0  0  0
   31.1170   32.6000   44.4530 H   0  0  0  0  0  0  0  0  0  0  0  0
   32.1280   31.2710   45.7720 N   0  0  0  0  0  0  0  0  0  0  0  0
  1  7  1  0  0  0  0
  1  6  1  0  0  0  0
  2  3  1  0  0  0  0
  2  8  1  0  0  0  0
  2  1  1  0  0  0  0
  3  4  1  0  0  0  0
  4 12  1  0  0  0  0
  4 13  1  0  0  0  0
  4  5  1  0  0  0  0
  5 14  1  0  0  0  0
  5 15  1  0  0  0  0
  6 17  1  0  0  0  0
  6  5  1  0  0  0  0
  9  2  1  0  0  0  0
 10  3  1  0  0  0  0
 11  3  1  0  0  0  0
 16  6  1  0  0  0  0
 18 23  1  0  0  0  0
 18  1  1  0  0  0  0
 19 18  2  0  0  0  0
 20 21  2  0  0  0  0
 20 19  1  0  0  0  0
 21 22  1  0  0  0  0
 22 25  1  0  0  0  0
 22 23  2  0  0  0  0
 24 19  1  0  0  0  0
 26 32  2  0  0  0  0
 26 20  1  0  0  0  0
 27 26  1  0  0  0  0
 28 27  2  0  0  0  0
 28 30  1  0  0  0  0
 29 28  1  0  0  0  0
 30 32  1  0  0  0  0
 31 30  1  0  0  0  0
M  END
>  <minimizedAffinity>
-5.22809172

>  <minimizedRMSD>
0.831828654

$$$$
