
 OpenBabel03272507193D

 28 30  0  0  1  0  0  0  0  0999 V2000
   37.3080   31.2340   49.4340 C   0  0  0  0  0  0  0  0  0  0  0  0
   38.3060   32.2040   49.4800 C   0  0  0  0  0  0  0  0  0  0  0  0
   38.7900   32.6070   48.2380 C   0  0  0  0  0  0  0  0  0  0  0  0
   38.2970   32.0690   47.0730 N   0  0  0  0  0  0  0  0  0  0  0  0
   37.3220   31.1230   47.0820 C   0  0  0  0  0  0  0  0  0  0  0  0
   36.8230   30.7030   48.2780 N   0  0  0  0  0  0  0  0  0  0  0  0
   38.6750   32.6100   50.3940 H   0  0  0  0  0  0  0  0  0  0  0  0
   39.5680   33.3590   48.1590 H   0  0  0  0  0  0  0  0  0  0  0  0
   36.7570   30.7920   50.7530 C   0  0  1  0  0  0  0  0  0  0  0  0
   36.0480   29.5220   50.9040 C   0  0  2  0  0  0  0  0  0  0  0  0
   37.4920   29.5500   51.2950 C   0  0  0  0  0  0  0  0  0  0  0  0
   36.6910   31.6280   51.4980 H   0  0  0  0  0  0  0  0  0  0  0  0
   35.2160   29.5890   51.6620 H   0  0  0  0  0  0  0  0  0  0  0  0
   38.2260   29.0430   50.6590 H   0  0  0  0  0  0  0  0  0  0  0  0
   37.7070   29.5570   52.3790 H   0  0  0  0  0  0  0  0  0  0  0  0
   35.6740   28.8590   49.7430 O   0  0  0  0  0  0  0  0  0  0  0  0
   34.4480   28.4340   49.3530 C   0  0  0  0  0  0  0  0  0  0  0  0
   34.2900   27.4490   48.6000 O   0  0  0  0  0  0  0  0  0  0  0  0
   33.4840   29.2620   49.9240 N   0  0  0  0  0  0  0  0  0  0  0  0
   33.4430   30.2800   49.9550 H   0  0  0  0  0  0  0  0  0  0  0  0
   32.7160   28.7220   50.3720 H   0  0  0  0  0  0  0  0  0  0  0  0
   36.8650   30.6150   45.8150 C   0  0  0  0  0  0  0  0  0  0  0  0
   37.6850   30.5650   44.7240 N   0  0  0  0  0  0  0  0  0  0  0  0
   37.0200   30.0490   43.6650 C   0  0  0  0  0  0  0  0  0  0  0  0
   37.5640   29.9590   42.7390 H   0  0  0  0  0  0  0  0  0  0  0  0
   35.7780   29.7760   44.1020 N   0  0  0  0  0  0  0  0  0  0  0  0
   35.0800   29.3670   43.4580 H   0  0  0  0  0  0  0  0  0  0  0  0
   35.6770   30.1130   45.3940 N   0  0  0  0  0  0  0  0  0  0  0  0
  1  2  1  0  0  0  0
  1  9  1  0  0  0  0
  2  7  1  0  0  0  0
  3  2  2  0  0  0  0
  4  5  2  0  0  0  0
  4  3  1  0  0  0  0
  5  6  1  0  0  0  0
  6  1  2  0  0  0  0
  8  3  1  0  0  0  0
  9 10  1  0  0  0  0
  9 11  1  0  0  0  0
  9 12  1  1  0  0  0
 10 11  1  0  0  0  0
 10 13  1  1  0  0  0
 11 15  1  0  0  0  0
 14 11  1  0  0  0  0
 16 10  1  0  0  0  0
 17 16  1  0  0  0  0
 17 19  1  0  0  0  0
 18 17  2  0  0  0  0
 19 20  1  0  0  0  0
 19 21  1  0  0  0  0
 22  5  1  0  0  0  0
 23 22  1  0  0  0  0
 24 26  1  0  0  0  0
 24 23  2  0  0  0  0
 25 24  1  0  0  0  0
 26 28  1  0  0  0  0
 27 26  1  0  0  0  0
 28 22  2  0  0  0  0
M  END
>  <minimizedAffinity>
-5.19943047

>  <minimizedRMSD>
0.226624742

$$$$
