
 OpenBabel03272507193D

 28 30  0  0  1  0  0  0  0  0999 V2000
   37.4690   31.6220   49.3150 C   0  0  0  0  0  0  0  0  0  0  0  0
   38.3870   32.6020   49.6810 C   0  0  0  0  0  0  0  0  0  0  0  0
   39.0680   33.1960   48.6210 C   0  0  0  0  0  0  0  0  0  0  0  0
   38.8270   32.8200   47.3220 N   0  0  0  0  0  0  0  0  0  0  0  0
   37.9200   31.8560   47.0150 C   0  0  0  0  0  0  0  0  0  0  0  0
   37.2330   31.2520   48.0260 N   0  0  0  0  0  0  0  0  0  0  0  0
   38.5600   32.8820   50.6960 H   0  0  0  0  0  0  0  0  0  0  0  0
   39.8050   33.9720   48.7960 H   0  0  0  0  0  0  0  0  0  0  0  0
   36.7100   30.9790   50.4310 C   0  0  1  0  0  0  0  0  0  0  0  0
   36.0090   29.7070   50.2530 C   0  0  2  0  0  0  0  0  0  0  0  0
   37.3650   29.6570   50.8840 C   0  0  0  0  0  0  0  0  0  0  0  0
   36.5040   31.6830   51.2800 H   0  0  0  0  0  0  0  0  0  0  0  0
   35.0600   29.6590   50.8590 H   0  0  0  0  0  0  0  0  0  0  0  0
   38.2050   29.2530   50.3080 H   0  0  0  0  0  0  0  0  0  0  0  0
   37.3930   29.4870   51.9740 H   0  0  0  0  0  0  0  0  0  0  0  0
   35.8490   29.2450   48.9530 O   0  0  0  0  0  0  0  0  0  0  0  0
   34.7100   29.0180   48.2570 C   0  0  0  0  0  0  0  0  0  0  0  0
   34.3350   27.8670   47.9460 O   0  0  0  0  0  0  0  0  0  0  0  0
   34.0990   30.2400   47.9840 N   0  0  0  0  0  0  0  0  0  0  0  0
   34.5050   31.0950   47.6060 H   0  0  0  0  0  0  0  0  0  0  0  0
   33.0850   30.2330   48.2150 H   0  0  0  0  0  0  0  0  0  0  0  0
   37.7310   31.5250   45.6270 C   0  0  0  0  0  0  0  0  0  0  0  0
   37.9030   32.4510   44.6380 N   0  0  0  0  0  0  0  0  0  0  0  0
   37.6680   31.8920   43.4300 C   0  0  0  0  0  0  0  0  0  0  0  0
   37.7710   32.5260   42.5630 H   0  0  0  0  0  0  0  0  0  0  0  0
   37.3470   30.6080   43.6690 N   0  0  0  0  0  0  0  0  0  0  0  0
   37.1220   29.9730   42.8850 H   0  0  0  0  0  0  0  0  0  0  0  0
   37.3830   30.3790   44.9890 N   0  0  0  0  0  0  0  0  0  0  0  0
  1  2  1  0  0  0  0
  1  9  1  0  0  0  0
  2  7  1  0  0  0  0
  3  8  1  0  0  0  0
  3  2  2  0  0  0  0
  4  3  1  0  0  0  0
  5  4  2  0  0  0  0
  5  6  1  0  0  0  0
  6  1  2  0  0  0  0
  9 11  1  0  0  0  0
  9 12  1  1  0  0  0
 10  9  1  0  0  0  0
 10 13  1  1  0  0  0
 10 11  1  0  0  0  0
 11 15  1  0  0  0  0
 14 11  1  0  0  0  0
 16 10  1  0  0  0  0
 17 16  1  0  0  0  0
 18 17  2  0  0  0  0
 19 21  1  0  0  0  0
 19 17  1  0  0  0  0
 20 19  1  0  0  0  0
 22  5  1  0  0  0  0
 23 22  1  0  0  0  0
 24 26  1  0  0  0  0
 24 23  2  0  0  0  0
 25 24  1  0  0  0  0
 26 28  1  0  0  0  0
 27 26  1  0  0  0  0
 28 22  2  0  0  0  0
M  END
>  <minimizedAffinity>
-5.16494942

>  <minimizedRMSD>
1.17666519

$$$$
