
 OpenBabel03272505543D

 32 34  0  0  1  0  0  0  0  0999 V2000
   35.4880   30.0660   49.7970 C   0  0  2  0  0  0  0  0  0  0  0  0
   36.3450   31.1250   49.1480 C   0  0  0  0  0  0  0  0  0  0  0  0
   37.8060   30.9280   49.3800 C   0  0  2  0  0  0  0  0  0  0  0  0
   38.1750   30.7570   50.8290 C   0  0  0  0  0  0  0  0  0  0  0  0
   37.2160   29.9160   51.6010 C   0  0  0  0  0  0  0  0  0  0  0  0
   36.2460   29.1670   50.7090 C   0  0  0  0  0  0  0  0  0  0  0  0
   34.6520   30.5710   50.3290 H   0  0  0  0  0  0  0  0  0  0  0  0
   36.0720   32.1250   49.4950 H   0  0  0  0  0  0  0  0  0  0  0  0
   36.1900   31.0960   48.0460 H   0  0  0  0  0  0  0  0  0  0  0  0
   38.2150   30.1180   48.7370 H   0  0  0  0  0  0  0  0  0  0  0  0
   38.2340   31.7670   51.3090 H   0  0  0  0  0  0  0  0  0  0  0  0
   39.2140   30.3660   50.8740 H   0  0  0  0  0  0  0  0  0  0  0  0
   37.7880   29.1420   52.1640 H   0  0  0  0  0  0  0  0  0  0  0  0
   36.6030   30.5390   52.2920 H   0  0  0  0  0  0  0  0  0  0  0  0
   36.7390   28.3170   50.1910 H   0  0  0  0  0  0  0  0  0  0  0  0
   35.5190   28.6970   51.4160 H   0  0  0  0  0  0  0  0  0  0  0  0
   34.8490   29.2240   48.7480 C   0  0  0  0  0  0  0  0  0  0  0  0
   34.6810   29.8240   47.4870 C   0  0  0  0  0  0  0  0  0  0  0  0
   34.0640   29.0320   46.4990 C   0  0  0  0  0  0  0  0  0  0  0  0
   33.6660   27.7470   46.8040 N   0  0  0  0  0  0  0  0  0  0  0  0
   33.8560   27.2190   48.0450 C   0  0  0  0  0  0  0  0  0  0  0  0
   34.4420   27.9620   48.9940 N   0  0  0  0  0  0  0  0  0  0  0  0
   34.9640   30.8030   47.1960 H   0  0  0  0  0  0  0  0  0  0  0  0
   33.9070   29.4300   45.5150 H   0  0  0  0  0  0  0  0  0  0  0  0
   33.5100   26.2050   48.1830 H   0  0  0  0  0  0  0  0  0  0  0  0
   38.4860   32.1830   48.9280 C   0  0  0  0  0  0  0  0  0  0  0  0
   38.8250   33.2430   49.6860 N   0  0  0  0  0  0  0  0  0  0  0  0
   39.4270   34.1870   48.9120 C   0  0  0  0  0  0  0  0  0  0  0  0
   39.8070   35.1470   49.2470 H   0  0  0  0  0  0  0  0  0  0  0  0
   39.4510   33.6870   47.6610 N   0  0  0  0  0  0  0  0  0  0  0  0
   39.8410   34.1370   46.7930 H   0  0  0  0  0  0  0  0  0  0  0  0
   38.8840   32.4710   47.6530 N   0  0  0  0  0  0  0  0  0  0  0  0
  1  7  1  1  0  0  0
  1  6  1  0  0  0  0
  2  3  1  0  0  0  0
  2  8  1  0  0  0  0
  2  1  1  0  0  0  0
  3 10  1  6  0  0  0
  3  4  1  0  0  0  0
  4 12  1  0  0  0  0
  4 11  1  0  0  0  0
  4  5  1  0  0  0  0
  5 13  1  0  0  0  0
  5 14  1  0  0  0  0
  6 16  1  0  0  0  0
  6  5  1  0  0  0  0
  9  2  1  0  0  0  0
 15  6  1  0  0  0  0
 17 22  1  0  0  0  0
 17  1  1  0  0  0  0
 18 17  2  0  0  0  0
 19 20  2  0  0  0  0
 19 18  1  0  0  0  0
 20 21  1  0  0  0  0
 21 25  1  0  0  0  0
 21 22  2  0  0  0  0
 23 18  1  0  0  0  0
 24 19  1  0  0  0  0
 26  3  1  0  0  0  0
 26 27  1  0  0  0  0
 28 29  1  0  0  0  0
 28 27  2  0  0  0  0
 30 28  1  0  0  0  0
 31 30  1  0  0  0  0
 32 30  1  0  0  0  0
 32 26  2  0  0  0  0
M  END
>  <minimizedAffinity>
-6.43992853

>  <minimizedRMSD>
0.665059566

$$$$
