
 OpenBabel03272505153D

 26 28  0  0  0  0  0  0  0  0999 V2000
   39.6320   25.5650   31.9820 Cl  0  0  0  0  0  0  0  0  0  0  0  0
   38.9430   26.3310   33.3810 C   0  0  0  0  0  0  0  0  0  0  0  0
   39.7280   26.6720   34.4290 C   0  0  0  0  0  0  0  0  0  0  0  0
   39.0990   27.2770   35.5010 C   0  0  0  0  0  0  0  0  0  0  0  0
   37.7640   27.5450   35.5630 C   0  0  0  0  0  0  0  0  0  0  0  0
   36.9910   27.1810   34.4710 C   0  0  0  0  0  0  0  0  0  0  0  0
   37.5750   26.5720   33.3730 C   0  0  0  0  0  0  0  0  0  0  0  0
   39.7230   27.5580   36.3540 H   0  0  0  0  0  0  0  0  0  0  0  0
   37.3000   28.0150   36.4090 H   0  0  0  0  0  0  0  0  0  0  0  0
   35.9320   27.3980   34.5320 H   0  0  0  0  0  0  0  0  0  0  0  0
   43.4350   26.9220   33.7210 C   0  0  0  0  0  0  0  0  0  0  0  0
   42.0710   27.2280   33.7570 C   0  0  0  0  0  0  0  0  0  0  0  0
   41.1520   26.3910   34.3710 C   0  0  0  0  0  0  0  0  0  0  0  0
   41.6700   25.2700   34.9250 N   0  0  0  0  0  0  0  0  0  0  0  0
   42.9710   24.9680   34.8960 C   0  0  0  0  0  0  0  0  0  0  0  0
   43.8610   25.7810   34.3010 N   0  0  0  0  0  0  0  0  0  0  0  0
   44.0310   27.6810   33.2020 H   0  0  0  0  0  0  0  0  0  0  0  0
   41.6290   28.1250   33.3170 H   0  0  0  0  0  0  0  0  0  0  0  0
   43.3460   24.0570   35.3540 H   0  0  0  0  0  0  0  0  0  0  0  0
   36.7440   26.1970   32.2330 C   0  0  0  0  0  0  0  0  0  0  0  0
   36.1910   24.9960   32.0680 N   0  0  0  0  0  0  0  0  0  0  0  0
   35.5050   25.0630   30.8930 C   0  0  0  0  0  0  0  0  0  0  0  0
   34.8960   24.3860   30.3090 H   0  0  0  0  0  0  0  0  0  0  0  0
   35.6680   26.2980   30.3920 N   0  0  0  0  0  0  0  0  0  0  0  0
   35.3340   26.8050   29.5250 H   0  0  0  0  0  0  0  0  0  0  0  0
   36.4380   27.0320   31.2090 N   0  0  0  0  0  0  0  0  0  0  0  0
  1  2  1  0  0  0  0
  2  3  1  0  0  0  0
  3  4  2  0  0  0  0
  4  5  1  0  0  0  0
  4  8  1  0  0  0  0
  5  9  1  0  0  0  0
  6 10  1  0  0  0  0
  6  5  2  0  0  0  0
  7  2  2  0  0  0  0
  7  6  1  0  0  0  0
 11 12  2  0  0  0  0
 11 16  1  0  0  0  0
 12 13  1  0  0  0  0
 13  3  1  0  0  0  0
 13 14  2  0  0  0  0
 15 14  1  0  0  0  0
 15 19  1  0  0  0  0
 16 15  2  0  0  0  0
 17 11  1  0  0  0  0
 18 12  1  0  0  0  0
 20  7  1  0  0  0  0
 21 20  1  0  0  0  0
 22 21  2  0  0  0  0
 23 22  1  0  0  0  0
 24 22  1  0  0  0  0
 24 26  1  0  0  0  0
 25 24  1  0  0  0  0
 26 20  2  0  0  0  0
M  END
>  <minimizedAffinity>
-5.00591564

$$$$

 OpenBabel03272505153D

 26 28  0  0  0  0  0  0  0  0999 V2000
   38.3090   23.8510   33.1290 Cl  0  0  0  0  0  0  0  0  0  0  0  0
   38.1230   25.3160   34.0470 C   0  0  0  0  0  0  0  0  0  0  0  0
   38.7860   25.4790   35.2150 C   0  0  0  0  0  0  0  0  0  0  0  0
   38.5810   26.6730   35.8800 C   0  0  0  0  0  0  0  0  0  0  0  0
   37.7680   27.6740   35.4390 C   0  0  0  0  0  0  0  0  0  0  0  0
   37.1040   27.4710   34.2390 C   0  0  0  0  0  0  0  0  0  0  0  0
   37.2770   26.2910   33.5350 C   0  0  0  0  0  0  0  0  0  0  0  0
   39.1110   26.8170   36.8250 H   0  0  0  0  0  0  0  0  0  0  0  0
   37.6250   28.5920   35.9760 H   0  0  0  0  0  0  0  0  0  0  0  0
   36.4610   28.2730   33.8990 H   0  0  0  0  0  0  0  0  0  0  0  0
   40.1170   22.4420   37.0360 C   0  0  0  0  0  0  0  0  0  0  0  0
   39.2500   23.4500   36.6000 C   0  0  0  0  0  0  0  0  0  0  0  0
   39.6550   24.4170   35.6920 C   0  0  0  0  0  0  0  0  0  0  0  0
   40.9350   24.3120   35.2670 N   0  0  0  0  0  0  0  0  0  0  0  0
   41.7710   23.3530   35.6770 C   0  0  0  0  0  0  0  0  0  0  0  0
   41.3770   22.4170   36.5570 N   0  0  0  0  0  0  0  0  0  0  0  0
   39.6500   21.7560   37.7510 H   0  0  0  0  0  0  0  0  0  0  0  0
   38.2140   23.5570   36.9290 H   0  0  0  0  0  0  0  0  0  0  0  0
   42.7930   23.3050   35.3100 H   0  0  0  0  0  0  0  0  0  0  0  0
   36.5700   26.0980   32.2730 C   0  0  0  0  0  0  0  0  0  0  0  0
   35.8110   25.0390   31.9900 N   0  0  0  0  0  0  0  0  0  0  0  0
   35.3420   25.2470   30.7290 C   0  0  0  0  0  0  0  0  0  0  0  0
   34.7010   24.7120   30.0390 H   0  0  0  0  0  0  0  0  0  0  0  0
   35.8310   26.4200   30.2950 N   0  0  0  0  0  0  0  0  0  0  0  0
   35.7460   26.9840   29.4040 H   0  0  0  0  0  0  0  0  0  0  0  0
   36.6040   26.9760   31.2400 N   0  0  0  0  0  0  0  0  0  0  0  0
  1  2  1  0  0  0  0
  2  3  1  0  0  0  0
  3 13  1  0  0  0  0
  3  4  2  0  0  0  0
  4  8  1  0  0  0  0
  5  4  1  0  0  0  0
  5  9  1  0  0  0  0
  6  5  2  0  0  0  0
  7  2  2  0  0  0  0
  7  6  1  0  0  0  0
 10  6  1  0  0  0  0
 11 17  1  0  0  0  0
 12 18  1  0  0  0  0
 12 11  1  0  0  0  0
 13 12  2  0  0  0  0
 14 15  2  0  0  0  0
 14 13  1  0  0  0  0
 15 16  1  0  0  0  0
 16 11  2  0  0  0  0
 19 15  1  0  0  0  0
 20  7  1  0  0  0  0
 21 20  1  0  0  0  0
 22 21  2  0  0  0  0
 23 22  1  0  0  0  0
 24 22  1  0  0  0  0
 24 26  1  0  0  0  0
 25 24  1  0  0  0  0
 26 20  2  0  0  0  0
M  END
>  <minimizedAffinity>
-4.99603987

$$$$

 OpenBabel03272505153D

 26 28  0  0  0  0  0  0  0  0999 V2000
   38.6490   25.8410   35.3420 Cl  0  0  0  0  0  0  0  0  0  0  0  0
   38.1440   24.4260   34.4680 C   0  0  0  0  0  0  0  0  0  0  0  0
   37.7600   24.5230   33.1740 C   0  0  0  0  0  0  0  0  0  0  0  0
   37.3730   23.3490   32.5550 C   0  0  0  0  0  0  0  0  0  0  0  0
   37.3560   22.1270   33.1570 C   0  0  0  0  0  0  0  0  0  0  0  0
   37.7550   22.0650   34.4840 C   0  0  0  0  0  0  0  0  0  0  0  0
   38.1520   23.2140   35.1470 C   0  0  0  0  0  0  0  0  0  0  0  0
   37.0610   23.4140   31.5090 H   0  0  0  0  0  0  0  0  0  0  0  0
   37.0500   21.2290   32.6540 H   0  0  0  0  0  0  0  0  0  0  0  0
   37.7380   21.0890   34.9510 H   0  0  0  0  0  0  0  0  0  0  0  0
   38.8360   27.5610   31.1940 C   0  0  0  0  0  0  0  0  0  0  0  0
   38.8590   26.3040   31.8060 C   0  0  0  0  0  0  0  0  0  0  0  0
   37.7750   25.8220   32.5250 C   0  0  0  0  0  0  0  0  0  0  0  0
   36.7080   26.6520   32.5880 N   0  0  0  0  0  0  0  0  0  0  0  0
   36.6760   27.8550   32.0080 C   0  0  0  0  0  0  0  0  0  0  0  0
   37.7270   28.3200   31.3110 N   0  0  0  0  0  0  0  0  0  0  0  0
   39.7650   27.7960   30.6650 H   0  0  0  0  0  0  0  0  0  0  0  0
   39.7070   25.6160   31.7700 H   0  0  0  0  0  0  0  0  0  0  0  0
   35.7980   28.4910   32.0830 H   0  0  0  0  0  0  0  0  0  0  0  0
   38.5690   23.1290   36.5440 C   0  0  0  0  0  0  0  0  0  0  0  0
   37.8470   23.5710   37.5730 N   0  0  0  0  0  0  0  0  0  0  0  0
   38.5880   23.3030   38.6850 C   0  0  0  0  0  0  0  0  0  0  0  0
   38.4700   23.4510   39.7510 H   0  0  0  0  0  0  0  0  0  0  0  0
   39.7260   22.7110   38.2890 N   0  0  0  0  0  0  0  0  0  0  0  0
   40.5840   22.3320   38.7800 H   0  0  0  0  0  0  0  0  0  0  0  0
   39.7440   22.5880   36.9540 N   0  0  0  0  0  0  0  0  0  0  0  0
  2  7  1  0  0  0  0
  2  1  1  0  0  0  0
  3  2  2  0  0  0  0
  4  5  2  0  0  0  0
  4  3  1  0  0  0  0
  5  6  1  0  0  0  0
  6 10  1  0  0  0  0
  6  7  2  0  0  0  0
  7 20  1  0  0  0  0
  8  4  1  0  0  0  0
  9  5  1  0  0  0  0
 11 16  2  0  0  0  0
 11 12  1  0  0  0  0
 12 13  2  0  0  0  0
 13 14  1  0  0  0  0
 13  3  1  0  0  0  0
 15 19  1  0  0  0  0
 15 14  2  0  0  0  0
 16 15  1  0  0  0  0
 17 11  1  0  0  0  0
 18 12  1  0  0  0  0
 20 26  2  0  0  0  0
 20 21  1  0  0  0  0
 21 22  2  0  0  0  0
 22 23  1  0  0  0  0
 24 22  1  0  0  0  0
 24 25  1  0  0  0  0
 26 24  1  0  0  0  0
M  END
>  <minimizedAffinity>
-4.89011383

$$$$

 OpenBabel03272505153D

 26 28  0  0  0  0  0  0  0  0999 V2000
   37.8820   23.3270   33.7360 Cl  0  0  0  0  0  0  0  0  0  0  0  0
   36.9570   24.3530   32.6820 C   0  0  0  0  0  0  0  0  0  0  0  0
   36.1530   23.8140   31.7350 C   0  0  0  0  0  0  0  0  0  0  0  0
   35.4540   24.7020   30.9400 C   0  0  0  0  0  0  0  0  0  0  0  0
   35.5230   26.0580   31.0500 C   0  0  0  0  0  0  0  0  0  0  0  0
   36.3570   26.5750   32.0290 C   0  0  0  0  0  0  0  0  0  0  0  0
   37.0780   25.7260   32.8520 C   0  0  0  0  0  0  0  0  0  0  0  0
   34.8010   24.2780   30.1720 H   0  0  0  0  0  0  0  0  0  0  0  0
   34.9700   26.7260   30.4180 H   0  0  0  0  0  0  0  0  0  0  0  0
   36.4040   27.6540   32.1070 H   0  0  0  0  0  0  0  0  0  0  0  0
   35.0630   20.2100   32.1010 C   0  0  0  0  0  0  0  0  0  0  0  0
   35.1070   21.6010   32.2440 C   0  0  0  0  0  0  0  0  0  0  0  0
   36.0740   22.3690   31.6120 C   0  0  0  0  0  0  0  0  0  0  0  0
   36.9590   21.6780   30.8570 N   0  0  0  0  0  0  0  0  0  0  0  0
   36.9260   20.3490   30.7140 C   0  0  0  0  0  0  0  0  0  0  0  0
   35.9880   19.6070   31.3270 N   0  0  0  0  0  0  0  0  0  0  0  0
   34.2420   19.7490   32.6600 H   0  0  0  0  0  0  0  0  0  0  0  0
   34.4050   22.1810   32.8470 H   0  0  0  0  0  0  0  0  0  0  0  0
   37.6570   19.8330   30.0980 H   0  0  0  0  0  0  0  0  0  0  0  0
   37.9500   26.2910   33.8780 C   0  0  0  0  0  0  0  0  0  0  0  0
   37.5590   26.5890   35.1170 N   0  0  0  0  0  0  0  0  0  0  0  0
   38.6620   27.0850   35.7430 C   0  0  0  0  0  0  0  0  0  0  0  0
   38.8900   27.4660   36.7300 H   0  0  0  0  0  0  0  0  0  0  0  0
   39.6770   27.0680   34.8640 N   0  0  0  0  0  0  0  0  0  0  0  0
   40.6970   27.3480   34.8920 H   0  0  0  0  0  0  0  0  0  0  0  0
   39.2620   26.5760   33.6870 N   0  0  0  0  0  0  0  0  0  0  0  0
  2  7  1  0  0  0  0
  2  1  1  0  0  0  0
  3  2  2  0  0  0  0
  4  5  2  0  0  0  0
  4  3  1  0  0  0  0
  5  6  1  0  0  0  0
  6 10  1  0  0  0  0
  6  7  2  0  0  0  0
  7 20  1  0  0  0  0
  8  4  1  0  0  0  0
  9  5  1  0  0  0  0
 11 12  1  0  0  0  0
 11 17  1  0  0  0  0
 12 18  1  0  0  0  0
 13  3  1  0  0  0  0
 13 12  2  0  0  0  0
 14 13  1  0  0  0  0
 15 14  2  0  0  0  0
 15 16  1  0  0  0  0
 16 11  2  0  0  0  0
 19 15  1  0  0  0  0
 20 21  1  0  0  0  0
 21 22  2  0  0  0  0
 22 23  1  0  0  0  0
 24 25  1  0  0  0  0
 24 22  1  0  0  0  0
 26 20  2  0  0  0  0
 26 24  1  0  0  0  0
M  END
>  <minimizedAffinity>
-4.81544018

$$$$

 OpenBabel03272505153D

 26 28  0  0  0  0  0  0  0  0999 V2000
   40.5930   24.5520   34.2810 Cl  0  0  0  0  0  0  0  0  0  0  0  0
   39.7580   24.1120   35.7410 C   0  0  0  0  0  0  0  0  0  0  0  0
   38.5340   24.6230   36.0080 C   0  0  0  0  0  0  0  0  0  0  0  0
   37.9410   24.2210   37.1910 C   0  0  0  0  0  0  0  0  0  0  0  0
   38.5040   23.3590   38.0830 C   0  0  0  0  0  0  0  0  0  0  0  0
   39.7600   22.8550   37.7760 C   0  0  0  0  0  0  0  0  0  0  0  0
   40.3940   23.2280   36.6040 C   0  0  0  0  0  0  0  0  0  0  0  0
   36.9520   24.6270   37.4180 H   0  0  0  0  0  0  0  0  0  0  0  0
   38.0230   23.0630   38.9950 H   0  0  0  0  0  0  0  0  0  0  0  0
   40.1960   22.1720   38.4930 H   0  0  0  0  0  0  0  0  0  0  0  0
   37.1060   27.7350   34.4020 C   0  0  0  0  0  0  0  0  0  0  0  0
   37.6930   26.8810   35.3400 C   0  0  0  0  0  0  0  0  0  0  0  0
   37.9270   25.5420   35.0620 C   0  0  0  0  0  0  0  0  0  0  0  0
   37.5490   25.1330   33.8290 N   0  0  0  0  0  0  0  0  0  0  0  0
   36.9870   25.9410   32.9240 C   0  0  0  0  0  0  0  0  0  0  0  0
   36.7610   27.2380   33.1960 N   0  0  0  0  0  0  0  0  0  0  0  0
   36.9890   28.7600   34.7700 H   0  0  0  0  0  0  0  0  0  0  0  0
   38.0070   27.1870   36.3410 H   0  0  0  0  0  0  0  0  0  0  0  0
   36.6970   25.5720   31.9450 H   0  0  0  0  0  0  0  0  0  0  0  0
   41.7150   22.6870   36.2990 C   0  0  0  0  0  0  0  0  0  0  0  0
   41.9280   21.5290   35.6730 N   0  0  0  0  0  0  0  0  0  0  0  0
   43.2810   21.3980   35.5890 C   0  0  0  0  0  0  0  0  0  0  0  0
   43.9670   20.6640   35.1860 H   0  0  0  0  0  0  0  0  0  0  0  0
   43.8360   22.4770   36.1640 N   0  0  0  0  0  0  0  0  0  0  0  0
   44.8260   22.8100   36.3340 H   0  0  0  0  0  0  0  0  0  0  0  0
   42.8810   23.3020   36.6190 N   0  0  0  0  0  0  0  0  0  0  0  0
  1  2  1  0  0  0  0
  2  3  2  0  0  0  0
  2  7  1  0  0  0  0
  3  4  1  0  0  0  0
  4  8  1  0  0  0  0
  4  5  2  0  0  0  0
  5  9  1  0  0  0  0
  6  5  1  0  0  0  0
  6 10  1  0  0  0  0
  7  6  2  0  0  0  0
 11 17  1  0  0  0  0
 11 12  1  0  0  0  0
 12 18  1  0  0  0  0
 13 12  2  0  0  0  0
 13  3  1  0  0  0  0
 14 13  1  0  0  0  0
 15 16  1  0  0  0  0
 15 14  2  0  0  0  0
 16 11  2  0  0  0  0
 19 15  1  0  0  0  0
 20  7  1  0  0  0  0
 20 26  2  0  0  0  0
 21 20  1  0  0  0  0
 22 21  2  0  0  0  0
 22 24  1  0  0  0  0
 23 22  1  0  0  0  0
 24 25  1  0  0  0  0
 24 26  1  0  0  0  0
M  END
>  <minimizedAffinity>
-4.73623514

$$$$

 OpenBabel03272505153D

 26 28  0  0  0  0  0  0  0  0999 V2000
   37.0720   21.5650   35.3900 Cl  0  0  0  0  0  0  0  0  0  0  0  0
   38.1700   22.6370   34.5760 C   0  0  0  0  0  0  0  0  0  0  0  0
   38.2910   22.5980   33.2280 C   0  0  0  0  0  0  0  0  0  0  0  0
   39.1870   23.4850   32.6620 C   0  0  0  0  0  0  0  0  0  0  0  0
   39.9410   24.3760   33.3650 C   0  0  0  0  0  0  0  0  0  0  0  0
   39.7930   24.3880   34.7440 C   0  0  0  0  0  0  0  0  0  0  0  0
   38.9060   23.5180   35.3580 C   0  0  0  0  0  0  0  0  0  0  0  0
   39.2930   23.4630   31.5740 H   0  0  0  0  0  0  0  0  0  0  0  0
   40.6320   25.0540   32.9010 H   0  0  0  0  0  0  0  0  0  0  0  0
   40.3970   25.1000   35.2910 H   0  0  0  0  0  0  0  0  0  0  0  0
   37.1270   19.4940   31.4060 C   0  0  0  0  0  0  0  0  0  0  0  0
   37.9280   20.3780   32.1370 C   0  0  0  0  0  0  0  0  0  0  0  0
   37.4910   21.6510   32.4720 C   0  0  0  0  0  0  0  0  0  0  0  0
   36.2460   21.9670   32.0440 N   0  0  0  0  0  0  0  0  0  0  0  0
   35.4730   21.1300   31.3450 C   0  0  0  0  0  0  0  0  0  0  0  0
   35.8990   19.8970   31.0210 N   0  0  0  0  0  0  0  0  0  0  0  0
   37.6130   18.5300   31.2220 H   0  0  0  0  0  0  0  0  0  0  0  0
   38.9350   20.1480   32.4930 H   0  0  0  0  0  0  0  0  0  0  0  0
   34.4790   21.4230   31.0200 H   0  0  0  0  0  0  0  0  0  0  0  0
   38.7640   23.5460   36.8110 C   0  0  0  0  0  0  0  0  0  0  0  0
   37.9110   24.3320   37.4680 N   0  0  0  0  0  0  0  0  0  0  0  0
   38.0940   24.0510   38.7880 C   0  0  0  0  0  0  0  0  0  0  0  0
   37.6690   24.3950   39.7230 H   0  0  0  0  0  0  0  0  0  0  0  0
   39.0470   23.1090   38.8810 N   0  0  0  0  0  0  0  0  0  0  0  0
   39.5130   22.5910   39.6770 H   0  0  0  0  0  0  0  0  0  0  0  0
   39.4860   22.7730   37.6600 N   0  0  0  0  0  0  0  0  0  0  0  0
  2  7  1  0  0  0  0
  2  1  1  0  0  0  0
  3  2  2  0  0  0  0
  4  3  1  0  0  0  0
  4  5  2  0  0  0  0
  5  6  1  0  0  0  0
  6 10  1  0  0  0  0
  6  7  2  0  0  0  0
  7 20  1  0  0  0  0
  8  4  1  0  0  0  0
  9  5  1  0  0  0  0
 11 12  1  0  0  0  0
 12 13  2  0  0  0  0
 12 18  1  0  0  0  0
 13  3  1  0  0  0  0
 14 13  1  0  0  0  0
 15 14  2  0  0  0  0
 16 15  1  0  0  0  0
 16 11  2  0  0  0  0
 17 11  1  0  0  0  0
 19 15  1  0  0  0  0
 20 21  1  0  0  0  0
 20 26  2  0  0  0  0
 21 22  2  0  0  0  0
 22 24  1  0  0  0  0
 22 23  1  0  0  0  0
 24 25  1  0  0  0  0
 26 24  1  0  0  0  0
M  END
>  <minimizedAffinity>
-4.64518881

$$$$

 OpenBabel03272505153D

 26 28  0  0  0  0  0  0  0  0999 V2000
   39.6030   23.8810   33.3720 Cl  0  0  0  0  0  0  0  0  0  0  0  0
   38.6610   25.2870   33.7630 C   0  0  0  0  0  0  0  0  0  0  0  0
   38.2980   25.5320   35.0440 C   0  0  0  0  0  0  0  0  0  0  0  0
   37.5490   26.6720   35.2670 C   0  0  0  0  0  0  0  0  0  0  0  0
   37.1630   27.5450   34.2950 C   0  0  0  0  0  0  0  0  0  0  0  0
   37.5520   27.2630   32.9950 C   0  0  0  0  0  0  0  0  0  0  0  0
   38.3030   26.1320   32.7210 C   0  0  0  0  0  0  0  0  0  0  0  0
   37.2500   26.8800   36.2980 H   0  0  0  0  0  0  0  0  0  0  0  0
   36.5800   28.4240   34.4950 H   0  0  0  0  0  0  0  0  0  0  0  0
   37.2390   27.9640   32.2320 H   0  0  0  0  0  0  0  0  0  0  0  0
   38.3950   23.4790   38.2200 C   0  0  0  0  0  0  0  0  0  0  0  0
   37.9690   24.3800   37.2390 C   0  0  0  0  0  0  0  0  0  0  0  0
   38.7060   24.6060   36.0860 C   0  0  0  0  0  0  0  0  0  0  0  0
   39.8540   23.8960   35.9860 N   0  0  0  0  0  0  0  0  0  0  0  0
   40.2700   23.0330   36.9170 C   0  0  0  0  0  0  0  0  0  0  0  0
   39.5550   22.8160   38.0340 N   0  0  0  0  0  0  0  0  0  0  0  0
   37.7050   23.4120   39.0680 H   0  0  0  0  0  0  0  0  0  0  0  0
   37.0470   24.9640   37.2970 H   0  0  0  0  0  0  0  0  0  0  0  0
   41.2000   22.4830   36.7980 H   0  0  0  0  0  0  0  0  0  0  0  0
   38.7040   25.8520   31.3450 C   0  0  0  0  0  0  0  0  0  0  0  0
   39.6810   26.4900   30.7010 N   0  0  0  0  0  0  0  0  0  0  0  0
   39.7290   25.9330   29.4590 C   0  0  0  0  0  0  0  0  0  0  0  0
   40.3230   26.0770   28.5650 H   0  0  0  0  0  0  0  0  0  0  0  0
   38.7830   24.9830   29.3960 N   0  0  0  0  0  0  0  0  0  0  0  0
   38.4530   24.3020   28.6570 H   0  0  0  0  0  0  0  0  0  0  0  0
   38.1240   24.9090   30.5620 N   0  0  0  0  0  0  0  0  0  0  0  0
  1  2  1  0  0  0  0
  2  3  1  0  0  0  0
  3  4  2  0  0  0  0
  3 13  1  0  0  0  0
  4  8  1  0  0  0  0
  5  9  1  0  0  0  0
  5  4  1  0  0  0  0
  6  5  2  0  0  0  0
  7  6  1  0  0  0  0
  7  2  2  0  0  0  0
 10  6  1  0  0  0  0
 11 17  1  0  0  0  0
 12 18  1  0  0  0  0
 12 11  2  0  0  0  0
 13 12  1  0  0  0  0
 14 13  2  0  0  0  0
 14 15  1  0  0  0  0
 15 16  2  0  0  0  0
 16 11  1  0  0  0  0
 19 15  1  0  0  0  0
 20  7  1  0  0  0  0
 21 20  1  0  0  0  0
 22 21  2  0  0  0  0
 23 22  1  0  0  0  0
 24 22  1  0  0  0  0
 24 26  1  0  0  0  0
 25 24  1  0  0  0  0
 26 20  2  0  0  0  0
M  END
>  <minimizedAffinity>
-4.63845491

$$$$

 OpenBabel03272505153D

 26 28  0  0  0  0  0  0  0  0999 V2000
   38.7220   24.0520   35.6660 Cl  0  0  0  0  0  0  0  0  0  0  0  0
   40.2050   24.8450   35.2290 C   0  0  0  0  0  0  0  0  0  0  0  0
   40.1810   26.0180   34.5540 C   0  0  0  0  0  0  0  0  0  0  0  0
   41.4060   26.5790   34.2460 C   0  0  0  0  0  0  0  0  0  0  0  0
   42.6100   26.0340   34.5760 C   0  0  0  0  0  0  0  0  0  0  0  0
   42.5970   24.8310   35.2660 C   0  0  0  0  0  0  0  0  0  0  0  0
   41.3950   24.2300   35.5980 C   0  0  0  0  0  0  0  0  0  0  0  0
   41.3990   27.5270   33.7010 H   0  0  0  0  0  0  0  0  0  0  0  0
   43.5490   26.4900   34.3240 H   0  0  0  0  0  0  0  0  0  0  0  0
   43.5600   24.4080   35.5220 H   0  0  0  0  0  0  0  0  0  0  0  0
   36.9190   27.9270   34.6930 C   0  0  0  0  0  0  0  0  0  0  0  0
   38.1480   27.3780   35.0710 C   0  0  0  0  0  0  0  0  0  0  0  0
   38.9010   26.6050   34.2000 C   0  0  0  0  0  0  0  0  0  0  0  0
   38.3610   26.4260   32.9720 N   0  0  0  0  0  0  0  0  0  0  0  0
   37.1870   26.9470   32.6000 C   0  0  0  0  0  0  0  0  0  0  0  0
   36.4590   27.6950   33.4460 N   0  0  0  0  0  0  0  0  0  0  0  0
   36.4470   28.5110   35.4900 H   0  0  0  0  0  0  0  0  0  0  0  0
   38.6040   27.5070   36.0550 H   0  0  0  0  0  0  0  0  0  0  0  0
   36.7900   26.7780   31.6030 H   0  0  0  0  0  0  0  0  0  0  0  0
   41.4020   22.9640   36.3260 C   0  0  0  0  0  0  0  0  0  0  0  0
   42.0690   21.8770   35.9370 N   0  0  0  0  0  0  0  0  0  0  0  0
   41.8130   20.9300   36.8830 C   0  0  0  0  0  0  0  0  0  0  0  0
   42.0980   19.8990   37.0480 H   0  0  0  0  0  0  0  0  0  0  0  0
   41.0050   21.4770   37.8050 N   0  0  0  0  0  0  0  0  0  0  0  0
   40.5510   21.1390   38.6990 H   0  0  0  0  0  0  0  0  0  0  0  0
   40.7300   22.7500   37.4840 N   0  0  0  0  0  0  0  0  0  0  0  0
  2  7  1  0  0  0  0
  2  1  1  0  0  0  0
  3  2  2  0  0  0  0
  4  3  1  0  0  0  0
  4  5  2  0  0  0  0
  5  6  1  0  0  0  0
  6 10  1  0  0  0  0
  6  7  2  0  0  0  0
  7 20  1  0  0  0  0
  8  4  1  0  0  0  0
  9  5  1  0  0  0  0
 11 12  1  0  0  0  0
 11 17  1  0  0  0  0
 12 18  1  0  0  0  0
 13  3  1  0  0  0  0
 13 12  2  0  0  0  0
 14 13  1  0  0  0  0
 15 14  2  0  0  0  0
 15 16  1  0  0  0  0
 16 11  2  0  0  0  0
 19 15  1  0  0  0  0
 20 26  2  0  0  0  0
 21 20  1  0  0  0  0
 21 22  2  0  0  0  0
 22 23  1  0  0  0  0
 22 24  1  0  0  0  0
 24 25  1  0  0  0  0
 26 24  1  0  0  0  0
M  END
>  <minimizedAffinity>
-4.63469744

$$$$

 OpenBabel03272505153D

 26 28  0  0  0  0  0  0  0  0999 V2000
   35.7650   28.6080   34.5850 Cl  0  0  0  0  0  0  0  0  0  0  0  0
   35.8460   29.8580   33.3810 C   0  0  0  0  0  0  0  0  0  0  0  0
   36.2540   29.5690   32.1230 C   0  0  0  0  0  0  0  0  0  0  0  0
   36.2900   30.6220   31.2280 C   0  0  0  0  0  0  0  0  0  0  0  0
   35.9450   31.9050   31.5300 C   0  0  0  0  0  0  0  0  0  0  0  0
   35.5320   32.1640   32.8280 C   0  0  0  0  0  0  0  0  0  0  0  0
   35.4790   31.1430   33.7610 C   0  0  0  0  0  0  0  0  0  0  0  0
   36.6180   30.4020   30.2090 H   0  0  0  0  0  0  0  0  0  0  0  0
   35.9820   32.7060   30.8160 H   0  0  0  0  0  0  0  0  0  0  0  0
   35.2610   33.1870   33.0560 H   0  0  0  0  0  0  0  0  0  0  0  0
   38.2460   26.4170   31.4870 C   0  0  0  0  0  0  0  0  0  0  0  0
   37.9300   27.7400   31.8110 C   0  0  0  0  0  0  0  0  0  0  0  0
   36.6230   28.2040   31.7930 C   0  0  0  0  0  0  0  0  0  0  0  0
   35.6900   27.2890   31.4410 N   0  0  0  0  0  0  0  0  0  0  0  0
   35.9810   26.0230   31.1290 C   0  0  0  0  0  0  0  0  0  0  0  0
   37.2480   25.5750   31.1480 N   0  0  0  0  0  0  0  0  0  0  0  0
   39.3190   26.2060   31.5480 H   0  0  0  0  0  0  0  0  0  0  0  0
   38.6650   28.4970   32.0970 H   0  0  0  0  0  0  0  0  0  0  0  0
   35.2000   25.3200   30.8520 H   0  0  0  0  0  0  0  0  0  0  0  0
   35.0410   31.4360   35.1230 C   0  0  0  0  0  0  0  0  0  0  0  0
   33.7770   31.3610   35.5390 N   0  0  0  0  0  0  0  0  0  0  0  0
   33.8010   31.7090   36.8560 C   0  0  0  0  0  0  0  0  0  0  0  0
   33.0680   31.8100   37.6470 H   0  0  0  0  0  0  0  0  0  0  0  0
   35.0730   31.9810   37.1870 N   0  0  0  0  0  0  0  0  0  0  0  0
   35.5690   32.2850   38.0710 H   0  0  0  0  0  0  0  0  0  0  0  0
   35.8730   31.8190   36.1230 N   0  0  0  0  0  0  0  0  0  0  0  0
  2  7  1  0  0  0  0
  2  1  1  0  0  0  0
  3  2  2  0  0  0  0
  4  5  2  0  0  0  0
  4  3  1  0  0  0  0
  5  6  1  0  0  0  0
  6 10  1  0  0  0  0
  6  7  2  0  0  0  0
  7 20  1  0  0  0  0
  8  4  1  0  0  0  0
  9  5  1  0  0  0  0
 11 17  1  0  0  0  0
 11 12  1  0  0  0  0
 12 18  1  0  0  0  0
 13 12  2  0  0  0  0
 13  3  1  0  0  0  0
 14 13  1  0  0  0  0
 15 16  1  0  0  0  0
 15 14  2  0  0  0  0
 16 11  2  0  0  0  0
 19 15  1  0  0  0  0
 20 21  1  0  0  0  0
 20 26  2  0  0  0  0
 21 22  2  0  0  0  0
 22 24  1  0  0  0  0
 22 23  1  0  0  0  0
 24 25  1  0  0  0  0
 26 24  1  0  0  0  0
M  END
>  <minimizedAffinity>
-4.63116693

$$$$
