
 OpenBabel03272510133D

 39 42  0  0  0  0  0  0  0  0999 V2000
   38.4120   31.3110   48.7080 C   0  0  0  0  0  0  0  0  0  0  0  0
   38.4340   32.5150   49.3740 C   0  0  0  0  0  0  0  0  0  0  0  0
   39.0140   33.4470   48.5090 C   0  0  0  0  0  0  0  0  0  0  0  0
   39.3150   32.7940   47.3810 N   0  0  0  0  0  0  0  0  0  0  0  0
   38.9600   31.5560   47.5110 N   0  0  0  0  0  0  0  0  0  0  0  0
   38.1240   32.8730   50.3470 H   0  0  0  0  0  0  0  0  0  0  0  0
   39.2110   34.5120   48.6620 H   0  0  0  0  0  0  0  0  0  0  0  0
   39.9330   33.3630   46.2190 C   0  0  0  0  0  0  0  0  0  0  0  0
   40.5740   34.2000   46.5560 H   0  0  0  0  0  0  0  0  0  0  0  0
   39.1760   33.8580   45.5450 H   0  0  0  0  0  0  0  0  0  0  0  0
   40.7080   32.3180   45.5030 C   0  0  0  0  0  0  0  0  0  0  0  0
   41.7810   32.6310   45.5400 H   0  0  0  0  0  0  0  0  0  0  0  0
   40.6920   31.4030   46.1710 H   0  0  0  0  0  0  0  0  0  0  0  0
   40.3460   31.9830   44.1480 C   0  0  0  0  0  0  0  0  0  0  0  0
   40.6810   30.7880   43.5780 N   0  0  0  0  0  0  0  0  0  0  0  0
   40.2290   30.7170   42.3190 C   0  0  0  0  0  0  0  0  0  0  0  0
   40.3300   29.9070   41.6070 H   0  0  0  0  0  0  0  0  0  0  0  0
   39.5970   31.8730   42.0720 N   0  0  0  0  0  0  0  0  0  0  0  0
   39.1090   32.2200   41.2240 H   0  0  0  0  0  0  0  0  0  0  0  0
   39.6760   32.6080   43.1630 N   0  0  0  0  0  0  0  0  0  0  0  0
   37.8670   30.2630   49.4210 O   0  0  0  0  0  0  0  0  0  0  0  0
   34.0690   28.8300   48.3170 C   0  0  0  0  0  0  0  0  0  0  0  0
   34.6900   28.3880   49.4440 C   0  0  0  0  0  0  0  0  0  0  0  0
   35.9240   28.8110   49.8630 C   0  0  0  0  0  0  0  0  0  0  0  0
   36.6180   29.7300   49.1460 C   0  0  0  0  0  0  0  0  0  0  0  0
   35.9960   30.1930   47.9860 C   0  0  0  0  0  0  0  0  0  0  0  0
   34.7780   29.7550   47.6020 N   0  0  0  0  0  0  0  0  0  0  0  0
   34.2070   27.6580   50.0730 H   0  0  0  0  0  0  0  0  0  0  0  0
   36.4100   28.4500   50.7680 H   0  0  0  0  0  0  0  0  0  0  0  0
   36.4730   30.9310   47.3410 H   0  0  0  0  0  0  0  0  0  0  0  0
   31.9180   27.6170   48.6380 C   0  0  0  0  0  0  0  0  0  0  0  0
   32.7830   28.3970   47.8660 C   0  0  0  0  0  0  0  0  0  0  0  0
   32.3460   28.7490   46.6070 C   0  0  0  0  0  0  0  0  0  0  0  0
   31.1170   28.3350   46.1710 N   0  0  0  0  0  0  0  0  0  0  0  0
   30.3200   27.5800   46.9640 C   0  0  0  0  0  0  0  0  0  0  0  0
   30.7040   27.2060   48.2130 N   0  0  0  0  0  0  0  0  0  0  0  0
   32.2160   27.3170   49.6310 H   0  0  0  0  0  0  0  0  0  0  0  0
   32.9880   29.3570   45.9720 H   0  0  0  0  0  0  0  0  0  0  0  0
   29.3680   27.3100   46.5130 H   0  0  0  0  0  0  0  0  0  0  0  0
  1  2  1  0  0  0  0
  1 21  1  0  0  0  0
  2  6  1  0  0  0  0
  3  7  1  0  0  0  0
  3  2  2  0  0  0  0
  4  5  1  0  0  0  0
  4  3  1  0  0  0  0
  5  1  2  0  0  0  0
  8  9  1  0  0  0  0
  8  4  1  0  0  0  0
 10  8  1  0  0  0  0
 11 12  1  0  0  0  0
 11 13  1  0  0  0  0
 11  8  1  0  0  0  0
 14 11  1  0  0  0  0
 15 14  1  0  0  0  0
 16 15  2  0  0  0  0
 17 16  1  0  0  0  0
 18 16  1  0  0  0  0
 18 20  1  0  0  0  0
 19 18  1  0  0  0  0
 20 14  2  0  0  0  0
 22 23  1  0  0  0  0
 23 24  2  0  0  0  0
 23 28  1  0  0  0  0
 24 29  1  0  0  0  0
 25 21  1  0  0  0  0
 25 24  1  0  0  0  0
 26 25  2  0  0  0  0
 27 26  1  0  0  0  0
 27 22  2  0  0  0  0
 30 26  1  0  0  0  0
 31 37  1  0  0  0  0
 32 22  1  0  0  0  0
 32 31  2  0  0  0  0
 33 32  1  0  0  0  0
 34 33  2  0  0  0  0
 34 35  1  0  0  0  0
 35 36  2  0  0  0  0
 36 31  1  0  0  0  0
 38 33  1  0  0  0  0
 39 35  1  0  0  0  0
M  END
>  <minimizedAffinity>
-6.16965485

>  <minimizedRMSD>
1.2203759

$$$$
