
 OpenBabel03272509403D

 33 35  0  0  0  0  0  0  0  0999 V2000
   38.1200   31.4010   48.9210 C   0  0  0  0  0  0  0  0  0  0  0  0
   38.2550   32.4810   49.7980 C   0  0  0  0  0  0  0  0  0  0  0  0
   38.8860   33.6600   49.4290 C   0  0  0  0  0  0  0  0  0  0  0  0
   39.4080   33.7810   48.1350 C   0  0  0  0  0  0  0  0  0  0  0  0
   39.2680   32.7180   47.2900 C   0  0  0  0  0  0  0  0  0  0  0  0
   38.6350   31.5530   47.6840 C   0  0  0  0  0  0  0  0  0  0  0  0
   37.8440   32.3700   50.7990 H   0  0  0  0  0  0  0  0  0  0  0  0
   38.9370   34.4330   50.1830 H   0  0  0  0  0  0  0  0  0  0  0  0
   39.8890   34.7080   47.8810 H   0  0  0  0  0  0  0  0  0  0  0  0
   39.7000   32.8990   46.3130 H   0  0  0  0  0  0  0  0  0  0  0  0
   37.4460   30.2050   49.3930 C   0  0  0  0  0  0  0  0  0  0  0  0
   38.0840   29.5580   50.2980 O   0  0  0  0  0  0  0  0  0  0  0  0
   34.3090   30.2670   47.5790 C   0  0  0  0  0  0  0  0  0  0  0  0
   33.7100   29.0590   47.8860 C   0  0  0  0  0  0  0  0  0  0  0  0
   34.3860   28.1910   48.7380 C   0  0  0  0  0  0  0  0  0  0  0  0
   35.6010   28.5640   49.2280 N   0  0  0  0  0  0  0  0  0  0  0  0
   36.1450   29.7310   48.9100 C   0  0  0  0  0  0  0  0  0  0  0  0
   35.4900   30.5770   48.0840 N   0  0  0  0  0  0  0  0  0  0  0  0
   33.7380   30.9150   46.9070 H   0  0  0  0  0  0  0  0  0  0  0  0
   32.7480   28.7050   47.5300 H   0  0  0  0  0  0  0  0  0  0  0  0
   34.0630   27.2150   49.0780 H   0  0  0  0  0  0  0  0  0  0  0  0
   38.5750   30.5260   46.6660 C   0  0  0  0  0  3  0  0  0  0  0  0
   39.1510   30.5650   45.4720 C   0  0  0  0  0  3  0  0  0  0  0  0
   39.1820   29.6110   44.3540 C   0  0  0  0  0  0  0  0  0  0  0  0
   38.1600   29.1990   44.1960 H   0  0  0  0  0  0  0  0  0  0  0  0
   39.8230   28.7240   44.5290 H   0  0  0  0  0  0  0  0  0  0  0  0
   39.6270   30.2530   43.0850 C   0  0  0  0  0  0  0  0  0  0  0  0
   40.4800   29.7820   42.1480 N   0  0  0  0  0  0  0  0  0  0  0  0
   40.5740   30.7190   41.1770 C   0  0  0  0  0  0  0  0  0  0  0  0
   41.1080   30.8200   40.2420 H   0  0  0  0  0  0  0  0  0  0  0  0
   39.7750   31.7440   41.5410 N   0  0  0  0  0  0  0  0  0  0  0  0
   39.5380   32.6760   41.0980 H   0  0  0  0  0  0  0  0  0  0  0  0
   39.1940   31.4750   42.6960 N   0  0  0  0  0  0  0  0  0  0  0  0
  1 11  1  0  0  0  0
  1  2  1  0  0  0  0
  2  7  1  0  0  0  0
  3  2  2  0  0  0  0
  3  8  1  0  0  0  0
  4  3  1  0  0  0  0
  5  6  1  0  0  0  0
  5  4  2  0  0  0  0
  6  1  2  0  0  0  0
  9  4  1  0  0  0  0
 10  5  1  0  0  0  0
 11 12  2  0  0  0  0
 13 14  2  0  0  0  0
 13 18  1  0  0  0  0
 14 15  1  0  0  0  0
 15 21  1  0  0  0  0
 15 16  2  0  0  0  0
 17 16  1  0  0  0  0
 17 11  1  0  0  0  0
 18 17  2  0  0  0  0
 19 13  1  0  0  0  0
 20 14  1  0  0  0  0
 22  6  1  0  0  0  0
 23 22  2  0  0  0  0
 24 26  1  0  0  0  0
 24 23  1  0  0  0  0
 25 24  1  0  0  0  0
 27 24  1  0  0  0  0
 28 27  1  0  0  0  0
 29 31  1  0  0  0  0
 29 28  2  0  0  0  0
 30 29  1  0  0  0  0
 31 33  1  0  0  0  0
 32 31  1  0  0  0  0
 33 27  2  0  0  0  0
M  END
>  <minimizedAffinity>
-5.9726181

>  <minimizedRMSD>
1.63092804

$$$$
