
 OpenBabel03262523473D

 36 39  0  0  0  0  0  0  0  0999 V2000
   38.6850   32.9440   49.7740 Cl  0  0  0  0  0  0  0  0  0  0  0  0
   38.6540   32.2890   48.1600 C   0  0  0  0  0  0  0  0  0  0  0  0
   37.9030   31.1740   47.8770 C   0  0  0  0  0  0  0  0  0  0  0  0
   37.9100   30.6950   46.5880 C   0  0  0  0  0  0  0  0  0  0  0  0
   38.6370   31.2920   45.5880 C   0  0  0  0  0  0  0  0  0  0  0  0
   39.3970   32.4350   45.9090 C   0  0  0  0  0  0  0  0  0  0  0  0
   40.3060   33.1620   44.6140 Cl  0  0  0  0  0  0  0  0  0  0  0  0
   39.4080   32.9350   47.1970 C   0  0  0  0  0  0  0  0  0  0  0  0
   37.3020   29.8160   46.4230 H   0  0  0  0  0  0  0  0  0  0  0  0
   39.9890   33.8070   47.4390 H   0  0  0  0  0  0  0  0  0  0  0  0
   36.8690   32.6070   43.4960 Cl  0  0  0  0  0  0  0  0  0  0  0  0
   37.8150   31.1590   43.1950 C   0  0  0  0  0  0  0  0  0  0  0  0
   38.5670   30.6950   44.2650 C   0  0  0  0  0  0  0  0  0  0  0  0
   39.3430   29.5510   44.1020 C   0  0  0  0  0  0  0  0  0  0  0  0
   39.3800   28.8700   42.8980 C   0  0  0  0  0  0  0  0  0  0  0  0
   38.6260   29.3550   41.8600 C   0  0  0  0  0  0  0  0  0  0  0  0
   37.8390   30.4940   41.9870 C   0  0  0  0  0  0  0  0  0  0  0  0
   39.9450   29.1430   44.8910 H   0  0  0  0  0  0  0  0  0  0  0  0
   39.9760   27.9790   42.7460 H   0  0  0  0  0  0  0  0  0  0  0  0
   38.6200   28.8560   40.8940 H   0  0  0  0  0  0  0  0  0  0  0  0
   37.0270   31.0250   40.8880 C   0  0  0  0  0  0  0  0  0  0  0  0
   36.2180   32.0830   40.8220 N   0  0  0  0  0  0  0  0  0  0  0  0
   35.6680   32.1970   39.5970 C   0  0  0  0  0  0  0  0  0  0  0  0
   34.9780   32.9360   39.2260 H   0  0  0  0  0  0  0  0  0  0  0  0
   36.1800   31.1450   38.8940 N   0  0  0  0  0  0  0  0  0  0  0  0
   35.9790   30.8940   37.8820 H   0  0  0  0  0  0  0  0  0  0  0  0
   36.9910   30.4490   39.6730 N   0  0  0  0  0  0  0  0  0  0  0  0
   37.0350   29.3550   51.0880 C   0  0  0  0  0  0  0  0  0  0  0  0
   37.7730   29.9270   50.0440 C   0  0  0  0  0  0  0  0  0  0  0  0
   37.1360   30.5670   48.9860 C   0  0  0  0  0  0  0  0  0  0  0  0
   35.7760   30.6080   49.0130 N   0  0  0  0  0  0  0  0  0  0  0  0
   35.0900   30.0500   50.0310 C   0  0  0  0  0  0  0  0  0  0  0  0
   35.7010   29.4340   51.0510 N   0  0  0  0  0  0  0  0  0  0  0  0
   37.6920   28.8980   51.8300 H   0  0  0  0  0  0  0  0  0  0  0  0
   38.8490   29.9240   49.9700 H   0  0  0  0  0  0  0  0  0  0  0  0
   33.9920   30.0840   50.0520 H   0  0  0  0  0  0  0  0  0  0  0  0
  2  1  1  0  0  0  0
  3  2  1  0  0  0  0
  3 30  1  0  0  0  0
  4  3  2  0  0  0  0
  5  6  2  0  0  0  0
  5  4  1  0  0  0  0
  6  8  1  0  0  0  0
  7  6  1  0  0  0  0
  8 10  1  0  0  0  0
  8  2  2  0  0  0  0
  9  4  1  0  0  0  0
 12 11  1  0  0  0  0
 12 13  1  0  0  0  0
 13  5  1  0  0  0  0
 14 13  2  0  0  0  0
 14 18  1  0  0  0  0
 15 14  1  0  0  0  0
 16 17  1  0  0  0  0
 16 15  2  0  0  0  0
 17 12  2  0  0  0  0
 19 15  1  0  0  0  0
 20 16  1  0  0  0  0
 21 17  1  0  0  0  0
 22 21  1  0  0  0  0
 23 22  2  0  0  0  0
 24 23  1  0  0  0  0
 25 23  1  0  0  0  0
 25 27  1  0  0  0  0
 26 25  1  0  0  0  0
 27 21  2  0  0  0  0
 28 34  1  0  0  0  0
 29 28  2  0  0  0  0
 30 31  2  0  0  0  0
 30 29  1  0  0  0  0
 31 32  1  0  0  0  0
 32 36  1  0  0  0  0
 32 33  2  0  0  0  0
 33 28  1  0  0  0  0
 35 29  1  0  0  0  0
M  END
>  <minimizedAffinity>
-6.37458944

>  <minimizedRMSD>
0.105238281

$$$$
