
 OpenBabel03272509403D

 33 35  0  0  0  0  0  0  0  0999 V2000
   37.0430   30.9560   49.0800 C   0  0  0  0  0  0  0  0  0  0  0  0
   36.7810   31.8930   50.0840 C   0  0  0  0  0  0  0  0  0  0  0  0
   37.3930   33.1370   50.1130 C   0  0  0  0  0  0  0  0  0  0  0  0
   38.3050   33.4750   49.1060 C   0  0  0  0  0  0  0  0  0  0  0  0
   38.5500   32.5500   48.1320 C   0  0  0  0  0  0  0  0  0  0  0  0
   37.9270   31.3160   48.1270 C   0  0  0  0  0  0  0  0  0  0  0  0
   36.0700   31.6140   50.8590 H   0  0  0  0  0  0  0  0  0  0  0  0
   37.1200   33.7870   50.9340 H   0  0  0  0  0  0  0  0  0  0  0  0
   38.7600   34.4470   49.1580 H   0  0  0  0  0  0  0  0  0  0  0  0
   39.2670   32.8950   47.3960 H   0  0  0  0  0  0  0  0  0  0  0  0
   36.3570   29.6770   49.1300 C   0  0  0  0  0  0  0  0  0  0  0  0
   36.8850   28.8220   49.9270 O   0  0  0  0  0  0  0  0  0  0  0  0
   33.6030   30.1510   46.8220 C   0  0  0  0  0  0  0  0  0  0  0  0
   32.9410   28.9370   46.8220 C   0  0  0  0  0  0  0  0  0  0  0  0
   33.4400   27.9190   47.6300 C   0  0  0  0  0  0  0  0  0  0  0  0
   34.5510   28.1610   48.3800 N   0  0  0  0  0  0  0  0  0  0  0  0
   35.1590   29.3390   48.3550 C   0  0  0  0  0  0  0  0  0  0  0  0
   34.6770   30.3290   47.5710 N   0  0  0  0  0  0  0  0  0  0  0  0
   33.1720   30.9180   46.1720 H   0  0  0  0  0  0  0  0  0  0  0  0
   32.0560   28.6830   46.2490 H   0  0  0  0  0  0  0  0  0  0  0  0
   33.0470   26.9170   47.7480 H   0  0  0  0  0  0  0  0  0  0  0  0
   38.3020   30.4560   47.0250 C   0  0  0  0  0  3  0  0  0  0  0  0
   38.9130   30.8270   45.9080 C   0  0  0  0  0  3  0  0  0  0  0  0
   39.3550   30.0780   44.7230 C   0  0  0  0  0  0  0  0  0  0  0  0
   38.6270   29.2630   44.5130 H   0  0  0  0  0  0  0  0  0  0  0  0
   40.3300   29.5650   44.8450 H   0  0  0  0  0  0  0  0  0  0  0  0
   39.4440   30.9460   43.5160 C   0  0  0  0  0  0  0  0  0  0  0  0
   39.6900   30.5970   42.2330 N   0  0  0  0  0  0  0  0  0  0  0  0
   39.6730   31.7280   41.4930 C   0  0  0  0  0  0  0  0  0  0  0  0
   39.8100   31.9790   40.4510 H   0  0  0  0  0  0  0  0  0  0  0  0
   39.4180   32.7480   42.3390 N   0  0  0  0  0  0  0  0  0  0  0  0
   39.3150   33.7940   42.2110 H   0  0  0  0  0  0  0  0  0  0  0  0
   39.2770   32.2880   43.5700 N   0  0  0  0  0  0  0  0  0  0  0  0
  1 11  1  0  0  0  0
  1  2  1  0  0  0  0
  2  3  2  0  0  0  0
  2  7  1  0  0  0  0
  3  8  1  0  0  0  0
  4  9  1  0  0  0  0
  4  3  1  0  0  0  0
  5  4  2  0  0  0  0
  6  5  1  0  0  0  0
  6  1  2  0  0  0  0
 10  5  1  0  0  0  0
 11 12  2  0  0  0  0
 13 14  2  0  0  0  0
 13 18  1  0  0  0  0
 14 15  1  0  0  0  0
 15 21  1  0  0  0  0
 15 16  2  0  0  0  0
 17 16  1  0  0  0  0
 17 11  1  0  0  0  0
 18 17  2  0  0  0  0
 19 13  1  0  0  0  0
 20 14  1  0  0  0  0
 22  6  1  0  0  0  0
 23 22  2  0  0  0  0
 24 26  1  0  0  0  0
 24 23  1  0  0  0  0
 25 24  1  0  0  0  0
 27 33  2  0  0  0  0
 27 24  1  0  0  0  0
 28 27  1  0  0  0  0
 29 28  2  0  0  0  0
 29 31  1  0  0  0  0
 30 29  1  0  0  0  0
 31 33  1  0  0  0  0
 32 31  1  0  0  0  0
M  END
>  <minimizedAffinity>
-5.8159585

>  <minimizedRMSD>
1.48035765

$$$$
