
 OpenBabel03272510133D

 39 42  0  0  0  0  0  0  0  0999 V2000
   38.4130   31.3110   48.7080 C   0  0  0  0  0  0  0  0  0  0  0  0
   38.4340   32.5150   49.3750 C   0  0  0  0  0  0  0  0  0  0  0  0
   39.0150   33.4480   48.5090 C   0  0  0  0  0  0  0  0  0  0  0  0
   39.3150   32.7940   47.3820 N   0  0  0  0  0  0  0  0  0  0  0  0
   38.9600   31.5560   47.5120 N   0  0  0  0  0  0  0  0  0  0  0  0
   38.1250   32.8740   50.3470 H   0  0  0  0  0  0  0  0  0  0  0  0
   39.2110   34.5130   48.6610 H   0  0  0  0  0  0  0  0  0  0  0  0
   39.9330   33.3630   46.2190 C   0  0  0  0  0  0  0  0  0  0  0  0
   40.5730   34.2010   46.5560 H   0  0  0  0  0  0  0  0  0  0  0  0
   39.1760   33.8570   45.5450 H   0  0  0  0  0  0  0  0  0  0  0  0
   40.7080   32.3180   45.5040 C   0  0  0  0  0  0  0  0  0  0  0  0
   41.7810   32.6310   45.5400 H   0  0  0  0  0  0  0  0  0  0  0  0
   40.6920   31.4030   46.1710 H   0  0  0  0  0  0  0  0  0  0  0  0
   40.3460   31.9830   44.1480 C   0  0  0  0  0  0  0  0  0  0  0  0
   40.6810   30.7880   43.5790 N   0  0  0  0  0  0  0  0  0  0  0  0
   40.2300   30.7160   42.3190 C   0  0  0  0  0  0  0  0  0  0  0  0
   40.3300   29.9070   41.6070 H   0  0  0  0  0  0  0  0  0  0  0  0
   39.5970   31.8730   42.0720 N   0  0  0  0  0  0  0  0  0  0  0  0
   39.1100   32.2200   41.2240 H   0  0  0  0  0  0  0  0  0  0  0  0
   39.6770   32.6080   43.1620 N   0  0  0  0  0  0  0  0  0  0  0  0
   37.8680   30.2640   49.4220 O   0  0  0  0  0  0  0  0  0  0  0  0
   34.0710   28.8290   48.3180 C   0  0  0  0  0  0  0  0  0  0  0  0
   34.6910   28.3880   49.4450 C   0  0  0  0  0  0  0  0  0  0  0  0
   35.9250   28.8110   49.8640 C   0  0  0  0  0  0  0  0  0  0  0  0
   36.6190   29.7300   49.1470 C   0  0  0  0  0  0  0  0  0  0  0  0
   35.9970   30.1920   47.9870 C   0  0  0  0  0  0  0  0  0  0  0  0
   34.7790   29.7540   47.6020 N   0  0  0  0  0  0  0  0  0  0  0  0
   34.2090   27.6570   50.0740 H   0  0  0  0  0  0  0  0  0  0  0  0
   36.4110   28.4500   50.7690 H   0  0  0  0  0  0  0  0  0  0  0  0
   36.4730   30.9310   47.3420 H   0  0  0  0  0  0  0  0  0  0  0  0
   31.9170   27.6210   48.6410 C   0  0  0  0  0  0  0  0  0  0  0  0
   32.7840   28.3950   47.8660 C   0  0  0  0  0  0  0  0  0  0  0  0
   32.3500   28.7410   46.6050 C   0  0  0  0  0  0  0  0  0  0  0  0
   31.1220   28.3270   46.1690 N   0  0  0  0  0  0  0  0  0  0  0  0
   30.3220   27.5770   46.9640 C   0  0  0  0  0  0  0  0  0  0  0  0
   30.7040   27.2090   48.2150 N   0  0  0  0  0  0  0  0  0  0  0  0
   32.2130   27.3250   49.6360 H   0  0  0  0  0  0  0  0  0  0  0  0
   32.9950   29.3450   45.9680 H   0  0  0  0  0  0  0  0  0  0  0  0
   29.3710   27.3060   46.5130 H   0  0  0  0  0  0  0  0  0  0  0  0
  1  2  1  0  0  0  0
  1 21  1  0  0  0  0
  2  6  1  0  0  0  0
  3  7  1  0  0  0  0
  3  2  2  0  0  0  0
  4  5  1  0  0  0  0
  4  3  1  0  0  0  0
  5  1  2  0  0  0  0
  8  9  1  0  0  0  0
  8  4  1  0  0  0  0
 10  8  1  0  0  0  0
 11 12  1  0  0  0  0
 11 13  1  0  0  0  0
 11  8  1  0  0  0  0
 14 11  1  0  0  0  0
 15 14  1  0  0  0  0
 16 15  2  0  0  0  0
 17 16  1  0  0  0  0
 18 16  1  0  0  0  0
 18 20  1  0  0  0  0
 19 18  1  0  0  0  0
 20 14  2  0  0  0  0
 22 23  1  0  0  0  0
 23 24  2  0  0  0  0
 23 28  1  0  0  0  0
 24 29  1  0  0  0  0
 25 21  1  0  0  0  0
 25 24  1  0  0  0  0
 26 25  2  0  0  0  0
 27 26  1  0  0  0  0
 27 22  2  0  0  0  0
 30 26  1  0  0  0  0
 31 37  1  0  0  0  0
 32 22  1  0  0  0  0
 32 31  2  0  0  0  0
 33 32  1  0  0  0  0
 34 33  2  0  0  0  0
 34 35  1  0  0  0  0
 35 36  2  0  0  0  0
 36 31  1  0  0  0  0
 38 33  1  0  0  0  0
 39 35  1  0  0  0  0
M  END
>  <minimizedAffinity>
-6.16920471

>  <minimizedRMSD>
1.19407773

$$$$
