
 OpenBabel03272509193D

 31 33  0  0  0  0  0  0  0  0999 V2000
   37.8500   25.4570   34.0980 C   0  0  0  0  0  0  0  0  0  0  0  0
   37.8730   26.8020   33.7840 C   0  0  0  0  0  0  0  0  0  0  0  0
   38.1360   27.6400   34.8850 C   0  0  0  0  0  0  0  0  0  0  0  0
   38.3480   27.1290   36.1640 C   0  0  0  0  0  0  0  0  0  0  0  0
   38.3050   25.7580   36.3770 C   0  0  0  0  0  0  0  0  0  0  0  0
   38.0480   24.9070   35.3120 C   0  0  0  0  0  0  0  0  0  0  0  0
   38.1690   28.6930   34.7130 H   0  0  0  0  0  0  0  0  0  0  0  0
   38.5480   27.7990   36.9900 H   0  0  0  0  0  0  0  0  0  0  0  0
   38.4650   25.3230   37.3580 H   0  0  0  0  0  0  0  0  0  0  0  0
   36.3600   27.7160   32.0920 C   0  0  0  0  0  0  0  0  0  0  0  0
   37.6560   27.3310   32.4750 C   0  0  0  0  0  0  0  0  0  0  0  0
   38.6960   27.4810   31.5550 C   0  0  0  0  0  0  0  0  0  0  0  0
   38.3820   27.9970   30.3320 N   0  0  0  0  0  0  0  0  0  0  0  0
   37.1320   28.3560   29.9920 C   0  0  0  0  0  0  0  0  0  0  0  0
   36.1300   28.2180   30.8640 N   0  0  0  0  0  0  0  0  0  0  0  0
   35.5410   27.6040   32.8000 H   0  0  0  0  0  0  0  0  0  0  0  0
   37.0010   28.7520   28.9980 H   0  0  0  0  0  0  0  0  0  0  0  0
   40.0760   27.0880   31.9160 C   0  0  0  0  0  0  0  0  0  0  0  0
   40.8600   27.7230   31.4500 H   0  0  0  0  0  0  0  0  0  0  0  0
   40.1380   27.0660   33.0320 H   0  0  0  0  0  0  0  0  0  0  0  0
   40.1820   26.0170   31.6080 H   0  0  0  0  0  0  0  0  0  0  0  0
   37.5950   24.5460   33.0630 O   0  0  0  0  0  0  0  0  0  0  0  0
   38.1400   24.4830   32.2160 H   0  0  0  0  0  0  0  0  0  0  0  0
   38.0080   23.5300   35.5480 O   0  0  0  0  0  0  0  0  0  0  0  0
   38.9980   23.0290   36.3820 C   0  0  0  0  0  0  0  0  0  0  0  0
   40.2360   22.5820   36.1010 N   0  0  0  0  0  0  0  0  0  0  0  0
   40.8030   22.2040   37.2620 C   0  0  0  0  0  0  0  0  0  0  0  0
   41.8030   21.7980   37.3630 H   0  0  0  0  0  0  0  0  0  0  0  0
   39.9220   22.4140   38.2550 N   0  0  0  0  0  0  0  0  0  0  0  0
   40.0810   22.2140   39.2690 H   0  0  0  0  0  0  0  0  0  0  0  0
   38.8400   22.9130   37.6970 N   0  0  0  0  0  0  0  0  0  0  0  0
  1  6  1  0  0  0  0
  2  1  2  0  0  0  0
  2  3  1  0  0  0  0
  3  4  2  0  0  0  0
  4  5  1  0  0  0  0
  4  8  1  0  0  0  0
  5  9  1  0  0  0  0
  6 24  1  0  0  0  0
  6  5  2  0  0  0  0
  7  3  1  0  0  0  0
 10 11  1  0  0  0  0
 10 16  1  0  0  0  0
 11  2  1  0  0  0  0
 12 18  1  0  0  0  0
 12 11  2  0  0  0  0
 13 12  1  0  0  0  0
 14 13  2  0  0  0  0
 14 15  1  0  0  0  0
 15 10  2  0  0  0  0
 17 14  1  0  0  0  0
 18 20  1  0  0  0  0
 19 18  1  0  0  0  0
 21 18  1  0  0  0  0
 22  1  1  0  0  0  0
 23 22  1  0  0  0  0
 24 25  1  0  0  0  0
 25 31  2  0  0  0  0
 26 25  1  0  0  0  0
 26 27  2  0  0  0  0
 27 28  1  0  0  0  0
 27 29  1  0  0  0  0
 29 30  1  0  0  0  0
 31 29  1  0  0  0  0
M  END
>  <minimizedAffinity>
-5.55177784

$$$$

 OpenBabel03272509193D

 31 33  0  0  0  0  0  0  0  0999 V2000
   38.9630   25.2370   33.9650 C   0  0  0  0  0  0  0  0  0  0  0  0
   39.0760   26.4940   33.4030 C   0  0  0  0  0  0  0  0  0  0  0  0
   40.3010   27.1340   33.6770 C   0  0  0  0  0  0  0  0  0  0  0  0
   41.2890   26.5290   34.4520 C   0  0  0  0  0  0  0  0  0  0  0  0
   41.0790   25.2600   34.9730 C   0  0  0  0  0  0  0  0  0  0  0  0
   39.8830   24.6040   34.7190 C   0  0  0  0  0  0  0  0  0  0  0  0
   40.4540   28.1090   33.2720 H   0  0  0  0  0  0  0  0  0  0  0  0
   42.2200   27.0460   34.6450 H   0  0  0  0  0  0  0  0  0  0  0  0
   41.8240   24.7570   35.5800 H   0  0  0  0  0  0  0  0  0  0  0  0
   38.1490   27.0500   31.2070 C   0  0  0  0  0  0  0  0  0  0  0  0
   38.0660   27.1190   32.6090 C   0  0  0  0  0  0  0  0  0  0  0  0
   36.9920   27.8020   33.1820 C   0  0  0  0  0  0  0  0  0  0  0  0
   36.0820   28.3640   32.3340 N   0  0  0  0  0  0  0  0  0  0  0  0
   36.1860   28.2830   30.9960 C   0  0  0  0  0  0  0  0  0  0  0  0
   37.2090   27.6310   30.4380 N   0  0  0  0  0  0  0  0  0  0  0  0
   38.9810   26.5200   30.7490 H   0  0  0  0  0  0  0  0  0  0  0  0
   35.4090   28.7650   30.4250 H   0  0  0  0  0  0  0  0  0  0  0  0
   36.8660   27.9010   34.6530 C   0  0  0  0  0  0  0  0  0  0  0  0
   35.8160   27.9050   35.0140 H   0  0  0  0  0  0  0  0  0  0  0  0
   37.4790   27.0780   35.0980 H   0  0  0  0  0  0  0  0  0  0  0  0
   37.4030   28.8390   34.9450 H   0  0  0  0  0  0  0  0  0  0  0  0
   37.7760   24.5240   33.7450 O   0  0  0  0  0  0  0  0  0  0  0  0
   37.4100   24.3020   32.8310 H   0  0  0  0  0  0  0  0  0  0  0  0
   39.6910   23.3270   35.2540 O   0  0  0  0  0  0  0  0  0  0  0  0
   39.1490   23.2810   36.5320 C   0  0  0  0  0  0  0  0  0  0  0  0
   37.9450   23.6720   36.9870 N   0  0  0  0  0  0  0  0  0  0  0  0
   37.9070   23.4130   38.3070 C   0  0  0  0  0  0  0  0  0  0  0  0
   37.0640   23.6180   38.9570 H   0  0  0  0  0  0  0  0  0  0  0  0
   39.0800   22.8650   38.6680 N   0  0  0  0  0  0  0  0  0  0  0  0
   39.3430   22.5580   39.6320 H   0  0  0  0  0  0  0  0  0  0  0  0
   39.8120   22.7950   37.5770 N   0  0  0  0  0  0  0  0  0  0  0  0
  1  6  1  0  0  0  0
  2  3  1  0  0  0  0
  2  1  2  0  0  0  0
  3  4  2  0  0  0  0
  4  8  1  0  0  0  0
  4  5  1  0  0  0  0
  5  9  1  0  0  0  0
  6  5  2  0  0  0  0
  6 24  1  0  0  0  0
  7  3  1  0  0  0  0
 10 11  1  0  0  0  0
 11 12  2  0  0  0  0
 11  2  1  0  0  0  0
 12 18  1  0  0  0  0
 13 12  1  0  0  0  0
 14 13  2  0  0  0  0
 15 14  1  0  0  0  0
 15 10  2  0  0  0  0
 16 10  1  0  0  0  0
 17 14  1  0  0  0  0
 18 21  1  0  0  0  0
 18 19  1  0  0  0  0
 18 20  1  0  0  0  0
 22  1  1  0  0  0  0
 23 22  1  0  0  0  0
 24 25  1  0  0  0  0
 25 26  1  0  0  0  0
 25 31  2  0  0  0  0
 26 27  2  0  0  0  0
 27 29  1  0  0  0  0
 27 28  1  0  0  0  0
 29 30  1  0  0  0  0
 31 29  1  0  0  0  0
M  END
>  <minimizedAffinity>
-5.48226643

$$$$

 OpenBabel03272509193D

 31 33  0  0  0  0  0  0  0  0999 V2000
   38.0260   25.1500   34.2480 C   0  0  0  0  0  0  0  0  0  0  0  0
   38.7470   25.2650   35.4210 C   0  0  0  0  0  0  0  0  0  0  0  0
   38.6460   26.5310   36.0310 C   0  0  0  0  0  0  0  0  0  0  0  0
   37.8820   27.5560   35.4750 C   0  0  0  0  0  0  0  0  0  0  0  0
   37.1920   27.3400   34.2910 C   0  0  0  0  0  0  0  0  0  0  0  0
   37.2710   26.1040   33.6670 C   0  0  0  0  0  0  0  0  0  0  0  0
   39.1790   26.6880   36.9420 H   0  0  0  0  0  0  0  0  0  0  0  0
   37.8240   28.5180   35.9680 H   0  0  0  0  0  0  0  0  0  0  0  0
   36.5870   28.1130   33.8290 H   0  0  0  0  0  0  0  0  0  0  0  0
   40.8270   23.9790   35.5020 C   0  0  0  0  0  0  0  0  0  0  0  0
   39.5330   24.2190   35.9940 C   0  0  0  0  0  0  0  0  0  0  0  0
   39.0540   23.4190   37.0340 C   0  0  0  0  0  0  0  0  0  0  0  0
   39.8840   22.4470   37.5100 N   0  0  0  0  0  0  0  0  0  0  0  0
   41.1200   22.2390   37.0210 C   0  0  0  0  0  0  0  0  0  0  0  0
   41.5870   22.9980   36.0260 N   0  0  0  0  0  0  0  0  0  0  0  0
   41.2110   24.5950   34.6920 H   0  0  0  0  0  0  0  0  0  0  0  0
   41.6860   21.4420   37.4740 H   0  0  0  0  0  0  0  0  0  0  0  0
   37.6970   23.6360   37.5820 C   0  0  0  0  0  0  0  0  0  0  0  0
   37.6130   23.4270   38.6700 H   0  0  0  0  0  0  0  0  0  0  0  0
   37.3880   24.6760   37.3110 H   0  0  0  0  0  0  0  0  0  0  0  0
   37.0160   22.9770   36.9850 H   0  0  0  0  0  0  0  0  0  0  0  0
   38.0680   23.9240   33.5700 O   0  0  0  0  0  0  0  0  0  0  0  0
   37.8070   23.0400   33.9820 H   0  0  0  0  0  0  0  0  0  0  0  0
   36.5700   25.9070   32.4740 O   0  0  0  0  0  0  0  0  0  0  0  0
   36.9700   26.6910   31.4000 C   0  0  0  0  0  0  0  0  0  0  0  0
   38.1970   26.9410   30.9070 N   0  0  0  0  0  0  0  0  0  0  0  0
   38.0490   27.7660   29.8530 C   0  0  0  0  0  0  0  0  0  0  0  0
   38.8610   28.1490   29.2450 H   0  0  0  0  0  0  0  0  0  0  0  0
   36.7400   28.0250   29.6950 N   0  0  0  0  0  0  0  0  0  0  0  0
   36.3210   28.6350   28.9570 H   0  0  0  0  0  0  0  0  0  0  0  0
   36.1090   27.3630   30.6410 N   0  0  0  0  0  0  0  0  0  0  0  0
  1  2  1  0  0  0  0
  2 11  1  0  0  0  0
  2  3  2  0  0  0  0
  3  7  1  0  0  0  0
  4  8  1  0  0  0  0
  4  3  1  0  0  0  0
  5  4  2  0  0  0  0
  6  1  2  0  0  0  0
  6  5  1  0  0  0  0
  9  5  1  0  0  0  0
 10 11  2  0  0  0  0
 10 15  1  0  0  0  0
 11 12  1  0  0  0  0
 12 13  2  0  0  0  0
 12 18  1  0  0  0  0
 14 17  1  0  0  0  0
 14 13  1  0  0  0  0
 15 14  2  0  0  0  0
 16 10  1  0  0  0  0
 18 19  1  0  0  0  0
 20 18  1  0  0  0  0
 21 18  1  0  0  0  0
 22 23  1  0  0  0  0
 22  1  1  0  0  0  0
 24  6  1  0  0  0  0
 25 24  1  0  0  0  0
 26 25  1  0  0  0  0
 27 26  2  0  0  0  0
 28 27  1  0  0  0  0
 29 27  1  0  0  0  0
 29 31  1  0  0  0  0
 30 29  1  0  0  0  0
 31 25  2  0  0  0  0
M  END
>  <minimizedAffinity>
-5.42932224

$$$$

 OpenBabel03272509193D

 31 33  0  0  0  0  0  0  0  0999 V2000
   38.9780   25.2440   34.0370 C   0  0  0  0  0  0  0  0  0  0  0  0
   39.0390   26.5000   33.4670 C   0  0  0  0  0  0  0  0  0  0  0  0
   40.2630   27.1650   33.6770 C   0  0  0  0  0  0  0  0  0  0  0  0
   41.3010   26.5800   34.4020 C   0  0  0  0  0  0  0  0  0  0  0  0
   41.1420   25.3100   34.9360 C   0  0  0  0  0  0  0  0  0  0  0  0
   39.9480   24.6300   34.7440 C   0  0  0  0  0  0  0  0  0  0  0  0
   40.3770   28.1410   33.2630 H   0  0  0  0  0  0  0  0  0  0  0  0
   42.2300   27.1160   34.5460 H   0  0  0  0  0  0  0  0  0  0  0  0
   41.9270   24.8230   35.5050 H   0  0  0  0  0  0  0  0  0  0  0  0
   36.9950   27.8440   33.4020 C   0  0  0  0  0  0  0  0  0  0  0  0
   37.9780   27.1040   32.7240 C   0  0  0  0  0  0  0  0  0  0  0  0
   37.8840   26.9820   31.3360 C   0  0  0  0  0  0  0  0  0  0  0  0
   36.8320   27.5970   30.7220 N   0  0  0  0  0  0  0  0  0  0  0  0
   35.9040   28.3000   31.3960 C   0  0  0  0  0  0  0  0  0  0  0  0
   35.9860   28.4230   32.7230 N   0  0  0  0  0  0  0  0  0  0  0  0
   37.0570   27.9470   34.4830 H   0  0  0  0  0  0  0  0  0  0  0  0
   35.1180   28.7420   30.8070 H   0  0  0  0  0  0  0  0  0  0  0  0
   38.8970   26.2110   30.5820 C   0  0  0  0  0  0  0  0  0  0  0  0
   39.1050   26.6140   29.5670 H   0  0  0  0  0  0  0  0  0  0  0  0
   39.8120   26.1430   31.2210 H   0  0  0  0  0  0  0  0  0  0  0  0
   38.5100   25.1610   30.5330 H   0  0  0  0  0  0  0  0  0  0  0  0
   37.7960   24.5080   33.8790 O   0  0  0  0  0  0  0  0  0  0  0  0
   37.3880   24.2760   32.9850 H   0  0  0  0  0  0  0  0  0  0  0  0
   39.8070   23.3520   35.2910 O   0  0  0  0  0  0  0  0  0  0  0  0
   39.2710   23.2960   36.5700 C   0  0  0  0  0  0  0  0  0  0  0  0
   38.0880   23.7280   37.0440 N   0  0  0  0  0  0  0  0  0  0  0  0
   38.0450   23.4350   38.3570 C   0  0  0  0  0  0  0  0  0  0  0  0
   37.2170   23.6610   39.0180 H   0  0  0  0  0  0  0  0  0  0  0  0
   39.1940   22.8260   38.6950 N   0  0  0  0  0  0  0  0  0  0  0  0
   39.4490   22.4810   39.6490 H   0  0  0  0  0  0  0  0  0  0  0  0
   39.9170   22.7520   37.5980 N   0  0  0  0  0  0  0  0  0  0  0  0
  1  6  1  0  0  0  0
  2  3  1  0  0  0  0
  2  1  2  0  0  0  0
  3  4  2  0  0  0  0
  4  8  1  0  0  0  0
  4  5  1  0  0  0  0
  5  9  1  0  0  0  0
  6  5  2  0  0  0  0
  6 24  1  0  0  0  0
  7  3  1  0  0  0  0
 10 16  1  0  0  0  0
 11 10  1  0  0  0  0
 11  2  1  0  0  0  0
 12 11  2  0  0  0  0
 13 12  1  0  0  0  0
 13 14  2  0  0  0  0
 14 15  1  0  0  0  0
 15 10  2  0  0  0  0
 17 14  1  0  0  0  0
 18 20  1  0  0  0  0
 18 12  1  0  0  0  0
 19 18  1  0  0  0  0
 21 18  1  0  0  0  0
 22  1  1  0  0  0  0
 23 22  1  0  0  0  0
 24 25  1  0  0  0  0
 25 26  1  0  0  0  0
 25 31  2  0  0  0  0
 26 27  2  0  0  0  0
 27 29  1  0  0  0  0
 27 28  1  0  0  0  0
 29 30  1  0  0  0  0
 31 29  1  0  0  0  0
M  END
>  <minimizedAffinity>
-5.23931599

$$$$

 OpenBabel03272509193D

 31 33  0  0  0  0  0  0  0  0999 V2000
   38.0350   25.2550   34.1800 C   0  0  0  0  0  0  0  0  0  0  0  0
   38.7720   25.3480   35.3450 C   0  0  0  0  0  0  0  0  0  0  0  0
   38.6540   26.5920   35.9970 C   0  0  0  0  0  0  0  0  0  0  0  0
   37.8600   27.6170   35.4870 C   0  0  0  0  0  0  0  0  0  0  0  0
   37.1560   27.4250   34.3060 C   0  0  0  0  0  0  0  0  0  0  0  0
   37.2520   26.2110   33.6420 C   0  0  0  0  0  0  0  0  0  0  0  0
   39.1980   26.7310   36.9050 H   0  0  0  0  0  0  0  0  0  0  0  0
   37.7890   28.5610   36.0110 H   0  0  0  0  0  0  0  0  0  0  0  0
   36.5280   28.1990   33.8780 H   0  0  0  0  0  0  0  0  0  0  0  0
   39.0600   23.4390   36.8480 C   0  0  0  0  0  0  0  0  0  0  0  0
   39.5880   24.3010   35.8720 C   0  0  0  0  0  0  0  0  0  0  0  0
   40.9040   24.1040   35.4490 C   0  0  0  0  0  0  0  0  0  0  0  0
   41.5980   23.0760   36.0150 N   0  0  0  0  0  0  0  0  0  0  0  0
   41.0670   22.2650   36.9480 C   0  0  0  0  0  0  0  0  0  0  0  0
   39.8090   22.4440   37.3600 N   0  0  0  0  0  0  0  0  0  0  0  0
   38.0350   23.5820   37.1860 H   0  0  0  0  0  0  0  0  0  0  0  0
   41.7080   21.4850   37.3260 H   0  0  0  0  0  0  0  0  0  0  0  0
   41.5010   24.9890   34.4240 C   0  0  0  0  0  0  0  0  0  0  0  0
   42.2270   24.4780   33.7570 H   0  0  0  0  0  0  0  0  0  0  0  0
   40.6610   25.4730   33.8680 H   0  0  0  0  0  0  0  0  0  0  0  0
   41.9840   25.8280   34.9870 H   0  0  0  0  0  0  0  0  0  0  0  0
   38.0920   24.0530   33.4630 O   0  0  0  0  0  0  0  0  0  0  0  0
   37.8570   23.1510   33.8490 H   0  0  0  0  0  0  0  0  0  0  0  0
   36.5360   26.0370   32.4540 O   0  0  0  0  0  0  0  0  0  0  0  0
   36.9740   26.7840   31.3680 C   0  0  0  0  0  0  0  0  0  0  0  0
   38.2160   27.0040   30.9000 N   0  0  0  0  0  0  0  0  0  0  0  0
   38.1070   27.7990   29.8200 C   0  0  0  0  0  0  0  0  0  0  0  0
   38.9390   28.1540   29.2220 H   0  0  0  0  0  0  0  0  0  0  0  0
   36.8060   28.0710   29.6200 N   0  0  0  0  0  0  0  0  0  0  0  0
   36.4140   28.6650   28.8550 H   0  0  0  0  0  0  0  0  0  0  0  0
   36.1420   27.4460   30.5680 N   0  0  0  0  0  0  0  0  0  0  0  0
  1  2  1  0  0  0  0
  2 11  1  0  0  0  0
  2  3  2  0  0  0  0
  3  7  1  0  0  0  0
  4  3  1  0  0  0  0
  4  8  1  0  0  0  0
  5  4  2  0  0  0  0
  6  1  2  0  0  0  0
  6  5  1  0  0  0  0
  9  5  1  0  0  0  0
 10 16  1  0  0  0  0
 10 15  1  0  0  0  0
 11 10  2  0  0  0  0
 12 11  1  0  0  0  0
 12 13  2  0  0  0  0
 13 14  1  0  0  0  0
 14 17  1  0  0  0  0
 14 15  2  0  0  0  0
 18 21  1  0  0  0  0
 18 12  1  0  0  0  0
 19 18  1  0  0  0  0
 20 18  1  0  0  0  0
 22 23  1  0  0  0  0
 22  1  1  0  0  0  0
 24  6  1  0  0  0  0
 25 24  1  0  0  0  0
 26 25  1  0  0  0  0
 27 26  2  0  0  0  0
 28 27  1  0  0  0  0
 29 27  1  0  0  0  0
 29 31  1  0  0  0  0
 30 29  1  0  0  0  0
 31 25  2  0  0  0  0
M  END
>  <minimizedAffinity>
-5.13634825

$$$$

 OpenBabel03272509193D

 31 33  0  0  0  0  0  0  0  0999 V2000
   33.7850   29.8760   34.0730 C   0  0  0  0  0  0  0  0  0  0  0  0
   35.1330   30.0910   33.8610 C   0  0  0  0  0  0  0  0  0  0  0  0
   35.7430   30.9020   34.8380 C   0  0  0  0  0  0  0  0  0  0  0  0
   35.0230   31.4270   35.9110 C   0  0  0  0  0  0  0  0  0  0  0  0
   33.6690   31.1510   36.0360 C   0  0  0  0  0  0  0  0  0  0  0  0
   33.0410   30.3550   35.0890 C   0  0  0  0  0  0  0  0  0  0  0  0
   36.7840   31.1080   34.7350 H   0  0  0  0  0  0  0  0  0  0  0  0
   35.5200   32.0460   36.6460 H   0  0  0  0  0  0  0  0  0  0  0  0
   33.0760   31.5420   36.8560 H   0  0  0  0  0  0  0  0  0  0  0  0
   35.8470   30.2170   31.5230 C   0  0  0  0  0  0  0  0  0  0  0  0
   35.8750   29.5560   32.7630 C   0  0  0  0  0  0  0  0  0  0  0  0
   36.6330   28.3900   32.8810 C   0  0  0  0  0  0  0  0  0  0  0  0
   37.3050   27.9630   31.7730 N   0  0  0  0  0  0  0  0  0  0  0  0
   37.2600   28.6160   30.5970 C   0  0  0  0  0  0  0  0  0  0  0  0
   36.5380   29.7330   30.4740 N   0  0  0  0  0  0  0  0  0  0  0  0
   35.2600   31.1280   31.4190 H   0  0  0  0  0  0  0  0  0  0  0  0
   37.8300   28.1870   29.7890 H   0  0  0  0  0  0  0  0  0  0  0  0
   36.6910   27.6610   34.1670 C   0  0  0  0  0  0  0  0  0  0  0  0
   37.6670   27.1670   34.3600 H   0  0  0  0  0  0  0  0  0  0  0  0
   36.3960   28.3780   34.9730 H   0  0  0  0  0  0  0  0  0  0  0  0
   35.8550   26.9160   34.1360 H   0  0  0  0  0  0  0  0  0  0  0  0
   33.0950   29.0800   33.1490 O   0  0  0  0  0  0  0  0  0  0  0  0
   33.3520   28.1330   32.9130 H   0  0  0  0  0  0  0  0  0  0  0  0
   31.6760   30.0900   35.2330 O   0  0  0  0  0  0  0  0  0  0  0  0
   31.3510   28.8260   35.7050 C   0  0  0  0  0  0  0  0  0  0  0  0
   31.4840   28.2880   36.9320 N   0  0  0  0  0  0  0  0  0  0  0  0
   31.0190   27.0270   36.8740 C   0  0  0  0  0  0  0  0  0  0  0  0
   30.9930   26.3340   37.7070 H   0  0  0  0  0  0  0  0  0  0  0  0
   30.6010   26.7840   35.6190 N   0  0  0  0  0  0  0  0  0  0  0  0
   30.1900   25.8870   35.2730 H   0  0  0  0  0  0  0  0  0  0  0  0
   30.8120   27.8860   34.9340 N   0  0  0  0  0  0  0  0  0  0  0  0
  1  6  1  0  0  0  0
  2  1  2  0  0  0  0
  2  3  1  0  0  0  0
  3  4  2  0  0  0  0
  4  5  1  0  0  0  0
  4  8  1  0  0  0  0
  5  9  1  0  0  0  0
  6 24  1  0  0  0  0
  6  5  2  0  0  0  0
  7  3  1  0  0  0  0
 10 11  1  0  0  0  0
 11 12  2  0  0  0  0
 11  2  1  0  0  0  0
 12 18  1  0  0  0  0
 13 12  1  0  0  0  0
 14 13  2  0  0  0  0
 15 14  1  0  0  0  0
 15 10  2  0  0  0  0
 16 10  1  0  0  0  0
 17 14  1  0  0  0  0
 18 19  1  0  0  0  0
 18 20  1  0  0  0  0
 21 18  1  0  0  0  0
 22  1  1  0  0  0  0
 23 22  1  0  0  0  0
 24 25  1  0  0  0  0
 25 26  1  0  0  0  0
 27 26  2  0  0  0  0
 27 28  1  0  0  0  0
 29 27  1  0  0  0  0
 30 29  1  0  0  0  0
 31 29  1  0  0  0  0
 31 25  2  0  0  0  0
M  END
>  <minimizedAffinity>
-4.98967934

$$$$

 OpenBabel03272509193D

 31 33  0  0  0  0  0  0  0  0999 V2000
   38.0790   24.6860   33.7970 C   0  0  0  0  0  0  0  0  0  0  0  0
   37.8780   26.0510   33.7520 C   0  0  0  0  0  0  0  0  0  0  0  0
   37.8840   26.6710   35.0180 C   0  0  0  0  0  0  0  0  0  0  0  0
   38.0760   25.9430   36.1910 C   0  0  0  0  0  0  0  0  0  0  0  0
   38.2700   24.5710   36.1300 C   0  0  0  0  0  0  0  0  0  0  0  0
   38.2700   23.9330   34.8980 C   0  0  0  0  0  0  0  0  0  0  0  0
   37.7350   27.7270   35.0550 H   0  0  0  0  0  0  0  0  0  0  0  0
   38.0750   26.4480   37.1480 H   0  0  0  0  0  0  0  0  0  0  0  0
   38.4220   23.9710   37.0210 H   0  0  0  0  0  0  0  0  0  0  0  0
   36.3750   27.0090   32.0740 C   0  0  0  0  0  0  0  0  0  0  0  0
   37.6810   26.8020   32.5520 C   0  0  0  0  0  0  0  0  0  0  0  0
   38.7490   27.3410   31.8320 C   0  0  0  0  0  0  0  0  0  0  0  0
   38.4520   28.0410   30.7000 N   0  0  0  0  0  0  0  0  0  0  0  0
   37.1920   28.2230   30.2650 C   0  0  0  0  0  0  0  0  0  0  0  0
   36.1640   27.7130   30.9470 N   0  0  0  0  0  0  0  0  0  0  0  0
   35.5350   26.5930   32.6270 H   0  0  0  0  0  0  0  0  0  0  0  0
   37.0770   28.7930   29.3580 H   0  0  0  0  0  0  0  0  0  0  0  0
   40.1400   27.1460   32.2980 C   0  0  0  0  0  0  0  0  0  0  0  0
   40.8110   28.0030   32.0760 H   0  0  0  0  0  0  0  0  0  0  0  0
   40.0970   26.8950   33.3870 H   0  0  0  0  0  0  0  0  0  0  0  0
   40.5000   26.2070   31.8080 H   0  0  0  0  0  0  0  0  0  0  0  0
   38.0880   23.9840   32.5830 O   0  0  0  0  0  0  0  0  0  0  0  0
   38.7070   24.1920   31.8140 H   0  0  0  0  0  0  0  0  0  0  0  0
   38.4660   22.5490   34.8580 O   0  0  0  0  0  0  0  0  0  0  0  0
   37.3190   21.7780   34.7290 C   0  0  0  0  0  0  0  0  0  0  0  0
   36.7050   21.2990   33.6320 N   0  0  0  0  0  0  0  0  0  0  0  0
   35.6250   20.6070   34.0420 C   0  0  0  0  0  0  0  0  0  0  0  0
   34.9260   20.1000   33.3880 H   0  0  0  0  0  0  0  0  0  0  0  0
   35.5710   20.6570   35.3840 N   0  0  0  0  0  0  0  0  0  0  0  0
   34.8420   20.2110   35.9860 H   0  0  0  0  0  0  0  0  0  0  0  0
   36.6060   21.3700   35.7750 N   0  0  0  0  0  0  0  0  0  0  0  0
  1  6  1  0  0  0  0
  2  1  2  0  0  0  0
  2  3  1  0  0  0  0
  3  7  1  0  0  0  0
  3  4  2  0  0  0  0
  4  8  1  0  0  0  0
  5  4  1  0  0  0  0
  5  9  1  0  0  0  0
  6  5  2  0  0  0  0
 10 11  1  0  0  0  0
 10 16  1  0  0  0  0
 11  2  1  0  0  0  0
 12 18  1  0  0  0  0
 12 11  2  0  0  0  0
 13 12  1  0  0  0  0
 14 13  2  0  0  0  0
 14 15  1  0  0  0  0
 15 10  2  0  0  0  0
 17 14  1  0  0  0  0
 18 20  1  0  0  0  0
 19 18  1  0  0  0  0
 21 18  1  0  0  0  0
 22  1  1  0  0  0  0
 23 22  1  0  0  0  0
 24  6  1  0  0  0  0
 25 24  1  0  0  0  0
 25 31  2  0  0  0  0
 26 27  2  0  0  0  0
 26 25  1  0  0  0  0
 27 29  1  0  0  0  0
 28 27  1  0  0  0  0
 29 31  1  0  0  0  0
 29 30  1  0  0  0  0
M  END
>  <minimizedAffinity>
-4.96505642

$$$$

 OpenBabel03272509193D

 31 33  0  0  0  0  0  0  0  0999 V2000
   35.7710   29.2810   33.4750 C   0  0  0  0  0  0  0  0  0  0  0  0
   34.9470   30.3710   33.6780 C   0  0  0  0  0  0  0  0  0  0  0  0
   34.7750   31.1780   32.5360 C   0  0  0  0  0  0  0  0  0  0  0  0
   35.3960   30.8780   31.3250 C   0  0  0  0  0  0  0  0  0  0  0  0
   36.2070   29.7570   31.2210 C   0  0  0  0  0  0  0  0  0  0  0  0
   36.3950   28.9430   32.3290 C   0  0  0  0  0  0  0  0  0  0  0  0
   34.1500   32.0380   32.6240 H   0  0  0  0  0  0  0  0  0  0  0  0
   35.2450   31.5180   30.4650 H   0  0  0  0  0  0  0  0  0  0  0  0
   36.7060   29.4920   30.2960 H   0  0  0  0  0  0  0  0  0  0  0  0
   33.0500   30.1280   35.2050 C   0  0  0  0  0  0  0  0  0  0  0  0
   34.3090   30.6830   34.9180 C   0  0  0  0  0  0  0  0  0  0  0  0
   34.8980   31.5280   35.8610 C   0  0  0  0  0  0  0  0  0  0  0  0
   34.2050   31.7620   37.0120 N   0  0  0  0  0  0  0  0  0  0  0  0
   33.0000   31.2180   37.2620 C   0  0  0  0  0  0  0  0  0  0  0  0
   32.4290   30.4070   36.3670 N   0  0  0  0  0  0  0  0  0  0  0  0
   32.5810   29.4680   34.4780 H   0  0  0  0  0  0  0  0  0  0  0  0
   32.5460   31.4730   38.2050 H   0  0  0  0  0  0  0  0  0  0  0  0
   36.2210   32.1360   35.5990 C   0  0  0  0  0  0  0  0  0  0  0  0
   36.8420   32.2700   36.5110 H   0  0  0  0  0  0  0  0  0  0  0  0
   36.7250   31.5180   34.8150 H   0  0  0  0  0  0  0  0  0  0  0  0
   36.0160   33.1140   35.0960 H   0  0  0  0  0  0  0  0  0  0  0  0
   36.0000   28.4210   34.5570 O   0  0  0  0  0  0  0  0  0  0  0  0
   35.2700   27.9510   35.0720 H   0  0  0  0  0  0  0  0  0  0  0  0
   37.2160   27.8190   32.2050 O   0  0  0  0  0  0  0  0  0  0  0  0
   36.6270   26.7000   31.6310 C   0  0  0  0  0  0  0  0  0  0  0  0
   35.3320   26.3930   31.4380 N   0  0  0  0  0  0  0  0  0  0  0  0
   35.2850   25.1890   30.8380 C   0  0  0  0  0  0  0  0  0  0  0  0
   34.3770   24.6710   30.5530 H   0  0  0  0  0  0  0  0  0  0  0  0
   36.5440   24.7520   30.6600 N   0  0  0  0  0  0  0  0  0  0  0  0
   36.8220   23.8470   30.2180 H   0  0  0  0  0  0  0  0  0  0  0  0
   37.3360   25.6830   31.1470 N   0  0  0  0  0  0  0  0  0  0  0  0
  1  2  1  0  0  0  0
  1 22  1  0  0  0  0
  2 11  1  0  0  0  0
  3  7  1  0  0  0  0
  3  2  2  0  0  0  0
  4  3  1  0  0  0  0
  5  4  2  0  0  0  0
  5  6  1  0  0  0  0
  6  1  2  0  0  0  0
  8  4  1  0  0  0  0
  9  5  1  0  0  0  0
 10 15  1  0  0  0  0
 11 10  2  0  0  0  0
 11 12  1  0  0  0  0
 12 13  2  0  0  0  0
 13 14  1  0  0  0  0
 14 17  1  0  0  0  0
 15 14  2  0  0  0  0
 16 10  1  0  0  0  0
 18 12  1  0  0  0  0
 18 19  1  0  0  0  0
 20 18  1  0  0  0  0
 21 18  1  0  0  0  0
 22 23  1  0  0  0  0
 24  6  1  0  0  0  0
 25 24  1  0  0  0  0
 26 25  1  0  0  0  0
 27 26  2  0  0  0  0
 28 27  1  0  0  0  0
 29 27  1  0  0  0  0
 29 31  1  0  0  0  0
 30 29  1  0  0  0  0
 31 25  2  0  0  0  0
M  END
>  <minimizedAffinity>
-4.94616938

$$$$

 OpenBabel03272509193D

 31 33  0  0  0  0  0  0  0  0999 V2000
   37.7250   23.1120   32.5120 C   0  0  0  0  0  0  0  0  0  0  0  0
   36.6350   22.4890   31.9370 C   0  0  0  0  0  0  0  0  0  0  0  0
   35.6310   23.3780   31.5070 C   0  0  0  0  0  0  0  0  0  0  0  0
   35.7540   24.7570   31.6640 C   0  0  0  0  0  0  0  0  0  0  0  0
   36.8920   25.2870   32.2560 C   0  0  0  0  0  0  0  0  0  0  0  0
   37.8980   24.4370   32.6890 C   0  0  0  0  0  0  0  0  0  0  0  0
   34.7590   22.9620   31.0520 H   0  0  0  0  0  0  0  0  0  0  0  0
   34.9650   25.4150   31.3230 H   0  0  0  0  0  0  0  0  0  0  0  0
   37.0230   26.3550   32.3950 H   0  0  0  0  0  0  0  0  0  0  0  0
   36.8540   20.4860   30.5470 C   0  0  0  0  0  0  0  0  0  0  0  0
   36.5030   21.0750   31.7740 C   0  0  0  0  0  0  0  0  0  0  0  0
   36.0330   20.2530   32.8000 C   0  0  0  0  0  0  0  0  0  0  0  0
   35.9450   18.9160   32.5420 N   0  0  0  0  0  0  0  0  0  0  0  0
   36.2870   18.3780   31.3570 C   0  0  0  0  0  0  0  0  0  0  0  0
   36.7390   19.1560   30.3700 N   0  0  0  0  0  0  0  0  0  0  0  0
   37.2210   21.1170   29.7400 H   0  0  0  0  0  0  0  0  0  0  0  0
   36.1760   17.3100   31.2670 H   0  0  0  0  0  0  0  0  0  0  0  0
   35.6520   20.8310   34.1080 C   0  0  0  0  0  0  0  0  0  0  0  0
   35.8570   20.1630   34.9710 H   0  0  0  0  0  0  0  0  0  0  0  0
   36.1550   21.8260   34.1940 H   0  0  0  0  0  0  0  0  0  0  0  0
   34.5620   21.0740   34.0300 H   0  0  0  0  0  0  0  0  0  0  0  0
   38.7760   22.3050   32.9710 O   0  0  0  0  0  0  0  0  0  0  0  0
   39.2790   21.6470   32.3940 H   0  0  0  0  0  0  0  0  0  0  0  0
   39.0360   24.9900   33.2830 O   0  0  0  0  0  0  0  0  0  0  0  0
   38.8170   25.7320   34.4360 C   0  0  0  0  0  0  0  0  0  0  0  0
   38.1860   25.4080   35.5790 N   0  0  0  0  0  0  0  0  0  0  0  0
   38.2460   26.4790   36.3930 C   0  0  0  0  0  0  0  0  0  0  0  0
   37.8250   26.5270   37.3900 H   0  0  0  0  0  0  0  0  0  0  0  0
   38.9090   27.4600   35.7570 N   0  0  0  0  0  0  0  0  0  0  0  0
   39.1120   28.4120   36.1400 H   0  0  0  0  0  0  0  0  0  0  0  0
   39.2440   26.9840   34.5770 N   0  0  0  0  0  0  0  0  0  0  0  0
  1  6  1  0  0  0  0
  1 22  1  0  0  0  0
  2  1  2  0  0  0  0
  3  4  2  0  0  0  0
  3  2  1  0  0  0  0
  4  5  1  0  0  0  0
  5  9  1  0  0  0  0
  5  6  2  0  0  0  0
  6 24  1  0  0  0  0
  7  3  1  0  0  0  0
  8  4  1  0  0  0  0
 10 11  1  0  0  0  0
 11  2  1  0  0  0  0
 11 12  2  0  0  0  0
 12 18  1  0  0  0  0
 13 12  1  0  0  0  0
 14 13  2  0  0  0  0
 15 10  2  0  0  0  0
 15 14  1  0  0  0  0
 16 10  1  0  0  0  0
 17 14  1  0  0  0  0
 18 20  1  0  0  0  0
 18 19  1  0  0  0  0
 21 18  1  0  0  0  0
 23 22  1  0  0  0  0
 24 25  1  0  0  0  0
 25 31  2  0  0  0  0
 25 26  1  0  0  0  0
 26 27  2  0  0  0  0
 27 28  1  0  0  0  0
 29 30  1  0  0  0  0
 29 27  1  0  0  0  0
 31 29  1  0  0  0  0
M  END
>  <minimizedAffinity>
-4.78620577

$$$$
