
 OpenBabel03272500403D

 23 25  0  0  1  0  0  0  0  0999 V2000
   38.5490   25.8650   35.0030 C   0  0  1  0  0  0  0  0  0  0  0  0
   38.3670   26.6900   36.1920 C   0  0  0  0  0  0  0  0  0  0  0  0
   37.8130   25.2940   36.2040 C   0  0  2  0  0  0  0  0  0  0  0  0
   39.5370   25.4510   34.7670 H   0  0  0  0  0  0  0  0  0  0  0  0
   39.2170   26.8850   36.8600 H   0  0  0  0  0  0  0  0  0  0  0  0
   37.5920   27.5000   36.2420 H   0  0  0  0  0  0  0  0  0  0  0  0
   36.7140   25.1790   36.1250 H   0  0  0  0  0  0  0  0  0  0  0  0
   37.6640   26.0360   33.7970 C   0  0  0  0  0  0  0  0  0  0  0  0
   37.1970   27.3340   33.5320 C   0  0  0  0  0  0  0  0  0  0  0  0
   36.3630   27.4740   32.4250 C   0  0  0  0  0  0  0  0  0  0  0  0
   36.0580   26.3670   31.6800 N   0  0  0  0  0  0  0  0  0  0  0  0
   36.5290   25.1290   31.9690 C   0  0  0  0  0  0  0  0  0  0  0  0
   37.3410   24.9680   33.0380 N   0  0  0  0  0  0  0  0  0  0  0  0
   37.5040   28.1320   34.1910 H   0  0  0  0  0  0  0  0  0  0  0  0
   35.9930   28.4500   32.2010 H   0  0  0  0  0  0  0  0  0  0  0  0
   36.2390   24.3080   31.3280 H   0  0  0  0  0  0  0  0  0  0  0  0
   38.5650   24.2180   36.8930 C   0  0  0  0  0  0  0  0  0  0  0  0
   39.5900   23.5070   36.4230 N   0  0  0  0  0  0  0  0  0  0  0  0
   39.9890   22.6310   37.3580 C   0  0  0  0  0  0  0  0  0  0  0  0
   40.8050   21.9050   37.2830 H   0  0  0  0  0  0  0  0  0  0  0  0
   39.1990   22.7990   38.4280 N   0  0  0  0  0  0  0  0  0  0  0  0
   39.2910   22.2360   39.3170 H   0  0  0  0  0  0  0  0  0  0  0  0
   38.3290   23.7730   38.1350 N   0  0  0  0  0  0  0  0  0  0  0  0
  1  4  1  6  0  0  0
  1  2  1  0  0  0  0
  1  3  1  0  0  0  0
  2  3  1  0  0  0  0
  2  6  1  0  0  0  0
  2  5  1  0  0  0  0
  3  7  1  6  0  0  0
  3 17  1  0  0  0  0
  8  1  1  0  0  0  0
  9  8  1  0  0  0  0
  9 14  1  0  0  0  0
 10  9  2  0  0  0  0
 11 12  2  0  0  0  0
 11 10  1  0  0  0  0
 12 13  1  0  0  0  0
 13  8  2  0  0  0  0
 15 10  1  0  0  0  0
 16 12  1  0  0  0  0
 17 23  2  0  0  0  0
 18 17  1  0  0  0  0
 18 19  2  0  0  0  0
 19 21  1  0  0  0  0
 20 19  1  0  0  0  0
 21 22  1  0  0  0  0
 23 21  1  0  0  0  0
M  END
>  <minimizedAffinity>
-4.59089041

$$$$

 OpenBabel03272500403D

 23 25  0  0  1  0  0  0  0  0999 V2000
   38.5390   25.8860   34.9500 C   0  0  1  0  0  0  0  0  0  0  0  0
   38.3990   26.7430   36.1220 C   0  0  0  0  0  0  0  0  0  0  0  0
   37.7950   25.3680   36.1700 C   0  0  2  0  0  0  0  0  0  0  0  0
   39.5080   25.4330   34.7140 H   0  0  0  0  0  0  0  0  0  0  0  0
   39.2620   26.9210   36.7780 H   0  0  0  0  0  0  0  0  0  0  0  0
   37.6530   27.5800   36.1630 H   0  0  0  0  0  0  0  0  0  0  0  0
   36.6930   25.2900   36.1050 H   0  0  0  0  0  0  0  0  0  0  0  0
   37.6470   26.0620   33.7490 C   0  0  0  0  0  0  0  0  0  0  0  0
   37.4530   24.9350   32.9340 C   0  0  0  0  0  0  0  0  0  0  0  0
   36.6410   25.1160   31.8160 C   0  0  0  0  0  0  0  0  0  0  0  0
   36.0950   26.3500   31.5860 N   0  0  0  0  0  0  0  0  0  0  0  0
   36.3070   27.4150   32.3980 C   0  0  0  0  0  0  0  0  0  0  0  0
   37.0910   27.2630   33.4900 N   0  0  0  0  0  0  0  0  0  0  0  0
   37.9360   24.0110   33.2140 H   0  0  0  0  0  0  0  0  0  0  0  0
   36.4770   24.2760   31.1790 H   0  0  0  0  0  0  0  0  0  0  0  0
   35.8370   28.3550   32.1440 H   0  0  0  0  0  0  0  0  0  0  0  0
   38.5160   24.2800   36.8750 C   0  0  0  0  0  0  0  0  0  0  0  0
   39.5480   23.5620   36.4320 N   0  0  0  0  0  0  0  0  0  0  0  0
   39.9110   22.6770   37.3730 C   0  0  0  0  0  0  0  0  0  0  0  0
   40.7210   21.9440   37.3180 H   0  0  0  0  0  0  0  0  0  0  0  0
   39.0900   22.8460   38.4200 N   0  0  0  0  0  0  0  0  0  0  0  0
   39.1510   22.2770   39.3070 H   0  0  0  0  0  0  0  0  0  0  0  0
   38.2390   23.8300   38.1070 N   0  0  0  0  0  0  0  0  0  0  0  0
  1  4  1  6  0  0  0
  1  2  1  0  0  0  0
  1  3  1  0  0  0  0
  2  6  1  0  0  0  0
  2  3  1  0  0  0  0
  2  5  1  0  0  0  0
  3  7  1  6  0  0  0
  3 17  1  0  0  0  0
  8  1  1  0  0  0  0
  9 14  1  0  0  0  0
  9  8  2  0  0  0  0
 10  9  1  0  0  0  0
 11 10  2  0  0  0  0
 11 12  1  0  0  0  0
 12 13  2  0  0  0  0
 13  8  1  0  0  0  0
 15 10  1  0  0  0  0
 16 12  1  0  0  0  0
 17 23  2  0  0  0  0
 18 17  1  0  0  0  0
 18 19  2  0  0  0  0
 19 21  1  0  0  0  0
 20 19  1  0  0  0  0
 21 22  1  0  0  0  0
 23 21  1  0  0  0  0
M  END
>  <minimizedAffinity>
-4.45697212

$$$$

 OpenBabel03272500403D

 23 25  0  0  1  0  0  0  0  0999 V2000
   37.6840   25.8840   35.8250 C   0  0  1  0  0  0  0  0  0  0  0  0
   38.2620   27.2220   35.7680 C   0  0  0  0  0  0  0  0  0  0  0  0
   38.3550   26.3550   34.5450 C   0  0  2  0  0  0  0  0  0  0  0  0
   36.5960   25.7550   35.8120 H   0  0  0  0  0  0  0  0  0  0  0  0
   37.6070   28.1010   35.6960 H   0  0  0  0  0  0  0  0  0  0  0  0
   39.2500   27.4650   36.2430 H   0  0  0  0  0  0  0  0  0  0  0  0
   39.3450   25.9250   34.2960 H   0  0  0  0  0  0  0  0  0  0  0  0
   38.4180   24.7490   36.4900 C   0  0  0  0  0  0  0  0  0  0  0  0
   38.0180   24.4150   37.7950 C   0  0  0  0  0  0  0  0  0  0  0  0
   38.7170   23.3760   38.4050 C   0  0  0  0  0  0  0  0  0  0  0  0
   39.7260   22.7600   37.7160 N   0  0  0  0  0  0  0  0  0  0  0  0
   40.0830   23.1130   36.4560 C   0  0  0  0  0  0  0  0  0  0  0  0
   39.4180   24.1180   35.8420 N   0  0  0  0  0  0  0  0  0  0  0  0
   37.2070   24.9720   38.2400 H   0  0  0  0  0  0  0  0  0  0  0  0
   38.4340   23.1010   39.3970 H   0  0  0  0  0  0  0  0  0  0  0  0
   40.8920   22.5740   35.9820 H   0  0  0  0  0  0  0  0  0  0  0  0
   37.4010   26.5650   33.4290 C   0  0  0  0  0  0  0  0  0  0  0  0
   36.8240   27.7050   33.0510 N   0  0  0  0  0  0  0  0  0  0  0  0
   36.0270   27.4720   31.9970 C   0  0  0  0  0  0  0  0  0  0  0  0
   35.4140   28.1990   31.4540 H   0  0  0  0  0  0  0  0  0  0  0  0
   36.1090   26.1640   31.7140 N   0  0  0  0  0  0  0  0  0  0  0  0
   35.5800   25.7030   30.9250 H   0  0  0  0  0  0  0  0  0  0  0  0
   36.9530   25.6160   32.5960 N   0  0  0  0  0  0  0  0  0  0  0  0
  1  4  1  6  0  0  0
  1  8  1  0  0  0  0
  2  1  1  0  0  0  0
  2  6  1  0  0  0  0
  3  7  1  6  0  0  0
  3  2  1  0  0  0  0
  3  1  1  0  0  0  0
  5  2  1  0  0  0  0
  8  9  1  0  0  0  0
  9 14  1  0  0  0  0
  9 10  2  0  0  0  0
 10 15  1  0  0  0  0
 11 10  1  0  0  0  0
 12 11  2  0  0  0  0
 13 12  1  0  0  0  0
 13  8  2  0  0  0  0
 16 12  1  0  0  0  0
 17  3  1  0  0  0  0
 18 17  1  0  0  0  0
 19 18  2  0  0  0  0
 20 19  1  0  0  0  0
 21 19  1  0  0  0  0
 21 23  1  0  0  0  0
 22 21  1  0  0  0  0
 23 17  2  0  0  0  0
M  END
>  <minimizedAffinity>
-4.33759689

$$$$

 OpenBabel03272500403D

 23 25  0  0  1  0  0  0  0  0999 V2000
   38.7880   24.2070   34.0870 C   0  0  1  0  0  0  0  0  0  0  0  0
   39.0990   25.4970   34.6930 C   0  0  0  0  0  0  0  0  0  0  0  0
   38.3170   24.5020   35.5030 C   0  0  2  0  0  0  0  0  0  0  0  0
   39.5760   23.4560   33.9590 H   0  0  0  0  0  0  0  0  0  0  0  0
   40.1210   25.7110   35.0340 H   0  0  0  0  0  0  0  0  0  0  0  0
   38.5340   26.4300   34.4300 H   0  0  0  0  0  0  0  0  0  0  0  0
   37.2390   24.7000   35.6540 H   0  0  0  0  0  0  0  0  0  0  0  0
   37.6520   24.0620   33.1090 C   0  0  0  0  0  0  0  0  0  0  0  0
   37.2640   22.7530   32.7780 C   0  0  0  0  0  0  0  0  0  0  0  0
   36.2250   22.6340   31.8580 C   0  0  0  0  0  0  0  0  0  0  0  0
   35.6600   23.7690   31.3440 N   0  0  0  0  0  0  0  0  0  0  0  0
   36.0640   25.0170   31.6890 C   0  0  0  0  0  0  0  0  0  0  0  0
   37.0700   25.1590   32.5810 N   0  0  0  0  0  0  0  0  0  0  0  0
   37.7830   21.9320   33.2480 H   0  0  0  0  0  0  0  0  0  0  0  0
   35.9100   21.6500   31.5890 H   0  0  0  0  0  0  0  0  0  0  0  0
   35.5630   25.8610   31.2360 H   0  0  0  0  0  0  0  0  0  0  0  0
   39.0150   23.6920   36.5310 C   0  0  0  0  0  0  0  0  0  0  0  0
   40.2520   23.2000   36.4830 N   0  0  0  0  0  0  0  0  0  0  0  0
   40.5060   22.5230   37.6140 C   0  0  0  0  0  0  0  0  0  0  0  0
   41.4300   22.0020   37.8830 H   0  0  0  0  0  0  0  0  0  0  0  0
   39.4070   22.5960   38.3790 N   0  0  0  0  0  0  0  0  0  0  0  0
   39.3280   22.1480   39.3320 H   0  0  0  0  0  0  0  0  0  0  0  0
   38.4980   23.3130   37.7080 N   0  0  0  0  0  0  0  0  0  0  0  0
  1  4  1  6  0  0  0
  1  2  1  0  0  0  0
  1  3  1  0  0  0  0
  2  5  1  0  0  0  0
  2  3  1  0  0  0  0
  3  7  1  1  0  0  0
  3 17  1  0  0  0  0
  6  2  1  0  0  0  0
  8  1  1  0  0  0  0
  9  8  1  0  0  0  0
  9 14  1  0  0  0  0
 10  9  2  0  0  0  0
 11 12  2  0  0  0  0
 11 10  1  0  0  0  0
 12 13  1  0  0  0  0
 13  8  2  0  0  0  0
 15 10  1  0  0  0  0
 16 12  1  0  0  0  0
 17 23  2  0  0  0  0
 18 17  1  0  0  0  0
 18 19  2  0  0  0  0
 19 20  1  0  0  0  0
 19 21  1  0  0  0  0
 21 22  1  0  0  0  0
 23 21  1  0  0  0  0
M  END
>  <minimizedAffinity>
-4.20641851

$$$$

 OpenBabel03272500403D

 23 25  0  0  1  0  0  0  0  0999 V2000
   38.1090   25.7820   35.4450 C   0  0  1  0  0  0  0  0  0  0  0  0
   38.1220   27.1680   35.9000 C   0  0  0  0  0  0  0  0  0  0  0  0
   39.1840   26.7270   34.9340 C   0  0  2  0  0  0  0  0  0  0  0  0
   37.3470   25.4450   34.7330 H   0  0  0  0  0  0  0  0  0  0  0  0
   37.3760   27.8780   35.5170 H   0  0  0  0  0  0  0  0  0  0  0  0
   38.5050   27.4580   36.9140 H   0  0  0  0  0  0  0  0  0  0  0  0
   40.2110   26.5970   35.3260 H   0  0  0  0  0  0  0  0  0  0  0  0
   38.6600   24.6770   36.3070 C   0  0  0  0  0  0  0  0  0  0  0  0
   38.0450   24.4810   37.5550 C   0  0  0  0  0  0  0  0  0  0  0  0
   38.5770   23.4690   38.3500 C   0  0  0  0  0  0  0  0  0  0  0  0
   39.6380   22.7440   37.8800 N   0  0  0  0  0  0  0  0  0  0  0  0
   40.2040   22.9640   36.6680 C   0  0  0  0  0  0  0  0  0  0  0  0
   39.7050   23.9410   35.8770 N   0  0  0  0  0  0  0  0  0  0  0  0
   37.2130   25.1150   37.8210 H   0  0  0  0  0  0  0  0  0  0  0  0
   38.1290   23.2980   39.3040 H   0  0  0  0  0  0  0  0  0  0  0  0
   41.0410   22.3450   36.3730 H   0  0  0  0  0  0  0  0  0  0  0  0
   39.0390   27.0530   33.4940 C   0  0  0  0  0  0  0  0  0  0  0  0
   37.9560   27.5030   32.8630 N   0  0  0  0  0  0  0  0  0  0  0  0
   38.2370   27.6730   31.5620 C   0  0  0  0  0  0  0  0  0  0  0  0
   37.5620   28.0300   30.7770 H   0  0  0  0  0  0  0  0  0  0  0  0
   39.5190   27.3230   31.3800 N   0  0  0  0  0  0  0  0  0  0  0  0
   40.0070   27.3590   30.4450 H   0  0  0  0  0  0  0  0  0  0  0  0
   40.0030   26.9440   32.5680 N   0  0  0  0  0  0  0  0  0  0  0  0
  1  4  1  6  0  0  0
  1  2  1  0  0  0  0
  1  8  1  0  0  0  0
  2  6  1  0  0  0  0
  3  7  1  1  0  0  0
  3  1  1  0  0  0  0
  3  2  1  0  0  0  0
  5  2  1  0  0  0  0
  8  9  1  0  0  0  0
  9 14  1  0  0  0  0
  9 10  2  0  0  0  0
 10 15  1  0  0  0  0
 11 10  1  0  0  0  0
 12 11  2  0  0  0  0
 13  8  2  0  0  0  0
 13 12  1  0  0  0  0
 16 12  1  0  0  0  0
 17  3  1  0  0  0  0
 18 17  1  0  0  0  0
 19 18  2  0  0  0  0
 20 19  1  0  0  0  0
 21 19  1  0  0  0  0
 21 23  1  0  0  0  0
 22 21  1  0  0  0  0
 23 17  2  0  0  0  0
M  END
>  <minimizedAffinity>
-4.17655087

$$$$

 OpenBabel03272500403D

 23 25  0  0  1  0  0  0  0  0999 V2000
   38.1270   24.4540   34.3220 C   0  0  1  0  0  0  0  0  0  0  0  0
   39.3540   23.7300   34.0100 C   0  0  0  0  0  0  0  0  0  0  0  0
   39.3250   24.5800   35.2490 C   0  0  2  0  0  0  0  0  0  0  0  0
   37.2500   23.9130   34.6950 H   0  0  0  0  0  0  0  0  0  0  0  0
   39.4040   22.6440   34.1640 H   0  0  0  0  0  0  0  0  0  0  0  0
   40.0690   24.0830   33.2200 H   0  0  0  0  0  0  0  0  0  0  0  0
   39.8900   25.5320   35.2300 H   0  0  0  0  0  0  0  0  0  0  0  0
   37.7870   25.7440   33.6220 C   0  0  0  0  0  0  0  0  0  0  0  0
   37.0970   26.7090   34.3730 C   0  0  0  0  0  0  0  0  0  0  0  0
   36.7720   27.8890   33.7080 C   0  0  0  0  0  0  0  0  0  0  0  0
   37.1350   28.0330   32.3960 N   0  0  0  0  0  0  0  0  0  0  0  0
   37.8010   27.0760   31.7050 C   0  0  0  0  0  0  0  0  0  0  0  0
   38.1280   25.9220   32.3290 N   0  0  0  0  0  0  0  0  0  0  0  0
   36.8620   26.4850   35.4030 H   0  0  0  0  0  0  0  0  0  0  0  0
   36.2480   28.6410   34.2550 H   0  0  0  0  0  0  0  0  0  0  0  0
   38.0510   27.2700   30.6710 H   0  0  0  0  0  0  0  0  0  0  0  0
   39.1130   23.9380   36.5680 C   0  0  0  0  0  0  0  0  0  0  0  0
   38.1970   24.2400   37.4870 N   0  0  0  0  0  0  0  0  0  0  0  0
   38.3380   23.4230   38.5420 C   0  0  0  0  0  0  0  0  0  0  0  0
   37.7420   23.4140   39.4600 H   0  0  0  0  0  0  0  0  0  0  0  0
   39.3600   22.5970   38.2760 N   0  0  0  0  0  0  0  0  0  0  0  0
   39.6920   21.8460   38.9390 H   0  0  0  0  0  0  0  0  0  0  0  0
   39.8300   22.9190   37.0640 N   0  0  0  0  0  0  0  0  0  0  0  0
  1  4  1  1  0  0  0
  1  3  1  0  0  0  0
  2  5  1  0  0  0  0
  2  1  1  0  0  0  0
  2  3  1  0  0  0  0
  3  7  1  6  0  0  0
  3 17  1  0  0  0  0
  6  2  1  0  0  0  0
  8  1  1  0  0  0  0
  8  9  1  0  0  0  0
  9 14  1  0  0  0  0
 10 15  1  0  0  0  0
 10  9  2  0  0  0  0
 11 10  1  0  0  0  0
 12 13  1  0  0  0  0
 12 11  2  0  0  0  0
 13  8  2  0  0  0  0
 16 12  1  0  0  0  0
 17 23  2  0  0  0  0
 17 18  1  0  0  0  0
 18 19  2  0  0  0  0
 19 20  1  0  0  0  0
 21 19  1  0  0  0  0
 21 22  1  0  0  0  0
 23 21  1  0  0  0  0
M  END
>  <minimizedAffinity>
-4.0417037

$$$$

 OpenBabel03272500403D

 23 25  0  0  1  0  0  0  0  0999 V2000
   38.5140   25.7920   35.1330 C   0  0  1  0  0  0  0  0  0  0  0  0
   38.1270   27.1830   35.3410 C   0  0  0  0  0  0  0  0  0  0  0  0
   39.5820   26.8740   35.1340 C   0  0  2  0  0  0  0  0  0  0  0  0
   38.2920   25.2970   34.1800 H   0  0  0  0  0  0  0  0  0  0  0  0
   37.6260   27.7400   34.5380 H   0  0  0  0  0  0  0  0  0  0  0  0
   37.8770   27.5860   36.3580 H   0  0  0  0  0  0  0  0  0  0  0  0
   40.2490   26.9350   36.0150 H   0  0  0  0  0  0  0  0  0  0  0  0
   38.6410   24.8400   36.2920 C   0  0  0  0  0  0  0  0  0  0  0  0
   39.5050   23.7450   36.1210 C   0  0  0  0  0  0  0  0  0  0  0  0
   39.5980   22.8620   37.1940 C   0  0  0  0  0  0  0  0  0  0  0  0
   38.8620   23.1070   38.3210 N   0  0  0  0  0  0  0  0  0  0  0  0
   38.0380   24.1760   38.4480 C   0  0  0  0  0  0  0  0  0  0  0  0
   37.9310   25.0480   37.4200 N   0  0  0  0  0  0  0  0  0  0  0  0
   40.0350   23.6540   35.1860 H   0  0  0  0  0  0  0  0  0  0  0  0
   40.2470   22.0210   37.0910 H   0  0  0  0  0  0  0  0  0  0  0  0
   37.4910   24.2950   39.3730 H   0  0  0  0  0  0  0  0  0  0  0  0
   40.1910   27.0950   33.8000 C   0  0  0  0  0  0  0  0  0  0  0  0
   39.5760   27.1380   32.6180 N   0  0  0  0  0  0  0  0  0  0  0  0
   40.4820   27.3600   31.6530 C   0  0  0  0  0  0  0  0  0  0  0  0
   40.2990   27.4490   30.5770 H   0  0  0  0  0  0  0  0  0  0  0  0
   41.6820   27.4570   32.2440 N   0  0  0  0  0  0  0  0  0  0  0  0
   42.5800   27.6320   31.7180 H   0  0  0  0  0  0  0  0  0  0  0  0
   41.4940   27.2940   33.5590 N   0  0  0  0  0  0  0  0  0  0  0  0
  1  4  1  6  0  0  0
  1  3  1  0  0  0  0
  1  2  1  0  0  0  0
  1  8  1  0  0  0  0
  2  6  1  0  0  0  0
  3  2  1  0  0  0  0
  3  7  1  1  0  0  0
  5  2  1  0  0  0  0
  8 13  1  0  0  0  0
  9  8  2  0  0  0  0
  9 10  1  0  0  0  0
 10 11  2  0  0  0  0
 11 12  1  0  0  0  0
 12 16  1  0  0  0  0
 13 12  2  0  0  0  0
 14  9  1  0  0  0  0
 15 10  1  0  0  0  0
 17  3  1  0  0  0  0
 18 17  1  0  0  0  0
 19 21  1  0  0  0  0
 19 18  2  0  0  0  0
 20 19  1  0  0  0  0
 21 23  1  0  0  0  0
 22 21  1  0  0  0  0
 23 17  2  0  0  0  0
M  END
>  <minimizedAffinity>
-4.0395875

$$$$

 OpenBabel03272500403D

 23 25  0  0  1  0  0  0  0  0999 V2000
   38.2170   21.8930   34.2350 C   0  0  1  0  0  0  0  0  0  0  0  0
   39.2540   22.8960   34.0220 C   0  0  0  0  0  0  0  0  0  0  0  0
   38.0930   23.2510   34.9070 C   0  0  2  0  0  0  0  0  0  0  0  0
   38.4150   21.0250   34.8740 H   0  0  0  0  0  0  0  0  0  0  0  0
   40.2300   22.7890   34.5150 H   0  0  0  0  0  0  0  0  0  0  0  0
   39.3180   23.4950   33.0760 H   0  0  0  0  0  0  0  0  0  0  0  0
   37.3400   23.9550   34.5060 H   0  0  0  0  0  0  0  0  0  0  0  0
   37.1490   21.6490   33.2010 C   0  0  0  0  0  0  0  0  0  0  0  0
   36.0420   20.8830   33.6030 C   0  0  0  0  0  0  0  0  0  0  0  0
   35.0710   20.6490   32.6320 C   0  0  0  0  0  0  0  0  0  0  0  0
   35.2490   21.1670   31.3780 N   0  0  0  0  0  0  0  0  0  0  0  0
   36.3330   21.9030   31.0290 C   0  0  0  0  0  0  0  0  0  0  0  0
   37.2890   22.1440   31.9540 N   0  0  0  0  0  0  0  0  0  0  0  0
   36.0090   20.5260   34.6210 H   0  0  0  0  0  0  0  0  0  0  0  0
   34.2190   20.0700   32.9100 H   0  0  0  0  0  0  0  0  0  0  0  0
   36.3960   22.2750   30.0150 H   0  0  0  0  0  0  0  0  0  0  0  0
   38.2550   23.1900   36.3800 C   0  0  0  0  0  0  0  0  0  0  0  0
   39.3770   23.3340   37.0860 N   0  0  0  0  0  0  0  0  0  0  0  0
   39.0990   23.2100   38.3930 C   0  0  0  0  0  0  0  0  0  0  0  0
   39.8000   23.2760   39.2310 H   0  0  0  0  0  0  0  0  0  0  0  0
   37.7810   22.9860   38.5030 N   0  0  0  0  0  0  0  0  0  0  0  0
   37.2870   22.8500   39.4260 H   0  0  0  0  0  0  0  0  0  0  0  0
   37.2720   22.9750   37.2660 N   0  0  0  0  0  0  0  0  0  0  0  0
  1  4  1  1  0  0  0
  1  3  1  0  0  0  0
  2  1  1  0  0  0  0
  2  5  1  0  0  0  0
  2  3  1  0  0  0  0
  3  7  1  6  0  0  0
  3 17  1  0  0  0  0
  6  2  1  0  0  0  0
  8  9  1  0  0  0  0
  8  1  1  0  0  0  0
  9 14  1  0  0  0  0
 10 15  1  0  0  0  0
 10  9  2  0  0  0  0
 11 10  1  0  0  0  0
 12 11  2  0  0  0  0
 12 13  1  0  0  0  0
 13  8  2  0  0  0  0
 16 12  1  0  0  0  0
 17 18  1  0  0  0  0
 17 23  2  0  0  0  0
 18 19  2  0  0  0  0
 19 21  1  0  0  0  0
 19 20  1  0  0  0  0
 21 22  1  0  0  0  0
 23 21  1  0  0  0  0
M  END
>  <minimizedAffinity>
-3.94445753

$$$$

 OpenBabel03272500403D

 23 25  0  0  1  0  0  0  0  0999 V2000
   38.6240   24.1730   34.2730 C   0  0  1  0  0  0  0  0  0  0  0  0
   39.8200   23.7320   33.5630 C   0  0  0  0  0  0  0  0  0  0  0  0
   39.9830   24.3060   34.9420 C   0  0  2  0  0  0  0  0  0  0  0  0
   37.9260   23.4350   34.6840 H   0  0  0  0  0  0  0  0  0  0  0  0
   40.0280   22.6590   33.4530 H   0  0  0  0  0  0  0  0  0  0  0  0
   40.2870   24.3430   32.7460 H   0  0  0  0  0  0  0  0  0  0  0  0
   40.4170   25.3210   35.0260 H   0  0  0  0  0  0  0  0  0  0  0  0
   37.9870   25.5020   33.9680 C   0  0  0  0  0  0  0  0  0  0  0  0
   37.4780   26.2260   35.0600 C   0  0  0  0  0  0  0  0  0  0  0  0
   36.8740   27.4450   34.7610 C   0  0  0  0  0  0  0  0  0  0  0  0
   36.8140   27.8540   33.4570 N   0  0  0  0  0  0  0  0  0  0  0  0
   37.3170   27.1260   32.4300 C   0  0  0  0  0  0  0  0  0  0  0  0
   37.9090   25.9390   32.6940 N   0  0  0  0  0  0  0  0  0  0  0  0
   37.5820   25.8030   36.0470 H   0  0  0  0  0  0  0  0  0  0  0  0
   36.4780   28.0160   35.5720 H   0  0  0  0  0  0  0  0  0  0  0  0
   37.2280   27.5220   31.4280 H   0  0  0  0  0  0  0  0  0  0  0  0
   40.1590   23.3910   36.0960 C   0  0  0  0  0  0  0  0  0  0  0  0
   41.0980   22.4620   36.2670 N   0  0  0  0  0  0  0  0  0  0  0  0
   40.9090   21.8480   37.4450 C   0  0  0  0  0  0  0  0  0  0  0  0
   41.5080   21.0410   37.8780 H   0  0  0  0  0  0  0  0  0  0  0  0
   39.8310   22.4050   38.0180 N   0  0  0  0  0  0  0  0  0  0  0  0
   39.4530   22.1120   38.9590 H   0  0  0  0  0  0  0  0  0  0  0  0
   39.3780   23.3490   37.1850 N   0  0  0  0  0  0  0  0  0  0  0  0
  1  4  1  1  0  0  0
  1  3  1  0  0  0  0
  2  1  1  0  0  0  0
  2  3  1  0  0  0  0
  3  7  1  1  0  0  0
  3 17  1  0  0  0  0
  5  2  1  0  0  0  0
  6  2  1  0  0  0  0
  8  1  1  0  0  0  0
  8  9  1  0  0  0  0
  9 14  1  0  0  0  0
 10  9  2  0  0  0  0
 10 15  1  0  0  0  0
 11 10  1  0  0  0  0
 12 13  1  0  0  0  0
 12 11  2  0  0  0  0
 13  8  2  0  0  0  0
 16 12  1  0  0  0  0
 17 18  1  0  0  0  0
 17 23  2  0  0  0  0
 18 19  2  0  0  0  0
 19 20  1  0  0  0  0
 19 21  1  0  0  0  0
 21 22  1  0  0  0  0
 23 21  1  0  0  0  0
M  END
>  <minimizedAffinity>
-3.88819051

$$$$
