
 OpenBabel03272509183D

 31 33  0  0  0  0  0  0  0  0999 V2000
   38.0510   31.3400   47.7090 C   0  0  0  0  0  0  0  0  0  0  0  0
   37.0870   31.3050   48.6970 C   0  0  0  0  0  0  0  0  0  0  0  0
   37.1630   32.3780   49.6070 C   0  0  0  0  0  0  0  0  0  0  0  0
   38.1360   33.3690   49.4950 C   0  0  0  0  0  0  0  0  0  0  0  0
   39.0630   33.3150   48.4630 C   0  0  0  0  0  0  0  0  0  0  0  0
   39.0130   32.2710   47.5510 C   0  0  0  0  0  0  0  0  0  0  0  0
   36.4460   32.4120   50.3970 H   0  0  0  0  0  0  0  0  0  0  0  0
   38.1690   34.1810   50.2090 H   0  0  0  0  0  0  0  0  0  0  0  0
   39.8340   34.0670   48.3430 H   0  0  0  0  0  0  0  0  0  0  0  0
   34.9470   30.3450   47.9970 C   0  0  0  0  0  0  0  0  0  0  0  0
   36.0870   30.2910   48.8170 C   0  0  0  0  0  0  0  0  0  0  0  0
   36.2040   29.2410   49.7300 C   0  0  0  0  0  0  0  0  0  0  0  0
   35.1940   28.3250   49.7660 N   0  0  0  0  0  0  0  0  0  0  0  0
   34.1130   28.4010   48.9680 C   0  0  0  0  0  0  0  0  0  0  0  0
   33.9910   29.4010   48.0920 N   0  0  0  0  0  0  0  0  0  0  0  0
   34.8440   31.1580   47.2820 H   0  0  0  0  0  0  0  0  0  0  0  0
   33.3780   27.6210   49.0840 H   0  0  0  0  0  0  0  0  0  0  0  0
   37.3870   29.1460   50.6150 C   0  0  0  0  0  0  0  0  0  0  0  0
   37.6950   28.1030   50.8410 H   0  0  0  0  0  0  0  0  0  0  0  0
   38.2030   29.7520   50.1490 H   0  0  0  0  0  0  0  0  0  0  0  0
   37.1190   29.7050   51.5460 H   0  0  0  0  0  0  0  0  0  0  0  0
   38.0530   30.3100   46.7580 O   0  0  0  0  0  0  0  0  0  0  0  0
   37.2630   30.0760   46.1750 H   0  0  0  0  0  0  0  0  0  0  0  0
   39.9550   32.2340   46.5200 O   0  0  0  0  0  0  0  0  0  0  0  0
   39.4420   32.1300   45.2340 C   0  0  0  0  0  0  0  0  0  0  0  0
   38.4820   32.8390   44.6140 N   0  0  0  0  0  0  0  0  0  0  0  0
   38.3540   32.3450   43.3690 C   0  0  0  0  0  0  0  0  0  0  0  0
   37.6570   32.7110   42.6230 H   0  0  0  0  0  0  0  0  0  0  0  0
   39.2290   31.3360   43.2180 N   0  0  0  0  0  0  0  0  0  0  0  0
   39.3590   30.7610   42.3550 H   0  0  0  0  0  0  0  0  0  0  0  0
   39.8750   31.2260   44.3590 N   0  0  0  0  0  0  0  0  0  0  0  0
  1  2  1  0  0  0  0
  2 11  1  0  0  0  0
  2  3  2  0  0  0  0
  3  7  1  0  0  0  0
  4  3  1  0  0  0  0
  4  8  1  0  0  0  0
  5  4  2  0  0  0  0
  6  1  2  0  0  0  0
  6  5  1  0  0  0  0
  9  5  1  0  0  0  0
 10 15  2  0  0  0  0
 10 11  1  0  0  0  0
 11 12  2  0  0  0  0
 12 13  1  0  0  0  0
 12 18  1  0  0  0  0
 14 17  1  0  0  0  0
 14 13  2  0  0  0  0
 15 14  1  0  0  0  0
 16 10  1  0  0  0  0
 18 19  1  0  0  0  0
 18 21  1  0  0  0  0
 20 18  1  0  0  0  0
 22  1  1  0  0  0  0
 23 22  1  0  0  0  0
 24  6  1  0  0  0  0
 25 24  1  0  0  0  0
 26 25  1  0  0  0  0
 27 26  2  0  0  0  0
 28 27  1  0  0  0  0
 29 27  1  0  0  0  0
 29 31  1  0  0  0  0
 30 29  1  0  0  0  0
 31 25  2  0  0  0  0
M  END
>  <minimizedAffinity>
-6.24876928

>  <minimizedRMSD>
0.284700215

$$$$
