
 OpenBabel03272510243D

 30 33  0  0  0  0  0  0  0  0999 V2000
   36.2260   30.2010   46.8450 C   0  0  0  0  0  0  0  0  0  0  0  0
   37.0930   30.7640   47.7870 C   0  0  0  0  0  0  0  0  0  0  0  0
   38.0730   31.6490   47.4000 C   0  0  0  0  0  0  0  0  0  0  0  0
   38.1470   31.9430   46.0300 C   0  0  0  0  0  0  0  0  0  0  0  0
   39.0360   32.7880   45.4290 N   0  0  0  0  0  0  0  0  0  0  0  0
   38.7440   32.7670   44.1320 C   0  0  0  0  0  0  0  0  0  0  0  0
   37.7110   31.9450   43.8860 N   0  0  0  0  0  0  0  0  0  0  0  0
   37.3170   31.4140   45.0750 C   0  0  0  0  0  0  0  0  0  0  0  0
   36.3350   30.5210   45.4940 C   0  0  0  0  0  0  0  0  0  0  0  0
   35.4280   29.4920   47.0890 H   0  0  0  0  0  0  0  0  0  0  0  0
   38.7380   32.0810   48.1180 H   0  0  0  0  0  0  0  0  0  0  0  0
   39.7990   33.3420   45.9170 H   0  0  0  0  0  0  0  0  0  0  0  0
   35.6750   30.0980   44.7450 H   0  0  0  0  0  0  0  0  0  0  0  0
   37.5230   30.1810   51.4770 C   0  0  0  0  0  0  0  0  0  0  0  0
   37.8020   30.6040   50.1830 C   0  0  0  0  0  0  0  0  0  0  0  0
   36.8940   30.3620   49.1660 C   0  0  0  0  0  0  0  0  0  0  0  0
   35.7460   29.7050   49.5000 N   0  0  0  0  0  0  0  0  0  0  0  0
   35.4870   29.2970   50.7680 C   0  0  0  0  0  0  0  0  0  0  0  0
   36.3580   29.5300   51.7340 N   0  0  0  0  0  0  0  0  0  0  0  0
   38.3010   30.4220   52.1930 H   0  0  0  0  0  0  0  0  0  0  0  0
   38.7100   31.1260   49.9140 H   0  0  0  0  0  0  0  0  0  0  0  0
   34.5450   28.7730   50.9710 H   0  0  0  0  0  0  0  0  0  0  0  0
   39.4370   33.5090   43.1700 O   0  0  0  0  0  0  0  0  0  0  0  0
   39.0720   33.3020   41.8460 C   0  0  0  0  0  0  0  0  0  0  0  0
   39.4090   32.2440   41.0850 N   0  0  0  0  0  0  0  0  0  0  0  0
   38.8790   32.3780   39.8510 C   0  0  0  0  0  0  0  0  0  0  0  0
   38.8650   31.8200   38.9250 H   0  0  0  0  0  0  0  0  0  0  0  0
   38.2000   33.5620   39.8810 N   0  0  0  0  0  0  0  0  0  0  0  0
   37.6160   34.1420   39.2100 H   0  0  0  0  0  0  0  0  0  0  0  0
   38.3190   34.1060   41.0690 N   0  0  0  0  0  0  0  0  0  0  0  0
  1 10  1  0  0  0  0
  1  2  1  0  0  0  0
  2 16  1  0  0  0  0
  3  2  2  0  0  0  0
  3 11  1  0  0  0  0
  4  3  1  0  0  0  0
  5 12  1  0  0  0  0
  5  4  1  0  0  0  0
  6  5  1  0  0  0  0
  7  6  2  0  0  0  0
  7  8  1  0  0  0  0
  8  9  1  0  0  0  0
  8  4  2  0  0  0  0
  9  1  2  0  0  0  0
 13  9  1  0  0  0  0
 14 19  1  0  0  0  0
 14 20  1  0  0  0  0
 15 14  2  0  0  0  0
 16 17  2  0  0  0  0
 16 15  1  0  0  0  0
 17 18  1  0  0  0  0
 18 22  1  0  0  0  0
 18 19  2  0  0  0  0
 21 15  1  0  0  0  0
 23  6  1  0  0  0  0
 24 23  1  0  0  0  0
 25 24  1  0  0  0  0
 26 28  1  0  0  0  0
 26 25  2  0  0  0  0
 27 26  1  0  0  0  0
 28 30  1  0  0  0  0
 29 28  1  0  0  0  0
 30 24  2  0  0  0  0
M  END
>  <minimizedAffinity>
-5.57069826

>  <minimizedRMSD>
1.27389371

$$$$
