
 OpenBabel03272503543D

 42 45  0  0  1  0  0  0  0  0999 V2000
   38.6210   23.5370   34.3140 C   0  0  1  0  0  0  0  0  0  0  0  0
   38.5610   22.8670   32.9230 C   0  0  0  0  0  0  0  0  0  0  0  0
   37.0840   22.4450   32.7940 C   0  0  0  0  0  0  0  0  0  0  0  0
   36.8940   21.2930   33.7260 C   0  0  0  0  0  0  0  0  0  0  0  0
   37.1550   21.7440   35.1400 C   0  0  0  0  0  0  0  0  0  0  0  0
   38.5110   22.4000   35.2940 C   0  0  2  0  0  0  0  0  0  0  0  0
   37.7480   24.1920   34.3180 H   0  0  0  0  0  0  0  0  0  0  0  0
   38.7480   23.5860   32.1250 H   0  0  0  0  0  0  0  0  0  0  0  0
   39.1500   21.9530   32.8740 H   0  0  0  0  0  0  0  0  0  0  0  0
   36.8320   22.2180   31.7570 H   0  0  0  0  0  0  0  0  0  0  0  0
   36.5030   23.3230   33.1510 H   0  0  0  0  0  0  0  0  0  0  0  0
   37.6810   20.5500   33.4830 H   0  0  0  0  0  0  0  0  0  0  0  0
   35.8760   20.8670   33.7040 H   0  0  0  0  0  0  0  0  0  0  0  0
   36.3980   22.4930   35.4180 H   0  0  0  0  0  0  0  0  0  0  0  0
   37.0890   20.9000   35.8530 H   0  0  0  0  0  0  0  0  0  0  0  0
   39.3270   21.6820   35.2320 H   0  0  0  0  0  0  0  0  0  0  0  0
   39.8680   25.7080   34.4810 C   0  0  0  0  0  0  0  0  0  0  0  0
   41.0560   26.3880   34.7190 C   0  0  0  0  0  0  0  0  0  0  0  0
   42.2440   25.6780   34.9630 C   0  0  0  0  0  0  0  0  0  0  0  0
   42.1700   24.2950   34.9560 C   0  0  0  0  0  0  0  0  0  0  0  0
   41.0040   23.6180   34.7240 C   0  0  0  0  0  0  0  0  0  0  0  0
   39.8270   24.3470   34.4820 C   0  0  0  0  0  0  0  0  0  0  0  0
   41.1060   27.4770   34.7230 H   0  0  0  0  0  0  0  0  0  0  0  0
   43.1490   26.2590   35.1450 H   0  0  0  0  0  0  0  0  0  0  0  0
   43.1280   23.8080   35.1530 H   0  0  0  0  0  0  0  0  0  0  0  0
   41.1190   22.5510   34.7510 H   0  0  0  0  0  0  0  0  0  0  0  0
   36.8250   27.9180   34.8130 C   0  0  0  0  0  0  0  0  0  0  0  0
   37.9070   27.1080   35.1990 C   0  0  0  0  0  0  0  0  0  0  0  0
   38.7200   26.5500   34.2140 C   0  0  0  0  0  0  0  0  0  0  0  0
   38.3930   26.8400   32.9400 N   0  0  0  0  0  0  0  0  0  0  0  0
   37.3590   27.6140   32.5710 C   0  0  0  0  0  0  0  0  0  0  0  0
   36.5870   28.1430   33.5070 N   0  0  0  0  0  0  0  0  0  0  0  0
   36.1920   28.3520   35.5940 H   0  0  0  0  0  0  0  0  0  0  0  0
   38.1410   26.8960   36.2240 H   0  0  0  0  0  0  0  0  0  0  0  0
   37.1560   27.8040   31.5120 H   0  0  0  0  0  0  0  0  0  0  0  0
   38.4670   23.0710   36.6440 C   0  0  0  0  0  0  0  0  0  0  0  0
   37.6770   24.0320   37.1160 N   0  0  0  0  0  0  0  0  0  0  0  0
   38.0740   24.2540   38.3860 C   0  0  0  0  0  0  0  0  0  0  0  0
   37.6080   24.9870   39.0190 H   0  0  0  0  0  0  0  0  0  0  0  0
   39.1120   23.4260   38.6950 N   0  0  0  0  0  0  0  0  0  0  0  0
   39.5960   23.4080   39.6260 H   0  0  0  0  0  0  0  0  0  0  0  0
   39.3380   22.7040   37.6030 N   0  0  0  0  0  0  0  0  0  0  0  0
  1  7  1  1  0  0  0
  1 22  1  0  0  0  0
  1  6  1  0  0  0  0
  2  1  1  0  0  0  0
  3  2  1  0  0  0  0
  3 11  1  0  0  0  0
  3  4  1  0  0  0  0
  4  5  1  0  0  0  0
  5  6  1  0  0  0  0
  5 14  1  0  0  0  0
  5 15  1  0  0  0  0
  6 16  1  6  0  0  0
  6 36  1  0  0  0  0
  8  2  1  0  0  0  0
  9  2  1  0  0  0  0
 10  3  1  0  0  0  0
 12  4  1  0  0  0  0
 13  4  1  0  0  0  0
 17 22  2  0  0  0  0
 17 18  1  0  0  0  0
 18 23  1  0  0  0  0
 18 19  2  0  0  0  0
 19 24  1  0  0  0  0
 20 19  1  0  0  0  0
 20 25  1  0  0  0  0
 21 26  1  0  0  0  0
 21 20  2  0  0  0  0
 22 21  1  0  0  0  0
 27 28  1  0  0  0  0
 27 33  1  0  0  0  0
 28 34  1  0  0  0  0
 29 17  1  0  0  0  0
 29 28  2  0  0  0  0
 30 29  1  0  0  0  0
 31 30  2  0  0  0  0
 31 32  1  0  0  0  0
 32 27  2  0  0  0  0
 35 31  1  0  0  0  0
 36 37  1  0  0  0  0
 36 42  2  0  0  0  0
 37 38  2  0  0  0  0
 38 40  1  0  0  0  0
 38 39  1  0  0  0  0
 40 41  1  0  0  0  0
 42 40  1  0  0  0  0
M  END
>  <minimizedAffinity>
-5.63513327

$$$$

 OpenBabel03272503543D

 42 45  0  0  1  0  0  0  0  0999 V2000
   38.1210   26.3690   33.1540 C   0  0  1  0  0  0  0  0  0  0  0  0
   38.0820   26.0370   34.6630 C   0  0  0  0  0  0  0  0  0  0  0  0
   38.9490   27.1450   35.2930 C   0  0  0  0  0  0  0  0  0  0  0  0
   40.3630   26.8350   34.9210 C   0  0  0  0  0  0  0  0  0  0  0  0
   40.5090   26.8880   33.4220 C   0  0  0  0  0  0  0  0  0  0  0  0
   39.5110   25.9970   32.7140 C   0  0  2  0  0  0  0  0  0  0  0  0
   37.9360   27.4430   33.1260 H   0  0  0  0  0  0  0  0  0  0  0  0
   37.0790   26.1580   35.0720 H   0  0  0  0  0  0  0  0  0  0  0  0
   38.5690   25.0920   34.8960 H   0  0  0  0  0  0  0  0  0  0  0  0
   38.7810   27.2070   36.3700 H   0  0  0  0  0  0  0  0  0  0  0  0
   38.6220   28.0830   34.7940 H   0  0  0  0  0  0  0  0  0  0  0  0
   40.5490   25.7820   35.2180 H   0  0  0  0  0  0  0  0  0  0  0  0
   41.0980   27.5390   35.3450 H   0  0  0  0  0  0  0  0  0  0  0  0
   40.3210   27.9180   33.0850 H   0  0  0  0  0  0  0  0  0  0  0  0
   41.5280   26.5970   33.1050 H   0  0  0  0  0  0  0  0  0  0  0  0
   39.7450   24.9390   32.8320 H   0  0  0  0  0  0  0  0  0  0  0  0
   36.1360   26.2860   31.6200 C   0  0  0  0  0  0  0  0  0  0  0  0
   35.2130   25.5370   30.9010 C   0  0  0  0  0  0  0  0  0  0  0  0
   35.2170   24.1350   30.9830 C   0  0  0  0  0  0  0  0  0  0  0  0
   36.1710   23.5490   31.7990 C   0  0  0  0  0  0  0  0  0  0  0  0
   37.0850   24.2790   32.5100 C   0  0  0  0  0  0  0  0  0  0  0  0
   37.0630   25.6820   32.4140 C   0  0  0  0  0  0  0  0  0  0  0  0
   34.4650   26.0060   30.2600 H   0  0  0  0  0  0  0  0  0  0  0  0
   34.4720   23.5940   30.3980 H   0  0  0  0  0  0  0  0  0  0  0  0
   36.1180   22.4590   31.8160 H   0  0  0  0  0  0  0  0  0  0  0  0
   37.7510   23.6740   33.0940 H   0  0  0  0  0  0  0  0  0  0  0  0
   35.2990   29.9310   32.1330 C   0  0  0  0  0  0  0  0  0  0  0  0
   35.3430   28.5480   32.3780 C   0  0  0  0  0  0  0  0  0  0  0  0
   36.0110   27.7220   31.4760 C   0  0  0  0  0  0  0  0  0  0  0  0
   36.5740   28.3330   30.4160 N   0  0  0  0  0  0  0  0  0  0  0  0
   36.5320   29.6550   30.1820 C   0  0  0  0  0  0  0  0  0  0  0  0
   35.8970   30.4390   31.0380 N   0  0  0  0  0  0  0  0  0  0  0  0
   34.7720   30.5720   32.8470 H   0  0  0  0  0  0  0  0  0  0  0  0
   34.8840   28.0920   33.2330 H   0  0  0  0  0  0  0  0  0  0  0  0
   37.0150   30.0780   29.2950 H   0  0  0  0  0  0  0  0  0  0  0  0
   39.5720   26.4170   31.2670 C   0  0  0  0  0  0  0  0  0  0  0  0
   39.4970   25.7020   30.1470 N   0  0  0  0  0  0  0  0  0  0  0  0
   39.6100   26.5830   29.1320 C   0  0  0  0  0  0  0  0  0  0  0  0
   39.5830   26.2850   28.0990 H   0  0  0  0  0  0  0  0  0  0  0  0
   39.7560   27.8440   29.6310 N   0  0  0  0  0  0  0  0  0  0  0  0
   39.8640   28.7040   29.0390 H   0  0  0  0  0  0  0  0  0  0  0  0
   39.7300   27.7160   30.9530 N   0  0  0  0  0  0  0  0  0  0  0  0
  1  7  1  6  0  0  0
  1  2  1  0  0  0  0
  2  9  1  0  0  0  0
  2  8  1  0  0  0  0
  2  3  1  0  0  0  0
  3 10  1  0  0  0  0
  4 12  1  0  0  0  0
  4  3  1  0  0  0  0
  4 13  1  0  0  0  0
  5  4  1  0  0  0  0
  6 16  1  1  0  0  0
  6  1  1  0  0  0  0
  6  5  1  0  0  0  0
 11  3  1  0  0  0  0
 14  5  1  0  0  0  0
 15  5  1  0  0  0  0
 17 22  1  0  0  0  0
 18 19  1  0  0  0  0
 18 17  2  0  0  0  0
 19 20  2  0  0  0  0
 20 25  1  0  0  0  0
 20 21  1  0  0  0  0
 21 26  1  0  0  0  0
 22 21  2  0  0  0  0
 22  1  1  0  0  0  0
 23 18  1  0  0  0  0
 24 19  1  0  0  0  0
 27 28  1  0  0  0  0
 27 33  1  0  0  0  0
 28 34  1  0  0  0  0
 29 17  1  0  0  0  0
 29 28  2  0  0  0  0
 30 29  1  0  0  0  0
 31 30  2  0  0  0  0
 31 32  1  0  0  0  0
 32 27  2  0  0  0  0
 35 31  1  0  0  0  0
 36  6  1  0  0  0  0
 37 36  1  0  0  0  0
 38 40  1  0  0  0  0
 38 37  2  0  0  0  0
 39 38  1  0  0  0  0
 40 42  1  0  0  0  0
 41 40  1  0  0  0  0
 42 36  2  0  0  0  0
M  END
>  <minimizedAffinity>
-5.35337114

$$$$

 OpenBabel03272503543D

 42 45  0  0  1  0  0  0  0  0999 V2000
   40.2560   24.6270   34.6900 C   0  0  1  0  0  0  0  0  0  0  0  0
   41.6440   25.2500   34.4240 C   0  0  0  0  0  0  0  0  0  0  0  0
   42.5360   24.0260   34.1370 C   0  0  0  0  0  0  0  0  0  0  0  0
   42.7290   23.3310   35.4460 C   0  0  0  0  0  0  0  0  0  0  0  0
   41.3950   22.8590   35.9640 C   0  0  0  0  0  0  0  0  0  0  0  0
   40.3790   23.9780   36.0430 C   0  0  2  0  0  0  0  0  0  0  0  0
   40.1410   23.9070   33.8790 H   0  0  0  0  0  0  0  0  0  0  0  0
   41.6430   25.8530   33.5150 H   0  0  0  0  0  0  0  0  0  0  0  0
   42.0600   25.7370   35.3040 H   0  0  0  0  0  0  0  0  0  0  0  0
   43.4680   24.3260   33.6560 H   0  0  0  0  0  0  0  0  0  0  0  0
   41.9340   23.3880   33.4530 H   0  0  0  0  0  0  0  0  0  0  0  0
   43.0930   24.0960   36.1630 H   0  0  0  0  0  0  0  0  0  0  0  0
   43.3870   22.4480   35.3870 H   0  0  0  0  0  0  0  0  0  0  0  0
   40.9940   22.1040   35.2720 H   0  0  0  0  0  0  0  0  0  0  0  0
   41.4910   22.3980   36.9650 H   0  0  0  0  0  0  0  0  0  0  0  0
   40.5940   24.6760   36.8510 H   0  0  0  0  0  0  0  0  0  0  0  0
   38.1230   25.5610   33.7530 C   0  0  0  0  0  0  0  0  0  0  0  0
   37.1170   26.5180   33.7980 C   0  0  0  0  0  0  0  0  0  0  0  0
   37.1770   27.5690   34.7280 C   0  0  0  0  0  0  0  0  0  0  0  0
   38.2680   27.6010   35.5810 C   0  0  0  0  0  0  0  0  0  0  0  0
   39.2630   26.6610   35.5440 C   0  0  0  0  0  0  0  0  0  0  0  0
   39.1840   25.6180   34.6060 C   0  0  0  0  0  0  0  0  0  0  0  0
   36.2610   26.4860   33.1230 H   0  0  0  0  0  0  0  0  0  0  0  0
   36.3620   28.2940   34.7220 H   0  0  0  0  0  0  0  0  0  0  0  0
   38.2520   28.4430   36.2760 H   0  0  0  0  0  0  0  0  0  0  0  0
   40.0360   26.8320   36.2690 H   0  0  0  0  0  0  0  0  0  0  0  0
   38.2650   23.5790   30.5430 C   0  0  0  0  0  0  0  0  0  0  0  0
   38.4800   24.6380   31.4420 C   0  0  0  0  0  0  0  0  0  0  0  0
   37.9630   24.5450   32.7330 C   0  0  0  0  0  0  0  0  0  0  0  0
   37.2810   23.4200   33.0200 N   0  0  0  0  0  0  0  0  0  0  0  0
   37.0750   22.4080   32.1610 C   0  0  0  0  0  0  0  0  0  0  0  0
   37.5670   22.4960   30.9340 N   0  0  0  0  0  0  0  0  0  0  0  0
   38.6750   23.6610   29.5310 H   0  0  0  0  0  0  0  0  0  0  0  0
   39.0280   25.5220   31.1810 H   0  0  0  0  0  0  0  0  0  0  0  0
   36.5100   21.5230   32.4680 H   0  0  0  0  0  0  0  0  0  0  0  0
   39.0540   23.2870   36.2500 C   0  0  0  0  0  0  0  0  0  0  0  0
   38.0110   23.6100   37.0100 N   0  0  0  0  0  0  0  0  0  0  0  0
   37.0920   22.6410   36.8180 C   0  0  0  0  0  0  0  0  0  0  0  0
   36.1370   22.6410   37.3110 H   0  0  0  0  0  0  0  0  0  0  0  0
   37.5740   21.7190   35.9360 N   0  0  0  0  0  0  0  0  0  0  0  0
   37.0450   20.8670   35.6250 H   0  0  0  0  0  0  0  0  0  0  0  0
   38.7890   22.1390   35.5990 N   0  0  0  0  0  0  0  0  0  0  0  0
  1  7  1  6  0  0  0
  1  6  1  0  0  0  0
  2  1  1  0  0  0  0
  2  9  1  0  0  0  0
  3  2  1  0  0  0  0
  3  4  1  0  0  0  0
  4  5  1  0  0  0  0
  4 12  1  0  0  0  0
  5  6  1  0  0  0  0
  5 15  1  0  0  0  0
  6 36  1  0  0  0  0
  6 16  1  1  0  0  0
  8  2  1  0  0  0  0
 10  3  1  0  0  0  0
 11  3  1  0  0  0  0
 13  4  1  0  0  0  0
 14  5  1  0  0  0  0
 17 18  2  0  0  0  0
 17 22  1  0  0  0  0
 18 19  1  0  0  0  0
 19 20  2  0  0  0  0
 20 25  1  0  0  0  0
 21 20  1  0  0  0  0
 21 26  1  0  0  0  0
 22  1  1  0  0  0  0
 22 21  2  0  0  0  0
 23 18  1  0  0  0  0
 24 19  1  0  0  0  0
 27 32  2  0  0  0  0
 27 28  1  0  0  0  0
 28 29  2  0  0  0  0
 29 30  1  0  0  0  0
 29 17  1  0  0  0  0
 31 35  1  0  0  0  0
 31 30  2  0  0  0  0
 32 31  1  0  0  0  0
 33 27  1  0  0  0  0
 34 28  1  0  0  0  0
 36 37  1  0  0  0  0
 38 37  2  0  0  0  0
 38 39  1  0  0  0  0
 40 38  1  0  0  0  0
 41 40  1  0  0  0  0
 42 40  1  0  0  0  0
 42 36  2  0  0  0  0
M  END
>  <minimizedAffinity>
-5.32402325

$$$$

 OpenBabel03272503543D

 42 45  0  0  1  0  0  0  0  0999 V2000
   38.6600   26.6800   33.5320 C   0  0  1  0  0  0  0  0  0  0  0  0
   39.4440   27.0310   34.8160 C   0  0  0  0  0  0  0  0  0  0  0  0
   40.7250   26.1820   34.6950 C   0  0  0  0  0  0  0  0  0  0  0  0
   40.3140   24.7660   34.9340 C   0  0  0  0  0  0  0  0  0  0  0  0
   39.3390   24.3400   33.8660 C   0  0  0  0  0  0  0  0  0  0  0  0
   38.1560   25.2790   33.7600 C   0  0  2  0  0  0  0  0  0  0  0  0
   39.4160   26.7410   32.7480 H   0  0  0  0  0  0  0  0  0  0  0  0
   39.7620   28.0740   34.8170 H   0  0  0  0  0  0  0  0  0  0  0  0
   38.9360   26.6990   35.7200 H   0  0  0  0  0  0  0  0  0  0  0  0
   41.4960   26.5390   35.3800 H   0  0  0  0  0  0  0  0  0  0  0  0
   41.0540   26.3100   33.6400 H   0  0  0  0  0  0  0  0  0  0  0  0
   39.7570   24.7510   35.8930 H   0  0  0  0  0  0  0  0  0  0  0  0
   41.1540   24.0500   34.9110 H   0  0  0  0  0  0  0  0  0  0  0  0
   39.8520   24.3520   32.8930 H   0  0  0  0  0  0  0  0  0  0  0  0
   38.9610   23.3170   34.0490 H   0  0  0  0  0  0  0  0  0  0  0  0
   37.4760   25.1850   34.6050 H   0  0  0  0  0  0  0  0  0  0  0  0
   37.3870   28.2570   32.0530 C   0  0  0  0  0  0  0  0  0  0  0  0
   36.3080   29.1140   31.8680 C   0  0  0  0  0  0  0  0  0  0  0  0
   35.4170   29.3710   32.9220 C   0  0  0  0  0  0  0  0  0  0  0  0
   35.6620   28.7400   34.1310 C   0  0  0  0  0  0  0  0  0  0  0  0
   36.7210   27.8940   34.3210 C   0  0  0  0  0  0  0  0  0  0  0  0
   37.6020   27.6500   33.2520 C   0  0  0  0  0  0  0  0  0  0  0  0
   36.1220   29.6070   30.9130 H   0  0  0  0  0  0  0  0  0  0  0  0
   34.5860   30.0510   32.7250 H   0  0  0  0  0  0  0  0  0  0  0  0
   34.9320   28.9840   34.9040 H   0  0  0  0  0  0  0  0  0  0  0  0
   36.7700   27.4900   35.3140 H   0  0  0  0  0  0  0  0  0  0  0  0
   38.7700   28.0750   28.5450 C   0  0  0  0  0  0  0  0  0  0  0  0
   37.8340   28.2490   29.5790 C   0  0  0  0  0  0  0  0  0  0  0  0
   38.2490   28.0950   30.9010 C   0  0  0  0  0  0  0  0  0  0  0  0
   39.5470   27.7830   31.0830 N   0  0  0  0  0  0  0  0  0  0  0  0
   40.4410   27.6170   30.0950 C   0  0  0  0  0  0  0  0  0  0  0  0
   40.0470   27.7630   28.8400 N   0  0  0  0  0  0  0  0  0  0  0  0
   38.4360   28.1980   27.5100 H   0  0  0  0  0  0  0  0  0  0  0  0
   36.8070   28.4970   29.4000 H   0  0  0  0  0  0  0  0  0  0  0  0
   41.4810   27.3630   30.3230 H   0  0  0  0  0  0  0  0  0  0  0  0
   37.4800   24.9080   32.4640 C   0  0  0  0  0  0  0  0  0  0  0  0
   36.1910   24.8190   32.1470 N   0  0  0  0  0  0  0  0  0  0  0  0
   36.1480   24.4450   30.8510 C   0  0  0  0  0  0  0  0  0  0  0  0
   35.2250   24.2940   30.3210 H   0  0  0  0  0  0  0  0  0  0  0  0
   37.4170   24.3040   30.3710 N   0  0  0  0  0  0  0  0  0  0  0  0
   37.6470   24.0180   29.3870 H   0  0  0  0  0  0  0  0  0  0  0  0
   38.2240   24.5940   31.3860 N   0  0  0  0  0  0  0  0  0  0  0  0
  1  7  1  6  0  0  0
  1  6  1  0  0  0  0
  1  2  1  0  0  0  0
  2  8  1  0  0  0  0
  2  9  1  0  0  0  0
  3  2  1  0  0  0  0
  3  4  1  0  0  0  0
  3 10  1  0  0  0  0
  4 12  1  0  0  0  0
  5 15  1  0  0  0  0
  5  4  1  0  0  0  0
  6  5  1  0  0  0  0
  6 16  1  1  0  0  0
 11  3  1  0  0  0  0
 13  4  1  0  0  0  0
 14  5  1  0  0  0  0
 17 22  1  0  0  0  0
 18 17  2  0  0  0  0
 18 19  1  0  0  0  0
 19 20  2  0  0  0  0
 20 21  1  0  0  0  0
 20 25  1  0  0  0  0
 21 26  1  0  0  0  0
 22  1  1  0  0  0  0
 22 21  2  0  0  0  0
 23 18  1  0  0  0  0
 24 19  1  0  0  0  0
 27 32  2  0  0  0  0
 27 28  1  0  0  0  0
 28 29  2  0  0  0  0
 29 30  1  0  0  0  0
 29 17  1  0  0  0  0
 31 35  1  0  0  0  0
 31 30  2  0  0  0  0
 32 31  1  0  0  0  0
 33 27  1  0  0  0  0
 34 28  1  0  0  0  0
 36  6  1  0  0  0  0
 37 36  1  0  0  0  0
 38 37  2  0  0  0  0
 39 38  1  0  0  0  0
 40 38  1  0  0  0  0
 40 42  1  0  0  0  0
 41 40  1  0  0  0  0
 42 36  2  0  0  0  0
M  END
>  <minimizedAffinity>
-5.20534515

$$$$

 OpenBabel03272503543D

 42 45  0  0  1  0  0  0  0  0999 V2000
   40.6100   24.9380   33.8360 C   0  0  1  0  0  0  0  0  0  0  0  0
   41.9240   24.4980   33.1510 C   0  0  0  0  0  0  0  0  0  0  0  0
   43.0140   25.1730   34.0060 C   0  0  0  0  0  0  0  0  0  0  0  0
   42.9500   26.6320   33.6940 C   0  0  0  0  0  0  0  0  0  0  0  0
   41.6020   27.1720   34.0990 C   0  0  0  0  0  0  0  0  0  0  0  0
   40.4600   26.3930   33.4810 C   0  0  2  0  0  0  0  0  0  0  0  0
   40.8090   24.7740   34.8960 H   0  0  0  0  0  0  0  0  0  0  0  0
   42.0800   23.4230   33.2420 H   0  0  0  0  0  0  0  0  0  0  0  0
   42.0250   24.9000   32.1450 H   0  0  0  0  0  0  0  0  0  0  0  0
   43.9910   24.7250   33.8170 H   0  0  0  0  0  0  0  0  0  0  0  0
   42.7030   24.9960   35.0590 H   0  0  0  0  0  0  0  0  0  0  0  0
   43.0070   26.7270   32.5900 H   0  0  0  0  0  0  0  0  0  0  0  0
   43.7120   27.2330   34.2180 H   0  0  0  0  0  0  0  0  0  0  0  0
   41.5010   27.0870   35.1910 H   0  0  0  0  0  0  0  0  0  0  0  0
   41.4930   28.2380   33.8210 H   0  0  0  0  0  0  0  0  0  0  0  0
   40.3620   26.5810   32.4130 H   0  0  0  0  0  0  0  0  0  0  0  0
   38.6310   23.4580   34.2750 C   0  0  0  0  0  0  0  0  0  0  0  0
   37.5370   22.7530   33.7900 C   0  0  0  0  0  0  0  0  0  0  0  0
   37.2810   22.6980   32.4100 C   0  0  0  0  0  0  0  0  0  0  0  0
   38.1570   23.3710   31.5740 C   0  0  0  0  0  0  0  0  0  0  0  0
   39.2370   24.0690   32.0430 C   0  0  0  0  0  0  0  0  0  0  0  0
   39.4750   24.1110   33.4280 C   0  0  0  0  0  0  0  0  0  0  0  0
   36.8510   22.2250   34.4550 H   0  0  0  0  0  0  0  0  0  0  0  0
   36.4080   22.1310   32.0820 H   0  0  0  0  0  0  0  0  0  0  0  0
   37.8990   23.2870   30.5170 H   0  0  0  0  0  0  0  0  0  0  0  0
   39.8150   24.5300   31.2660 H   0  0  0  0  0  0  0  0  0  0  0  0
   39.8670   22.7280   37.7660 C   0  0  0  0  0  0  0  0  0  0  0  0
   39.7940   22.6810   36.3630 C   0  0  0  0  0  0  0  0  0  0  0  0
   38.8050   23.4150   35.7120 C   0  0  0  0  0  0  0  0  0  0  0  0
   37.9780   24.1280   36.5010 N   0  0  0  0  0  0  0  0  0  0  0  0
   38.0470   24.1730   37.8410 C   0  0  0  0  0  0  0  0  0  0  0  0
   38.9870   23.4760   38.4600 N   0  0  0  0  0  0  0  0  0  0  0  0
   40.6470   22.1490   38.2690 H   0  0  0  0  0  0  0  0  0  0  0  0
   40.4690   22.1030   35.7640 H   0  0  0  0  0  0  0  0  0  0  0  0
   37.3370   24.7770   38.4150 H   0  0  0  0  0  0  0  0  0  0  0  0
   39.2330   26.8390   34.2360 C   0  0  0  0  0  0  0  0  0  0  0  0
   37.9870   27.0590   33.8220 N   0  0  0  0  0  0  0  0  0  0  0  0
   37.2920   27.4440   34.9130 C   0  0  0  0  0  0  0  0  0  0  0  0
   36.2460   27.6900   34.8770 H   0  0  0  0  0  0  0  0  0  0  0  0
   38.1150   27.4610   36.0000 N   0  0  0  0  0  0  0  0  0  0  0  0
   37.8090   27.7280   36.9680 H   0  0  0  0  0  0  0  0  0  0  0  0
   39.3100   27.0840   35.5570 N   0  0  0  0  0  0  0  0  0  0  0  0
  1  7  1  1  0  0  0
  2  8  1  0  0  0  0
  2  1  1  0  0  0  0
  2  3  1  0  0  0  0
  3 11  1  0  0  0  0
  4  3  1  0  0  0  0
  4  5  1  0  0  0  0
  4 13  1  0  0  0  0
  5 14  1  0  0  0  0
  6 16  1  6  0  0  0
  6  1  1  0  0  0  0
  6  5  1  0  0  0  0
  6 36  1  0  0  0  0
  9  2  1  0  0  0  0
 10  3  1  0  0  0  0
 12  4  1  0  0  0  0
 15  5  1  0  0  0  0
 17 29  1  0  0  0  0
 18 17  1  0  0  0  0
 18 23  1  0  0  0  0
 19 18  2  0  0  0  0
 20 21  2  0  0  0  0
 20 19  1  0  0  0  0
 21 22  1  0  0  0  0
 22  1  1  0  0  0  0
 22 17  2  0  0  0  0
 24 19  1  0  0  0  0
 25 20  1  0  0  0  0
 26 21  1  0  0  0  0
 27 33  1  0  0  0  0
 27 32  1  0  0  0  0
 28 27  2  0  0  0  0
 29 28  1  0  0  0  0
 29 30  2  0  0  0  0
 30 31  1  0  0  0  0
 31 35  1  0  0  0  0
 31 32  2  0  0  0  0
 34 28  1  0  0  0  0
 36 42  2  0  0  0  0
 37 36  1  0  0  0  0
 37 38  2  0  0  0  0
 38 40  1  0  0  0  0
 39 38  1  0  0  0  0
 40 41  1  0  0  0  0
 42 40  1  0  0  0  0
M  END
>  <minimizedAffinity>
-5.18419123

$$$$

 OpenBabel03272503543D

 42 45  0  0  1  0  0  0  0  0999 V2000
   38.4230   26.5320   34.2510 C   0  0  1  0  0  0  0  0  0  0  0  0
   38.1160   27.8300   35.0310 C   0  0  0  0  0  0  0  0  0  0  0  0
   36.5820   27.9520   34.9300 C   0  0  0  0  0  0  0  0  0  0  0  0
   36.2830   28.3330   33.5170 C   0  0  0  0  0  0  0  0  0  0  0  0
   36.7510   27.2400   32.5930 C   0  0  0  0  0  0  0  0  0  0  0  0
   38.2100   26.8910   32.8050 C   0  0  2  0  0  0  0  0  0  0  0  0
   37.6830   25.8270   34.6310 H   0  0  0  0  0  0  0  0  0  0  0  0
   38.3500   27.7250   36.0900 H   0  0  0  0  0  0  0  0  0  0  0  0
   38.5300   28.7140   34.5480 H   0  0  0  0  0  0  0  0  0  0  0  0
   36.1980   28.6580   35.6680 H   0  0  0  0  0  0  0  0  0  0  0  0
   36.2000   26.9280   35.1370 H   0  0  0  0  0  0  0  0  0  0  0  0
   36.9020   29.2250   33.2880 H   0  0  0  0  0  0  0  0  0  0  0  0
   35.2090   28.4900   33.3180 H   0  0  0  0  0  0  0  0  0  0  0  0
   36.1670   26.3300   32.7960 H   0  0  0  0  0  0  0  0  0  0  0  0
   36.6070   27.5170   31.5320 H   0  0  0  0  0  0  0  0  0  0  0  0
   38.8780   27.6690   32.4390 H   0  0  0  0  0  0  0  0  0  0  0  0
   40.0470   24.7710   35.0000 C   0  0  0  0  0  0  0  0  0  0  0  0
   41.3610   24.3570   35.1790 C   0  0  0  0  0  0  0  0  0  0  0  0
   42.4260   25.2260   34.8900 C   0  0  0  0  0  0  0  0  0  0  0  0
   42.1050   26.4920   34.4260 C   0  0  0  0  0  0  0  0  0  0  0  0
   40.8130   26.9070   34.2470 C   0  0  0  0  0  0  0  0  0  0  0  0
   39.7630   26.0210   34.5410 C   0  0  0  0  0  0  0  0  0  0  0  0
   41.6060   23.3590   35.5440 H   0  0  0  0  0  0  0  0  0  0  0  0
   43.4390   24.8520   35.0470 H   0  0  0  0  0  0  0  0  0  0  0  0
   42.9790   27.1140   34.2220 H   0  0  0  0  0  0  0  0  0  0  0  0
   40.7380   27.9150   33.8840 H   0  0  0  0  0  0  0  0  0  0  0  0
   37.3890   22.7860   36.8020 C   0  0  0  0  0  0  0  0  0  0  0  0
   38.3560   23.7810   36.5740 C   0  0  0  0  0  0  0  0  0  0  0  0
   39.0390   23.7950   35.3600 C   0  0  0  0  0  0  0  0  0  0  0  0
   38.7100   22.8280   34.4820 N   0  0  0  0  0  0  0  0  0  0  0  0
   37.7870   21.8770   34.6990 C   0  0  0  0  0  0  0  0  0  0  0  0
   37.1380   21.8640   35.8530 N   0  0  0  0  0  0  0  0  0  0  0  0
   36.8580   22.7820   37.7590 H   0  0  0  0  0  0  0  0  0  0  0  0
   38.5950   24.5380   37.2950 H   0  0  0  0  0  0  0  0  0  0  0  0
   37.5740   21.1230   33.9350 H   0  0  0  0  0  0  0  0  0  0  0  0
   38.4120   25.5940   32.0620 C   0  0  0  0  0  0  0  0  0  0  0  0
   39.4380   25.1560   31.3360 N   0  0  0  0  0  0  0  0  0  0  0  0
   39.0890   23.9280   30.8990 C   0  0  0  0  0  0  0  0  0  0  0  0
   39.7340   23.3280   30.2820 H   0  0  0  0  0  0  0  0  0  0  0  0
   37.8450   23.6120   31.3570 N   0  0  0  0  0  0  0  0  0  0  0  0
   37.3520   22.7090   31.1510 H   0  0  0  0  0  0  0  0  0  0  0  0
   37.4450   24.6580   32.0740 N   0  0  0  0  0  0  0  0  0  0  0  0
  1 22  1  0  0  0  0
  1  7  1  1  0  0  0
  1  2  1  0  0  0  0
  2  8  1  0  0  0  0
  3  2  1  0  0  0  0
  3 11  1  0  0  0  0
  3 10  1  0  0  0  0
  4  3  1  0  0  0  0
  5 14  1  0  0  0  0
  5  6  1  0  0  0  0
  5  4  1  0  0  0  0
  6 16  1  6  0  0  0
  6  1  1  0  0  0  0
  9  2  1  0  0  0  0
 12  4  1  0  0  0  0
 13  4  1  0  0  0  0
 15  5  1  0  0  0  0
 17 18  1  0  0  0  0
 17 29  1  0  0  0  0
 18 23  1  0  0  0  0
 19 24  1  0  0  0  0
 19 18  2  0  0  0  0
 20 19  1  0  0  0  0
 21 20  2  0  0  0  0
 21 22  1  0  0  0  0
 22 17  2  0  0  0  0
 25 20  1  0  0  0  0
 26 21  1  0  0  0  0
 27 33  1  0  0  0  0
 28 27  1  0  0  0  0
 28 34  1  0  0  0  0
 29 28  2  0  0  0  0
 30 31  2  0  0  0  0
 30 29  1  0  0  0  0
 31 32  1  0  0  0  0
 32 27  2  0  0  0  0
 35 31  1  0  0  0  0
 36 42  2  0  0  0  0
 36  6  1  0  0  0  0
 37 36  1  0  0  0  0
 38 37  2  0  0  0  0
 38 40  1  0  0  0  0
 39 38  1  0  0  0  0
 40 42  1  0  0  0  0
 41 40  1  0  0  0  0
M  END
>  <minimizedAffinity>
-5.074965

$$$$

 OpenBabel03272503543D

 42 45  0  0  1  0  0  0  0  0999 V2000
   38.9920   26.3830   33.1620 C   0  0  1  0  0  0  0  0  0  0  0  0
   39.8930   27.0680   34.2140 C   0  0  0  0  0  0  0  0  0  0  0  0
   39.1620   26.7920   35.5430 C   0  0  0  0  0  0  0  0  0  0  0  0
   37.9420   27.6560   35.5380 C   0  0  0  0  0  0  0  0  0  0  0  0
   37.0490   27.2540   34.3920 C   0  0  0  0  0  0  0  0  0  0  0  0
   37.7760   27.2650   33.0640 C   0  0  2  0  0  0  0  0  0  0  0  0
   38.7800   25.4090   33.6050 H   0  0  0  0  0  0  0  0  0  0  0  0
   40.8640   26.5780   34.2870 H   0  0  0  0  0  0  0  0  0  0  0  0
   39.9250   28.1500   34.0960 H   0  0  0  0  0  0  0  0  0  0  0  0
   39.8210   26.9670   36.3950 H   0  0  0  0  0  0  0  0  0  0  0  0
   38.8690   25.7210   35.4920 H   0  0  0  0  0  0  0  0  0  0  0  0
   38.2820   28.6900   35.3240 H   0  0  0  0  0  0  0  0  0  0  0  0
   37.3410   27.5810   36.4600 H   0  0  0  0  0  0  0  0  0  0  0  0
   36.6970   26.2250   34.5610 H   0  0  0  0  0  0  0  0  0  0  0  0
   36.1660   27.9170   34.3160 H   0  0  0  0  0  0  0  0  0  0  0  0
   37.9880   28.2750   32.7180 H   0  0  0  0  0  0  0  0  0  0  0  0
   39.9360   24.9850   31.3050 C   0  0  0  0  0  0  0  0  0  0  0  0
   40.5410   24.9080   30.0560 C   0  0  0  0  0  0  0  0  0  0  0  0
   40.9080   26.0780   29.3710 C   0  0  0  0  0  0  0  0  0  0  0  0
   40.6400   27.2880   29.9920 C   0  0  0  0  0  0  0  0  0  0  0  0
   40.0440   27.3720   31.2210 C   0  0  0  0  0  0  0  0  0  0  0  0
   39.6850   26.1890   31.8890 C   0  0  0  0  0  0  0  0  0  0  0  0
   40.7480   23.9520   29.5740 H   0  0  0  0  0  0  0  0  0  0  0  0
   41.3790   25.9640   28.3940 H   0  0  0  0  0  0  0  0  0  0  0  0
   40.9510   28.1550   29.4050 H   0  0  0  0  0  0  0  0  0  0  0  0
   39.9110   28.3820   31.5610 H   0  0  0  0  0  0  0  0  0  0  0  0
   39.9320   21.9270   33.5190 C   0  0  0  0  0  0  0  0  0  0  0  0
   40.3300   23.1720   33.0010 C   0  0  0  0  0  0  0  0  0  0  0  0
   39.6320   23.7100   31.9210 C   0  0  0  0  0  0  0  0  0  0  0  0
   38.6080   22.9730   31.4500 N   0  0  0  0  0  0  0  0  0  0  0  0
   38.2270   21.7840   31.9440 C   0  0  0  0  0  0  0  0  0  0  0  0
   38.8900   21.2730   32.9700 N   0  0  0  0  0  0  0  0  0  0  0  0
   40.4850   21.5120   34.3670 H   0  0  0  0  0  0  0  0  0  0  0  0
   41.1510   23.7330   33.4000 H   0  0  0  0  0  0  0  0  0  0  0  0
   37.3820   21.2440   31.5060 H   0  0  0  0  0  0  0  0  0  0  0  0
   36.8590   26.5370   32.1130 C   0  0  0  0  0  0  0  0  0  0  0  0
   36.3250   25.3200   32.1760 N   0  0  0  0  0  0  0  0  0  0  0  0
   35.5840   25.1770   31.0580 C   0  0  0  0  0  0  0  0  0  0  0  0
   35.0310   24.2820   30.8390 H   0  0  0  0  0  0  0  0  0  0  0  0
   35.6650   26.3110   30.3050 N   0  0  0  0  0  0  0  0  0  0  0  0
   35.1750   26.4460   29.3860 H   0  0  0  0  0  0  0  0  0  0  0  0
   36.4590   27.1380   30.9770 N   0  0  0  0  0  0  0  0  0  0  0  0
  1  7  1  1  0  0  0
  1  2  1  0  0  0  0
  2  8  1  0  0  0  0
  2  3  1  0  0  0  0
  3 10  1  0  0  0  0
  4  3  1  0  0  0  0
  4 13  1  0  0  0  0
  5 14  1  0  0  0  0
  5  4  1  0  0  0  0
  6 16  1  6  0  0  0
  6  1  1  0  0  0  0
  6  5  1  0  0  0  0
  9  2  1  0  0  0  0
 11  3  1  0  0  0  0
 12  4  1  0  0  0  0
 15  5  1  0  0  0  0
 17 22  1  0  0  0  0
 17 29  1  0  0  0  0
 18 17  2  0  0  0  0
 19 20  2  0  0  0  0
 19 18  1  0  0  0  0
 20 21  1  0  0  0  0
 21 26  1  0  0  0  0
 21 22  2  0  0  0  0
 22  1  1  0  0  0  0
 23 18  1  0  0  0  0
 24 19  1  0  0  0  0
 25 20  1  0  0  0  0
 27 33  1  0  0  0  0
 28 34  1  0  0  0  0
 28 27  1  0  0  0  0
 29 28  2  0  0  0  0
 30 29  1  0  0  0  0
 30 31  2  0  0  0  0
 31 32  1  0  0  0  0
 32 27  2  0  0  0  0
 35 31  1  0  0  0  0
 36 37  1  0  0  0  0
 36  6  1  0  0  0  0
 38 37  2  0  0  0  0
 39 38  1  0  0  0  0
 40 42  1  0  0  0  0
 40 38  1  0  0  0  0
 41 40  1  0  0  0  0
 42 36  2  0  0  0  0
M  END
>  <minimizedAffinity>
-5.04709339

$$$$

 OpenBabel03272503543D

 42 45  0  0  1  0  0  0  0  0999 V2000
   40.8220   23.2970   35.3270 C   0  0  1  0  0  0  0  0  0  0  0  0
   42.2280   23.1890   35.9590 C   0  0  0  0  0  0  0  0  0  0  0  0
   43.1690   23.1880   34.7380 C   0  0  0  0  0  0  0  0  0  0  0  0
   42.9980   21.8590   34.0770 C   0  0  0  0  0  0  0  0  0  0  0  0
   41.5760   21.7140   33.6030 C   0  0  0  0  0  0  0  0  0  0  0  0
   40.5720   21.9460   34.7130 C   0  0  2  0  0  0  0  0  0  0  0  0
   40.9370   24.0900   34.5870 H   0  0  0  0  0  0  0  0  0  0  0  0
   42.4740   24.0780   36.5400 H   0  0  0  0  0  0  0  0  0  0  0  0
   42.3840   22.2410   36.4720 H   0  0  0  0  0  0  0  0  0  0  0  0
   44.1960   23.4030   35.0370 H   0  0  0  0  0  0  0  0  0  0  0  0
   42.7800   23.9940   34.0770 H   0  0  0  0  0  0  0  0  0  0  0  0
   43.1480   21.0890   34.8620 H   0  0  0  0  0  0  0  0  0  0  0  0
   43.6510   21.7130   33.2000 H   0  0  0  0  0  0  0  0  0  0  0  0
   41.3820   22.4700   32.8270 H   0  0  0  0  0  0  0  0  0  0  0  0
   41.3940   20.7130   33.1670 H   0  0  0  0  0  0  0  0  0  0  0  0
   40.5550   21.1280   35.4310 H   0  0  0  0  0  0  0  0  0  0  0  0
   38.8900   24.6850   36.1250 C   0  0  0  0  0  0  0  0  0  0  0  0
   37.9220   24.9440   37.0880 C   0  0  0  0  0  0  0  0  0  0  0  0
   37.8790   24.1890   38.2720 C   0  0  0  0  0  0  0  0  0  0  0  0
   38.8290   23.1930   38.4270 C   0  0  0  0  0  0  0  0  0  0  0  0
   39.7850   22.9310   37.4820 C   0  0  0  0  0  0  0  0  0  0  0  0
   39.8110   23.6980   36.3040 C   0  0  0  0  0  0  0  0  0  0  0  0
   37.1770   25.7300   36.9600 H   0  0  0  0  0  0  0  0  0  0  0  0
   37.1000   24.4330   38.9960 H   0  0  0  0  0  0  0  0  0  0  0  0
   38.7380   22.6470   39.3680 H   0  0  0  0  0  0  0  0  0  0  0  0
   40.4450   22.1300   37.7570 H   0  0  0  0  0  0  0  0  0  0  0  0
   39.7290   27.1820   33.4220 C   0  0  0  0  0  0  0  0  0  0  0  0
   39.8840   26.3980   34.5780 C   0  0  0  0  0  0  0  0  0  0  0  0
   38.8490   25.5480   34.9630 C   0  0  0  0  0  0  0  0  0  0  0  0
   37.7560   25.5480   34.1760 N   0  0  0  0  0  0  0  0  0  0  0  0
   37.6080   26.2970   33.0710 C   0  0  0  0  0  0  0  0  0  0  0  0
   38.5910   27.1050   32.7050 N   0  0  0  0  0  0  0  0  0  0  0  0
   40.5470   27.8470   33.1270 H   0  0  0  0  0  0  0  0  0  0  0  0
   40.7680   26.4220   35.1840 H   0  0  0  0  0  0  0  0  0  0  0  0
   36.6880   26.2420   32.4810 H   0  0  0  0  0  0  0  0  0  0  0  0
   39.2440   22.0920   34.0120 C   0  0  0  0  0  0  0  0  0  0  0  0
   38.0280   21.6740   34.3530 N   0  0  0  0  0  0  0  0  0  0  0  0
   37.2030   22.0750   33.3630 C   0  0  0  0  0  0  0  0  0  0  0  0
   36.1470   21.8740   33.3710 H   0  0  0  0  0  0  0  0  0  0  0  0
   37.9160   22.7410   32.4110 N   0  0  0  0  0  0  0  0  0  0  0  0
   37.4990   23.1510   31.5390 H   0  0  0  0  0  0  0  0  0  0  0  0
   39.1760   22.7390   32.8340 N   0  0  0  0  0  0  0  0  0  0  0  0
  1  7  1  6  0  0  0
  1  2  1  0  0  0  0
  1 22  1  0  0  0  0
  2  9  1  0  0  0  0
  2  8  1  0  0  0  0
  3 10  1  0  0  0  0
  3  2  1  0  0  0  0
  4  3  1  0  0  0  0
  4 12  1  0  0  0  0
  5  4  1  0  0  0  0
  5  6  1  0  0  0  0
  6  1  1  0  0  0  0
  6 16  1  1  0  0  0
 11  3  1  0  0  0  0
 13  4  1  0  0  0  0
 14  5  1  0  0  0  0
 15  5  1  0  0  0  0
 17 22  2  0  0  0  0
 17 18  1  0  0  0  0
 18 19  2  0  0  0  0
 19 20  1  0  0  0  0
 19 24  1  0  0  0  0
 20 25  1  0  0  0  0
 21 26  1  0  0  0  0
 21 20  2  0  0  0  0
 22 21  1  0  0  0  0
 23 18  1  0  0  0  0
 27 28  1  0  0  0  0
 28 29  2  0  0  0  0
 28 34  1  0  0  0  0
 29 17  1  0  0  0  0
 30 29  1  0  0  0  0
 31 30  2  0  0  0  0
 32 31  1  0  0  0  0
 32 27  2  0  0  0  0
 33 27  1  0  0  0  0
 35 31  1  0  0  0  0
 36 37  1  0  0  0  0
 36  6  1  0  0  0  0
 38 39  1  0  0  0  0
 38 37  2  0  0  0  0
 40 42  1  0  0  0  0
 40 38  1  0  0  0  0
 41 40  1  0  0  0  0
 42 36  2  0  0  0  0
M  END
>  <minimizedAffinity>
-5.03492928

$$$$

 OpenBabel03272503543D

 42 45  0  0  1  0  0  0  0  0999 V2000
   38.5000   26.4260   33.6210 C   0  0  1  0  0  0  0  0  0  0  0  0
   39.2830   27.2510   34.6670 C   0  0  0  0  0  0  0  0  0  0  0  0
   38.2550   27.4590   35.7980 C   0  0  0  0  0  0  0  0  0  0  0  0
   37.2550   28.4400   35.2810 C   0  0  0  0  0  0  0  0  0  0  0  0
   36.5540   27.8570   34.0810 C   0  0  0  0  0  0  0  0  0  0  0  0
   37.5260   27.3980   33.0140 C   0  0  2  0  0  0  0  0  0  0  0  0
   38.0170   25.6520   34.2190 H   0  0  0  0  0  0  0  0  0  0  0  0
   40.1040   26.6770   35.0960 H   0  0  0  0  0  0  0  0  0  0  0  0
   39.5480   28.2420   34.3030 H   0  0  0  0  0  0  0  0  0  0  0  0
   38.7480   27.7760   36.7190 H   0  0  0  0  0  0  0  0  0  0  0  0
   37.7770   26.4650   35.9360 H   0  0  0  0  0  0  0  0  0  0  0  0
   37.8260   29.3190   34.9150 H   0  0  0  0  0  0  0  0  0  0  0  0
   36.4750   28.7080   36.0140 H   0  0  0  0  0  0  0  0  0  0  0  0
   35.9820   26.9730   34.4000 H   0  0  0  0  0  0  0  0  0  0  0  0
   35.8520   28.5830   33.6290 H   0  0  0  0  0  0  0  0  0  0  0  0
   37.9970   28.2340   32.4980 H   0  0  0  0  0  0  0  0  0  0  0  0
   39.7950   24.4930   32.6790 C   0  0  0  0  0  0  0  0  0  0  0  0
   40.5850   23.9650   31.6650 C   0  0  0  0  0  0  0  0  0  0  0  0
   40.9810   24.7680   30.5830 C   0  0  0  0  0  0  0  0  0  0  0  0
   40.5530   26.0850   30.5780 C   0  0  0  0  0  0  0  0  0  0  0  0
   39.7740   26.6120   31.5730 C   0  0  0  0  0  0  0  0  0  0  0  0
   39.3880   25.7920   32.6470 C   0  0  0  0  0  0  0  0  0  0  0  0
   40.9190   22.9270   31.6760 H   0  0  0  0  0  0  0  0  0  0  0  0
   41.6010   24.3050   29.8130 H   0  0  0  0  0  0  0  0  0  0  0  0
   40.8970   26.6510   29.7100 H   0  0  0  0  0  0  0  0  0  0  0  0
   39.5310   27.6470   31.4190 H   0  0  0  0  0  0  0  0  0  0  0  0
   38.1120   21.9630   34.9190 C   0  0  0  0  0  0  0  0  0  0  0  0
   38.3020   22.8290   33.8290 C   0  0  0  0  0  0  0  0  0  0  0  0
   39.4770   23.5750   33.7540 C   0  0  0  0  0  0  0  0  0  0  0  0
   40.3560   23.4000   34.7590 N   0  0  0  0  0  0  0  0  0  0  0  0
   40.1750   22.5720   35.8010 C   0  0  0  0  0  0  0  0  0  0  0  0
   39.0590   21.8640   35.8720 N   0  0  0  0  0  0  0  0  0  0  0  0
   37.1870   21.3810   34.9700 H   0  0  0  0  0  0  0  0  0  0  0  0
   37.5810   22.9450   33.0440 H   0  0  0  0  0  0  0  0  0  0  0  0
   40.9380   22.4840   36.5800 H   0  0  0  0  0  0  0  0  0  0  0  0
   36.6990   26.5620   32.0690 C   0  0  0  0  0  0  0  0  0  0  0  0
   36.2700   25.3060   32.1640 N   0  0  0  0  0  0  0  0  0  0  0  0
   35.5730   25.0620   31.0350 C   0  0  0  0  0  0  0  0  0  0  0  0
   35.1040   24.1150   30.8360 H   0  0  0  0  0  0  0  0  0  0  0  0
   35.5750   26.1720   30.2440 N   0  0  0  0  0  0  0  0  0  0  0  0
   35.1000   26.2320   29.3090 H   0  0  0  0  0  0  0  0  0  0  0  0
   36.2780   27.0870   30.9030 N   0  0  0  0  0  0  0  0  0  0  0  0
  1  7  1  1  0  0  0
  1  2  1  0  0  0  0
  2  8  1  0  0  0  0
  2  3  1  0  0  0  0
  3 11  1  0  0  0  0
  3 10  1  0  0  0  0
  4  3  1  0  0  0  0
  4 13  1  0  0  0  0
  5 14  1  0  0  0  0
  5  4  1  0  0  0  0
  6 16  1  6  0  0  0
  6  1  1  0  0  0  0
  6  5  1  0  0  0  0
  9  2  1  0  0  0  0
 12  4  1  0  0  0  0
 15  5  1  0  0  0  0
 17 29  1  0  0  0  0
 18 23  1  0  0  0  0
 18 17  2  0  0  0  0
 19 18  1  0  0  0  0
 20 19  2  0  0  0  0
 20 21  1  0  0  0  0
 21 22  2  0  0  0  0
 22 17  1  0  0  0  0
 22  1  1  0  0  0  0
 24 19  1  0  0  0  0
 25 20  1  0  0  0  0
 26 21  1  0  0  0  0
 27 33  1  0  0  0  0
 27 32  1  0  0  0  0
 28 27  2  0  0  0  0
 29 28  1  0  0  0  0
 29 30  2  0  0  0  0
 30 31  1  0  0  0  0
 31 32  2  0  0  0  0
 31 35  1  0  0  0  0
 34 28  1  0  0  0  0
 36 37  1  0  0  0  0
 36  6  1  0  0  0  0
 38 37  2  0  0  0  0
 39 38  1  0  0  0  0
 40 42  1  0  0  0  0
 40 38  1  0  0  0  0
 41 40  1  0  0  0  0
 42 36  2  0  0  0  0
M  END
>  <minimizedAffinity>
-5.00692701

$$$$
