
 OpenBabel03272510133D

 39 42  0  0  0  0  0  0  0  0999 V2000
   38.4090   31.3140   48.7020 C   0  0  0  0  0  0  0  0  0  0  0  0
   38.4460   32.5230   49.3590 C   0  0  0  0  0  0  0  0  0  0  0  0
   39.0300   33.4430   48.4820 C   0  0  0  0  0  0  0  0  0  0  0  0
   39.3160   32.7780   47.3580 N   0  0  0  0  0  0  0  0  0  0  0  0
   38.9500   31.5440   47.5000 N   0  0  0  0  0  0  0  0  0  0  0  0
   38.1470   32.8920   50.3310 H   0  0  0  0  0  0  0  0  0  0  0  0
   39.2370   34.5070   48.6240 H   0  0  0  0  0  0  0  0  0  0  0  0
   39.9320   33.3310   46.1860 C   0  0  0  0  0  0  0  0  0  0  0  0
   40.5280   34.2080   46.5040 H   0  0  0  0  0  0  0  0  0  0  0  0
   39.1670   33.7660   45.4800 H   0  0  0  0  0  0  0  0  0  0  0  0
   40.7660   32.2970   45.5250 C   0  0  0  0  0  0  0  0  0  0  0  0
   41.8180   32.6770   45.5340 H   0  0  0  0  0  0  0  0  0  0  0  0
   40.8110   31.4230   46.2430 H   0  0  0  0  0  0  0  0  0  0  0  0
   40.4190   31.8640   44.1930 C   0  0  0  0  0  0  0  0  0  0  0  0
   39.7040   32.6490   43.3340 N   0  0  0  0  0  0  0  0  0  0  0  0
   39.5150   32.0250   42.1630 C   0  0  0  0  0  0  0  0  0  0  0  0
   38.9920   32.3770   41.2840 H   0  0  0  0  0  0  0  0  0  0  0  0
   40.1130   30.8280   42.2660 N   0  0  0  0  0  0  0  0  0  0  0  0
   40.2000   30.0450   41.5890 H   0  0  0  0  0  0  0  0  0  0  0  0
   40.6410   30.7510   43.4700 N   0  0  0  0  0  0  0  0  0  0  0  0
   37.8590   30.2780   49.4280 O   0  0  0  0  0  0  0  0  0  0  0  0
   34.0690   28.8270   48.3190 C   0  0  0  0  0  0  0  0  0  0  0  0
   34.6920   28.3860   49.4460 C   0  0  0  0  0  0  0  0  0  0  0  0
   35.9230   28.8140   49.8660 C   0  0  0  0  0  0  0  0  0  0  0  0
   36.6130   29.7380   49.1510 C   0  0  0  0  0  0  0  0  0  0  0  0
   35.9890   30.2000   47.9920 C   0  0  0  0  0  0  0  0  0  0  0  0
   34.7740   29.7570   47.6060 N   0  0  0  0  0  0  0  0  0  0  0  0
   34.2130   27.6510   50.0730 H   0  0  0  0  0  0  0  0  0  0  0  0
   36.4110   28.4530   50.7700 H   0  0  0  0  0  0  0  0  0  0  0  0
   36.4620   30.9430   47.3490 H   0  0  0  0  0  0  0  0  0  0  0  0
   31.9170   27.6170   48.6440 C   0  0  0  0  0  0  0  0  0  0  0  0
   32.7850   28.3880   47.8660 C   0  0  0  0  0  0  0  0  0  0  0  0
   32.3540   28.7250   46.6020 C   0  0  0  0  0  0  0  0  0  0  0  0
   31.1280   28.3060   46.1640 N   0  0  0  0  0  0  0  0  0  0  0  0
   30.3270   27.5600   46.9620 C   0  0  0  0  0  0  0  0  0  0  0  0
   30.7050   27.2010   48.2170 N   0  0  0  0  0  0  0  0  0  0  0  0
   32.2100   27.3290   49.6410 H   0  0  0  0  0  0  0  0  0  0  0  0
   33.0000   29.3260   45.9630 H   0  0  0  0  0  0  0  0  0  0  0  0
   29.3780   27.2850   46.5090 H   0  0  0  0  0  0  0  0  0  0  0  0
  1  2  1  0  0  0  0
  1 21  1  0  0  0  0
  2  6  1  0  0  0  0
  3  7  1  0  0  0  0
  3  2  2  0  0  0  0
  4  5  1  0  0  0  0
  4  3  1  0  0  0  0
  5  1  2  0  0  0  0
  8  9  1  0  0  0  0
  8  4  1  0  0  0  0
 10  8  1  0  0  0  0
 11 12  1  0  0  0  0
 11  8  1  0  0  0  0
 11 13  1  0  0  0  0
 14 11  1  0  0  0  0
 15 14  1  0  0  0  0
 16 18  1  0  0  0  0
 16 15  2  0  0  0  0
 17 16  1  0  0  0  0
 18 20  1  0  0  0  0
 19 18  1  0  0  0  0
 20 14  2  0  0  0  0
 22 23  1  0  0  0  0
 23 24  2  0  0  0  0
 23 28  1  0  0  0  0
 24 29  1  0  0  0  0
 25 21  1  0  0  0  0
 25 24  1  0  0  0  0
 26 25  2  0  0  0  0
 27 26  1  0  0  0  0
 27 22  2  0  0  0  0
 30 26  1  0  0  0  0
 31 37  1  0  0  0  0
 32 22  1  0  0  0  0
 32 31  2  0  0  0  0
 33 32  1  0  0  0  0
 34 33  2  0  0  0  0
 34 35  1  0  0  0  0
 35 36  2  0  0  0  0
 36 31  1  0  0  0  0
 38 33  1  0  0  0  0
 39 35  1  0  0  0  0
M  END
>  <minimizedAffinity>
-6.16156626

>  <minimizedRMSD>
1.13996959

$$$$
