
 OpenBabel03272503543D

 42 45  0  0  1  0  0  0  0  0999 V2000
   37.0730   30.8140   46.4170 C   0  0  1  0  0  0  0  0  0  0  0  0
   35.5350   30.6840   46.3410 C   0  0  0  0  0  0  0  0  0  0  0  0
   35.3240   29.5390   45.3300 C   0  0  0  0  0  0  0  0  0  0  0  0
   35.6770   30.0950   43.9880 C   0  0  0  0  0  0  0  0  0  0  0  0
   37.1290   30.4980   43.9790 C   0  0  0  0  0  0  0  0  0  0  0  0
   37.4700   31.4460   45.1090 C   0  0  2  0  0  0  0  0  0  0  0  0
   37.4110   29.7820   46.5140 H   0  0  0  0  0  0  0  0  0  0  0  0
   35.1160   30.3420   47.2880 H   0  0  0  0  0  0  0  0  0  0  0  0
   35.0610   31.5660   45.9140 H   0  0  0  0  0  0  0  0  0  0  0  0
   34.3070   29.1470   45.3910 H   0  0  0  0  0  0  0  0  0  0  0  0
   36.0590   28.7590   45.6230 H   0  0  0  0  0  0  0  0  0  0  0  0
   35.0900   31.0280   43.8630 H   0  0  0  0  0  0  0  0  0  0  0  0
   35.5320   29.3800   43.1600 H   0  0  0  0  0  0  0  0  0  0  0  0
   37.7470   29.5980   44.1120 H   0  0  0  0  0  0  0  0  0  0  0  0
   37.4090   30.9760   43.0210 H   0  0  0  0  0  0  0  0  0  0  0  0
   37.0560   32.4410   44.9540 H   0  0  0  0  0  0  0  0  0  0  0  0
   37.0920   31.3400   48.8710 C   0  0  0  0  0  0  0  0  0  0  0  0
   37.6130   32.0710   49.9310 C   0  0  0  0  0  0  0  0  0  0  0  0
   38.5760   33.0670   49.7030 C   0  0  0  0  0  0  0  0  0  0  0  0
   38.9730   33.2790   48.3920 C   0  0  0  0  0  0  0  0  0  0  0  0
   38.4650   32.5630   47.3420 C   0  0  0  0  0  0  0  0  0  0  0  0
   37.5020   31.5710   47.5920 C   0  0  0  0  0  0  0  0  0  0  0  0
   37.2960   31.8980   50.9610 H   0  0  0  0  0  0  0  0  0  0  0  0
   38.9540   33.6120   50.5700 H   0  0  0  0  0  0  0  0  0  0  0  0
   39.7220   34.0660   48.2870 H   0  0  0  0  0  0  0  0  0  0  0  0
   38.8750   32.8530   46.3930 H   0  0  0  0  0  0  0  0  0  0  0  0
   35.2490   28.1380   49.6470 C   0  0  0  0  0  0  0  0  0  0  0  0
   36.3050   28.9870   49.2710 C   0  0  0  0  0  0  0  0  0  0  0  0
   36.0860   30.3630   49.2310 C   0  0  0  0  0  0  0  0  0  0  0  0
   34.8480   30.7770   49.5630 N   0  0  0  0  0  0  0  0  0  0  0  0
   33.8390   29.9660   49.9220 C   0  0  0  0  0  0  0  0  0  0  0  0
   34.0470   28.6590   49.9600 N   0  0  0  0  0  0  0  0  0  0  0  0
   35.4300   27.0590   49.6750 H   0  0  0  0  0  0  0  0  0  0  0  0
   37.2800   28.6240   49.0120 H   0  0  0  0  0  0  0  0  0  0  0  0
   32.8580   30.3790   50.1780 H   0  0  0  0  0  0  0  0  0  0  0  0
   38.9780   31.4760   45.1500 C   0  0  0  0  0  0  0  0  0  0  0  0
   39.8580   30.5580   45.5400 N   0  0  0  0  0  0  0  0  0  0  0  0
   41.0770   31.1100   45.3670 C   0  0  0  0  0  0  0  0  0  0  0  0
   41.9880   30.5900   45.6020 H   0  0  0  0  0  0  0  0  0  0  0  0
   40.9430   32.3720   44.8680 N   0  0  0  0  0  0  0  0  0  0  0  0
   41.7490   33.0080   44.6480 H   0  0  0  0  0  0  0  0  0  0  0  0
   39.6370   32.5770   44.7430 N   0  0  0  0  0  0  0  0  0  0  0  0
  1  7  1  1  0  0  0
  1 22  1  0  0  0  0
  2  1  1  0  0  0  0
  2  8  1  0  0  0  0
  3 10  1  0  0  0  0
  3 11  1  0  0  0  0
  3  2  1  0  0  0  0
  4  3  1  0  0  0  0
  5  4  1  0  0  0  0
  5 14  1  0  0  0  0
  5  6  1  0  0  0  0
  6 16  1  6  0  0  0
  6 36  1  0  0  0  0
  6  1  1  0  0  0  0
  9  2  1  0  0  0  0
 12  4  1  0  0  0  0
 13  4  1  0  0  0  0
 15  5  1  0  0  0  0
 17 29  1  0  0  0  0
 17 18  1  0  0  0  0
 18 23  1  0  0  0  0
 19 18  2  0  0  0  0
 19 24  1  0  0  0  0
 20 19  1  0  0  0  0
 21 22  1  0  0  0  0
 21 20  2  0  0  0  0
 22 17  2  0  0  0  0
 25 20  1  0  0  0  0
 26 21  1  0  0  0  0
 27 33  1  0  0  0  0
 27 32  1  0  0  0  0
 28 27  2  0  0  0  0
 29 28  1  0  0  0  0
 29 30  2  0  0  0  0
 30 31  1  0  0  0  0
 31 32  2  0  0  0  0
 31 35  1  0  0  0  0
 34 28  1  0  0  0  0
 36 37  1  0  0  0  0
 38 37  2  0  0  0  0
 38 39  1  0  0  0  0
 40 38  1  0  0  0  0
 41 40  1  0  0  0  0
 42 40  1  0  0  0  0
 42 36  2  0  0  0  0
M  END
>  <minimizedAffinity>
-5.64253187

>  <minimizedRMSD>
2.22814226

$$$$
