
 OpenBabel03272501083D

 38 41  0  0  1  0  0  0  0  0999 V2000
   38.9040   32.4100   47.7220 C   0  0  2  0  0  0  0  0  0  0  0  0
   38.0120   32.7250   48.9540 C   0  0  2  0  0  0  0  0  0  0  0  0
   38.9400   33.4570   49.8020 C   0  0  0  0  0  0  0  0  0  0  0  0
   39.7580   34.2200   48.9760 O   0  0  0  0  0  0  0  0  0  0  0  0
   39.5930   33.8060   47.6930 C   0  0  0  0  0  0  0  0  0  0  0  0
   39.6450   31.6550   47.9790 H   0  0  0  0  0  0  0  0  0  0  0  0
   37.2000   33.3630   48.5040 H   0  0  0  0  0  0  0  0  0  0  0  0
   38.3540   34.2070   50.4080 H   0  0  0  0  0  0  0  0  0  0  0  0
   39.5100   32.8540   50.5000 H   0  0  0  0  0  0  0  0  0  0  0  0
   40.5920   33.6050   47.2530 H   0  0  0  0  0  0  0  0  0  0  0  0
   39.0350   34.4700   47.0200 H   0  0  0  0  0  0  0  0  0  0  0  0
   37.3380   29.6170   50.9730 C   0  0  0  0  0  0  0  0  0  0  0  0
   38.0170   30.7770   50.5030 C   0  0  0  0  0  0  0  0  0  0  0  0
   37.3750   31.5390   49.4840 C   0  0  0  0  0  0  0  0  0  0  0  0
   36.1490   31.1290   49.0110 N   0  0  0  0  0  0  0  0  0  0  0  0
   35.5570   30.0340   49.4870 C   0  0  0  0  0  0  0  0  0  0  0  0
   36.1340   29.2720   50.4620 N   0  0  0  0  0  0  0  0  0  0  0  0
   37.7670   28.9930   51.7430 H   0  0  0  0  0  0  0  0  0  0  0  0
   38.9590   31.0230   50.9180 H   0  0  0  0  0  0  0  0  0  0  0  0
   34.6000   29.8230   49.0320 H   0  0  0  0  0  0  0  0  0  0  0  0
   38.1780   32.2630   46.5890 O   0  0  0  0  0  0  0  0  0  0  0  0
   40.6180   31.3250   44.9550 Cl  0  0  0  0  0  0  0  0  0  0  0  0
   38.9760   30.7740   44.7300 C   0  0  0  0  0  0  0  0  0  0  0  0
   38.0630   31.3540   45.5980 C   0  0  0  0  0  0  0  0  0  0  0  0
   36.7560   30.9220   45.4270 C   0  0  0  0  0  0  0  0  0  0  0  0
   36.3980   29.9950   44.4750 C   0  0  0  0  0  0  0  0  0  0  0  0
   37.3570   29.4640   43.6510 C   0  0  0  0  0  0  0  0  0  0  0  0
   38.6790   29.8460   43.7630 C   0  0  0  0  0  0  0  0  0  0  0  0
   35.9100   31.2620   46.0090 H   0  0  0  0  0  0  0  0  0  0  0  0
   35.3960   29.6380   44.3150 H   0  0  0  0  0  0  0  0  0  0  0  0
   37.1230   28.7330   42.8890 H   0  0  0  0  0  0  0  0  0  0  0  0
   39.7800   29.3480   42.9430 C   0  0  0  0  0  0  0  0  0  0  0  0
   39.8200   28.2820   42.1230 N   0  0  0  0  0  0  0  0  0  0  0  0
   41.0680   28.2220   41.5730 C   0  0  0  0  0  0  0  0  0  0  0  0
   41.1540   27.3660   40.8930 H   0  0  0  0  0  0  0  0  0  0  0  0
   41.7930   29.2630   42.0650 N   0  0  0  0  0  0  0  0  0  0  0  0
   42.7580   29.2930   41.6980 H   0  0  0  0  0  0  0  0  0  0  0  0
   40.9990   29.9270   42.8870 N   0  0  0  0  0  0  0  0  0  0  0  0
  1  6  1  1  0  0  0
  1  2  1  0  0  0  0
  2  7  1  6  0  0  0
  2 14  1  0  0  0  0
  2  3  1  0  0  0  0
  3  8  1  0  0  0  0
  3  9  1  0  0  0  0
  4  3  1  0  0  0  0
  5  1  1  0  0  0  0
  5  4  1  0  0  0  0
 10  5  1  0  0  0  0
 11  5  1  0  0  0  0
 12 18  1  0  0  0  0
 13 19  1  0  0  0  0
 13 12  1  0  0  0  0
 14 13  2  0  0  0  0
 15 14  1  0  0  0  0
 15 16  2  0  0  0  0
 16 17  1  0  0  0  0
 17 12  2  0  0  0  0
 20 16  1  0  0  0  0
 21  1  1  0  0  0  0
 23 22  1  0  0  0  0
 23 24  1  0  0  0  0
 24 21  1  0  0  0  0
 25 24  2  0  0  0  0
 25 29  1  0  0  0  0
 26 25  1  0  0  0  0
 27 28  1  0  0  0  0
 27 26  2  0  0  0  0
 28 23  2  0  0  0  0
 30 26  1  0  0  0  0
 31 27  1  0  0  0  0
 32 28  1  0  0  0  0
 33 32  1  0  0  0  0
 34 36  1  0  0  0  0
 34 33  2  0  0  0  0
 35 34  1  0  0  0  0
 36 38  1  0  0  0  0
 37 36  1  0  0  0  0
 38 32  2  0  0  0  0
M  END
>  <minimizedAffinity>
-6.23466349

>  <minimizedRMSD>
0.481540084

$$$$
