
 OpenBabel03272508573D

 38 41  0  0  1  0  0  0  0  0999 V2000
   38.4130   31.7730   44.5540 C   0  0  0  0  0  0  0  0  0  0  0  0
   37.3920   32.4620   44.4040 O   0  0  0  0  0  0  0  0  0  0  0  0
   38.8550   31.3700   45.8830 N   0  0  0  0  0  0  0  0  0  0  0  0
   39.7820   30.9790   46.0780 H   0  0  0  0  0  0  0  0  0  0  0  0
   39.2380   31.3220   43.4030 C   0  0  0  0  0  0  0  0  0  0  0  0
   40.2340   30.4110   43.6210 C   0  0  0  0  0  0  0  0  0  0  0  0
   40.9840   30.0160   42.5220 C   0  0  0  0  0  0  0  0  0  0  0  0
   40.6720   30.5670   41.2920 C   0  0  0  0  0  0  0  0  0  0  0  0
   39.6640   31.4870   41.0800 C   0  0  0  0  0  0  0  0  0  0  0  0
   38.9560   31.8460   42.1790 N   0  0  0  0  0  0  0  0  0  0  0  0
   40.4450   30.0050   44.6010 H   0  0  0  0  0  0  0  0  0  0  0  0
   41.7820   29.3030   42.6300 H   0  0  0  0  0  0  0  0  0  0  0  0
   41.2910   30.2250   40.4560 H   0  0  0  0  0  0  0  0  0  0  0  0
   39.3810   32.0230   39.7590 C   0  0  0  0  0  0  0  0  0  0  0  0
   38.6100   33.0040   39.6450 O   0  0  0  0  0  0  0  0  0  0  0  0
   39.9880   31.4290   38.5720 C   0  0  0  0  0  0  0  0  0  0  0  0
   41.1020   31.8560   37.9540 N   0  0  0  0  0  0  0  0  0  0  0  0
   41.3580   31.0500   36.8830 C   0  0  0  0  0  0  0  0  0  0  0  0
   42.1370   31.0330   36.1260 H   0  0  0  0  0  0  0  0  0  0  0  0
   40.3680   30.1170   36.8640 N   0  0  0  0  0  0  0  0  0  0  0  0
   40.1340   29.2980   36.2440 H   0  0  0  0  0  0  0  0  0  0  0  0
   39.5420   30.3570   37.8950 N   0  0  0  0  0  0  0  0  0  0  0  0
   38.1360   30.8670   48.2090 C   0  0  2  0  0  0  0  0  0  0  0  0
   38.5020   32.3080   48.1750 C   0  0  0  0  0  0  0  0  0  0  0  0
   37.9220   31.5380   46.9690 C   0  0  1  0  0  0  0  0  0  0  0  0
   39.0080   30.2010   48.3660 H   0  0  0  0  0  0  0  0  0  0  0  0
   39.5450   32.6160   48.1260 H   0  0  0  0  0  0  0  0  0  0  0  0
   37.8350   32.9930   48.7280 H   0  0  0  0  0  0  0  0  0  0  0  0
   36.8830   31.9010   46.7050 H   0  0  0  0  0  0  0  0  0  0  0  0
   34.6280   30.1130   49.1910 C   0  0  0  0  0  0  0  0  0  0  0  0
   34.8030   29.5400   50.4780 C   0  0  0  0  0  0  0  0  0  0  0  0
   36.1470   29.4300   51.0000 C   0  0  0  0  0  0  0  0  0  0  0  0
   37.2010   29.8770   50.2430 N   0  0  0  0  0  0  0  0  0  0  0  0
   36.9420   30.4120   49.0200 C   0  0  0  0  0  0  0  0  0  0  0  0
   35.6770   30.5490   48.4590 N   0  0  0  0  0  0  0  0  0  0  0  0
   33.6080   30.1760   48.8410 H   0  0  0  0  0  0  0  0  0  0  0  0
   33.9730   29.1980   51.0500 H   0  0  0  0  0  0  0  0  0  0  0  0
   36.2890   28.9950   51.9800 H   0  0  0  0  0  0  0  0  0  0  0  0
  1  3  1  0  0  0  0
  2  1  2  0  0  0  0
  3  4  1  0  0  0  0
  3 25  1  0  0  0  0
  5  6  1  0  0  0  0
  5  1  1  0  0  0  0
  6 11  1  0  0  0  0
  7 12  1  0  0  0  0
  7  6  2  0  0  0  0
  8  7  1  0  0  0  0
  9  8  2  0  0  0  0
  9 10  1  0  0  0  0
 10  5  2  0  0  0  0
 13  8  1  0  0  0  0
 14  9  1  0  0  0  0
 15 14  2  0  0  0  0
 16 14  1  0  0  0  0
 17 16  1  0  0  0  0
 18 17  2  0  0  0  0
 19 18  1  0  0  0  0
 20 18  1  0  0  0  0
 20 22  1  0  0  0  0
 21 20  1  0  0  0  0
 22 16  2  0  0  0  0
 23 26  1  1  0  0  0
 23 34  1  0  0  0  0
 24 23  1  0  0  0  0
 24 28  1  0  0  0  0
 25 29  1  6  0  0  0
 25 24  1  0  0  0  0
 25 23  1  0  0  0  0
 27 24  1  0  0  0  0
 30 31  1  0  0  0  0
 31 32  2  0  0  0  0
 31 37  1  0  0  0  0
 32 38  1  0  0  0  0
 33 32  1  0  0  0  0
 34 33  2  0  0  0  0
 35 34  1  0  0  0  0
 35 30  2  0  0  0  0
 36 30  1  0  0  0  0
M  END
>  <minimizedAffinity>
-4.95687437

>  <minimizedRMSD>
0.799242258

$$$$
