
 OpenBabel03272505113D

 37 40  0  0  0  0  0  0  0  0999 V2000
   36.4070   30.9050   45.7050 Cl  0  0  0  0  0  0  0  0  0  0  0  0
   36.6920   30.7790   47.4230 C   0  0  0  0  0  0  0  0  0  0  0  0
   37.9510   31.1050   47.8790 C   0  0  0  0  0  0  0  0  0  0  0  0
   38.1910   31.0100   49.2380 C   0  0  0  0  0  0  0  0  0  0  0  0
   37.1860   30.6010   50.0780 C   0  0  0  0  0  0  0  0  0  0  0  0
   35.9360   30.2870   49.5480 C   0  0  0  0  0  0  0  0  0  0  0  0
   35.6380   30.3610   48.2130 C   0  0  0  0  0  0  0  0  0  0  0  0
   39.1840   31.2670   49.5960 H   0  0  0  0  0  0  0  0  0  0  0  0
   37.3690   30.5250   51.1430 H   0  0  0  0  0  0  0  0  0  0  0  0
   35.1620   29.9660   50.2420 H   0  0  0  0  0  0  0  0  0  0  0  0
   40.2070   33.3170   46.0600 C   0  0  0  0  0  0  0  0  0  0  0  0
   40.9200   32.4620   45.2060 C   0  0  0  0  0  0  0  0  0  0  0  0
   40.6050   31.1060   45.2700 C   0  0  0  0  0  0  0  0  0  0  0  0
   39.6430   30.6790   46.1390 N   0  0  0  0  0  0  0  0  0  0  0  0
   38.9970   31.5400   46.9300 C   0  0  0  0  0  0  0  0  0  0  0  0
   39.2840   32.8360   46.8810 N   0  0  0  0  0  0  0  0  0  0  0  0
   40.3840   34.3860   46.0770 H   0  0  0  0  0  0  0  0  0  0  0  0
   41.6690   32.8580   44.5410 H   0  0  0  0  0  0  0  0  0  0  0  0
   41.1280   30.4020   44.6300 H   0  0  0  0  0  0  0  0  0  0  0  0
   34.0590   29.9670   47.5190 S   0  0  0  0  0  0  0  0  0  0  0  0
   33.7810   29.1860   44.4900 Cl  0  0  0  0  0  0  0  0  0  0  0  0
   33.8090   27.9640   45.7430 C   0  0  0  0  0  0  0  0  0  0  0  0
   33.9290   28.2220   47.1200 C   0  0  0  0  0  0  0  0  0  0  0  0
   33.9380   27.1770   48.0120 C   0  0  0  0  0  0  0  0  0  0  0  0
   33.8310   25.8880   47.5730 C   0  0  0  0  0  0  0  0  0  0  0  0
   33.7100   25.5810   46.2270 C   0  0  0  0  0  0  0  0  0  0  0  0
   33.7040   26.6370   45.3600 C   0  0  0  0  0  0  0  0  0  0  0  0
   34.0350   27.4630   49.0540 H   0  0  0  0  0  0  0  0  0  0  0  0
   33.8390   25.0710   48.2830 H   0  0  0  0  0  0  0  0  0  0  0  0
   33.6280   24.5530   45.9170 H   0  0  0  0  0  0  0  0  0  0  0  0
   33.5760   26.3110   43.9420 C   0  0  0  0  0  0  0  0  0  0  0  0
   32.4180   26.1420   43.2780 N   0  0  0  0  0  0  0  0  0  0  0  0
   32.6210   25.8500   41.9830 C   0  0  0  0  0  0  0  0  0  0  0  0
   31.7730   25.6890   41.3360 H   0  0  0  0  0  0  0  0  0  0  0  0
   33.9520   25.8370   41.8380 N   0  0  0  0  0  0  0  0  0  0  0  0
   34.3920   25.6310   40.9060 H   0  0  0  0  0  0  0  0  0  0  0  0
   34.5440   26.1120   43.0060 N   0  0  0  0  0  0  0  0  0  0  0  0
  1  2  1  0  0  0  0
  2  3  2  0  0  0  0
  2  7  1  0  0  0  0
  3  4  1  0  0  0  0
  4  8  1  0  0  0  0
  4  5  2  0  0  0  0
  5  9  1  0  0  0  0
  6  5  1  0  0  0  0
  6 10  1  0  0  0  0
  7  6  2  0  0  0  0
 11 17  1  0  0  0  0
 11 16  1  0  0  0  0
 12 13  1  0  0  0  0
 12 11  2  0  0  0  0
 13 14  2  0  0  0  0
 14 15  1  0  0  0  0
 15  3  1  0  0  0  0
 16 15  2  0  0  0  0
 18 12  1  0  0  0  0
 19 13  1  0  0  0  0
 20  7  1  0  0  0  0
 21 22  1  0  0  0  0
 22 23  1  0  0  0  0
 23 20  1  0  0  0  0
 23 24  2  0  0  0  0
 24 28  1  0  0  0  0
 25 24  1  0  0  0  0
 25 29  1  0  0  0  0
 26 25  2  0  0  0  0
 27 22  2  0  0  0  0
 27 26  1  0  0  0  0
 30 26  1  0  0  0  0
 31 27  1  0  0  0  0
 32 31  1  0  0  0  0
 33 32  2  0  0  0  0
 34 33  1  0  0  0  0
 35 33  1  0  0  0  0
 35 37  1  0  0  0  0
 36 35  1  0  0  0  0
 37 31  2  0  0  0  0
M  END
>  <minimizedAffinity>
-5.61094046

>  <minimizedRMSD>
0.205091968

$$$$
