
 OpenBabel03272505003D

 26 28  0  0  0  0  0  0  0  0999 V2000
   37.8840   30.4490   46.9260 Cl  0  0  0  0  0  0  0  0  0  0  0  0
   38.4460   31.8520   47.8060 C   0  0  0  0  0  0  0  0  0  0  0  0
   38.0460   32.0170   49.1010 C   0  0  0  0  0  0  0  0  0  0  0  0
   38.5290   33.1550   49.7410 C   0  0  0  0  0  0  0  0  0  0  0  0
   39.3650   34.0510   49.0760 C   0  0  0  0  0  0  0  0  0  0  0  0
   39.7370   33.8380   47.7730 C   0  0  0  0  0  0  0  0  0  0  0  0
   39.2650   32.7160   47.1340 C   0  0  0  0  0  0  0  0  0  0  0  0
   38.2530   33.3540   50.7750 H   0  0  0  0  0  0  0  0  0  0  0  0
   39.6960   34.9100   49.6440 H   0  0  0  0  0  0  0  0  0  0  0  0
   40.3870   34.5500   47.2840 H   0  0  0  0  0  0  0  0  0  0  0  0
   37.6370   30.3760   50.9410 C   0  0  0  0  0  0  0  0  0  0  0  0
   37.1740   31.0970   49.8190 C   0  0  0  0  0  0  0  0  0  0  0  0
   35.8620   30.9030   49.4200 C   0  0  0  0  0  0  0  0  0  0  0  0
   35.0860   30.0350   50.1210 N   0  0  0  0  0  0  0  0  0  0  0  0
   35.5540   29.3590   51.1890 C   0  0  0  0  0  0  0  0  0  0  0  0
   36.8310   29.5290   51.6010 N   0  0  0  0  0  0  0  0  0  0  0  0
   38.6660   30.5540   51.2230 H   0  0  0  0  0  0  0  0  0  0  0  0
   35.4850   31.4480   48.5570 H   0  0  0  0  0  0  0  0  0  0  0  0
   34.8840   28.6730   51.7140 H   0  0  0  0  0  0  0  0  0  0  0  0
   39.6520   32.4710   45.7410 C   0  0  0  0  0  0  0  0  0  0  0  0
   39.0510   32.9910   44.6690 N   0  0  0  0  0  0  0  0  0  0  0  0
   39.6780   32.5450   43.5500 C   0  0  0  0  0  0  0  0  0  0  0  0
   39.5590   32.6870   42.4750 H   0  0  0  0  0  0  0  0  0  0  0  0
   40.6660   31.7470   44.0110 N   0  0  0  0  0  0  0  0  0  0  0  0
   41.3960   31.1940   43.5060 H   0  0  0  0  0  0  0  0  0  0  0  0
   40.6740   31.6830   45.3500 N   0  0  0  0  0  0  0  0  0  0  0  0
  1  2  1  0  0  0  0
  2  3  1  0  0  0  0
  3  4  2  0  0  0  0
  3 12  1  0  0  0  0
  4  8  1  0  0  0  0
  5  9  1  0  0  0  0
  5  4  1  0  0  0  0
  6  5  2  0  0  0  0
  7  6  1  0  0  0  0
  7  2  2  0  0  0  0
 10  6  1  0  0  0  0
 11 17  1  0  0  0  0
 11 16  1  0  0  0  0
 12 11  2  0  0  0  0
 13 12  1  0  0  0  0
 13 14  2  0  0  0  0
 14 15  1  0  0  0  0
 15 16  2  0  0  0  0
 15 19  1  0  0  0  0
 18 13  1  0  0  0  0
 20  7  1  0  0  0  0
 21 20  1  0  0  0  0
 22 24  1  0  0  0  0
 22 21  2  0  0  0  0
 23 22  1  0  0  0  0
 24 26  1  0  0  0  0
 25 24  1  0  0  0  0
 26 20  2  0  0  0  0
M  END
>  <minimizedAffinity>
-6.39664936

>  <minimizedRMSD>
0.475643039

$$$$
