
 OpenBabel03272508573D

 38 41  0  0  1  0  0  0  0  0999 V2000
   38.3760   31.8800   44.5210 C   0  0  0  0  0  0  0  0  0  0  0  0
   37.2780   32.4480   44.4170 O   0  0  0  0  0  0  0  0  0  0  0  0
   38.9480   31.5890   45.8300 N   0  0  0  0  0  0  0  0  0  0  0  0
   39.9230   31.3100   45.9730 H   0  0  0  0  0  0  0  0  0  0  0  0
   39.1670   31.4660   43.3330 C   0  0  0  0  0  0  0  0  0  0  0  0
   40.1480   30.5260   43.4870 C   0  0  0  0  0  0  0  0  0  0  0  0
   40.8670   30.1670   42.3550 C   0  0  0  0  0  0  0  0  0  0  0  0
   40.5410   30.7810   41.1590 C   0  0  0  0  0  0  0  0  0  0  0  0
   39.5480   31.7290   41.0110 C   0  0  0  0  0  0  0  0  0  0  0  0
   38.8710   32.0510   42.1400 N   0  0  0  0  0  0  0  0  0  0  0  0
   40.3710   30.0700   44.4430 H   0  0  0  0  0  0  0  0  0  0  0  0
   41.6510   29.4340   42.4130 H   0  0  0  0  0  0  0  0  0  0  0  0
   41.1350   30.4650   40.2950 H   0  0  0  0  0  0  0  0  0  0  0  0
   39.2500   32.3320   39.7230 C   0  0  0  0  0  0  0  0  0  0  0  0
   38.5650   33.3810   39.6770 O   0  0  0  0  0  0  0  0  0  0  0  0
   39.7410   31.7260   38.4890 C   0  0  0  0  0  0  0  0  0  0  0  0
   39.1760   30.7010   37.8310 N   0  0  0  0  0  0  0  0  0  0  0  0
   39.9200   30.4130   36.7230 C   0  0  0  0  0  0  0  0  0  0  0  0
   39.8300   29.6780   35.9280 H   0  0  0  0  0  0  0  0  0  0  0  0
   40.9570   31.2940   36.7240 N   0  0  0  0  0  0  0  0  0  0  0  0
   41.7820   31.4670   36.0900 H   0  0  0  0  0  0  0  0  0  0  0  0
   40.8390   32.0860   37.8010 N   0  0  0  0  0  0  0  0  0  0  0  0
   38.4320   31.0980   48.2120 C   0  0  2  0  0  0  0  0  0  0  0  0
   38.6620   32.5640   48.1150 C   0  0  0  0  0  0  0  0  0  0  0  0
   38.0770   31.7080   46.9720 C   0  0  1  0  0  0  0  0  0  0  0  0
   39.3690   30.5190   48.3270 H   0  0  0  0  0  0  0  0  0  0  0  0
   39.6660   32.9630   47.9880 H   0  0  0  0  0  0  0  0  0  0  0  0
   37.9720   33.2050   48.6950 H   0  0  0  0  0  0  0  0  0  0  0  0
   36.9940   31.9670   46.7700 H   0  0  0  0  0  0  0  0  0  0  0  0
   35.0620   30.2240   49.5230 C   0  0  0  0  0  0  0  0  0  0  0  0
   35.3850   29.5510   50.7300 C   0  0  0  0  0  0  0  0  0  0  0  0
   36.7810   29.4140   51.0840 C   0  0  0  0  0  0  0  0  0  0  0  0
   37.7390   29.9350   50.2500 N   0  0  0  0  0  0  0  0  0  0  0  0
   37.3400   30.5650   49.1140 C   0  0  0  0  0  0  0  0  0  0  0  0
   36.0190   30.7310   48.7150 N   0  0  0  0  0  0  0  0  0  0  0  0
   34.0080   30.3040   49.2980 H   0  0  0  0  0  0  0  0  0  0  0  0
   34.6270   29.1530   51.3620 H   0  0  0  0  0  0  0  0  0  0  0  0
   37.0360   28.9020   52.0010 H   0  0  0  0  0  0  0  0  0  0  0  0
  1  3  1  0  0  0  0
  2  1  2  0  0  0  0
  3  4  1  0  0  0  0
  3 25  1  0  0  0  0
  5  6  1  0  0  0  0
  5  1  1  0  0  0  0
  6 11  1  0  0  0  0
  7 12  1  0  0  0  0
  7  6  2  0  0  0  0
  8  7  1  0  0  0  0
  9  8  2  0  0  0  0
  9 10  1  0  0  0  0
 10  5  2  0  0  0  0
 13  8  1  0  0  0  0
 14  9  1  0  0  0  0
 15 14  2  0  0  0  0
 16 14  1  0  0  0  0
 17 16  1  0  0  0  0
 18 20  1  0  0  0  0
 18 17  2  0  0  0  0
 19 18  1  0  0  0  0
 20 22  1  0  0  0  0
 21 20  1  0  0  0  0
 22 16  2  0  0  0  0
 23 26  1  6  0  0  0
 23 34  1  0  0  0  0
 24 23  1  0  0  0  0
 24 28  1  0  0  0  0
 25 29  1  6  0  0  0
 25 24  1  0  0  0  0
 25 23  1  0  0  0  0
 27 24  1  0  0  0  0
 30 31  1  0  0  0  0
 31 32  2  0  0  0  0
 31 37  1  0  0  0  0
 32 38  1  0  0  0  0
 33 32  1  0  0  0  0
 34 33  2  0  0  0  0
 35 34  1  0  0  0  0
 35 30  2  0  0  0  0
 36 30  1  0  0  0  0
M  END
>  <minimizedAffinity>
-4.93473864

>  <minimizedRMSD>
0.587664068

$$$$
