
 OpenBabel03272505473D

 32 35  0  0  0  0  0  0  0  0999 V2000
   37.1460   30.7260   44.9160 C   0  0  0  0  0  0  0  0  0  0  0  0
   36.8380   29.7530   43.8430 C   0  0  0  0  0  0  0  0  0  0  0  0
   36.2540   31.1380   43.7850 C   0  0  0  0  0  0  0  0  0  0  0  0
   37.6170   29.4240   43.1440 H   0  0  0  0  0  0  0  0  0  0  0  0
   36.1250   28.9270   44.1310 H   0  0  0  0  0  0  0  0  0  0  0  0
   35.1500   31.2300   43.9310 H   0  0  0  0  0  0  0  0  0  0  0  0
   36.6490   31.8940   43.0930 H   0  0  0  0  0  0  0  0  0  0  0  0
   39.7530   33.3470   44.9640 C   0  0  0  0  0  0  0  0  0  0  0  0
   40.9240   32.6080   45.2200 C   0  0  0  0  0  0  0  0  0  0  0  0
   40.8070   31.2060   45.3700 C   0  0  0  0  0  0  0  0  0  0  0  0
   39.5780   30.6450   45.2600 N   0  0  0  0  0  0  0  0  0  0  0  0
   38.4630   31.3910   45.0130 C   0  0  0  0  0  0  0  0  0  0  0  0
   38.5460   32.7280   44.8650 N   0  0  0  0  0  0  0  0  0  0  0  0
   39.7390   34.4190   44.8340 H   0  0  0  0  0  0  0  0  0  0  0  0
   41.8640   33.1390   45.2910 H   0  0  0  0  0  0  0  0  0  0  0  0
   41.7040   30.6380   45.5660 H   0  0  0  0  0  0  0  0  0  0  0  0
   36.5160   30.5220   46.2680 C   0  0  0  0  0  0  0  0  0  0  0  0
   37.1440   30.9270   47.4000 C   0  0  0  0  0  0  0  0  0  0  0  0
   36.5460   30.7420   48.6420 C   0  0  0  0  0  0  0  0  0  0  0  0
   35.2950   30.1330   48.6830 C   0  0  0  0  0  0  0  0  0  0  0  0
   34.6530   29.7180   47.5140 C   0  0  0  0  0  0  0  0  0  0  0  0
   35.3000   29.9340   46.3480 N   0  0  0  0  0  0  0  0  0  0  0  0
   38.1050   31.3840   47.5320 H   0  0  0  0  0  0  0  0  0  0  0  0
   36.9330   31.0130   49.5950 H   0  0  0  0  0  0  0  0  0  0  0  0
   34.7580   29.9490   49.6050 H   0  0  0  0  0  0  0  0  0  0  0  0
   33.3430   29.0750   47.5080 C   0  0  0  0  0  0  0  0  0  0  0  0
   32.3650   29.0650   46.5560 N   0  0  0  0  0  0  0  0  0  0  0  0
   31.3230   28.3190   47.0250 C   0  0  0  0  0  0  0  0  0  0  0  0
   30.4250   28.1730   46.4290 H   0  0  0  0  0  0  0  0  0  0  0  0
   31.6600   27.8700   48.2620 N   0  0  0  0  0  0  0  0  0  0  0  0
   31.0250   27.2690   48.8420 H   0  0  0  0  0  0  0  0  0  0  0  0
   32.8790   28.3270   48.5540 N   0  0  0  0  0  0  0  0  0  0  0  0
  1 12  1  0  0  0  0
  1 17  1  0  0  0  0
  2  5  1  0  0  0  0
  2  1  1  0  0  0  0
  3  2  1  0  0  0  0
  3  6  1  0  0  0  0
  3  1  1  0  0  0  0
  4  2  1  0  0  0  0
  7  3  1  0  0  0  0
  8  9  1  0  0  0  0
  9 15  1  0  0  0  0
  9 10  2  0  0  0  0
 10 16  1  0  0  0  0
 11 10  1  0  0  0  0
 12 11  2  0  0  0  0
 13  8  2  0  0  0  0
 13 12  1  0  0  0  0
 14  8  1  0  0  0  0
 17 22  2  0  0  0  0
 17 18  1  0  0  0  0
 18 23  1  0  0  0  0
 18 19  2  0  0  0  0
 19 20  1  0  0  0  0
 19 24  1  0  0  0  0
 20 25  1  0  0  0  0
 21 20  2  0  0  0  0
 22 21  1  0  0  0  0
 26 21  1  0  0  0  0
 26 32  2  0  0  0  0
 27 28  2  0  0  0  0
 27 26  1  0  0  0  0
 28 30  1  0  0  0  0
 29 28  1  0  0  0  0
 30 32  1  0  0  0  0
 30 31  1  0  0  0  0
M  END
>  <minimizedAffinity>
-5.11932611

>  <minimizedRMSD>
4.0307045

$$$$
