
 OpenBabel03272509183D

 31 33  0  0  0  0  0  0  0  0999 V2000
   38.0190   31.2510   47.7990 C   0  0  0  0  0  0  0  0  0  0  0  0
   37.0680   31.2840   48.8000 C   0  0  0  0  0  0  0  0  0  0  0  0
   37.1630   32.4110   49.6410 C   0  0  0  0  0  0  0  0  0  0  0  0
   38.1400   33.3870   49.4540 C   0  0  0  0  0  0  0  0  0  0  0  0
   39.0520   33.2630   48.4160 C   0  0  0  0  0  0  0  0  0  0  0  0
   38.9830   32.1650   47.5710 C   0  0  0  0  0  0  0  0  0  0  0  0
   36.4570   32.4980   50.4360 H   0  0  0  0  0  0  0  0  0  0  0  0
   38.1870   34.2410   50.1170 H   0  0  0  0  0  0  0  0  0  0  0  0
   39.8260   34.0020   48.2390 H   0  0  0  0  0  0  0  0  0  0  0  0
   34.9020   30.3110   48.2060 C   0  0  0  0  0  0  0  0  0  0  0  0
   36.0640   30.2860   48.9960 C   0  0  0  0  0  0  0  0  0  0  0  0
   36.1990   29.2790   49.9550 C   0  0  0  0  0  0  0  0  0  0  0  0
   35.1830   28.3760   50.0620 N   0  0  0  0  0  0  0  0  0  0  0  0
   34.0810   28.4230   49.2920 C   0  0  0  0  0  0  0  0  0  0  0  0
   33.9430   29.3810   48.3720 N   0  0  0  0  0  0  0  0  0  0  0  0
   34.7860   31.0910   47.4560 H   0  0  0  0  0  0  0  0  0  0  0  0
   33.3430   27.6570   49.4640 H   0  0  0  0  0  0  0  0  0  0  0  0
   37.4050   29.2160   50.8090 C   0  0  0  0  0  0  0  0  0  0  0  0
   37.7120   28.1820   51.0770 H   0  0  0  0  0  0  0  0  0  0  0  0
   38.2130   29.7920   50.2930 H   0  0  0  0  0  0  0  0  0  0  0  0
   37.1680   29.8210   51.7210 H   0  0  0  0  0  0  0  0  0  0  0  0
   38.0020   30.1650   46.9130 O   0  0  0  0  0  0  0  0  0  0  0  0
   37.2030   29.9010   46.3560 H   0  0  0  0  0  0  0  0  0  0  0  0
   39.9120   32.0580   46.5310 O   0  0  0  0  0  0  0  0  0  0  0  0
   39.4590   32.4350   45.2740 C   0  0  0  0  0  0  0  0  0  0  0  0
   40.1390   32.7520   44.1580 N   0  0  0  0  0  0  0  0  0  0  0  0
   39.2370   33.0470   43.2030 C   0  0  0  0  0  0  0  0  0  0  0  0
   39.4770   33.3420   42.1880 H   0  0  0  0  0  0  0  0  0  0  0  0
   38.0050   32.9110   43.7260 N   0  0  0  0  0  0  0  0  0  0  0  0
   37.1050   33.0740   43.2200 H   0  0  0  0  0  0  0  0  0  0  0  0
   38.1670   32.5410   44.9770 N   0  0  0  0  0  0  0  0  0  0  0  0
  1  2  1  0  0  0  0
  2 11  1  0  0  0  0
  2  3  2  0  0  0  0
  3  7  1  0  0  0  0
  4  3  1  0  0  0  0
  4  8  1  0  0  0  0
  5  4  2  0  0  0  0
  6  1  2  0  0  0  0
  6  5  1  0  0  0  0
  9  5  1  0  0  0  0
 10 15  2  0  0  0  0
 10 11  1  0  0  0  0
 11 12  2  0  0  0  0
 12 13  1  0  0  0  0
 12 18  1  0  0  0  0
 14 17  1  0  0  0  0
 14 13  2  0  0  0  0
 15 14  1  0  0  0  0
 16 10  1  0  0  0  0
 18 19  1  0  0  0  0
 18 21  1  0  0  0  0
 20 18  1  0  0  0  0
 22  1  1  0  0  0  0
 23 22  1  0  0  0  0
 24  6  1  0  0  0  0
 25 24  1  0  0  0  0
 26 25  1  0  0  0  0
 27 29  1  0  0  0  0
 27 26  2  0  0  0  0
 28 27  1  0  0  0  0
 29 31  1  0  0  0  0
 30 29  1  0  0  0  0
 31 25  2  0  0  0  0
M  END
>  <minimizedAffinity>
-6.46354723

>  <minimizedRMSD>
0.383454263

$$$$
