
 OpenBabel03272500203D

 32 34  0  0  0  0  0  0  0  0999 V2000
   37.1960   28.0150   35.2580 C   0  0  0  0  0  0  0  0  0  0  0  0
   36.8500   28.2080   33.9090 C   0  0  0  0  0  0  0  0  0  0  0  0
   37.5460   27.4860   32.9500 C   0  0  0  0  0  0  0  0  0  0  0  0
   38.5200   26.6350   33.3580 N   0  0  0  0  0  0  0  0  0  0  0  0
   38.8310   26.4670   34.6350 C   0  0  0  0  0  0  0  0  0  0  0  0
   38.1800   27.1460   35.5860 N   0  0  0  0  0  0  0  0  0  0  0  0
   36.6850   28.5530   36.0630 H   0  0  0  0  0  0  0  0  0  0  0  0
   37.9210   23.9730   36.0980 Cl  0  0  0  0  0  0  0  0  0  0  0  0
   39.5900   24.3410   35.6890 C   0  0  0  0  0  0  0  0  0  0  0  0
   39.9000   25.5270   35.0080 C   0  0  0  0  0  0  0  0  0  0  0  0
   41.2040   25.8550   34.6670 C   0  0  0  0  0  0  0  0  0  0  0  0
   42.1960   24.9530   35.0300 C   0  0  0  0  0  0  0  0  0  0  0  0
   41.9270   23.7860   35.6950 C   0  0  0  0  0  0  0  0  0  0  0  0
   43.2590   22.7350   36.0960 Cl  0  0  0  0  0  0  0  0  0  0  0  0
   40.6110   23.4950   36.0180 C   0  0  0  0  0  0  0  0  0  0  0  0
   41.4220   26.7820   34.1370 H   0  0  0  0  0  0  0  0  0  0  0  0
   43.1930   25.2560   34.7410 H   0  0  0  0  0  0  0  0  0  0  0  0
   40.2970   22.2280   36.7430 C   0  0  0  0  0  0  0  0  0  0  0  0
   39.9360   22.5150   38.0690 F   0  0  0  0  0  0  0  0  0  0  0  0
   41.3280   21.3340   36.7070 F   0  0  0  0  0  0  0  0  0  0  0  0
   39.2060   21.6160   36.1630 F   0  0  0  0  0  0  0  0  0  0  0  0
   37.2180   27.6590   31.5540 C   0  0  0  0  0  0  0  0  0  0  0  0
   38.1470   28.3690   30.8850 N   0  0  0  0  0  0  0  0  0  0  0  0
   37.7930   28.5040   29.5770 C   0  0  0  0  0  0  0  0  0  0  0  0
   38.3170   29.0150   28.7750 H   0  0  0  0  0  0  0  0  0  0  0  0
   36.6120   27.8510   29.4600 N   0  0  0  0  0  0  0  0  0  0  0  0
   36.0340   27.7410   28.5990 H   0  0  0  0  0  0  0  0  0  0  0  0
   36.2700   27.3440   30.6540 N   0  0  0  0  0  0  0  0  0  0  0  0
   35.7620   29.1680   33.5690 C   0  0  0  0  0  0  0  0  0  0  0  0
   34.6740   28.4920   32.9980 F   0  0  0  0  0  0  0  0  0  0  0  0
   35.3180   29.7620   34.7360 F   0  0  0  0  0  0  0  0  0  0  0  0
   36.1830   30.1580   32.7010 F   0  0  0  0  0  0  0  0  0  0  0  0
  1  6  1  0  0  0  0
  1  7  1  0  0  0  0
  2  1  2  0  0  0  0
  3  4  2  0  0  0  0
  3  2  1  0  0  0  0
  4  5  1  0  0  0  0
  5 10  1  0  0  0  0
  5  6  2  0  0  0  0
  9 15  1  0  0  0  0
  9  8  1  0  0  0  0
 10  9  2  0  0  0  0
 11 10  1  0  0  0  0
 11 12  2  0  0  0  0
 12 13  1  0  0  0  0
 13 15  2  0  0  0  0
 13 14  1  0  0  0  0
 15 18  1  0  0  0  0
 16 11  1  0  0  0  0
 17 12  1  0  0  0  0
 18 19  1  0  0  0  0
 20 18  1  0  0  0  0
 21 18  1  0  0  0  0
 22  3  1  0  0  0  0
 23 22  1  0  0  0  0
 24 23  2  0  0  0  0
 25 24  1  0  0  0  0
 26 24  1  0  0  0  0
 26 28  1  0  0  0  0
 27 26  1  0  0  0  0
 28 22  2  0  0  0  0
 29  2  1  0  0  0  0
 29 31  1  0  0  0  0
 30 29  1  0  0  0  0
 32 29  1  0  0  0  0
M  END
>  <minimizedAffinity>
-6.16055775

$$$$

 OpenBabel03272500203D

 32 34  0  0  0  0  0  0  0  0999 V2000
   40.6990   24.6600   35.2560 C   0  0  0  0  0  0  0  0  0  0  0  0
   39.8070   23.7470   35.8460 C   0  0  0  0  0  0  0  0  0  0  0  0
   38.5030   23.7160   35.3760 C   0  0  0  0  0  0  0  0  0  0  0  0
   38.1530   24.5620   34.3760 N   0  0  0  0  0  0  0  0  0  0  0  0
   39.0070   25.4150   33.8330 C   0  0  0  0  0  0  0  0  0  0  0  0
   40.2740   25.4730   34.2610 N   0  0  0  0  0  0  0  0  0  0  0  0
   41.7420   24.7340   35.5810 H   0  0  0  0  0  0  0  0  0  0  0  0
   37.0730   27.6000   34.6580 Cl  0  0  0  0  0  0  0  0  0  0  0  0
   37.6640   27.3520   33.0220 C   0  0  0  0  0  0  0  0  0  0  0  0
   38.5600   26.3070   32.7500 C   0  0  0  0  0  0  0  0  0  0  0  0
   39.0490   26.0770   31.4730 C   0  0  0  0  0  0  0  0  0  0  0  0
   38.6130   26.9310   30.4680 C   0  0  0  0  0  0  0  0  0  0  0  0
   37.7390   27.9600   30.7000 C   0  0  0  0  0  0  0  0  0  0  0  0
   37.2660   28.9630   29.3540 Cl  0  0  0  0  0  0  0  0  0  0  0  0
   37.2730   28.1570   31.9900 C   0  0  0  0  0  0  0  0  0  0  0  0
   39.7450   25.2590   31.2850 H   0  0  0  0  0  0  0  0  0  0  0  0
   39.0240   26.7080   29.4930 H   0  0  0  0  0  0  0  0  0  0  0  0
   36.3200   29.2730   32.2630 C   0  0  0  0  0  0  0  0  0  0  0  0
   36.7990   30.4600   31.6870 F   0  0  0  0  0  0  0  0  0  0  0  0
   36.0810   29.4450   33.5960 F   0  0  0  0  0  0  0  0  0  0  0  0
   35.1070   29.0080   31.6630 F   0  0  0  0  0  0  0  0  0  0  0  0
   37.5600   22.7900   35.9590 C   0  0  0  0  0  0  0  0  0  0  0  0
   37.2050   21.8040   35.1130 N   0  0  0  0  0  0  0  0  0  0  0  0
   36.3180   20.9600   35.7080 C   0  0  0  0  0  0  0  0  0  0  0  0
   35.8400   20.0720   35.3050 H   0  0  0  0  0  0  0  0  0  0  0  0
   36.1360   21.4590   36.9540 N   0  0  0  0  0  0  0  0  0  0  0  0
   35.5200   21.0760   37.7040 H   0  0  0  0  0  0  0  0  0  0  0  0
   36.8850   22.5610   37.1000 N   0  0  0  0  0  0  0  0  0  0  0  0
   40.2960   22.8600   36.9400 C   0  0  0  0  0  0  0  0  0  0  0  0
   40.0590   21.5150   36.6220 F   0  0  0  0  0  0  0  0  0  0  0  0
   41.6640   23.0250   37.0630 F   0  0  0  0  0  0  0  0  0  0  0  0
   39.7050   23.1460   38.1560 F   0  0  0  0  0  0  0  0  0  0  0  0
  1  7  1  0  0  0  0
  1  2  1  0  0  0  0
  2 29  1  0  0  0  0
  3  2  2  0  0  0  0
  3 22  1  0  0  0  0
  4  3  1  0  0  0  0
  5  6  1  0  0  0  0
  5  4  2  0  0  0  0
  6  1  2  0  0  0  0
  9  8  1  0  0  0  0
 10  9  1  0  0  0  0
 10  5  1  0  0  0  0
 11 10  2  0  0  0  0
 12 13  2  0  0  0  0
 12 11  1  0  0  0  0
 13 15  1  0  0  0  0
 14 13  1  0  0  0  0
 15 18  1  0  0  0  0
 15  9  2  0  0  0  0
 16 11  1  0  0  0  0
 17 12  1  0  0  0  0
 18 20  1  0  0  0  0
 19 18  1  0  0  0  0
 21 18  1  0  0  0  0
 22 28  2  0  0  0  0
 23 24  2  0  0  0  0
 23 22  1  0  0  0  0
 24 26  1  0  0  0  0
 25 24  1  0  0  0  0
 26 28  1  0  0  0  0
 26 27  1  0  0  0  0
 29 31  1  0  0  0  0
 29 32  1  0  0  0  0
 30 29  1  0  0  0  0
M  END
>  <minimizedAffinity>
-5.95617151

$$$$

 OpenBabel03272500203D

 32 34  0  0  0  0  0  0  0  0999 V2000
   37.5850   27.8330   35.4070 C   0  0  0  0  0  0  0  0  0  0  0  0
   36.9600   27.7180   34.1530 C   0  0  0  0  0  0  0  0  0  0  0  0
   37.1600   26.5500   33.4320 C   0  0  0  0  0  0  0  0  0  0  0  0
   37.9430   25.5820   33.9680 N   0  0  0  0  0  0  0  0  0  0  0  0
   38.5230   25.7090   35.1520 C   0  0  0  0  0  0  0  0  0  0  0  0
   38.3520   26.8210   35.8760 N   0  0  0  0  0  0  0  0  0  0  0  0
   37.4670   28.7280   36.0260 H   0  0  0  0  0  0  0  0  0  0  0  0
   41.4780   25.9080   34.5000 Cl  0  0  0  0  0  0  0  0  0  0  0  0
   40.7440   24.6120   35.4300 C   0  0  0  0  0  0  0  0  0  0  0  0
   39.3620   24.6180   35.6750 C   0  0  0  0  0  0  0  0  0  0  0  0
   38.7440   23.6140   36.4040 C   0  0  0  0  0  0  0  0  0  0  0  0
   39.5550   22.5950   36.8870 C   0  0  0  0  0  0  0  0  0  0  0  0
   40.9070   22.5580   36.6660 C   0  0  0  0  0  0  0  0  0  0  0  0
   41.8180   21.2260   37.3250 Cl  0  0  0  0  0  0  0  0  0  0  0  0
   41.4870   23.5810   35.9330 C   0  0  0  0  0  0  0  0  0  0  0  0
   37.6680   23.6390   36.5820 H   0  0  0  0  0  0  0  0  0  0  0  0
   39.0240   21.8380   37.4480 H   0  0  0  0  0  0  0  0  0  0  0  0
   42.9580   23.5600   35.6820 C   0  0  0  0  0  0  0  0  0  0  0  0
   43.5420   24.7400   36.1670 F   0  0  0  0  0  0  0  0  0  0  0  0
   43.2630   23.3780   34.3630 F   0  0  0  0  0  0  0  0  0  0  0  0
   43.5360   22.5210   36.3810 F   0  0  0  0  0  0  0  0  0  0  0  0
   36.5350   26.3980   32.1390 C   0  0  0  0  0  0  0  0  0  0  0  0
   35.7530   25.3030   32.0630 N   0  0  0  0  0  0  0  0  0  0  0  0
   35.1870   25.2050   30.8290 C   0  0  0  0  0  0  0  0  0  0  0  0
   34.5120   24.4470   30.4430 H   0  0  0  0  0  0  0  0  0  0  0  0
   35.6460   26.2790   30.1420 N   0  0  0  0  0  0  0  0  0  0  0  0
   35.4260   26.5390   29.1560 H   0  0  0  0  0  0  0  0  0  0  0  0
   36.4570   26.9940   30.9350 N   0  0  0  0  0  0  0  0  0  0  0  0
   36.1190   28.8440   33.6560 C   0  0  0  0  0  0  0  0  0  0  0  0
   35.9880   29.8300   34.6440 F   0  0  0  0  0  0  0  0  0  0  0  0
   36.7520   29.4220   32.5710 F   0  0  0  0  0  0  0  0  0  0  0  0
   34.8600   28.4290   33.2650 F   0  0  0  0  0  0  0  0  0  0  0  0
  1  6  1  0  0  0  0
  1  7  1  0  0  0  0
  2  1  2  0  0  0  0
  3  4  2  0  0  0  0
  3  2  1  0  0  0  0
  4  5  1  0  0  0  0
  5 10  1  0  0  0  0
  5  6  2  0  0  0  0
  8  9  1  0  0  0  0
  9 10  2  0  0  0  0
  9 15  1  0  0  0  0
 10 11  1  0  0  0  0
 11 16  1  0  0  0  0
 11 12  2  0  0  0  0
 12 17  1  0  0  0  0
 13 12  1  0  0  0  0
 13 14  1  0  0  0  0
 15 13  2  0  0  0  0
 18 15  1  0  0  0  0
 18 19  1  0  0  0  0
 18 21  1  0  0  0  0
 20 18  1  0  0  0  0
 22  3  1  0  0  0  0
 23 22  1  0  0  0  0
 24 23  2  0  0  0  0
 25 24  1  0  0  0  0
 26 24  1  0  0  0  0
 26 28  1  0  0  0  0
 27 26  1  0  0  0  0
 28 22  2  0  0  0  0
 29  2  1  0  0  0  0
 29 30  1  0  0  0  0
 31 29  1  0  0  0  0
 32 29  1  0  0  0  0
M  END
>  <minimizedAffinity>
-5.91762304

$$$$

 OpenBabel03272500203D

 32 34  0  0  0  0  0  0  0  0999 V2000
   35.6090   28.2850   32.1420 C   0  0  0  0  0  0  0  0  0  0  0  0
   36.5470   27.3590   32.6300 C   0  0  0  0  0  0  0  0  0  0  0  0
   36.9730   27.4960   33.9430 C   0  0  0  0  0  0  0  0  0  0  0  0
   36.4680   28.5100   34.6870 N   0  0  0  0  0  0  0  0  0  0  0  0
   35.5850   29.3740   34.2090 C   0  0  0  0  0  0  0  0  0  0  0  0
   35.1510   29.2720   32.9470 N   0  0  0  0  0  0  0  0  0  0  0  0
   35.2320   28.2320   31.1150 H   0  0  0  0  0  0  0  0  0  0  0  0
   32.5940   29.3470   34.7090 Cl  0  0  0  0  0  0  0  0  0  0  0  0
   33.7090   30.5340   35.3680 C   0  0  0  0  0  0  0  0  0  0  0  0
   35.0780   30.4530   35.0720 C   0  0  0  0  0  0  0  0  0  0  0  0
   35.9900   31.3700   35.5710 C   0  0  0  0  0  0  0  0  0  0  0  0
   35.4880   32.3800   36.3830 C   0  0  0  0  0  0  0  0  0  0  0  0
   34.1580   32.4880   36.6910 C   0  0  0  0  0  0  0  0  0  0  0  0
   33.6500   33.8000   37.7210 Cl  0  0  0  0  0  0  0  0  0  0  0  0
   33.2780   31.5510   36.1720 C   0  0  0  0  0  0  0  0  0  0  0  0
   37.0490   31.2870   35.3280 H   0  0  0  0  0  0  0  0  0  0  0  0
   36.2400   33.0670   36.7450 H   0  0  0  0  0  0  0  0  0  0  0  0
   31.8240   31.6520   36.4970 C   0  0  0  0  0  0  0  0  0  0  0  0
   31.4330   30.5530   37.2760 F   0  0  0  0  0  0  0  0  0  0  0  0
   31.0430   31.7550   35.3810 F   0  0  0  0  0  0  0  0  0  0  0  0
   31.5940   32.7760   37.2610 F   0  0  0  0  0  0  0  0  0  0  0  0
   37.9360   26.5620   34.4780 C   0  0  0  0  0  0  0  0  0  0  0  0
   39.1870   27.0600   34.5020 N   0  0  0  0  0  0  0  0  0  0  0  0
   40.0560   26.1440   35.0130 C   0  0  0  0  0  0  0  0  0  0  0  0
   41.1270   26.2280   35.1680 H   0  0  0  0  0  0  0  0  0  0  0  0
   39.2970   25.0610   35.3060 N   0  0  0  0  0  0  0  0  0  0  0  0
   39.6180   24.1570   35.7170 H   0  0  0  0  0  0  0  0  0  0  0  0
   38.0210   25.3170   34.9820 N   0  0  0  0  0  0  0  0  0  0  0  0
   37.0380   26.2790   31.7270 C   0  0  0  0  0  0  0  0  0  0  0  0
   36.6360   25.0220   32.2030 F   0  0  0  0  0  0  0  0  0  0  0  0
   36.4650   26.4540   30.4800 F   0  0  0  0  0  0  0  0  0  0  0  0
   38.4120   26.2900   31.5890 F   0  0  0  0  0  0  0  0  0  0  0  0
  1  2  2  0  0  0  0
  1  6  1  0  0  0  0
  2  3  1  0  0  0  0
  3 22  1  0  0  0  0
  3  4  2  0  0  0  0
  5  4  1  0  0  0  0
  5 10  1  0  0  0  0
  6  5  2  0  0  0  0
  7  1  1  0  0  0  0
  8  9  1  0  0  0  0
  9 15  1  0  0  0  0
 10  9  2  0  0  0  0
 10 11  1  0  0  0  0
 11 12  2  0  0  0  0
 12 13  1  0  0  0  0
 12 17  1  0  0  0  0
 13 14  1  0  0  0  0
 15 18  1  0  0  0  0
 15 13  2  0  0  0  0
 16 11  1  0  0  0  0
 18 21  1  0  0  0  0
 18 19  1  0  0  0  0
 20 18  1  0  0  0  0
 22 23  1  0  0  0  0
 22 28  2  0  0  0  0
 23 24  2  0  0  0  0
 24 25  1  0  0  0  0
 24 26  1  0  0  0  0
 26 27  1  0  0  0  0
 28 26  1  0  0  0  0
 29 30  1  0  0  0  0
 29  2  1  0  0  0  0
 31 29  1  0  0  0  0
 32 29  1  0  0  0  0
M  END
>  <minimizedAffinity>
-5.86457443

$$$$

 OpenBabel03272500203D

 32 34  0  0  0  0  0  0  0  0999 V2000
   34.8150   31.4960   35.5430 C   0  0  0  0  0  0  0  0  0  0  0  0
   33.5770   30.9160   35.8710 C   0  0  0  0  0  0  0  0  0  0  0  0
   33.1470   29.8320   35.1190 C   0  0  0  0  0  0  0  0  0  0  0  0
   33.9370   29.3870   34.1110 N   0  0  0  0  0  0  0  0  0  0  0  0
   35.1000   29.9470   33.8160 C   0  0  0  0  0  0  0  0  0  0  0  0
   35.5470   30.9940   34.5210 N   0  0  0  0  0  0  0  0  0  0  0  0
   35.2120   32.3530   36.0970 H   0  0  0  0  0  0  0  0  0  0  0  0
   36.9260   27.6340   34.5280 Cl  0  0  0  0  0  0  0  0  0  0  0  0
   36.7870   28.3430   32.9270 C   0  0  0  0  0  0  0  0  0  0  0  0
   35.9080   29.4140   32.7070 C   0  0  0  0  0  0  0  0  0  0  0  0
   35.7680   30.0020   31.4590 C   0  0  0  0  0  0  0  0  0  0  0  0
   36.5400   29.4820   30.4280 C   0  0  0  0  0  0  0  0  0  0  0  0
   37.4080   28.4380   30.6080 C   0  0  0  0  0  0  0  0  0  0  0  0
   38.3220   27.8740   29.2350 Cl  0  0  0  0  0  0  0  0  0  0  0  0
   37.5180   27.8770   31.8710 C   0  0  0  0  0  0  0  0  0  0  0  0
   35.0780   30.8330   31.3120 H   0  0  0  0  0  0  0  0  0  0  0  0
   36.3940   29.9760   29.4780 H   0  0  0  0  0  0  0  0  0  0  0  0
   38.4590   26.7380   32.0880 C   0  0  0  0  0  0  0  0  0  0  0  0
   39.4970   27.1330   32.9450 F   0  0  0  0  0  0  0  0  0  0  0  0
   38.9610   26.2430   30.9180 F   0  0  0  0  0  0  0  0  0  0  0  0
   37.8010   25.7040   32.7190 F   0  0  0  0  0  0  0  0  0  0  0  0
   31.8800   29.2120   35.4280 C   0  0  0  0  0  0  0  0  0  0  0  0
   32.0150   28.0770   36.1410 N   0  0  0  0  0  0  0  0  0  0  0  0
   30.7960   27.5320   36.4060 C   0  0  0  0  0  0  0  0  0  0  0  0
   30.5550   26.6260   36.9540 H   0  0  0  0  0  0  0  0  0  0  0  0
   29.9000   28.3710   35.8330 N   0  0  0  0  0  0  0  0  0  0  0  0
   28.8610   28.2790   35.8280 H   0  0  0  0  0  0  0  0  0  0  0  0
   30.5580   29.3810   35.2450 N   0  0  0  0  0  0  0  0  0  0  0  0
   32.7880   31.4840   37.0010 C   0  0  0  0  0  0  0  0  0  0  0  0
   32.5650   30.5060   37.9820 F   0  0  0  0  0  0  0  0  0  0  0  0
   33.5210   32.5000   37.5840 F   0  0  0  0  0  0  0  0  0  0  0  0
   31.5710   31.9950   36.5910 F   0  0  0  0  0  0  0  0  0  0  0  0
  1  2  1  0  0  0  0
  1  7  1  0  0  0  0
  2 29  1  0  0  0  0
  3 22  1  0  0  0  0
  3  2  2  0  0  0  0
  4  3  1  0  0  0  0
  5  4  2  0  0  0  0
  5  6  1  0  0  0  0
  6  1  2  0  0  0  0
  9  8  1  0  0  0  0
 10  9  1  0  0  0  0
 10  5  1  0  0  0  0
 11 10  2  0  0  0  0
 12 13  2  0  0  0  0
 12 11  1  0  0  0  0
 13 15  1  0  0  0  0
 14 13  1  0  0  0  0
 15 18  1  0  0  0  0
 15  9  2  0  0  0  0
 16 11  1  0  0  0  0
 17 12  1  0  0  0  0
 18 21  1  0  0  0  0
 18 19  1  0  0  0  0
 20 18  1  0  0  0  0
 22 23  1  0  0  0  0
 23 24  2  0  0  0  0
 24 25  1  0  0  0  0
 26 24  1  0  0  0  0
 27 26  1  0  0  0  0
 28 22  2  0  0  0  0
 28 26  1  0  0  0  0
 29 31  1  0  0  0  0
 29 30  1  0  0  0  0
 32 29  1  0  0  0  0
M  END
>  <minimizedAffinity>
-5.81520033

$$$$

 OpenBabel03272500203D

 32 34  0  0  0  0  0  0  0  0999 V2000
   35.6210   26.1780   31.1520 C   0  0  0  0  0  0  0  0  0  0  0  0
   36.4140   26.7570   32.1590 C   0  0  0  0  0  0  0  0  0  0  0  0
   37.1910   25.9130   32.9400 C   0  0  0  0  0  0  0  0  0  0  0  0
   37.1470   24.5800   32.6960 N   0  0  0  0  0  0  0  0  0  0  0  0
   36.3920   24.0540   31.7430 C   0  0  0  0  0  0  0  0  0  0  0  0
   35.6310   24.8370   30.9700 N   0  0  0  0  0  0  0  0  0  0  0  0
   34.9860   26.7890   30.5020 H   0  0  0  0  0  0  0  0  0  0  0  0
   38.7740   22.9550   30.2220 Cl  0  0  0  0  0  0  0  0  0  0  0  0
   37.4470   21.9840   30.8410 C   0  0  0  0  0  0  0  0  0  0  0  0
   36.3920   22.5970   31.5330 C   0  0  0  0  0  0  0  0  0  0  0  0
   35.3260   21.8670   32.0370 C   0  0  0  0  0  0  0  0  0  0  0  0
   35.3470   20.4940   31.8260 C   0  0  0  0  0  0  0  0  0  0  0  0
   36.3610   19.8640   31.1540 C   0  0  0  0  0  0  0  0  0  0  0  0
   36.2740   18.1350   30.9540 Cl  0  0  0  0  0  0  0  0  0  0  0  0
   37.4090   20.6300   30.6660 C   0  0  0  0  0  0  0  0  0  0  0  0
   34.5170   22.3640   32.5720 H   0  0  0  0  0  0  0  0  0  0  0  0
   34.4940   19.9730   32.2380 H   0  0  0  0  0  0  0  0  0  0  0  0
   38.5240   19.9620   29.9320 C   0  0  0  0  0  0  0  0  0  0  0  0
   38.5530   20.4090   28.6020 F   0  0  0  0  0  0  0  0  0  0  0  0
   38.4440   18.6000   29.9810 F   0  0  0  0  0  0  0  0  0  0  0  0
   39.7320   20.3190   30.4920 F   0  0  0  0  0  0  0  0  0  0  0  0
   38.0180   26.4720   33.9830 C   0  0  0  0  0  0  0  0  0  0  0  0
   37.5120   26.2680   35.2150 N   0  0  0  0  0  0  0  0  0  0  0  0
   38.3260   26.8120   36.1610 C   0  0  0  0  0  0  0  0  0  0  0  0
   38.2090   26.8240   37.2410 H   0  0  0  0  0  0  0  0  0  0  0  0
   39.3550   27.3600   35.4710 N   0  0  0  0  0  0  0  0  0  0  0  0
   40.1780   27.8690   35.8620 H   0  0  0  0  0  0  0  0  0  0  0  0
   39.1650   27.1530   34.1600 N   0  0  0  0  0  0  0  0  0  0  0  0
   36.3890   28.2360   32.3420 C   0  0  0  0  0  0  0  0  0  0  0  0
   37.5670   28.8110   31.8420 F   0  0  0  0  0  0  0  0  0  0  0  0
   35.3320   28.7520   31.6150 F   0  0  0  0  0  0  0  0  0  0  0  0
   36.2360   28.6020   33.6660 F   0  0  0  0  0  0  0  0  0  0  0  0
  1  2  1  0  0  0  0
  2 29  1  0  0  0  0
  2  3  2  0  0  0  0
  3 22  1  0  0  0  0
  4  3  1  0  0  0  0
  5  4  2  0  0  0  0
  6  1  2  0  0  0  0
  6  5  1  0  0  0  0
  7  1  1  0  0  0  0
  8  9  1  0  0  0  0
  9 10  1  0  0  0  0
 10  5  1  0  0  0  0
 10 11  2  0  0  0  0
 11 16  1  0  0  0  0
 12 11  1  0  0  0  0
 12 17  1  0  0  0  0
 13 12  2  0  0  0  0
 14 13  1  0  0  0  0
 15  9  2  0  0  0  0
 15 13  1  0  0  0  0
 18 20  1  0  0  0  0
 18 21  1  0  0  0  0
 18 15  1  0  0  0  0
 19 18  1  0  0  0  0
 22 28  2  0  0  0  0
 22 23  1  0  0  0  0
 23 24  2  0  0  0  0
 24 25  1  0  0  0  0
 26 27  1  0  0  0  0
 26 24  1  0  0  0  0
 28 26  1  0  0  0  0
 29 32  1  0  0  0  0
 30 29  1  0  0  0  0
 31 29  1  0  0  0  0
M  END
>  <minimizedAffinity>
-5.7844367

$$$$

 OpenBabel03272500203D

 32 34  0  0  0  0  0  0  0  0999 V2000
   34.8110   31.4500   35.7250 C   0  0  0  0  0  0  0  0  0  0  0  0
   33.5600   30.8640   35.9840 C   0  0  0  0  0  0  0  0  0  0  0  0
   33.1730   29.7850   35.2010 C   0  0  0  0  0  0  0  0  0  0  0  0
   34.0160   29.3520   34.2320 N   0  0  0  0  0  0  0  0  0  0  0  0
   35.1910   29.9180   34.0030 C   0  0  0  0  0  0  0  0  0  0  0  0
   35.5970   30.9590   34.7390 N   0  0  0  0  0  0  0  0  0  0  0  0
   35.1750   32.3030   36.3070 H   0  0  0  0  0  0  0  0  0  0  0  0
   35.4740   31.7040   31.5700 Cl  0  0  0  0  0  0  0  0  0  0  0  0
   36.2560   30.1430   31.7620 C   0  0  0  0  0  0  0  0  0  0  0  0
   36.0570   29.3960   32.9330 C   0  0  0  0  0  0  0  0  0  0  0  0
   36.6550   28.1600   33.1240 C   0  0  0  0  0  0  0  0  0  0  0  0
   37.4670   27.6880   32.1000 C   0  0  0  0  0  0  0  0  0  0  0  0
   37.6830   28.3910   30.9440 C   0  0  0  0  0  0  0  0  0  0  0  0
   38.7240   27.6930   29.7330 Cl  0  0  0  0  0  0  0  0  0  0  0  0
   37.0670   29.6240   30.7920 C   0  0  0  0  0  0  0  0  0  0  0  0
   36.4860   27.5980   34.0430 H   0  0  0  0  0  0  0  0  0  0  0  0
   37.9080   26.7220   32.2990 H   0  0  0  0  0  0  0  0  0  0  0  0
   37.2900   30.4050   29.5400 C   0  0  0  0  0  0  0  0  0  0  0  0
   36.3210   31.4140   29.4280 F   0  0  0  0  0  0  0  0  0  0  0  0
   37.2960   29.6170   28.4240 F   0  0  0  0  0  0  0  0  0  0  0  0
   38.5120   31.0390   29.5970 F   0  0  0  0  0  0  0  0  0  0  0  0
   31.8940   29.1590   35.4390 C   0  0  0  0  0  0  0  0  0  0  0  0
   31.9850   28.0680   36.2240 N   0  0  0  0  0  0  0  0  0  0  0  0
   30.7560   27.5150   36.4180 C   0  0  0  0  0  0  0  0  0  0  0  0
   30.4830   26.6360   36.9940 H   0  0  0  0  0  0  0  0  0  0  0  0
   29.8990   28.3040   35.7250 N   0  0  0  0  0  0  0  0  0  0  0  0
   28.8660   28.1900   35.6390 H   0  0  0  0  0  0  0  0  0  0  0  0
   30.5900   29.2920   35.1370 N   0  0  0  0  0  0  0  0  0  0  0  0
   32.7100   31.4190   37.0760 C   0  0  0  0  0  0  0  0  0  0  0  0
   32.4600   30.4390   38.0470 F   0  0  0  0  0  0  0  0  0  0  0  0
   33.4000   32.4480   37.6900 F   0  0  0  0  0  0  0  0  0  0  0  0
   31.5050   31.9100   36.6110 F   0  0  0  0  0  0  0  0  0  0  0  0
  1  2  1  0  0  0  0
  1  7  1  0  0  0  0
  2 29  1  0  0  0  0
  3 22  1  0  0  0  0
  3  2  2  0  0  0  0
  4  3  1  0  0  0  0
  5  4  2  0  0  0  0
  5  6  1  0  0  0  0
  6  1  2  0  0  0  0
  8  9  1  0  0  0  0
  9 10  1  0  0  0  0
 10 11  2  0  0  0  0
 10  5  1  0  0  0  0
 11 16  1  0  0  0  0
 12 17  1  0  0  0  0
 12 11  1  0  0  0  0
 13 12  2  0  0  0  0
 14 13  1  0  0  0  0
 15 13  1  0  0  0  0
 15  9  2  0  0  0  0
 18 21  1  0  0  0  0
 18 15  1  0  0  0  0
 19 18  1  0  0  0  0
 20 18  1  0  0  0  0
 22 23  1  0  0  0  0
 23 24  2  0  0  0  0
 24 25  1  0  0  0  0
 26 24  1  0  0  0  0
 27 26  1  0  0  0  0
 28 22  2  0  0  0  0
 28 26  1  0  0  0  0
 29 31  1  0  0  0  0
 29 30  1  0  0  0  0
 32 29  1  0  0  0  0
M  END
>  <minimizedAffinity>
-5.71281528

$$$$

 OpenBabel03272500203D

 32 34  0  0  0  0  0  0  0  0999 V2000
   36.2360   29.3500   30.8740 C   0  0  0  0  0  0  0  0  0  0  0  0
   37.1200   28.3490   31.3140 C   0  0  0  0  0  0  0  0  0  0  0  0
   36.9320   27.8300   32.5870 C   0  0  0  0  0  0  0  0  0  0  0  0
   35.9130   28.3110   33.3400 N   0  0  0  0  0  0  0  0  0  0  0  0
   35.0910   29.2550   32.9080 C   0  0  0  0  0  0  0  0  0  0  0  0
   35.2410   29.7780   31.6850 N   0  0  0  0  0  0  0  0  0  0  0  0
   36.3300   29.8000   29.8800 H   0  0  0  0  0  0  0  0  0  0  0  0
   35.9690   30.8540   35.3300 Cl  0  0  0  0  0  0  0  0  0  0  0  0
   34.3000   30.4820   34.9280 C   0  0  0  0  0  0  0  0  0  0  0  0
   34.0050   29.7320   33.7790 C   0  0  0  0  0  0  0  0  0  0  0  0
   32.7010   29.4170   33.4270 C   0  0  0  0  0  0  0  0  0  0  0  0
   31.6930   29.8770   34.2640 C   0  0  0  0  0  0  0  0  0  0  0  0
   31.9470   30.6110   35.3930 C   0  0  0  0  0  0  0  0  0  0  0  0
   30.5950   31.1320   36.3630 Cl  0  0  0  0  0  0  0  0  0  0  0  0
   33.2640   30.9060   35.7100 C   0  0  0  0  0  0  0  0  0  0  0  0
   32.4960   28.8330   32.5290 H   0  0  0  0  0  0  0  0  0  0  0  0
   30.6970   29.6040   33.9440 H   0  0  0  0  0  0  0  0  0  0  0  0
   33.5600   31.7040   36.9360 C   0  0  0  0  0  0  0  0  0  0  0  0
   33.0270   32.9950   36.8050 F   0  0  0  0  0  0  0  0  0  0  0  0
   34.8960   31.7600   37.2150 F   0  0  0  0  0  0  0  0  0  0  0  0
   32.9400   31.1320   38.0270 F   0  0  0  0  0  0  0  0  0  0  0  0
   37.8210   26.8000   33.0720 C   0  0  0  0  0  0  0  0  0  0  0  0
   37.2440   25.5830   33.0980 N   0  0  0  0  0  0  0  0  0  0  0  0
   38.1200   24.6490   33.5610 C   0  0  0  0  0  0  0  0  0  0  0  0
   37.9730   23.5830   33.7040 H   0  0  0  0  0  0  0  0  0  0  0  0
   39.2620   25.3320   33.8190 N   0  0  0  0  0  0  0  0  0  0  0  0
   40.1580   24.9460   34.1900 H   0  0  0  0  0  0  0  0  0  0  0  0
   39.0760   26.6260   33.5230 N   0  0  0  0  0  0  0  0  0  0  0  0
   38.2080   27.8910   30.4040 C   0  0  0  0  0  0  0  0  0  0  0  0
   38.1400   26.5020   30.2200 F   0  0  0  0  0  0  0  0  0  0  0  0
   38.0270   28.4840   29.1680 F   0  0  0  0  0  0  0  0  0  0  0  0
   39.4640   28.2210   30.8740 F   0  0  0  0  0  0  0  0  0  0  0  0
  1  2  2  0  0  0  0
  1  6  1  0  0  0  0
  2  3  1  0  0  0  0
  3 22  1  0  0  0  0
  3  4  2  0  0  0  0
  5  4  1  0  0  0  0
  5 10  1  0  0  0  0
  6  5  2  0  0  0  0
  7  1  1  0  0  0  0
  9  8  1  0  0  0  0
  9 15  1  0  0  0  0
 10  9  2  0  0  0  0
 11 10  1  0  0  0  0
 11 12  2  0  0  0  0
 12 13  1  0  0  0  0
 13 15  2  0  0  0  0
 13 14  1  0  0  0  0
 15 18  1  0  0  0  0
 16 11  1  0  0  0  0
 17 12  1  0  0  0  0
 18 20  1  0  0  0  0
 18 21  1  0  0  0  0
 19 18  1  0  0  0  0
 22 23  1  0  0  0  0
 22 28  2  0  0  0  0
 23 24  2  0  0  0  0
 24 25  1  0  0  0  0
 24 26  1  0  0  0  0
 26 27  1  0  0  0  0
 28 26  1  0  0  0  0
 29 32  1  0  0  0  0
 29  2  1  0  0  0  0
 30 29  1  0  0  0  0
 31 29  1  0  0  0  0
M  END
>  <minimizedAffinity>
-5.70754862

$$$$

 OpenBabel03272500203D

 32 34  0  0  0  0  0  0  0  0999 V2000
   37.6610   25.1480   33.3630 C   0  0  0  0  0  0  0  0  0  0  0  0
   38.1770   24.8540   34.6380 C   0  0  0  0  0  0  0  0  0  0  0  0
   38.4190   23.5230   34.9490 C   0  0  0  0  0  0  0  0  0  0  0  0
   38.1480   22.5780   34.0150 N   0  0  0  0  0  0  0  0  0  0  0  0
   37.6620   22.8760   32.8200 C   0  0  0  0  0  0  0  0  0  0  0  0
   37.4170   24.1480   32.4850 N   0  0  0  0  0  0  0  0  0  0  0  0
   37.4490   26.1770   33.0550 H   0  0  0  0  0  0  0  0  0  0  0  0
   39.8490   22.3700   30.7820 Cl  0  0  0  0  0  0  0  0  0  0  0  0
   38.3360   21.4820   30.8670 C   0  0  0  0  0  0  0  0  0  0  0  0
   37.3900   21.7990   31.8540 C   0  0  0  0  0  0  0  0  0  0  0  0
   36.1830   21.1240   31.9550 C   0  0  0  0  0  0  0  0  0  0  0  0
   35.9490   20.1120   31.0320 C   0  0  0  0  0  0  0  0  0  0  0  0
   36.8500   19.7770   30.0560 C   0  0  0  0  0  0  0  0  0  0  0  0
   36.4400   18.4880   28.9570 Cl  0  0  0  0  0  0  0  0  0  0  0  0
   38.0450   20.4770   29.9890 C   0  0  0  0  0  0  0  0  0  0  0  0
   35.4630   21.3870   32.7300 H   0  0  0  0  0  0  0  0  0  0  0  0
   34.9950   19.6180   31.1550 H   0  0  0  0  0  0  0  0  0  0  0  0
   39.0410   20.1270   28.9330 C   0  0  0  0  0  0  0  0  0  0  0  0
   38.4410   19.3030   27.9680 F   0  0  0  0  0  0  0  0  0  0  0  0
   40.1610   19.5350   29.4430 F   0  0  0  0  0  0  0  0  0  0  0  0
   39.4460   21.2690   28.2770 F   0  0  0  0  0  0  0  0  0  0  0  0
   38.9480   23.1840   36.2490 C   0  0  0  0  0  0  0  0  0  0  0  0
   40.2670   22.9100   36.2200 N   0  0  0  0  0  0  0  0  0  0  0  0
   40.7170   22.5970   37.4660 C   0  0  0  0  0  0  0  0  0  0  0  0
   41.7200   22.3290   37.7850 H   0  0  0  0  0  0  0  0  0  0  0  0
   39.6300   22.6880   38.2690 N   0  0  0  0  0  0  0  0  0  0  0  0
   39.5880   22.5170   39.2970 H   0  0  0  0  0  0  0  0  0  0  0  0
   38.5670   23.0420   37.5310 N   0  0  0  0  0  0  0  0  0  0  0  0
   38.4390   25.9700   35.5890 C   0  0  0  0  0  0  0  0  0  0  0  0
   39.8200   26.1630   35.7480 F   0  0  0  0  0  0  0  0  0  0  0  0
   37.9140   27.1340   35.0590 F   0  0  0  0  0  0  0  0  0  0  0  0
   37.8700   25.7520   36.8290 F   0  0  0  0  0  0  0  0  0  0  0  0
  1  2  1  0  0  0  0
  2  3  2  0  0  0  0
  2 29  1  0  0  0  0
  3 22  1  0  0  0  0
  4  3  1  0  0  0  0
  5  4  2  0  0  0  0
  6  5  1  0  0  0  0
  6  1  2  0  0  0  0
  7  1  1  0  0  0  0
  8  9  1  0  0  0  0
  9 10  1  0  0  0  0
 10 11  2  0  0  0  0
 10  5  1  0  0  0  0
 11 16  1  0  0  0  0
 12 17  1  0  0  0  0
 12 11  1  0  0  0  0
 13 12  2  0  0  0  0
 14 13  1  0  0  0  0
 15 13  1  0  0  0  0
 15  9  2  0  0  0  0
 18 20  1  0  0  0  0
 18 15  1  0  0  0  0
 19 18  1  0  0  0  0
 21 18  1  0  0  0  0
 22 28  2  0  0  0  0
 23 22  1  0  0  0  0
 23 24  2  0  0  0  0
 24 25  1  0  0  0  0
 24 26  1  0  0  0  0
 26 27  1  0  0  0  0
 28 26  1  0  0  0  0
 29 30  1  0  0  0  0
 29 32  1  0  0  0  0
 31 29  1  0  0  0  0
M  END
>  <minimizedAffinity>
-5.59553623

$$$$
