
 OpenBabel03272510133D

 39 42  0  0  0  0  0  0  0  0999 V2000
   38.3350   31.6020   48.8010 C   0  0  0  0  0  0  0  0  0  0  0  0
   38.5490   32.8680   49.2960 C   0  0  0  0  0  0  0  0  0  0  0  0
   39.2130   33.5870   48.2970 C   0  0  0  0  0  0  0  0  0  0  0  0
   39.3730   32.7550   47.2620 N   0  0  0  0  0  0  0  0  0  0  0  0
   38.8590   31.6070   47.5690 N   0  0  0  0  0  0  0  0  0  0  0  0
   38.3330   33.3920   50.2170 H   0  0  0  0  0  0  0  0  0  0  0  0
   39.5590   34.6250   48.2980 H   0  0  0  0  0  0  0  0  0  0  0  0
   40.0120   33.0730   46.0190 C   0  0  0  0  0  0  0  0  0  0  0  0
   40.7240   33.8990   46.2090 H   0  0  0  0  0  0  0  0  0  0  0  0
   39.2840   33.5100   45.2760 H   0  0  0  0  0  0  0  0  0  0  0  0
   40.6880   31.8650   45.4810 C   0  0  0  0  0  0  0  0  0  0  0  0
   41.7630   32.1350   45.3350 H   0  0  0  0  0  0  0  0  0  0  0  0
   40.7310   31.1230   46.3360 H   0  0  0  0  0  0  0  0  0  0  0  0
   40.1750   31.2520   44.2810 C   0  0  0  0  0  0  0  0  0  0  0  0
   38.8540   31.3110   43.9400 N   0  0  0  0  0  0  0  0  0  0  0  0
   38.6300   30.6720   42.7840 C   0  0  0  0  0  0  0  0  0  0  0  0
   37.6980   30.5420   42.2500 H   0  0  0  0  0  0  0  0  0  0  0  0
   39.8150   30.1940   42.3740 N   0  0  0  0  0  0  0  0  0  0  0  0
   40.0790   29.6450   41.5340 H   0  0  0  0  0  0  0  0  0  0  0  0
   40.7140   30.5460   43.2700 N   0  0  0  0  0  0  0  0  0  0  0  0
   37.6840   30.7450   49.6640 O   0  0  0  0  0  0  0  0  0  0  0  0
   34.1140   28.9100   48.4070 C   0  0  0  0  0  0  0  0  0  0  0  0
   34.8750   28.3680   49.3950 C   0  0  0  0  0  0  0  0  0  0  0  0
   36.0470   28.9110   49.8530 C   0  0  0  0  0  0  0  0  0  0  0  0
   36.5270   30.0640   49.3230 C   0  0  0  0  0  0  0  0  0  0  0  0
   35.7570   30.6320   48.3080 C   0  0  0  0  0  0  0  0  0  0  0  0
   34.6070   30.0710   47.8790 N   0  0  0  0  0  0  0  0  0  0  0  0
   34.5670   27.4520   49.8720 H   0  0  0  0  0  0  0  0  0  0  0  0
   36.6470   28.4670   50.6460 H   0  0  0  0  0  0  0  0  0  0  0  0
   36.0580   31.5590   47.8170 H   0  0  0  0  0  0  0  0  0  0  0  0
   32.0280   27.5810   48.6980 C   0  0  0  0  0  0  0  0  0  0  0  0
   32.8900   28.3540   47.9160 C   0  0  0  0  0  0  0  0  0  0  0  0
   32.5160   28.5730   46.6080 C   0  0  0  0  0  0  0  0  0  0  0  0
   31.3470   28.0420   46.1350 N   0  0  0  0  0  0  0  0  0  0  0  0
   30.5490   27.3000   46.9390 C   0  0  0  0  0  0  0  0  0  0  0  0
   30.8730   27.0540   48.2350 N   0  0  0  0  0  0  0  0  0  0  0  0
   32.2780   27.3830   49.7290 H   0  0  0  0  0  0  0  0  0  0  0  0
   33.1590   29.1710   45.9640 H   0  0  0  0  0  0  0  0  0  0  0  0
   29.6480   26.9300   46.4550 H   0  0  0  0  0  0  0  0  0  0  0  0
  1  2  1  0  0  0  0
  1 21  1  0  0  0  0
  2  6  1  0  0  0  0
  3  7  1  0  0  0  0
  3  2  2  0  0  0  0
  4  5  1  0  0  0  0
  4  3  1  0  0  0  0
  5  1  2  0  0  0  0
  8  9  1  0  0  0  0
  8  4  1  0  0  0  0
 10  8  1  0  0  0  0
 11  8  1  0  0  0  0
 11 13  1  0  0  0  0
 12 11  1  0  0  0  0
 14 11  1  0  0  0  0
 15 14  1  0  0  0  0
 16 15  2  0  0  0  0
 17 16  1  0  0  0  0
 18 16  1  0  0  0  0
 18 20  1  0  0  0  0
 19 18  1  0  0  0  0
 20 14  2  0  0  0  0
 22 23  1  0  0  0  0
 23 24  2  0  0  0  0
 23 28  1  0  0  0  0
 24 29  1  0  0  0  0
 25 21  1  0  0  0  0
 25 24  1  0  0  0  0
 26 25  2  0  0  0  0
 27 26  1  0  0  0  0
 27 22  2  0  0  0  0
 30 26  1  0  0  0  0
 31 37  1  0  0  0  0
 32 22  1  0  0  0  0
 32 31  2  0  0  0  0
 33 32  1  0  0  0  0
 34 33  2  0  0  0  0
 34 35  1  0  0  0  0
 35 36  2  0  0  0  0
 36 31  1  0  0  0  0
 38 33  1  0  0  0  0
 39 35  1  0  0  0  0
M  END
>  <minimizedAffinity>
-5.92271614

>  <minimizedRMSD>
0.947422922

$$$$
