
 OpenBabel03262523343D

 38 42  0  0  1  0  0  0  0  0999 V2000
   35.4080   26.0730   31.2710 C   0  0  0  0  0  0  0  0  0  0  0  0
   35.3440   24.6980   31.1630 C   0  0  0  0  0  0  0  0  0  0  0  0
   36.3660   23.9250   31.7370 C   0  0  0  0  0  0  0  0  0  0  0  0
   37.3810   24.5830   32.3790 N   0  0  0  0  0  0  0  0  0  0  0  0
   37.4020   25.9280   32.4580 C   0  0  0  0  0  0  0  0  0  0  0  0
   36.4440   26.6730   31.9220 N   0  0  0  0  0  0  0  0  0  0  0  0
   34.6280   26.7150   30.8350 H   0  0  0  0  0  0  0  0  0  0  0  0
   34.5350   24.2120   30.6540 H   0  0  0  0  0  0  0  0  0  0  0  0
   37.4210   21.9160   30.9170 C   0  0  0  0  0  0  0  0  0  0  0  0
   36.3930   22.4860   31.6780 C   0  0  0  0  0  0  0  0  0  0  0  0
   35.4940   21.6650   32.3030 C   0  0  0  0  0  0  0  0  0  0  0  0
   35.6120   20.3040   32.1750 C   0  0  0  0  0  0  0  0  0  0  0  0
   34.8450   19.3210   32.6970 N   0  0  0  0  0  0  0  0  0  0  0  0
   35.3500   18.1610   32.2940 C   0  0  0  0  0  0  0  0  0  0  0  0
   36.4220   18.3640   31.5250 N   0  0  0  0  0  0  0  0  0  0  0  0
   36.6090   19.7000   31.4350 C   0  0  0  0  0  0  0  0  0  0  0  0
   37.5240   20.5280   30.7980 C   0  0  0  0  0  0  0  0  0  0  0  0
   38.1980   22.4640   30.3710 H   0  0  0  0  0  0  0  0  0  0  0  0
   34.6960   22.0930   32.8930 H   0  0  0  0  0  0  0  0  0  0  0  0
   34.0050   19.4740   33.3090 H   0  0  0  0  0  0  0  0  0  0  0  0
   34.9100   17.2060   32.5790 H   0  0  0  0  0  0  0  0  0  0  0  0
   38.3170   20.0700   30.2110 H   0  0  0  0  0  0  0  0  0  0  0  0
   38.5050   26.5490   33.1560 C   0  0  0  0  0  0  0  0  0  0  0  0
   39.1720   27.5060   32.6850 O   0  0  0  0  0  0  0  0  0  0  0  0
   38.8950   26.0290   34.5270 C   0  0  1  0  0  0  0  0  0  0  0  0
   38.7360   27.0400   35.6810 C   0  0  0  0  0  0  0  0  0  0  0  0
   37.8730   25.8440   35.5590 C   0  0  2  0  0  0  0  0  0  0  0  0
   39.9020   25.5360   34.5780 H   0  0  0  0  0  0  0  0  0  0  0  0
   39.4960   27.0350   36.4880 H   0  0  0  0  0  0  0  0  0  0  0  0
   38.3610   28.0170   35.3650 H   0  0  0  0  0  0  0  0  0  0  0  0
   36.8240   26.0550   35.2240 H   0  0  0  0  0  0  0  0  0  0  0  0
   38.0090   24.6740   36.4500 C   0  0  0  0  0  0  0  0  0  0  0  0
   37.9530   24.6880   37.7940 N   0  0  0  0  0  0  0  0  0  0  0  0
   38.1240   23.4090   38.2380 C   0  0  0  0  0  0  0  0  0  0  0  0
   38.1590   22.9050   39.1990 H   0  0  0  0  0  0  0  0  0  0  0  0
   38.2810   22.6320   37.1510 N   0  0  0  0  0  0  0  0  0  0  0  0
   38.4400   21.6020   36.9390 H   0  0  0  0  0  0  0  0  0  0  0  0
   38.2120   23.3870   36.0900 N   0  0  0  0  0  0  0  0  0  0  0  0
  1  6  1  0  0  0  0
  2  1  2  0  0  0  0
  2  3  1  0  0  0  0
  3  4  2  0  0  0  0
  4  5  1  0  0  0  0
  5 23  1  0  0  0  0
  6  5  2  0  0  0  0
  7  1  1  0  0  0  0
  8  2  1  0  0  0  0
  9 10  1  0  0  0  0
 10  3  1  0  0  0  0
 10 11  2  0  0  0  0
 11 19  1  0  0  0  0
 12 11  1  0  0  0  0
 12 13  1  0  0  0  0
 13 20  1  0  0  0  0
 14 21  1  0  0  0  0
 14 13  1  0  0  0  0
 15 14  2  0  0  0  0
 16 15  1  0  0  0  0
 16 12  2  0  0  0  0
 17  9  2  0  0  0  0
 17 16  1  0  0  0  0
 18  9  1  0  0  0  0
 22 17  1  0  0  0  0
 23 25  1  0  0  0  0
 24 23  2  0  0  0  0
 25 28  1  1  0  0  0
 25 27  1  0  0  0  0
 25 26  1  0  0  0  0
 26 29  1  0  0  0  0
 27 31  1  6  0  0  0
 27 26  1  0  0  0  0
 27 32  1  0  0  0  0
 30 26  1  0  0  0  0
 32 33  1  0  0  0  0
 33 34  2  0  0  0  0
 34 35  1  0  0  0  0
 36 34  1  0  0  0  0
 37 36  1  0  0  0  0
 38 32  2  0  0  0  0
 38 36  1  0  0  0  0
M  END
>  <minimizedAffinity>
-6.39439726

$$$$

 OpenBabel03262523343D

 38 42  0  0  1  0  0  0  0  0999 V2000
   36.1110   28.0630   31.5420 C   0  0  0  0  0  0  0  0  0  0  0  0
   35.3470   28.9190   32.3100 C   0  0  0  0  0  0  0  0  0  0  0  0
   35.6160   29.0180   33.6840 C   0  0  0  0  0  0  0  0  0  0  0  0
   36.6330   28.2540   34.1940 N   0  0  0  0  0  0  0  0  0  0  0  0
   37.3520   27.4330   33.4040 C   0  0  0  0  0  0  0  0  0  0  0  0
   37.1100   27.3270   32.1030 N   0  0  0  0  0  0  0  0  0  0  0  0
   35.9310   27.9560   30.4610 H   0  0  0  0  0  0  0  0  0  0  0  0
   34.5570   29.5050   31.8820 H   0  0  0  0  0  0  0  0  0  0  0  0
   33.4940   29.6680   34.6310 C   0  0  0  0  0  0  0  0  0  0  0  0
   34.8770   29.8790   34.5730 C   0  0  0  0  0  0  0  0  0  0  0  0
   35.4320   30.8680   35.3380 C   0  0  0  0  0  0  0  0  0  0  0  0
   34.6300   31.6330   36.1470 C   0  0  0  0  0  0  0  0  0  0  0  0
   34.9630   32.6500   36.9740 N   0  0  0  0  0  0  0  0  0  0  0  0
   33.8460   33.0830   37.5460 C   0  0  0  0  0  0  0  0  0  0  0  0
   32.7990   32.3760   37.1150 N   0  0  0  0  0  0  0  0  0  0  0  0
   33.2640   31.4600   36.2360 C   0  0  0  0  0  0  0  0  0  0  0  0
   32.6950   30.4570   35.4610 C   0  0  0  0  0  0  0  0  0  0  0  0
   32.9340   28.9110   34.0690 H   0  0  0  0  0  0  0  0  0  0  0  0
   36.4980   31.0400   35.3010 H   0  0  0  0  0  0  0  0  0  0  0  0
   35.9370   33.0130   37.1190 H   0  0  0  0  0  0  0  0  0  0  0  0
   33.8410   33.9050   38.2610 H   0  0  0  0  0  0  0  0  0  0  0  0
   31.6190   30.3060   35.5180 H   0  0  0  0  0  0  0  0  0  0  0  0
   38.4110   26.6610   34.0150 C   0  0  0  0  0  0  0  0  0  0  0  0
   39.6310   26.9420   33.8940 O   0  0  0  0  0  0  0  0  0  0  0  0
   38.0490   25.4450   34.8460 C   0  0  1  0  0  0  0  0  0  0  0  0
   38.1650   24.0920   34.1140 C   0  0  0  0  0  0  0  0  0  0  0  0
   39.0810   24.4730   35.2120 C   0  0  2  0  0  0  0  0  0  0  0  0
   37.0650   25.5130   35.3830 H   0  0  0  0  0  0  0  0  0  0  0  0
   37.4080   23.3120   34.3340 H   0  0  0  0  0  0  0  0  0  0  0  0
   38.4940   24.1770   33.0750 H   0  0  0  0  0  0  0  0  0  0  0  0
   40.1190   24.7440   34.8840 H   0  0  0  0  0  0  0  0  0  0  0  0
   39.0010   23.8680   36.5570 C   0  0  0  0  0  0  0  0  0  0  0  0
   38.0930   24.1570   37.5060 N   0  0  0  0  0  0  0  0  0  0  0  0
   38.3620   23.3860   38.5980 C   0  0  0  0  0  0  0  0  0  0  0  0
   37.9410   23.2450   39.5890 H   0  0  0  0  0  0  0  0  0  0  0  0
   39.4370   22.6340   38.2960 N   0  0  0  0  0  0  0  0  0  0  0  0
   40.0350   21.8950   38.7700 H   0  0  0  0  0  0  0  0  0  0  0  0
   39.8140   22.9240   37.0820 N   0  0  0  0  0  0  0  0  0  0  0  0
  1  6  2  0  0  0  0
  1  2  1  0  0  0  0
  2  3  2  0  0  0  0
  3  4  1  0  0  0  0
  3 10  1  0  0  0  0
  5 23  1  0  0  0  0
  5  4  2  0  0  0  0
  6  5  1  0  0  0  0
  7  1  1  0  0  0  0
  8  2  1  0  0  0  0
  9 17  1  0  0  0  0
 10  9  2  0  0  0  0
 10 11  1  0  0  0  0
 11 12  2  0  0  0  0
 12 16  1  0  0  0  0
 12 13  1  0  0  0  0
 13 20  1  0  0  0  0
 13 14  1  0  0  0  0
 14 21  1  0  0  0  0
 15 14  2  0  0  0  0
 16 15  1  0  0  0  0
 17 22  1  0  0  0  0
 17 16  2  0  0  0  0
 18  9  1  0  0  0  0
 19 11  1  0  0  0  0
 23 25  1  0  0  0  0
 24 23  2  0  0  0  0
 25 27  1  0  0  0  0
 25 28  1  1  0  0  0
 26 29  1  0  0  0  0
 26 25  1  0  0  0  0
 26 27  1  0  0  0  0
 27 31  1  6  0  0  0
 27 32  1  0  0  0  0
 30 26  1  0  0  0  0
 32 38  2  0  0  0  0
 32 33  1  0  0  0  0
 33 34  2  0  0  0  0
 34 35  1  0  0  0  0
 36 34  1  0  0  0  0
 36 37  1  0  0  0  0
 38 36  1  0  0  0  0
M  END
>  <minimizedAffinity>
-6.30380821

$$$$

 OpenBabel03262523343D

 38 42  0  0  1  0  0  0  0  0999 V2000
   38.1870   27.0930   31.2940 C   0  0  0  0  0  0  0  0  0  0  0  0
   38.6360   26.2240   32.2690 C   0  0  0  0  0  0  0  0  0  0  0  0
   38.0030   26.2260   33.5220 C   0  0  0  0  0  0  0  0  0  0  0  0
   36.9640   27.0980   33.7120 N   0  0  0  0  0  0  0  0  0  0  0  0
   36.5600   27.9280   32.7300 C   0  0  0  0  0  0  0  0  0  0  0  0
   37.1480   27.9380   31.5400 N   0  0  0  0  0  0  0  0  0  0  0  0
   38.6560   27.1220   30.3000 H   0  0  0  0  0  0  0  0  0  0  0  0
   39.4530   25.5530   32.0900 H   0  0  0  0  0  0  0  0  0  0  0  0
   39.3890   24.4170   34.3160 C   0  0  0  0  0  0  0  0  0  0  0  0
   38.3960   25.3620   34.6060 C   0  0  0  0  0  0  0  0  0  0  0  0
   37.8670   25.4050   35.8670 C   0  0  0  0  0  0  0  0  0  0  0  0
   38.3130   24.5280   36.8230 C   0  0  0  0  0  0  0  0  0  0  0  0
   37.9330   24.3960   38.1130 N   0  0  0  0  0  0  0  0  0  0  0  0
   38.6460   23.4090   38.6420 C   0  0  0  0  0  0  0  0  0  0  0  0
   39.4780   22.8970   37.7310 N   0  0  0  0  0  0  0  0  0  0  0  0
   39.2890   23.5820   36.5820 C   0  0  0  0  0  0  0  0  0  0  0  0
   39.8300   23.5330   35.3030 C   0  0  0  0  0  0  0  0  0  0  0  0
   39.8880   24.2840   33.3490 H   0  0  0  0  0  0  0  0  0  0  0  0
   37.1000   26.1300   36.1020 H   0  0  0  0  0  0  0  0  0  0  0  0
   37.2020   24.9820   38.5890 H   0  0  0  0  0  0  0  0  0  0  0  0
   38.5280   23.0990   39.6800 H   0  0  0  0  0  0  0  0  0  0  0  0
   40.6000   22.7940   35.0940 H   0  0  0  0  0  0  0  0  0  0  0  0
   35.4530   28.8160   33.0050 C   0  0  0  0  0  0  0  0  0  0  0  0
   34.3290   28.7160   32.4490 O   0  0  0  0  0  0  0  0  0  0  0  0
   35.6410   29.9340   34.0130 C   0  0  1  0  0  0  0  0  0  0  0  0
   35.7720   31.3470   33.4090 C   0  0  0  0  0  0  0  0  0  0  0  0
   34.5910   30.9370   34.2010 C   0  0  2  0  0  0  0  0  0  0  0  0
   36.4510   29.7580   34.7710 H   0  0  0  0  0  0  0  0  0  0  0  0
   36.4800   32.0550   33.8860 H   0  0  0  0  0  0  0  0  0  0  0  0
   35.7160   31.3690   32.3180 H   0  0  0  0  0  0  0  0  0  0  0  0
   33.6610   30.7620   33.5990 H   0  0  0  0  0  0  0  0  0  0  0  0
   34.3500   31.4230   35.5750 C   0  0  0  0  0  0  0  0  0  0  0  0
   33.1590   31.4880   36.1970 N   0  0  0  0  0  0  0  0  0  0  0  0
   33.3630   31.9920   37.4480 C   0  0  0  0  0  0  0  0  0  0  0  0
   32.7510   32.2320   38.3130 H   0  0  0  0  0  0  0  0  0  0  0  0
   34.6830   32.2270   37.5690 N   0  0  0  0  0  0  0  0  0  0  0  0
   35.3480   32.6020   38.3080 H   0  0  0  0  0  0  0  0  0  0  0  0
   35.2660   31.8870   36.4530 N   0  0  0  0  0  0  0  0  0  0  0  0
  1  6  2  0  0  0  0
  1  2  1  0  0  0  0
  2  3  2  0  0  0  0
  3  4  1  0  0  0  0
  3 10  1  0  0  0  0
  5 23  1  0  0  0  0
  5  4  2  0  0  0  0
  6  5  1  0  0  0  0
  7  1  1  0  0  0  0
  8  2  1  0  0  0  0
  9 10  2  0  0  0  0
  9 17  1  0  0  0  0
 10 11  1  0  0  0  0
 11 19  1  0  0  0  0
 11 12  2  0  0  0  0
 12 13  1  0  0  0  0
 13 20  1  0  0  0  0
 13 14  1  0  0  0  0
 14 21  1  0  0  0  0
 15 14  2  0  0  0  0
 16 12  1  0  0  0  0
 16 15  1  0  0  0  0
 17 16  2  0  0  0  0
 18  9  1  0  0  0  0
 22 17  1  0  0  0  0
 23 25  1  0  0  0  0
 24 23  2  0  0  0  0
 25 27  1  0  0  0  0
 25 28  1  1  0  0  0
 26 29  1  0  0  0  0
 26 25  1  0  0  0  0
 26 27  1  0  0  0  0
 27 31  1  6  0  0  0
 27 32  1  0  0  0  0
 30 26  1  0  0  0  0
 32 33  1  0  0  0  0
 32 38  2  0  0  0  0
 33 34  2  0  0  0  0
 34 36  1  0  0  0  0
 34 35  1  0  0  0  0
 36 37  1  0  0  0  0
 38 36  1  0  0  0  0
M  END
>  <minimizedAffinity>
-6.14474678

$$$$

 OpenBabel03262523343D

 38 42  0  0  1  0  0  0  0  0999 V2000
   43.5090   26.3590   33.9000 C   0  0  0  0  0  0  0  0  0  0  0  0
   42.2720   26.9690   33.8360 C   0  0  0  0  0  0  0  0  0  0  0  0
   41.1400   26.2520   34.2520 C   0  0  0  0  0  0  0  0  0  0  0  0
   41.3250   24.9720   34.7050 N   0  0  0  0  0  0  0  0  0  0  0  0
   42.5520   24.4180   34.7490 C   0  0  0  0  0  0  0  0  0  0  0  0
   43.6330   25.0820   34.3590 N   0  0  0  0  0  0  0  0  0  0  0  0
   44.4210   26.8870   33.5830 H   0  0  0  0  0  0  0  0  0  0  0  0
   42.1600   27.9740   33.4760 H   0  0  0  0  0  0  0  0  0  0  0  0
   39.2040   27.0260   35.4660 C   0  0  0  0  0  0  0  0  0  0  0  0
   39.8060   26.7960   34.2230 C   0  0  0  0  0  0  0  0  0  0  0  0
   39.1100   27.0890   33.0820 C   0  0  0  0  0  0  0  0  0  0  0  0
   37.8400   27.6000   33.1720 C   0  0  0  0  0  0  0  0  0  0  0  0
   36.9830   27.9550   32.1880 N   0  0  0  0  0  0  0  0  0  0  0  0
   35.8720   28.3960   32.7640 C   0  0  0  0  0  0  0  0  0  0  0  0
   35.9830   28.3380   34.0930 N   0  0  0  0  0  0  0  0  0  0  0  0
   37.2080   27.8430   34.3750 C   0  0  0  0  0  0  0  0  0  0  0  0
   37.9100   27.5470   35.5370 C   0  0  0  0  0  0  0  0  0  0  0  0
   39.6560   26.8330   36.4460 H   0  0  0  0  0  0  0  0  0  0  0  0
   39.5650   26.9150   32.1170 H   0  0  0  0  0  0  0  0  0  0  0  0
   37.1860   27.8830   31.1600 H   0  0  0  0  0  0  0  0  0  0  0  0
   35.0170   28.7440   32.1850 H   0  0  0  0  0  0  0  0  0  0  0  0
   37.4280   27.7320   36.4950 H   0  0  0  0  0  0  0  0  0  0  0  0
   42.6670   23.0640   35.2430 C   0  0  0  0  0  0  0  0  0  0  0  0
   43.7270   22.3900   35.1790 O   0  0  0  0  0  0  0  0  0  0  0  0
   41.4530   22.4050   35.8720 C   0  0  1  0  0  0  0  0  0  0  0  0
   41.7400   21.5800   37.1430 C   0  0  0  0  0  0  0  0  0  0  0  0
   40.9750   22.8470   37.1830 C   0  0  2  0  0  0  0  0  0  0  0  0
   40.8130   21.8150   35.1620 H   0  0  0  0  0  0  0  0  0  0  0  0
   41.1710   20.6400   37.2950 H   0  0  0  0  0  0  0  0  0  0  0  0
   42.7930   21.5690   37.4360 H   0  0  0  0  0  0  0  0  0  0  0  0
   41.5330   23.7170   37.6170 H   0  0  0  0  0  0  0  0  0  0  0  0
   39.5150   22.8840   37.3990 C   0  0  0  0  0  0  0  0  0  0  0  0
   38.5680   22.7160   36.4580 N   0  0  0  0  0  0  0  0  0  0  0  0
   37.3490   22.8240   37.0620 C   0  0  0  0  0  0  0  0  0  0  0  0
   36.3090   22.7690   36.7550 H   0  0  0  0  0  0  0  0  0  0  0  0
   37.5740   23.0570   38.3680 N   0  0  0  0  0  0  0  0  0  0  0  0
   36.9980   23.2140   39.2470 H   0  0  0  0  0  0  0  0  0  0  0  0
   38.8630   23.0920   38.5640 N   0  0  0  0  0  0  0  0  0  0  0  0
  1  6  1  0  0  0  0
  2  1  2  0  0  0  0
  2  3  1  0  0  0  0
  3  4  2  0  0  0  0
  4  5  1  0  0  0  0
  5 23  1  0  0  0  0
  6  5  2  0  0  0  0
  7  1  1  0  0  0  0
  8  2  1  0  0  0  0
  9 17  1  0  0  0  0
  9 18  1  0  0  0  0
 10  3  1  0  0  0  0
 10  9  2  0  0  0  0
 11 12  2  0  0  0  0
 11 10  1  0  0  0  0
 12 16  1  0  0  0  0
 13 14  1  0  0  0  0
 13 12  1  0  0  0  0
 14 15  2  0  0  0  0
 15 16  1  0  0  0  0
 16 17  2  0  0  0  0
 17 22  1  0  0  0  0
 19 11  1  0  0  0  0
 20 13  1  0  0  0  0
 21 14  1  0  0  0  0
 23 25  1  0  0  0  0
 24 23  2  0  0  0  0
 25 28  1  6  0  0  0
 25 26  1  0  0  0  0
 25 27  1  0  0  0  0
 26 27  1  0  0  0  0
 26 29  1  0  0  0  0
 26 30  1  0  0  0  0
 27 32  1  0  0  0  0
 27 31  1  1  0  0  0
 32 38  2  0  0  0  0
 33 34  2  0  0  0  0
 33 32  1  0  0  0  0
 34 36  1  0  0  0  0
 35 34  1  0  0  0  0
 36 38  1  0  0  0  0
 36 37  1  0  0  0  0
M  END
>  <minimizedAffinity>
-6.01179314

$$$$

 OpenBabel03262523343D

 38 42  0  0  1  0  0  0  0  0999 V2000
   38.2100   28.0120   30.9250 C   0  0  0  0  0  0  0  0  0  0  0  0
   37.0190   28.5980   31.3050 C   0  0  0  0  0  0  0  0  0  0  0  0
   36.5700   28.4260   32.6240 C   0  0  0  0  0  0  0  0  0  0  0  0
   37.3450   27.6800   33.4710 N   0  0  0  0  0  0  0  0  0  0  0  0
   38.5010   27.1270   33.0550 C   0  0  0  0  0  0  0  0  0  0  0  0
   38.9400   27.2790   31.8120 N   0  0  0  0  0  0  0  0  0  0  0  0
   38.5970   28.1220   29.9010 H   0  0  0  0  0  0  0  0  0  0  0  0
   36.4340   29.1770   30.6180 H   0  0  0  0  0  0  0  0  0  0  0  0
   35.4360   29.7420   34.2990 C   0  0  0  0  0  0  0  0  0  0  0  0
   35.3420   28.9940   33.1180 C   0  0  0  0  0  0  0  0  0  0  0  0
   34.1200   28.8450   32.5220 C   0  0  0  0  0  0  0  0  0  0  0  0
   33.0110   29.4270   33.0850 C   0  0  0  0  0  0  0  0  0  0  0  0
   31.7250   29.4060   32.6700 N   0  0  0  0  0  0  0  0  0  0  0  0
   31.0120   30.1100   33.5410 C   0  0  0  0  0  0  0  0  0  0  0  0
   31.7990   30.5860   34.5090 N   0  0  0  0  0  0  0  0  0  0  0  0
   33.0590   30.1720   34.2450 C   0  0  0  0  0  0  0  0  0  0  0  0
   34.2970   30.3270   34.8560 C   0  0  0  0  0  0  0  0  0  0  0  0
   36.3540   29.9330   34.8680 H   0  0  0  0  0  0  0  0  0  0  0  0
   34.0340   28.2690   31.6110 H   0  0  0  0  0  0  0  0  0  0  0  0
   31.3780   28.9150   31.8090 H   0  0  0  0  0  0  0  0  0  0  0  0
   29.9370   30.2470   33.4340 H   0  0  0  0  0  0  0  0  0  0  0  0
   34.3530   30.9110   35.7720 H   0  0  0  0  0  0  0  0  0  0  0  0
   39.2650   26.3550   34.0100 C   0  0  0  0  0  0  0  0  0  0  0  0
   40.5080   26.4780   34.1630 O   0  0  0  0  0  0  0  0  0  0  0  0
   38.5470   25.3400   34.8780 C   0  0  1  0  0  0  0  0  0  0  0  0
   38.3430   23.9540   34.2340 C   0  0  0  0  0  0  0  0  0  0  0  0
   39.2620   24.1620   35.3740 C   0  0  2  0  0  0  0  0  0  0  0  0
   37.5870   25.7010   35.3360 H   0  0  0  0  0  0  0  0  0  0  0  0
   37.3940   23.4160   34.4400 H   0  0  0  0  0  0  0  0  0  0  0  0
   38.7420   23.8740   33.2190 H   0  0  0  0  0  0  0  0  0  0  0  0
   40.3510   24.1280   35.1100 H   0  0  0  0  0  0  0  0  0  0  0  0
   38.9470   23.7000   36.7410 C   0  0  0  0  0  0  0  0  0  0  0  0
   37.8640   24.0370   37.4650 N   0  0  0  0  0  0  0  0  0  0  0  0
   37.9460   23.4010   38.6690 C   0  0  0  0  0  0  0  0  0  0  0  0
   37.3480   23.3430   39.5730 H   0  0  0  0  0  0  0  0  0  0  0  0
   39.0850   22.6830   38.6610 N   0  0  0  0  0  0  0  0  0  0  0  0
   39.6060   22.0320   39.3190 H   0  0  0  0  0  0  0  0  0  0  0  0
   39.6760   22.8630   37.5120 N   0  0  0  0  0  0  0  0  0  0  0  0
  1  2  2  0  0  0  0
  1  6  1  0  0  0  0
  2  3  1  0  0  0  0
  3 10  1  0  0  0  0
  3  4  2  0  0  0  0
  5  4  1  0  0  0  0
  5 23  1  0  0  0  0
  6  5  2  0  0  0  0
  7  1  1  0  0  0  0
  8  2  1  0  0  0  0
  9 17  1  0  0  0  0
  9 18  1  0  0  0  0
 10  9  2  0  0  0  0
 11 12  2  0  0  0  0
 11 10  1  0  0  0  0
 12 16  1  0  0  0  0
 13 12  1  0  0  0  0
 13 14  1  0  0  0  0
 14 15  2  0  0  0  0
 16 15  1  0  0  0  0
 16 17  2  0  0  0  0
 17 22  1  0  0  0  0
 19 11  1  0  0  0  0
 20 13  1  0  0  0  0
 21 14  1  0  0  0  0
 23 24  2  0  0  0  0
 23 25  1  0  0  0  0
 25 28  1  1  0  0  0
 25 27  1  0  0  0  0
 26 29  1  0  0  0  0
 26 25  1  0  0  0  0
 26 27  1  0  0  0  0
 27 31  1  6  0  0  0
 27 32  1  0  0  0  0
 30 26  1  0  0  0  0
 32 33  1  0  0  0  0
 32 38  2  0  0  0  0
 33 34  2  0  0  0  0
 34 35  1  0  0  0  0
 36 34  1  0  0  0  0
 36 37  1  0  0  0  0
 38 36  1  0  0  0  0
M  END
>  <minimizedAffinity>
-5.99562073

$$$$

 OpenBabel03262523343D

 38 42  0  0  1  0  0  0  0  0999 V2000
   38.2460   25.4410   35.6040 C   0  0  0  0  0  0  0  0  0  0  0  0
   37.6930   26.6590   35.2630 C   0  0  0  0  0  0  0  0  0  0  0  0
   37.1680   26.8260   33.9720 C   0  0  0  0  0  0  0  0  0  0  0  0
   37.2320   25.7620   33.1130 N   0  0  0  0  0  0  0  0  0  0  0  0
   37.7810   24.5910   33.4910 C   0  0  0  0  0  0  0  0  0  0  0  0
   38.2820   24.4160   34.7080 N   0  0  0  0  0  0  0  0  0  0  0  0
   38.6680   25.2690   36.6060 H   0  0  0  0  0  0  0  0  0  0  0  0
   37.6580   27.4740   35.9590 H   0  0  0  0  0  0  0  0  0  0  0  0
   36.0730   28.9090   34.5100 C   0  0  0  0  0  0  0  0  0  0  0  0
   36.5720   28.0570   33.5160 C   0  0  0  0  0  0  0  0  0  0  0  0
   36.4630   28.4290   32.2050 C   0  0  0  0  0  0  0  0  0  0  0  0
   35.8710   29.6240   31.8830 C   0  0  0  0  0  0  0  0  0  0  0  0
   35.6590   30.1810   30.6700 N   0  0  0  0  0  0  0  0  0  0  0  0
   35.0500   31.3440   30.8630 C   0  0  0  0  0  0  0  0  0  0  0  0
   34.8600   31.5580   32.1670 N   0  0  0  0  0  0  0  0  0  0  0  0
   35.3660   30.4940   32.8290 C   0  0  0  0  0  0  0  0  0  0  0  0
   35.4740   30.1210   34.1630 C   0  0  0  0  0  0  0  0  0  0  0  0
   36.1000   28.7230   35.5900 H   0  0  0  0  0  0  0  0  0  0  0  0
   36.8440   27.7800   31.4290 H   0  0  0  0  0  0  0  0  0  0  0  0
   35.9370   29.7500   29.7530 H   0  0  0  0  0  0  0  0  0  0  0  0
   34.7650   31.9940   30.0360 H   0  0  0  0  0  0  0  0  0  0  0  0
   35.0820   30.7940   34.9220 H   0  0  0  0  0  0  0  0  0  0  0  0
   37.8080   23.5130   32.5280 C   0  0  0  0  0  0  0  0  0  0  0  0
   38.7690   23.3090   31.7420 O   0  0  0  0  0  0  0  0  0  0  0  0
   36.6230   22.5690   32.4470 C   0  0  1  0  0  0  0  0  0  0  0  0
   35.6450   22.8430   31.2870 C   0  0  0  0  0  0  0  0  0  0  0  0
   36.5020   21.6380   31.3240 C   0  0  2  0  0  0  0  0  0  0  0  0
   36.0590   22.4330   33.4090 H   0  0  0  0  0  0  0  0  0  0  0  0
   34.5610   22.6990   31.4730 H   0  0  0  0  0  0  0  0  0  0  0  0
   35.9260   23.6940   30.6620 H   0  0  0  0  0  0  0  0  0  0  0  0
   37.3630   21.6530   30.6060 H   0  0  0  0  0  0  0  0  0  0  0  0
   35.9660   20.2910   31.6100 C   0  0  0  0  0  0  0  0  0  0  0  0
   36.6790   19.1540   31.6980 N   0  0  0  0  0  0  0  0  0  0  0  0
   35.8150   18.1350   31.9730 C   0  0  0  0  0  0  0  0  0  0  0  0
   35.8850   17.0630   32.1350 H   0  0  0  0  0  0  0  0  0  0  0  0
   34.5830   18.6700   32.0500 N   0  0  0  0  0  0  0  0  0  0  0  0
   33.5920   18.3340   32.2340 H   0  0  0  0  0  0  0  0  0  0  0  0
   34.6770   19.9520   31.8330 N   0  0  0  0  0  0  0  0  0  0  0  0
  1  7  1  0  0  0  0
  2  1  1  0  0  0  0
  2  8  1  0  0  0  0
  3  2  2  0  0  0  0
  4  5  2  0  0  0  0
  4  3  1  0  0  0  0
  5  6  1  0  0  0  0
  6  1  2  0  0  0  0
  9 18  1  0  0  0  0
 10  3  1  0  0  0  0
 10  9  2  0  0  0  0
 11 10  1  0  0  0  0
 12 11  2  0  0  0  0
 12 16  1  0  0  0  0
 13 14  1  0  0  0  0
 13 12  1  0  0  0  0
 14 15  2  0  0  0  0
 15 16  1  0  0  0  0
 16 17  2  0  0  0  0
 17  9  1  0  0  0  0
 17 22  1  0  0  0  0
 19 11  1  0  0  0  0
 20 13  1  0  0  0  0
 21 14  1  0  0  0  0
 23  5  1  0  0  0  0
 24 23  2  0  0  0  0
 25 23  1  0  0  0  0
 25 28  1  1  0  0  0
 26 27  1  0  0  0  0
 26 29  1  0  0  0  0
 26 25  1  0  0  0  0
 27 31  1  6  0  0  0
 27 32  1  0  0  0  0
 27 25  1  0  0  0  0
 30 26  1  0  0  0  0
 32 33  1  0  0  0  0
 32 38  2  0  0  0  0
 33 34  2  0  0  0  0
 34 36  1  0  0  0  0
 34 35  1  0  0  0  0
 36 37  1  0  0  0  0
 38 36  1  0  0  0  0
M  END
>  <minimizedAffinity>
-5.9223814

$$$$

 OpenBabel03262523343D

 38 42  0  0  1  0  0  0  0  0999 V2000
   38.3030   23.5630   38.1050 C   0  0  0  0  0  0  0  0  0  0  0  0
   37.5020   23.1120   37.0750 C   0  0  0  0  0  0  0  0  0  0  0  0
   38.0810   22.3430   36.0530 C   0  0  0  0  0  0  0  0  0  0  0  0
   39.4230   22.0790   36.1350 N   0  0  0  0  0  0  0  0  0  0  0  0
   40.1650   22.5410   37.1600 C   0  0  0  0  0  0  0  0  0  0  0  0
   39.6330   23.2690   38.1340 N   0  0  0  0  0  0  0  0  0  0  0  0
   37.8870   24.1690   38.9250 H   0  0  0  0  0  0  0  0  0  0  0  0
   36.4540   23.3350   37.0390 H   0  0  0  0  0  0  0  0  0  0  0  0
   36.2200   21.0380   35.2450 C   0  0  0  0  0  0  0  0  0  0  0  0
   37.3340   21.8270   34.9350 C   0  0  0  0  0  0  0  0  0  0  0  0
   37.6450   22.0510   33.6220 C   0  0  0  0  0  0  0  0  0  0  0  0
   36.8660   21.5040   32.6340 C   0  0  0  0  0  0  0  0  0  0  0  0
   36.9890   21.5950   31.2910 N   0  0  0  0  0  0  0  0  0  0  0  0
   35.9990   20.8960   30.7490 C   0  0  0  0  0  0  0  0  0  0  0  0
   35.2370   20.3550   31.7030 N   0  0  0  0  0  0  0  0  0  0  0  0
   35.7590   20.7220   32.8940 C   0  0  0  0  0  0  0  0  0  0  0  0
   35.4380   20.4900   34.2260 C   0  0  0  0  0  0  0  0  0  0  0  0
   35.8700   20.7860   36.2540 H   0  0  0  0  0  0  0  0  0  0  0  0
   38.5040   22.6590   33.3700 H   0  0  0  0  0  0  0  0  0  0  0  0
   37.7420   22.1280   30.7900 H   0  0  0  0  0  0  0  0  0  0  0  0
   35.8730   20.8080   29.6710 H   0  0  0  0  0  0  0  0  0  0  0  0
   34.5690   19.8750   34.4500 H   0  0  0  0  0  0  0  0  0  0  0  0
   41.5740   22.2170   37.1770 C   0  0  0  0  0  0  0  0  0  0  0  0
   42.0400   21.1810   37.7170 O   0  0  0  0  0  0  0  0  0  0  0  0
   42.5550   23.1670   36.5170 C   0  0  1  0  0  0  0  0  0  0  0  0
   43.3920   22.5560   35.3750 C   0  0  0  0  0  0  0  0  0  0  0  0
   42.3530   23.5800   35.1270 C   0  0  2  0  0  0  0  0  0  0  0  0
   43.2180   23.7320   37.2250 H   0  0  0  0  0  0  0  0  0  0  0  0
   44.4500   22.8720   35.2750 H   0  0  0  0  0  0  0  0  0  0  0  0
   43.1750   21.5020   35.1820 H   0  0  0  0  0  0  0  0  0  0  0  0
   41.4150   23.1910   34.6520 H   0  0  0  0  0  0  0  0  0  0  0  0
   42.6850   24.9760   34.7760 C   0  0  0  0  0  0  0  0  0  0  0  0
   43.8920   25.4360   34.3980 N   0  0  0  0  0  0  0  0  0  0  0  0
   43.7800   26.7750   34.1650 C   0  0  0  0  0  0  0  0  0  0  0  0
   44.4380   27.5790   33.8510 H   0  0  0  0  0  0  0  0  0  0  0  0
   42.5000   27.1130   34.4060 N   0  0  0  0  0  0  0  0  0  0  0  0
   41.9010   27.9910   34.3780 H   0  0  0  0  0  0  0  0  0  0  0  0
   41.8520   26.0400   34.7690 N   0  0  0  0  0  0  0  0  0  0  0  0
  1  6  1  0  0  0  0
  1  7  1  0  0  0  0
  2  1  2  0  0  0  0
  3  4  2  0  0  0  0
  3  2  1  0  0  0  0
  4  5  1  0  0  0  0
  5 23  1  0  0  0  0
  5  6  2  0  0  0  0
  8  2  1  0  0  0  0
  9 18  1  0  0  0  0
 10  9  1  0  0  0  0
 10  3  1  0  0  0  0
 11 10  2  0  0  0  0
 12 16  2  0  0  0  0
 12 11  1  0  0  0  0
 13 12  1  0  0  0  0
 14 13  1  0  0  0  0
 14 15  2  0  0  0  0
 15 16  1  0  0  0  0
 16 17  1  0  0  0  0
 17 22  1  0  0  0  0
 17  9  2  0  0  0  0
 19 11  1  0  0  0  0
 20 13  1  0  0  0  0
 21 14  1  0  0  0  0
 23 24  2  0  0  0  0
 25 23  1  0  0  0  0
 25 28  1  1  0  0  0
 26 25  1  0  0  0  0
 27 31  1  6  0  0  0
 27 26  1  0  0  0  0
 27 25  1  0  0  0  0
 29 26  1  0  0  0  0
 30 26  1  0  0  0  0
 32 27  1  0  0  0  0
 33 32  1  0  0  0  0
 34 33  2  0  0  0  0
 34 36  1  0  0  0  0
 35 34  1  0  0  0  0
 36 38  1  0  0  0  0
 37 36  1  0  0  0  0
 38 32  2  0  0  0  0
M  END
>  <minimizedAffinity>
-5.91863489

$$$$

 OpenBabel03262523343D

 38 42  0  0  1  0  0  0  0  0999 V2000
   37.0660   25.6820   31.3210 C   0  0  0  0  0  0  0  0  0  0  0  0
   36.1880   26.7450   31.2450 C   0  0  0  0  0  0  0  0  0  0  0  0
   36.4440   27.8920   32.0120 C   0  0  0  0  0  0  0  0  0  0  0  0
   37.5630   27.8960   32.8020 N   0  0  0  0  0  0  0  0  0  0  0  0
   38.3920   26.8350   32.8440 C   0  0  0  0  0  0  0  0  0  0  0  0
   38.1640   25.7430   32.1250 N   0  0  0  0  0  0  0  0  0  0  0  0
   36.9010   24.7650   30.7360 H   0  0  0  0  0  0  0  0  0  0  0  0
   35.3190   26.7110   30.6170 H   0  0  0  0  0  0  0  0  0  0  0  0
   34.7150   29.1830   33.0930 C   0  0  0  0  0  0  0  0  0  0  0  0
   35.5890   29.0520   32.0060 C   0  0  0  0  0  0  0  0  0  0  0  0
   35.5780   30.0050   31.0250 C   0  0  0  0  0  0  0  0  0  0  0  0
   34.7160   31.0680   31.1180 C   0  0  0  0  0  0  0  0  0  0  0  0
   34.5390   32.1090   30.2740 N   0  0  0  0  0  0  0  0  0  0  0  0
   33.5910   32.8840   30.7870 C   0  0  0  0  0  0  0  0  0  0  0  0
   33.1490   32.3770   31.9390 N   0  0  0  0  0  0  0  0  0  0  0  0
   33.8390   31.2380   32.1700 C   0  0  0  0  0  0  0  0  0  0  0  0
   33.8460   30.2730   33.1700 C   0  0  0  0  0  0  0  0  0  0  0  0
   34.6300   28.4890   33.9380 H   0  0  0  0  0  0  0  0  0  0  0  0
   36.2480   29.9140   30.1810 H   0  0  0  0  0  0  0  0  0  0  0  0
   35.0690   32.2540   29.3790 H   0  0  0  0  0  0  0  0  0  0  0  0
   33.2580   33.7970   30.2930 H   0  0  0  0  0  0  0  0  0  0  0  0
   33.1610   30.3900   34.0080 H   0  0  0  0  0  0  0  0  0  0  0  0
   39.5550   26.9160   33.6990 C   0  0  0  0  0  0  0  0  0  0  0  0
   40.6550   27.4020   33.3290 O   0  0  0  0  0  0  0  0  0  0  0  0
   39.4620   26.3910   35.1190 C   0  0  1  0  0  0  0  0  0  0  0  0
   38.5620   27.2120   36.0650 C   0  0  0  0  0  0  0  0  0  0  0  0
   38.1970   25.8490   35.6200 C   0  0  2  0  0  0  0  0  0  0  0  0
   40.4490   26.1750   35.6110 H   0  0  0  0  0  0  0  0  0  0  0  0
   38.8830   27.3310   37.1200 H   0  0  0  0  0  0  0  0  0  0  0  0
   38.1000   28.0820   35.5920 H   0  0  0  0  0  0  0  0  0  0  0  0
   37.3710   25.8090   34.8630 H   0  0  0  0  0  0  0  0  0  0  0  0
   38.2650   24.6770   36.5170 C   0  0  0  0  0  0  0  0  0  0  0  0
   37.9680   24.6620   37.8290 N   0  0  0  0  0  0  0  0  0  0  0  0
   38.1590   23.3930   38.2900 C   0  0  0  0  0  0  0  0  0  0  0  0
   38.0620   22.8760   39.2400 H   0  0  0  0  0  0  0  0  0  0  0  0
   38.5720   22.6500   37.2470 N   0  0  0  0  0  0  0  0  0  0  0  0
   38.8490   21.6410   37.0630 H   0  0  0  0  0  0  0  0  0  0  0  0
   38.6330   23.4180   36.1940 N   0  0  0  0  0  0  0  0  0  0  0  0
  1  6  1  0  0  0  0
  2  1  2  0  0  0  0
  2  3  1  0  0  0  0
  3  4  2  0  0  0  0
  4  5  1  0  0  0  0
  5 23  1  0  0  0  0
  6  5  2  0  0  0  0
  7  1  1  0  0  0  0
  8  2  1  0  0  0  0
  9 17  1  0  0  0  0
  9 18  1  0  0  0  0
 10  3  1  0  0  0  0
 10  9  2  0  0  0  0
 11 12  2  0  0  0  0
 11 10  1  0  0  0  0
 12 16  1  0  0  0  0
 13 14  1  0  0  0  0
 13 12  1  0  0  0  0
 14 15  2  0  0  0  0
 15 16  1  0  0  0  0
 16 17  2  0  0  0  0
 17 22  1  0  0  0  0
 19 11  1  0  0  0  0
 20 13  1  0  0  0  0
 21 14  1  0  0  0  0
 23 25  1  0  0  0  0
 24 23  2  0  0  0  0
 25 28  1  1  0  0  0
 25 27  1  0  0  0  0
 25 26  1  0  0  0  0
 26 29  1  0  0  0  0
 27 31  1  6  0  0  0
 27 26  1  0  0  0  0
 27 32  1  0  0  0  0
 30 26  1  0  0  0  0
 32 33  1  0  0  0  0
 33 34  2  0  0  0  0
 34 35  1  0  0  0  0
 36 34  1  0  0  0  0
 37 36  1  0  0  0  0
 38 32  2  0  0  0  0
 38 36  1  0  0  0  0
M  END
>  <minimizedAffinity>
-5.81864071

$$$$

 OpenBabel03262523343D

 38 42  0  0  1  0  0  0  0  0999 V2000
   36.4180   27.9070   33.9140 C   0  0  0  0  0  0  0  0  0  0  0  0
   36.4790   28.6590   32.7570 C   0  0  0  0  0  0  0  0  0  0  0  0
   37.3520   28.2570   31.7340 C   0  0  0  0  0  0  0  0  0  0  0  0
   38.1030   27.1300   31.9390 N   0  0  0  0  0  0  0  0  0  0  0  0
   38.0090   26.4280   33.0860 C   0  0  0  0  0  0  0  0  0  0  0  0
   37.1890   26.7950   34.0630 N   0  0  0  0  0  0  0  0  0  0  0  0
   35.7470   28.1880   34.7390 H   0  0  0  0  0  0  0  0  0  0  0  0
   35.8770   29.5370   32.6250 H   0  0  0  0  0  0  0  0  0  0  0  0
   38.3510   28.4040   29.5420 C   0  0  0  0  0  0  0  0  0  0  0  0
   37.4910   28.9720   30.4900 C   0  0  0  0  0  0  0  0  0  0  0  0
   36.8540   30.1450   30.1920 C   0  0  0  0  0  0  0  0  0  0  0  0
   37.0660   30.7440   28.9760 C   0  0  0  0  0  0  0  0  0  0  0  0
   36.5480   31.8900   28.4790 N   0  0  0  0  0  0  0  0  0  0  0  0
   37.0480   32.0620   27.2620 C   0  0  0  0  0  0  0  0  0  0  0  0
   37.8750   31.0600   26.9540 N   0  0  0  0  0  0  0  0  0  0  0  0
   37.9030   30.2190   28.0120 C   0  0  0  0  0  0  0  0  0  0  0  0
   38.5530   29.0280   28.3100 C   0  0  0  0  0  0  0  0  0  0  0  0
   38.9170   27.4720   29.6630 H   0  0  0  0  0  0  0  0  0  0  0  0
   36.1890   30.5940   30.9160 H   0  0  0  0  0  0  0  0  0  0  0  0
   35.8740   32.5150   28.9870 H   0  0  0  0  0  0  0  0  0  0  0  0
   36.7880   32.9200   26.6430 H   0  0  0  0  0  0  0  0  0  0  0  0
   39.2170   28.5990   27.5620 H   0  0  0  0  0  0  0  0  0  0  0  0
   38.8320   25.2480   33.2270 C   0  0  0  0  0  0  0  0  0  0  0  0
   39.8210   25.0000   32.4900 O   0  0  0  0  0  0  0  0  0  0  0  0
   38.4970   24.2440   34.3140 C   0  0  1  0  0  0  0  0  0  0  0  0
   39.1770   22.8680   34.1680 C   0  0  0  0  0  0  0  0  0  0  0  0
   39.5310   23.8080   35.2540 C   0  0  2  0  0  0  0  0  0  0  0  0
   37.4000   24.1170   34.5200 H   0  0  0  0  0  0  0  0  0  0  0  0
   38.5960   21.9660   34.4490 H   0  0  0  0  0  0  0  0  0  0  0  0
   39.8200   22.7830   33.2880 H   0  0  0  0  0  0  0  0  0  0  0  0
   40.5240   24.3150   35.1290 H   0  0  0  0  0  0  0  0  0  0  0  0
   39.1280   23.5870   36.6570 C   0  0  0  0  0  0  0  0  0  0  0  0
   38.0950   24.1730   37.2890 N   0  0  0  0  0  0  0  0  0  0  0  0
   38.0610   23.7030   38.5690 C   0  0  0  0  0  0  0  0  0  0  0  0
   37.4450   23.8560   39.4500 H   0  0  0  0  0  0  0  0  0  0  0  0
   39.0790   22.8320   38.6980 N   0  0  0  0  0  0  0  0  0  0  0  0
   39.4860   22.2080   39.4560 H   0  0  0  0  0  0  0  0  0  0  0  0
   39.7100   22.7660   37.5590 N   0  0  0  0  0  0  0  0  0  0  0  0
  1  6  1  0  0  0  0
  1  7  1  0  0  0  0
  2  1  2  0  0  0  0
  3  4  2  0  0  0  0
  3  2  1  0  0  0  0
  4  5  1  0  0  0  0
  5 23  1  0  0  0  0
  5  6  2  0  0  0  0
  8  2  1  0  0  0  0
  9 18  1  0  0  0  0
  9 10  1  0  0  0  0
 10  3  1  0  0  0  0
 11 10  2  0  0  0  0
 11 19  1  0  0  0  0
 12 11  1  0  0  0  0
 13 12  1  0  0  0  0
 13 20  1  0  0  0  0
 14 13  1  0  0  0  0
 15 14  2  0  0  0  0
 15 16  1  0  0  0  0
 16 17  1  0  0  0  0
 16 12  2  0  0  0  0
 17  9  2  0  0  0  0
 21 14  1  0  0  0  0
 22 17  1  0  0  0  0
 23 25  1  0  0  0  0
 24 23  2  0  0  0  0
 25 28  1  1  0  0  0
 25 27  1  0  0  0  0
 26 25  1  0  0  0  0
 26 29  1  0  0  0  0
 26 27  1  0  0  0  0
 27 31  1  6  0  0  0
 27 32  1  0  0  0  0
 30 26  1  0  0  0  0
 32 33  1  0  0  0  0
 32 38  2  0  0  0  0
 33 34  2  0  0  0  0
 34 36  1  0  0  0  0
 34 35  1  0  0  0  0
 36 37  1  0  0  0  0
 38 36  1  0  0  0  0
M  END
>  <minimizedAffinity>
-5.74304581

$$$$
