
 OpenBabel03272509403D

 33 35  0  0  0  0  0  0  0  0999 V2000
   37.6780   31.1330   48.8800 C   0  0  0  0  0  0  0  0  0  0  0  0
   37.6880   32.1810   49.8050 C   0  0  0  0  0  0  0  0  0  0  0  0
   38.3560   33.3730   49.5650 C   0  0  0  0  0  0  0  0  0  0  0  0
   39.0460   33.5400   48.3580 C   0  0  0  0  0  0  0  0  0  0  0  0
   39.0260   32.5080   47.4650 C   0  0  0  0  0  0  0  0  0  0  0  0
   38.3520   31.3290   47.7290 C   0  0  0  0  0  0  0  0  0  0  0  0
   37.1480   32.0350   50.7380 H   0  0  0  0  0  0  0  0  0  0  0  0
   38.3020   34.1190   50.3460 H   0  0  0  0  0  0  0  0  0  0  0  0
   39.5520   34.4760   48.2030 H   0  0  0  0  0  0  0  0  0  0  0  0
   39.5840   32.7240   46.5610 H   0  0  0  0  0  0  0  0  0  0  0  0
   36.9520   29.9210   49.2160 C   0  0  0  0  0  0  0  0  0  0  0  0
   37.5240   29.1870   50.0980 O   0  0  0  0  0  0  0  0  0  0  0  0
   33.9590   30.1820   47.1900 C   0  0  0  0  0  0  0  0  0  0  0  0
   33.2900   28.9910   47.4080 C   0  0  0  0  0  0  0  0  0  0  0  0
   33.8680   28.0650   48.2720 C   0  0  0  0  0  0  0  0  0  0  0  0
   35.0590   28.3680   48.8590 N   0  0  0  0  0  0  0  0  0  0  0  0
   35.6720   29.5210   48.6250 C   0  0  0  0  0  0  0  0  0  0  0  0
   35.1120   30.4220   47.7880 N   0  0  0  0  0  0  0  0  0  0  0  0
   33.4640   30.8760   46.5040 H   0  0  0  0  0  0  0  0  0  0  0  0
   32.3430   28.6910   46.9720 H   0  0  0  0  0  0  0  0  0  0  0  0
   33.4820   27.0930   48.5520 H   0  0  0  0  0  0  0  0  0  0  0  0
   38.4350   30.3390   46.6770 C   0  0  0  0  0  3  0  0  0  0  0  0
   39.0010   30.4980   45.4880 C   0  0  0  0  0  3  0  0  0  0  0  0
   39.1630   29.5960   44.3390 C   0  0  0  0  0  0  0  0  0  0  0  0
   38.1950   29.0870   44.1330 H   0  0  0  0  0  0  0  0  0  0  0  0
   39.8870   28.7720   44.5040 H   0  0  0  0  0  0  0  0  0  0  0  0
   39.5770   30.3270   43.1090 C   0  0  0  0  0  0  0  0  0  0  0  0
   40.4360   29.9420   42.1390 N   0  0  0  0  0  0  0  0  0  0  0  0
   40.4910   30.9400   41.2260 C   0  0  0  0  0  0  0  0  0  0  0  0
   41.0140   31.1150   40.2960 H   0  0  0  0  0  0  0  0  0  0  0  0
   39.6650   31.9150   41.6590 N   0  0  0  0  0  0  0  0  0  0  0  0
   39.3950   32.8650   41.2750 H   0  0  0  0  0  0  0  0  0  0  0  0
   39.1040   31.5570   42.7990 N   0  0  0  0  0  0  0  0  0  0  0  0
  1 11  1  0  0  0  0
  1  2  1  0  0  0  0
  2  7  1  0  0  0  0
  3  2  2  0  0  0  0
  3  8  1  0  0  0  0
  4  3  1  0  0  0  0
  5  6  1  0  0  0  0
  5  4  2  0  0  0  0
  6  1  2  0  0  0  0
  9  4  1  0  0  0  0
 10  5  1  0  0  0  0
 11 12  2  0  0  0  0
 13 14  2  0  0  0  0
 13 18  1  0  0  0  0
 14 15  1  0  0  0  0
 15 21  1  0  0  0  0
 15 16  2  0  0  0  0
 17 16  1  0  0  0  0
 17 11  1  0  0  0  0
 18 17  2  0  0  0  0
 19 13  1  0  0  0  0
 20 14  1  0  0  0  0
 22  6  1  0  0  0  0
 23 22  2  0  0  0  0
 24 26  1  0  0  0  0
 24 23  1  0  0  0  0
 25 24  1  0  0  0  0
 27 24  1  0  0  0  0
 28 27  1  0  0  0  0
 29 31  1  0  0  0  0
 29 28  2  0  0  0  0
 30 29  1  0  0  0  0
 31 33  1  0  0  0  0
 32 31  1  0  0  0  0
 33 27  2  0  0  0  0
M  END
>  <minimizedAffinity>
-5.7984972

>  <minimizedRMSD>
1.43238282

$$$$
