
 OpenBabel03272509183D

 31 33  0  0  0  0  0  0  0  0999 V2000
   38.0190   31.2510   47.7990 C   0  0  0  0  0  0  0  0  0  0  0  0
   37.0680   31.2840   48.8000 C   0  0  0  0  0  0  0  0  0  0  0  0
   37.1620   32.4100   49.6410 C   0  0  0  0  0  0  0  0  0  0  0  0
   38.1400   33.3860   49.4540 C   0  0  0  0  0  0  0  0  0  0  0  0
   39.0520   33.2620   48.4160 C   0  0  0  0  0  0  0  0  0  0  0  0
   38.9840   32.1640   47.5710 C   0  0  0  0  0  0  0  0  0  0  0  0
   36.4570   32.4980   50.4360 H   0  0  0  0  0  0  0  0  0  0  0  0
   38.1870   34.2410   50.1170 H   0  0  0  0  0  0  0  0  0  0  0  0
   39.8260   34.0010   48.2390 H   0  0  0  0  0  0  0  0  0  0  0  0
   34.9030   30.3100   48.2050 C   0  0  0  0  0  0  0  0  0  0  0  0
   36.0640   30.2860   48.9960 C   0  0  0  0  0  0  0  0  0  0  0  0
   36.1980   29.2800   49.9550 C   0  0  0  0  0  0  0  0  0  0  0  0
   35.1820   28.3760   50.0620 N   0  0  0  0  0  0  0  0  0  0  0  0
   34.0810   28.4230   49.2910 C   0  0  0  0  0  0  0  0  0  0  0  0
   33.9430   29.3800   48.3700 N   0  0  0  0  0  0  0  0  0  0  0  0
   34.7870   31.0890   47.4540 H   0  0  0  0  0  0  0  0  0  0  0  0
   33.3430   27.6560   49.4640 H   0  0  0  0  0  0  0  0  0  0  0  0
   37.4040   29.2170   50.8110 C   0  0  0  0  0  0  0  0  0  0  0  0
   37.7100   28.1840   51.0800 H   0  0  0  0  0  0  0  0  0  0  0  0
   38.2120   29.7930   50.2950 H   0  0  0  0  0  0  0  0  0  0  0  0
   37.1660   29.8230   51.7220 H   0  0  0  0  0  0  0  0  0  0  0  0
   38.0020   30.1650   46.9130 O   0  0  0  0  0  0  0  0  0  0  0  0
   37.2030   29.9000   46.3560 H   0  0  0  0  0  0  0  0  0  0  0  0
   39.9120   32.0570   46.5320 O   0  0  0  0  0  0  0  0  0  0  0  0
   39.4600   32.4350   45.2750 C   0  0  0  0  0  0  0  0  0  0  0  0
   40.1400   32.7530   44.1580 N   0  0  0  0  0  0  0  0  0  0  0  0
   39.2380   33.0470   43.2040 C   0  0  0  0  0  0  0  0  0  0  0  0
   39.4790   33.3420   42.1890 H   0  0  0  0  0  0  0  0  0  0  0  0
   38.0050   32.9120   43.7250 N   0  0  0  0  0  0  0  0  0  0  0  0
   37.1050   33.0740   43.2200 H   0  0  0  0  0  0  0  0  0  0  0  0
   38.1680   32.5410   44.9780 N   0  0  0  0  0  0  0  0  0  0  0  0
  1  2  1  0  0  0  0
  2 11  1  0  0  0  0
  2  3  2  0  0  0  0
  3  7  1  0  0  0  0
  4  3  1  0  0  0  0
  4  8  1  0  0  0  0
  5  4  2  0  0  0  0
  6  1  2  0  0  0  0
  6  5  1  0  0  0  0
  9  5  1  0  0  0  0
 10 15  2  0  0  0  0
 10 11  1  0  0  0  0
 11 12  2  0  0  0  0
 12 13  1  0  0  0  0
 12 18  1  0  0  0  0
 14 17  1  0  0  0  0
 14 13  2  0  0  0  0
 15 14  1  0  0  0  0
 16 10  1  0  0  0  0
 18 19  1  0  0  0  0
 18 21  1  0  0  0  0
 20 18  1  0  0  0  0
 22  1  1  0  0  0  0
 23 22  1  0  0  0  0
 24  6  1  0  0  0  0
 25 24  1  0  0  0  0
 26 25  1  0  0  0  0
 27 29  1  0  0  0  0
 27 26  2  0  0  0  0
 28 27  1  0  0  0  0
 29 31  1  0  0  0  0
 30 29  1  0  0  0  0
 31 25  2  0  0  0  0
M  END
>  <minimizedAffinity>
-6.46397924

>  <minimizedRMSD>
0.305227637

$$$$
