
 OpenBabel03272509183D

 31 33  0  0  0  0  0  0  0  0999 V2000
   38.0470   31.3110   47.6850 C   0  0  0  0  0  0  0  0  0  0  0  0
   37.0870   31.2880   48.6780 C   0  0  0  0  0  0  0  0  0  0  0  0
   37.1720   32.3670   49.5790 C   0  0  0  0  0  0  0  0  0  0  0  0
   38.1500   33.3530   49.4550 C   0  0  0  0  0  0  0  0  0  0  0  0
   39.0720   33.2860   48.4200 C   0  0  0  0  0  0  0  0  0  0  0  0
   39.0130   32.2360   47.5160 C   0  0  0  0  0  0  0  0  0  0  0  0
   36.4590   32.4110   50.3710 H   0  0  0  0  0  0  0  0  0  0  0  0
   38.1890   34.1700   50.1630 H   0  0  0  0  0  0  0  0  0  0  0  0
   39.8470   34.0350   48.2910 H   0  0  0  0  0  0  0  0  0  0  0  0
   34.9410   30.3320   47.9940 C   0  0  0  0  0  0  0  0  0  0  0  0
   36.0830   30.2800   48.8100 C   0  0  0  0  0  0  0  0  0  0  0  0
   36.1990   29.2360   49.7300 C   0  0  0  0  0  0  0  0  0  0  0  0
   35.1850   28.3260   49.7770 N   0  0  0  0  0  0  0  0  0  0  0  0
   34.1010   28.4000   48.9840 C   0  0  0  0  0  0  0  0  0  0  0  0
   33.9810   29.3940   48.0990 N   0  0  0  0  0  0  0  0  0  0  0  0
   34.8390   31.1410   47.2720 H   0  0  0  0  0  0  0  0  0  0  0  0
   33.3630   27.6250   49.1080 H   0  0  0  0  0  0  0  0  0  0  0  0
   37.3850   29.1430   50.6110 C   0  0  0  0  0  0  0  0  0  0  0  0
   37.6890   28.1000   50.8450 H   0  0  0  0  0  0  0  0  0  0  0  0
   38.2030   29.7410   50.1370 H   0  0  0  0  0  0  0  0  0  0  0  0
   37.1240   29.7110   51.5390 H   0  0  0  0  0  0  0  0  0  0  0  0
   38.0400   30.2740   46.7420 O   0  0  0  0  0  0  0  0  0  0  0  0
   37.2470   30.0390   46.1640 H   0  0  0  0  0  0  0  0  0  0  0  0
   39.9510   32.1860   46.4810 O   0  0  0  0  0  0  0  0  0  0  0  0
   39.4340   32.0250   45.2030 C   0  0  0  0  0  0  0  0  0  0  0  0
   39.7120   31.1110   44.2550 N   0  0  0  0  0  0  0  0  0  0  0  0
   38.9390   31.3860   43.1880 C   0  0  0  0  0  0  0  0  0  0  0  0
   38.9350   30.8230   42.2610 H   0  0  0  0  0  0  0  0  0  0  0  0
   38.1860   32.4620   43.4730 N   0  0  0  0  0  0  0  0  0  0  0  0
   37.4890   32.9090   42.8350 H   0  0  0  0  0  0  0  0  0  0  0  0
   38.5050   32.8290   44.6960 N   0  0  0  0  0  0  0  0  0  0  0  0
  1  2  1  0  0  0  0
  2 11  1  0  0  0  0
  2  3  2  0  0  0  0
  3  7  1  0  0  0  0
  4  3  1  0  0  0  0
  4  8  1  0  0  0  0
  5  4  2  0  0  0  0
  6  1  2  0  0  0  0
  6  5  1  0  0  0  0
  9  5  1  0  0  0  0
 10 15  2  0  0  0  0
 10 11  1  0  0  0  0
 11 12  2  0  0  0  0
 12 13  1  0  0  0  0
 12 18  1  0  0  0  0
 14 17  1  0  0  0  0
 14 13  2  0  0  0  0
 15 14  1  0  0  0  0
 16 10  1  0  0  0  0
 18 19  1  0  0  0  0
 18 21  1  0  0  0  0
 20 18  1  0  0  0  0
 22  1  1  0  0  0  0
 23 22  1  0  0  0  0
 24  6  1  0  0  0  0
 25 24  1  0  0  0  0
 26 25  1  0  0  0  0
 27 29  1  0  0  0  0
 27 26  2  0  0  0  0
 28 27  1  0  0  0  0
 29 31  1  0  0  0  0
 30 29  1  0  0  0  0
 31 25  2  0  0  0  0
M  END
>  <minimizedAffinity>
-6.22370338

>  <minimizedRMSD>
0.349863499

$$$$
