
 OpenBabel03272502273D

 38 41  0  0  0  0  0  0  0  0999 V2000
   37.6580   30.2070   51.0040 C   0  0  0  0  0  0  0  0  0  0  0  0
   38.1230   30.7790   49.8130 C   0  0  0  0  0  0  0  0  0  0  0  0
   37.4110   30.5120   48.6540 C   0  0  0  0  0  0  0  0  0  0  0  0
   36.3280   29.7230   48.7670 N   0  0  0  0  0  0  0  0  0  0  0  0
   35.8960   29.1820   49.9160 C   0  0  0  0  0  0  0  0  0  0  0  0
   36.5720   29.4310   51.0440 N   0  0  0  0  0  0  0  0  0  0  0  0
   38.2310   30.4300   51.8940 H   0  0  0  0  0  0  0  0  0  0  0  0
   38.9850   31.4050   49.7320 H   0  0  0  0  0  0  0  0  0  0  0  0
   37.7730   31.0400   47.3630 C   0  0  0  0  0  0  0  0  0  0  0  0
   37.0360   30.7210   46.2300 C   0  0  0  0  0  0  0  0  0  0  0  0
   37.3340   31.2010   44.9810 C   0  0  0  0  0  0  0  0  0  0  0  0
   38.3940   32.0230   44.8340 N   0  0  0  0  0  0  0  0  0  0  0  0
   39.1020   32.3260   45.9370 C   0  0  0  0  0  0  0  0  0  0  0  0
   38.8250   31.8680   47.1610 N   0  0  0  0  0  0  0  0  0  0  0  0
   36.1710   30.0600   46.3020 H   0  0  0  0  0  0  0  0  0  0  0  0
   36.7340   30.9280   44.1220 H   0  0  0  0  0  0  0  0  0  0  0  0
   40.2790   33.2320   45.8060 C   0  0  0  0  0  0  0  0  0  0  0  0
   40.3740   33.9640   46.9880 F   0  0  0  0  0  0  0  0  0  0  0  0
   41.4240   32.5070   45.5560 F   0  0  0  0  0  0  0  0  0  0  0  0
   40.1030   34.1480   44.7990 F   0  0  0  0  0  0  0  0  0  0  0  0
   34.7580   28.3940   49.8450 O   0  0  0  0  0  0  0  0  0  0  0  0
   33.6720   26.6240   46.8150 N   0  0  0  0  0  0  0  0  0  0  0  0
   34.2360   26.7740   48.0210 C   0  0  0  0  0  0  0  0  0  0  0  0
   34.2450   28.0110   48.6290 C   0  0  0  0  0  0  0  0  0  0  0  0
   33.6530   29.0870   47.9540 C   0  0  0  0  0  0  0  0  0  0  0  0
   33.5460   30.2960   48.3150 O   0  0  0  0  0  0  0  0  0  0  0  0
   33.0990   28.8660   46.7330 N   0  0  0  0  0  0  0  0  0  0  0  0
   33.1080   27.6490   46.1720 C   0  0  0  0  0  0  0  0  0  0  0  0
   32.5990   27.4170   45.0350 O   0  0  0  0  0  0  0  0  0  0  0  0
   33.7260   25.6490   46.4560 H   0  0  0  0  0  0  0  0  0  0  0  0
   34.7070   26.0100   48.6040 H   0  0  0  0  0  0  0  0  0  0  0  0
   32.4730   29.8780   45.9570 C   0  0  0  0  0  0  0  0  0  0  0  0
   32.3540   31.2220   45.9580 N   0  0  0  0  0  0  0  0  0  0  0  0
   31.5920   31.5770   44.8990 C   0  0  0  0  0  0  0  0  0  0  0  0
   31.3970   32.6140   44.7520 H   0  0  0  0  0  0  0  0  0  0  0  0
   31.2450   30.4480   44.2530 N   0  0  0  0  0  0  0  0  0  0  0  0
   30.6510   30.5250   43.4040 H   0  0  0  0  0  0  0  0  0  0  0  0
   31.7730   29.4100   44.8860 N   0  0  0  0  0  0  0  0  0  0  0  0
  1  6  1  0  0  0  0
  1  7  1  0  0  0  0
  2  1  2  0  0  0  0
  3  4  2  0  0  0  0
  3  2  1  0  0  0  0
  4  5  1  0  0  0  0
  5  6  2  0  0  0  0
  8  2  1  0  0  0  0
  9  3  1  0  0  0  0
 10 15  1  0  0  0  0
 10  9  2  0  0  0  0
 11 10  1  0  0  0  0
 12 11  2  0  0  0  0
 12 13  1  0  0  0  0
 13 14  2  0  0  0  0
 14  9  1  0  0  0  0
 16 11  1  0  0  0  0
 17 13  1  0  0  0  0
 17 18  1  0  0  0  0
 19 17  1  0  0  0  0
 20 17  1  0  0  0  0
 21  5  1  0  0  0  0
 22 23  1  0  0  0  0
 23 31  1  0  0  0  0
 23 24  2  0  0  0  0
 24 21  1  0  0  0  0
 25 26  2  0  0  0  0
 25 24  1  0  0  0  0
 27 25  1  0  0  0  0
 28 27  1  0  0  0  0
 28 22  1  0  0  0  0
 29 28  2  0  0  0  0
 30 22  1  0  0  0  0
 32 33  1  0  0  0  0
 32 27  1  0  0  0  0
 34 33  2  0  0  0  0
 35 34  1  0  0  0  0
 36 38  1  0  0  0  0
 36 34  1  0  0  0  0
 37 36  1  0  0  0  0
 38 32  2  0  0  0  0
M  END
>  <minimizedAffinity>
-6.73199129

>  <minimizedRMSD>
0.991535187

$$$$
