
 OpenBabel03272507373D

 21 22  0  0  0  0  0  0  0  0999 V2000
   37.3230   29.9820   49.0840 C   0  0  0  0  0  0  0  0  0  0  0  0
   36.1290   29.2850   49.2490 C   0  0  0  0  0  0  0  0  0  0  0  0
   35.6210   29.0950   50.5130 C   0  0  0  0  0  0  0  0  0  0  0  0
   36.3220   29.6040   51.5680 N   0  0  0  0  0  0  0  0  0  0  0  0
   37.4770   30.2770   51.3990 C   0  0  0  0  0  0  0  0  0  0  0  0
   37.9750   30.4650   50.1700 N   0  0  0  0  0  0  0  0  0  0  0  0
   34.6880   28.5560   50.6960 H   0  0  0  0  0  0  0  0  0  0  0  0
   38.0460   30.6870   52.2200 H   0  0  0  0  0  0  0  0  0  0  0  0
   34.3690   29.5310   47.5820 C   0  0  0  0  0  0  0  0  0  0  0  0
   33.9300   30.7220   47.7090 O   0  0  0  0  0  0  0  0  0  0  0  0
   35.3730   28.7450   48.2010 N   0  0  0  0  0  0  0  0  0  0  0  0
   33.7200   29.1620   46.7700 H   0  0  0  0  0  0  0  0  0  0  0  0
   35.4450   27.7810   47.7800 H   0  0  0  0  0  0  0  0  0  0  0  0
   37.6970   30.0890   47.7680 O   0  0  0  0  0  0  0  0  0  0  0  0
   38.3940   31.2220   47.3680 C   0  0  0  0  0  0  0  0  0  0  0  0
   39.3650   31.1930   46.4090 N   0  0  0  0  0  0  0  0  0  0  0  0
   39.8190   32.4620   46.2800 C   0  0  0  0  0  0  0  0  0  0  0  0
   40.5850   32.9190   45.6440 H   0  0  0  0  0  0  0  0  0  0  0  0
   39.1270   33.2290   47.1510 N   0  0  0  0  0  0  0  0  0  0  0  0
   39.2070   34.2510   47.3290 H   0  0  0  0  0  0  0  0  0  0  0  0
   38.2590   32.4850   47.8160 N   0  0  0  0  0  0  0  0  0  0  0  0
  1  2  2  0  0  0  0
  1  6  1  0  0  0  0
  2  3  1  0  0  0  0
  3  7  1  0  0  0  0
  3  4  2  0  0  0  0
  5  4  1  0  0  0  0
  5  8  1  0  0  0  0
  6  5  2  0  0  0  0
  9 10  2  0  0  0  0
  9 11  1  0  0  0  0
 11  2  1  0  0  0  0
 12  9  1  0  0  0  0
 13 11  1  0  0  0  0
 14  1  1  0  0  0  0
 15 14  1  0  0  0  0
 15 21  2  0  0  0  0
 16 15  1  0  0  0  0
 17 16  2  0  0  0  0
 17 19  1  0  0  0  0
 18 17  1  0  0  0  0
 19 20  1  0  0  0  0
 19 21  1  0  0  0  0
M  END
>  <minimizedAffinity>
-4.42583752

>  <minimizedRMSD>
5.65145254

$$$$
