
 OpenBabel03272507193D

 28 30  0  0  1  0  0  0  0  0999 V2000
   37.5370   31.2870   49.4360 C   0  0  0  0  0  0  0  0  0  0  0  0
   38.3190   32.4280   49.5950 C   0  0  0  0  0  0  0  0  0  0  0  0
   38.8400   32.9520   48.4150 C   0  0  0  0  0  0  0  0  0  0  0  0
   38.5820   32.3630   47.2000 N   0  0  0  0  0  0  0  0  0  0  0  0
   37.8120   31.2480   47.0970 C   0  0  0  0  0  0  0  0  0  0  0  0
   37.2840   30.7060   48.2310 N   0  0  0  0  0  0  0  0  0  0  0  0
   38.5060   32.8720   50.5460 H   0  0  0  0  0  0  0  0  0  0  0  0
   39.4630   33.8400   48.4250 H   0  0  0  0  0  0  0  0  0  0  0  0
   36.9490   30.7120   50.6850 C   0  0  1  0  0  0  0  0  0  0  0  0
   36.1030   29.5180   50.6590 C   0  0  2  0  0  0  0  0  0  0  0  0
   37.5440   29.3270   51.0150 C   0  0  0  0  0  0  0  0  0  0  0  0
   36.9830   31.4250   51.5510 H   0  0  0  0  0  0  0  0  0  0  0  0
   35.2900   29.5590   51.4390 H   0  0  0  0  0  0  0  0  0  0  0  0
   38.2120   28.8480   50.2910 H   0  0  0  0  0  0  0  0  0  0  0  0
   37.7670   29.1450   52.0810 H   0  0  0  0  0  0  0  0  0  0  0  0
   35.6490   29.0870   49.4200 O   0  0  0  0  0  0  0  0  0  0  0  0
   34.4580   28.5350   49.0870 C   0  0  0  0  0  0  0  0  0  0  0  0
   34.3630   27.5880   48.2770 O   0  0  0  0  0  0  0  0  0  0  0  0
   33.4470   29.1950   49.7820 N   0  0  0  0  0  0  0  0  0  0  0  0
   33.2840   30.1950   49.8900 H   0  0  0  0  0  0  0  0  0  0  0  0
   32.7890   28.5340   50.2420 H   0  0  0  0  0  0  0  0  0  0  0  0
   37.5940   30.6980   45.7860 C   0  0  0  0  0  0  0  0  0  0  0  0
   38.6260   30.2270   45.0260 N   0  0  0  0  0  0  0  0  0  0  0  0
   38.1600   29.7660   43.8420 C   0  0  0  0  0  0  0  0  0  0  0  0
   38.8820   29.3650   43.1490 H   0  0  0  0  0  0  0  0  0  0  0  0
   36.8280   29.9520   43.8680 N   0  0  0  0  0  0  0  0  0  0  0  0
   36.2480   29.6700   43.0590 H   0  0  0  0  0  0  0  0  0  0  0  0
   36.4800   30.5120   45.0340 N   0  0  0  0  0  0  0  0  0  0  0  0
  1  2  1  0  0  0  0
  1  9  1  0  0  0  0
  2  7  1  0  0  0  0
  3  8  1  0  0  0  0
  3  2  2  0  0  0  0
  4  3  1  0  0  0  0
  5  4  2  0  0  0  0
  5  6  1  0  0  0  0
  6  1  2  0  0  0  0
  9 11  1  0  0  0  0
  9 12  1  1  0  0  0
 10  9  1  0  0  0  0
 10 11  1  0  0  0  0
 10 13  1  1  0  0  0
 11 15  1  0  0  0  0
 14 11  1  0  0  0  0
 16 10  1  0  0  0  0
 17 16  1  0  0  0  0
 17 19  1  0  0  0  0
 18 17  2  0  0  0  0
 19 20  1  0  0  0  0
 19 21  1  0  0  0  0
 22  5  1  0  0  0  0
 23 22  1  0  0  0  0
 24 26  1  0  0  0  0
 24 23  2  0  0  0  0
 25 24  1  0  0  0  0
 26 28  1  0  0  0  0
 27 26  1  0  0  0  0
 28 22  2  0  0  0  0
M  END
>  <minimizedAffinity>
-5.26011276

>  <minimizedRMSD>
0.579963624

$$$$
