
 OpenBabel03272502343D

 34 36  0  0  1  0  0  0  0  0999 V2000
   37.7850   30.7010   48.7130 C   0  0  2  0  0  0  0  0  0  0  0  0
   38.3780   29.7660   48.7920 H   0  0  0  0  0  0  0  0  0  0  0  0
   38.5670   31.8800   48.3020 C   0  0  0  0  0  0  0  0  0  0  0  0
   38.6620   32.8670   49.3180 C   0  0  0  0  0  0  0  0  0  0  0  0
   39.3360   34.0510   49.1710 C   0  0  0  0  0  0  0  0  0  0  0  0
   39.9890   34.3550   47.9640 C   0  0  0  0  0  0  0  0  0  0  0  0
   39.8480   33.3410   47.0260 C   0  0  0  0  0  0  0  0  0  0  0  0
   39.1950   32.1790   47.1480 N   0  0  0  0  0  0  0  0  0  0  0  0
   38.2430   32.8640   50.3410 H   0  0  0  0  0  0  0  0  0  0  0  0
   39.4440   34.8390   49.9030 H   0  0  0  0  0  0  0  0  0  0  0  0
   40.5470   35.2040   47.6770 H   0  0  0  0  0  0  0  0  0  0  0  0
   40.3030   33.4350   46.0380 H   0  0  0  0  0  0  0  0  0  0  0  0
   35.6540   29.7820   48.1360 C   0  0  0  0  0  0  0  0  0  0  0  0
   36.6690   30.4780   47.7360 C   0  0  0  0  0  0  0  0  0  0  0  0
   33.5040   29.6390   45.0970 C   0  0  0  0  0  0  0  0  0  0  0  0
   34.5610   29.8670   45.9590 C   0  0  0  0  0  0  0  0  0  0  0  0
   34.5210   29.5110   47.2810 C   0  0  0  0  0  0  0  0  0  0  0  0
   33.3940   28.9240   47.6980 N   0  0  0  0  0  0  0  0  0  0  0  0
   32.3590   28.6870   46.9020 C   0  0  0  0  0  0  0  0  0  0  0  0
   32.4160   29.0480   45.5870 N   0  0  0  0  0  0  0  0  0  0  0  0
   33.4990   29.9060   44.0490 H   0  0  0  0  0  0  0  0  0  0  0  0
   35.3880   30.3480   45.4560 H   0  0  0  0  0  0  0  0  0  0  0  0
   31.1690   28.0400   47.4450 C   0  0  0  0  0  0  0  0  0  0  0  0
   31.1980   27.6360   48.7470 N   0  0  0  0  0  0  0  0  0  0  0  0
   29.9800   27.0730   48.9910 C   0  0  0  0  0  0  0  0  0  0  0  0
   29.6790   26.6480   49.9440 H   0  0  0  0  0  0  0  0  0  0  0  0
   29.2200   27.1320   47.8610 N   0  0  0  0  0  0  0  0  0  0  0  0
   28.2450   26.7900   47.7180 H   0  0  0  0  0  0  0  0  0  0  0  0
   29.9690   27.7290   46.9250 N   0  0  0  0  0  0  0  0  0  0  0  0
   37.0200   31.1290   50.3130 S   0  0  0  0  0  0  0  0  0  0  0  0
   36.9890   29.7220   51.4090 C   0  0  0  0  0  0  0  0  0  0  0  0
   37.6540   29.9410   52.6030 F   0  0  0  0  0  0  0  0  0  0  0  0
   35.7060   29.2610   51.6180 F   0  0  0  0  0  0  0  0  0  0  0  0
   37.6560   28.6780   50.7260 F   0  0  0  0  0  0  0  0  0  0  0  0
  1  2  1  1  0  0  0
  1 30  1  0  0  0  0
  3  1  1  0  0  0  0
  3  4  1  0  0  0  0
  4  9  1  0  0  0  0
  5  4  2  0  0  0  0
  5 10  1  0  0  0  0
  6  5  1  0  0  0  0
  7  8  1  0  0  0  0
  7  6  2  0  0  0  0
  8  3  2  0  0  0  0
 11  6  1  0  0  0  0
 12  7  1  0  0  0  0
 14 13  2  0  0  0  0
 14  1  1  0  0  0  0
 15 20  2  0  0  0  0
 15 16  1  0  0  0  0
 16 17  2  0  0  0  0
 17 18  1  0  0  0  0
 17 13  1  0  0  0  0
 19 23  1  0  0  0  0
 19 18  2  0  0  0  0
 20 19  1  0  0  0  0
 21 15  1  0  0  0  0
 22 16  1  0  0  0  0
 23 24  1  0  0  0  0
 24 25  2  0  0  0  0
 25 26  1  0  0  0  0
 27 25  1  0  0  0  0
 28 27  1  0  0  0  0
 29 23  2  0  0  0  0
 29 27  1  0  0  0  0
 30 31  1  0  0  0  0
 31 33  1  0  0  0  0
 31 32  1  0  0  0  0
 34 31  1  0  0  0  0
M  END
>  <minimizedAffinity>
-6.44665241

>  <minimizedRMSD>
0.669069886

$$$$
