
 OpenBabel03272509183D

 31 33  0  0  0  0  0  0  0  0999 V2000
   37.9920   31.3990   47.6390 C   0  0  0  0  0  0  0  0  0  0  0  0
   37.0780   31.3020   48.6700 C   0  0  0  0  0  0  0  0  0  0  0  0
   37.2000   32.3180   49.6390 C   0  0  0  0  0  0  0  0  0  0  0  0
   38.1680   33.3150   49.5390 C   0  0  0  0  0  0  0  0  0  0  0  0
   39.0430   33.3250   48.4620 C   0  0  0  0  0  0  0  0  0  0  0  0
   38.9470   32.3390   47.4920 C   0  0  0  0  0  0  0  0  0  0  0  0
   36.5230   32.3030   50.4630 H   0  0  0  0  0  0  0  0  0  0  0  0
   38.2370   34.0820   50.3000 H   0  0  0  0  0  0  0  0  0  0  0  0
   39.8090   34.0850   48.3500 H   0  0  0  0  0  0  0  0  0  0  0  0
   34.9410   30.3420   47.9610 C   0  0  0  0  0  0  0  0  0  0  0  0
   36.0840   30.2810   48.7770 C   0  0  0  0  0  0  0  0  0  0  0  0
   36.2090   29.2170   49.6730 C   0  0  0  0  0  0  0  0  0  0  0  0
   35.2040   28.2960   49.6970 N   0  0  0  0  0  0  0  0  0  0  0  0
   34.1200   28.3780   48.9040 C   0  0  0  0  0  0  0  0  0  0  0  0
   33.9910   29.3920   48.0440 N   0  0  0  0  0  0  0  0  0  0  0  0
   34.8320   31.1670   47.2600 H   0  0  0  0  0  0  0  0  0  0  0  0
   33.3890   27.5940   49.0090 H   0  0  0  0  0  0  0  0  0  0  0  0
   37.3950   29.1140   50.5520 C   0  0  0  0  0  0  0  0  0  0  0  0
   37.7100   28.0700   50.7610 H   0  0  0  0  0  0  0  0  0  0  0  0
   38.2070   29.7320   50.0930 H   0  0  0  0  0  0  0  0  0  0  0  0
   37.1280   29.6570   51.4930 H   0  0  0  0  0  0  0  0  0  0  0  0
   37.9460   30.4290   46.6280 O   0  0  0  0  0  0  0  0  0  0  0  0
   37.1280   30.2300   46.0720 H   0  0  0  0  0  0  0  0  0  0  0  0
   39.8370   32.3660   46.4150 O   0  0  0  0  0  0  0  0  0  0  0  0
   39.2660   32.5350   45.1610 C   0  0  0  0  0  0  0  0  0  0  0  0
   39.8250   32.8560   43.9800 N   0  0  0  0  0  0  0  0  0  0  0  0
   38.8410   32.8950   43.0630 C   0  0  0  0  0  0  0  0  0  0  0  0
   38.9770   33.1270   42.0130 H   0  0  0  0  0  0  0  0  0  0  0  0
   37.6790   32.6000   43.6710 N   0  0  0  0  0  0  0  0  0  0  0  0
   36.7410   32.5530   43.2130 H   0  0  0  0  0  0  0  0  0  0  0  0
   37.9630   32.3860   44.9380 N   0  0  0  0  0  0  0  0  0  0  0  0
  1  2  1  0  0  0  0
  2 11  1  0  0  0  0
  2  3  2  0  0  0  0
  3  7  1  0  0  0  0
  4  3  1  0  0  0  0
  4  8  1  0  0  0  0
  5  4  2  0  0  0  0
  6  1  2  0  0  0  0
  6  5  1  0  0  0  0
  9  5  1  0  0  0  0
 10 15  2  0  0  0  0
 10 11  1  0  0  0  0
 11 12  2  0  0  0  0
 12 13  1  0  0  0  0
 12 18  1  0  0  0  0
 14 17  1  0  0  0  0
 14 13  2  0  0  0  0
 15 14  1  0  0  0  0
 16 10  1  0  0  0  0
 18 19  1  0  0  0  0
 18 21  1  0  0  0  0
 20 18  1  0  0  0  0
 22  1  1  0  0  0  0
 23 22  1  0  0  0  0
 24  6  1  0  0  0  0
 25 24  1  0  0  0  0
 26 25  1  0  0  0  0
 27 29  1  0  0  0  0
 27 26  2  0  0  0  0
 28 27  1  0  0  0  0
 29 31  1  0  0  0  0
 30 29  1  0  0  0  0
 31 25  2  0  0  0  0
M  END
>  <minimizedAffinity>
-6.61246252

>  <minimizedRMSD>
0.0959376618

$$$$
