
 OpenBabel03272509293D

 32 34  0  0  1  0  0  0  0  0999 V2000
   36.3300   21.6390   33.4350 C   0  0  2  0  0  0  0  0  0  0  0  0
   35.8020   20.3800   34.0940 C   0  0  0  0  0  0  0  0  0  0  0  0
   35.5650   19.2660   33.1190 C   0  0  0  0  0  0  0  0  0  0  0  0
   34.6820   19.6650   31.9730 C   0  0  0  0  0  0  0  0  0  0  0  0
   34.9760   21.0440   31.4370 C   0  0  0  0  0  0  0  0  0  0  0  0
   36.2970   21.5810   31.9460 C   0  0  1  0  0  0  0  0  0  0  0  0
   35.7510   22.5230   33.7730 H   0  0  0  0  0  0  0  0  0  0  0  0
   36.4400   20.0060   34.9080 H   0  0  0  0  0  0  0  0  0  0  0  0
   34.8220   20.6270   34.5480 H   0  0  0  0  0  0  0  0  0  0  0  0
   36.5280   18.8320   32.7720 H   0  0  0  0  0  0  0  0  0  0  0  0
   35.0260   18.4650   33.6750 H   0  0  0  0  0  0  0  0  0  0  0  0
   33.6010   19.4910   32.1500 H   0  0  0  0  0  0  0  0  0  0  0  0
   34.9380   18.9500   31.1390 H   0  0  0  0  0  0  0  0  0  0  0  0
   34.9640   21.0900   30.3360 H   0  0  0  0  0  0  0  0  0  0  0  0
   34.1870   21.7290   31.8370 H   0  0  0  0  0  0  0  0  0  0  0  0
   37.1130   20.9200   31.5860 H   0  0  0  0  0  0  0  0  0  0  0  0
   37.7510   21.8570   33.8450 C   0  0  0  0  0  0  0  0  0  0  0  0
   37.9580   22.6350   35.0010 C   0  0  0  0  0  0  0  0  0  0  0  0
   39.2730   22.8540   35.3930 C   0  0  0  0  0  0  0  0  0  0  0  0
   40.3040   22.3130   34.6530 N   0  0  0  0  0  0  0  0  0  0  0  0
   40.0510   21.5620   33.5360 C   0  0  0  0  0  0  0  0  0  0  0  0
   38.7950   21.3450   33.1500 N   0  0  0  0  0  0  0  0  0  0  0  0
   37.2130   23.0810   35.6110 H   0  0  0  0  0  0  0  0  0  0  0  0
   39.5380   23.4340   36.2600 H   0  0  0  0  0  0  0  0  0  0  0  0
   40.8860   21.1550   32.9830 H   0  0  0  0  0  0  0  0  0  0  0  0
   36.4620   22.9590   31.4170 C   0  0  0  0  0  0  0  0  0  0  0  0
   35.5430   23.9360   31.6520 N   0  0  0  0  0  0  0  0  0  0  0  0
   35.9720   25.0700   31.0430 C   0  0  0  0  0  0  0  0  0  0  0  0
   35.4330   26.0090   31.0660 H   0  0  0  0  0  0  0  0  0  0  0  0
   37.1330   24.7630   30.4540 N   0  0  0  0  0  0  0  0  0  0  0  0
   37.6690   25.4610   29.9190 H   0  0  0  0  0  0  0  0  0  0  0  0
   37.4550   23.4900   30.6630 N   0  0  0  0  0  0  0  0  0  0  0  0
  1  7  1  1  0  0  0
  1 17  1  0  0  0  0
  1  2  1  0  0  0  0
  2  9  1  0  0  0  0
  2  8  1  0  0  0  0
  3 11  1  0  0  0  0
  3  2  1  0  0  0  0
  4 12  1  0  0  0  0
  4  3  1  0  0  0  0
  5 15  1  0  0  0  0
  5  6  1  0  0  0  0
  5  4  1  0  0  0  0
  6 16  1  6  0  0  0
  6  1  1  0  0  0  0
 10  3  1  0  0  0  0
 13  4  1  0  0  0  0
 14  5  1  0  0  0  0
 17 18  1  0  0  0  0
 18 19  2  0  0  0  0
 18 23  1  0  0  0  0
 19 24  1  0  0  0  0
 20 19  1  0  0  0  0
 21 20  2  0  0  0  0
 22 21  1  0  0  0  0
 22 17  2  0  0  0  0
 25 21  1  0  0  0  0
 26 27  1  0  0  0  0
 26  6  1  0  0  0  0
 28 29  1  0  0  0  0
 28 27  2  0  0  0  0
 30 32  1  0  0  0  0
 30 28  1  0  0  0  0
 31 30  1  0  0  0  0
 32 26  2  0  0  0  0
M  END
>  <minimizedAffinity>
-4.59762955

$$$$

 OpenBabel03272509293D

 32 34  0  0  1  0  0  0  0  0999 V2000
   37.8870   24.6700   34.6110 C   0  0  2  0  0  0  0  0  0  0  0  0
   37.5890   25.7440   33.5840 C   0  0  0  0  0  0  0  0  0  0  0  0
   38.4380   26.9680   33.7560 C   0  0  0  0  0  0  0  0  0  0  0  0
   38.3730   27.5390   35.1420 C   0  0  0  0  0  0  0  0  0  0  0  0
   38.3880   26.4910   36.2270 C   0  0  0  0  0  0  0  0  0  0  0  0
   38.7960   25.1330   35.6980 C   0  0  1  0  0  0  0  0  0  0  0  0
   36.9450   24.2980   35.0640 H   0  0  0  0  0  0  0  0  0  0  0  0
   37.6770   25.3970   32.5440 H   0  0  0  0  0  0  0  0  0  0  0  0
   36.5370   26.0570   33.7250 H   0  0  0  0  0  0  0  0  0  0  0  0
   39.4840   26.7720   33.4330 H   0  0  0  0  0  0  0  0  0  0  0  0
   38.0240   27.7420   33.0700 H   0  0  0  0  0  0  0  0  0  0  0  0
   37.5770   28.2980   35.2840 H   0  0  0  0  0  0  0  0  0  0  0  0
   39.3290   28.1240   35.2660 H   0  0  0  0  0  0  0  0  0  0  0  0
   39.0340   26.7610   37.0780 H   0  0  0  0  0  0  0  0  0  0  0  0
   37.3360   26.3800   36.5920 H   0  0  0  0  0  0  0  0  0  0  0  0
   39.8320   25.1980   35.3070 H   0  0  0  0  0  0  0  0  0  0  0  0
   38.5450   23.5080   33.9400 C   0  0  0  0  0  0  0  0  0  0  0  0
   37.7260   22.3950   33.6640 C   0  0  0  0  0  0  0  0  0  0  0  0
   38.3210   21.3030   33.0460 C   0  0  0  0  0  0  0  0  0  0  0  0
   39.6640   21.3470   32.7330 N   0  0  0  0  0  0  0  0  0  0  0  0
   40.4200   22.4520   33.0210 C   0  0  0  0  0  0  0  0  0  0  0  0
   39.8600   23.5060   33.6120 N   0  0  0  0  0  0  0  0  0  0  0  0
   36.6910   22.2970   33.8810 H   0  0  0  0  0  0  0  0  0  0  0  0
   37.7840   20.4060   32.7940 H   0  0  0  0  0  0  0  0  0  0  0  0
   41.4690   22.4480   32.7590 H   0  0  0  0  0  0  0  0  0  0  0  0
   38.7170   24.1650   36.8220 C   0  0  0  0  0  0  0  0  0  0  0  0
   37.6320   24.1010   37.6430 N   0  0  0  0  0  0  0  0  0  0  0  0
   37.8580   23.1290   38.5620 C   0  0  0  0  0  0  0  0  0  0  0  0
   37.1570   22.8600   39.3430 H   0  0  0  0  0  0  0  0  0  0  0  0
   39.0660   22.6250   38.2860 N   0  0  0  0  0  0  0  0  0  0  0  0
   39.4760   21.8640   38.8450 H   0  0  0  0  0  0  0  0  0  0  0  0
   39.6110   23.2340   37.2360 N   0  0  0  0  0  0  0  0  0  0  0  0
  1  7  1  1  0  0  0
  1  6  1  0  0  0  0
  2  9  1  0  0  0  0
  2  3  1  0  0  0  0
  2  1  1  0  0  0  0
  3  4  1  0  0  0  0
  4 13  1  0  0  0  0
  4 12  1  0  0  0  0
  4  5  1  0  0  0  0
  5 15  1  0  0  0  0
  5 14  1  0  0  0  0
  6 16  1  6  0  0  0
  6  5  1  0  0  0  0
  6 26  1  0  0  0  0
  8  2  1  0  0  0  0
 10  3  1  0  0  0  0
 11  3  1  0  0  0  0
 17  1  1  0  0  0  0
 18 23  1  0  0  0  0
 18 17  1  0  0  0  0
 19 18  2  0  0  0  0
 20 21  2  0  0  0  0
 20 19  1  0  0  0  0
 21 22  1  0  0  0  0
 22 17  2  0  0  0  0
 24 19  1  0  0  0  0
 25 21  1  0  0  0  0
 26 32  2  0  0  0  0
 26 27  1  0  0  0  0
 27 28  2  0  0  0  0
 28 29  1  0  0  0  0
 30 28  1  0  0  0  0
 30 31  1  0  0  0  0
 32 30  1  0  0  0  0
M  END
>  <minimizedAffinity>
-4.52630377

$$$$

 OpenBabel03272509293D

 32 34  0  0  1  0  0  0  0  0999 V2000
   39.1730   25.5660   34.7050 C   0  0  2  0  0  0  0  0  0  0  0  0
   39.2120   26.9200   35.3870 C   0  0  0  0  0  0  0  0  0  0  0  0
   37.8550   27.5390   35.5340 C   0  0  0  0  0  0  0  0  0  0  0  0
   37.1060   27.6290   34.2370 C   0  0  0  0  0  0  0  0  0  0  0  0
   37.2500   26.4030   33.3700 C   0  0  0  0  0  0  0  0  0  0  0  0
   37.8360   25.2350   34.1340 C   0  0  1  0  0  0  0  0  0  0  0  0
   39.9310   25.5200   33.8960 H   0  0  0  0  0  0  0  0  0  0  0  0
   39.7020   26.9040   36.3710 H   0  0  0  0  0  0  0  0  0  0  0  0
   39.8100   27.5980   34.7470 H   0  0  0  0  0  0  0  0  0  0  0  0
   37.2660   27.0190   36.3210 H   0  0  0  0  0  0  0  0  0  0  0  0
   38.0180   28.5840   35.8830 H   0  0  0  0  0  0  0  0  0  0  0  0
   37.2720   28.5750   33.6810 H   0  0  0  0  0  0  0  0  0  0  0  0
   36.0170   27.6740   34.5270 H   0  0  0  0  0  0  0  0  0  0  0  0
   36.3030   26.0930   32.9010 H   0  0  0  0  0  0  0  0  0  0  0  0
   37.9880   26.6520   32.5680 H   0  0  0  0  0  0  0  0  0  0  0  0
   37.1430   24.9620   34.9560 H   0  0  0  0  0  0  0  0  0  0  0  0
   39.5160   24.5000   35.6950 C   0  0  0  0  0  0  0  0  0  0  0  0
   38.5640   24.2520   36.7040 C   0  0  0  0  0  0  0  0  0  0  0  0
   38.8670   23.2690   37.6370 C   0  0  0  0  0  0  0  0  0  0  0  0
   40.0640   22.5870   37.5450 N   0  0  0  0  0  0  0  0  0  0  0  0
   40.9580   22.8660   36.5450 C   0  0  0  0  0  0  0  0  0  0  0  0
   40.6780   23.8050   35.6430 N   0  0  0  0  0  0  0  0  0  0  0  0
   37.6300   24.7390   36.8320 H   0  0  0  0  0  0  0  0  0  0  0  0
   38.2090   23.0030   38.4460 H   0  0  0  0  0  0  0  0  0  0  0  0
   41.8840   22.3100   36.5060 H   0  0  0  0  0  0  0  0  0  0  0  0
   37.9970   24.1050   33.1830 C   0  0  0  0  0  0  0  0  0  0  0  0
   38.7870   24.2000   32.0770 N   0  0  0  0  0  0  0  0  0  0  0  0
   38.7280   23.0170   31.4170 C   0  0  0  0  0  0  0  0  0  0  0  0
   39.2620   22.8110   30.4970 H   0  0  0  0  0  0  0  0  0  0  0  0
   37.9100   22.2310   32.1260 N   0  0  0  0  0  0  0  0  0  0  0  0
   37.6960   21.2680   31.8320 H   0  0  0  0  0  0  0  0  0  0  0  0
   37.4520   22.8650   33.2030 N   0  0  0  0  0  0  0  0  0  0  0  0
  1  7  1  6  0  0  0
  1  2  1  0  0  0  0
  1 17  1  0  0  0  0
  2  3  1  0  0  0  0
  2  8  1  0  0  0  0
  3 11  1  0  0  0  0
  3 10  1  0  0  0  0
  4 13  1  0  0  0  0
  4  3  1  0  0  0  0
  5  6  1  0  0  0  0
  5  4  1  0  0  0  0
  6  1  1  0  0  0  0
  6 16  1  1  0  0  0
  9  2  1  0  0  0  0
 12  4  1  0  0  0  0
 14  5  1  0  0  0  0
 15  5  1  0  0  0  0
 17 18  1  0  0  0  0
 18 23  1  0  0  0  0
 18 19  2  0  0  0  0
 19 24  1  0  0  0  0
 20 19  1  0  0  0  0
 21 20  2  0  0  0  0
 22 17  2  0  0  0  0
 22 21  1  0  0  0  0
 25 21  1  0  0  0  0
 26 32  2  0  0  0  0
 26  6  1  0  0  0  0
 27 26  1  0  0  0  0
 28 27  2  0  0  0  0
 28 30  1  0  0  0  0
 29 28  1  0  0  0  0
 30 32  1  0  0  0  0
 31 30  1  0  0  0  0
M  END
>  <minimizedAffinity>
-4.49049473

$$$$

 OpenBabel03272509293D

 32 34  0  0  1  0  0  0  0  0999 V2000
   37.8760   24.7160   34.6060 C   0  0  2  0  0  0  0  0  0  0  0  0
   37.5840   25.8060   33.5930 C   0  0  0  0  0  0  0  0  0  0  0  0
   38.4480   27.0170   33.7740 C   0  0  0  0  0  0  0  0  0  0  0  0
   38.3990   27.5720   35.1670 C   0  0  0  0  0  0  0  0  0  0  0  0
   38.4080   26.5120   36.2400 C   0  0  0  0  0  0  0  0  0  0  0  0
   38.7970   25.1550   35.6930 C   0  0  1  0  0  0  0  0  0  0  0  0
   36.9330   24.3490   35.0610 H   0  0  0  0  0  0  0  0  0  0  0  0
   37.6610   25.4700   32.5490 H   0  0  0  0  0  0  0  0  0  0  0  0
   36.5360   26.1290   33.7450 H   0  0  0  0  0  0  0  0  0  0  0  0
   39.4900   26.8130   33.4430 H   0  0  0  0  0  0  0  0  0  0  0  0
   38.0390   27.8040   33.1010 H   0  0  0  0  0  0  0  0  0  0  0  0
   37.6130   28.3390   35.3240 H   0  0  0  0  0  0  0  0  0  0  0  0
   39.3630   28.1440   35.2920 H   0  0  0  0  0  0  0  0  0  0  0  0
   39.0630   26.7630   37.0890 H   0  0  0  0  0  0  0  0  0  0  0  0
   37.3580   26.4080   36.6100 H   0  0  0  0  0  0  0  0  0  0  0  0
   39.8320   25.2130   35.2960 H   0  0  0  0  0  0  0  0  0  0  0  0
   38.5160   23.5540   33.9160 C   0  0  0  0  0  0  0  0  0  0  0  0
   39.8230   23.7540   33.4320 C   0  0  0  0  0  0  0  0  0  0  0  0
   40.4320   22.6880   32.7830 C   0  0  0  0  0  0  0  0  0  0  0  0
   39.7490   21.4980   32.6390 N   0  0  0  0  0  0  0  0  0  0  0  0
   38.4780   21.3520   33.1280 C   0  0  0  0  0  0  0  0  0  0  0  0
   37.8840   22.3670   33.7530 N   0  0  0  0  0  0  0  0  0  0  0  0
   40.4010   24.6410   33.5070 H   0  0  0  0  0  0  0  0  0  0  0  0
   41.4270   22.7390   32.3760 H   0  0  0  0  0  0  0  0  0  0  0  0
   37.9750   20.4030   32.9950 H   0  0  0  0  0  0  0  0  0  0  0  0
   38.7140   24.1750   36.8060 C   0  0  0  0  0  0  0  0  0  0  0  0
   37.6310   24.1100   37.6300 N   0  0  0  0  0  0  0  0  0  0  0  0
   37.8520   23.1250   38.5360 C   0  0  0  0  0  0  0  0  0  0  0  0
   37.1520   22.8540   39.3160 H   0  0  0  0  0  0  0  0  0  0  0  0
   39.0560   22.6150   38.2500 N   0  0  0  0  0  0  0  0  0  0  0  0
   39.4610   21.8440   38.7990 H   0  0  0  0  0  0  0  0  0  0  0  0
   39.6020   23.2320   37.2060 N   0  0  0  0  0  0  0  0  0  0  0  0
  1  7  1  1  0  0  0
  1  6  1  0  0  0  0
  2  9  1  0  0  0  0
  2  3  1  0  0  0  0
  2  1  1  0  0  0  0
  3  4  1  0  0  0  0
  4 13  1  0  0  0  0
  4 12  1  0  0  0  0
  4  5  1  0  0  0  0
  5 15  1  0  0  0  0
  5 14  1  0  0  0  0
  6 16  1  6  0  0  0
  6  5  1  0  0  0  0
  6 26  1  0  0  0  0
  8  2  1  0  0  0  0
 10  3  1  0  0  0  0
 11  3  1  0  0  0  0
 17  1  1  0  0  0  0
 18 23  1  0  0  0  0
 18 17  2  0  0  0  0
 19 18  1  0  0  0  0
 20 19  2  0  0  0  0
 20 21  1  0  0  0  0
 21 22  2  0  0  0  0
 22 17  1  0  0  0  0
 24 19  1  0  0  0  0
 25 21  1  0  0  0  0
 26 32  2  0  0  0  0
 26 27  1  0  0  0  0
 27 28  2  0  0  0  0
 28 29  1  0  0  0  0
 30 28  1  0  0  0  0
 30 31  1  0  0  0  0
 32 30  1  0  0  0  0
M  END
>  <minimizedAffinity>
-4.47655487

$$$$

 OpenBabel03272509293D

 32 34  0  0  1  0  0  0  0  0999 V2000
   39.0120   25.9390   34.0530 C   0  0  2  0  0  0  0  0  0  0  0  0
   39.2860   26.9470   35.1510 C   0  0  0  0  0  0  0  0  0  0  0  0
   38.0340   27.4780   35.7820 C   0  0  0  0  0  0  0  0  0  0  0  0
   37.0660   28.0430   34.7830 C   0  0  0  0  0  0  0  0  0  0  0  0
   36.9480   27.2200   33.5250 C   0  0  0  0  0  0  0  0  0  0  0  0
   37.5710   25.8490   33.6840 C   0  0  1  0  0  0  0  0  0  0  0  0
   39.6000   26.1870   33.1460 H   0  0  0  0  0  0  0  0  0  0  0  0
   39.9470   26.5680   35.9440 H   0  0  0  0  0  0  0  0  0  0  0  0
   39.8070   27.8090   34.6900 H   0  0  0  0  0  0  0  0  0  0  0  0
   37.5610   26.7100   36.4320 H   0  0  0  0  0  0  0  0  0  0  0  0
   38.3420   28.3210   36.4420 H   0  0  0  0  0  0  0  0  0  0  0  0
   37.2010   29.1260   34.5810 H   0  0  0  0  0  0  0  0  0  0  0  0
   36.0570   27.9860   35.2840 H   0  0  0  0  0  0  0  0  0  0  0  0
   35.9090   27.1100   33.1780 H   0  0  0  0  0  0  0  0  0  0  0  0
   37.5420   27.7410   32.7330 H   0  0  0  0  0  0  0  0  0  0  0  0
   37.0230   25.2970   34.4760 H   0  0  0  0  0  0  0  0  0  0  0  0
   39.4460   24.5810   34.5050 C   0  0  0  0  0  0  0  0  0  0  0  0
   38.7190   24.0120   35.5690 C   0  0  0  0  0  0  0  0  0  0  0  0
   39.1120   22.7540   36.0060 C   0  0  0  0  0  0  0  0  0  0  0  0
   40.1760   22.1210   35.3970 N   0  0  0  0  0  0  0  0  0  0  0  0
   40.8520   22.7160   34.3640 C   0  0  0  0  0  0  0  0  0  0  0  0
   40.4840   23.9230   33.9350 N   0  0  0  0  0  0  0  0  0  0  0  0
   37.8960   24.4450   36.0810 H   0  0  0  0  0  0  0  0  0  0  0  0
   38.6230   22.2330   36.8120 H   0  0  0  0  0  0  0  0  0  0  0  0
   41.6800   22.1890   33.9120 H   0  0  0  0  0  0  0  0  0  0  0  0
   37.4610   25.1460   32.3800 C   0  0  0  0  0  0  0  0  0  0  0  0
   36.6860   24.0360   32.2230 N   0  0  0  0  0  0  0  0  0  0  0  0
   36.7930   23.6300   30.9330 C   0  0  0  0  0  0  0  0  0  0  0  0
   36.2800   22.7670   30.5270 H   0  0  0  0  0  0  0  0  0  0  0  0
   37.6240   24.4920   30.3360 N   0  0  0  0  0  0  0  0  0  0  0  0
   37.8730   24.4010   29.3410 H   0  0  0  0  0  0  0  0  0  0  0  0
   38.0450   25.4210   31.1890 N   0  0  0  0  0  0  0  0  0  0  0  0
  1  7  1  6  0  0  0
  1 17  1  0  0  0  0
  1  2  1  0  0  0  0
  2  3  1  0  0  0  0
  2  8  1  0  0  0  0
  3 10  1  0  0  0  0
  3 11  1  0  0  0  0
  4 13  1  0  0  0  0
  4  3  1  0  0  0  0
  5  6  1  0  0  0  0
  5  4  1  0  0  0  0
  6  1  1  0  0  0  0
  6 16  1  1  0  0  0
  9  2  1  0  0  0  0
 12  4  1  0  0  0  0
 14  5  1  0  0  0  0
 15  5  1  0  0  0  0
 17 18  1  0  0  0  0
 18 19  2  0  0  0  0
 18 23  1  0  0  0  0
 19 24  1  0  0  0  0
 20 19  1  0  0  0  0
 21 20  2  0  0  0  0
 22 21  1  0  0  0  0
 22 17  2  0  0  0  0
 25 21  1  0  0  0  0
 26  6  1  0  0  0  0
 27 26  1  0  0  0  0
 28 27  2  0  0  0  0
 29 28  1  0  0  0  0
 30 28  1  0  0  0  0
 30 32  1  0  0  0  0
 31 30  1  0  0  0  0
 32 26  2  0  0  0  0
M  END
>  <minimizedAffinity>
-4.46059227

$$$$

 OpenBabel03272509293D

 32 34  0  0  1  0  0  0  0  0999 V2000
   36.9740   26.9560   33.6230 C   0  0  2  0  0  0  0  0  0  0  0  0
   37.1720   27.6030   34.9790 C   0  0  0  0  0  0  0  0  0  0  0  0
   38.5840   27.5040   35.4730 C   0  0  0  0  0  0  0  0  0  0  0  0
   39.1060   26.0970   35.4840 C   0  0  0  0  0  0  0  0  0  0  0  0
   38.7080   25.2960   34.2700 C   0  0  0  0  0  0  0  0  0  0  0  0
   38.1590   26.1750   33.1660 C   0  0  1  0  0  0  0  0  0  0  0  0
   36.0890   26.2880   33.6390 H   0  0  0  0  0  0  0  0  0  0  0  0
   36.8590   28.6560   35.0160 H   0  0  0  0  0  0  0  0  0  0  0  0
   36.5360   27.0580   35.7040 H   0  0  0  0  0  0  0  0  0  0  0  0
   39.2500   28.1920   34.9070 H   0  0  0  0  0  0  0  0  0  0  0  0
   38.5770   27.8520   36.5310 H   0  0  0  0  0  0  0  0  0  0  0  0
   38.9320   25.5560   36.4370 H   0  0  0  0  0  0  0  0  0  0  0  0
   40.2280   26.1980   35.4320 H   0  0  0  0  0  0  0  0  0  0  0  0
   39.5300   24.6800   33.8720 H   0  0  0  0  0  0  0  0  0  0  0  0
   37.8690   24.6240   34.5790 H   0  0  0  0  0  0  0  0  0  0  0  0
   38.9550   26.8740   32.8370 H   0  0  0  0  0  0  0  0  0  0  0  0
   36.7130   28.0140   32.6000 C   0  0  0  0  0  0  0  0  0  0  0  0
   35.4690   28.6710   32.6810 C   0  0  0  0  0  0  0  0  0  0  0  0
   35.2060   29.6540   31.7340 C   0  0  0  0  0  0  0  0  0  0  0  0
   36.1500   29.9420   30.7710 N   0  0  0  0  0  0  0  0  0  0  0  0
   37.3460   29.2740   30.7330 C   0  0  0  0  0  0  0  0  0  0  0  0
   37.6100   28.3310   31.6360 N   0  0  0  0  0  0  0  0  0  0  0  0
   34.7020   28.4960   33.3920 H   0  0  0  0  0  0  0  0  0  0  0  0
   34.2870   30.2140   31.7090 H   0  0  0  0  0  0  0  0  0  0  0  0
   38.0600   29.5290   29.9630 H   0  0  0  0  0  0  0  0  0  0  0  0
   37.7390   25.2910   32.0480 C   0  0  0  0  0  0  0  0  0  0  0  0
   36.6140   24.5250   32.1190 N   0  0  0  0  0  0  0  0  0  0  0  0
   36.5020   23.8370   30.9550 C   0  0  0  0  0  0  0  0  0  0  0  0
   35.6960   23.1480   30.7360 H   0  0  0  0  0  0  0  0  0  0  0  0
   37.5520   24.1930   30.2060 N   0  0  0  0  0  0  0  0  0  0  0  0
   37.7000   23.8050   29.2640 H   0  0  0  0  0  0  0  0  0  0  0  0
   38.3190   25.0730   30.8440 N   0  0  0  0  0  0  0  0  0  0  0  0
  1  7  1  1  0  0  0
  1  2  1  0  0  0  0
  2  8  1  0  0  0  0
  2  3  1  0  0  0  0
  2  9  1  0  0  0  0
  3  4  1  0  0  0  0
  3 11  1  0  0  0  0
  4 12  1  0  0  0  0
  5 15  1  0  0  0  0
  5  4  1  0  0  0  0
  6 16  1  6  0  0  0
  6  1  1  0  0  0  0
  6  5  1  0  0  0  0
 10  3  1  0  0  0  0
 13  4  1  0  0  0  0
 14  5  1  0  0  0  0
 17 18  1  0  0  0  0
 17  1  1  0  0  0  0
 18 23  1  0  0  0  0
 19 18  2  0  0  0  0
 20 19  1  0  0  0  0
 21 20  2  0  0  0  0
 21 22  1  0  0  0  0
 22 17  2  0  0  0  0
 24 19  1  0  0  0  0
 25 21  1  0  0  0  0
 26 27  1  0  0  0  0
 26  6  1  0  0  0  0
 28 27  2  0  0  0  0
 29 28  1  0  0  0  0
 30 32  1  0  0  0  0
 30 28  1  0  0  0  0
 31 30  1  0  0  0  0
 32 26  2  0  0  0  0
M  END
>  <minimizedAffinity>
-4.43946409

$$$$

 OpenBabel03272509293D

 32 34  0  0  1  0  0  0  0  0999 V2000
   39.2090   23.1770   34.1170 C   0  0  2  0  0  0  0  0  0  0  0  0
   38.8740   22.8310   32.6800 C   0  0  0  0  0  0  0  0  0  0  0  0
   37.4100   22.6010   32.4600 C   0  0  0  0  0  0  0  0  0  0  0  0
   36.8280   21.5790   33.3920 C   0  0  0  0  0  0  0  0  0  0  0  0
   37.3360   21.6950   34.8070 C   0  0  0  0  0  0  0  0  0  0  0  0
   38.0550   23.0060   35.0460 C   0  0  1  0  0  0  0  0  0  0  0  0
   40.0550   22.5570   34.4770 H   0  0  0  0  0  0  0  0  0  0  0  0
   39.2280   23.5760   31.9520 H   0  0  0  0  0  0  0  0  0  0  0  0
   39.3910   21.8820   32.4370 H   0  0  0  0  0  0  0  0  0  0  0  0
   36.8490   23.5610   32.4910 H   0  0  0  0  0  0  0  0  0  0  0  0
   37.3020   22.1930   31.4290 H   0  0  0  0  0  0  0  0  0  0  0  0
   36.8590   20.5400   33.0040 H   0  0  0  0  0  0  0  0  0  0  0  0
   35.7260   21.8160   33.4400 H   0  0  0  0  0  0  0  0  0  0  0  0
   36.5430   21.5710   35.5620 H   0  0  0  0  0  0  0  0  0  0  0  0
   38.1000   20.8900   34.9500 H   0  0  0  0  0  0  0  0  0  0  0  0
   37.3370   23.8390   34.8980 H   0  0  0  0  0  0  0  0  0  0  0  0
   39.6410   24.6060   34.1970 C   0  0  0  0  0  0  0  0  0  0  0  0
   40.9980   24.8360   34.4960 C   0  0  0  0  0  0  0  0  0  0  0  0
   41.4170   26.1570   34.5810 C   0  0  0  0  0  0  0  0  0  0  0  0
   40.5080   27.1750   34.3750 N   0  0  0  0  0  0  0  0  0  0  0  0
   39.1970   26.9000   34.0870 C   0  0  0  0  0  0  0  0  0  0  0  0
   38.7840   25.6370   34.0020 N   0  0  0  0  0  0  0  0  0  0  0  0
   41.7450   24.1020   34.6670 H   0  0  0  0  0  0  0  0  0  0  0  0
   42.4310   26.4390   34.8040 H   0  0  0  0  0  0  0  0  0  0  0  0
   38.5150   27.7250   33.9310 H   0  0  0  0  0  0  0  0  0  0  0  0
   38.5700   22.9950   36.4390 C   0  0  0  0  0  0  0  0  0  0  0  0
   37.9410   23.6660   37.4450 N   0  0  0  0  0  0  0  0  0  0  0  0
   38.6450   23.4650   38.5870 C   0  0  0  0  0  0  0  0  0  0  0  0
   38.3720   23.8840   39.5470 H   0  0  0  0  0  0  0  0  0  0  0  0
   39.6810   22.6840   38.2570 N   0  0  0  0  0  0  0  0  0  0  0  0
   40.3750   22.3830   38.9550 H   0  0  0  0  0  0  0  0  0  0  0  0
   39.6600   22.3830   36.9620 N   0  0  0  0  0  0  0  0  0  0  0  0
  1 17  1  0  0  0  0
  1  7  1  1  0  0  0
  1  6  1  0  0  0  0
  2  1  1  0  0  0  0
  3 10  1  0  0  0  0
  3  2  1  0  0  0  0
  3  4  1  0  0  0  0
  4 13  1  0  0  0  0
  4  5  1  0  0  0  0
  5 15  1  0  0  0  0
  5  6  1  0  0  0  0
  5 14  1  0  0  0  0
  6 16  1  6  0  0  0
  6 26  1  0  0  0  0
  8  2  1  0  0  0  0
  9  2  1  0  0  0  0
 11  3  1  0  0  0  0
 12  4  1  0  0  0  0
 17 18  1  0  0  0  0
 18 19  2  0  0  0  0
 18 23  1  0  0  0  0
 19 24  1  0  0  0  0
 20 19  1  0  0  0  0
 21 20  2  0  0  0  0
 22 21  1  0  0  0  0
 22 17  2  0  0  0  0
 25 21  1  0  0  0  0
 26 32  2  0  0  0  0
 26 27  1  0  0  0  0
 27 28  2  0  0  0  0
 28 29  1  0  0  0  0
 30 28  1  0  0  0  0
 30 31  1  0  0  0  0
 32 30  1  0  0  0  0
M  END
>  <minimizedAffinity>
-4.41012621

$$$$

 OpenBabel03272509293D

 32 34  0  0  1  0  0  0  0  0999 V2000
   39.4560   24.8160   34.3980 C   0  0  2  0  0  0  0  0  0  0  0  0
   39.6370   25.7000   33.1800 C   0  0  0  0  0  0  0  0  0  0  0  0
   39.1640   27.1040   33.4020 C   0  0  0  0  0  0  0  0  0  0  0  0
   37.7480   27.1770   33.8940 C   0  0  0  0  0  0  0  0  0  0  0  0
   37.4130   26.1310   34.9270 C   0  0  0  0  0  0  0  0  0  0  0  0
   38.6550   25.4610   35.4780 C   0  0  1  0  0  0  0  0  0  0  0  0
   38.9710   23.8600   34.1140 H   0  0  0  0  0  0  0  0  0  0  0  0
   40.6710   25.7310   32.8070 H   0  0  0  0  0  0  0  0  0  0  0  0
   39.0200   25.2740   32.3650 H   0  0  0  0  0  0  0  0  0  0  0  0
   39.8650   27.6590   34.0640 H   0  0  0  0  0  0  0  0  0  0  0  0
   39.1840   27.6080   32.4080 H   0  0  0  0  0  0  0  0  0  0  0  0
   36.9890   27.2470   33.0870 H   0  0  0  0  0  0  0  0  0  0  0  0
   37.6700   28.1690   34.4240 H   0  0  0  0  0  0  0  0  0  0  0  0
   36.8120   26.5260   35.7620 H   0  0  0  0  0  0  0  0  0  0  0  0
   36.8320   25.3290   34.4080 H   0  0  0  0  0  0  0  0  0  0  0  0
   39.2760   26.2250   35.9900 H   0  0  0  0  0  0  0  0  0  0  0  0
   40.7950   24.4800   34.9730 C   0  0  0  0  0  0  0  0  0  0  0  0
   41.7790   25.4850   34.9000 C   0  0  0  0  0  0  0  0  0  0  0  0
   43.0310   25.1890   35.4230 C   0  0  0  0  0  0  0  0  0  0  0  0
   43.2610   23.9480   35.9820 N   0  0  0  0  0  0  0  0  0  0  0  0
   42.2700   23.0030   36.0290 C   0  0  0  0  0  0  0  0  0  0  0  0
   41.0650   23.2750   35.5310 N   0  0  0  0  0  0  0  0  0  0  0  0
   41.6690   26.4550   34.4840 H   0  0  0  0  0  0  0  0  0  0  0  0
   43.8510   25.8870   35.4170 H   0  0  0  0  0  0  0  0  0  0  0  0
   42.4890   22.0430   36.4750 H   0  0  0  0  0  0  0  0  0  0  0  0
   38.2190   24.4100   36.4330 C   0  0  0  0  0  0  0  0  0  0  0  0
   38.2940   24.5870   37.7820 N   0  0  0  0  0  0  0  0  0  0  0  0
   37.8260   23.4620   38.3790 C   0  0  0  0  0  0  0  0  0  0  0  0
   37.7700   23.3250   39.4510 H   0  0  0  0  0  0  0  0  0  0  0  0
   37.4810   22.6290   37.3900 N   0  0  0  0  0  0  0  0  0  0  0  0
   37.0930   21.6940   37.5810 H   0  0  0  0  0  0  0  0  0  0  0  0
   37.7080   23.1770   36.2000 N   0  0  0  0  0  0  0  0  0  0  0  0
  1  7  1  6  0  0  0
  1 17  1  0  0  0  0
  1  6  1  0  0  0  0
  2  3  1  0  0  0  0
  2  1  1  0  0  0  0
  3  4  1  0  0  0  0
  3 10  1  0  0  0  0
  4 13  1  0  0  0  0
  4  5  1  0  0  0  0
  5  6  1  0  0  0  0
  5 14  1  0  0  0  0
  6 16  1  1  0  0  0
  6 26  1  0  0  0  0
  8  2  1  0  0  0  0
  9  2  1  0  0  0  0
 11  3  1  0  0  0  0
 12  4  1  0  0  0  0
 15  5  1  0  0  0  0
 17 22  1  0  0  0  0
 18 17  2  0  0  0  0
 18 19  1  0  0  0  0
 19 20  2  0  0  0  0
 20 21  1  0  0  0  0
 21 25  1  0  0  0  0
 22 21  2  0  0  0  0
 23 18  1  0  0  0  0
 24 19  1  0  0  0  0
 26 27  1  0  0  0  0
 27 28  2  0  0  0  0
 28 29  1  0  0  0  0
 30 31  1  0  0  0  0
 30 28  1  0  0  0  0
 32 26  2  0  0  0  0
 32 30  1  0  0  0  0
M  END
>  <minimizedAffinity>
-4.36013269

$$$$

 OpenBabel03272509293D

 32 34  0  0  1  0  0  0  0  0999 V2000
   36.9130   26.9270   33.4590 C   0  0  2  0  0  0  0  0  0  0  0  0
   37.0510   27.7580   34.7200 C   0  0  0  0  0  0  0  0  0  0  0  0
   38.3050   27.4560   35.4840 C   0  0  0  0  0  0  0  0  0  0  0  0
   38.4660   25.9980   35.7990 C   0  0  0  0  0  0  0  0  0  0  0  0
   38.0770   25.0880   34.6610 C   0  0  0  0  0  0  0  0  0  0  0  0
   37.9310   25.8430   33.3570 C   0  0  1  0  0  0  0  0  0  0  0  0
   35.9020   26.4770   33.4030 H   0  0  0  0  0  0  0  0  0  0  0  0
   36.9980   28.8420   34.5420 H   0  0  0  0  0  0  0  0  0  0  0  0
   36.2000   27.5040   35.3810 H   0  0  0  0  0  0  0  0  0  0  0  0
   39.1960   27.8710   34.9620 H   0  0  0  0  0  0  0  0  0  0  0  0
   38.2200   27.9880   36.4590 H   0  0  0  0  0  0  0  0  0  0  0  0
   38.0230   25.6920   36.7690 H   0  0  0  0  0  0  0  0  0  0  0  0
   39.5740   25.8480   35.9490 H   0  0  0  0  0  0  0  0  0  0  0  0
   38.7780   24.2500   34.5210 H   0  0  0  0  0  0  0  0  0  0  0  0
   37.0640   24.6780   34.8980 H   0  0  0  0  0  0  0  0  0  0  0  0
   38.9130   26.2850   33.0880 H   0  0  0  0  0  0  0  0  0  0  0  0
   37.0740   27.8080   32.2620 C   0  0  0  0  0  0  0  0  0  0  0  0
   35.9660   28.6080   31.9190 C   0  0  0  0  0  0  0  0  0  0  0  0
   36.0940   29.4290   30.8060 C   0  0  0  0  0  0  0  0  0  0  0  0
   37.2760   29.4300   30.0920 N   0  0  0  0  0  0  0  0  0  0  0  0
   38.3250   28.6340   30.4660 C   0  0  0  0  0  0  0  0  0  0  0  0
   38.2150   27.8430   31.5330 N   0  0  0  0  0  0  0  0  0  0  0  0
   35.0330   28.6530   32.4220 H   0  0  0  0  0  0  0  0  0  0  0  0
   35.3080   30.0770   30.4600 H   0  0  0  0  0  0  0  0  0  0  0  0
   39.2340   28.6630   29.8820 H   0  0  0  0  0  0  0  0  0  0  0  0
   37.4870   24.8760   32.3200 C   0  0  0  0  0  0  0  0  0  0  0  0
   38.3690   24.2640   31.4800 N   0  0  0  0  0  0  0  0  0  0  0  0
   37.6650   23.4480   30.6560 C   0  0  0  0  0  0  0  0  0  0  0  0
   38.1140   22.8350   29.8840 H   0  0  0  0  0  0  0  0  0  0  0  0
   36.3800   23.5790   31.0060 N   0  0  0  0  0  0  0  0  0  0  0  0
   35.6330   23.0580   30.5260 H   0  0  0  0  0  0  0  0  0  0  0  0
   36.2430   24.4380   32.0120 N   0  0  0  0  0  0  0  0  0  0  0  0
  1  7  1  6  0  0  0
  1  2  1  0  0  0  0
  2  9  1  0  0  0  0
  2  3  1  0  0  0  0
  3  4  1  0  0  0  0
  3 11  1  0  0  0  0
  4 13  1  0  0  0  0
  4 12  1  0  0  0  0
  5 15  1  0  0  0  0
  5  4  1  0  0  0  0
  6 16  1  6  0  0  0
  6  1  1  0  0  0  0
  6  5  1  0  0  0  0
  8  2  1  0  0  0  0
 10  3  1  0  0  0  0
 14  5  1  0  0  0  0
 17  1  1  0  0  0  0
 18 17  1  0  0  0  0
 18 23  1  0  0  0  0
 19 18  2  0  0  0  0
 20 21  2  0  0  0  0
 20 19  1  0  0  0  0
 21 22  1  0  0  0  0
 22 17  2  0  0  0  0
 24 19  1  0  0  0  0
 25 21  1  0  0  0  0
 26  6  1  0  0  0  0
 27 26  1  0  0  0  0
 28 30  1  0  0  0  0
 28 27  2  0  0  0  0
 29 28  1  0  0  0  0
 30 32  1  0  0  0  0
 31 30  1  0  0  0  0
 32 26  2  0  0  0  0
M  END
>  <minimizedAffinity>
-4.32023573

$$$$
