
 OpenBabel03272501083D

 38 41  0  0  1  0  0  0  0  0999 V2000
   38.9550   32.3420   47.4600 C   0  0  2  0  0  0  0  0  0  0  0  0
   37.9930   32.5610   48.6610 C   0  0  2  0  0  0  0  0  0  0  0  0
   38.8520   33.2790   49.5900 C   0  0  0  0  0  0  0  0  0  0  0  0
   39.6800   34.1120   48.8460 O   0  0  0  0  0  0  0  0  0  0  0  0
   39.5920   33.7610   47.5370 C   0  0  0  0  0  0  0  0  0  0  0  0
   39.7090   31.6000   47.7150 H   0  0  0  0  0  0  0  0  0  0  0  0
   37.1810   33.1940   48.2030 H   0  0  0  0  0  0  0  0  0  0  0  0
   38.2100   33.9760   50.2030 H   0  0  0  0  0  0  0  0  0  0  0  0
   39.4080   32.6600   50.2840 H   0  0  0  0  0  0  0  0  0  0  0  0
   40.6180   33.6170   47.1380 H   0  0  0  0  0  0  0  0  0  0  0  0
   39.0430   34.4400   46.8720 H   0  0  0  0  0  0  0  0  0  0  0  0
   37.3310   29.3360   50.4910 C   0  0  0  0  0  0  0  0  0  0  0  0
   37.9880   30.5420   50.1140 C   0  0  0  0  0  0  0  0  0  0  0  0
   37.3750   31.3290   49.0970 C   0  0  0  0  0  0  0  0  0  0  0  0
   36.1950   30.8960   48.5350 N   0  0  0  0  0  0  0  0  0  0  0  0
   35.6200   29.7580   48.9250 C   0  0  0  0  0  0  0  0  0  0  0  0
   36.1710   28.9730   49.8950 N   0  0  0  0  0  0  0  0  0  0  0  0
   37.7400   28.6920   51.2540 H   0  0  0  0  0  0  0  0  0  0  0  0
   38.8950   30.8020   50.5950 H   0  0  0  0  0  0  0  0  0  0  0  0
   34.7000   29.5350   48.4050 H   0  0  0  0  0  0  0  0  0  0  0  0
   38.2900   32.2300   46.2860 O   0  0  0  0  0  0  0  0  0  0  0  0
   40.7420   31.9280   44.4430 Cl  0  0  0  0  0  0  0  0  0  0  0  0
   39.2280   31.0750   44.2630 C   0  0  0  0  0  0  0  0  0  0  0  0
   38.2840   31.3920   45.2280 C   0  0  0  0  0  0  0  0  0  0  0  0
   37.0790   30.7200   45.0940 C   0  0  0  0  0  0  0  0  0  0  0  0
   36.8420   29.8130   44.0860 C   0  0  0  0  0  0  0  0  0  0  0  0
   37.8240   29.5490   43.1670 C   0  0  0  0  0  0  0  0  0  0  0  0
   39.0500   30.1800   43.2370 C   0  0  0  0  0  0  0  0  0  0  0  0
   36.2270   30.8380   45.7500 H   0  0  0  0  0  0  0  0  0  0  0  0
   35.9200   29.2740   43.9520 H   0  0  0  0  0  0  0  0  0  0  0  0
   37.6840   28.8440   42.3580 H   0  0  0  0  0  0  0  0  0  0  0  0
   40.1650   29.9770   42.3160 C   0  0  0  0  0  0  0  0  0  0  0  0
   40.4690   30.6380   41.1840 N   0  0  0  0  0  0  0  0  0  0  0  0
   41.6070   30.0880   40.6680 C   0  0  0  0  0  0  0  0  0  0  0  0
   41.8980   30.5930   39.7400 H   0  0  0  0  0  0  0  0  0  0  0  0
   41.9970   29.0820   41.4970 N   0  0  0  0  0  0  0  0  0  0  0  0
   42.8570   28.6070   41.1790 H   0  0  0  0  0  0  0  0  0  0  0  0
   41.1160   29.0330   42.4820 N   0  0  0  0  0  0  0  0  0  0  0  0
  1  5  1  0  0  0  0
  1  6  1  1  0  0  0
  1  2  1  0  0  0  0
  2  7  1  6  0  0  0
  2 14  1  0  0  0  0
  2  3  1  0  0  0  0
  3  8  1  0  0  0  0
  3  9  1  0  0  0  0
  4  3  1  0  0  0  0
  5  4  1  0  0  0  0
 10  5  1  0  0  0  0
 11  5  1  0  0  0  0
 12 18  1  0  0  0  0
 13 12  1  0  0  0  0
 13 19  1  0  0  0  0
 14 13  2  0  0  0  0
 15 16  2  0  0  0  0
 15 14  1  0  0  0  0
 16 17  1  0  0  0  0
 17 12  2  0  0  0  0
 20 16  1  0  0  0  0
 21  1  1  0  0  0  0
 23 22  1  0  0  0  0
 23 24  1  0  0  0  0
 24 21  1  0  0  0  0
 25 24  2  0  0  0  0
 25 29  1  0  0  0  0
 26 25  1  0  0  0  0
 27 28  1  0  0  0  0
 27 26  2  0  0  0  0
 28 23  2  0  0  0  0
 30 26  1  0  0  0  0
 31 27  1  0  0  0  0
 32 38  2  0  0  0  0
 32 28  1  0  0  0  0
 33 32  1  0  0  0  0
 34 33  2  0  0  0  0
 34 36  1  0  0  0  0
 35 34  1  0  0  0  0
 36 38  1  0  0  0  0
 37 36  1  0  0  0  0
M  END
>  <minimizedAffinity>
-6.22015858

>  <minimizedRMSD>
0.885890067

$$$$
