
 OpenBabel03272507533D

 30 32  0  0  0  0  0  0  0  0999 V2000
   39.3040   24.8090   35.3460 N   0  0  0  0  0  0  0  0  0  0  0  0
   39.0950   25.9680   35.9790 C   0  0  0  0  0  0  0  0  0  0  0  0
   38.1860   26.8900   35.4680 C   0  0  0  0  0  0  0  0  0  0  0  0
   37.5680   26.4980   34.3220 C   0  0  0  0  0  0  0  0  0  0  0  0
   36.7380   27.3310   33.8480 O   0  0  0  0  0  0  0  0  0  0  0  0
   37.7440   25.3600   33.6640 N   0  0  0  0  0  0  0  0  0  0  0  0
   38.6410   24.5030   34.2060 C   0  0  0  0  0  0  0  0  0  0  0  0
   38.8240   23.3990   33.5870 O   0  0  0  0  0  0  0  0  0  0  0  0
   39.6680   26.1280   36.8820 H   0  0  0  0  0  0  0  0  0  0  0  0
   38.0270   27.8150   35.9810 H   0  0  0  0  0  0  0  0  0  0  0  0
   37.0690   25.0020   32.4640 C   0  0  0  0  0  0  0  0  0  0  0  0
   35.8300   25.0130   31.9400 N   0  0  0  0  0  0  0  0  0  0  0  0
   35.8950   24.5020   30.6870 C   0  0  0  0  0  0  0  0  0  0  0  0
   35.0410   24.3930   30.0310 H   0  0  0  0  0  0  0  0  0  0  0  0
   37.1930   24.1710   30.4310 N   0  0  0  0  0  0  0  0  0  0  0  0
   37.5440   23.7520   29.5350 H   0  0  0  0  0  0  0  0  0  0  0  0
   37.8900   24.4840   31.5270 N   0  0  0  0  0  0  0  0  0  0  0  0
   39.7440   22.8600   36.7230 C   0  0  0  0  0  0  0  0  0  0  0  0
   40.2320   23.8240   35.8290 C   0  0  0  0  0  0  0  0  0  0  0  0
   41.5810   23.7920   35.4450 C   0  0  0  0  0  0  0  0  0  0  0  0
   42.3600   22.8120   35.9690 N   0  0  0  0  0  0  0  0  0  0  0  0
   41.8980   21.9040   36.8120 C   0  0  0  0  0  0  0  0  0  0  0  0
   40.6080   21.9220   37.1890 N   0  0  0  0  0  0  0  0  0  0  0  0
   41.9210   24.5600   34.7480 H   0  0  0  0  0  0  0  0  0  0  0  0
   42.5310   21.1250   37.2240 H   0  0  0  0  0  0  0  0  0  0  0  0
   37.7060   23.4590   38.2280 C   0  0  0  0  0  0  0  0  0  0  0  0
   38.2590   24.3020   38.9700 O   0  0  0  0  0  0  0  0  0  0  0  0
   38.4030   22.8030   37.1590 N   0  0  0  0  0  0  0  0  0  0  0  0
   36.6710   23.2640   38.4510 H   0  0  0  0  0  0  0  0  0  0  0  0
   37.7380   22.1650   36.6260 H   0  0  0  0  0  0  0  0  0  0  0  0
  1 19  1  0  0  0  0
  1  2  1  0  0  0  0
  2  9  1  0  0  0  0
  3  2  2  0  0  0  0
  3 10  1  0  0  0  0
  4  3  1  0  0  0  0
  5  4  2  0  0  0  0
  6  7  1  0  0  0  0
  6  4  1  0  0  0  0
  7  1  1  0  0  0  0
  8  7  2  0  0  0  0
 11  6  1  0  0  0  0
 12 11  1  0  0  0  0
 13 12  2  0  0  0  0
 14 13  1  0  0  0  0
 15 13  1  0  0  0  0
 15 17  1  0  0  0  0
 16 15  1  0  0  0  0
 17 11  2  0  0  0  0
 18 28  1  0  0  0  0
 18 23  1  0  0  0  0
 19 18  2  0  0  0  0
 20 19  1  0  0  0  0
 20 21  2  0  0  0  0
 21 22  1  0  0  0  0
 22 23  2  0  0  0  0
 22 25  1  0  0  0  0
 24 20  1  0  0  0  0
 26 29  1  0  0  0  0
 26 27  2  0  0  0  0
 28 26  1  0  0  0  0
 30 28  1  0  0  0  0
M  END
>  <minimizedAffinity>
-5.34552097

$$$$

 OpenBabel03272507533D

 30 32  0  0  0  0  0  0  0  0999 V2000
   38.6810   25.2990   35.5210 N   0  0  0  0  0  0  0  0  0  0  0  0
   38.6510   26.5290   36.0460 C   0  0  0  0  0  0  0  0  0  0  0  0
   37.9640   27.5490   35.3970 C   0  0  0  0  0  0  0  0  0  0  0  0
   37.3580   27.1760   34.2380 C   0  0  0  0  0  0  0  0  0  0  0  0
   36.7290   28.0990   33.6390 O   0  0  0  0  0  0  0  0  0  0  0  0
   37.3620   25.9710   33.6840 N   0  0  0  0  0  0  0  0  0  0  0  0
   38.0470   25.0180   34.3580 C   0  0  0  0  0  0  0  0  0  0  0  0
   38.0610   23.8480   33.8400 O   0  0  0  0  0  0  0  0  0  0  0  0
   39.1840   26.6620   36.9770 H   0  0  0  0  0  0  0  0  0  0  0  0
   37.9460   28.5310   35.8240 H   0  0  0  0  0  0  0  0  0  0  0  0
   36.7100   25.6350   32.4640 C   0  0  0  0  0  0  0  0  0  0  0  0
   35.5310   25.8220   31.8440 N   0  0  0  0  0  0  0  0  0  0  0  0
   35.5800   25.1990   30.6420 C   0  0  0  0  0  0  0  0  0  0  0  0
   34.7640   25.1880   29.9310 H   0  0  0  0  0  0  0  0  0  0  0  0
   36.8080   24.6190   30.5160 N   0  0  0  0  0  0  0  0  0  0  0  0
   37.1310   24.0650   29.6850 H   0  0  0  0  0  0  0  0  0  0  0  0
   37.4790   24.8970   31.6370 N   0  0  0  0  0  0  0  0  0  0  0  0
   40.6240   23.8510   35.6190 C   0  0  0  0  0  0  0  0  0  0  0  0
   39.3770   24.2100   36.1480 C   0  0  0  0  0  0  0  0  0  0  0  0
   38.8630   23.5070   37.2470 C   0  0  0  0  0  0  0  0  0  0  0  0
   39.6140   22.4960   37.7540 N   0  0  0  0  0  0  0  0  0  0  0  0
   40.7910   22.1590   37.2530 C   0  0  0  0  0  0  0  0  0  0  0  0
   41.2960   22.8240   36.1980 N   0  0  0  0  0  0  0  0  0  0  0  0
   37.8890   23.8170   37.6290 H   0  0  0  0  0  0  0  0  0  0  0  0
   41.3830   21.3490   37.6650 H   0  0  0  0  0  0  0  0  0  0  0  0
   42.3990   25.3270   34.4140 C   0  0  0  0  0  0  0  0  0  0  0  0
   43.1460   25.5610   35.3910 O   0  0  0  0  0  0  0  0  0  0  0  0
   41.2290   24.5040   34.5230 N   0  0  0  0  0  0  0  0  0  0  0  0
   42.7000   25.7890   33.4890 H   0  0  0  0  0  0  0  0  0  0  0  0
   40.7680   24.3960   33.5690 H   0  0  0  0  0  0  0  0  0  0  0  0
  1  2  1  0  0  0  0
  1 19  1  0  0  0  0
  2  9  1  0  0  0  0
  3 10  1  0  0  0  0
  3  2  2  0  0  0  0
  4  3  1  0  0  0  0
  5  4  2  0  0  0  0
  6  4  1  0  0  0  0
  6  7  1  0  0  0  0
  7  1  1  0  0  0  0
  8  7  2  0  0  0  0
 11  6  1  0  0  0  0
 12 11  1  0  0  0  0
 13 12  2  0  0  0  0
 14 13  1  0  0  0  0
 15 13  1  0  0  0  0
 15 17  1  0  0  0  0
 16 15  1  0  0  0  0
 17 11  2  0  0  0  0
 18 19  2  0  0  0  0
 18 23  1  0  0  0  0
 19 20  1  0  0  0  0
 20 24  1  0  0  0  0
 20 21  2  0  0  0  0
 22 25  1  0  0  0  0
 22 21  1  0  0  0  0
 23 22  2  0  0  0  0
 26 28  1  0  0  0  0
 26 27  2  0  0  0  0
 28 18  1  0  0  0  0
 29 26  1  0  0  0  0
 30 28  1  0  0  0  0
M  END
>  <minimizedAffinity>
-5.13110256

$$$$

 OpenBabel03272507533D

 30 32  0  0  0  0  0  0  0  0999 V2000
   38.6790   22.7760   33.8370 N   0  0  0  0  0  0  0  0  0  0  0  0
   37.9820   21.8650   33.1490 C   0  0  0  0  0  0  0  0  0  0  0  0
   36.9340   22.2620   32.3250 C   0  0  0  0  0  0  0  0  0  0  0  0
   36.7130   23.6040   32.2970 C   0  0  0  0  0  0  0  0  0  0  0  0
   35.7590   23.9760   31.5490 O   0  0  0  0  0  0  0  0  0  0  0  0
   37.3790   24.5400   32.9610 N   0  0  0  0  0  0  0  0  0  0  0  0
   38.3870   24.0950   33.7480 C   0  0  0  0  0  0  0  0  0  0  0  0
   39.0420   24.9830   34.3940 O   0  0  0  0  0  0  0  0  0  0  0  0
   38.2840   20.8350   33.2810 H   0  0  0  0  0  0  0  0  0  0  0  0
   36.3810   21.5250   31.7800 H   0  0  0  0  0  0  0  0  0  0  0  0
   37.1040   25.9340   32.8950 C   0  0  0  0  0  0  0  0  0  0  0  0
   36.8430   26.8880   31.9830 N   0  0  0  0  0  0  0  0  0  0  0  0
   36.6700   28.0620   32.6350 C   0  0  0  0  0  0  0  0  0  0  0  0
   36.4480   29.0010   32.1450 H   0  0  0  0  0  0  0  0  0  0  0  0
   36.8260   27.8320   33.9700 N   0  0  0  0  0  0  0  0  0  0  0  0
   36.7480   28.5610   34.7220 H   0  0  0  0  0  0  0  0  0  0  0  0
   37.0890   26.5300   34.1050 N   0  0  0  0  0  0  0  0  0  0  0  0
   39.4690   22.1790   36.0510 C   0  0  0  0  0  0  0  0  0  0  0  0
   39.7690   22.4200   34.7030 C   0  0  0  0  0  0  0  0  0  0  0  0
   41.0930   22.3090   34.2580 C   0  0  0  0  0  0  0  0  0  0  0  0
   42.0370   21.9660   35.1710 N   0  0  0  0  0  0  0  0  0  0  0  0
   41.7520   21.7390   36.4430 C   0  0  0  0  0  0  0  0  0  0  0  0
   40.4860   21.8430   36.8850 N   0  0  0  0  0  0  0  0  0  0  0  0
   41.2840   22.5050   33.2010 H   0  0  0  0  0  0  0  0  0  0  0  0
   42.5150   21.4660   37.1650 H   0  0  0  0  0  0  0  0  0  0  0  0
   37.4740   23.2950   37.2980 C   0  0  0  0  0  0  0  0  0  0  0  0
   37.9860   24.4170   37.5100 O   0  0  0  0  0  0  0  0  0  0  0  0
   38.1670   22.2560   36.5920 N   0  0  0  0  0  0  0  0  0  0  0  0
   36.4770   23.1690   37.6850 H   0  0  0  0  0  0  0  0  0  0  0  0
   37.5360   21.4060   36.4800 H   0  0  0  0  0  0  0  0  0  0  0  0
  1 19  1  0  0  0  0
  2  9  1  0  0  0  0
  2  1  1  0  0  0  0
  3  2  2  0  0  0  0
  4  3  1  0  0  0  0
  4  6  1  0  0  0  0
  5  4  2  0  0  0  0
  6  7  1  0  0  0  0
  7  1  1  0  0  0  0
  7  8  2  0  0  0  0
 10  3  1  0  0  0  0
 11  6  1  0  0  0  0
 11 17  2  0  0  0  0
 12 13  2  0  0  0  0
 12 11  1  0  0  0  0
 13 15  1  0  0  0  0
 14 13  1  0  0  0  0
 15 17  1  0  0  0  0
 15 16  1  0  0  0  0
 18 28  1  0  0  0  0
 18 23  1  0  0  0  0
 19 18  2  0  0  0  0
 20 19  1  0  0  0  0
 20 21  2  0  0  0  0
 21 22  1  0  0  0  0
 22 23  2  0  0  0  0
 22 25  1  0  0  0  0
 24 20  1  0  0  0  0
 26 27  2  0  0  0  0
 26 29  1  0  0  0  0
 28 26  1  0  0  0  0
 30 28  1  0  0  0  0
M  END
>  <minimizedAffinity>
-5.10638094

$$$$

 OpenBabel03272507533D

 30 32  0  0  0  0  0  0  0  0999 V2000
   36.0330   26.5300   31.6750 N   0  0  0  0  0  0  0  0  0  0  0  0
   35.3340   25.6230   30.9840 C   0  0  0  0  0  0  0  0  0  0  0  0
   35.5620   24.2650   31.1830 C   0  0  0  0  0  0  0  0  0  0  0  0
   36.5180   23.9800   32.1070 C   0  0  0  0  0  0  0  0  0  0  0  0
   36.7340   22.7450   32.2940 O   0  0  0  0  0  0  0  0  0  0  0  0
   37.2340   24.8470   32.8130 N   0  0  0  0  0  0  0  0  0  0  0  0
   36.9700   26.1540   32.5780 C   0  0  0  0  0  0  0  0  0  0  0  0
   37.6490   27.0040   33.2500 O   0  0  0  0  0  0  0  0  0  0  0  0
   34.6070   26.0130   30.2860 H   0  0  0  0  0  0  0  0  0  0  0  0
   34.9980   23.5470   30.6250 H   0  0  0  0  0  0  0  0  0  0  0  0
   38.2260   24.4920   33.7690 C   0  0  0  0  0  0  0  0  0  0  0  0
   38.4080   23.6390   34.7920 N   0  0  0  0  0  0  0  0  0  0  0  0
   39.6490   23.8390   35.2960 C   0  0  0  0  0  0  0  0  0  0  0  0
   40.0620   23.2860   36.1300 H   0  0  0  0  0  0  0  0  0  0  0  0
   40.2450   24.8310   34.5730 N   0  0  0  0  0  0  0  0  0  0  0  0
   41.2130   25.2000   34.7380 H   0  0  0  0  0  0  0  0  0  0  0  0
   39.3600   25.2140   33.6490 N   0  0  0  0  0  0  0  0  0  0  0  0
   36.5340   28.5700   30.4640 C   0  0  0  0  0  0  0  0  0  0  0  0
   35.8400   27.9430   31.5080 C   0  0  0  0  0  0  0  0  0  0  0  0
   35.0000   28.7020   32.3340 C   0  0  0  0  0  0  0  0  0  0  0  0
   34.8980   30.0310   32.0770 N   0  0  0  0  0  0  0  0  0  0  0  0
   35.5540   30.6210   31.0920 C   0  0  0  0  0  0  0  0  0  0  0  0
   36.3640   29.9060   30.2910 N   0  0  0  0  0  0  0  0  0  0  0  0
   34.4770   28.1760   33.1360 H   0  0  0  0  0  0  0  0  0  0  0  0
   35.4660   31.6850   30.8960 H   0  0  0  0  0  0  0  0  0  0  0  0
   38.7990   27.6050   29.6170 C   0  0  0  0  0  0  0  0  0  0  0  0
   39.5170   27.9230   30.5910 O   0  0  0  0  0  0  0  0  0  0  0  0
   37.3940   27.8910   29.5730 N   0  0  0  0  0  0  0  0  0  0  0  0
   39.3140   27.1020   28.8160 H   0  0  0  0  0  0  0  0  0  0  0  0
   36.9670   27.4940   28.6830 H   0  0  0  0  0  0  0  0  0  0  0  0
  1  7  1  0  0  0  0
  2  3  2  0  0  0  0
  2  1  1  0  0  0  0
  3  4  1  0  0  0  0
  4  5  2  0  0  0  0
  4  6  1  0  0  0  0
  6 11  1  0  0  0  0
  7  6  1  0  0  0  0
  7  8  2  0  0  0  0
  9  2  1  0  0  0  0
 10  3  1  0  0  0  0
 11 12  1  0  0  0  0
 12 13  2  0  0  0  0
 13 14  1  0  0  0  0
 15 16  1  0  0  0  0
 15 13  1  0  0  0  0
 17 11  2  0  0  0  0
 17 15  1  0  0  0  0
 18 19  1  0  0  0  0
 19  1  1  0  0  0  0
 19 20  2  0  0  0  0
 20 24  1  0  0  0  0
 21 20  1  0  0  0  0
 22 21  2  0  0  0  0
 23 18  2  0  0  0  0
 23 22  1  0  0  0  0
 25 22  1  0  0  0  0
 26 27  2  0  0  0  0
 28 26  1  0  0  0  0
 28 18  1  0  0  0  0
 29 26  1  0  0  0  0
 30 28  1  0  0  0  0
M  END
>  <minimizedAffinity>
-5.10209036

$$$$

 OpenBabel03272507533D

 30 32  0  0  0  0  0  0  0  0999 V2000
   37.4370   21.7100   32.6500 N   0  0  0  0  0  0  0  0  0  0  0  0
   36.3510   20.9320   32.5830 C   0  0  0  0  0  0  0  0  0  0  0  0
   35.6620   20.5930   33.7430 C   0  0  0  0  0  0  0  0  0  0  0  0
   36.1840   21.1140   34.8850 C   0  0  0  0  0  0  0  0  0  0  0  0
   35.5630   20.8110   35.9480 O   0  0  0  0  0  0  0  0  0  0  0  0
   37.2550   21.8890   34.9960 N   0  0  0  0  0  0  0  0  0  0  0  0
   37.8870   22.1850   33.8350 C   0  0  0  0  0  0  0  0  0  0  0  0
   38.9210   22.9320   33.9210 O   0  0  0  0  0  0  0  0  0  0  0  0
   36.0650   20.5980   31.5960 H   0  0  0  0  0  0  0  0  0  0  0  0
   34.7950   19.9680   33.6800 H   0  0  0  0  0  0  0  0  0  0  0  0
   37.7600   22.4070   36.2210 C   0  0  0  0  0  0  0  0  0  0  0  0
   37.3200   23.0040   37.3430 N   0  0  0  0  0  0  0  0  0  0  0  0
   38.3860   23.2430   38.1430 C   0  0  0  0  0  0  0  0  0  0  0  0
   38.3210   23.7160   39.1150 H   0  0  0  0  0  0  0  0  0  0  0  0
   39.5030   22.7890   37.5070 N   0  0  0  0  0  0  0  0  0  0  0  0
   40.4790   22.8410   37.8890 H   0  0  0  0  0  0  0  0  0  0  0  0
   39.0990   22.2840   36.3390 N   0  0  0  0  0  0  0  0  0  0  0  0
   37.7710   23.2350   30.7940 C   0  0  0  0  0  0  0  0  0  0  0  0
   38.1870   22.0880   31.4850 C   0  0  0  0  0  0  0  0  0  0  0  0
   39.2970   21.3660   31.0230 C   0  0  0  0  0  0  0  0  0  0  0  0
   39.9250   21.8230   29.9100 N   0  0  0  0  0  0  0  0  0  0  0  0
   39.5310   22.9050   29.2590 C   0  0  0  0  0  0  0  0  0  0  0  0
   38.4680   23.6070   29.6900 N   0  0  0  0  0  0  0  0  0  0  0  0
   39.5880   20.4800   31.5890 H   0  0  0  0  0  0  0  0  0  0  0  0
   40.0400   23.2610   28.3700 H   0  0  0  0  0  0  0  0  0  0  0  0
   36.5710   25.1830   32.0360 C   0  0  0  0  0  0  0  0  0  0  0  0
   37.5720   25.7140   32.5680 O   0  0  0  0  0  0  0  0  0  0  0  0
   36.6740   24.0330   31.1850 N   0  0  0  0  0  0  0  0  0  0  0  0
   35.6300   25.6530   32.2660 H   0  0  0  0  0  0  0  0  0  0  0  0
   35.7150   23.7740   30.8020 H   0  0  0  0  0  0  0  0  0  0  0  0
  1  7  1  0  0  0  0
  2  1  1  0  0  0  0
  2  3  2  0  0  0  0
  3  4  1  0  0  0  0
  4  6  1  0  0  0  0
  4  5  2  0  0  0  0
  6 11  1  0  0  0  0
  7  8  2  0  0  0  0
  7  6  1  0  0  0  0
  9  2  1  0  0  0  0
 10  3  1  0  0  0  0
 11 17  2  0  0  0  0
 11 12  1  0  0  0  0
 12 13  2  0  0  0  0
 13 14  1  0  0  0  0
 15 16  1  0  0  0  0
 15 13  1  0  0  0  0
 17 15  1  0  0  0  0
 18 28  1  0  0  0  0
 18 19  1  0  0  0  0
 19  1  1  0  0  0  0
 20 19  2  0  0  0  0
 20 24  1  0  0  0  0
 21 20  1  0  0  0  0
 22 23  1  0  0  0  0
 22 21  2  0  0  0  0
 23 18  2  0  0  0  0
 25 22  1  0  0  0  0
 26 29  1  0  0  0  0
 26 27  2  0  0  0  0
 28 26  1  0  0  0  0
 30 28  1  0  0  0  0
M  END
>  <minimizedAffinity>
-5.0867219

$$$$

 OpenBabel03272507533D

 30 32  0  0  0  0  0  0  0  0999 V2000
   39.0950   25.1400   32.9470 N   0  0  0  0  0  0  0  0  0  0  0  0
   40.0790   25.9670   32.5800 C   0  0  0  0  0  0  0  0  0  0  0  0
   41.2640   26.0100   33.3070 C   0  0  0  0  0  0  0  0  0  0  0  0
   41.3070   25.1630   34.3700 C   0  0  0  0  0  0  0  0  0  0  0  0
   42.3830   25.1950   35.0400 O   0  0  0  0  0  0  0  0  0  0  0  0
   40.3560   24.3280   34.7690 N   0  0  0  0  0  0  0  0  0  0  0  0
   39.2250   24.3290   34.0240 C   0  0  0  0  0  0  0  0  0  0  0  0
   38.2980   23.5290   34.3910 O   0  0  0  0  0  0  0  0  0  0  0  0
   39.8880   26.5770   31.7080 H   0  0  0  0  0  0  0  0  0  0  0  0
   42.0460   26.6770   33.0070 H   0  0  0  0  0  0  0  0  0  0  0  0
   40.4550   23.4620   35.8930 C   0  0  0  0  0  0  0  0  0  0  0  0
   41.3240   22.6040   36.4570 N   0  0  0  0  0  0  0  0  0  0  0  0
   40.7510   22.0910   37.5720 C   0  0  0  0  0  0  0  0  0  0  0  0
   41.2310   21.3710   38.2230 H   0  0  0  0  0  0  0  0  0  0  0  0
   39.5100   22.6390   37.7010 N   0  0  0  0  0  0  0  0  0  0  0  0
   38.8330   22.4260   38.4750 H   0  0  0  0  0  0  0  0  0  0  0  0
   39.3500   23.4700   36.6680 N   0  0  0  0  0  0  0  0  0  0  0  0
   36.9370   26.1060   32.4070 C   0  0  0  0  0  0  0  0  0  0  0  0
   37.8500   25.0570   32.2340 C   0  0  0  0  0  0  0  0  0  0  0  0
   37.5240   23.9870   31.3890 C   0  0  0  0  0  0  0  0  0  0  0  0
   36.3180   24.0210   30.7680 N   0  0  0  0  0  0  0  0  0  0  0  0
   35.4560   25.0110   30.9330 C   0  0  0  0  0  0  0  0  0  0  0  0
   35.7550   26.0440   31.7400 N   0  0  0  0  0  0  0  0  0  0  0  0
   38.2630   23.1900   31.2820 H   0  0  0  0  0  0  0  0  0  0  0  0
   34.4940   25.0270   30.4320 H   0  0  0  0  0  0  0  0  0  0  0  0
   37.1610   27.4080   34.6490 C   0  0  0  0  0  0  0  0  0  0  0  0
   36.9490   26.4620   35.4410 O   0  0  0  0  0  0  0  0  0  0  0  0
   37.1770   27.2300   33.2260 N   0  0  0  0  0  0  0  0  0  0  0  0
   37.3310   28.3640   35.1170 H   0  0  0  0  0  0  0  0  0  0  0  0
   37.4230   28.1470   32.7450 H   0  0  0  0  0  0  0  0  0  0  0  0
  1  7  1  0  0  0  0
  2  1  1  0  0  0  0
  2  3  2  0  0  0  0
  3  4  1  0  0  0  0
  4  6  1  0  0  0  0
  4  5  2  0  0  0  0
  6 11  1  0  0  0  0
  7  8  2  0  0  0  0
  7  6  1  0  0  0  0
  9  2  1  0  0  0  0
 10  3  1  0  0  0  0
 11 12  1  0  0  0  0
 11 17  2  0  0  0  0
 12 13  2  0  0  0  0
 13 15  1  0  0  0  0
 13 14  1  0  0  0  0
 15 16  1  0  0  0  0
 17 15  1  0  0  0  0
 18 28  1  0  0  0  0
 19 18  1  0  0  0  0
 19  1  1  0  0  0  0
 20 19  2  0  0  0  0
 21 22  2  0  0  0  0
 21 20  1  0  0  0  0
 22 23  1  0  0  0  0
 23 18  2  0  0  0  0
 24 20  1  0  0  0  0
 25 22  1  0  0  0  0
 26 29  1  0  0  0  0
 26 27  2  0  0  0  0
 28 26  1  0  0  0  0
 30 28  1  0  0  0  0
M  END
>  <minimizedAffinity>
-5.02812672

$$$$

 OpenBabel03272507533D

 30 32  0  0  0  0  0  0  0  0999 V2000
   38.2230   23.8070   34.5720 N   0  0  0  0  0  0  0  0  0  0  0  0
   38.5010   24.9410   33.9200 C   0  0  0  0  0  0  0  0  0  0  0  0
   38.3000   25.0250   32.5460 C   0  0  0  0  0  0  0  0  0  0  0  0
   37.8140   23.8900   31.9750 C   0  0  0  0  0  0  0  0  0  0  0  0
   37.6270   23.9560   30.7230 O   0  0  0  0  0  0  0  0  0  0  0  0
   37.5240   22.7470   32.5830 N   0  0  0  0  0  0  0  0  0  0  0  0
   37.7410   22.7230   33.9190 C   0  0  0  0  0  0  0  0  0  0  0  0
   37.4660   21.6300   34.5240 O   0  0  0  0  0  0  0  0  0  0  0  0
   38.8820   25.7550   34.5210 H   0  0  0  0  0  0  0  0  0  0  0  0
   38.5260   25.9360   32.0320 H   0  0  0  0  0  0  0  0  0  0  0  0
   37.0180   21.5870   31.9330 C   0  0  0  0  0  0  0  0  0  0  0  0
   36.0860   21.2410   31.0280 N   0  0  0  0  0  0  0  0  0  0  0  0
   36.1370   19.8980   30.8580 C   0  0  0  0  0  0  0  0  0  0  0  0
   35.4940   19.3470   30.1830 H   0  0  0  0  0  0  0  0  0  0  0  0
   37.1150   19.4050   31.6700 N   0  0  0  0  0  0  0  0  0  0  0  0
   37.3800   18.3930   31.7500 H   0  0  0  0  0  0  0  0  0  0  0  0
   37.6380   20.4510   32.3160 N   0  0  0  0  0  0  0  0  0  0  0  0
   39.5650   22.9920   36.4210 C   0  0  0  0  0  0  0  0  0  0  0  0
   38.4140   23.6650   35.9890 C   0  0  0  0  0  0  0  0  0  0  0  0
   37.5090   24.1660   36.9350 C   0  0  0  0  0  0  0  0  0  0  0  0
   37.7980   23.9700   38.2470 N   0  0  0  0  0  0  0  0  0  0  0  0
   38.8850   23.3350   38.6530 C   0  0  0  0  0  0  0  0  0  0  0  0
   39.7620   22.8480   37.7560 N   0  0  0  0  0  0  0  0  0  0  0  0
   36.6250   24.6830   36.5580 H   0  0  0  0  0  0  0  0  0  0  0  0
   39.1060   23.1830   39.7040 H   0  0  0  0  0  0  0  0  0  0  0  0
   41.7050   23.0350   34.9380 C   0  0  0  0  0  0  0  0  0  0  0  0
   42.0730   24.2090   35.1710 O   0  0  0  0  0  0  0  0  0  0  0  0
   40.5390   22.4620   35.5470 N   0  0  0  0  0  0  0  0  0  0  0  0
   42.3280   22.4900   34.2490 H   0  0  0  0  0  0  0  0  0  0  0  0
   40.4350   21.4450   35.2520 H   0  0  0  0  0  0  0  0  0  0  0  0
  1 19  1  0  0  0  0
  2  9  1  0  0  0  0
  2  1  1  0  0  0  0
  3  2  2  0  0  0  0
  4  3  1  0  0  0  0
  4  6  1  0  0  0  0
  5  4  2  0  0  0  0
  6  7  1  0  0  0  0
  7  8  2  0  0  0  0
  7  1  1  0  0  0  0
 10  3  1  0  0  0  0
 11 17  2  0  0  0  0
 11  6  1  0  0  0  0
 12 11  1  0  0  0  0
 13 12  2  0  0  0  0
 13 15  1  0  0  0  0
 14 13  1  0  0  0  0
 15 16  1  0  0  0  0
 15 17  1  0  0  0  0
 18 23  1  0  0  0  0
 19 18  2  0  0  0  0
 19 20  1  0  0  0  0
 20 21  2  0  0  0  0
 21 22  1  0  0  0  0
 22 25  1  0  0  0  0
 23 22  2  0  0  0  0
 24 20  1  0  0  0  0
 26 27  2  0  0  0  0
 26 28  1  0  0  0  0
 28 18  1  0  0  0  0
 29 26  1  0  0  0  0
 30 28  1  0  0  0  0
M  END
>  <minimizedAffinity>
-4.98535013

$$$$

 OpenBabel03272507533D

 30 32  0  0  0  0  0  0  0  0999 V2000
   35.5020   30.1490   33.3850 N   0  0  0  0  0  0  0  0  0  0  0  0
   35.4780   30.7910   32.2120 C   0  0  0  0  0  0  0  0  0  0  0  0
   35.8770   30.1390   31.0500 C   0  0  0  0  0  0  0  0  0  0  0  0
   36.2700   28.8490   31.2310 C   0  0  0  0  0  0  0  0  0  0  0  0
   36.6370   28.2470   30.1770 O   0  0  0  0  0  0  0  0  0  0  0  0
   36.3090   28.1760   32.3730 N   0  0  0  0  0  0  0  0  0  0  0  0
   35.9090   28.8600   33.4710 C   0  0  0  0  0  0  0  0  0  0  0  0
   35.9380   28.2270   34.5820 O   0  0  0  0  0  0  0  0  0  0  0  0
   35.1380   31.8170   32.2380 H   0  0  0  0  0  0  0  0  0  0  0  0
   35.8560   30.6610   30.1160 H   0  0  0  0  0  0  0  0  0  0  0  0
   36.7310   26.8230   32.5050 C   0  0  0  0  0  0  0  0  0  0  0  0
   36.5600   25.6310   31.9080 N   0  0  0  0  0  0  0  0  0  0  0  0
   37.2910   24.7100   32.5800 C   0  0  0  0  0  0  0  0  0  0  0  0
   37.3390   23.6620   32.3150 H   0  0  0  0  0  0  0  0  0  0  0  0
   37.9240   25.3420   33.6090 N   0  0  0  0  0  0  0  0  0  0  0  0
   38.5620   24.8780   34.3020 H   0  0  0  0  0  0  0  0  0  0  0  0
   37.5690   26.6280   33.5440 N   0  0  0  0  0  0  0  0  0  0  0  0
   33.8150   30.4920   35.0940 C   0  0  0  0  0  0  0  0  0  0  0  0
   35.1020   30.7740   34.6150 C   0  0  0  0  0  0  0  0  0  0  0  0
   35.9350   31.6400   35.3380 C   0  0  0  0  0  0  0  0  0  0  0  0
   35.4450   32.1700   36.4870 N   0  0  0  0  0  0  0  0  0  0  0  0
   34.2300   31.9030   36.9380 C   0  0  0  0  0  0  0  0  0  0  0  0
   33.4190   31.0750   36.2550 N   0  0  0  0  0  0  0  0  0  0  0  0
   36.9290   31.8340   34.9310 H   0  0  0  0  0  0  0  0  0  0  0  0
   33.8480   32.3330   37.8570 H   0  0  0  0  0  0  0  0  0  0  0  0
   32.0020   29.8230   33.3490 C   0  0  0  0  0  0  0  0  0  0  0  0
   31.9270   30.9070   32.7280 O   0  0  0  0  0  0  0  0  0  0  0  0
   32.9080   29.6270   34.4440 N   0  0  0  0  0  0  0  0  0  0  0  0
   31.3380   29.0510   32.9990 H   0  0  0  0  0  0  0  0  0  0  0  0
   32.8450   28.6240   34.7950 H   0  0  0  0  0  0  0  0  0  0  0  0
  1  7  1  0  0  0  0
  1 19  1  0  0  0  0
  2  9  1  0  0  0  0
  2  1  1  0  0  0  0
  3  4  1  0  0  0  0
  3  2  2  0  0  0  0
  4  6  1  0  0  0  0
  5  4  2  0  0  0  0
  6 11  1  0  0  0  0
  6  7  1  0  0  0  0
  7  8  2  0  0  0  0
 10  3  1  0  0  0  0
 11 17  2  0  0  0  0
 12 11  1  0  0  0  0
 12 13  2  0  0  0  0
 13 15  1  0  0  0  0
 14 13  1  0  0  0  0
 15 16  1  0  0  0  0
 17 15  1  0  0  0  0
 18 23  1  0  0  0  0
 19 18  2  0  0  0  0
 19 20  1  0  0  0  0
 20 21  2  0  0  0  0
 21 22  1  0  0  0  0
 22 25  1  0  0  0  0
 23 22  2  0  0  0  0
 24 20  1  0  0  0  0
 26 28  1  0  0  0  0
 27 26  2  0  0  0  0
 28 30  1  0  0  0  0
 28 18  1  0  0  0  0
 29 26  1  0  0  0  0
M  END
>  <minimizedAffinity>
-4.96681643

$$$$

 OpenBabel03272507533D

 30 32  0  0  0  0  0  0  0  0999 V2000
   34.1330   29.6070   33.1190 N   0  0  0  0  0  0  0  0  0  0  0  0
   32.9340   29.0610   32.8840 C   0  0  0  0  0  0  0  0  0  0  0  0
   31.8400   29.4140   33.6670 C   0  0  0  0  0  0  0  0  0  0  0  0
   32.1110   30.3250   34.6400 C   0  0  0  0  0  0  0  0  0  0  0  0
   31.1200   30.6530   35.3600 O   0  0  0  0  0  0  0  0  0  0  0  0
   33.2820   30.8900   34.9060 N   0  0  0  0  0  0  0  0  0  0  0  0
   34.3100   30.5080   34.1130 C   0  0  0  0  0  0  0  0  0  0  0  0
   35.4470   31.0430   34.3530 O   0  0  0  0  0  0  0  0  0  0  0  0
   32.8850   28.3510   32.0710 H   0  0  0  0  0  0  0  0  0  0  0  0
   30.8850   28.9720   33.4730 H   0  0  0  0  0  0  0  0  0  0  0  0
   33.5090   31.8400   35.9410 C   0  0  0  0  0  0  0  0  0  0  0  0
   32.9530   32.9510   36.4560 N   0  0  0  0  0  0  0  0  0  0  0  0
   33.7260   33.3740   37.4850 C   0  0  0  0  0  0  0  0  0  0  0  0
   33.5120   34.2510   38.0820 H   0  0  0  0  0  0  0  0  0  0  0  0
   34.7750   32.5120   37.6090 N   0  0  0  0  0  0  0  0  0  0  0  0
   35.5390   32.5900   38.3250 H   0  0  0  0  0  0  0  0  0  0  0  0
   34.6230   31.5860   36.6600 N   0  0  0  0  0  0  0  0  0  0  0  0
   35.5000   29.9890   31.1520 C   0  0  0  0  0  0  0  0  0  0  0  0
   35.2960   29.2760   32.3420 C   0  0  0  0  0  0  0  0  0  0  0  0
   36.2140   28.2880   32.7240 C   0  0  0  0  0  0  0  0  0  0  0  0
   37.2740   28.0660   31.9060 N   0  0  0  0  0  0  0  0  0  0  0  0
   37.4660   28.7390   30.7840 C   0  0  0  0  0  0  0  0  0  0  0  0
   36.5930   29.6890   30.4040 N   0  0  0  0  0  0  0  0  0  0  0  0
   36.0180   27.7560   33.6570 H   0  0  0  0  0  0  0  0  0  0  0  0
   38.3170   28.5530   30.1380 H   0  0  0  0  0  0  0  0  0  0  0  0
   34.6450   32.4310   30.8650 C   0  0  0  0  0  0  0  0  0  0  0  0
   35.5520   33.0240   31.4910 O   0  0  0  0  0  0  0  0  0  0  0  0
   34.6390   31.0070   30.6890 N   0  0  0  0  0  0  0  0  0  0  0  0
   33.8730   33.0690   30.4690 H   0  0  0  0  0  0  0  0  0  0  0  0
   33.8100   30.7170   30.0880 H   0  0  0  0  0  0  0  0  0  0  0  0
  1  7  1  0  0  0  0
  2  1  1  0  0  0  0
  2  3  2  0  0  0  0
  3  4  1  0  0  0  0
  4  6  1  0  0  0  0
  4  5  2  0  0  0  0
  6 11  1  0  0  0  0
  7  8  2  0  0  0  0
  7  6  1  0  0  0  0
  9  2  1  0  0  0  0
 10  3  1  0  0  0  0
 11 12  1  0  0  0  0
 11 17  2  0  0  0  0
 12 13  2  0  0  0  0
 13 15  1  0  0  0  0
 13 14  1  0  0  0  0
 15 16  1  0  0  0  0
 17 15  1  0  0  0  0
 18 19  1  0  0  0  0
 19 20  2  0  0  0  0
 19  1  1  0  0  0  0
 20 24  1  0  0  0  0
 21 20  1  0  0  0  0
 22 21  2  0  0  0  0
 23 22  1  0  0  0  0
 23 18  2  0  0  0  0
 25 22  1  0  0  0  0
 26 27  2  0  0  0  0
 28 26  1  0  0  0  0
 28 18  1  0  0  0  0
 29 26  1  0  0  0  0
 30 28  1  0  0  0  0
M  END
>  <minimizedAffinity>
-4.92864943

$$$$
