
 OpenBabel03272504433D

 43 45  0  0  0  0  0  0  0  0999 V2000
   36.6970   28.1240   34.2340 C   0  0  0  0  0  0  0  0  0  0  0  0
   37.6250   28.7610   34.3390 H   0  0  0  0  0  0  0  0  0  0  0  0
   36.2480   28.1600   35.2480 H   0  0  0  0  0  0  0  0  0  0  0  0
   38.3720   26.8600   36.3470 Cl  0  0  0  0  0  0  0  0  0  0  0  0
   37.9110   26.0570   34.8360 C   0  0  0  0  0  0  0  0  0  0  0  0
   38.3320   24.7950   34.6080 C   0  0  0  0  0  0  0  0  0  0  0  0
   37.9810   24.1580   33.4400 C   0  0  0  0  0  0  0  0  0  0  0  0
   37.1940   24.8420   32.5210 C   0  0  0  0  0  0  0  0  0  0  0  0
   36.7940   26.1520   32.8260 C   0  0  0  0  0  0  0  0  0  0  0  0
   37.1320   26.7840   33.9680 C   0  0  0  0  0  0  0  0  0  0  0  0
   38.3350   23.1340   33.2780 H   0  0  0  0  0  0  0  0  0  0  0  0
   36.9750   24.2570   31.6430 H   0  0  0  0  0  0  0  0  0  0  0  0
   36.2170   26.4720   31.9960 H   0  0  0  0  0  0  0  0  0  0  0  0
   41.2200   23.1480   36.2050 C   0  0  0  0  0  0  0  0  0  0  0  0
   40.6460   22.7390   37.4450 C   0  0  0  0  0  0  0  0  0  0  0  0
   39.2920   23.0480   37.6820 C   0  0  0  0  0  0  0  0  0  0  0  0
   38.5860   23.7170   36.7310 N   0  0  0  0  0  0  0  0  0  0  0  0
   39.1660   24.0880   35.5660 C   0  0  0  0  0  0  0  0  0  0  0  0
   40.4570   23.8010   35.3230 N   0  0  0  0  0  0  0  0  0  0  0  0
   42.2610   22.8890   36.0680 H   0  0  0  0  0  0  0  0  0  0  0  0
   41.1900   22.2170   38.1930 H   0  0  0  0  0  0  0  0  0  0  0  0
   38.7330   22.6380   38.9090 N   0  0  0  0  0  0  0  0  0  0  0  0
   39.3220   22.4340   39.7200 H   0  0  0  0  0  0  0  0  0  0  0  0
   37.6750   22.5480   38.9600 H   0  0  0  0  0  0  0  0  0  0  0  0
   35.7700   28.7920   33.3110 C   0  0  0  0  0  0  0  0  0  0  0  0
   36.3220   29.5660   32.7020 H   0  0  0  0  0  0  0  0  0  0  0  0
   35.3370   28.1130   32.5420 H   0  0  0  0  0  0  0  0  0  0  0  0
   34.7210   29.3690   33.9790 O   0  0  0  0  0  0  0  0  0  0  0  0
   34.5680   30.6200   31.6730 O   0  0  0  0  0  0  0  0  0  0  0  0
   34.0830   30.6280   33.0950 P   0  0  2  0  0  0  0  0  0  0  0  0
   34.5910   32.0880   33.8670 O   0  0  0  0  0  0  0  0  0  0  0  0
   34.4450   32.1320   35.2500 C   0  0  0  0  0  0  0  0  0  0  0  0
   33.3040   32.2680   35.9610 N   0  0  0  0  0  0  0  0  0  0  0  0
   33.5750   32.2680   37.2700 C   0  0  0  0  0  0  0  0  0  0  0  0
   32.9910   32.3490   38.1790 H   0  0  0  0  0  0  0  0  0  0  0  0
   34.9150   32.1270   37.4010 N   0  0  0  0  0  0  0  0  0  0  0  0
   35.6260   32.0670   38.1570 H   0  0  0  0  0  0  0  0  0  0  0  0
   35.4300   32.0460   36.1840 N   0  0  0  0  0  0  0  0  0  0  0  0
   32.4220   30.6590   33.1060 O   0  0  0  0  0  0  0  0  0  0  0  0
   31.9110   29.4170   33.4300 C   0  0  0  0  0  0  0  0  0  0  0  0
   32.1760   29.0570   34.7520 F   0  0  0  0  0  0  0  0  0  0  0  0
   30.5350   29.3880   33.3030 F   0  0  0  0  0  0  0  0  0  0  0  0
   32.4720   28.4480   32.6070 F   0  0  0  0  0  0  0  0  0  0  0  0
  1  2  1  0  0  0  0
  1  3  1  0  0  0  0
  5  4  1  0  0  0  0
  6  5  1  0  0  0  0
  6 18  1  0  0  0  0
  7  6  2  0  0  0  0
  8  9  2  0  0  0  0
  8  7  1  0  0  0  0
  9 10  1  0  0  0  0
 10  1  1  0  0  0  0
 10  5  2  0  0  0  0
 11  7  1  0  0  0  0
 12  8  1  0  0  0  0
 13  9  1  0  0  0  0
 14 15  1  0  0  0  0
 15 16  2  0  0  0  0
 15 21  1  0  0  0  0
 16 22  1  0  0  0  0
 17 16  1  0  0  0  0
 18 17  2  0  0  0  0
 19 18  1  0  0  0  0
 19 14  2  0  0  0  0
 20 14  1  0  0  0  0
 22 24  1  0  0  0  0
 22 23  1  0  0  0  0
 25 28  1  0  0  0  0
 25  1  1  0  0  0  0
 26 25  1  0  0  0  0
 27 25  1  0  0  0  0
 30 29  2  6  0  0  0
 30 39  1  0  0  0  0
 30 31  1  0  0  0  0
 30 28  1  0  0  0  0
 31 32  1  0  0  0  0
 32 33  1  0  0  0  0
 32 38  2  0  0  0  0
 33 34  2  0  0  0  0
 34 36  1  0  0  0  0
 34 35  1  0  0  0  0
 36 37  1  0  0  0  0
 38 36  1  0  0  0  0
 39 40  1  0  0  0  0
 40 41  1  0  0  0  0
 42 40  1  0  0  0  0
 43 40  1  0  0  0  0
M  END
>  <minimizedAffinity>
-6.11429262

$$$$

 OpenBabel03272504433D

 43 45  0  0  0  0  0  0  0  0999 V2000
   39.1210   25.5270   31.9980 C   0  0  0  0  0  0  0  0  0  0  0  0
   39.1070   26.5860   31.6000 H   0  0  0  0  0  0  0  0  0  0  0  0
   39.8500   25.0160   31.3360 H   0  0  0  0  0  0  0  0  0  0  0  0
   38.8530   22.6000   32.4800 Cl  0  0  0  0  0  0  0  0  0  0  0  0
   37.5230   23.6400   31.9400 C   0  0  0  0  0  0  0  0  0  0  0  0
   36.3070   23.0960   31.7310 C   0  0  0  0  0  0  0  0  0  0  0  0
   35.2650   23.8920   31.3130 C   0  0  0  0  0  0  0  0  0  0  0  0
   35.5010   25.2480   31.1190 C   0  0  0  0  0  0  0  0  0  0  0  0
   36.7920   25.7440   31.3570 C   0  0  0  0  0  0  0  0  0  0  0  0
   37.8190   24.9710   31.7670 C   0  0  0  0  0  0  0  0  0  0  0  0
   34.2860   23.4270   31.1490 H   0  0  0  0  0  0  0  0  0  0  0  0
   34.6230   25.7810   30.7940 H   0  0  0  0  0  0  0  0  0  0  0  0
   36.7410   26.7810   31.1440 H   0  0  0  0  0  0  0  0  0  0  0  0
   35.4530   19.8560   33.2730 C   0  0  0  0  0  0  0  0  0  0  0  0
   35.6520   18.9730   32.1710 C   0  0  0  0  0  0  0  0  0  0  0  0
   36.0680   19.5260   30.9440 C   0  0  0  0  0  0  0  0  0  0  0  0
   36.2660   20.8690   30.8530 N   0  0  0  0  0  0  0  0  0  0  0  0
   36.0670   21.6750   31.9220 C   0  0  0  0  0  0  0  0  0  0  0  0
   35.6700   21.1640   33.1000 N   0  0  0  0  0  0  0  0  0  0  0  0
   35.1340   19.3870   34.1930 H   0  0  0  0  0  0  0  0  0  0  0  0
   35.4990   17.9230   32.2330 H   0  0  0  0  0  0  0  0  0  0  0  0
   36.2630   18.6450   29.8630 N   0  0  0  0  0  0  0  0  0  0  0  0
   35.8210   17.7230   29.8410 H   0  0  0  0  0  0  0  0  0  0  0  0
   36.8880   18.9740   29.0690 H   0  0  0  0  0  0  0  0  0  0  0  0
   39.6830   25.5420   33.3540 C   0  0  0  0  0  0  0  0  0  0  0  0
   39.3860   24.6040   33.9070 H   0  0  0  0  0  0  0  0  0  0  0  0
   40.7960   25.5190   33.3780 H   0  0  0  0  0  0  0  0  0  0  0  0
   39.2860   26.6530   34.0520 O   0  0  0  0  0  0  0  0  0  0  0  0
   38.5570   26.7970   36.5720 O   0  0  0  0  0  0  0  0  0  0  0  0
   38.1780   26.2460   35.2260 P   0  0  2  0  0  0  0  0  0  0  0  0
   38.1420   24.5200   35.3020 O   0  0  0  0  0  0  0  0  0  0  0  0
   38.3810   23.9560   36.5510 C   0  0  0  0  0  0  0  0  0  0  0  0
   37.5760   23.9690   37.6360 N   0  0  0  0  0  0  0  0  0  0  0  0
   38.1580   23.3200   38.6490 C   0  0  0  0  0  0  0  0  0  0  0  0
   37.8900   23.0880   39.6720 H   0  0  0  0  0  0  0  0  0  0  0  0
   39.3590   22.8800   38.2050 N   0  0  0  0  0  0  0  0  0  0  0  0
   40.1790   22.3470   38.5590 H   0  0  0  0  0  0  0  0  0  0  0  0
   39.4850   23.2670   36.9440 N   0  0  0  0  0  0  0  0  0  0  0  0
   36.6290   26.7190   34.8580 O   0  0  0  0  0  0  0  0  0  0  0  0
   36.5930   28.0610   34.5280 C   0  0  0  0  0  0  0  0  0  0  0  0
   37.3240   28.8510   35.4160 F   0  0  0  0  0  0  0  0  0  0  0  0
   37.1440   28.2890   33.2810 F   0  0  0  0  0  0  0  0  0  0  0  0
   35.2790   28.5130   34.5430 F   0  0  0  0  0  0  0  0  0  0  0  0
  1 25  1  0  0  0  0
  2  1  1  0  0  0  0
  3  1  1  0  0  0  0
  5  4  1  0  0  0  0
  6 18  1  0  0  0  0
  6  5  2  0  0  0  0
  7  6  1  0  0  0  0
  8  7  2  0  0  0  0
  8  9  1  0  0  0  0
  9 10  2  0  0  0  0
 10  5  1  0  0  0  0
 10  1  1  0  0  0  0
 11  7  1  0  0  0  0
 12  8  1  0  0  0  0
 13  9  1  0  0  0  0
 14 20  1  0  0  0  0
 15 21  1  0  0  0  0
 15 14  2  0  0  0  0
 16 15  1  0  0  0  0
 17 16  2  0  0  0  0
 17 18  1  0  0  0  0
 18 19  2  0  0  0  0
 19 14  1  0  0  0  0
 22 16  1  0  0  0  0
 23 22  1  0  0  0  0
 24 22  1  0  0  0  0
 25 27  1  0  0  0  0
 25 26  1  0  0  0  0
 25 28  1  0  0  0  0
 28 30  1  0  0  0  0
 30 31  1  0  0  0  0
 30 29  2  1  0  0  0
 31 32  1  0  0  0  0
 32 38  2  0  0  0  0
 32 33  1  0  0  0  0
 33 34  2  0  0  0  0
 34 35  1  0  0  0  0
 36 37  1  0  0  0  0
 36 34  1  0  0  0  0
 38 36  1  0  0  0  0
 39 30  1  0  0  0  0
 40 43  1  0  0  0  0
 40 39  1  0  0  0  0
 40 41  1  0  0  0  0
 42 40  1  0  0  0  0
M  END
>  <minimizedAffinity>
-6.09856415

$$$$

 OpenBabel03272504433D

 43 45  0  0  0  0  0  0  0  0999 V2000
   37.4930   27.4710   32.7030 C   0  0  0  0  0  0  0  0  0  0  0  0
   38.3290   27.8170   33.3820 H   0  0  0  0  0  0  0  0  0  0  0  0
   37.9860   27.3890   31.7130 H   0  0  0  0  0  0  0  0  0  0  0  0
   36.7860   28.7100   35.3170 Cl  0  0  0  0  0  0  0  0  0  0  0  0
   36.0870   29.2060   33.7650 C   0  0  0  0  0  0  0  0  0  0  0  0
   35.1800   30.2040   33.7420 C   0  0  0  0  0  0  0  0  0  0  0  0
   34.6300   30.6000   32.5440 C   0  0  0  0  0  0  0  0  0  0  0  0
   35.0330   29.9530   31.3820 C   0  0  0  0  0  0  0  0  0  0  0  0
   35.9810   28.9230   31.4830 C   0  0  0  0  0  0  0  0  0  0  0  0
   36.5250   28.5280   32.6520 C   0  0  0  0  0  0  0  0  0  0  0  0
   33.8950   31.4130   32.5510 H   0  0  0  0  0  0  0  0  0  0  0  0
   34.5450   30.3370   30.5010 H   0  0  0  0  0  0  0  0  0  0  0  0
   36.1310   28.5770   30.4920 H   0  0  0  0  0  0  0  0  0  0  0  0
   35.0910   32.4310   36.6800 C   0  0  0  0  0  0  0  0  0  0  0  0
   33.8470   32.0550   37.2670 C   0  0  0  0  0  0  0  0  0  0  0  0
   33.0900   31.0530   36.6280 C   0  0  0  0  0  0  0  0  0  0  0  0
   33.5650   30.4850   35.4870 N   0  0  0  0  0  0  0  0  0  0  0  0
   34.7520   30.8690   34.9610 C   0  0  0  0  0  0  0  0  0  0  0  0
   35.4870   31.8240   35.5570 N   0  0  0  0  0  0  0  0  0  0  0  0
   35.6370   33.2040   37.2040 H   0  0  0  0  0  0  0  0  0  0  0  0
   33.4680   32.4930   38.1570 H   0  0  0  0  0  0  0  0  0  0  0  0
   31.8640   30.6860   37.2170 N   0  0  0  0  0  0  0  0  0  0  0  0
   31.3750   31.3110   37.8620 H   0  0  0  0  0  0  0  0  0  0  0  0
   31.4650   29.7330   36.9660 H   0  0  0  0  0  0  0  0  0  0  0  0
   37.0850   26.1210   33.1120 C   0  0  0  0  0  0  0  0  0  0  0  0
   35.9580   26.0470   33.1350 H   0  0  0  0  0  0  0  0  0  0  0  0
   37.3840   25.3250   32.3930 H   0  0  0  0  0  0  0  0  0  0  0  0
   37.6100   25.7830   34.3320 O   0  0  0  0  0  0  0  0  0  0  0  0
   39.0010   24.2370   32.7250 O   0  0  0  0  0  0  0  0  0  0  0  0
   38.7670   24.5970   34.1650 P   0  0  2  0  0  0  0  0  0  0  0  0
   38.1860   23.2090   35.0160 O   0  0  0  0  0  0  0  0  0  0  0  0
   38.5290   23.1280   36.3620 C   0  0  0  0  0  0  0  0  0  0  0  0
   37.9100   23.7080   37.4130 N   0  0  0  0  0  0  0  0  0  0  0  0
   38.5400   23.3930   38.5490 C   0  0  0  0  0  0  0  0  0  0  0  0
   38.4010   23.6240   39.5980 H   0  0  0  0  0  0  0  0  0  0  0  0
   39.5830   22.5950   38.2200 N   0  0  0  0  0  0  0  0  0  0  0  0
   40.3610   22.0890   38.6890 H   0  0  0  0  0  0  0  0  0  0  0  0
   39.5690   22.4410   36.9050 N   0  0  0  0  0  0  0  0  0  0  0  0
   40.2170   24.9920   34.8720 O   0  0  0  0  0  0  0  0  0  0  0  0
   40.5530   26.3040   34.5990 C   0  0  0  0  0  0  0  0  0  0  0  0
   40.3960   26.6280   33.2510 F   0  0  0  0  0  0  0  0  0  0  0  0
   39.7470   27.1870   35.2930 F   0  0  0  0  0  0  0  0  0  0  0  0
   41.8820   26.5290   34.9360 F   0  0  0  0  0  0  0  0  0  0  0  0
  1 25  1  0  0  0  0
  1  2  1  0  0  0  0
  3  1  1  0  0  0  0
  5  4  1  0  0  0  0
  6  5  1  0  0  0  0
  6 18  1  0  0  0  0
  7 11  1  0  0  0  0
  7  6  2  0  0  0  0
  8  9  2  0  0  0  0
  8  7  1  0  0  0  0
  9 10  1  0  0  0  0
 10  1  1  0  0  0  0
 10  5  2  0  0  0  0
 12  8  1  0  0  0  0
 13  9  1  0  0  0  0
 14 20  1  0  0  0  0
 14 15  1  0  0  0  0
 15 21  1  0  0  0  0
 16 22  1  0  0  0  0
 16 15  2  0  0  0  0
 17 16  1  0  0  0  0
 18 17  2  0  0  0  0
 18 19  1  0  0  0  0
 19 14  2  0  0  0  0
 22 23  1  0  0  0  0
 24 22  1  0  0  0  0
 25 26  1  0  0  0  0
 25 28  1  0  0  0  0
 27 25  1  0  0  0  0
 30 29  2  6  0  0  0
 30 28  1  0  0  0  0
 30 39  1  0  0  0  0
 30 31  1  0  0  0  0
 31 32  1  0  0  0  0
 32 38  2  0  0  0  0
 32 33  1  0  0  0  0
 33 34  2  0  0  0  0
 34 35  1  0  0  0  0
 36 34  1  0  0  0  0
 36 37  1  0  0  0  0
 38 36  1  0  0  0  0
 40 39  1  0  0  0  0
 40 43  1  0  0  0  0
 40 42  1  0  0  0  0
 41 40  1  0  0  0  0
M  END
>  <minimizedAffinity>
-5.92621088

$$$$

 OpenBabel03272504433D

 43 45  0  0  0  0  0  0  0  0999 V2000
   37.5660   27.5270   32.7340 C   0  0  0  0  0  0  0  0  0  0  0  0
   37.9820   27.7280   31.7010 H   0  0  0  0  0  0  0  0  0  0  0  0
   38.2860   28.0420   33.4020 H   0  0  0  0  0  0  0  0  0  0  0  0
   39.2150   26.6850   35.0660 Cl  0  0  0  0  0  0  0  0  0  0  0  0
   38.3760   25.5560   33.9880 C   0  0  0  0  0  0  0  0  0  0  0  0
   38.4750   24.2300   34.2190 C   0  0  0  0  0  0  0  0  0  0  0  0
   37.8280   23.3430   33.3900 C   0  0  0  0  0  0  0  0  0  0  0  0
   37.0830   23.8450   32.3300 C   0  0  0  0  0  0  0  0  0  0  0  0
   37.0260   25.2360   32.1510 C   0  0  0  0  0  0  0  0  0  0  0  0
   37.6570   26.1130   32.9580 C   0  0  0  0  0  0  0  0  0  0  0  0
   37.9230   22.2710   33.5980 H   0  0  0  0  0  0  0  0  0  0  0  0
   36.6170   23.0700   31.7430 H   0  0  0  0  0  0  0  0  0  0  0  0
   36.4180   25.3870   31.2960 H   0  0  0  0  0  0  0  0  0  0  0  0
   41.2950   22.9360   36.2120 C   0  0  0  0  0  0  0  0  0  0  0  0
   40.6590   22.7180   37.4690 C   0  0  0  0  0  0  0  0  0  0  0  0
   39.2890   23.0260   37.5810 C   0  0  0  0  0  0  0  0  0  0  0  0
   38.6260   23.5150   36.4980 N   0  0  0  0  0  0  0  0  0  0  0  0
   39.2660   23.7080   35.3210 C   0  0  0  0  0  0  0  0  0  0  0  0
   40.5730   23.4190   35.1970 N   0  0  0  0  0  0  0  0  0  0  0  0
   42.3460   22.6850   36.1740 H   0  0  0  0  0  0  0  0  0  0  0  0
   41.1690   22.3360   38.3200 H   0  0  0  0  0  0  0  0  0  0  0  0
   38.6690   22.8040   38.8270 N   0  0  0  0  0  0  0  0  0  0  0  0
   39.2140   22.7480   39.6900 H   0  0  0  0  0  0  0  0  0  0  0  0
   37.6110   22.6970   38.8350 H   0  0  0  0  0  0  0  0  0  0  0  0
   36.2720   28.2090   32.8600 C   0  0  0  0  0  0  0  0  0  0  0  0
   36.1960   29.0380   32.0970 H   0  0  0  0  0  0  0  0  0  0  0  0
   35.3980   27.5590   32.6280 H   0  0  0  0  0  0  0  0  0  0  0  0
   36.0830   28.7040   34.1240 O   0  0  0  0  0  0  0  0  0  0  0  0
   33.8820   29.6510   35.2020 O   0  0  0  0  0  0  0  0  0  0  0  0
   34.9050   29.8800   34.1250 P   0  0  2  0  0  0  0  0  0  0  0  0
   34.1350   29.8180   32.5800 O   0  0  0  0  0  0  0  0  0  0  0  0
   32.7930   30.1820   32.5480 C   0  0  0  0  0  0  0  0  0  0  0  0
   32.2700   31.4090   32.3360 N   0  0  0  0  0  0  0  0  0  0  0  0
   30.9350   31.3550   32.3820 C   0  0  0  0  0  0  0  0  0  0  0  0
   30.1290   32.0700   32.2710 H   0  0  0  0  0  0  0  0  0  0  0  0
   30.5950   30.0680   32.6280 N   0  0  0  0  0  0  0  0  0  0  0  0
   29.7370   29.4940   32.7560 H   0  0  0  0  0  0  0  0  0  0  0  0
   31.7170   29.3700   32.7260 N   0  0  0  0  0  0  0  0  0  0  0  0
   35.5140   31.4190   34.2700 O   0  0  0  0  0  0  0  0  0  0  0  0
   35.9840   31.6400   35.5510 C   0  0  0  0  0  0  0  0  0  0  0  0
   36.8650   32.7200   35.6190 F   0  0  0  0  0  0  0  0  0  0  0  0
   34.9540   31.9410   36.4220 F   0  0  0  0  0  0  0  0  0  0  0  0
   36.6600   30.5140   36.0050 F   0  0  0  0  0  0  0  0  0  0  0  0
  1 25  1  0  0  0  0
  1 10  1  0  0  0  0
  1  3  1  0  0  0  0
  2  1  1  0  0  0  0
  5  6  1  0  0  0  0
  5  4  1  0  0  0  0
  6 18  1  0  0  0  0
  7 11  1  0  0  0  0
  7  6  2  0  0  0  0
  8  7  1  0  0  0  0
  9  8  2  0  0  0  0
  9 10  1  0  0  0  0
 10  5  2  0  0  0  0
 12  8  1  0  0  0  0
 13  9  1  0  0  0  0
 14 15  1  0  0  0  0
 15 16  2  0  0  0  0
 15 21  1  0  0  0  0
 16 22  1  0  0  0  0
 17 16  1  0  0  0  0
 18 17  2  0  0  0  0
 19 18  1  0  0  0  0
 19 14  2  0  0  0  0
 20 14  1  0  0  0  0
 22 24  1  0  0  0  0
 22 23  1  0  0  0  0
 25 28  1  0  0  0  0
 26 25  1  0  0  0  0
 27 25  1  0  0  0  0
 28 30  1  0  0  0  0
 30 39  1  0  0  0  0
 30 29  2  1  0  0  0
 31 30  1  0  0  0  0
 32 31  1  0  0  0  0
 32 38  2  0  0  0  0
 33 34  2  0  0  0  0
 33 32  1  0  0  0  0
 34 36  1  0  0  0  0
 35 34  1  0  0  0  0
 36 38  1  0  0  0  0
 36 37  1  0  0  0  0
 39 40  1  0  0  0  0
 40 41  1  0  0  0  0
 40 43  1  0  0  0  0
 40 42  1  0  0  0  0
M  END
>  <minimizedAffinity>
-5.8627758

$$$$

 OpenBabel03272504433D

 43 45  0  0  0  0  0  0  0  0999 V2000
   38.8530   26.6670   33.1290 C   0  0  0  0  0  0  0  0  0  0  0  0
   39.1110   26.9720   34.1870 H   0  0  0  0  0  0  0  0  0  0  0  0
   39.7680   26.9300   32.5590 H   0  0  0  0  0  0  0  0  0  0  0  0
   37.2560   27.9460   35.2920 Cl  0  0  0  0  0  0  0  0  0  0  0  0
   36.9450   28.1790   33.5620 C   0  0  0  0  0  0  0  0  0  0  0  0
   35.9300   28.9800   33.1790 C   0  0  0  0  0  0  0  0  0  0  0  0
   35.6790   29.1700   31.8390 C   0  0  0  0  0  0  0  0  0  0  0  0
   36.4880   28.5250   30.9130 C   0  0  0  0  0  0  0  0  0  0  0  0
   37.5250   27.7060   31.3860 C   0  0  0  0  0  0  0  0  0  0  0  0
   37.7800   27.5140   32.6960 C   0  0  0  0  0  0  0  0  0  0  0  0
   34.8480   29.8260   31.5530 H   0  0  0  0  0  0  0  0  0  0  0  0
   36.2090   28.7390   29.8940 H   0  0  0  0  0  0  0  0  0  0  0  0
   37.9980   27.3200   30.5190 H   0  0  0  0  0  0  0  0  0  0  0  0
   32.9960   29.9510   35.1910 C   0  0  0  0  0  0  0  0  0  0  0  0
   33.5590   30.9690   36.0150 C   0  0  0  0  0  0  0  0  0  0  0  0
   34.9230   31.2790   35.8470 C   0  0  0  0  0  0  0  0  0  0  0  0
   35.6490   30.6040   34.9150 N   0  0  0  0  0  0  0  0  0  0  0  0
   35.0780   29.6440   34.1510 C   0  0  0  0  0  0  0  0  0  0  0  0
   33.7770   29.3360   34.2980 N   0  0  0  0  0  0  0  0  0  0  0  0
   31.9470   29.7480   35.3550 H   0  0  0  0  0  0  0  0  0  0  0  0
   33.0000   31.5010   36.7470 H   0  0  0  0  0  0  0  0  0  0  0  0
   35.4700   32.2880   36.6650 N   0  0  0  0  0  0  0  0  0  0  0  0
   35.0280   32.5540   37.5480 H   0  0  0  0  0  0  0  0  0  0  0  0
   36.3590   32.7630   36.3290 H   0  0  0  0  0  0  0  0  0  0  0  0
   38.7020   25.2080   33.0840 C   0  0  0  0  0  0  0  0  0  0  0  0
   38.4340   24.8780   32.0380 H   0  0  0  0  0  0  0  0  0  0  0  0
   39.6430   24.6530   33.2990 H   0  0  0  0  0  0  0  0  0  0  0  0
   37.7610   24.7700   33.9790 O   0  0  0  0  0  0  0  0  0  0  0  0
   39.9870   24.1860   35.2450 O   0  0  0  0  0  0  0  0  0  0  0  0
   38.4890   24.1560   35.3450 P   0  0  2  0  0  0  0  0  0  0  0  0
   37.9560   22.5190   35.5020 O   0  0  0  0  0  0  0  0  0  0  0  0
   37.7760   21.8170   34.3140 C   0  0  0  0  0  0  0  0  0  0  0  0
   38.7030   21.5130   33.3800 N   0  0  0  0  0  0  0  0  0  0  0  0
   38.1400   20.8270   32.3800 C   0  0  0  0  0  0  0  0  0  0  0  0
   38.4890   20.3910   31.4520 H   0  0  0  0  0  0  0  0  0  0  0  0
   36.8270   20.6870   32.6790 N   0  0  0  0  0  0  0  0  0  0  0  0
   35.9710   20.2610   32.2710 H   0  0  0  0  0  0  0  0  0  0  0  0
   36.6170   21.2850   33.8420 N   0  0  0  0  0  0  0  0  0  0  0  0
   38.0180   24.9250   36.7400 O   0  0  0  0  0  0  0  0  0  0  0  0
   38.1200   24.0750   37.8250 C   0  0  0  0  0  0  0  0  0  0  0  0
   37.9760   24.7410   39.0420 F   0  0  0  0  0  0  0  0  0  0  0  0
   37.1300   23.1100   37.8060 F   0  0  0  0  0  0  0  0  0  0  0  0
   39.3660   23.4590   37.8250 F   0  0  0  0  0  0  0  0  0  0  0  0
  1  2  1  0  0  0  0
  3  1  1  0  0  0  0
  5  4  1  0  0  0  0
  6  5  1  0  0  0  0
  6 18  1  0  0  0  0
  7  6  2  0  0  0  0
  8  9  2  0  0  0  0
  8  7  1  0  0  0  0
  9 10  1  0  0  0  0
 10  1  1  0  0  0  0
 10  5  2  0  0  0  0
 11  7  1  0  0  0  0
 12  8  1  0  0  0  0
 13  9  1  0  0  0  0
 14 20  1  0  0  0  0
 14 15  1  0  0  0  0
 15 21  1  0  0  0  0
 16 15  2  0  0  0  0
 16 22  1  0  0  0  0
 17 16  1  0  0  0  0
 18 19  1  0  0  0  0
 18 17  2  0  0  0  0
 19 14  2  0  0  0  0
 22 23  1  0  0  0  0
 24 22  1  0  0  0  0
 25  1  1  0  0  0  0
 25 27  1  0  0  0  0
 25 28  1  0  0  0  0
 26 25  1  0  0  0  0
 28 30  1  0  0  0  0
 30 29  2  6  0  0  0
 30 31  1  0  0  0  0
 30 39  1  0  0  0  0
 32 31  1  0  0  0  0
 33 32  1  0  0  0  0
 34 36  1  0  0  0  0
 34 33  2  0  0  0  0
 35 34  1  0  0  0  0
 36 38  1  0  0  0  0
 37 36  1  0  0  0  0
 38 32  2  0  0  0  0
 39 40  1  0  0  0  0
 40 43  1  0  0  0  0
 40 41  1  0  0  0  0
 42 40  1  0  0  0  0
M  END
>  <minimizedAffinity>
-5.83437824

$$$$

 OpenBabel03272504433D

 43 45  0  0  0  0  0  0  0  0999 V2000
   37.0760   28.0930   33.5360 C   0  0  0  0  0  0  0  0  0  0  0  0
   36.9520   28.4440   32.4680 H   0  0  0  0  0  0  0  0  0  0  0  0
   38.0040   28.6040   33.8650 H   0  0  0  0  0  0  0  0  0  0  0  0
   38.7640   26.9930   35.7290 Cl  0  0  0  0  0  0  0  0  0  0  0  0
   38.0750   26.0130   34.4240 C   0  0  0  0  0  0  0  0  0  0  0  0
   38.3140   24.6850   34.4020 C   0  0  0  0  0  0  0  0  0  0  0  0
   37.7840   23.9110   33.3950 C   0  0  0  0  0  0  0  0  0  0  0  0
   37.0090   24.5280   32.4210 C   0  0  0  0  0  0  0  0  0  0  0  0
   36.8020   25.9140   32.5080 C   0  0  0  0  0  0  0  0  0  0  0  0
   37.3170   26.6800   33.4910 C   0  0  0  0  0  0  0  0  0  0  0  0
   37.9930   22.8350   33.4000 H   0  0  0  0  0  0  0  0  0  0  0  0
   36.6420   23.8370   31.6810 H   0  0  0  0  0  0  0  0  0  0  0  0
   36.1980   26.1630   31.6730 H   0  0  0  0  0  0  0  0  0  0  0  0
   41.1960   23.2040   36.1640 C   0  0  0  0  0  0  0  0  0  0  0  0
   40.5910   22.8230   37.3980 C   0  0  0  0  0  0  0  0  0  0  0  0
   39.2200   23.0930   37.5740 C   0  0  0  0  0  0  0  0  0  0  0  0
   38.5270   23.6990   36.5730 N   0  0  0  0  0  0  0  0  0  0  0  0
   39.1360   24.0450   35.4160 C   0  0  0  0  0  0  0  0  0  0  0  0
   40.4440   23.7960   35.2310 N   0  0  0  0  0  0  0  0  0  0  0  0
   42.2500   22.9780   36.0730 H   0  0  0  0  0  0  0  0  0  0  0  0
   41.1250   22.3490   38.1850 H   0  0  0  0  0  0  0  0  0  0  0  0
   38.6310   22.7100   38.7960 N   0  0  0  0  0  0  0  0  0  0  0  0
   39.1960   22.5590   39.6350 H   0  0  0  0  0  0  0  0  0  0  0  0
   37.5760   22.5850   38.8140 H   0  0  0  0  0  0  0  0  0  0  0  0
   35.9650   28.6230   34.3360 C   0  0  0  0  0  0  0  0  0  0  0  0
   35.2530   27.7910   34.6090 H   0  0  0  0  0  0  0  0  0  0  0  0
   36.2800   29.0320   35.3240 H   0  0  0  0  0  0  0  0  0  0  0  0
   35.3010   29.6250   33.6770 O   0  0  0  0  0  0  0  0  0  0  0  0
   36.0030   30.8450   35.8950 O   0  0  0  0  0  0  0  0  0  0  0  0
   35.3220   31.0310   34.5690 P   0  0  2  0  0  0  0  0  0  0  0  0
   33.6750   31.4830   34.8280 O   0  0  0  0  0  0  0  0  0  0  0  0
   32.9810   30.7480   35.7840 C   0  0  0  0  0  0  0  0  0  0  0  0
   32.3940   29.5400   35.6380 N   0  0  0  0  0  0  0  0  0  0  0  0
   31.8250   29.1640   36.7880 C   0  0  0  0  0  0  0  0  0  0  0  0
   31.2630   28.3010   37.1250 H   0  0  0  0  0  0  0  0  0  0  0  0
   32.0520   30.1490   37.6890 N   0  0  0  0  0  0  0  0  0  0  0  0
   31.8440   30.3640   38.6840 H   0  0  0  0  0  0  0  0  0  0  0  0
   32.7470   31.0970   37.0770 N   0  0  0  0  0  0  0  0  0  0  0  0
   36.0250   32.3050   33.7680 O   0  0  0  0  0  0  0  0  0  0  0  0
   36.2490   33.3620   34.6300 C   0  0  0  0  0  0  0  0  0  0  0  0
   37.3140   33.1260   35.5000 F   0  0  0  0  0  0  0  0  0  0  0  0
   36.5750   34.5150   33.9410 F   0  0  0  0  0  0  0  0  0  0  0  0
   35.1150   33.5880   35.4000 F   0  0  0  0  0  0  0  0  0  0  0  0
  1  3  1  0  0  0  0
  1 25  1  0  0  0  0
  2  1  1  0  0  0  0
  5  4  1  0  0  0  0
  6  5  1  0  0  0  0
  6 18  1  0  0  0  0
  7 11  1  0  0  0  0
  7  6  2  0  0  0  0
  8  9  2  0  0  0  0
  8  7  1  0  0  0  0
  9 10  1  0  0  0  0
 10  1  1  0  0  0  0
 10  5  2  0  0  0  0
 12  8  1  0  0  0  0
 13  9  1  0  0  0  0
 14 15  1  0  0  0  0
 15 16  2  0  0  0  0
 15 21  1  0  0  0  0
 16 22  1  0  0  0  0
 17 16  1  0  0  0  0
 18 17  2  0  0  0  0
 19 18  1  0  0  0  0
 19 14  2  0  0  0  0
 20 14  1  0  0  0  0
 22 24  1  0  0  0  0
 22 23  1  0  0  0  0
 25 26  1  0  0  0  0
 25 27  1  0  0  0  0
 28 25  1  0  0  0  0
 28 30  1  0  0  0  0
 30 31  1  0  0  0  0
 30 29  2  1  0  0  0
 31 32  1  0  0  0  0
 32 38  2  0  0  0  0
 33 32  1  0  0  0  0
 33 34  2  0  0  0  0
 34 35  1  0  0  0  0
 34 36  1  0  0  0  0
 36 37  1  0  0  0  0
 38 36  1  0  0  0  0
 39 30  1  0  0  0  0
 39 40  1  0  0  0  0
 40 43  1  0  0  0  0
 40 41  1  0  0  0  0
 42 40  1  0  0  0  0
M  END
>  <minimizedAffinity>
-5.80536127

$$$$

 OpenBabel03272504433D

 43 45  0  0  0  0  0  0  0  0999 V2000
   38.8780   23.5930   31.0390 C   0  0  0  0  0  0  0  0  0  0  0  0
   39.6420   24.2540   30.5290 H   0  0  0  0  0  0  0  0  0  0  0  0
   38.7960   22.7250   30.3540 H   0  0  0  0  0  0  0  0  0  0  0  0
   39.0820   26.5640   31.0720 Cl  0  0  0  0  0  0  0  0  0  0  0  0
   37.5480   25.6770   31.0500 C   0  0  0  0  0  0  0  0  0  0  0  0
   36.3890   26.3680   31.0460 C   0  0  0  0  0  0  0  0  0  0  0  0
   35.1900   25.6920   31.0280 C   0  0  0  0  0  0  0  0  0  0  0  0
   35.2110   24.3030   31.0130 C   0  0  0  0  0  0  0  0  0  0  0  0
   36.4540   23.6510   31.0180 C   0  0  0  0  0  0  0  0  0  0  0  0
   37.6330   24.3050   31.0360 C   0  0  0  0  0  0  0  0  0  0  0  0
   34.2630   26.2760   31.0250 H   0  0  0  0  0  0  0  0  0  0  0  0
   34.2240   23.8710   30.9990 H   0  0  0  0  0  0  0  0  0  0  0  0
   36.2310   22.6150   31.0100 H   0  0  0  0  0  0  0  0  0  0  0  0
   36.6950   29.9030   30.0400 C   0  0  0  0  0  0  0  0  0  0  0  0
   36.3090   30.5610   31.2450 C   0  0  0  0  0  0  0  0  0  0  0  0
   35.9580   29.7630   32.3520 C   0  0  0  0  0  0  0  0  0  0  0  0
   35.9990   28.4080   32.2360 N   0  0  0  0  0  0  0  0  0  0  0  0
   36.3710   27.8210   31.0750 C   0  0  0  0  0  0  0  0  0  0  0  0
   36.7090   28.5670   30.0080 N   0  0  0  0  0  0  0  0  0  0  0  0
   36.9550   30.5550   29.2180 H   0  0  0  0  0  0  0  0  0  0  0  0
   36.2730   31.6180   31.3440 H   0  0  0  0  0  0  0  0  0  0  0  0
   35.5800   30.4230   33.5380 N   0  0  0  0  0  0  0  0  0  0  0  0
   35.2490   31.3900   33.5270 H   0  0  0  0  0  0  0  0  0  0  0  0
   35.6520   29.8750   34.4470 H   0  0  0  0  0  0  0  0  0  0  0  0
   39.4460   23.1120   32.3050 C   0  0  0  0  0  0  0  0  0  0  0  0
   38.6170   22.8350   33.0200 H   0  0  0  0  0  0  0  0  0  0  0  0
   40.0310   22.1690   32.2050 H   0  0  0  0  0  0  0  0  0  0  0  0
   40.2750   24.0440   32.8730 O   0  0  0  0  0  0  0  0  0  0  0  0
   40.8140   25.0860   35.2240 O   0  0  0  0  0  0  0  0  0  0  0  0
   39.7270   24.4760   34.3850 P   0  0  2  0  0  0  0  0  0  0  0  0
   39.1600   23.0300   35.1420 O   0  0  0  0  0  0  0  0  0  0  0  0
   38.9380   23.1040   36.5140 C   0  0  0  0  0  0  0  0  0  0  0  0
   37.8600   23.6070   37.1540 N   0  0  0  0  0  0  0  0  0  0  0  0
   38.0190   23.4990   38.4770 C   0  0  0  0  0  0  0  0  0  0  0  0
   37.4310   23.7600   39.3490 H   0  0  0  0  0  0  0  0  0  0  0  0
   39.2220   22.9140   38.6890 N   0  0  0  0  0  0  0  0  0  0  0  0
   39.8150   22.6090   39.4860 H   0  0  0  0  0  0  0  0  0  0  0  0
   39.7670   22.6810   37.5050 N   0  0  0  0  0  0  0  0  0  0  0  0
   38.4270   25.5080   34.3400 O   0  0  0  0  0  0  0  0  0  0  0  0
   38.7840   26.7660   34.7880 C   0  0  0  0  0  0  0  0  0  0  0  0
   39.9870   27.2080   34.2370 F   0  0  0  0  0  0  0  0  0  0  0  0
   37.8400   27.7130   34.4390 F   0  0  0  0  0  0  0  0  0  0  0  0
   38.9320   26.7480   36.1690 F   0  0  0  0  0  0  0  0  0  0  0  0
  1 25  1  0  0  0  0
  2  1  1  0  0  0  0
  3  1  1  0  0  0  0
  5  4  1  0  0  0  0
  6  5  1  0  0  0  0
  6 18  1  0  0  0  0
  7  6  2  0  0  0  0
  8  9  2  0  0  0  0
  8  7  1  0  0  0  0
  9 10  1  0  0  0  0
 10  1  1  0  0  0  0
 10  5  2  0  0  0  0
 11  7  1  0  0  0  0
 12  8  1  0  0  0  0
 13  9  1  0  0  0  0
 14 15  1  0  0  0  0
 15 21  1  0  0  0  0
 15 16  2  0  0  0  0
 16 22  1  0  0  0  0
 17 16  1  0  0  0  0
 18 17  2  0  0  0  0
 19 14  2  0  0  0  0
 19 18  1  0  0  0  0
 20 14  1  0  0  0  0
 22 24  1  0  0  0  0
 23 22  1  0  0  0  0
 25 28  1  0  0  0  0
 25 26  1  0  0  0  0
 27 25  1  0  0  0  0
 28 30  1  0  0  0  0
 30 31  1  0  0  0  0
 30 29  2  1  0  0  0
 31 32  1  0  0  0  0
 32 33  1  0  0  0  0
 32 38  2  0  0  0  0
 33 34  2  0  0  0  0
 34 36  1  0  0  0  0
 34 35  1  0  0  0  0
 36 37  1  0  0  0  0
 38 36  1  0  0  0  0
 39 30  1  0  0  0  0
 39 40  1  0  0  0  0
 40 43  1  0  0  0  0
 41 40  1  0  0  0  0
 42 40  1  0  0  0  0
M  END
>  <minimizedAffinity>
-5.7517848

$$$$

 OpenBabel03272504433D

 43 45  0  0  0  0  0  0  0  0999 V2000
   37.6080   27.5350   32.7000 C   0  0  0  0  0  0  0  0  0  0  0  0
   38.6490   27.8760   32.4160 H   0  0  0  0  0  0  0  0  0  0  0  0
   37.3810   28.1380   33.6040 H   0  0  0  0  0  0  0  0  0  0  0  0
   38.1680   27.0120   35.5780 Cl  0  0  0  0  0  0  0  0  0  0  0  0
   37.9580   25.7390   34.3620 C   0  0  0  0  0  0  0  0  0  0  0  0
   38.0520   24.4470   34.7410 C   0  0  0  0  0  0  0  0  0  0  0  0
   37.8900   23.4490   33.8080 C   0  0  0  0  0  0  0  0  0  0  0  0
   37.6310   23.8060   32.4900 C   0  0  0  0  0  0  0  0  0  0  0  0
   37.5470   25.1700   32.1700 C   0  0  0  0  0  0  0  0  0  0  0  0
   37.7040   26.1550   33.0770 C   0  0  0  0  0  0  0  0  0  0  0  0
   37.9710   22.4070   34.1390 H   0  0  0  0  0  0  0  0  0  0  0  0
   37.5200   22.9530   31.8410 H   0  0  0  0  0  0  0  0  0  0  0  0
   37.3520   25.2050   31.1290 H   0  0  0  0  0  0  0  0  0  0  0  0
   37.9360   24.2670   38.4230 C   0  0  0  0  0  0  0  0  0  0  0  0
   38.9620   23.3100   38.6780 C   0  0  0  0  0  0  0  0  0  0  0  0
   39.6490   22.7650   37.5760 C   0  0  0  0  0  0  0  0  0  0  0  0
   39.3160   23.1660   36.3200 N   0  0  0  0  0  0  0  0  0  0  0  0
   38.3360   24.0770   36.1170 C   0  0  0  0  0  0  0  0  0  0  0  0
   37.6700   24.6070   37.1580 N   0  0  0  0  0  0  0  0  0  0  0  0
   37.4360   24.6580   39.2980 H   0  0  0  0  0  0  0  0  0  0  0  0
   39.2290   22.9910   39.6560 H   0  0  0  0  0  0  0  0  0  0  0  0
   40.6630   21.8220   37.8390 N   0  0  0  0  0  0  0  0  0  0  0  0
   40.6900   21.3020   38.7190 H   0  0  0  0  0  0  0  0  0  0  0  0
   41.3990   21.6720   37.0880 H   0  0  0  0  0  0  0  0  0  0  0  0
   36.6750   27.9450   31.6430 C   0  0  0  0  0  0  0  0  0  0  0  0
   37.0420   28.8910   31.1480 H   0  0  0  0  0  0  0  0  0  0  0  0
   36.6050   27.2190   30.8010 H   0  0  0  0  0  0  0  0  0  0  0  0
   35.4060   28.1220   32.1300 O   0  0  0  0  0  0  0  0  0  0  0  0
   33.5540   29.9710   32.3590 O   0  0  0  0  0  0  0  0  0  0  0  0
   35.0320   29.7420   32.2210 P   0  0  2  0  0  0  0  0  0  0  0  0
   35.5910   30.4670   30.7560 O   0  0  0  0  0  0  0  0  0  0  0  0
   36.0150   31.7890   30.8490 C   0  0  0  0  0  0  0  0  0  0  0  0
   35.2560   32.8940   31.0170 N   0  0  0  0  0  0  0  0  0  0  0  0
   36.0320   33.9820   31.0580 C   0  0  0  0  0  0  0  0  0  0  0  0
   35.8630   35.0460   31.1750 H   0  0  0  0  0  0  0  0  0  0  0  0
   37.3120   33.5670   30.9160 N   0  0  0  0  0  0  0  0  0  0  0  0
   38.2690   33.9730   30.8780 H   0  0  0  0  0  0  0  0  0  0  0  0
   37.2930   32.2480   30.7900 N   0  0  0  0  0  0  0  0  0  0  0  0
   35.8240   30.5290   33.4510 O   0  0  0  0  0  0  0  0  0  0  0  0
   35.4160   30.0500   34.6820 C   0  0  0  0  0  0  0  0  0  0  0  0
   34.2340   30.6440   35.1220 F   0  0  0  0  0  0  0  0  0  0  0  0
   35.1590   28.6930   34.6350 F   0  0  0  0  0  0  0  0  0  0  0  0
   36.3970   30.3030   35.6330 F   0  0  0  0  0  0  0  0  0  0  0  0
  1 10  1  0  0  0  0
  1  3  1  0  0  0  0
  2  1  1  0  0  0  0
  5  6  1  0  0  0  0
  5  4  1  0  0  0  0
  6 18  1  0  0  0  0
  7 11  1  0  0  0  0
  7  6  2  0  0  0  0
  8  7  1  0  0  0  0
  9  8  2  0  0  0  0
  9 10  1  0  0  0  0
 10  5  2  0  0  0  0
 12  8  1  0  0  0  0
 13  9  1  0  0  0  0
 14 15  1  0  0  0  0
 14 20  1  0  0  0  0
 15 21  1  0  0  0  0
 16 22  1  0  0  0  0
 16 15  2  0  0  0  0
 17 16  1  0  0  0  0
 18 17  2  0  0  0  0
 18 19  1  0  0  0  0
 19 14  2  0  0  0  0
 22 23  1  0  0  0  0
 24 22  1  0  0  0  0
 25 28  1  0  0  0  0
 25  1  1  0  0  0  0
 26 25  1  0  0  0  0
 27 25  1  0  0  0  0
 28 30  1  0  0  0  0
 30 29  2  1  0  0  0
 30 39  1  0  0  0  0
 31 32  1  0  0  0  0
 31 30  1  0  0  0  0
 32 33  1  0  0  0  0
 33 34  2  0  0  0  0
 34 35  1  0  0  0  0
 36 34  1  0  0  0  0
 37 36  1  0  0  0  0
 38 32  2  0  0  0  0
 38 36  1  0  0  0  0
 39 40  1  0  0  0  0
 40 41  1  0  0  0  0
 40 43  1  0  0  0  0
 42 40  1  0  0  0  0
M  END
>  <minimizedAffinity>
-5.60299873

$$$$

 OpenBabel03272504433D

 43 45  0  0  0  0  0  0  0  0999 V2000
   37.1110   27.9250   33.4050 C   0  0  0  0  0  0  0  0  0  0  0  0
   37.1200   28.2650   32.3270 H   0  0  0  0  0  0  0  0  0  0  0  0
   37.9920   28.4390   33.8410 H   0  0  0  0  0  0  0  0  0  0  0  0
   38.8000   26.8960   35.6320 Cl  0  0  0  0  0  0  0  0  0  0  0  0
   38.1130   25.8740   34.3570 C   0  0  0  0  0  0  0  0  0  0  0  0
   38.3550   24.5470   34.3770 C   0  0  0  0  0  0  0  0  0  0  0  0
   37.8270   23.7420   33.3940 C   0  0  0  0  0  0  0  0  0  0  0  0
   37.0500   24.3270   32.4010 C   0  0  0  0  0  0  0  0  0  0  0  0
   36.8420   25.7140   32.4450 C   0  0  0  0  0  0  0  0  0  0  0  0
   37.3550   26.5110   33.4040 C   0  0  0  0  0  0  0  0  0  0  0  0
   38.0370   22.6670   33.4320 H   0  0  0  0  0  0  0  0  0  0  0  0
   36.6850   23.6120   31.6820 H   0  0  0  0  0  0  0  0  0  0  0  0
   36.2370   25.9360   31.6030 H   0  0  0  0  0  0  0  0  0  0  0  0
   41.2380   23.1240   36.1840 C   0  0  0  0  0  0  0  0  0  0  0  0
   40.6340   22.7830   37.4290 C   0  0  0  0  0  0  0  0  0  0  0  0
   39.2620   23.0570   37.5980 C   0  0  0  0  0  0  0  0  0  0  0  0
   38.5680   23.6310   36.5780 N   0  0  0  0  0  0  0  0  0  0  0  0
   39.1780   23.9400   35.4100 C   0  0  0  0  0  0  0  0  0  0  0  0
   40.4860   23.6860   35.2330 N   0  0  0  0  0  0  0  0  0  0  0  0
   42.2920   22.8960   36.1010 H   0  0  0  0  0  0  0  0  0  0  0  0
   41.1680   22.3340   38.2320 H   0  0  0  0  0  0  0  0  0  0  0  0
   38.6740   22.7130   38.8310 N   0  0  0  0  0  0  0  0  0  0  0  0
   39.2390   22.5880   39.6740 H   0  0  0  0  0  0  0  0  0  0  0  0
   37.6190   22.5880   38.8530 H   0  0  0  0  0  0  0  0  0  0  0  0
   35.9110   28.4620   34.0580 C   0  0  0  0  0  0  0  0  0  0  0  0
   35.0900   28.6110   33.2970 H   0  0  0  0  0  0  0  0  0  0  0  0
   35.4560   27.7680   34.8010 H   0  0  0  0  0  0  0  0  0  0  0  0
   36.1750   29.6380   34.7120 O   0  0  0  0  0  0  0  0  0  0  0  0
   34.8190   31.4120   36.0950 O   0  0  0  0  0  0  0  0  0  0  0  0
   34.7910   30.5490   34.8650 P   0  0  2  0  0  0  0  0  0  0  0  0
   33.4710   29.4400   34.9720 O   0  0  0  0  0  0  0  0  0  0  0  0
   32.3540   29.7390   34.1980 C   0  0  0  0  0  0  0  0  0  0  0  0
   31.3390   30.5780   34.4950 N   0  0  0  0  0  0  0  0  0  0  0  0
   30.4510   30.5990   33.4950 C   0  0  0  0  0  0  0  0  0  0  0  0
   29.5150   31.1100   33.3040 H   0  0  0  0  0  0  0  0  0  0  0  0
   30.9070   29.7570   32.5380 N   0  0  0  0  0  0  0  0  0  0  0  0
   30.6260   29.4120   31.5980 H   0  0  0  0  0  0  0  0  0  0  0  0
   32.0510   29.2450   32.9680 N   0  0  0  0  0  0  0  0  0  0  0  0
   34.4820   31.5000   33.5390 O   0  0  0  0  0  0  0  0  0  0  0  0
   35.6460   32.0790   33.0700 C   0  0  0  0  0  0  0  0  0  0  0  0
   36.3900   31.2120   32.2690 F   0  0  0  0  0  0  0  0  0  0  0  0
   35.3790   33.1820   32.2810 F   0  0  0  0  0  0  0  0  0  0  0  0
   36.4460   32.4590   34.1400 F   0  0  0  0  0  0  0  0  0  0  0  0
  1  3  1  0  0  0  0
  1 25  1  0  0  0  0
  2  1  1  0  0  0  0
  5  6  1  0  0  0  0
  5  4  1  0  0  0  0
  6 18  1  0  0  0  0
  7 11  1  0  0  0  0
  7  6  2  0  0  0  0
  8  9  2  0  0  0  0
  8  7  1  0  0  0  0
  9 10  1  0  0  0  0
 10  1  1  0  0  0  0
 10  5  2  0  0  0  0
 12  8  1  0  0  0  0
 13  9  1  0  0  0  0
 14 15  1  0  0  0  0
 15 16  2  0  0  0  0
 15 21  1  0  0  0  0
 16 22  1  0  0  0  0
 17 16  1  0  0  0  0
 18 17  2  0  0  0  0
 19 18  1  0  0  0  0
 19 14  2  0  0  0  0
 20 14  1  0  0  0  0
 22 24  1  0  0  0  0
 22 23  1  0  0  0  0
 25 28  1  0  0  0  0
 25 27  1  0  0  0  0
 26 25  1  0  0  0  0
 28 30  1  0  0  0  0
 30 31  1  0  0  0  0
 30 29  2  1  0  0  0
 32 33  1  0  0  0  0
 32 31  1  0  0  0  0
 34 33  2  0  0  0  0
 35 34  1  0  0  0  0
 36 38  1  0  0  0  0
 36 34  1  0  0  0  0
 37 36  1  0  0  0  0
 38 32  2  0  0  0  0
 39 30  1  0  0  0  0
 40 39  1  0  0  0  0
 40 43  1  0  0  0  0
 41 40  1  0  0  0  0
 42 40  1  0  0  0  0
M  END
>  <minimizedAffinity>
-5.57312107

$$$$
