
 OpenBabel03272509433D

 36 38  0  0  1  0  0  0  0  0999 V2000
   37.0340   30.9340   49.0050 C   0  0  0  0  0  0  0  0  0  0  0  0
   36.7450   31.7930   50.0690 C   0  0  0  0  0  0  0  0  0  0  0  0
   37.3360   33.0450   50.1730 C   0  0  0  0  0  0  0  0  0  0  0  0
   38.2410   33.4620   49.1940 C   0  0  0  0  0  0  0  0  0  0  0  0
   38.5120   32.6090   48.1640 C   0  0  0  0  0  0  0  0  0  0  0  0
   37.9060   31.3660   48.0870 C   0  0  0  0  0  0  0  0  0  0  0  0
   36.0390   31.4500   50.8150 H   0  0  0  0  0  0  0  0  0  0  0  0
   37.0450   33.6220   51.0290 H   0  0  0  0  0  0  0  0  0  0  0  0
   38.6480   34.4430   49.3560 H   0  0  0  0  0  0  0  0  0  0  0  0
   39.2330   33.0720   47.4860 H   0  0  0  0  0  0  0  0  0  0  0  0
   36.4490   29.6130   48.9160 C   0  0  2  0  0  0  0  0  0  0  0  0
   36.9670   29.1120   48.0100 H   0  0  0  0  0  0  0  0  0  0  0  0
   33.5730   30.1410   46.7570 C   0  0  0  0  0  0  0  0  0  0  0  0
   32.8750   28.9470   46.8350 C   0  0  0  0  0  0  0  0  0  0  0  0
   33.3540   27.9660   47.6810 C   0  0  0  0  0  0  0  0  0  0  0  0
   34.4970   28.2040   48.4120 N   0  0  0  0  0  0  0  0  0  0  0  0
   35.1190   29.3590   48.2940 C   0  0  0  0  0  0  0  0  0  0  0  0
   34.6660   30.3230   47.4780 N   0  0  0  0  0  0  0  0  0  0  0  0
   33.1670   30.8840   46.0840 H   0  0  0  0  0  0  0  0  0  0  0  0
   31.9770   28.6810   46.2990 H   0  0  0  0  0  0  0  0  0  0  0  0
   32.9440   26.9730   47.8740 H   0  0  0  0  0  0  0  0  0  0  0  0
   36.9020   28.8090   49.8130 O   0  0  0  0  0  0  0  0  0  0  0  0
   36.6940   28.8710   50.7660 H   0  0  0  0  0  0  0  0  0  0  0  0
   38.3040   30.5550   46.9610 C   0  0  0  0  0  0  0  0  0  0  0  0
   39.1340   30.9760   45.9990 C   0  0  0  0  0  0  0  0  0  0  0  0
   39.6370   30.2200   44.8270 C   0  0  0  0  0  0  0  0  0  0  0  0
   40.6510   29.8260   44.9500 H   0  0  0  0  0  0  0  0  0  0  0  0
   38.9060   29.3780   44.6590 H   0  0  0  0  0  0  0  0  0  0  0  0
   39.5850   31.2700   43.3680 S   0  0  0  0  0  0  0  0  0  0  0  0
   38.0100   32.1030   43.2100 C   0  0  0  0  0  0  0  0  0  0  0  0
   37.8630   32.6750   42.0020 N   0  0  0  0  0  0  0  0  0  0  0  0
   36.6740   33.2900   41.9180 C   0  0  0  0  0  0  0  0  0  0  0  0
   36.1110   33.8660   41.1940 H   0  0  0  0  0  0  0  0  0  0  0  0
   36.0830   33.0880   43.1020 N   0  0  0  0  0  0  0  0  0  0  0  0
   35.1570   33.3810   43.4900 H   0  0  0  0  0  0  0  0  0  0  0  0
   36.8580   32.3860   43.8840 N   0  0  0  0  0  0  0  0  0  0  0  0
  1  2  1  0  0  0  0
  2  3  2  0  0  0  0
  2  7  1  0  0  0  0
  3  8  1  0  0  0  0
  4  9  1  0  0  0  0
  4  3  1  0  0  0  0
  5  4  2  0  0  0  0
  6  5  1  0  0  0  0
  6  1  2  0  0  0  0
 10  5  1  0  0  0  0
 11 12  1  6  0  0  0
 11  1  1  0  0  0  0
 11 22  1  0  0  0  0
 13 14  2  0  0  0  0
 13 18  1  0  0  0  0
 14 15  1  0  0  0  0
 15 21  1  0  0  0  0
 15 16  2  0  0  0  0
 17 16  1  0  0  0  0
 17 11  1  0  0  0  0
 18 17  2  0  0  0  0
 19 13  1  0  0  0  0
 20 14  1  0  0  0  0
 22 23  1  0  0  0  0
 24  6  1  0  0  0  0
 25 24  2  0  0  0  0
 26 27  1  0  0  0  0
 26 25  1  0  0  0  0
 28 26  1  0  0  0  0
 29 26  1  0  0  0  0
 30 29  1  0  0  0  0
 30 36  2  0  0  0  0
 31 30  1  0  0  0  0
 32 31  2  0  0  0  0
 32 34  1  0  0  0  0
 33 32  1  0  0  0  0
 34 35  1  0  0  0  0
 34 36  1  0  0  0  0
M  END
>  <minimizedAffinity>
-5.84060478

>  <minimizedRMSD>
0.608136892

$$$$
