
 OpenBabel03272505093D

 27 29  0  0  0  0  0  0  0  0999 V2000
   36.3880   30.8330   45.7570 Cl  0  0  0  0  0  0  0  0  0  0  0  0
   36.7080   30.7720   47.4730 C   0  0  0  0  0  0  0  0  0  0  0  0
   37.9590   31.1340   47.8740 C   0  0  0  0  0  0  0  0  0  0  0  0
   38.2340   31.0920   49.2420 C   0  0  0  0  0  0  0  0  0  0  0  0
   37.2550   30.6940   50.1260 C   0  0  0  0  0  0  0  0  0  0  0  0
   36.0200   30.3450   49.6490 C   0  0  0  0  0  0  0  0  0  0  0  0
   35.6940   30.3660   48.3280 C   0  0  0  0  0  0  0  0  0  0  0  0
   39.2160   31.3730   49.5860 H   0  0  0  0  0  0  0  0  0  0  0  0
   37.5010   30.6740   51.1780 H   0  0  0  0  0  0  0  0  0  0  0  0
   35.2580   30.0340   50.3540 H   0  0  0  0  0  0  0  0  0  0  0  0
   40.2070   33.3030   45.9790 C   0  0  0  0  0  0  0  0  0  0  0  0
   40.8990   32.4120   45.1240 C   0  0  0  0  0  0  0  0  0  0  0  0
   40.5680   31.0570   45.2200 C   0  0  0  0  0  0  0  0  0  0  0  0
   39.6160   30.6690   46.1160 N   0  0  0  0  0  0  0  0  0  0  0  0
   38.9880   31.5560   46.9060 C   0  0  0  0  0  0  0  0  0  0  0  0
   39.2910   32.8450   46.8250 N   0  0  0  0  0  0  0  0  0  0  0  0
   40.4260   34.3500   45.9400 H   0  0  0  0  0  0  0  0  0  0  0  0
   41.6480   32.7820   44.4300 H   0  0  0  0  0  0  0  0  0  0  0  0
   41.0750   30.3420   44.5820 H   0  0  0  0  0  0  0  0  0  0  0  0
   34.0950   29.9190   47.6590 S   0  0  0  0  0  0  0  0  0  0  0  0
   33.9780   28.1490   47.4520 C   0  0  0  0  0  0  0  0  0  0  0  0
   33.8620   27.7190   46.1830 N   0  0  0  0  0  0  0  0  0  0  0  0
   33.7810   26.3820   46.1310 C   0  0  0  0  0  0  0  0  0  0  0  0
   33.6810   25.7180   45.2810 H   0  0  0  0  0  0  0  0  0  0  0  0
   33.8480   25.9720   47.4090 N   0  0  0  0  0  0  0  0  0  0  0  0
   33.8230   25.0160   47.8380 H   0  0  0  0  0  0  0  0  0  0  0  0
   33.9680   27.0280   48.2310 N   0  0  0  0  0  0  0  0  0  0  0  0
  1  2  1  0  0  0  0
  2  3  2  0  0  0  0
  2  7  1  0  0  0  0
  3  4  1  0  0  0  0
  4  8  1  0  0  0  0
  4  5  2  0  0  0  0
  5  9  1  0  0  0  0
  6  5  1  0  0  0  0
  6 10  1  0  0  0  0
  7  6  2  0  0  0  0
 11 16  1  0  0  0  0
 12 13  1  0  0  0  0
 12 11  2  0  0  0  0
 13 14  2  0  0  0  0
 14 15  1  0  0  0  0
 15  3  1  0  0  0  0
 16 15  2  0  0  0  0
 17 11  1  0  0  0  0
 18 12  1  0  0  0  0
 19 13  1  0  0  0  0
 20  7  1  0  0  0  0
 21 20  1  0  0  0  0
 21 27  2  0  0  0  0
 22 21  1  0  0  0  0
 23 22  2  0  0  0  0
 23 25  1  0  0  0  0
 24 23  1  0  0  0  0
 25 26  1  0  0  0  0
 25 27  1  0  0  0  0
M  END
>  <minimizedAffinity>
-5.30132055

>  <minimizedRMSD>
0.924111009

$$$$
