
 OpenBabel03272507373D

 21 22  0  0  0  0  0  0  0  0999 V2000
   37.5650   30.3340   49.4230 C   0  0  0  0  0  0  0  0  0  0  0  0
   36.4240   29.6120   49.0820 C   0  0  0  0  0  0  0  0  0  0  0  0
   35.6320   29.0820   50.0740 C   0  0  0  0  0  0  0  0  0  0  0  0
   36.0060   29.2900   51.3720 N   0  0  0  0  0  0  0  0  0  0  0  0
   37.1120   29.9890   51.6920 C   0  0  0  0  0  0  0  0  0  0  0  0
   37.8850   30.5070   50.7300 N   0  0  0  0  0  0  0  0  0  0  0  0
   34.7270   28.5090   49.8600 H   0  0  0  0  0  0  0  0  0  0  0  0
   37.4230   30.1640   52.7110 H   0  0  0  0  0  0  0  0  0  0  0  0
   34.7890   29.9510   47.3080 C   0  0  0  0  0  0  0  0  0  0  0  0
   33.9000   30.7260   47.7940 O   0  0  0  0  0  0  0  0  0  0  0  0
   35.9980   29.3720   47.7700 N   0  0  0  0  0  0  0  0  0  0  0  0
   34.3810   29.7850   46.2970 H   0  0  0  0  0  0  0  0  0  0  0  0
   36.4720   28.7890   47.0310 H   0  0  0  0  0  0  0  0  0  0  0  0
   38.2470   30.7960   48.3260 O   0  0  0  0  0  0  0  0  0  0  0  0
   38.7330   32.0970   48.3500 C   0  0  0  0  0  0  0  0  0  0  0  0
   38.7020   32.8780   49.4690 N   0  0  0  0  0  0  0  0  0  0  0  0
   39.2530   34.0670   49.1260 C   0  0  0  0  0  0  0  0  0  0  0  0
   39.4400   34.9900   49.6850 H   0  0  0  0  0  0  0  0  0  0  0  0
   39.6060   33.9870   47.8240 N   0  0  0  0  0  0  0  0  0  0  0  0
   40.0560   34.7090   47.2240 H   0  0  0  0  0  0  0  0  0  0  0  0
   39.2940   32.7940   47.3450 N   0  0  0  0  0  0  0  0  0  0  0  0
  1  6  1  0  0  0  0
  2  1  2  0  0  0  0
  2  3  1  0  0  0  0
  3  4  2  0  0  0  0
  4  5  1  0  0  0  0
  5  8  1  0  0  0  0
  6  5  2  0  0  0  0
  7  3  1  0  0  0  0
  9 11  1  0  0  0  0
  9 10  2  0  0  0  0
 11  2  1  0  0  0  0
 12  9  1  0  0  0  0
 13 11  1  0  0  0  0
 14 15  1  0  0  0  0
 14  1  1  0  0  0  0
 15 16  1  0  0  0  0
 17 16  2  0  0  0  0
 17 18  1  0  0  0  0
 19 17  1  0  0  0  0
 20 19  1  0  0  0  0
 21 19  1  0  0  0  0
 21 15  2  0  0  0  0
M  END
>  <minimizedAffinity>
-4.63493395

>  <minimizedRMSD>
5.17198372

$$$$
