
 OpenBabel03272506313D

 32 34  0  0  1  0  0  0  0  0999 V2000
   39.2680   24.3570   34.3480 C   0  0  1  0  0  0  0  0  0  0  0  0
   40.3810   25.2790   34.6280 C   0  0  0  0  0  0  0  0  0  0  0  0
   40.0240   26.7010   34.9600 C   0  0  0  0  0  0  0  0  0  0  0  0
   38.8190   26.8550   35.8150 C   0  0  0  0  0  0  0  0  0  0  0  0
   37.6760   25.9520   35.5330 C   0  0  0  0  0  0  0  0  0  0  0  0
   38.1190   24.5370   35.2860 C   0  0  2  0  0  0  0  0  0  0  0  0
   39.6370   23.3050   34.5720 H   0  0  0  0  0  0  0  0  0  0  0  0
   41.2100   25.2830   33.9410 H   0  0  0  0  0  0  0  0  0  0  0  0
   40.8410   24.9060   35.6000 H   0  0  0  0  0  0  0  0  0  0  0  0
   39.8310   27.2310   33.9980 H   0  0  0  0  0  0  0  0  0  0  0  0
   40.8790   27.1930   35.4240 H   0  0  0  0  0  0  0  0  0  0  0  0
   39.1340   26.7810   36.8790 H   0  0  0  0  0  0  0  0  0  0  0  0
   38.4480   27.9060   35.6820 H   0  0  0  0  0  0  0  0  0  0  0  0
   37.1090   26.3020   34.6610 H   0  0  0  0  0  0  0  0  0  0  0  0
   37.0190   25.9170   36.4280 H   0  0  0  0  0  0  0  0  0  0  0  0
   37.2090   23.9800   35.0240 H   0  0  0  0  0  0  0  0  0  0  0  0
   39.6220   24.8070   31.8620 C   0  0  0  0  0  0  0  0  0  0  0  0
   38.8590   24.2620   32.9270 C   0  0  0  0  0  0  0  0  0  0  0  0
   37.6830   23.6200   32.5910 C   0  0  0  0  0  0  0  0  0  0  0  0
   37.3020   23.5330   31.2860 N   0  0  0  0  0  0  0  0  0  0  0  0
   38.0690   24.0730   30.3020 C   0  0  0  0  0  0  0  0  0  0  0  0
   39.2340   24.7130   30.5950 N   0  0  0  0  0  0  0  0  0  0  0  0
   40.5490   25.3200   32.0590 H   0  0  0  0  0  0  0  0  0  0  0  0
   36.9750   23.1410   33.2390 H   0  0  0  0  0  0  0  0  0  0  0  0
   37.7810   24.0130   29.2610 H   0  0  0  0  0  0  0  0  0  0  0  0
   38.5010   23.9590   36.6350 C   0  0  0  0  0  0  0  0  0  0  0  0
   37.9540   24.3040   37.8290 N   0  0  0  0  0  0  0  0  0  0  0  0
   38.4850   23.6340   38.8400 C   0  0  0  0  0  0  0  0  0  0  0  0
   38.2260   23.7230   39.8850 H   0  0  0  0  0  0  0  0  0  0  0  0
   39.3980   22.8370   38.2690 N   0  0  0  0  0  0  0  0  0  0  0  0
   40.0320   22.1470   38.7570 H   0  0  0  0  0  0  0  0  0  0  0  0
   39.4110   23.0250   36.9700 N   0  0  0  0  0  0  0  0  0  0  0  0
  1  7  1  1  0  0  0
  1  2  1  0  0  0  0
  1  6  1  0  0  0  0
  2  3  1  0  0  0  0
  2  9  1  0  0  0  0
  3 11  1  0  0  0  0
  3  4  1  0  0  0  0
  4 12  1  0  0  0  0
  5  4  1  0  0  0  0
  5 15  1  0  0  0  0
  6 16  1  6  0  0  0
  6  5  1  0  0  0  0
  6 26  1  0  0  0  0
  8  2  1  0  0  0  0
 10  3  1  0  0  0  0
 13  4  1  0  0  0  0
 14  5  1  0  0  0  0
 17 23  1  0  0  0  0
 17 18  1  0  0  0  0
 18  1  1  0  0  0  0
 19 18  2  0  0  0  0
 19 24  1  0  0  0  0
 20 19  1  0  0  0  0
 21 22  1  0  0  0  0
 21 20  2  0  0  0  0
 22 17  2  0  0  0  0
 25 21  1  0  0  0  0
 26 32  2  0  0  0  0
 26 27  1  0  0  0  0
 27 28  2  0  0  0  0
 28 29  1  0  0  0  0
 30 31  1  0  0  0  0
 30 28  1  0  0  0  0
 32 30  1  0  0  0  0
M  END
>  <minimizedAffinity>
-4.98104954

$$$$

 OpenBabel03272506313D

 32 34  0  0  1  0  0  0  0  0999 V2000
   38.6400   24.4220   34.3340 C   0  0  1  0  0  0  0  0  0  0  0  0
   39.6540   25.4880   34.4020 C   0  0  0  0  0  0  0  0  0  0  0  0
   39.2940   26.7260   35.1750 C   0  0  0  0  0  0  0  0  0  0  0  0
   38.5240   26.4790   36.4200 C   0  0  0  0  0  0  0  0  0  0  0  0
   37.4790   25.4260   36.3650 C   0  0  0  0  0  0  0  0  0  0  0  0
   37.9510   24.1970   35.6400 C   0  0  2  0  0  0  0  0  0  0  0  0
   39.1900   23.4450   34.1470 H   0  0  0  0  0  0  0  0  0  0  0  0
   40.1330   25.7810   33.4830 H   0  0  0  0  0  0  0  0  0  0  0  0
   40.5060   25.0500   35.0180 H   0  0  0  0  0  0  0  0  0  0  0  0
   38.6710   27.3660   34.5080 H   0  0  0  0  0  0  0  0  0  0  0  0
   40.1980   27.2910   35.3990 H   0  0  0  0  0  0  0  0  0  0  0  0
   39.2440   26.2840   37.2440 H   0  0  0  0  0  0  0  0  0  0  0  0
   38.0080   27.4390   36.6890 H   0  0  0  0  0  0  0  0  0  0  0  0
   36.5730   25.8020   35.8720 H   0  0  0  0  0  0  0  0  0  0  0  0
   37.2450   25.1010   37.4010 H   0  0  0  0  0  0  0  0  0  0  0  0
   37.0850   23.5220   35.6010 H   0  0  0  0  0  0  0  0  0  0  0  0
   37.1210   25.7110   32.7400 C   0  0  0  0  0  0  0  0  0  0  0  0
   37.7110   24.4990   33.1820 C   0  0  0  0  0  0  0  0  0  0  0  0
   37.3830   23.3510   32.4860 C   0  0  0  0  0  0  0  0  0  0  0  0
   36.5280   23.4170   31.4280 N   0  0  0  0  0  0  0  0  0  0  0  0
   35.9890   24.6030   31.0440 C   0  0  0  0  0  0  0  0  0  0  0  0
   36.2880   25.7540   31.7050 N   0  0  0  0  0  0  0  0  0  0  0  0
   37.3370   26.6390   33.2420 H   0  0  0  0  0  0  0  0  0  0  0  0
   37.7240   22.3480   32.6540 H   0  0  0  0  0  0  0  0  0  0  0  0
   35.3080   24.6730   30.2060 H   0  0  0  0  0  0  0  0  0  0  0  0
   38.9060   23.4800   36.5740 C   0  0  0  0  0  0  0  0  0  0  0  0
   40.0190   22.7980   36.1990 N   0  0  0  0  0  0  0  0  0  0  0  0
   40.6610   22.2730   37.2310 C   0  0  0  0  0  0  0  0  0  0  0  0
   41.5690   21.6880   37.2010 H   0  0  0  0  0  0  0  0  0  0  0  0
   39.9330   22.6350   38.2950 N   0  0  0  0  0  0  0  0  0  0  0  0
   40.1300   22.4020   39.3070 H   0  0  0  0  0  0  0  0  0  0  0  0
   38.8980   23.3460   37.9130 N   0  0  0  0  0  0  0  0  0  0  0  0
  1  7  1  6  0  0  0
  1  2  1  0  0  0  0
  1  6  1  0  0  0  0
  2  9  1  0  0  0  0
  2  3  1  0  0  0  0
  3 11  1  0  0  0  0
  3  4  1  0  0  0  0
  4 13  1  0  0  0  0
  4 12  1  0  0  0  0
  5  4  1  0  0  0  0
  5 15  1  0  0  0  0
  6 16  1  6  0  0  0
  6  5  1  0  0  0  0
  6 26  1  0  0  0  0
  8  2  1  0  0  0  0
 10  3  1  0  0  0  0
 14  5  1  0  0  0  0
 17 18  1  0  0  0  0
 17 23  1  0  0  0  0
 18  1  1  0  0  0  0
 19 24  1  0  0  0  0
 19 18  2  0  0  0  0
 20 19  1  0  0  0  0
 21 20  2  0  0  0  0
 21 22  1  0  0  0  0
 22 17  2  0  0  0  0
 25 21  1  0  0  0  0
 26 32  2  0  0  0  0
 27 26  1  0  0  0  0
 27 28  2  0  0  0  0
 28 30  1  0  0  0  0
 29 28  1  0  0  0  0
 30 31  1  0  0  0  0
 32 30  1  0  0  0  0
M  END
>  <minimizedAffinity>
-4.89590359

$$$$

 OpenBabel03272506313D

 32 34  0  0  1  0  0  0  0  0999 V2000
   37.5390   26.4020   33.7690 C   0  0  1  0  0  0  0  0  0  0  0  0
   38.7590   26.1000   33.0030 C   0  0  0  0  0  0  0  0  0  0  0  0
   40.0280   26.7740   33.4450 C   0  0  0  0  0  0  0  0  0  0  0  0
   40.1930   26.8830   34.9160 C   0  0  0  0  0  0  0  0  0  0  0  0
   38.9800   27.2120   35.7050 C   0  0  0  0  0  0  0  0  0  0  0  0
   37.7770   26.4380   35.2440 C   0  0  2  0  0  0  0  0  0  0  0  0
   36.8290   25.5240   33.6320 H   0  0  0  0  0  0  0  0  0  0  0  0
   38.6990   26.1480   31.9290 H   0  0  0  0  0  0  0  0  0  0  0  0
   38.9770   25.0020   33.2090 H   0  0  0  0  0  0  0  0  0  0  0  0
   40.0230   27.8060   33.0230 H   0  0  0  0  0  0  0  0  0  0  0  0
   40.8850   26.2600   33.0080 H   0  0  0  0  0  0  0  0  0  0  0  0
   40.6680   25.9480   35.2860 H   0  0  0  0  0  0  0  0  0  0  0  0
   40.9400   27.6980   35.1090 H   0  0  0  0  0  0  0  0  0  0  0  0
   38.7550   28.2840   35.6450 H   0  0  0  0  0  0  0  0  0  0  0  0
   39.1490   26.9150   36.7620 H   0  0  0  0  0  0  0  0  0  0  0  0
   36.9350   26.8070   35.8450 H   0  0  0  0  0  0  0  0  0  0  0  0
   36.0740   28.4600   34.1310 C   0  0  0  0  0  0  0  0  0  0  0  0
   36.7400   27.5470   33.2720 C   0  0  0  0  0  0  0  0  0  0  0  0
   36.6190   27.7620   31.9130 C   0  0  0  0  0  0  0  0  0  0  0  0
   35.8840   28.8120   31.4520 N   0  0  0  0  0  0  0  0  0  0  0  0
   35.2650   29.6590   32.3170 C   0  0  0  0  0  0  0  0  0  0  0  0
   35.3620   29.4790   33.6620 N   0  0  0  0  0  0  0  0  0  0  0  0
   36.1310   28.3450   35.2010 H   0  0  0  0  0  0  0  0  0  0  0  0
   37.0460   27.1980   31.1070 H   0  0  0  0  0  0  0  0  0  0  0  0
   34.6770   30.4970   31.9680 H   0  0  0  0  0  0  0  0  0  0  0  0
   37.9570   25.0160   35.7390 C   0  0  0  0  0  0  0  0  0  0  0  0
   38.1550   24.6460   37.0310 N   0  0  0  0  0  0  0  0  0  0  0  0
   38.2790   23.3350   37.1670 C   0  0  0  0  0  0  0  0  0  0  0  0
   38.4430   22.7910   38.0850 H   0  0  0  0  0  0  0  0  0  0  0  0
   38.1550   22.8580   35.9220 N   0  0  0  0  0  0  0  0  0  0  0  0
   38.1980   21.8450   35.6240 H   0  0  0  0  0  0  0  0  0  0  0  0
   37.9650   23.8450   35.0770 N   0  0  0  0  0  0  0  0  0  0  0  0
  1  7  1  6  0  0  0
  1  6  1  0  0  0  0
  2  9  1  0  0  0  0
  2  3  1  0  0  0  0
  2  1  1  0  0  0  0
  3  4  1  0  0  0  0
  4 13  1  0  0  0  0
  4 12  1  0  0  0  0
  4  5  1  0  0  0  0
  5 15  1  0  0  0  0
  6  5  1  0  0  0  0
  6 26  1  0  0  0  0
  6 16  1  1  0  0  0
  8  2  1  0  0  0  0
 10  3  1  0  0  0  0
 11  3  1  0  0  0  0
 14  5  1  0  0  0  0
 17 23  1  0  0  0  0
 18  1  1  0  0  0  0
 18 17  2  0  0  0  0
 19 18  1  0  0  0  0
 20 19  2  0  0  0  0
 20 21  1  0  0  0  0
 21 22  2  0  0  0  0
 22 17  1  0  0  0  0
 24 19  1  0  0  0  0
 25 21  1  0  0  0  0
 26 27  1  0  0  0  0
 27 28  2  0  0  0  0
 28 29  1  0  0  0  0
 30 28  1  0  0  0  0
 31 30  1  0  0  0  0
 32 26  2  0  0  0  0
 32 30  1  0  0  0  0
M  END
>  <minimizedAffinity>
-4.78490734

$$$$

 OpenBabel03272506313D

 32 34  0  0  1  0  0  0  0  0999 V2000
   38.5970   24.7820   33.8220 C   0  0  1  0  0  0  0  0  0  0  0  0
   39.5540   25.9010   33.7940 C   0  0  0  0  0  0  0  0  0  0  0  0
   39.2620   27.0720   34.6910 C   0  0  0  0  0  0  0  0  0  0  0  0
   38.7180   26.7130   36.0250 C   0  0  0  0  0  0  0  0  0  0  0  0
   37.7330   25.6040   36.0710 C   0  0  0  0  0  0  0  0  0  0  0  0
   38.1410   24.4460   35.2050 C   0  0  2  0  0  0  0  0  0  0  0  0
   39.1580   23.8510   33.4890 H   0  0  0  0  0  0  0  0  0  0  0  0
   39.8610   26.2710   32.8310 H   0  0  0  0  0  0  0  0  0  0  0  0
   40.5150   25.4830   34.2380 H   0  0  0  0  0  0  0  0  0  0  0  0
   38.5080   27.7090   34.1730 H   0  0  0  0  0  0  0  0  0  0  0  0
   40.1610   27.6780   34.8030 H   0  0  0  0  0  0  0  0  0  0  0  0
   39.5710   26.5170   36.7100 H   0  0  0  0  0  0  0  0  0  0  0  0
   38.2050   27.6240   36.4330 H   0  0  0  0  0  0  0  0  0  0  0  0
   36.7410   25.9510   35.7540 H   0  0  0  0  0  0  0  0  0  0  0  0
   37.6870   25.2100   37.1080 H   0  0  0  0  0  0  0  0  0  0  0  0
   37.3160   23.7230   35.2620 H   0  0  0  0  0  0  0  0  0  0  0  0
   36.8940   26.0900   32.4430 C   0  0  0  0  0  0  0  0  0  0  0  0
   37.4910   24.8640   32.8400 C   0  0  0  0  0  0  0  0  0  0  0  0
   36.9930   23.7100   32.2670 C   0  0  0  0  0  0  0  0  0  0  0  0
   35.9740   23.7820   31.3650 N   0  0  0  0  0  0  0  0  0  0  0  0
   35.4360   24.9810   31.0190 C   0  0  0  0  0  0  0  0  0  0  0  0
   35.9010   26.1380   31.5630 N   0  0  0  0  0  0  0  0  0  0  0  0
   37.2380   27.0240   32.8550 H   0  0  0  0  0  0  0  0  0  0  0  0
   37.3070   22.6970   32.4250 H   0  0  0  0  0  0  0  0  0  0  0  0
   34.6270   25.0550   30.3050 H   0  0  0  0  0  0  0  0  0  0  0  0
   39.2710   23.7380   35.9270 C   0  0  0  0  0  0  0  0  0  0  0  0
   39.2150   23.2380   37.1890 N   0  0  0  0  0  0  0  0  0  0  0  0
   40.3530   22.6730   37.5580 C   0  0  0  0  0  0  0  0  0  0  0  0
   40.5660   22.2040   38.5080 H   0  0  0  0  0  0  0  0  0  0  0  0
   41.1580   22.8180   36.4980 N   0  0  0  0  0  0  0  0  0  0  0  0
   42.1580   22.4890   36.4110 H   0  0  0  0  0  0  0  0  0  0  0  0
   40.5240   23.4440   35.5340 N   0  0  0  0  0  0  0  0  0  0  0  0
  1  7  1  6  0  0  0
  1  6  1  0  0  0  0
  2  1  1  0  0  0  0
  2  9  1  0  0  0  0
  2  3  1  0  0  0  0
  3 11  1  0  0  0  0
  3  4  1  0  0  0  0
  4  5  1  0  0  0  0
  4 13  1  0  0  0  0
  4 12  1  0  0  0  0
  5 15  1  0  0  0  0
  6 16  1  6  0  0  0
  6 26  1  0  0  0  0
  6  5  1  0  0  0  0
  8  2  1  0  0  0  0
 10  3  1  0  0  0  0
 14  5  1  0  0  0  0
 17 18  1  0  0  0  0
 17 23  1  0  0  0  0
 18  1  1  0  0  0  0
 19 24  1  0  0  0  0
 19 18  2  0  0  0  0
 20 19  1  0  0  0  0
 21 20  2  0  0  0  0
 21 22  1  0  0  0  0
 22 17  2  0  0  0  0
 25 21  1  0  0  0  0
 26 27  1  0  0  0  0
 27 28  2  0  0  0  0
 28 29  1  0  0  0  0
 30 28  1  0  0  0  0
 31 30  1  0  0  0  0
 32 26  2  0  0  0  0
 32 30  1  0  0  0  0
M  END
>  <minimizedAffinity>
-4.71780205

$$$$

 OpenBabel03272506313D

 32 34  0  0  1  0  0  0  0  0999 V2000
   37.9320   26.2060   35.0510 C   0  0  1  0  0  0  0  0  0  0  0  0
   39.1040   27.0290   35.3920 C   0  0  0  0  0  0  0  0  0  0  0  0
   40.2000   27.1170   34.3660 C   0  0  0  0  0  0  0  0  0  0  0  0
   39.7290   27.2050   32.9610 C   0  0  0  0  0  0  0  0  0  0  0  0
   38.5640   26.3630   32.5900 C   0  0  0  0  0  0  0  0  0  0  0  0
   37.4860   26.3930   33.6380 C   0  0  2  0  0  0  0  0  0  0  0  0
   37.0570   26.5950   35.6640 H   0  0  0  0  0  0  0  0  0  0  0  0
   39.5500   26.8850   36.3620 H   0  0  0  0  0  0  0  0  0  0  0  0
   38.7160   28.0990   35.4330 H   0  0  0  0  0  0  0  0  0  0  0  0
   40.8220   26.1970   34.4630 H   0  0  0  0  0  0  0  0  0  0  0  0
   40.8490   27.9610   34.5980 H   0  0  0  0  0  0  0  0  0  0  0  0
   39.5420   28.2740   32.7210 H   0  0  0  0  0  0  0  0  0  0  0  0
   40.5820   26.8910   32.3030 H   0  0  0  0  0  0  0  0  0  0  0  0
   38.8710   25.3230   32.4280 H   0  0  0  0  0  0  0  0  0  0  0  0
   38.1050   26.7750   31.6660 H   0  0  0  0  0  0  0  0  0  0  0  0
   36.7150   25.6910   33.2930 H   0  0  0  0  0  0  0  0  0  0  0  0
   38.2250   23.7220   34.5440 C   0  0  0  0  0  0  0  0  0  0  0  0
   38.0100   24.7840   35.4610 C   0  0  0  0  0  0  0  0  0  0  0  0
   37.8680   24.4440   36.7930 C   0  0  0  0  0  0  0  0  0  0  0  0
   37.9360   23.1380   37.1730 N   0  0  0  0  0  0  0  0  0  0  0  0
   38.1440   22.1570   36.2560 C   0  0  0  0  0  0  0  0  0  0  0  0
   38.2880   22.4540   34.9360 N   0  0  0  0  0  0  0  0  0  0  0  0
   38.3430   23.9230   33.4930 H   0  0  0  0  0  0  0  0  0  0  0  0
   37.7070   25.0900   37.6340 H   0  0  0  0  0  0  0  0  0  0  0  0
   38.2010   21.1150   36.5410 H   0  0  0  0  0  0  0  0  0  0  0  0
   36.8030   27.7420   33.5210 C   0  0  0  0  0  0  0  0  0  0  0  0
   36.6220   28.4420   32.3720 N   0  0  0  0  0  0  0  0  0  0  0  0
   35.9930   29.5890   32.5740 C   0  0  0  0  0  0  0  0  0  0  0  0
   35.7290   30.3240   31.8270 H   0  0  0  0  0  0  0  0  0  0  0  0
   35.7650   29.6170   33.8930 N   0  0  0  0  0  0  0  0  0  0  0  0
   35.2790   30.3820   34.4370 H   0  0  0  0  0  0  0  0  0  0  0  0
   36.2410   28.5310   34.4550 N   0  0  0  0  0  0  0  0  0  0  0  0
  1  2  1  0  0  0  0
  1 18  1  0  0  0  0
  1  7  1  1  0  0  0
  2  9  1  0  0  0  0
  2  8  1  0  0  0  0
  3 10  1  0  0  0  0
  3 11  1  0  0  0  0
  3  2  1  0  0  0  0
  4  3  1  0  0  0  0
  5  4  1  0  0  0  0
  5  6  1  0  0  0  0
  6 16  1  6  0  0  0
  6  1  1  0  0  0  0
 12  4  1  0  0  0  0
 13  4  1  0  0  0  0
 14  5  1  0  0  0  0
 15  5  1  0  0  0  0
 17 22  2  0  0  0  0
 17 18  1  0  0  0  0
 18 19  2  0  0  0  0
 19 20  1  0  0  0  0
 19 24  1  0  0  0  0
 21 25  1  0  0  0  0
 21 20  2  0  0  0  0
 22 21  1  0  0  0  0
 23 17  1  0  0  0  0
 26  6  1  0  0  0  0
 26 32  2  0  0  0  0
 27 28  2  0  0  0  0
 27 26  1  0  0  0  0
 28 30  1  0  0  0  0
 29 28  1  0  0  0  0
 30 31  1  0  0  0  0
 30 32  1  0  0  0  0
M  END
>  <minimizedAffinity>
-4.56904984

$$$$

 OpenBabel03272506313D

 32 34  0  0  1  0  0  0  0  0999 V2000
   38.2990   24.5900   34.7680 C   0  0  1  0  0  0  0  0  0  0  0  0
   37.7470   25.8320   35.3330 C   0  0  0  0  0  0  0  0  0  0  0  0
   38.6040   27.0640   35.2440 C   0  0  0  0  0  0  0  0  0  0  0  0
   39.3590   27.2050   33.9730 C   0  0  0  0  0  0  0  0  0  0  0  0
   39.9460   25.9680   33.3990 C   0  0  0  0  0  0  0  0  0  0  0  0
   38.9930   24.8070   33.4620 C   0  0  2  0  0  0  0  0  0  0  0  0
   37.4200   23.9220   34.4980 H   0  0  0  0  0  0  0  0  0  0  0  0
   37.3140   25.7830   36.3180 H   0  0  0  0  0  0  0  0  0  0  0  0
   36.8630   26.0970   34.6650 H   0  0  0  0  0  0  0  0  0  0  0  0
   39.3430   27.0180   36.0780 H   0  0  0  0  0  0  0  0  0  0  0  0
   37.9910   27.9480   35.4160 H   0  0  0  0  0  0  0  0  0  0  0  0
   38.7050   27.7170   33.2330 H   0  0  0  0  0  0  0  0  0  0  0  0
   40.2090   27.9120   34.1660 H   0  0  0  0  0  0  0  0  0  0  0  0
   40.8700   25.6970   33.9250 H   0  0  0  0  0  0  0  0  0  0  0  0
   40.1530   26.1370   32.3220 H   0  0  0  0  0  0  0  0  0  0  0  0
   39.5510   23.9420   33.0790 H   0  0  0  0  0  0  0  0  0  0  0  0
   38.8100   23.7060   37.1070 C   0  0  0  0  0  0  0  0  0  0  0  0
   39.0710   23.7470   35.7120 C   0  0  0  0  0  0  0  0  0  0  0  0
   40.1000   22.9540   35.2430 C   0  0  0  0  0  0  0  0  0  0  0  0
   40.8130   22.1800   36.1080 N   0  0  0  0  0  0  0  0  0  0  0  0
   40.5240   22.1770   37.4360 C   0  0  0  0  0  0  0  0  0  0  0  0
   39.5170   22.9450   37.9340 N   0  0  0  0  0  0  0  0  0  0  0  0
   38.0210   24.3020   37.5330 H   0  0  0  0  0  0  0  0  0  0  0  0
   40.4470   22.8380   34.2340 H   0  0  0  0  0  0  0  0  0  0  0  0
   41.0800   21.5680   38.1360 H   0  0  0  0  0  0  0  0  0  0  0  0
   37.9460   25.0440   32.3920 C   0  0  0  0  0  0  0  0  0  0  0  0
   36.7870   24.3510   32.2500 N   0  0  0  0  0  0  0  0  0  0  0  0
   36.0660   24.7780   31.2250 C   0  0  0  0  0  0  0  0  0  0  0  0
   35.1090   24.3960   30.9010 H   0  0  0  0  0  0  0  0  0  0  0  0
   36.7900   25.7750   30.7000 N   0  0  0  0  0  0  0  0  0  0  0  0
   36.5390   26.3680   29.8620 H   0  0  0  0  0  0  0  0  0  0  0  0
   37.8980   25.9360   31.3850 N   0  0  0  0  0  0  0  0  0  0  0  0
  1  7  1  6  0  0  0
  1  2  1  0  0  0  0
  1 18  1  0  0  0  0
  2  8  1  0  0  0  0
  3  2  1  0  0  0  0
  3 11  1  0  0  0  0
  3 10  1  0  0  0  0
  4 13  1  0  0  0  0
  4  3  1  0  0  0  0
  5  6  1  0  0  0  0
  5 14  1  0  0  0  0
  5  4  1  0  0  0  0
  6 16  1  6  0  0  0
  6  1  1  0  0  0  0
  9  2  1  0  0  0  0
 12  4  1  0  0  0  0
 15  5  1  0  0  0  0
 17 23  1  0  0  0  0
 17 22  1  0  0  0  0
 18 17  2  0  0  0  0
 19 18  1  0  0  0  0
 19 20  2  0  0  0  0
 20 21  1  0  0  0  0
 21 22  2  0  0  0  0
 21 25  1  0  0  0  0
 24 19  1  0  0  0  0
 26  6  1  0  0  0  0
 27 26  1  0  0  0  0
 28 27  2  0  0  0  0
 29 28  1  0  0  0  0
 30 28  1  0  0  0  0
 30 32  1  0  0  0  0
 31 30  1  0  0  0  0
 32 26  2  0  0  0  0
M  END
>  <minimizedAffinity>
-4.55570602

$$$$

 OpenBabel03272506313D

 32 34  0  0  1  0  0  0  0  0999 V2000
   38.7670   24.4370   35.1420 C   0  0  1  0  0  0  0  0  0  0  0  0
   37.8290   25.1210   36.0480 C   0  0  0  0  0  0  0  0  0  0  0  0
   38.2410   26.4700   36.5670 C   0  0  0  0  0  0  0  0  0  0  0  0
   38.9340   27.3320   35.5770 C   0  0  0  0  0  0  0  0  0  0  0  0
   39.9030   26.6670   34.6700 C   0  0  0  0  0  0  0  0  0  0  0  0
   39.3790   25.3610   34.1400 C   0  0  2  0  0  0  0  0  0  0  0  0
   38.1580   23.7160   34.5090 H   0  0  0  0  0  0  0  0  0  0  0  0
   37.4150   24.5490   36.8620 H   0  0  0  0  0  0  0  0  0  0  0  0
   36.9210   25.3680   35.4080 H   0  0  0  0  0  0  0  0  0  0  0  0
   38.9370   26.3010   37.4220 H   0  0  0  0  0  0  0  0  0  0  0  0
   37.3690   26.9870   36.9700 H   0  0  0  0  0  0  0  0  0  0  0  0
   38.1650   27.8890   34.9990 H   0  0  0  0  0  0  0  0  0  0  0  0
   39.5030   28.1100   36.1510 H   0  0  0  0  0  0  0  0  0  0  0  0
   40.8540   26.4830   35.1850 H   0  0  0  0  0  0  0  0  0  0  0  0
   40.0660   27.3150   33.7830 H   0  0  0  0  0  0  0  0  0  0  0  0
   40.1950   24.9310   33.5440 H   0  0  0  0  0  0  0  0  0  0  0  0
   39.5940   23.0540   37.1210 C   0  0  0  0  0  0  0  0  0  0  0  0
   39.7510   23.5440   35.7980 C   0  0  0  0  0  0  0  0  0  0  0  0
   40.8870   23.1530   35.1150 C   0  0  0  0  0  0  0  0  0  0  0  0
   41.7950   22.3340   35.7150 N   0  0  0  0  0  0  0  0  0  0  0  0
   41.5980   21.8920   36.9850 C   0  0  0  0  0  0  0  0  0  0  0  0
   40.4910   22.2550   37.6880 N   0  0  0  0  0  0  0  0  0  0  0  0
   38.7290   23.3230   37.7040 H   0  0  0  0  0  0  0  0  0  0  0  0
   41.1850   23.4050   34.1160 H   0  0  0  0  0  0  0  0  0  0  0  0
   42.3090   21.2410   37.4760 H   0  0  0  0  0  0  0  0  0  0  0  0
   38.3330   25.7030   33.0970 C   0  0  0  0  0  0  0  0  0  0  0  0
   38.3940   26.7420   32.2250 N   0  0  0  0  0  0  0  0  0  0  0  0
   37.3380   26.7950   31.4280 C   0  0  0  0  0  0  0  0  0  0  0  0
   37.1460   27.5220   30.6520 H   0  0  0  0  0  0  0  0  0  0  0  0
   36.5820   25.7560   31.8060 N   0  0  0  0  0  0  0  0  0  0  0  0
   35.6520   25.4660   31.3990 H   0  0  0  0  0  0  0  0  0  0  0  0
   37.1650   25.1090   32.7890 N   0  0  0  0  0  0  0  0  0  0  0  0
  1  7  1  6  0  0  0
  1 18  1  0  0  0  0
  1  2  1  0  0  0  0
  2  3  1  0  0  0  0
  2  8  1  0  0  0  0
  3 11  1  0  0  0  0
  3 10  1  0  0  0  0
  4 13  1  0  0  0  0
  4  3  1  0  0  0  0
  5 14  1  0  0  0  0
  5  4  1  0  0  0  0
  6 16  1  6  0  0  0
  6  5  1  0  0  0  0
  6  1  1  0  0  0  0
  9  2  1  0  0  0  0
 12  4  1  0  0  0  0
 15  5  1  0  0  0  0
 17 22  1  0  0  0  0
 17 23  1  0  0  0  0
 18 17  2  0  0  0  0
 19 20  2  0  0  0  0
 19 18  1  0  0  0  0
 20 21  1  0  0  0  0
 21 25  1  0  0  0  0
 21 22  2  0  0  0  0
 24 19  1  0  0  0  0
 26  6  1  0  0  0  0
 27 26  1  0  0  0  0
 28 30  1  0  0  0  0
 28 27  2  0  0  0  0
 29 28  1  0  0  0  0
 30 32  1  0  0  0  0
 31 30  1  0  0  0  0
 32 26  2  0  0  0  0
M  END
>  <minimizedAffinity>
-4.53694296

$$$$

 OpenBabel03272506313D

 32 34  0  0  1  0  0  0  0  0999 V2000
   36.8660   22.3970   31.7150 C   0  0  1  0  0  0  0  0  0  0  0  0
   37.6900   21.9570   32.8530 C   0  0  0  0  0  0  0  0  0  0  0  0
   36.9630   21.4900   34.0830 C   0  0  0  0  0  0  0  0  0  0  0  0
   35.7400   20.6910   33.8160 C   0  0  0  0  0  0  0  0  0  0  0  0
   34.8820   21.1340   32.6890 C   0  0  0  0  0  0  0  0  0  0  0  0
   35.6880   21.5100   31.4770 C   0  0  2  0  0  0  0  0  0  0  0  0
   37.4940   22.2710   30.7760 H   0  0  0  0  0  0  0  0  0  0  0  0
   38.5060   22.5920   33.1550 H   0  0  0  0  0  0  0  0  0  0  0  0
   38.2090   21.0080   32.4970 H   0  0  0  0  0  0  0  0  0  0  0  0
   36.6610   22.3970   34.6580 H   0  0  0  0  0  0  0  0  0  0  0  0
   37.6460   20.9280   34.7200 H   0  0  0  0  0  0  0  0  0  0  0  0
   36.0360   19.6260   33.6980 H   0  0  0  0  0  0  0  0  0  0  0  0
   35.1080   20.7280   34.7430 H   0  0  0  0  0  0  0  0  0  0  0  0
   34.2650   21.9920   32.9830 H   0  0  0  0  0  0  0  0  0  0  0  0
   34.2360   20.2860   32.3770 H   0  0  0  0  0  0  0  0  0  0  0  0
   34.9640   21.8820   30.7400 H   0  0  0  0  0  0  0  0  0  0  0  0
   37.2630   24.8200   32.4140 C   0  0  0  0  0  0  0  0  0  0  0  0
   36.5320   23.8410   31.6910 C   0  0  0  0  0  0  0  0  0  0  0  0
   35.4620   24.2860   30.9390 C   0  0  0  0  0  0  0  0  0  0  0  0
   35.1500   25.6120   30.9160 N   0  0  0  0  0  0  0  0  0  0  0  0
   35.8810   26.5100   31.6270 C   0  0  0  0  0  0  0  0  0  0  0  0
   36.9420   26.1080   32.3790 N   0  0  0  0  0  0  0  0  0  0  0  0
   38.1080   24.5350   33.0180 H   0  0  0  0  0  0  0  0  0  0  0  0
   34.7950   23.7150   30.3230 H   0  0  0  0  0  0  0  0  0  0  0  0
   35.6470   27.5660   31.6200 H   0  0  0  0  0  0  0  0  0  0  0  0
   36.1760   20.2150   30.8590 C   0  0  0  0  0  0  0  0  0  0  0  0
   37.1940   20.0950   29.9680 N   0  0  0  0  0  0  0  0  0  0  0  0
   37.3970   18.8400   29.5990 C   0  0  0  0  0  0  0  0  0  0  0  0
   38.1430   18.4810   28.9050 H   0  0  0  0  0  0  0  0  0  0  0  0
   36.4790   18.1400   30.2780 N   0  0  0  0  0  0  0  0  0  0  0  0
   36.3280   17.0950   30.2470 H   0  0  0  0  0  0  0  0  0  0  0  0
   35.7570   18.9460   31.0220 N   0  0  0  0  0  0  0  0  0  0  0  0
  1  7  1  6  0  0  0
  1  2  1  0  0  0  0
  2  8  1  0  0  0  0
  2  3  1  0  0  0  0
  3 10  1  0  0  0  0
  3 11  1  0  0  0  0
  4  3  1  0  0  0  0
  4 13  1  0  0  0  0
  5 14  1  0  0  0  0
  5  4  1  0  0  0  0
  6 16  1  6  0  0  0
  6  1  1  0  0  0  0
  6  5  1  0  0  0  0
  9  2  1  0  0  0  0
 12  4  1  0  0  0  0
 15  5  1  0  0  0  0
 17 23  1  0  0  0  0
 18  1  1  0  0  0  0
 18 17  2  0  0  0  0
 19 18  1  0  0  0  0
 20 19  2  0  0  0  0
 20 21  1  0  0  0  0
 21 22  2  0  0  0  0
 22 17  1  0  0  0  0
 24 19  1  0  0  0  0
 25 21  1  0  0  0  0
 26 32  2  0  0  0  0
 26  6  1  0  0  0  0
 27 26  1  0  0  0  0
 28 27  2  0  0  0  0
 28 30  1  0  0  0  0
 29 28  1  0  0  0  0
 30 32  1  0  0  0  0
 31 30  1  0  0  0  0
M  END
>  <minimizedAffinity>
-4.53302097

$$$$

 OpenBabel03272506313D

 32 34  0  0  1  0  0  0  0  0999 V2000
   38.2950   26.0780   32.8690 C   0  0  1  0  0  0  0  0  0  0  0  0
   37.7050   27.3700   33.2570 C   0  0  0  0  0  0  0  0  0  0  0  0
   37.3330   27.5450   34.7030 C   0  0  0  0  0  0  0  0  0  0  0  0
   38.2940   26.9520   35.6670 C   0  0  0  0  0  0  0  0  0  0  0  0
   38.8810   25.6380   35.3070 C   0  0  0  0  0  0  0  0  0  0  0  0
   39.2930   25.5770   33.8620 C   0  0  2  0  0  0  0  0  0  0  0  0
   38.9140   26.2580   31.9320 H   0  0  0  0  0  0  0  0  0  0  0  0
   36.9070   27.7580   32.6460 H   0  0  0  0  0  0  0  0  0  0  0  0
   38.5400   28.1330   33.1210 H   0  0  0  0  0  0  0  0  0  0  0  0
   36.3450   27.0520   34.8560 H   0  0  0  0  0  0  0  0  0  0  0  0
   37.1920   28.6050   34.9170 H   0  0  0  0  0  0  0  0  0  0  0  0
   39.0890   27.7010   35.8750 H   0  0  0  0  0  0  0  0  0  0  0  0
   37.7490   26.8120   36.6380 H   0  0  0  0  0  0  0  0  0  0  0  0
   38.1700   24.8260   35.5060 H   0  0  0  0  0  0  0  0  0  0  0  0
   39.8100   25.4870   35.8970 H   0  0  0  0  0  0  0  0  0  0  0  0
   39.6450   24.5510   33.6940 H   0  0  0  0  0  0  0  0  0  0  0  0
   37.5290   23.6550   32.6450 C   0  0  0  0  0  0  0  0  0  0  0  0
   37.3310   25.0430   32.4280 C   0  0  0  0  0  0  0  0  0  0  0  0
   36.1750   25.4160   31.7690 C   0  0  0  0  0  0  0  0  0  0  0  0
   35.2870   24.4680   31.3600 N   0  0  0  0  0  0  0  0  0  0  0  0
   35.5240   23.1500   31.5920 C   0  0  0  0  0  0  0  0  0  0  0  0
   36.6510   22.7450   32.2380 N   0  0  0  0  0  0  0  0  0  0  0  0
   38.4110   23.3010   33.1520 H   0  0  0  0  0  0  0  0  0  0  0  0
   35.8400   26.4040   31.5170 H   0  0  0  0  0  0  0  0  0  0  0  0
   34.8290   22.3840   31.2740 H   0  0  0  0  0  0  0  0  0  0  0  0
   40.5580   26.4020   33.7350 C   0  0  0  0  0  0  0  0  0  0  0  0
   40.9520   27.0840   32.6280 N   0  0  0  0  0  0  0  0  0  0  0  0
   42.1010   27.7150   32.8070 C   0  0  0  0  0  0  0  0  0  0  0  0
   42.6260   28.3240   32.0860 H   0  0  0  0  0  0  0  0  0  0  0  0
   42.4490   27.4250   34.0680 N   0  0  0  0  0  0  0  0  0  0  0  0
   43.3140   27.7520   34.5780 H   0  0  0  0  0  0  0  0  0  0  0  0
   41.5420   26.6520   34.6180 N   0  0  0  0  0  0  0  0  0  0  0  0
  1  7  1  6  0  0  0
  1  2  1  0  0  0  0
  1  6  1  0  0  0  0
  2  3  1  0  0  0  0
  3 10  1  0  0  0  0
  3 11  1  0  0  0  0
  3  4  1  0  0  0  0
  4 12  1  0  0  0  0
  4 13  1  0  0  0  0
  5 14  1  0  0  0  0
  5  4  1  0  0  0  0
  5 15  1  0  0  0  0
  6 16  1  6  0  0  0
  6  5  1  0  0  0  0
  8  2  1  0  0  0  0
  9  2  1  0  0  0  0
 17 23  1  0  0  0  0
 18 17  1  0  0  0  0
 18  1  1  0  0  0  0
 19 18  2  0  0  0  0
 20 21  2  0  0  0  0
 20 19  1  0  0  0  0
 21 22  1  0  0  0  0
 22 17  2  0  0  0  0
 24 19  1  0  0  0  0
 25 21  1  0  0  0  0
 26  6  1  0  0  0  0
 26 32  2  0  0  0  0
 27 28  2  0  0  0  0
 27 26  1  0  0  0  0
 28 30  1  0  0  0  0
 29 28  1  0  0  0  0
 30 31  1  0  0  0  0
 30 32  1  0  0  0  0
M  END
>  <minimizedAffinity>
-4.5171752

$$$$
