
 OpenBabel03272501083D

 38 41  0  0  1  0  0  0  0  0999 V2000
   38.9420   32.4370   47.6180 C   0  0  2  0  0  0  0  0  0  0  0  0
   37.9760   32.6190   48.8200 C   0  0  2  0  0  0  0  0  0  0  0  0
   38.8310   33.3080   49.7750 C   0  0  0  0  0  0  0  0  0  0  0  0
   39.6620   34.1630   49.0600 O   0  0  0  0  0  0  0  0  0  0  0  0
   39.5790   33.8520   47.7410 C   0  0  0  0  0  0  0  0  0  0  0  0
   39.6950   31.6870   47.8530 H   0  0  0  0  0  0  0  0  0  0  0  0
   37.1650   33.2660   48.3790 H   0  0  0  0  0  0  0  0  0  0  0  0
   38.1860   33.9860   50.4060 H   0  0  0  0  0  0  0  0  0  0  0  0
   39.3840   32.6680   50.4520 H   0  0  0  0  0  0  0  0  0  0  0  0
   40.6070   33.7200   47.3410 H   0  0  0  0  0  0  0  0  0  0  0  0
   39.0330   34.5510   47.0940 H   0  0  0  0  0  0  0  0  0  0  0  0
   37.3360   29.3090   50.5020 C   0  0  0  0  0  0  0  0  0  0  0  0
   37.9970   30.5240   50.1630 C   0  0  0  0  0  0  0  0  0  0  0  0
   37.3560   31.3740   49.2160 C   0  0  0  0  0  0  0  0  0  0  0  0
   36.1460   30.9900   48.6830 N   0  0  0  0  0  0  0  0  0  0  0  0
   35.5690   29.8410   49.0350 C   0  0  0  0  0  0  0  0  0  0  0  0
   36.1470   28.9960   49.9370 N   0  0  0  0  0  0  0  0  0  0  0  0
   37.7660   28.6190   51.2110 H   0  0  0  0  0  0  0  0  0  0  0  0
   38.9280   30.7450   50.6180 H   0  0  0  0  0  0  0  0  0  0  0  0
   34.6240   29.6590   48.5440 H   0  0  0  0  0  0  0  0  0  0  0  0
   38.2820   32.3620   46.4380 O   0  0  0  0  0  0  0  0  0  0  0  0
   40.6810   31.9200   44.5540 Cl  0  0  0  0  0  0  0  0  0  0  0  0
   39.1270   31.1360   44.4150 C   0  0  0  0  0  0  0  0  0  0  0  0
   38.2170   31.5100   45.3930 C   0  0  0  0  0  0  0  0  0  0  0  0
   36.9800   30.8920   45.2920 C   0  0  0  0  0  0  0  0  0  0  0  0
   36.6820   29.9830   44.3020 C   0  0  0  0  0  0  0  0  0  0  0  0
   37.6330   29.6610   43.3680 C   0  0  0  0  0  0  0  0  0  0  0  0
   38.8880   30.2350   43.4060 C   0  0  0  0  0  0  0  0  0  0  0  0
   36.1470   31.0590   45.9610 H   0  0  0  0  0  0  0  0  0  0  0  0
   35.7340   29.4850   44.1930 H   0  0  0  0  0  0  0  0  0  0  0  0
   37.4450   28.9520   42.5730 H   0  0  0  0  0  0  0  0  0  0  0  0
   39.9740   29.9680   42.4680 C   0  0  0  0  0  0  0  0  0  0  0  0
   40.8740   28.9680   42.4660 N   0  0  0  0  0  0  0  0  0  0  0  0
   41.6930   29.1400   41.3880 C   0  0  0  0  0  0  0  0  0  0  0  0
   42.4480   28.3470   41.3400 H   0  0  0  0  0  0  0  0  0  0  0  0
   41.2840   30.2580   40.7270 N   0  0  0  0  0  0  0  0  0  0  0  0
   41.8530   30.4650   39.8910 H   0  0  0  0  0  0  0  0  0  0  0  0
   40.2490   30.7390   41.3950 N   0  0  0  0  0  0  0  0  0  0  0  0
  1  5  1  0  0  0  0
  1  6  1  1  0  0  0
  1  2  1  0  0  0  0
  2  7  1  6  0  0  0
  2 14  1  0  0  0  0
  2  3  1  0  0  0  0
  3  8  1  0  0  0  0
  3  9  1  0  0  0  0
  4  3  1  0  0  0  0
  5  4  1  0  0  0  0
 10  5  1  0  0  0  0
 11  5  1  0  0  0  0
 12 18  1  0  0  0  0
 13 12  1  0  0  0  0
 13 19  1  0  0  0  0
 14 13  2  0  0  0  0
 15 16  2  0  0  0  0
 15 14  1  0  0  0  0
 16 17  1  0  0  0  0
 17 12  2  0  0  0  0
 20 16  1  0  0  0  0
 21  1  1  0  0  0  0
 23 22  1  0  0  0  0
 23 24  1  0  0  0  0
 24 21  1  0  0  0  0
 25 24  2  0  0  0  0
 25 29  1  0  0  0  0
 26 25  1  0  0  0  0
 27 28  1  0  0  0  0
 27 26  2  0  0  0  0
 28 23  2  0  0  0  0
 30 26  1  0  0  0  0
 31 27  1  0  0  0  0
 32 28  1  0  0  0  0
 33 32  1  0  0  0  0
 34 33  2  0  0  0  0
 35 34  1  0  0  0  0
 36 34  1  0  0  0  0
 36 38  1  0  0  0  0
 37 36  1  0  0  0  0
 38 32  2  0  0  0  0
M  END
>  <minimizedAffinity>
-6.03922224

>  <minimizedRMSD>
0.853582501

$$$$
