
 OpenBabel03272507373D

 21 22  0  0  0  0  0  0  0  0999 V2000
   37.5630   30.3320   49.4220 C   0  0  0  0  0  0  0  0  0  0  0  0
   36.4220   29.6110   49.0810 C   0  0  0  0  0  0  0  0  0  0  0  0
   35.6290   29.0820   50.0730 C   0  0  0  0  0  0  0  0  0  0  0  0
   36.0030   29.2890   51.3710 N   0  0  0  0  0  0  0  0  0  0  0  0
   37.1100   29.9870   51.6910 C   0  0  0  0  0  0  0  0  0  0  0  0
   37.8840   30.5050   50.7290 N   0  0  0  0  0  0  0  0  0  0  0  0
   34.7240   28.5100   49.8590 H   0  0  0  0  0  0  0  0  0  0  0  0
   37.4210   30.1610   52.7100 H   0  0  0  0  0  0  0  0  0  0  0  0
   34.7870   29.9520   47.3070 C   0  0  0  0  0  0  0  0  0  0  0  0
   33.8980   30.7270   47.7940 O   0  0  0  0  0  0  0  0  0  0  0  0
   35.9950   29.3720   47.7680 N   0  0  0  0  0  0  0  0  0  0  0  0
   34.3790   29.7870   46.2960 H   0  0  0  0  0  0  0  0  0  0  0  0
   36.4690   28.7900   47.0290 H   0  0  0  0  0  0  0  0  0  0  0  0
   38.2450   30.7940   48.3260 O   0  0  0  0  0  0  0  0  0  0  0  0
   38.7320   32.0950   48.3490 C   0  0  0  0  0  0  0  0  0  0  0  0
   38.7000   32.8770   49.4680 N   0  0  0  0  0  0  0  0  0  0  0  0
   39.2520   34.0650   49.1260 C   0  0  0  0  0  0  0  0  0  0  0  0
   39.4380   34.9890   49.6840 H   0  0  0  0  0  0  0  0  0  0  0  0
   39.6050   33.9850   47.8230 N   0  0  0  0  0  0  0  0  0  0  0  0
   40.0560   34.7070   47.2240 H   0  0  0  0  0  0  0  0  0  0  0  0
   39.2930   32.7930   47.3450 N   0  0  0  0  0  0  0  0  0  0  0  0
  1  6  1  0  0  0  0
  2  1  2  0  0  0  0
  2  3  1  0  0  0  0
  3  4  2  0  0  0  0
  4  5  1  0  0  0  0
  5  8  1  0  0  0  0
  6  5  2  0  0  0  0
  7  3  1  0  0  0  0
  9 11  1  0  0  0  0
  9 10  2  0  0  0  0
 11  2  1  0  0  0  0
 12  9  1  0  0  0  0
 13 11  1  0  0  0  0
 14 15  1  0  0  0  0
 14  1  1  0  0  0  0
 15 16  1  0  0  0  0
 17 16  2  0  0  0  0
 17 18  1  0  0  0  0
 19 17  1  0  0  0  0
 20 19  1  0  0  0  0
 21 19  1  0  0  0  0
 21 15  2  0  0  0  0
M  END
>  <minimizedAffinity>
-4.63508224

>  <minimizedRMSD>
5.16717243

$$$$
