
 OpenBabel03272506473D

 40 43  0  0  1  0  0  0  0  0999 V2000
   32.1140   28.4480   47.4480 C   0  0  2  0  0  0  0  0  0  0  0  0
   33.3660   28.2830   48.2570 C   0  0  1  0  0  0  0  0  0  0  0  0
   33.7690   26.9860   48.1500 O   0  0  0  0  0  0  0  0  0  0  0  0
   33.0570   26.3680   47.1270 C   0  0  0  0  0  0  0  0  0  0  0  0
   32.4440   27.4610   46.2830 C   0  0  1  0  0  0  0  0  0  0  0  0
   31.1970   28.0980   47.9150 H   0  0  0  0  0  0  0  0  0  0  0  0
   33.1860   28.6180   49.3080 H   0  0  0  0  0  0  0  0  0  0  0  0
   32.3550   25.6970   47.6090 H   0  0  0  0  0  0  0  0  0  0  0  0
   33.7720   25.7730   46.4890 H   0  0  0  0  0  0  0  0  0  0  0  0
   33.1670   27.9550   45.6410 H   0  0  0  0  0  0  0  0  0  0  0  0
   32.0270   29.7560   46.9270 O   0  0  0  0  0  0  0  0  0  0  0  0
   32.1960   29.7520   45.9520 H   0  0  0  0  0  0  0  0  0  0  0  0
   34.6650   29.3410   47.4940 S   0  0  0  0  0  0  0  0  0  0  0  0
   37.0910   29.2710   50.6270 C   0  0  0  0  0  0  0  0  0  0  0  0
   37.5590   30.5840   50.7530 C   0  0  0  0  0  0  0  0  0  0  0  0
   37.0990   31.5300   49.8210 C   0  0  0  0  0  0  0  0  0  0  0  0
   36.2360   31.1240   48.8620 N   0  0  0  0  0  0  0  0  0  0  0  0
   35.8080   29.8460   48.7740 C   0  0  0  0  0  0  0  0  0  0  0  0
   36.2290   28.9020   49.6550 N   0  0  0  0  0  0  0  0  0  0  0  0
   37.4690   28.5730   51.3650 H   0  0  0  0  0  0  0  0  0  0  0  0
   38.2520   30.8400   51.5500 H   0  0  0  0  0  0  0  0  0  0  0  0
   37.4430   32.5470   49.8950 H   0  0  0  0  0  0  0  0  0  0  0  0
   31.2940   26.9820   45.7040 O   0  0  0  0  0  0  0  0  0  0  0  0
   30.0040   29.1480   44.1810 Cl  0  0  0  0  0  0  0  0  0  0  0  0
   29.3490   28.2040   45.4970 C   0  0  0  0  0  0  0  0  0  0  0  0
   30.0520   27.1990   46.1220 C   0  0  0  0  0  0  0  0  0  0  0  0
   29.4100   26.4880   47.1390 C   0  0  0  0  0  0  0  0  0  0  0  0
   28.1120   26.7920   47.4970 C   0  0  0  0  0  0  0  0  0  0  0  0
   27.3990   27.8020   46.8730 C   0  0  0  0  0  0  0  0  0  0  0  0
   28.0460   28.4990   45.8680 C   0  0  0  0  0  0  0  0  0  0  0  0
   29.8590   25.6810   47.6900 H   0  0  0  0  0  0  0  0  0  0  0  0
   27.5610   26.2810   48.2730 H   0  0  0  0  0  0  0  0  0  0  0  0
   26.3850   28.0760   47.1180 H   0  0  0  0  0  0  0  0  0  0  0  0
   27.3160   29.5710   45.1930 C   0  0  0  0  0  0  0  0  0  0  0  0
   26.6250   29.5250   44.0360 N   0  0  0  0  0  0  0  0  0  0  0  0
   26.0900   30.7400   43.7500 C   0  0  0  0  0  0  0  0  0  0  0  0
   25.4900   31.0870   42.9340 H   0  0  0  0  0  0  0  0  0  0  0  0
   26.4600   31.5390   44.7510 N   0  0  0  0  0  0  0  0  0  0  0  0
   26.3030   32.5540   44.9910 H   0  0  0  0  0  0  0  0  0  0  0  0
   27.1860   30.8390   45.6020 N   0  0  0  0  0  0  0  0  0  0  0  0
  1  6  1  1  0  0  0
  1  2  1  0  0  0  0
  2  7  1  1  0  0  0
  3  2  1  0  0  0  0
  4  8  1  0  0  0  0
  4  3  1  0  0  0  0
  5 10  1  6  0  0  0
  5  4  1  0  0  0  0
  5  1  1  0  0  0  0
  9  4  1  0  0  0  0
 11  1  1  0  0  0  0
 12 11  1  0  0  0  0
 13  2  1  0  0  0  0
 13 18  1  0  0  0  0
 14 15  1  0  0  0  0
 14 20  1  0  0  0  0
 15 21  1  0  0  0  0
 16 22  1  0  0  0  0
 16 15  2  0  0  0  0
 17 16  1  0  0  0  0
 18 17  2  0  0  0  0
 18 19  1  0  0  0  0
 19 14  2  0  0  0  0
 23 26  1  0  0  0  0
 23  5  1  0  0  0  0
 24 25  1  0  0  0  0
 25 30  2  0  0  0  0
 25 26  1  0  0  0  0
 26 27  2  0  0  0  0
 27 28  1  0  0  0  0
 27 31  1  0  0  0  0
 28 32  1  0  0  0  0
 29 33  1  0  0  0  0
 29 28  2  0  0  0  0
 30 29  1  0  0  0  0
 34 40  2  0  0  0  0
 34 30  1  0  0  0  0
 35 34  1  0  0  0  0
 36 35  2  0  0  0  0
 36 38  1  0  0  0  0
 37 36  1  0  0  0  0
 38 39  1  0  0  0  0
 38 40  1  0  0  0  0
M  END
>  <minimizedAffinity>
-5.11007547

>  <minimizedRMSD>
0.304140538

$$$$
