
 OpenBabel03272506463D

 40 43  0  0  1  0  0  0  0  0999 V2000
   31.7250   28.2860   47.4430 C   0  0  2  0  0  0  0  0  0  0  0  0
   32.9850   28.0140   48.2100 C   0  0  1  0  0  0  0  0  0  0  0  0
   33.2700   26.6880   48.0950 O   0  0  0  0  0  0  0  0  0  0  0  0
   32.4730   26.1310   47.0990 C   0  0  0  0  0  0  0  0  0  0  0  0
   31.9280   27.2730   46.2720 C   0  0  1  0  0  0  0  0  0  0  0  0
   30.7980   28.0170   47.9420 H   0  0  0  0  0  0  0  0  0  0  0  0
   32.8700   28.3640   49.2660 H   0  0  0  0  0  0  0  0  0  0  0  0
   31.7330   25.5240   47.6070 H   0  0  0  0  0  0  0  0  0  0  0  0
   33.1120   25.4770   46.4390 H   0  0  0  0  0  0  0  0  0  0  0  0
   32.6690   27.7010   45.6040 H   0  0  0  0  0  0  0  0  0  0  0  0
   31.7340   29.5960   46.9200 O   0  0  0  0  0  0  0  0  0  0  0  0
   31.8690   29.5760   45.9400 H   0  0  0  0  0  0  0  0  0  0  0  0
   34.3430   28.9550   47.4000 S   0  0  0  0  0  0  0  0  0  0  0  0
   36.3900   29.3850   50.7660 C   0  0  0  0  0  0  0  0  0  0  0  0
   37.0220   30.6280   50.6500 C   0  0  0  0  0  0  0  0  0  0  0  0
   36.8020   31.3620   49.4720 C   0  0  0  0  0  0  0  0  0  0  0  0
   35.9970   30.8320   48.5240 N   0  0  0  0  0  0  0  0  0  0  0  0
   35.4040   29.6270   48.6730 C   0  0  0  0  0  0  0  0  0  0  0  0
   35.5920   28.8870   49.7970 N   0  0  0  0  0  0  0  0  0  0  0  0
   36.5850   28.8510   51.6890 H   0  0  0  0  0  0  0  0  0  0  0  0
   37.6570   30.9930   51.4540 H   0  0  0  0  0  0  0  0  0  0  0  0
   37.2760   32.3210   49.3570 H   0  0  0  0  0  0  0  0  0  0  0  0
   30.7230   26.8940   45.7340 O   0  0  0  0  0  0  0  0  0  0  0  0
   29.6760   29.1870   44.2090 Cl  0  0  0  0  0  0  0  0  0  0  0  0
   28.9310   28.3330   45.5390 C   0  0  0  0  0  0  0  0  0  0  0  0
   29.5190   27.2570   46.1640 C   0  0  0  0  0  0  0  0  0  0  0  0
   28.8120   26.6310   47.1930 C   0  0  0  0  0  0  0  0  0  0  0  0
   27.5620   27.0870   47.5640 C   0  0  0  0  0  0  0  0  0  0  0  0
   26.9640   28.1690   46.9400 C   0  0  0  0  0  0  0  0  0  0  0  0
   27.6750   28.7800   45.9230 C   0  0  0  0  0  0  0  0  0  0  0  0
   29.1700   25.7810   47.7450 H   0  0  0  0  0  0  0  0  0  0  0  0
   26.9650   26.6480   48.3500 H   0  0  0  0  0  0  0  0  0  0  0  0
   25.9920   28.5600   47.1950 H   0  0  0  0  0  0  0  0  0  0  0  0
   27.0670   29.9260   45.2480 C   0  0  0  0  0  0  0  0  0  0  0  0
   27.0590   31.2210   45.6240 N   0  0  0  0  0  0  0  0  0  0  0  0
   26.3830   31.9750   44.7180 C   0  0  0  0  0  0  0  0  0  0  0  0
   26.1700   33.0240   44.6740 H   0  0  0  0  0  0  0  0  0  0  0  0
   25.9730   31.1250   43.7770 N   0  0  0  0  0  0  0  0  0  0  0  0
   25.4230   31.2140   42.8820 H   0  0  0  0  0  0  0  0  0  0  0  0
   26.3820   29.9130   44.0980 N   0  0  0  0  0  0  0  0  0  0  0  0
  1  6  1  1  0  0  0
  1  2  1  0  0  0  0
  2  7  1  1  0  0  0
  3  2  1  0  0  0  0
  4  8  1  0  0  0  0
  4  3  1  0  0  0  0
  5 10  1  6  0  0  0
  5  4  1  0  0  0  0
  5  1  1  0  0  0  0
  9  4  1  0  0  0  0
 11  1  1  0  0  0  0
 12 11  1  0  0  0  0
 13  2  1  0  0  0  0
 13 18  1  0  0  0  0
 14 20  1  0  0  0  0
 15 14  1  0  0  0  0
 15 21  1  0  0  0  0
 16 15  2  0  0  0  0
 17 18  2  0  0  0  0
 17 16  1  0  0  0  0
 18 19  1  0  0  0  0
 19 14  2  0  0  0  0
 22 16  1  0  0  0  0
 23 26  1  0  0  0  0
 23  5  1  0  0  0  0
 24 25  1  0  0  0  0
 25 30  2  0  0  0  0
 25 26  1  0  0  0  0
 26 27  2  0  0  0  0
 27 28  1  0  0  0  0
 27 31  1  0  0  0  0
 28 32  1  0  0  0  0
 29 33  1  0  0  0  0
 29 28  2  0  0  0  0
 30 29  1  0  0  0  0
 34 35  1  0  0  0  0
 34 30  1  0  0  0  0
 36 35  2  0  0  0  0
 37 36  1  0  0  0  0
 38 40  1  0  0  0  0
 38 36  1  0  0  0  0
 39 38  1  0  0  0  0
 40 34  2  0  0  0  0
M  END
>  <minimizedAffinity>
-5.16847324

>  <minimizedRMSD>
0.809160292

$$$$
