
 OpenBabel03272506473D

 40 43  0  0  1  0  0  0  0  0999 V2000
   32.1610   28.4540   47.4870 C   0  0  2  0  0  0  0  0  0  0  0  0
   33.4250   28.2510   48.2700 C   0  0  1  0  0  0  0  0  0  0  0  0
   33.7940   26.9470   48.1440 O   0  0  0  0  0  0  0  0  0  0  0  0
   33.0470   26.3540   47.1300 C   0  0  0  0  0  0  0  0  0  0  0  0
   32.4440   27.4700   46.3080 C   0  0  1  0  0  0  0  0  0  0  0  0
   31.2460   28.1210   47.9700 H   0  0  0  0  0  0  0  0  0  0  0  0
   33.2740   28.5810   49.3280 H   0  0  0  0  0  0  0  0  0  0  0  0
   32.3390   25.6960   47.6200 H   0  0  0  0  0  0  0  0  0  0  0  0
   33.7340   25.7490   46.4720 H   0  0  0  0  0  0  0  0  0  0  0  0
   33.1660   27.9520   45.6560 H   0  0  0  0  0  0  0  0  0  0  0  0
   32.0960   29.7680   46.9800 O   0  0  0  0  0  0  0  0  0  0  0  0
   32.2450   29.7690   46.0010 H   0  0  0  0  0  0  0  0  0  0  0  0
   34.7330   29.2850   47.4900 S   0  0  0  0  0  0  0  0  0  0  0  0
   37.1260   29.3010   50.6500 C   0  0  0  0  0  0  0  0  0  0  0  0
   37.5960   30.6170   50.7410 C   0  0  0  0  0  0  0  0  0  0  0  0
   37.1490   31.5360   49.7770 C   0  0  0  0  0  0  0  0  0  0  0  0
   36.2950   31.1040   48.8220 N   0  0  0  0  0  0  0  0  0  0  0  0
   35.8640   29.8250   48.7660 C   0  0  0  0  0  0  0  0  0  0  0  0
   36.2730   28.9060   49.6800 N   0  0  0  0  0  0  0  0  0  0  0  0
   37.4940   28.6250   51.4120 H   0  0  0  0  0  0  0  0  0  0  0  0
   38.2820   30.8950   51.5380 H   0  0  0  0  0  0  0  0  0  0  0  0
   37.4950   32.5530   49.8240 H   0  0  0  0  0  0  0  0  0  0  0  0
   31.2710   27.0240   45.7480 O   0  0  0  0  0  0  0  0  0  0  0  0
   30.0230   29.2900   44.3400 Cl  0  0  0  0  0  0  0  0  0  0  0  0
   29.3620   28.3100   45.6280 C   0  0  0  0  0  0  0  0  0  0  0  0
   30.0440   27.2600   46.1980 C   0  0  0  0  0  0  0  0  0  0  0  0
   29.3990   26.5260   47.1960 C   0  0  0  0  0  0  0  0  0  0  0  0
   28.1160   26.8530   47.5900 C   0  0  0  0  0  0  0  0  0  0  0  0
   27.4240   27.9090   47.0220 C   0  0  0  0  0  0  0  0  0  0  0  0
   28.0740   28.6280   46.0350 C   0  0  0  0  0  0  0  0  0  0  0  0
   29.8310   25.6840   47.7040 H   0  0  0  0  0  0  0  0  0  0  0  0
   27.5640   26.3270   48.3550 H   0  0  0  0  0  0  0  0  0  0  0  0
   26.4230   28.2030   47.2970 H   0  0  0  0  0  0  0  0  0  0  0  0
   27.3660   29.7490   45.4180 C   0  0  0  0  0  0  0  0  0  0  0  0
   27.3000   31.0330   45.8240 N   0  0  0  0  0  0  0  0  0  0  0  0
   26.5360   31.7650   44.9720 C   0  0  0  0  0  0  0  0  0  0  0  0
   26.2590   32.7990   44.9640 H   0  0  0  0  0  0  0  0  0  0  0  0
   26.1300   30.9110   44.0320 N   0  0  0  0  0  0  0  0  0  0  0  0
   25.5310   30.9850   43.1680 H   0  0  0  0  0  0  0  0  0  0  0  0
   26.6260   29.7180   44.3040 N   0  0  0  0  0  0  0  0  0  0  0  0
  1  6  1  1  0  0  0
  1  2  1  0  0  0  0
  2  7  1  1  0  0  0
  3  2  1  0  0  0  0
  4  8  1  0  0  0  0
  4  3  1  0  0  0  0
  5 10  1  6  0  0  0
  5  4  1  0  0  0  0
  5  1  1  0  0  0  0
  9  4  1  0  0  0  0
 11  1  1  0  0  0  0
 12 11  1  0  0  0  0
 13  2  1  0  0  0  0
 13 18  1  0  0  0  0
 14 15  1  0  0  0  0
 14 20  1  0  0  0  0
 15 21  1  0  0  0  0
 16 22  1  0  0  0  0
 16 15  2  0  0  0  0
 17 16  1  0  0  0  0
 18 17  2  0  0  0  0
 18 19  1  0  0  0  0
 19 14  2  0  0  0  0
 23 26  1  0  0  0  0
 23  5  1  0  0  0  0
 24 25  1  0  0  0  0
 25 30  2  0  0  0  0
 25 26  1  0  0  0  0
 26 27  2  0  0  0  0
 27 28  1  0  0  0  0
 27 31  1  0  0  0  0
 28 32  1  0  0  0  0
 29 33  1  0  0  0  0
 29 28  2  0  0  0  0
 30 29  1  0  0  0  0
 34 35  1  0  0  0  0
 34 30  1  0  0  0  0
 36 35  2  0  0  0  0
 37 36  1  0  0  0  0
 38 40  1  0  0  0  0
 38 36  1  0  0  0  0
 39 38  1  0  0  0  0
 40 34  2  0  0  0  0
M  END
>  <minimizedAffinity>
-5.15067434

>  <minimizedRMSD>
0.304762244

$$$$
