
 OpenBabel03272506473D

 40 43  0  0  1  0  0  0  0  0999 V2000
   32.1520   28.4530   47.4860 C   0  0  2  0  0  0  0  0  0  0  0  0
   33.4160   28.2510   48.2680 C   0  0  1  0  0  0  0  0  0  0  0  0
   33.7850   26.9460   48.1420 O   0  0  0  0  0  0  0  0  0  0  0  0
   33.0370   26.3530   47.1300 C   0  0  0  0  0  0  0  0  0  0  0  0
   32.4340   27.4680   46.3070 C   0  0  1  0  0  0  0  0  0  0  0  0
   31.2370   28.1210   47.9690 H   0  0  0  0  0  0  0  0  0  0  0  0
   33.2660   28.5810   49.3250 H   0  0  0  0  0  0  0  0  0  0  0  0
   32.3290   25.6960   47.6200 H   0  0  0  0  0  0  0  0  0  0  0  0
   33.7240   25.7470   46.4720 H   0  0  0  0  0  0  0  0  0  0  0  0
   33.1560   27.9500   45.6540 H   0  0  0  0  0  0  0  0  0  0  0  0
   32.0870   29.7670   46.9770 O   0  0  0  0  0  0  0  0  0  0  0  0
   32.2360   29.7680   45.9990 H   0  0  0  0  0  0  0  0  0  0  0  0
   34.7240   29.2840   47.4870 S   0  0  0  0  0  0  0  0  0  0  0  0
   37.1170   29.3000   50.6460 C   0  0  0  0  0  0  0  0  0  0  0  0
   37.5910   30.6140   50.7350 C   0  0  0  0  0  0  0  0  0  0  0  0
   37.1470   31.5320   49.7690 C   0  0  0  0  0  0  0  0  0  0  0  0
   36.2920   31.1000   48.8150 N   0  0  0  0  0  0  0  0  0  0  0  0
   35.8570   29.8230   48.7620 C   0  0  0  0  0  0  0  0  0  0  0  0
   36.2630   28.9040   49.6770 N   0  0  0  0  0  0  0  0  0  0  0  0
   37.4830   28.6240   51.4100 H   0  0  0  0  0  0  0  0  0  0  0  0
   38.2780   30.8910   51.5320 H   0  0  0  0  0  0  0  0  0  0  0  0
   37.4950   32.5490   49.8140 H   0  0  0  0  0  0  0  0  0  0  0  0
   31.2610   27.0220   45.7480 O   0  0  0  0  0  0  0  0  0  0  0  0
   30.0150   29.2870   44.3360 Cl  0  0  0  0  0  0  0  0  0  0  0  0
   29.3530   28.3100   45.6250 C   0  0  0  0  0  0  0  0  0  0  0  0
   30.0330   27.2610   46.1970 C   0  0  0  0  0  0  0  0  0  0  0  0
   29.3880   26.5290   47.1960 C   0  0  0  0  0  0  0  0  0  0  0  0
   28.1060   26.8580   47.5900 C   0  0  0  0  0  0  0  0  0  0  0  0
   27.4140   27.9140   47.0190 C   0  0  0  0  0  0  0  0  0  0  0  0
   28.0660   28.6310   46.0310 C   0  0  0  0  0  0  0  0  0  0  0  0
   29.8200   25.6870   47.7060 H   0  0  0  0  0  0  0  0  0  0  0  0
   27.5530   26.3330   48.3550 H   0  0  0  0  0  0  0  0  0  0  0  0
   26.4140   28.2090   47.2940 H   0  0  0  0  0  0  0  0  0  0  0  0
   27.3580   29.7510   45.4130 C   0  0  0  0  0  0  0  0  0  0  0  0
   27.2930   31.0360   45.8170 N   0  0  0  0  0  0  0  0  0  0  0  0
   26.5300   31.7670   44.9620 C   0  0  0  0  0  0  0  0  0  0  0  0
   26.2540   32.8010   44.9530 H   0  0  0  0  0  0  0  0  0  0  0  0
   26.1240   30.9120   44.0230 N   0  0  0  0  0  0  0  0  0  0  0  0
   25.5250   30.9840   43.1600 H   0  0  0  0  0  0  0  0  0  0  0  0
   26.6190   29.7200   44.2970 N   0  0  0  0  0  0  0  0  0  0  0  0
  1  6  1  1  0  0  0
  1  2  1  0  0  0  0
  2  7  1  1  0  0  0
  3  2  1  0  0  0  0
  4  8  1  0  0  0  0
  4  3  1  0  0  0  0
  5 10  1  6  0  0  0
  5  4  1  0  0  0  0
  5  1  1  0  0  0  0
  9  4  1  0  0  0  0
 11  1  1  0  0  0  0
 12 11  1  0  0  0  0
 13  2  1  0  0  0  0
 13 18  1  0  0  0  0
 14 15  1  0  0  0  0
 14 20  1  0  0  0  0
 15 21  1  0  0  0  0
 16 22  1  0  0  0  0
 16 15  2  0  0  0  0
 17 16  1  0  0  0  0
 18 17  2  0  0  0  0
 18 19  1  0  0  0  0
 19 14  2  0  0  0  0
 23 26  1  0  0  0  0
 23  5  1  0  0  0  0
 24 25  1  0  0  0  0
 25 30  2  0  0  0  0
 25 26  1  0  0  0  0
 26 27  2  0  0  0  0
 27 28  1  0  0  0  0
 27 31  1  0  0  0  0
 28 32  1  0  0  0  0
 29 33  1  0  0  0  0
 29 28  2  0  0  0  0
 30 29  1  0  0  0  0
 34 35  1  0  0  0  0
 34 30  1  0  0  0  0
 36 35  2  0  0  0  0
 37 36  1  0  0  0  0
 38 40  1  0  0  0  0
 38 36  1  0  0  0  0
 39 38  1  0  0  0  0
 40 34  2  0  0  0  0
M  END
>  <minimizedAffinity>
-5.14959288

>  <minimizedRMSD>
0.293605477

$$$$
