
 OpenBabel03272506473D

 40 43  0  0  1  0  0  0  0  0999 V2000
   32.1410   28.4490   47.4670 C   0  0  2  0  0  0  0  0  0  0  0  0
   33.3930   28.3030   48.2810 C   0  0  1  0  0  0  0  0  0  0  0  0
   33.8100   27.0100   48.1850 O   0  0  0  0  0  0  0  0  0  0  0  0
   33.1080   26.3770   47.1630 C   0  0  0  0  0  0  0  0  0  0  0  0
   32.4860   27.4580   46.3100 C   0  0  1  0  0  0  0  0  0  0  0  0
   31.2270   28.0910   47.9330 H   0  0  0  0  0  0  0  0  0  0  0  0
   33.2050   28.6420   49.3300 H   0  0  0  0  0  0  0  0  0  0  0  0
   32.4120   25.7020   47.6470 H   0  0  0  0  0  0  0  0  0  0  0  0
   33.8320   25.7860   46.5310 H   0  0  0  0  0  0  0  0  0  0  0  0
   33.2060   27.9550   45.6670 H   0  0  0  0  0  0  0  0  0  0  0  0
   32.0420   29.7520   46.9370 O   0  0  0  0  0  0  0  0  0  0  0  0
   32.2150   29.7440   45.9620 H   0  0  0  0  0  0  0  0  0  0  0  0
   34.6820   29.3700   47.5160 S   0  0  0  0  0  0  0  0  0  0  0  0
   37.1240   29.2820   50.6360 C   0  0  0  0  0  0  0  0  0  0  0  0
   37.6010   30.5930   50.7600 C   0  0  0  0  0  0  0  0  0  0  0  0
   37.1430   31.5420   49.8310 C   0  0  0  0  0  0  0  0  0  0  0  0
   36.2720   31.1420   48.8770 N   0  0  0  0  0  0  0  0  0  0  0  0
   35.8350   29.8670   48.7900 C   0  0  0  0  0  0  0  0  0  0  0  0
   36.2550   28.9190   49.6680 N   0  0  0  0  0  0  0  0  0  0  0  0
   37.5020   28.5810   51.3710 H   0  0  0  0  0  0  0  0  0  0  0  0
   38.3010   30.8430   51.5540 H   0  0  0  0  0  0  0  0  0  0  0  0
   37.4930   32.5560   49.9040 H   0  0  0  0  0  0  0  0  0  0  0  0
   31.3440   26.9630   45.7300 O   0  0  0  0  0  0  0  0  0  0  0  0
   30.0210   29.0800   44.1670 Cl  0  0  0  0  0  0  0  0  0  0  0  0
   29.3800   28.1480   45.5000 C   0  0  0  0  0  0  0  0  0  0  0  0
   30.0980   27.1670   46.1440 C   0  0  0  0  0  0  0  0  0  0  0  0
   29.4670   26.4640   47.1730 C   0  0  0  0  0  0  0  0  0  0  0  0
   28.1640   26.7530   47.5250 C   0  0  0  0  0  0  0  0  0  0  0  0
   27.4350   27.7400   46.8820 C   0  0  0  0  0  0  0  0  0  0  0  0
   28.0710   28.4290   45.8650 C   0  0  0  0  0  0  0  0  0  0  0  0
   29.9280   25.6740   47.7380 H   0  0  0  0  0  0  0  0  0  0  0  0
   27.6210   26.2470   48.3100 H   0  0  0  0  0  0  0  0  0  0  0  0
   26.4170   28.0020   47.1220 H   0  0  0  0  0  0  0  0  0  0  0  0
   27.3250   29.4770   45.1700 C   0  0  0  0  0  0  0  0  0  0  0  0
   26.6080   29.3910   44.0320 N   0  0  0  0  0  0  0  0  0  0  0  0
   26.0640   30.5960   43.7170 C   0  0  0  0  0  0  0  0  0  0  0  0
   25.4450   30.9140   42.9040 H   0  0  0  0  0  0  0  0  0  0  0  0
   26.4560   31.4280   44.6820 N   0  0  0  0  0  0  0  0  0  0  0  0
   26.3040   32.4510   44.8900 H   0  0  0  0  0  0  0  0  0  0  0  0
   27.2030   30.7590   45.5390 N   0  0  0  0  0  0  0  0  0  0  0  0
  1  6  1  1  0  0  0
  1  2  1  0  0  0  0
  2  7  1  1  0  0  0
  3  2  1  0  0  0  0
  4  8  1  0  0  0  0
  4  3  1  0  0  0  0
  5 10  1  6  0  0  0
  5  4  1  0  0  0  0
  5  1  1  0  0  0  0
  9  4  1  0  0  0  0
 11  1  1  0  0  0  0
 12 11  1  0  0  0  0
 13  2  1  0  0  0  0
 13 18  1  0  0  0  0
 14 15  1  0  0  0  0
 14 20  1  0  0  0  0
 15 21  1  0  0  0  0
 16 22  1  0  0  0  0
 16 15  2  0  0  0  0
 17 16  1  0  0  0  0
 18 17  2  0  0  0  0
 18 19  1  0  0  0  0
 19 14  2  0  0  0  0
 23 26  1  0  0  0  0
 23  5  1  0  0  0  0
 24 25  1  0  0  0  0
 25 30  2  0  0  0  0
 25 26  1  0  0  0  0
 26 27  2  0  0  0  0
 27 28  1  0  0  0  0
 27 31  1  0  0  0  0
 28 32  1  0  0  0  0
 29 33  1  0  0  0  0
 29 28  2  0  0  0  0
 30 29  1  0  0  0  0
 34 40  2  0  0  0  0
 34 30  1  0  0  0  0
 35 34  1  0  0  0  0
 36 35  2  0  0  0  0
 36 38  1  0  0  0  0
 37 36  1  0  0  0  0
 38 39  1  0  0  0  0
 38 40  1  0  0  0  0
M  END
>  <minimizedAffinity>
-5.10091496

>  <minimizedRMSD>
0.365466565

$$$$
