
 OpenBabel03272509573D

 44 47  0  0  0  0  0  0  0  0999 V2000
   34.2530   28.8740   48.0090 C   0  0  0  0  0  0  0  0  0  0  0  0
   34.8830   29.3940   47.2360 H   0  0  0  0  0  0  0  0  0  0  0  0
   33.6000   29.6580   48.4300 H   0  0  0  0  0  0  0  0  0  0  0  0
   33.3720   27.8130   47.4160 C   0  0  0  0  0  0  0  0  0  0  0  0
   33.4400   27.9220   46.3110 H   0  0  0  0  0  0  0  0  0  0  0  0
   33.6930   26.7970   47.7260 H   0  0  0  0  0  0  0  0  0  0  0  0
   31.9460   27.9930   47.7730 C   0  0  0  0  0  0  0  0  0  0  0  0
   31.5420   27.6210   49.0500 C   0  0  0  0  0  0  0  0  0  0  0  0
   30.2460   27.7480   49.4750 C   0  0  0  0  0  0  0  0  0  0  0  0
   29.3370   28.2440   48.6450 N   0  0  0  0  0  0  0  0  0  0  0  0
   29.7400   28.6060   47.3970 C   0  0  0  0  0  0  0  0  0  0  0  0
   30.9950   28.4970   46.9470 N   0  0  0  0  0  0  0  0  0  0  0  0
   32.2510   27.2100   49.7620 H   0  0  0  0  0  0  0  0  0  0  0  0
   29.9150   27.4630   50.4600 H   0  0  0  0  0  0  0  0  0  0  0  0
   28.6820   29.1630   46.4890 C   0  0  0  0  0  0  0  0  0  0  0  0
   27.7370   29.3460   47.0690 H   0  0  0  0  0  0  0  0  0  0  0  0
   29.0120   30.0160   45.9020 H   0  0  0  0  0  0  0  0  0  0  0  0
   28.3730   28.0520   45.5270 C   0  0  0  0  0  0  0  0  0  0  0  0
   28.4950   28.1650   44.1770 N   0  0  0  0  0  0  0  0  0  0  0  0
   28.1420   26.9930   43.6270 C   0  0  0  0  0  0  0  0  0  0  0  0
   28.1430   26.7970   42.5600 H   0  0  0  0  0  0  0  0  0  0  0  0
   27.7980   26.1480   44.6400 N   0  0  0  0  0  0  0  0  0  0  0  0
   27.4780   25.1640   44.5380 H   0  0  0  0  0  0  0  0  0  0  0  0
   27.9400   26.7920   45.7680 N   0  0  0  0  0  0  0  0  0  0  0  0
   35.0490   28.3560   49.0570 O   0  0  0  0  0  0  0  0  0  0  0  0
   37.2490   30.1480   51.2780 C   0  0  0  0  0  0  0  0  0  0  0  0
   38.0350   30.8660   50.3530 C   0  0  0  0  0  0  0  0  0  0  0  0
   37.7490   30.6820   49.0100 C   0  0  0  0  0  0  0  0  0  0  0  0
   36.7320   29.8210   48.7160 N   0  0  0  0  0  0  0  0  0  0  0  0
   36.0020   29.1510   49.6050 C   0  0  0  0  0  0  0  0  0  0  0  0
   36.2820   29.3320   50.9190 N   0  0  0  0  0  0  0  0  0  0  0  0
   37.4810   30.3000   52.3210 H   0  0  0  0  0  0  0  0  0  0  0  0
   38.8290   31.5400   50.5890 H   0  0  0  0  0  0  0  0  0  0  0  0
   38.9270   33.3210   48.9410 F   0  0  0  0  0  0  0  0  0  0  0  0
   38.9820   32.5480   47.8540 C   0  0  0  0  0  0  0  0  0  0  0  0
   38.4290   31.3200   47.8980 C   0  0  0  0  0  0  0  0  0  0  0  0
   38.5430   30.6010   46.7160 C   0  0  0  0  0  0  0  0  0  0  0  0
   39.1630   31.0970   45.6010 C   0  0  0  0  0  0  0  0  0  0  0  0
   39.7160   32.3590   45.5960 C   0  0  0  0  0  0  0  0  0  0  0  0
   39.6180   33.0900   46.7500 C   0  0  0  0  0  0  0  0  0  0  0  0
   38.1460   29.5980   46.6000 H   0  0  0  0  0  0  0  0  0  0  0  0
   39.2510   30.5350   44.6790 H   0  0  0  0  0  0  0  0  0  0  0  0
   40.2160   32.7910   44.7380 H   0  0  0  0  0  0  0  0  0  0  0  0
   40.0420   34.0840   46.7800 H   0  0  0  0  0  0  0  0  0  0  0  0
  1  3  1  0  0  0  0
  1 25  1  0  0  0  0
  2  1  1  0  0  0  0
  4  6  1  0  0  0  0
  4  7  1  0  0  0  0
  4  1  1  0  0  0  0
  5  4  1  0  0  0  0
  7  8  1  0  0  0  0
  8  9  2  0  0  0  0
  8 13  1  0  0  0  0
  9 14  1  0  0  0  0
 10  9  1  0  0  0  0
 11 10  2  0  0  0  0
 12 11  1  0  0  0  0
 12  7  2  0  0  0  0
 15 16  1  0  0  0  0
 15 11  1  0  0  0  0
 17 15  1  0  0  0  0
 18 24  2  0  0  0  0
 18 15  1  0  0  0  0
 19 18  1  0  0  0  0
 20 19  2  0  0  0  0
 20 22  1  0  0  0  0
 21 20  1  0  0  0  0
 22 24  1  0  0  0  0
 23 22  1  0  0  0  0
 25 30  1  0  0  0  0
 26 32  1  0  0  0  0
 27 33  1  0  0  0  0
 27 26  2  0  0  0  0
 28 27  1  0  0  0  0
 29 28  2  0  0  0  0
 29 30  1  0  0  0  0
 30 31  2  0  0  0  0
 31 26  1  0  0  0  0
 35 36  1  0  0  0  0
 35 34  1  0  0  0  0
 36 28  1  0  0  0  0
 37 36  2  0  0  0  0
 38 37  1  0  0  0  0
 39 38  2  0  0  0  0
 39 40  1  0  0  0  0
 40 44  1  0  0  0  0
 40 35  2  0  0  0  0
 41 37  1  0  0  0  0
 42 38  1  0  0  0  0
 43 39  1  0  0  0  0
M  END
>  <minimizedAffinity>
-6.28272486

>  <minimizedRMSD>
0.557334363

$$$$
