
 OpenBabel03272509573D

 44 47  0  0  0  0  0  0  0  0999 V2000
   34.4400   28.6230   48.1680 C   0  0  0  0  0  0  0  0  0  0  0  0
   35.2390   28.8740   47.4180 H   0  0  0  0  0  0  0  0  0  0  0  0
   33.8280   29.5380   48.2610 H   0  0  0  0  0  0  0  0  0  0  0  0
   33.5400   27.5160   47.7030 C   0  0  0  0  0  0  0  0  0  0  0  0
   33.7810   27.3360   46.6330 H   0  0  0  0  0  0  0  0  0  0  0  0
   33.6940   26.5900   48.2950 H   0  0  0  0  0  0  0  0  0  0  0  0
   32.1060   27.8850   47.7600 C   0  0  0  0  0  0  0  0  0  0  0  0
   31.3680   27.4610   48.8580 C   0  0  0  0  0  0  0  0  0  0  0  0
   30.0370   27.7510   49.0020 C   0  0  0  0  0  0  0  0  0  0  0  0
   29.4230   28.4620   48.0650 N   0  0  0  0  0  0  0  0  0  0  0  0
   30.1530   28.8730   46.9930 C   0  0  0  0  0  0  0  0  0  0  0  0
   31.4520   28.6100   46.8190 N   0  0  0  0  0  0  0  0  0  0  0  0
   31.8280   26.8760   49.6480 H   0  0  0  0  0  0  0  0  0  0  0  0
   29.4480   27.4300   49.8460 H   0  0  0  0  0  0  0  0  0  0  0  0
   29.4220   29.6760   45.9560 C   0  0  0  0  0  0  0  0  0  0  0  0
   28.9440   30.5730   46.4330 H   0  0  0  0  0  0  0  0  0  0  0  0
   30.0210   29.9090   45.0790 H   0  0  0  0  0  0  0  0  0  0  0  0
   28.2950   28.7920   45.5050 C   0  0  0  0  0  0  0  0  0  0  0  0
   26.9800   29.1100   45.6470 N   0  0  0  0  0  0  0  0  0  0  0  0
   26.2500   28.1040   45.1420 C   0  0  0  0  0  0  0  0  0  0  0  0
   25.1670   28.0900   45.1220 H   0  0  0  0  0  0  0  0  0  0  0  0
   27.1160   27.1560   44.6830 N   0  0  0  0  0  0  0  0  0  0  0  0
   26.8590   26.2540   44.2350 H   0  0  0  0  0  0  0  0  0  0  0  0
   28.3330   27.5790   44.9070 N   0  0  0  0  0  0  0  0  0  0  0  0
   34.9960   28.3380   49.4360 O   0  0  0  0  0  0  0  0  0  0  0  0
   37.3200   30.1750   51.4880 C   0  0  0  0  0  0  0  0  0  0  0  0
   38.0620   30.8600   50.5040 C   0  0  0  0  0  0  0  0  0  0  0  0
   37.7050   30.6390   49.1830 C   0  0  0  0  0  0  0  0  0  0  0  0
   36.6690   29.7780   48.9670 N   0  0  0  0  0  0  0  0  0  0  0  0
   35.9810   29.1400   49.9110 C   0  0  0  0  0  0  0  0  0  0  0  0
   36.3300   29.3560   51.2030 N   0  0  0  0  0  0  0  0  0  0  0  0
   37.6070   30.3550   52.5120 H   0  0  0  0  0  0  0  0  0  0  0  0
   38.8720   31.5340   50.6780 H   0  0  0  0  0  0  0  0  0  0  0  0
   38.9580   33.2380   48.9950 F   0  0  0  0  0  0  0  0  0  0  0  0
   38.9180   32.4490   47.9190 C   0  0  0  0  0  0  0  0  0  0  0  0
   38.3310   31.2390   48.0190 C   0  0  0  0  0  0  0  0  0  0  0  0
   38.3460   30.5000   46.8440 C   0  0  0  0  0  0  0  0  0  0  0  0
   38.9070   30.9610   45.6830 C   0  0  0  0  0  0  0  0  0  0  0  0
   39.4980   32.2040   45.6220 C   0  0  0  0  0  0  0  0  0  0  0  0
   39.4980   32.9550   46.7690 C   0  0  0  0  0  0  0  0  0  0  0  0
   37.9120   29.5100   46.7700 H   0  0  0  0  0  0  0  0  0  0  0  0
   38.9180   30.3840   44.7660 H   0  0  0  0  0  0  0  0  0  0  0  0
   39.9540   32.6080   44.7270 H   0  0  0  0  0  0  0  0  0  0  0  0
   39.9530   33.9340   46.7560 H   0  0  0  0  0  0  0  0  0  0  0  0
  1  3  1  0  0  0  0
  1 25  1  0  0  0  0
  2  1  1  0  0  0  0
  4  7  1  0  0  0  0
  4  1  1  0  0  0  0
  4  6  1  0  0  0  0
  5  4  1  0  0  0  0
  7  8  1  0  0  0  0
  8  9  2  0  0  0  0
  8 13  1  0  0  0  0
  9 14  1  0  0  0  0
 10  9  1  0  0  0  0
 11 10  2  0  0  0  0
 12 11  1  0  0  0  0
 12  7  2  0  0  0  0
 15 16  1  0  0  0  0
 15 11  1  0  0  0  0
 17 15  1  0  0  0  0
 18 19  1  0  0  0  0
 18 15  1  0  0  0  0
 20 19  2  0  0  0  0
 21 20  1  0  0  0  0
 22 24  1  0  0  0  0
 22 20  1  0  0  0  0
 23 22  1  0  0  0  0
 24 18  2  0  0  0  0
 25 30  1  0  0  0  0
 26 32  1  0  0  0  0
 27 33  1  0  0  0  0
 27 26  2  0  0  0  0
 28 27  1  0  0  0  0
 29 28  2  0  0  0  0
 29 30  1  0  0  0  0
 30 31  2  0  0  0  0
 31 26  1  0  0  0  0
 35 36  1  0  0  0  0
 35 34  1  0  0  0  0
 36 28  1  0  0  0  0
 37 36  2  0  0  0  0
 38 37  1  0  0  0  0
 39 38  2  0  0  0  0
 39 40  1  0  0  0  0
 40 35  2  0  0  0  0
 41 37  1  0  0  0  0
 42 38  1  0  0  0  0
 43 39  1  0  0  0  0
 44 40  1  0  0  0  0
M  END
>  <minimizedAffinity>
-6.50261164

>  <minimizedRMSD>
0.74650538

$$$$
