
 OpenBabel03272509573D

 44 47  0  0  0  0  0  0  0  0999 V2000
   34.4200   28.6500   48.1230 C   0  0  0  0  0  0  0  0  0  0  0  0
   35.2240   28.9110   47.3820 H   0  0  0  0  0  0  0  0  0  0  0  0
   33.8060   29.5630   48.2240 H   0  0  0  0  0  0  0  0  0  0  0  0
   33.5240   27.5470   47.6390 C   0  0  0  0  0  0  0  0  0  0  0  0
   33.7450   27.4080   46.5580 H   0  0  0  0  0  0  0  0  0  0  0  0
   33.7030   26.6040   48.1960 H   0  0  0  0  0  0  0  0  0  0  0  0
   32.0880   27.8960   47.7380 C   0  0  0  0  0  0  0  0  0  0  0  0
   31.3770   27.4220   48.8340 C   0  0  0  0  0  0  0  0  0  0  0  0
   30.0460   27.6900   49.0150 C   0  0  0  0  0  0  0  0  0  0  0  0
   29.4040   28.4270   48.1170 N   0  0  0  0  0  0  0  0  0  0  0  0
   30.1070   28.8860   47.0470 C   0  0  0  0  0  0  0  0  0  0  0  0
   31.4060   28.6460   46.8370 N   0  0  0  0  0  0  0  0  0  0  0  0
   31.8600   26.8150   49.5930 H   0  0  0  0  0  0  0  0  0  0  0  0
   29.4790   27.3300   49.8580 H   0  0  0  0  0  0  0  0  0  0  0  0
   29.3450   29.7160   46.0540 C   0  0  0  0  0  0  0  0  0  0  0  0
   28.9670   30.6510   46.5490 H   0  0  0  0  0  0  0  0  0  0  0  0
   29.8830   29.8930   45.1260 H   0  0  0  0  0  0  0  0  0  0  0  0
   28.1310   28.9000   45.7180 C   0  0  0  0  0  0  0  0  0  0  0  0
   28.1590   27.7950   44.9250 N   0  0  0  0  0  0  0  0  0  0  0  0
   26.9080   27.3150   44.8330 C   0  0  0  0  0  0  0  0  0  0  0  0
   26.6350   26.4360   44.2620 H   0  0  0  0  0  0  0  0  0  0  0  0
   26.1010   28.1260   45.5730 N   0  0  0  0  0  0  0  0  0  0  0  0
   25.0750   28.0190   45.7040 H   0  0  0  0  0  0  0  0  0  0  0  0
   26.8430   29.0670   46.0950 N   0  0  0  0  0  0  0  0  0  0  0  0
   34.9690   28.3490   49.3910 O   0  0  0  0  0  0  0  0  0  0  0  0
   37.2940   30.1540   51.4700 C   0  0  0  0  0  0  0  0  0  0  0  0
   38.0450   30.8420   50.4960 C   0  0  0  0  0  0  0  0  0  0  0  0
   37.6940   30.6350   49.1710 C   0  0  0  0  0  0  0  0  0  0  0  0
   36.6530   29.7820   48.9430 N   0  0  0  0  0  0  0  0  0  0  0  0
   35.9570   29.1410   49.8770 C   0  0  0  0  0  0  0  0  0  0  0  0
   36.3000   29.3440   51.1740 N   0  0  0  0  0  0  0  0  0  0  0  0
   37.5760   30.3230   52.4980 H   0  0  0  0  0  0  0  0  0  0  0  0
   38.8590   31.5090   50.6800 H   0  0  0  0  0  0  0  0  0  0  0  0
   38.9420   33.2370   49.0050 F   0  0  0  0  0  0  0  0  0  0  0  0
   38.9160   32.4520   47.9260 C   0  0  0  0  0  0  0  0  0  0  0  0
   38.3300   31.2400   48.0160 C   0  0  0  0  0  0  0  0  0  0  0  0
   38.3590   30.5060   46.8380 C   0  0  0  0  0  0  0  0  0  0  0  0
   38.9300   30.9710   45.6850 C   0  0  0  0  0  0  0  0  0  0  0  0
   39.5180   32.2170   45.6340 C   0  0  0  0  0  0  0  0  0  0  0  0
   39.5050   32.9630   46.7830 C   0  0  0  0  0  0  0  0  0  0  0  0
   37.9270   29.5140   46.7570 H   0  0  0  0  0  0  0  0  0  0  0  0
   38.9510   30.3980   44.7660 H   0  0  0  0  0  0  0  0  0  0  0  0
   39.9820   32.6250   44.7450 H   0  0  0  0  0  0  0  0  0  0  0  0
   39.9580   33.9440   46.7780 H   0  0  0  0  0  0  0  0  0  0  0  0
  1  3  1  0  0  0  0
  1 25  1  0  0  0  0
  2  1  1  0  0  0  0
  4  7  1  0  0  0  0
  4  1  1  0  0  0  0
  4  6  1  0  0  0  0
  5  4  1  0  0  0  0
  7  8  1  0  0  0  0
  8  9  2  0  0  0  0
  8 13  1  0  0  0  0
  9 14  1  0  0  0  0
 10  9  1  0  0  0  0
 11 10  2  0  0  0  0
 12 11  1  0  0  0  0
 12  7  2  0  0  0  0
 15 16  1  0  0  0  0
 15 11  1  0  0  0  0
 17 15  1  0  0  0  0
 18 15  1  0  0  0  0
 18 24  2  0  0  0  0
 19 18  1  0  0  0  0
 20 19  2  0  0  0  0
 20 22  1  0  0  0  0
 21 20  1  0  0  0  0
 22 23  1  0  0  0  0
 22 24  1  0  0  0  0
 25 30  1  0  0  0  0
 26 32  1  0  0  0  0
 27 33  1  0  0  0  0
 27 26  2  0  0  0  0
 28 27  1  0  0  0  0
 29 28  2  0  0  0  0
 29 30  1  0  0  0  0
 30 31  2  0  0  0  0
 31 26  1  0  0  0  0
 35 36  1  0  0  0  0
 35 34  1  0  0  0  0
 36 28  1  0  0  0  0
 37 36  2  0  0  0  0
 38 37  1  0  0  0  0
 39 38  2  0  0  0  0
 39 40  1  0  0  0  0
 40 35  2  0  0  0  0
 41 37  1  0  0  0  0
 42 38  1  0  0  0  0
 43 39  1  0  0  0  0
 44 40  1  0  0  0  0
M  END
>  <minimizedAffinity>
-6.59670877

>  <minimizedRMSD>
0.909933567

$$$$
