
 OpenBabel03272509573D

 44 47  0  0  0  0  0  0  0  0999 V2000
   34.4120   28.6220   48.1200 C   0  0  0  0  0  0  0  0  0  0  0  0
   35.2570   28.8530   47.4150 H   0  0  0  0  0  0  0  0  0  0  0  0
   33.8200   29.5540   48.1830 H   0  0  0  0  0  0  0  0  0  0  0  0
   33.5080   27.5410   47.6040 C   0  0  0  0  0  0  0  0  0  0  0  0
   33.7250   27.4340   46.5190 H   0  0  0  0  0  0  0  0  0  0  0  0
   33.6830   26.5790   48.1310 H   0  0  0  0  0  0  0  0  0  0  0  0
   32.0740   27.8940   47.7180 C   0  0  0  0  0  0  0  0  0  0  0  0
   31.3730   27.4230   48.8210 C   0  0  0  0  0  0  0  0  0  0  0  0
   30.0450   27.6950   49.0160 C   0  0  0  0  0  0  0  0  0  0  0  0
   29.3960   28.4340   48.1250 N   0  0  0  0  0  0  0  0  0  0  0  0
   30.0900   28.8910   47.0480 C   0  0  0  0  0  0  0  0  0  0  0  0
   31.3860   28.6460   46.8240 N   0  0  0  0  0  0  0  0  0  0  0  0
   31.8610   26.8140   49.5750 H   0  0  0  0  0  0  0  0  0  0  0  0
   29.4850   27.3370   49.8650 H   0  0  0  0  0  0  0  0  0  0  0  0
   29.3210   29.7250   46.0630 C   0  0  0  0  0  0  0  0  0  0  0  0
   28.9340   30.6510   46.5660 H   0  0  0  0  0  0  0  0  0  0  0  0
   29.8570   29.9150   45.1370 H   0  0  0  0  0  0  0  0  0  0  0  0
   28.1140   28.9010   45.7180 C   0  0  0  0  0  0  0  0  0  0  0  0
   28.1540   27.7960   44.9250 N   0  0  0  0  0  0  0  0  0  0  0  0
   26.9080   27.3080   44.8260 C   0  0  0  0  0  0  0  0  0  0  0  0
   26.6430   26.4280   44.2530 H   0  0  0  0  0  0  0  0  0  0  0  0
   26.0900   28.1150   45.5600 N   0  0  0  0  0  0  0  0  0  0  0  0
   25.0630   28.0020   45.6830 H   0  0  0  0  0  0  0  0  0  0  0  0
   26.8220   29.0610   46.0860 N   0  0  0  0  0  0  0  0  0  0  0  0
   34.8910   28.3200   49.4160 O   0  0  0  0  0  0  0  0  0  0  0  0
   37.1720   30.0590   51.5970 C   0  0  0  0  0  0  0  0  0  0  0  0
   37.9400   30.7800   50.6600 C   0  0  0  0  0  0  0  0  0  0  0  0
   37.6150   30.6160   49.3230 C   0  0  0  0  0  0  0  0  0  0  0  0
   36.5810   29.7700   49.0470 N   0  0  0  0  0  0  0  0  0  0  0  0
   35.8680   29.0970   49.9460 C   0  0  0  0  0  0  0  0  0  0  0  0
   36.1850   29.2580   51.2550 N   0  0  0  0  0  0  0  0  0  0  0  0
   37.4340   30.1950   52.6340 H   0  0  0  0  0  0  0  0  0  0  0  0
   38.7480   31.4420   50.8820 H   0  0  0  0  0  0  0  0  0  0  0  0
   38.8210   33.2420   49.2530 F   0  0  0  0  0  0  0  0  0  0  0  0
   38.8380   32.4830   48.1560 C   0  0  0  0  0  0  0  0  0  0  0  0
   38.2720   31.2600   48.2010 C   0  0  0  0  0  0  0  0  0  0  0  0
   38.3460   30.5540   47.0070 C   0  0  0  0  0  0  0  0  0  0  0  0
   38.9410   31.0570   45.8810 C   0  0  0  0  0  0  0  0  0  0  0  0
   39.5070   32.3130   45.8770 C   0  0  0  0  0  0  0  0  0  0  0  0
   39.4490   33.0310   47.0420 C   0  0  0  0  0  0  0  0  0  0  0  0
   37.9340   29.5580   46.8900 H   0  0  0  0  0  0  0  0  0  0  0  0
   38.9970   30.5060   44.9510 H   0  0  0  0  0  0  0  0  0  0  0  0
   39.9880   32.7500   45.0110 H   0  0  0  0  0  0  0  0  0  0  0  0
   39.8850   34.0190   47.0730 H   0  0  0  0  0  0  0  0  0  0  0  0
  1  3  1  0  0  0  0
  1 25  1  0  0  0  0
  2  1  1  0  0  0  0
  4  7  1  0  0  0  0
  4  1  1  0  0  0  0
  4  6  1  0  0  0  0
  5  4  1  0  0  0  0
  7  8  1  0  0  0  0
  8  9  2  0  0  0  0
  8 13  1  0  0  0  0
  9 14  1  0  0  0  0
 10  9  1  0  0  0  0
 11 10  2  0  0  0  0
 12 11  1  0  0  0  0
 12  7  2  0  0  0  0
 15 16  1  0  0  0  0
 15 11  1  0  0  0  0
 17 15  1  0  0  0  0
 18 15  1  0  0  0  0
 18 24  2  0  0  0  0
 19 18  1  0  0  0  0
 20 19  2  0  0  0  0
 20 22  1  0  0  0  0
 21 20  1  0  0  0  0
 22 23  1  0  0  0  0
 22 24  1  0  0  0  0
 25 30  1  0  0  0  0
 26 32  1  0  0  0  0
 27 33  1  0  0  0  0
 27 26  2  0  0  0  0
 28 27  1  0  0  0  0
 29 28  2  0  0  0  0
 29 30  1  0  0  0  0
 30 31  2  0  0  0  0
 31 26  1  0  0  0  0
 35 36  1  0  0  0  0
 35 34  1  0  0  0  0
 36 28  1  0  0  0  0
 37 36  2  0  0  0  0
 38 37  1  0  0  0  0
 39 38  2  0  0  0  0
 39 40  1  0  0  0  0
 40 44  1  0  0  0  0
 40 35  2  0  0  0  0
 41 37  1  0  0  0  0
 42 38  1  0  0  0  0
 43 39  1  0  0  0  0
M  END
>  <minimizedAffinity>
-6.59070158

>  <minimizedRMSD>
0.901556492

$$$$
