
 OpenBabel03272508163D

 28 30  0  0  0  0  0  0  0  0999 V2000
   39.0380   27.1540   35.0420 Cl  0  0  0  0  0  0  0  0  0  0  0  0
   38.3650   25.8450   34.1260 C   0  0  0  0  0  0  0  0  0  0  0  0
   37.4440   26.2440   33.1810 C   0  0  0  0  0  0  0  0  0  0  0  0
   36.8490   25.2690   32.3740 C   0  0  0  0  0  0  0  0  0  0  0  0
   37.1640   23.9480   32.5060 C   0  0  0  0  0  0  0  0  0  0  0  0
   38.0880   23.5740   33.4580 C   0  0  0  0  0  0  0  0  0  0  0  0
   38.5130   21.8940   33.6330 Cl  0  0  0  0  0  0  0  0  0  0  0  0
   38.6690   24.5200   34.2480 C   0  0  0  0  0  0  0  0  0  0  0  0
   36.1180   25.4840   31.6080 H   0  0  0  0  0  0  0  0  0  0  0  0
   36.7190   23.1720   31.8940 H   0  0  0  0  0  0  0  0  0  0  0  0
   37.3470   28.1680   31.6280 C   0  0  0  0  0  0  0  0  0  0  0  0
   36.9540   27.5940   32.8720 C   0  0  0  0  0  0  0  0  0  0  0  0
   36.1430   28.3430   33.6970 C   0  0  0  0  0  0  0  0  0  0  0  0
   35.7550   29.5820   33.2990 N   0  0  0  0  0  0  0  0  0  0  0  0
   36.1510   30.0940   32.1030 C   0  0  0  0  0  0  0  0  0  0  0  0
   36.9550   29.3850   31.2570 N   0  0  0  0  0  0  0  0  0  0  0  0
   37.9910   27.5560   30.9900 H   0  0  0  0  0  0  0  0  0  0  0  0
   35.8660   27.8800   34.6250 H   0  0  0  0  0  0  0  0  0  0  0  0
   35.8660   31.0630   31.7590 H   0  0  0  0  0  0  0  0  0  0  0  0
   39.6240   24.1720   35.2990 C   0  0  0  0  0  0  0  0  0  0  0  0
   40.8850   24.2000   35.2450 O   0  0  0  0  0  0  0  0  0  0  0  0
   39.1510   23.7170   36.6290 C   0  0  0  0  0  0  0  0  0  0  0  0
   37.9840   24.0650   37.1960 N   0  0  0  0  0  0  0  0  0  0  0  0
   37.8740   23.4760   38.4210 C   0  0  0  0  0  0  0  0  0  0  0  0
   37.1170   23.4920   39.1830 H   0  0  0  0  0  0  0  0  0  0  0  0
   38.9970   22.7580   38.5990 N   0  0  0  0  0  0  0  0  0  0  0  0
   39.4000   22.1470   39.3290 H   0  0  0  0  0  0  0  0  0  0  0  0
   39.7330   22.9130   37.5350 N   0  0  0  0  0  0  0  0  0  0  0  0
  2  8  1  0  0  0  0
  2  1  1  0  0  0  0
  3  2  2  0  0  0  0
  4  5  2  0  0  0  0
  4  3  1  0  0  0  0
  5  6  1  0  0  0  0
  6  7  1  0  0  0  0
  6  8  2  0  0  0  0
  8 20  1  0  0  0  0
  9  4  1  0  0  0  0
 10  5  1  0  0  0  0
 11 12  1  0  0  0  0
 12  3  1  0  0  0  0
 12 13  2  0  0  0  0
 13 18  1  0  0  0  0
 14 13  1  0  0  0  0
 15 14  2  0  0  0  0
 16 11  2  0  0  0  0
 16 15  1  0  0  0  0
 17 11  1  0  0  0  0
 19 15  1  0  0  0  0
 20 22  1  0  0  0  0
 21 20  2  0  0  0  0
 22 23  1  0  0  0  0
 22 28  2  0  0  0  0
 23 24  2  0  0  0  0
 24 26  1  0  0  0  0
 24 25  1  0  0  0  0
 26 27  1  0  0  0  0
 28 26  1  0  0  0  0
M  END
>  <minimizedAffinity>
-5.45588541

$$$$

 OpenBabel03272508163D

 28 30  0  0  0  0  0  0  0  0999 V2000
   38.3260   23.8250   32.8910 Cl  0  0  0  0  0  0  0  0  0  0  0  0
   38.2520   24.7320   34.3670 C   0  0  0  0  0  0  0  0  0  0  0  0
   38.1790   26.0960   34.1780 C   0  0  0  0  0  0  0  0  0  0  0  0
   38.1000   26.9240   35.3020 C   0  0  0  0  0  0  0  0  0  0  0  0
   38.0930   26.4090   36.5660 C   0  0  0  0  0  0  0  0  0  0  0  0
   38.1670   25.0410   36.7290 C   0  0  0  0  0  0  0  0  0  0  0  0
   38.1450   24.3630   38.3330 Cl  0  0  0  0  0  0  0  0  0  0  0  0
   38.2460   24.2310   35.6360 C   0  0  0  0  0  0  0  0  0  0  0  0
   38.0400   28.0010   35.2540 H   0  0  0  0  0  0  0  0  0  0  0  0
   38.0320   27.0260   37.4540 H   0  0  0  0  0  0  0  0  0  0  0  0
   36.9310   27.3830   32.4720 C   0  0  0  0  0  0  0  0  0  0  0  0
   38.1790   26.8620   32.9240 C   0  0  0  0  0  0  0  0  0  0  0  0
   39.2950   27.1130   32.1570 C   0  0  0  0  0  0  0  0  0  0  0  0
   39.1670   27.8370   31.0140 N   0  0  0  0  0  0  0  0  0  0  0  0
   37.9590   28.3170   30.6170 C   0  0  0  0  0  0  0  0  0  0  0  0
   36.8280   28.0900   31.3490 N   0  0  0  0  0  0  0  0  0  0  0  0
   36.0590   27.1710   33.0960 H   0  0  0  0  0  0  0  0  0  0  0  0
   40.2180   26.7060   32.5270 H   0  0  0  0  0  0  0  0  0  0  0  0
   37.8210   28.8880   29.7270 H   0  0  0  0  0  0  0  0  0  0  0  0
   38.3660   22.7790   35.7560 C   0  0  0  0  0  0  0  0  0  0  0  0
   39.4100   22.0980   35.9580 O   0  0  0  0  0  0  0  0  0  0  0  0
   37.1700   21.9100   35.6360 C   0  0  0  0  0  0  0  0  0  0  0  0
   36.7550   21.3180   34.5040 N   0  0  0  0  0  0  0  0  0  0  0  0
   35.6200   20.6020   34.7480 C   0  0  0  0  0  0  0  0  0  0  0  0
   34.9820   19.9960   34.1330 H   0  0  0  0  0  0  0  0  0  0  0  0
   35.3440   20.7640   36.0540 N   0  0  0  0  0  0  0  0  0  0  0  0
   34.6220   20.4460   36.7230 H   0  0  0  0  0  0  0  0  0  0  0  0
   36.2660   21.5350   36.5570 N   0  0  0  0  0  0  0  0  0  0  0  0
  1  2  1  0  0  0  0
  2  8  1  0  0  0  0
  3  2  2  0  0  0  0
  3  4  1  0  0  0  0
  4  5  2  0  0  0  0
  5  6  1  0  0  0  0
  5 10  1  0  0  0  0
  6  7  1  0  0  0  0
  8 20  1  0  0  0  0
  8  6  2  0  0  0  0
  9  4  1  0  0  0  0
 11 12  1  0  0  0  0
 11 17  1  0  0  0  0
 12  3  1  0  0  0  0
 13 18  1  0  0  0  0
 13 12  2  0  0  0  0
 14 13  1  0  0  0  0
 15 14  2  0  0  0  0
 15 16  1  0  0  0  0
 16 11  2  0  0  0  0
 19 15  1  0  0  0  0
 20 21  2  0  0  0  0
 22 20  1  0  0  0  0
 22 28  2  0  0  0  0
 23 24  2  0  0  0  0
 23 22  1  0  0  0  0
 24 26  1  0  0  0  0
 25 24  1  0  0  0  0
 26 28  1  0  0  0  0
 26 27  1  0  0  0  0
M  END
>  <minimizedAffinity>
-5.30985355

$$$$

 OpenBabel03272508163D

 28 30  0  0  0  0  0  0  0  0999 V2000
   37.7120   24.4930   33.5380 Cl  0  0  0  0  0  0  0  0  0  0  0  0
   39.2320   25.2840   33.8050 C   0  0  0  0  0  0  0  0  0  0  0  0
   39.3270   26.5210   33.2030 C   0  0  0  0  0  0  0  0  0  0  0  0
   40.5060   27.2550   33.3660 C   0  0  0  0  0  0  0  0  0  0  0  0
   41.5490   26.7710   34.1030 C   0  0  0  0  0  0  0  0  0  0  0  0
   41.4290   25.5310   34.6950 C   0  0  0  0  0  0  0  0  0  0  0  0
   42.7430   24.9020   35.6490 Cl  0  0  0  0  0  0  0  0  0  0  0  0
   40.2830   24.8130   34.5360 C   0  0  0  0  0  0  0  0  0  0  0  0
   40.6740   28.2300   32.9350 H   0  0  0  0  0  0  0  0  0  0  0  0
   42.4730   27.3180   34.2460 H   0  0  0  0  0  0  0  0  0  0  0  0
   38.5680   27.2450   30.9620 C   0  0  0  0  0  0  0  0  0  0  0  0
   38.3450   27.2280   32.3700 C   0  0  0  0  0  0  0  0  0  0  0  0
   37.2270   27.8740   32.8500 C   0  0  0  0  0  0  0  0  0  0  0  0
   36.3920   28.4940   31.9770 N   0  0  0  0  0  0  0  0  0  0  0  0
   36.6390   28.4860   30.6400 C   0  0  0  0  0  0  0  0  0  0  0  0
   37.7360   27.8580   30.1230 N   0  0  0  0  0  0  0  0  0  0  0  0
   39.4620   26.7260   30.6030 H   0  0  0  0  0  0  0  0  0  0  0  0
   37.0900   27.8420   33.9140 H   0  0  0  0  0  0  0  0  0  0  0  0
   36.0050   28.9620   29.9260 H   0  0  0  0  0  0  0  0  0  0  0  0
   40.1200   23.4770   35.1090 C   0  0  0  0  0  0  0  0  0  0  0  0
   40.3730   22.3630   34.5700 O   0  0  0  0  0  0  0  0  0  0  0  0
   39.5980   23.3040   36.4860 C   0  0  0  0  0  0  0  0  0  0  0  0
   38.4270   23.7840   36.9350 N   0  0  0  0  0  0  0  0  0  0  0  0
   38.2660   23.4520   38.2480 C   0  0  0  0  0  0  0  0  0  0  0  0
   37.4890   23.6360   38.9670 H   0  0  0  0  0  0  0  0  0  0  0  0
   39.3620   22.7570   38.6000 N   0  0  0  0  0  0  0  0  0  0  0  0
   39.7270   22.2930   39.4490 H   0  0  0  0  0  0  0  0  0  0  0  0
   40.1310   22.6820   37.5520 N   0  0  0  0  0  0  0  0  0  0  0  0
  1  2  1  0  0  0  0
  2  8  1  0  0  0  0
  3  4  1  0  0  0  0
  3  2  2  0  0  0  0
  4  5  2  0  0  0  0
  5 10  1  0  0  0  0
  5  6  1  0  0  0  0
  6  7  1  0  0  0  0
  8  6  2  0  0  0  0
  8 20  1  0  0  0  0
  9  4  1  0  0  0  0
 11 12  1  0  0  0  0
 12 13  2  0  0  0  0
 12  3  1  0  0  0  0
 13 18  1  0  0  0  0
 14 13  1  0  0  0  0
 15 14  2  0  0  0  0
 16 15  1  0  0  0  0
 16 11  2  0  0  0  0
 17 11  1  0  0  0  0
 19 15  1  0  0  0  0
 20 22  1  0  0  0  0
 21 20  2  0  0  0  0
 22 23  1  0  0  0  0
 22 28  2  0  0  0  0
 23 24  2  0  0  0  0
 24 26  1  0  0  0  0
 24 25  1  0  0  0  0
 26 27  1  0  0  0  0
 28 26  1  0  0  0  0
M  END
>  <minimizedAffinity>
-5.28269005

$$$$

 OpenBabel03272508163D

 28 30  0  0  0  0  0  0  0  0999 V2000
   38.3730   26.7820   33.4090 Cl  0  0  0  0  0  0  0  0  0  0  0  0
   37.3500   25.6360   32.6040 C   0  0  0  0  0  0  0  0  0  0  0  0
   36.3980   26.2150   31.7920 C   0  0  0  0  0  0  0  0  0  0  0  0
   35.5290   25.3810   31.0820 C   0  0  0  0  0  0  0  0  0  0  0  0
   35.6090   24.0220   31.1790 C   0  0  0  0  0  0  0  0  0  0  0  0
   36.5700   23.4670   31.9980 C   0  0  0  0  0  0  0  0  0  0  0  0
   36.6970   21.7340   32.1260 Cl  0  0  0  0  0  0  0  0  0  0  0  0
   37.4170   24.2760   32.6930 C   0  0  0  0  0  0  0  0  0  0  0  0
   34.7530   25.7400   30.4230 H   0  0  0  0  0  0  0  0  0  0  0  0
   34.9490   23.3530   30.6410 H   0  0  0  0  0  0  0  0  0  0  0  0
   36.7520   28.2370   30.4100 C   0  0  0  0  0  0  0  0  0  0  0  0
   36.1290   27.6370   31.5440 C   0  0  0  0  0  0  0  0  0  0  0  0
   35.3180   28.4310   32.3250 C   0  0  0  0  0  0  0  0  0  0  0  0
   35.1460   29.7360   31.9910 N   0  0  0  0  0  0  0  0  0  0  0  0
   35.7570   30.2710   30.9010 C   0  0  0  0  0  0  0  0  0  0  0  0
   36.5690   29.5180   30.1010 N   0  0  0  0  0  0  0  0  0  0  0  0
   37.3910   27.5880   29.8050 H   0  0  0  0  0  0  0  0  0  0  0  0
   34.8650   27.9470   33.1690 H   0  0  0  0  0  0  0  0  0  0  0  0
   35.6450   31.2910   30.6090 H   0  0  0  0  0  0  0  0  0  0  0  0
   38.4270   23.7390   33.6050 C   0  0  0  0  0  0  0  0  0  0  0  0
   39.6400   23.4880   33.3620 O   0  0  0  0  0  0  0  0  0  0  0  0
   38.0800   23.4160   35.0100 C   0  0  0  0  0  0  0  0  0  0  0  0
   38.0390   24.3010   36.0200 N   0  0  0  0  0  0  0  0  0  0  0  0
   37.6960   23.6650   37.1760 C   0  0  0  0  0  0  0  0  0  0  0  0
   37.5550   23.9970   38.1880 H   0  0  0  0  0  0  0  0  0  0  0  0
   37.5260   22.3700   36.8600 N   0  0  0  0  0  0  0  0  0  0  0  0
   37.2710   21.4950   37.3500 H   0  0  0  0  0  0  0  0  0  0  0  0
   37.7560   22.2450   35.5840 N   0  0  0  0  0  0  0  0  0  0  0  0
  2  8  1  0  0  0  0
  2  1  1  0  0  0  0
  3  2  2  0  0  0  0
  4  5  2  0  0  0  0
  4  3  1  0  0  0  0
  5  6  1  0  0  0  0
  6  7  1  0  0  0  0
  6  8  2  0  0  0  0
  8 20  1  0  0  0  0
  9  4  1  0  0  0  0
 10  5  1  0  0  0  0
 11 12  1  0  0  0  0
 12  3  1  0  0  0  0
 12 13  2  0  0  0  0
 13 18  1  0  0  0  0
 14 13  1  0  0  0  0
 15 14  2  0  0  0  0
 16 11  2  0  0  0  0
 16 15  1  0  0  0  0
 17 11  1  0  0  0  0
 19 15  1  0  0  0  0
 20 22  1  0  0  0  0
 21 20  2  0  0  0  0
 22 28  2  0  0  0  0
 22 23  1  0  0  0  0
 23 24  2  0  0  0  0
 24 25  1  0  0  0  0
 26 24  1  0  0  0  0
 26 27  1  0  0  0  0
 28 26  1  0  0  0  0
M  END
>  <minimizedAffinity>
-5.26238632

$$$$

 OpenBabel03272508163D

 28 30  0  0  0  0  0  0  0  0999 V2000
   36.4700   27.9750   34.7110 Cl  0  0  0  0  0  0  0  0  0  0  0  0
   36.3070   28.9100   33.2600 C   0  0  0  0  0  0  0  0  0  0  0  0
   35.6830   30.1250   33.4490 C   0  0  0  0  0  0  0  0  0  0  0  0
   35.5130   30.9680   32.3460 C   0  0  0  0  0  0  0  0  0  0  0  0
   35.9490   30.6110   31.1040 C   0  0  0  0  0  0  0  0  0  0  0  0
   36.5700   29.3900   30.9400 C   0  0  0  0  0  0  0  0  0  0  0  0
   37.1460   28.9210   29.3640 Cl  0  0  0  0  0  0  0  0  0  0  0  0
   36.7360   28.5650   32.0110 C   0  0  0  0  0  0  0  0  0  0  0  0
   35.0370   31.9360   32.3950 H   0  0  0  0  0  0  0  0  0  0  0  0
   35.8310   31.2440   30.2320 H   0  0  0  0  0  0  0  0  0  0  0  0
   33.7470   30.5030   34.9430 C   0  0  0  0  0  0  0  0  0  0  0  0
   35.1340   30.7060   34.6810 C   0  0  0  0  0  0  0  0  0  0  0  0
   35.8600   31.4310   35.6000 C   0  0  0  0  0  0  0  0  0  0  0  0
   35.2370   31.9180   36.7040 N   0  0  0  0  0  0  0  0  0  0  0  0
   33.9120   31.7020   36.9180 C   0  0  0  0  0  0  0  0  0  0  0  0
   33.1560   30.9890   36.0310 N   0  0  0  0  0  0  0  0  0  0  0  0
   33.1900   29.9250   34.1990 H   0  0  0  0  0  0  0  0  0  0  0  0
   36.9010   31.5640   35.3720 H   0  0  0  0  0  0  0  0  0  0  0  0
   33.3910   32.0690   37.7730 H   0  0  0  0  0  0  0  0  0  0  0  0
   37.3510   27.2450   31.8840 C   0  0  0  0  0  0  0  0  0  0  0  0
   38.5730   26.9410   31.9870 O   0  0  0  0  0  0  0  0  0  0  0  0
   36.5220   26.0490   31.5970 C   0  0  0  0  0  0  0  0  0  0  0  0
   36.8290   24.7910   31.9520 N   0  0  0  0  0  0  0  0  0  0  0  0
   35.8550   23.9400   31.5210 C   0  0  0  0  0  0  0  0  0  0  0  0
   35.7160   22.8770   31.5950 H   0  0  0  0  0  0  0  0  0  0  0  0
   34.9400   24.6980   30.8920 N   0  0  0  0  0  0  0  0  0  0  0  0
   34.0400   24.5540   30.4030 H   0  0  0  0  0  0  0  0  0  0  0  0
   35.3500   25.9330   30.9480 N   0  0  0  0  0  0  0  0  0  0  0  0
  2  3  1  0  0  0  0
  2  1  1  0  0  0  0
  3 12  1  0  0  0  0
  4  9  1  0  0  0  0
  4  3  2  0  0  0  0
  5  4  1  0  0  0  0
  6  5  2  0  0  0  0
  6  8  1  0  0  0  0
  7  6  1  0  0  0  0
  8  2  2  0  0  0  0
 10  5  1  0  0  0  0
 11 16  1  0  0  0  0
 12 11  2  0  0  0  0
 12 13  1  0  0  0  0
 13 14  2  0  0  0  0
 14 15  1  0  0  0  0
 15 19  1  0  0  0  0
 16 15  2  0  0  0  0
 17 11  1  0  0  0  0
 18 13  1  0  0  0  0
 20 21  2  0  0  0  0
 20  8  1  0  0  0  0
 22 20  1  0  0  0  0
 22 23  1  0  0  0  0
 24 25  1  0  0  0  0
 24 23  2  0  0  0  0
 26 28  1  0  0  0  0
 26 24  1  0  0  0  0
 27 26  1  0  0  0  0
 28 22  2  0  0  0  0
M  END
>  <minimizedAffinity>
-5.25165892

$$$$

 OpenBabel03272508163D

 28 30  0  0  0  0  0  0  0  0999 V2000
   39.0370   21.7180   34.0080 Cl  0  0  0  0  0  0  0  0  0  0  0  0
   38.2430   23.1810   33.5220 C   0  0  0  0  0  0  0  0  0  0  0  0
   37.4020   23.0240   32.4410 C   0  0  0  0  0  0  0  0  0  0  0  0
   36.6980   24.1390   31.9750 C   0  0  0  0  0  0  0  0  0  0  0  0
   36.8290   25.3620   32.5660 C   0  0  0  0  0  0  0  0  0  0  0  0
   37.6770   25.4940   33.6460 C   0  0  0  0  0  0  0  0  0  0  0  0
   37.8490   27.0430   34.4220 Cl  0  0  0  0  0  0  0  0  0  0  0  0
   38.3660   24.4110   34.1020 C   0  0  0  0  0  0  0  0  0  0  0  0
   36.0180   24.1150   31.1360 H   0  0  0  0  0  0  0  0  0  0  0  0
   36.2970   26.2420   32.2250 H   0  0  0  0  0  0  0  0  0  0  0  0
   35.9370   21.0840   31.9820 C   0  0  0  0  0  0  0  0  0  0  0  0
   37.1140   21.8180   31.6540 C   0  0  0  0  0  0  0  0  0  0  0  0
   37.8980   21.3470   30.6240 C   0  0  0  0  0  0  0  0  0  0  0  0
   37.5260   20.2170   29.9690 N   0  0  0  0  0  0  0  0  0  0  0  0
   36.3950   19.5450   30.3120 C   0  0  0  0  0  0  0  0  0  0  0  0
   35.5900   19.9780   31.3270 N   0  0  0  0  0  0  0  0  0  0  0  0
   35.3300   21.4760   32.8030 H   0  0  0  0  0  0  0  0  0  0  0  0
   38.7770   21.9240   30.4040 H   0  0  0  0  0  0  0  0  0  0  0  0
   36.0720   18.6550   29.8200 H   0  0  0  0  0  0  0  0  0  0  0  0
   39.3070   24.5050   35.2170 C   0  0  0  0  0  0  0  0  0  0  0  0
   40.4680   25.0030   35.2170 O   0  0  0  0  0  0  0  0  0  0  0  0
   38.9480   23.9760   36.5550 C   0  0  0  0  0  0  0  0  0  0  0  0
   37.8730   24.3470   37.2710 N   0  0  0  0  0  0  0  0  0  0  0  0
   37.8540   23.6730   38.4560 C   0  0  0  0  0  0  0  0  0  0  0  0
   37.1850   23.6750   39.2960 H   0  0  0  0  0  0  0  0  0  0  0  0
   38.9380   22.8780   38.4580 N   0  0  0  0  0  0  0  0  0  0  0  0
   39.3740   22.1880   39.0930 H   0  0  0  0  0  0  0  0  0  0  0  0
   39.5670   23.0710   37.3330 N   0  0  0  0  0  0  0  0  0  0  0  0
  2  1  1  0  0  0  0
  2  8  1  0  0  0  0
  3  2  2  0  0  0  0
  4  3  1  0  0  0  0
  4  5  2  0  0  0  0
  5  6  1  0  0  0  0
  6  8  2  0  0  0  0
  6  7  1  0  0  0  0
  8 20  1  0  0  0  0
  9  4  1  0  0  0  0
 10  5  1  0  0  0  0
 11 17  1  0  0  0  0
 12 11  1  0  0  0  0
 12  3  1  0  0  0  0
 13 12  2  0  0  0  0
 14 15  2  0  0  0  0
 14 13  1  0  0  0  0
 15 16  1  0  0  0  0
 16 11  2  0  0  0  0
 18 13  1  0  0  0  0
 19 15  1  0  0  0  0
 20 21  2  0  0  0  0
 20 22  1  0  0  0  0
 22 23  1  0  0  0  0
 22 28  2  0  0  0  0
 23 24  2  0  0  0  0
 24 26  1  0  0  0  0
 24 25  1  0  0  0  0
 26 27  1  0  0  0  0
 28 26  1  0  0  0  0
M  END
>  <minimizedAffinity>
-5.18655777

$$$$

 OpenBabel03272508163D

 28 30  0  0  0  0  0  0  0  0999 V2000
   38.5260   22.9720   32.9740 Cl  0  0  0  0  0  0  0  0  0  0  0  0
   37.3010   23.9760   32.2660 C   0  0  0  0  0  0  0  0  0  0  0  0
   36.2490   23.2690   31.7230 C   0  0  0  0  0  0  0  0  0  0  0  0
   35.1970   23.9810   31.1390 C   0  0  0  0  0  0  0  0  0  0  0  0
   35.1950   25.3450   31.1000 C   0  0  0  0  0  0  0  0  0  0  0  0
   36.2590   26.0290   31.6510 C   0  0  0  0  0  0  0  0  0  0  0  0
   36.2700   27.7700   31.6230 Cl  0  0  0  0  0  0  0  0  0  0  0  0
   37.2870   25.3400   32.2190 C   0  0  0  0  0  0  0  0  0  0  0  0
   34.3320   23.5160   30.6880 H   0  0  0  0  0  0  0  0  0  0  0  0
   34.3940   25.9210   30.6540 H   0  0  0  0  0  0  0  0  0  0  0  0
   35.1790   21.2210   32.6100 C   0  0  0  0  0  0  0  0  0  0  0  0
   36.0460   21.8160   31.6470 C   0  0  0  0  0  0  0  0  0  0  0  0
   36.6310   20.9900   30.7130 C   0  0  0  0  0  0  0  0  0  0  0  0
   36.3650   19.6580   30.7440 N   0  0  0  0  0  0  0  0  0  0  0  0
   35.5310   19.1290   31.6790 C   0  0  0  0  0  0  0  0  0  0  0  0
   34.9320   19.9140   32.6230 N   0  0  0  0  0  0  0  0  0  0  0  0
   34.7270   21.8960   33.3410 H   0  0  0  0  0  0  0  0  0  0  0  0
   37.2780   21.4700   30.0030 H   0  0  0  0  0  0  0  0  0  0  0  0
   35.2990   18.0890   31.7340 H   0  0  0  0  0  0  0  0  0  0  0  0
   38.4560   26.0150   32.7800 C   0  0  0  0  0  0  0  0  0  0  0  0
   39.5230   26.3450   32.1900 O   0  0  0  0  0  0  0  0  0  0  0  0
   38.4910   26.4000   34.2120 C   0  0  0  0  0  0  0  0  0  0  0  0
   37.9130   25.7140   35.2120 N   0  0  0  0  0  0  0  0  0  0  0  0
   38.1320   26.3530   36.3960 C   0  0  0  0  0  0  0  0  0  0  0  0
   37.8490   26.1450   37.4110 H   0  0  0  0  0  0  0  0  0  0  0  0
   38.8570   27.4480   36.1070 N   0  0  0  0  0  0  0  0  0  0  0  0
   39.2730   28.2410   36.6230 H   0  0  0  0  0  0  0  0  0  0  0  0
   39.0570   27.4570   34.8200 N   0  0  0  0  0  0  0  0  0  0  0  0
  2  1  1  0  0  0  0
  3  2  2  0  0  0  0
  4  3  1  0  0  0  0
  5  4  2  0  0  0  0
  5  6  1  0  0  0  0
  6  8  2  0  0  0  0
  7  6  1  0  0  0  0
  8  2  1  0  0  0  0
  8 20  1  0  0  0  0
  9  4  1  0  0  0  0
 10  5  1  0  0  0  0
 11 16  1  0  0  0  0
 11 17  1  0  0  0  0
 12  3  1  0  0  0  0
 12 11  2  0  0  0  0
 13 14  2  0  0  0  0
 13 12  1  0  0  0  0
 14 15  1  0  0  0  0
 15 19  1  0  0  0  0
 15 16  2  0  0  0  0
 18 13  1  0  0  0  0
 20 22  1  0  0  0  0
 21 20  2  0  0  0  0
 22 28  2  0  0  0  0
 22 23  1  0  0  0  0
 23 24  2  0  0  0  0
 24 25  1  0  0  0  0
 26 24  1  0  0  0  0
 26 27  1  0  0  0  0
 28 26  1  0  0  0  0
M  END
>  <minimizedAffinity>
-5.172647

$$$$

 OpenBabel03272508163D

 28 30  0  0  0  0  0  0  0  0999 V2000
   32.7850   28.9970   32.8980 Cl  0  0  0  0  0  0  0  0  0  0  0  0
   33.6740   29.9720   34.0230 C   0  0  0  0  0  0  0  0  0  0  0  0
   34.9790   30.2060   33.6460 C   0  0  0  0  0  0  0  0  0  0  0  0
   35.7840   30.9940   34.4750 C   0  0  0  0  0  0  0  0  0  0  0  0
   35.3020   31.5290   35.6340 C   0  0  0  0  0  0  0  0  0  0  0  0
   33.9920   31.2800   35.9900 C   0  0  0  0  0  0  0  0  0  0  0  0
   33.3550   31.9640   37.4590 Cl  0  0  0  0  0  0  0  0  0  0  0  0
   33.2060   30.5110   35.1860 C   0  0  0  0  0  0  0  0  0  0  0  0
   36.8160   31.2320   34.2640 H   0  0  0  0  0  0  0  0  0  0  0  0
   35.9020   32.1430   36.2940 H   0  0  0  0  0  0  0  0  0  0  0  0
   36.4460   28.5210   32.5810 C   0  0  0  0  0  0  0  0  0  0  0  0
   35.7030   29.7320   32.4590 C   0  0  0  0  0  0  0  0  0  0  0  0
   35.7150   30.3710   31.2390 C   0  0  0  0  0  0  0  0  0  0  0  0
   36.4240   29.8310   30.2130 N   0  0  0  0  0  0  0  0  0  0  0  0
   37.1200   28.6740   30.3700 C   0  0  0  0  0  0  0  0  0  0  0  0
   37.1350   28.0100   31.5630 N   0  0  0  0  0  0  0  0  0  0  0  0
   36.4230   28.0310   33.5590 H   0  0  0  0  0  0  0  0  0  0  0  0
   35.1450   31.2790   31.1810 H   0  0  0  0  0  0  0  0  0  0  0  0
   37.6870   28.2230   29.5880 H   0  0  0  0  0  0  0  0  0  0  0  0
   31.8250   30.1850   35.5370 C   0  0  0  0  0  0  0  0  0  0  0  0
   30.7750   30.8200   35.2400 O   0  0  0  0  0  0  0  0  0  0  0  0
   31.5150   28.9790   36.3430 C   0  0  0  0  0  0  0  0  0  0  0  0
   31.0970   27.8030   35.8460 N   0  0  0  0  0  0  0  0  0  0  0  0
   30.8970   26.9180   36.8630 C   0  0  0  0  0  0  0  0  0  0  0  0
   30.5710   25.8940   36.8990 H   0  0  0  0  0  0  0  0  0  0  0  0
   31.1990   27.5700   37.9990 N   0  0  0  0  0  0  0  0  0  0  0  0
   31.2170   27.3650   39.0120 H   0  0  0  0  0  0  0  0  0  0  0  0
   31.5600   28.7790   37.6710 N   0  0  0  0  0  0  0  0  0  0  0  0
  1  2  1  0  0  0  0
  2  8  1  0  0  0  0
  3  2  2  0  0  0  0
  3  4  1  0  0  0  0
  4  5  2  0  0  0  0
  5  6  1  0  0  0  0
  5 10  1  0  0  0  0
  6  7  1  0  0  0  0
  8 20  1  0  0  0  0
  8  6  2  0  0  0  0
  9  4  1  0  0  0  0
 11 17  1  0  0  0  0
 12 11  1  0  0  0  0
 12  3  1  0  0  0  0
 13 12  2  0  0  0  0
 14 15  2  0  0  0  0
 14 13  1  0  0  0  0
 15 16  1  0  0  0  0
 16 11  2  0  0  0  0
 18 13  1  0  0  0  0
 19 15  1  0  0  0  0
 20 22  1  0  0  0  0
 21 20  2  0  0  0  0
 22 28  2  0  0  0  0
 23 22  1  0  0  0  0
 23 24  2  0  0  0  0
 24 25  1  0  0  0  0
 24 26  1  0  0  0  0
 26 27  1  0  0  0  0
 28 26  1  0  0  0  0
M  END
>  <minimizedAffinity>
-5.15792179

$$$$

 OpenBabel03272508163D

 28 30  0  0  0  0  0  0  0  0999 V2000
   38.3850   23.7590   33.0460 Cl  0  0  0  0  0  0  0  0  0  0  0  0
   38.3190   24.8240   34.4130 C   0  0  0  0  0  0  0  0  0  0  0  0
   38.2840   26.1600   34.0750 C   0  0  0  0  0  0  0  0  0  0  0  0
   38.2140   27.1070   35.1010 C   0  0  0  0  0  0  0  0  0  0  0  0
   38.1790   26.7330   36.4130 C   0  0  0  0  0  0  0  0  0  0  0  0
   38.2140   25.3900   36.7260 C   0  0  0  0  0  0  0  0  0  0  0  0
   38.1570   24.8920   38.3940 Cl  0  0  0  0  0  0  0  0  0  0  0  0
   38.2850   24.4640   35.7290 C   0  0  0  0  0  0  0  0  0  0  0  0
   38.1830   28.1740   34.9360 H   0  0  0  0  0  0  0  0  0  0  0  0
   38.1240   27.4450   37.2280 H   0  0  0  0  0  0  0  0  0  0  0  0
   37.0690   27.0550   32.1140 C   0  0  0  0  0  0  0  0  0  0  0  0
   38.3180   26.7840   32.7460 C   0  0  0  0  0  0  0  0  0  0  0  0
   39.4680   27.1270   32.0680 C   0  0  0  0  0  0  0  0  0  0  0  0
   39.3690   27.7010   30.8410 N   0  0  0  0  0  0  0  0  0  0  0  0
   38.1590   27.9430   30.2720 C   0  0  0  0  0  0  0  0  0  0  0  0
   36.9950   27.6180   30.9100 N   0  0  0  0  0  0  0  0  0  0  0  0
   36.1700   26.7740   32.6690 H   0  0  0  0  0  0  0  0  0  0  0  0
   40.3900   26.9090   32.5730 H   0  0  0  0  0  0  0  0  0  0  0  0
   38.0440   28.3910   29.3110 H   0  0  0  0  0  0  0  0  0  0  0  0
   38.3650   23.0310   36.0070 C   0  0  0  0  0  0  0  0  0  0  0  0
   37.4320   22.1810   35.9910 O   0  0  0  0  0  0  0  0  0  0  0  0
   39.6600   22.4030   36.3650 C   0  0  0  0  0  0  0  0  0  0  0  0
   40.6000   22.0140   35.4870 N   0  0  0  0  0  0  0  0  0  0  0  0
   41.6560   21.4680   36.1550 C   0  0  0  0  0  0  0  0  0  0  0  0
   42.5910   21.0440   35.8390 H   0  0  0  0  0  0  0  0  0  0  0  0
   41.3490   21.5270   37.4630 N   0  0  0  0  0  0  0  0  0  0  0  0
   41.7890   21.2580   38.3590 H   0  0  0  0  0  0  0  0  0  0  0  0
   40.1730   22.0790   37.5640 N   0  0  0  0  0  0  0  0  0  0  0  0
  1  2  1  0  0  0  0
  2  8  1  0  0  0  0
  3  2  2  0  0  0  0
  3  4  1  0  0  0  0
  4  5  2  0  0  0  0
  5  6  1  0  0  0  0
  5 10  1  0  0  0  0
  6  7  1  0  0  0  0
  8 20  1  0  0  0  0
  8  6  2  0  0  0  0
  9  4  1  0  0  0  0
 11 17  1  0  0  0  0
 11 12  1  0  0  0  0
 12  3  1  0  0  0  0
 13 18  1  0  0  0  0
 13 12  2  0  0  0  0
 14 13  1  0  0  0  0
 15 14  2  0  0  0  0
 15 16  1  0  0  0  0
 16 11  2  0  0  0  0
 19 15  1  0  0  0  0
 20 22  1  0  0  0  0
 21 20  2  0  0  0  0
 22 28  2  0  0  0  0
 23 24  2  0  0  0  0
 23 22  1  0  0  0  0
 24 26  1  0  0  0  0
 25 24  1  0  0  0  0
 26 28  1  0  0  0  0
 26 27  1  0  0  0  0
M  END
>  <minimizedAffinity>
-5.1065917

$$$$
