
 OpenBabel03272509573D

 44 47  0  0  0  0  0  0  0  0999 V2000
   34.4430   28.6400   48.1860 C   0  0  0  0  0  0  0  0  0  0  0  0
   35.2390   28.9010   47.4350 H   0  0  0  0  0  0  0  0  0  0  0  0
   33.8250   29.5500   48.2850 H   0  0  0  0  0  0  0  0  0  0  0  0
   33.5510   27.5280   47.7180 C   0  0  0  0  0  0  0  0  0  0  0  0
   33.7970   27.3490   46.6490 H   0  0  0  0  0  0  0  0  0  0  0  0
   33.7060   26.6040   48.3120 H   0  0  0  0  0  0  0  0  0  0  0  0
   32.1150   27.8920   47.7680 C   0  0  0  0  0  0  0  0  0  0  0  0
   31.3780   27.4830   48.8740 C   0  0  0  0  0  0  0  0  0  0  0  0
   30.0460   27.7690   49.0120 C   0  0  0  0  0  0  0  0  0  0  0  0
   29.4290   28.4610   48.0630 N   0  0  0  0  0  0  0  0  0  0  0  0
   30.1570   28.8570   46.9850 C   0  0  0  0  0  0  0  0  0  0  0  0
   31.4580   28.5970   46.8150 N   0  0  0  0  0  0  0  0  0  0  0  0
   31.8410   26.9140   49.6740 H   0  0  0  0  0  0  0  0  0  0  0  0
   29.4590   27.4600   49.8620 H   0  0  0  0  0  0  0  0  0  0  0  0
   29.4220   29.6380   45.9330 C   0  0  0  0  0  0  0  0  0  0  0  0
   28.5250   30.1390   46.3860 H   0  0  0  0  0  0  0  0  0  0  0  0
   30.0580   30.3060   45.3580 H   0  0  0  0  0  0  0  0  0  0  0  0
   28.8890   28.6030   44.9850 C   0  0  0  0  0  0  0  0  0  0  0  0
   27.9240   28.8520   44.0570 N   0  0  0  0  0  0  0  0  0  0  0  0
   27.6880   27.7150   43.3850 C   0  0  0  0  0  0  0  0  0  0  0  0
   26.9650   27.6220   42.5850 H   0  0  0  0  0  0  0  0  0  0  0  0
   28.5110   26.7550   43.8970 N   0  0  0  0  0  0  0  0  0  0  0  0
   28.5670   25.7650   43.5870 H   0  0  0  0  0  0  0  0  0  0  0  0
   29.2210   27.2980   44.8500 N   0  0  0  0  0  0  0  0  0  0  0  0
   35.0060   28.3520   49.4510 O   0  0  0  0  0  0  0  0  0  0  0  0
   37.3590   30.1710   51.4850 C   0  0  0  0  0  0  0  0  0  0  0  0
   38.0940   30.8560   50.4960 C   0  0  0  0  0  0  0  0  0  0  0  0
   37.7230   30.6420   49.1790 C   0  0  0  0  0  0  0  0  0  0  0  0
   36.6810   29.7870   48.9700 N   0  0  0  0  0  0  0  0  0  0  0  0
   35.9990   29.1490   49.9180 C   0  0  0  0  0  0  0  0  0  0  0  0
   36.3620   29.3590   51.2080 N   0  0  0  0  0  0  0  0  0  0  0  0
   37.6570   30.3460   52.5080 H   0  0  0  0  0  0  0  0  0  0  0  0
   38.9090   31.5250   50.6650 H   0  0  0  0  0  0  0  0  0  0  0  0
   38.9650   33.2450   48.9810 F   0  0  0  0  0  0  0  0  0  0  0  0
   38.9220   32.4540   47.9060 C   0  0  0  0  0  0  0  0  0  0  0  0
   38.3400   31.2430   48.0110 C   0  0  0  0  0  0  0  0  0  0  0  0
   38.3520   30.5030   46.8360 C   0  0  0  0  0  0  0  0  0  0  0  0
   38.9040   30.9640   45.6720 C   0  0  0  0  0  0  0  0  0  0  0  0
   39.4900   32.2090   45.6060 C   0  0  0  0  0  0  0  0  0  0  0  0
   39.4930   32.9610   46.7520 C   0  0  0  0  0  0  0  0  0  0  0  0
   37.9200   29.5100   46.7660 H   0  0  0  0  0  0  0  0  0  0  0  0
   38.9120   30.3860   44.7560 H   0  0  0  0  0  0  0  0  0  0  0  0
   39.9390   32.6140   44.7080 H   0  0  0  0  0  0  0  0  0  0  0  0
   39.9450   33.9430   46.7350 H   0  0  0  0  0  0  0  0  0  0  0  0
  1  3  1  0  0  0  0
  1 25  1  0  0  0  0
  2  1  1  0  0  0  0
  4  7  1  0  0  0  0
  4  1  1  0  0  0  0
  4  6  1  0  0  0  0
  5  4  1  0  0  0  0
  7  8  1  0  0  0  0
  8  9  2  0  0  0  0
  8 13  1  0  0  0  0
  9 14  1  0  0  0  0
 10  9  1  0  0  0  0
 11 10  2  0  0  0  0
 12 11  1  0  0  0  0
 12  7  2  0  0  0  0
 15 16  1  0  0  0  0
 15 11  1  0  0  0  0
 17 15  1  0  0  0  0
 18 15  1  0  0  0  0
 19 18  1  0  0  0  0
 20 22  1  0  0  0  0
 20 19  2  0  0  0  0
 21 20  1  0  0  0  0
 22 24  1  0  0  0  0
 23 22  1  0  0  0  0
 24 18  2  0  0  0  0
 25 30  1  0  0  0  0
 26 32  1  0  0  0  0
 27 33  1  0  0  0  0
 27 26  2  0  0  0  0
 28 27  1  0  0  0  0
 29 28  2  0  0  0  0
 29 30  1  0  0  0  0
 30 31  2  0  0  0  0
 31 26  1  0  0  0  0
 35 36  1  0  0  0  0
 35 34  1  0  0  0  0
 36 28  1  0  0  0  0
 37 36  2  0  0  0  0
 38 37  1  0  0  0  0
 39 38  2  0  0  0  0
 39 40  1  0  0  0  0
 40 35  2  0  0  0  0
 41 37  1  0  0  0  0
 42 38  1  0  0  0  0
 43 39  1  0  0  0  0
 44 40  1  0  0  0  0
M  END
>  <minimizedAffinity>
-6.19907618

>  <minimizedRMSD>
0.0564802252

$$$$
