
 OpenBabel03272509573D

 44 47  0  0  0  0  0  0  0  0999 V2000
   34.2240   28.7530   48.0730 C   0  0  0  0  0  0  0  0  0  0  0  0
   34.9470   29.1680   47.3180 H   0  0  0  0  0  0  0  0  0  0  0  0
   33.5970   29.6090   48.3790 H   0  0  0  0  0  0  0  0  0  0  0  0
   33.3200   27.7060   47.4920 C   0  0  0  0  0  0  0  0  0  0  0  0
   33.4020   27.7900   46.3870 H   0  0  0  0  0  0  0  0  0  0  0  0
   33.6080   26.6880   47.8260 H   0  0  0  0  0  0  0  0  0  0  0  0
   31.8950   27.9330   47.8310 C   0  0  0  0  0  0  0  0  0  0  0  0
   31.4680   27.5960   49.1100 C   0  0  0  0  0  0  0  0  0  0  0  0
   30.1720   27.7680   49.5180 C   0  0  0  0  0  0  0  0  0  0  0  0
   29.2860   28.2740   48.6700 N   0  0  0  0  0  0  0  0  0  0  0  0
   29.7120   28.6010   47.4200 C   0  0  0  0  0  0  0  0  0  0  0  0
   30.9680   28.4480   46.9860 N   0  0  0  0  0  0  0  0  0  0  0  0
   32.1570   27.1780   49.8370 H   0  0  0  0  0  0  0  0  0  0  0  0
   29.8230   27.5110   50.5050 H   0  0  0  0  0  0  0  0  0  0  0  0
   28.6800   29.1710   46.4900 C   0  0  0  0  0  0  0  0  0  0  0  0
   27.7090   29.3130   47.0380 H   0  0  0  0  0  0  0  0  0  0  0  0
   29.0150   30.0520   45.9490 H   0  0  0  0  0  0  0  0  0  0  0  0
   28.4330   28.0910   45.4770 C   0  0  0  0  0  0  0  0  0  0  0  0
   27.9700   26.8500   45.7900 N   0  0  0  0  0  0  0  0  0  0  0  0
   27.8680   26.1440   44.6530 C   0  0  0  0  0  0  0  0  0  0  0  0
   27.5230   25.1190   44.6040 H   0  0  0  0  0  0  0  0  0  0  0  0
   28.2700   26.9500   43.6290 N   0  0  0  0  0  0  0  0  0  0  0  0
   28.3050   26.6930   42.6220 H   0  0  0  0  0  0  0  0  0  0  0  0
   28.6050   28.1080   44.1340 N   0  0  0  0  0  0  0  0  0  0  0  0
   34.8990   28.2730   49.2200 O   0  0  0  0  0  0  0  0  0  0  0  0
   37.0890   30.0110   51.4930 C   0  0  0  0  0  0  0  0  0  0  0  0
   37.8780   30.7530   50.5900 C   0  0  0  0  0  0  0  0  0  0  0  0
   37.5970   30.6020   49.2420 C   0  0  0  0  0  0  0  0  0  0  0  0
   36.5820   29.7470   48.9220 N   0  0  0  0  0  0  0  0  0  0  0  0
   35.8490   29.0550   49.7910 C   0  0  0  0  0  0  0  0  0  0  0  0
   36.1230   29.2030   51.1110 N   0  0  0  0  0  0  0  0  0  0  0  0
   37.3160   30.1370   52.5400 H   0  0  0  0  0  0  0  0  0  0  0  0
   38.6710   31.4210   50.8460 H   0  0  0  0  0  0  0  0  0  0  0  0
   38.7940   33.2330   49.2500 F   0  0  0  0  0  0  0  0  0  0  0  0
   38.8430   32.4930   48.1400 C   0  0  0  0  0  0  0  0  0  0  0  0
   38.2820   31.2670   48.1490 C   0  0  0  0  0  0  0  0  0  0  0  0
   38.3910   30.5830   46.9460 C   0  0  0  0  0  0  0  0  0  0  0  0
   39.0130   31.1070   45.8450 C   0  0  0  0  0  0  0  0  0  0  0  0
   39.5750   32.3650   45.8780 C   0  0  0  0  0  0  0  0  0  0  0  0
   39.4830   33.0630   47.0530 C   0  0  0  0  0  0  0  0  0  0  0  0
   37.9860   29.5870   46.8010 H   0  0  0  0  0  0  0  0  0  0  0  0
   39.0970   30.5730   44.9070 H   0  0  0  0  0  0  0  0  0  0  0  0
   40.0770   32.8190   45.0330 H   0  0  0  0  0  0  0  0  0  0  0  0
   39.9130   34.0520   47.1120 H   0  0  0  0  0  0  0  0  0  0  0  0
  1  3  1  0  0  0  0
  1 25  1  0  0  0  0
  2  1  1  0  0  0  0
  4  6  1  0  0  0  0
  4  7  1  0  0  0  0
  4  1  1  0  0  0  0
  5  4  1  0  0  0  0
  7  8  1  0  0  0  0
  8  9  2  0  0  0  0
  8 13  1  0  0  0  0
  9 14  1  0  0  0  0
 10  9  1  0  0  0  0
 11 10  2  0  0  0  0
 12 11  1  0  0  0  0
 12  7  2  0  0  0  0
 15 16  1  0  0  0  0
 15 11  1  0  0  0  0
 17 15  1  0  0  0  0
 18 19  1  0  0  0  0
 18 15  1  0  0  0  0
 20 19  2  0  0  0  0
 21 20  1  0  0  0  0
 22 24  1  0  0  0  0
 22 20  1  0  0  0  0
 23 22  1  0  0  0  0
 24 18  2  0  0  0  0
 25 30  1  0  0  0  0
 26 32  1  0  0  0  0
 27 33  1  0  0  0  0
 27 26  2  0  0  0  0
 28 27  1  0  0  0  0
 29 28  2  0  0  0  0
 29 30  1  0  0  0  0
 30 31  2  0  0  0  0
 31 26  1  0  0  0  0
 35 36  1  0  0  0  0
 35 34  1  0  0  0  0
 36 28  1  0  0  0  0
 37 36  2  0  0  0  0
 38 39  2  0  0  0  0
 38 37  1  0  0  0  0
 39 40  1  0  0  0  0
 40 44  1  0  0  0  0
 40 35  2  0  0  0  0
 41 37  1  0  0  0  0
 42 38  1  0  0  0  0
 43 39  1  0  0  0  0
M  END
>  <minimizedAffinity>
-6.24971628

>  <minimizedRMSD>
0.510029614

$$$$
