
 OpenBabel03272509573D

 44 47  0  0  0  0  0  0  0  0999 V2000
   34.3020   28.7440   48.1350 C   0  0  0  0  0  0  0  0  0  0  0  0
   35.0610   29.1210   47.3960 H   0  0  0  0  0  0  0  0  0  0  0  0
   33.6610   29.6140   48.3660 H   0  0  0  0  0  0  0  0  0  0  0  0
   33.4260   27.6670   47.5670 C   0  0  0  0  0  0  0  0  0  0  0  0
   33.5770   27.6810   46.4650 H   0  0  0  0  0  0  0  0  0  0  0  0
   33.6840   26.6710   47.9810 H   0  0  0  0  0  0  0  0  0  0  0  0
   31.9850   27.9230   47.8000 C   0  0  0  0  0  0  0  0  0  0  0  0
   31.4490   27.5530   49.0280 C   0  0  0  0  0  0  0  0  0  0  0  0
   30.1300   27.7470   49.3400 C   0  0  0  0  0  0  0  0  0  0  0  0
   29.3270   28.3080   48.4440 N   0  0  0  0  0  0  0  0  0  0  0  0
   29.8590   28.6660   47.2450 C   0  0  0  0  0  0  0  0  0  0  0  0
   31.1410   28.4930   46.9050 N   0  0  0  0  0  0  0  0  0  0  0  0
   32.0680   27.0900   49.7910 H   0  0  0  0  0  0  0  0  0  0  0  0
   29.6970   27.4660   50.2860 H   0  0  0  0  0  0  0  0  0  0  0  0
   28.9190   29.2980   46.2590 C   0  0  0  0  0  0  0  0  0  0  0  0
   27.9470   29.5460   46.7630 H   0  0  0  0  0  0  0  0  0  0  0  0
   29.3540   30.1270   45.7060 H   0  0  0  0  0  0  0  0  0  0  0  0
   28.6110   28.2130   45.2680 C   0  0  0  0  0  0  0  0  0  0  0  0
   27.7630   27.1800   45.5170 N   0  0  0  0  0  0  0  0  0  0  0  0
   27.7210   26.4020   44.4240 C   0  0  0  0  0  0  0  0  0  0  0  0
   27.1220   25.5020   44.3400 H   0  0  0  0  0  0  0  0  0  0  0  0
   28.5480   26.9550   43.4920 N   0  0  0  0  0  0  0  0  0  0  0  0
   28.7320   26.5870   42.5370 H   0  0  0  0  0  0  0  0  0  0  0  0
   29.0730   28.0350   44.0080 N   0  0  0  0  0  0  0  0  0  0  0  0
   34.9200   28.3250   49.3370 O   0  0  0  0  0  0  0  0  0  0  0  0
   37.1810   30.0670   51.5370 C   0  0  0  0  0  0  0  0  0  0  0  0
   37.9530   30.7930   50.6070 C   0  0  0  0  0  0  0  0  0  0  0  0
   37.6370   30.6310   49.2680 C   0  0  0  0  0  0  0  0  0  0  0  0
   36.6070   29.7820   48.9830 N   0  0  0  0  0  0  0  0  0  0  0  0
   35.8910   29.1050   49.8760 C   0  0  0  0  0  0  0  0  0  0  0  0
   36.2000   29.2630   51.1870 N   0  0  0  0  0  0  0  0  0  0  0  0
   37.4360   30.2010   52.5770 H   0  0  0  0  0  0  0  0  0  0  0  0
   38.7570   31.4570   50.8360 H   0  0  0  0  0  0  0  0  0  0  0  0
   38.8280   33.2640   49.2110 F   0  0  0  0  0  0  0  0  0  0  0  0
   38.8580   32.5060   48.1120 C   0  0  0  0  0  0  0  0  0  0  0  0
   38.2990   31.2800   48.1510 C   0  0  0  0  0  0  0  0  0  0  0  0
   38.3860   30.5770   46.9570 C   0  0  0  0  0  0  0  0  0  0  0  0
   38.9860   31.0850   45.8370 C   0  0  0  0  0  0  0  0  0  0  0  0
   39.5460   32.3440   45.8380 C   0  0  0  0  0  0  0  0  0  0  0  0
   39.4750   33.0600   47.0040 C   0  0  0  0  0  0  0  0  0  0  0  0
   37.9810   29.5780   46.8360 H   0  0  0  0  0  0  0  0  0  0  0  0
   39.0530   30.5360   44.9060 H   0  0  0  0  0  0  0  0  0  0  0  0
   40.0310   32.7850   44.9760 H   0  0  0  0  0  0  0  0  0  0  0  0
   39.9050   34.0500   47.0390 H   0  0  0  0  0  0  0  0  0  0  0  0
  1  3  1  0  0  0  0
  1 25  1  0  0  0  0
  2  1  1  0  0  0  0
  4  7  1  0  0  0  0
  4  6  1  0  0  0  0
  4  1  1  0  0  0  0
  5  4  1  0  0  0  0
  7  8  1  0  0  0  0
  8  9  2  0  0  0  0
  8 13  1  0  0  0  0
  9 14  1  0  0  0  0
 10  9  1  0  0  0  0
 11 10  2  0  0  0  0
 12 11  1  0  0  0  0
 12  7  2  0  0  0  0
 15 16  1  0  0  0  0
 15 11  1  0  0  0  0
 17 15  1  0  0  0  0
 18 19  1  0  0  0  0
 18 15  1  0  0  0  0
 20 19  2  0  0  0  0
 21 20  1  0  0  0  0
 22 24  1  0  0  0  0
 22 20  1  0  0  0  0
 23 22  1  0  0  0  0
 24 18  2  0  0  0  0
 25 30  1  0  0  0  0
 26 32  1  0  0  0  0
 27 33  1  0  0  0  0
 27 26  2  0  0  0  0
 28 27  1  0  0  0  0
 29 28  2  0  0  0  0
 29 30  1  0  0  0  0
 30 31  2  0  0  0  0
 31 26  1  0  0  0  0
 35 36  1  0  0  0  0
 35 34  1  0  0  0  0
 36 28  1  0  0  0  0
 37 36  2  0  0  0  0
 38 39  2  0  0  0  0
 38 37  1  0  0  0  0
 39 40  1  0  0  0  0
 40 44  1  0  0  0  0
 40 35  2  0  0  0  0
 41 37  1  0  0  0  0
 42 38  1  0  0  0  0
 43 39  1  0  0  0  0
M  END
>  <minimizedAffinity>
-6.22333193

>  <minimizedRMSD>
0.352826297

$$$$
