
 OpenBabel03272509573D

 44 47  0  0  0  0  0  0  0  0999 V2000
   34.3140   28.7770   48.1410 C   0  0  0  0  0  0  0  0  0  0  0  0
   35.0580   29.1610   47.3900 H   0  0  0  0  0  0  0  0  0  0  0  0
   33.6590   29.6370   48.3690 H   0  0  0  0  0  0  0  0  0  0  0  0
   33.4530   27.6790   47.5910 C   0  0  0  0  0  0  0  0  0  0  0  0
   33.6160   27.6650   46.4910 H   0  0  0  0  0  0  0  0  0  0  0  0
   33.7150   26.6950   48.0340 H   0  0  0  0  0  0  0  0  0  0  0  0
   32.0080   27.9280   47.8030 C   0  0  0  0  0  0  0  0  0  0  0  0
   31.4550   27.5530   49.0220 C   0  0  0  0  0  0  0  0  0  0  0  0
   30.1300   27.7410   49.3130 C   0  0  0  0  0  0  0  0  0  0  0  0
   29.3390   28.3000   48.4060 N   0  0  0  0  0  0  0  0  0  0  0  0
   29.8880   28.6630   47.2170 C   0  0  0  0  0  0  0  0  0  0  0  0
   31.1760   28.4960   46.8960 N   0  0  0  0  0  0  0  0  0  0  0  0
   32.0630   27.0910   49.7930 H   0  0  0  0  0  0  0  0  0  0  0  0
   29.6840   27.4560   50.2530 H   0  0  0  0  0  0  0  0  0  0  0  0
   28.9600   29.2930   46.2170 C   0  0  0  0  0  0  0  0  0  0  0  0
   28.0340   29.6620   46.7350 H   0  0  0  0  0  0  0  0  0  0  0  0
   29.4370   30.0360   45.5830 H   0  0  0  0  0  0  0  0  0  0  0  0
   28.5220   28.1640   45.3310 C   0  0  0  0  0  0  0  0  0  0  0  0
   29.0420   27.9270   44.0960 N   0  0  0  0  0  0  0  0  0  0  0  0
   28.4290   26.8480   43.5840 C   0  0  0  0  0  0  0  0  0  0  0  0
   28.6450   26.4310   42.6080 H   0  0  0  0  0  0  0  0  0  0  0  0
   27.5230   26.4130   44.5070 N   0  0  0  0  0  0  0  0  0  0  0  0
   26.8890   25.5940   44.4080 H   0  0  0  0  0  0  0  0  0  0  0  0
   27.5890   27.2060   45.5430 N   0  0  0  0  0  0  0  0  0  0  0  0
   34.9520   28.3830   49.3400 O   0  0  0  0  0  0  0  0  0  0  0  0
   37.2850   30.1490   51.4430 C   0  0  0  0  0  0  0  0  0  0  0  0
   38.0470   30.8370   50.4770 C   0  0  0  0  0  0  0  0  0  0  0  0
   37.7000   30.6430   49.1500 C   0  0  0  0  0  0  0  0  0  0  0  0
   36.6520   29.8030   48.9100 N   0  0  0  0  0  0  0  0  0  0  0  0
   35.9450   29.1610   49.8370 C   0  0  0  0  0  0  0  0  0  0  0  0
   36.2840   29.3510   51.1360 N   0  0  0  0  0  0  0  0  0  0  0  0
   37.5640   30.3080   52.4730 H   0  0  0  0  0  0  0  0  0  0  0  0
   38.8660   31.4940   50.6700 H   0  0  0  0  0  0  0  0  0  0  0  0
   38.9250   33.2570   48.9930 F   0  0  0  0  0  0  0  0  0  0  0  0
   38.9220   32.4680   47.9170 C   0  0  0  0  0  0  0  0  0  0  0  0
   38.3470   31.2510   48.0020 C   0  0  0  0  0  0  0  0  0  0  0  0
   38.4000   30.5130   46.8270 C   0  0  0  0  0  0  0  0  0  0  0  0
   38.9840   30.9800   45.6810 C   0  0  0  0  0  0  0  0  0  0  0  0
   39.5600   32.2310   45.6350 C   0  0  0  0  0  0  0  0  0  0  0  0
   39.5230   32.9810   46.7810 C   0  0  0  0  0  0  0  0  0  0  0  0
   37.9790   29.5170   46.7430 H   0  0  0  0  0  0  0  0  0  0  0  0
   39.0240   30.4050   44.7640 H   0  0  0  0  0  0  0  0  0  0  0  0
   40.0330   32.6410   44.7510 H   0  0  0  0  0  0  0  0  0  0  0  0
   39.9670   33.9660   46.7790 H   0  0  0  0  0  0  0  0  0  0  0  0
  1  3  1  0  0  0  0
  1 25  1  0  0  0  0
  2  1  1  0  0  0  0
  4  7  1  0  0  0  0
  4  6  1  0  0  0  0
  4  1  1  0  0  0  0
  5  4  1  0  0  0  0
  7  8  1  0  0  0  0
  8  9  2  0  0  0  0
  8 13  1  0  0  0  0
  9 14  1  0  0  0  0
 10  9  1  0  0  0  0
 11 10  2  0  0  0  0
 12 11  1  0  0  0  0
 12  7  2  0  0  0  0
 15 16  1  0  0  0  0
 15 11  1  0  0  0  0
 17 15  1  0  0  0  0
 18 24  2  0  0  0  0
 18 15  1  0  0  0  0
 19 18  1  0  0  0  0
 20 19  2  0  0  0  0
 20 22  1  0  0  0  0
 21 20  1  0  0  0  0
 22 24  1  0  0  0  0
 23 22  1  0  0  0  0
 25 30  1  0  0  0  0
 26 32  1  0  0  0  0
 27 33  1  0  0  0  0
 27 26  2  0  0  0  0
 28 27  1  0  0  0  0
 29 28  2  0  0  0  0
 29 30  1  0  0  0  0
 30 31  2  0  0  0  0
 31 26  1  0  0  0  0
 35 36  1  0  0  0  0
 35 34  1  0  0  0  0
 36 28  1  0  0  0  0
 37 36  2  0  0  0  0
 38 37  1  0  0  0  0
 39 38  2  0  0  0  0
 39 40  1  0  0  0  0
 40 35  2  0  0  0  0
 41 37  1  0  0  0  0
 42 38  1  0  0  0  0
 43 39  1  0  0  0  0
 44 40  1  0  0  0  0
M  END
>  <minimizedAffinity>
-6.22079992

>  <minimizedRMSD>
0.401073009

$$$$
