
 OpenBabel03272509573D

 44 47  0  0  0  0  0  0  0  0999 V2000
   34.2060   29.0590   47.7950 C   0  0  0  0  0  0  0  0  0  0  0  0
   34.7990   29.6840   47.0710 H   0  0  0  0  0  0  0  0  0  0  0  0
   33.5660   29.7740   48.3420 H   0  0  0  0  0  0  0  0  0  0  0  0
   33.3090   28.0740   47.1060 C   0  0  0  0  0  0  0  0  0  0  0  0
   33.2900   28.3560   46.0310 H   0  0  0  0  0  0  0  0  0  0  0  0
   33.6760   27.0340   47.2270 H   0  0  0  0  0  0  0  0  0  0  0  0
   31.9090   28.1450   47.5880 C   0  0  0  0  0  0  0  0  0  0  0  0
   31.6360   27.6680   48.8650 C   0  0  0  0  0  0  0  0  0  0  0  0
   30.3760   27.6890   49.4000 C   0  0  0  0  0  0  0  0  0  0  0  0
   29.3740   28.1820   48.6830 N   0  0  0  0  0  0  0  0  0  0  0  0
   29.6500   28.6460   47.4350 C   0  0  0  0  0  0  0  0  0  0  0  0
   30.8660   28.6410   46.8780 N   0  0  0  0  0  0  0  0  0  0  0  0
   32.4240   27.2560   49.4880 H   0  0  0  0  0  0  0  0  0  0  0  0
   30.1450   27.3230   50.3880 H   0  0  0  0  0  0  0  0  0  0  0  0
   28.4900   29.1950   46.6550 C   0  0  0  0  0  0  0  0  0  0  0  0
   27.5870   29.2740   47.3170 H   0  0  0  0  0  0  0  0  0  0  0  0
   28.7200   30.1080   46.1100 H   0  0  0  0  0  0  0  0  0  0  0  0
   28.1720   28.1370   45.6380 C   0  0  0  0  0  0  0  0  0  0  0  0
   28.0500   28.3820   44.3050 N   0  0  0  0  0  0  0  0  0  0  0  0
   27.7640   27.2220   43.6930 C   0  0  0  0  0  0  0  0  0  0  0  0
   27.6130   27.1210   42.6240 H   0  0  0  0  0  0  0  0  0  0  0  0
   27.7090   26.2530   44.6490 N   0  0  0  0  0  0  0  0  0  0  0  0
   27.5070   25.2450   44.4940 H   0  0  0  0  0  0  0  0  0  0  0  0
   27.9540   26.8120   45.8050 N   0  0  0  0  0  0  0  0  0  0  0  0
   35.0510   28.4200   48.7330 O   0  0  0  0  0  0  0  0  0  0  0  0
   37.1170   30.0180   51.2140 C   0  0  0  0  0  0  0  0  0  0  0  0
   37.9490   30.8120   50.3990 C   0  0  0  0  0  0  0  0  0  0  0  0
   37.7380   30.7420   49.0310 C   0  0  0  0  0  0  0  0  0  0  0  0
   36.7430   29.9080   48.6100 N   0  0  0  0  0  0  0  0  0  0  0  0
   35.9680   29.1660   49.3970 C   0  0  0  0  0  0  0  0  0  0  0  0
   36.1750   29.2350   50.7360 N   0  0  0  0  0  0  0  0  0  0  0  0
   37.2910   30.0810   52.2780 H   0  0  0  0  0  0  0  0  0  0  0  0
   38.7260   31.4630   50.7340 H   0  0  0  0  0  0  0  0  0  0  0  0
   38.7780   33.4340   49.1970 F   0  0  0  0  0  0  0  0  0  0  0  0
   38.9650   32.7250   48.0820 C   0  0  0  0  0  0  0  0  0  0  0  0
   38.4750   31.4710   48.0160 C   0  0  0  0  0  0  0  0  0  0  0  0
   38.7270   30.8240   46.8130 C   0  0  0  0  0  0  0  0  0  0  0  0
   39.4110   31.4090   45.7830 C   0  0  0  0  0  0  0  0  0  0  0  0
   39.8960   32.6950   45.8900 C   0  0  0  0  0  0  0  0  0  0  0  0
   39.6630   33.3570   47.0670 C   0  0  0  0  0  0  0  0  0  0  0  0
   38.3940   29.8120   46.6130 H   0  0  0  0  0  0  0  0  0  0  0  0
   39.6060   30.9040   44.8450 H   0  0  0  0  0  0  0  0  0  0  0  0
   40.4430   33.1970   45.1020 H   0  0  0  0  0  0  0  0  0  0  0  0
   40.0300   34.3660   47.1840 H   0  0  0  0  0  0  0  0  0  0  0  0
  1  3  1  0  0  0  0
  1 25  1  0  0  0  0
  2  1  1  0  0  0  0
  4  6  1  0  0  0  0
  4  7  1  0  0  0  0
  4  1  1  0  0  0  0
  5  4  1  0  0  0  0
  7  8  1  0  0  0  0
  8  9  2  0  0  0  0
  8 13  1  0  0  0  0
  9 14  1  0  0  0  0
 10  9  1  0  0  0  0
 11 10  2  0  0  0  0
 12 11  1  0  0  0  0
 12  7  2  0  0  0  0
 15 16  1  0  0  0  0
 15 11  1  0  0  0  0
 17 15  1  0  0  0  0
 18 24  2  0  0  0  0
 18 15  1  0  0  0  0
 19 18  1  0  0  0  0
 20 19  2  0  0  0  0
 20 22  1  0  0  0  0
 21 20  1  0  0  0  0
 22 24  1  0  0  0  0
 23 22  1  0  0  0  0
 25 30  1  0  0  0  0
 26 32  1  0  0  0  0
 27 33  1  0  0  0  0
 27 26  2  0  0  0  0
 28 27  1  0  0  0  0
 29 28  2  0  0  0  0
 29 30  1  0  0  0  0
 30 31  2  0  0  0  0
 31 26  1  0  0  0  0
 35 34  1  0  0  0  0
 36 35  1  0  0  0  0
 36 28  1  0  0  0  0
 37 36  2  0  0  0  0
 38 39  2  0  0  0  0
 38 37  1  0  0  0  0
 39 40  1  0  0  0  0
 40 44  1  0  0  0  0
 40 35  2  0  0  0  0
 41 37  1  0  0  0  0
 42 38  1  0  0  0  0
 43 39  1  0  0  0  0
M  END
>  <minimizedAffinity>
-6.28013992

>  <minimizedRMSD>
0.69139123

$$$$
