
 OpenBabel03272509573D

 44 47  0  0  0  0  0  0  0  0999 V2000
   34.4200   28.6500   48.1230 C   0  0  0  0  0  0  0  0  0  0  0  0
   35.2230   28.9120   47.3810 H   0  0  0  0  0  0  0  0  0  0  0  0
   33.8060   29.5630   48.2240 H   0  0  0  0  0  0  0  0  0  0  0  0
   33.5240   27.5470   47.6390 C   0  0  0  0  0  0  0  0  0  0  0  0
   33.7450   27.4070   46.5580 H   0  0  0  0  0  0  0  0  0  0  0  0
   33.7020   26.6040   48.1960 H   0  0  0  0  0  0  0  0  0  0  0  0
   32.0880   27.8960   47.7380 C   0  0  0  0  0  0  0  0  0  0  0  0
   31.3770   27.4220   48.8340 C   0  0  0  0  0  0  0  0  0  0  0  0
   30.0450   27.6890   49.0140 C   0  0  0  0  0  0  0  0  0  0  0  0
   29.4040   28.4270   48.1160 N   0  0  0  0  0  0  0  0  0  0  0  0
   30.1070   28.8860   47.0470 C   0  0  0  0  0  0  0  0  0  0  0  0
   31.4060   28.6460   46.8370 N   0  0  0  0  0  0  0  0  0  0  0  0
   31.8590   26.8150   49.5920 H   0  0  0  0  0  0  0  0  0  0  0  0
   29.4780   27.3300   49.8570 H   0  0  0  0  0  0  0  0  0  0  0  0
   29.3460   29.7170   46.0540 C   0  0  0  0  0  0  0  0  0  0  0  0
   28.9680   30.6520   46.5480 H   0  0  0  0  0  0  0  0  0  0  0  0
   29.8830   29.8940   45.1260 H   0  0  0  0  0  0  0  0  0  0  0  0
   28.1310   28.9010   45.7170 C   0  0  0  0  0  0  0  0  0  0  0  0
   28.1600   27.7960   44.9240 N   0  0  0  0  0  0  0  0  0  0  0  0
   26.9090   27.3150   44.8340 C   0  0  0  0  0  0  0  0  0  0  0  0
   26.6360   26.4360   44.2630 H   0  0  0  0  0  0  0  0  0  0  0  0
   26.1010   28.1260   45.5740 N   0  0  0  0  0  0  0  0  0  0  0  0
   25.0750   28.0190   45.7050 H   0  0  0  0  0  0  0  0  0  0  0  0
   26.8430   29.0680   46.0960 N   0  0  0  0  0  0  0  0  0  0  0  0
   34.9700   28.3490   49.3910 O   0  0  0  0  0  0  0  0  0  0  0  0
   37.2950   30.1550   51.4690 C   0  0  0  0  0  0  0  0  0  0  0  0
   38.0460   30.8420   50.4940 C   0  0  0  0  0  0  0  0  0  0  0  0
   37.6950   30.6350   49.1700 C   0  0  0  0  0  0  0  0  0  0  0  0
   36.6540   29.7820   48.9420 N   0  0  0  0  0  0  0  0  0  0  0  0
   35.9570   29.1410   49.8770 C   0  0  0  0  0  0  0  0  0  0  0  0
   36.3010   29.3450   51.1730 N   0  0  0  0  0  0  0  0  0  0  0  0
   37.5770   30.3240   52.4960 H   0  0  0  0  0  0  0  0  0  0  0  0
   38.8590   31.5090   50.6780 H   0  0  0  0  0  0  0  0  0  0  0  0
   38.9430   33.2370   49.0020 F   0  0  0  0  0  0  0  0  0  0  0  0
   38.9160   32.4510   47.9240 C   0  0  0  0  0  0  0  0  0  0  0  0
   38.3310   31.2400   48.0140 C   0  0  0  0  0  0  0  0  0  0  0  0
   38.3600   30.5040   46.8370 C   0  0  0  0  0  0  0  0  0  0  0  0
   38.9310   30.9700   45.6830 C   0  0  0  0  0  0  0  0  0  0  0  0
   39.5190   32.2150   45.6320 C   0  0  0  0  0  0  0  0  0  0  0  0
   39.5060   32.9620   46.7810 C   0  0  0  0  0  0  0  0  0  0  0  0
   37.9280   29.5130   46.7560 H   0  0  0  0  0  0  0  0  0  0  0  0
   38.9520   30.3960   44.7650 H   0  0  0  0  0  0  0  0  0  0  0  0
   39.9830   32.6230   44.7430 H   0  0  0  0  0  0  0  0  0  0  0  0
   39.9590   33.9430   46.7750 H   0  0  0  0  0  0  0  0  0  0  0  0
  1  3  1  0  0  0  0
  1 25  1  0  0  0  0
  2  1  1  0  0  0  0
  4  7  1  0  0  0  0
  4  1  1  0  0  0  0
  4  6  1  0  0  0  0
  5  4  1  0  0  0  0
  7  8  1  0  0  0  0
  8  9  2  0  0  0  0
  8 13  1  0  0  0  0
  9 14  1  0  0  0  0
 10  9  1  0  0  0  0
 11 10  2  0  0  0  0
 12 11  1  0  0  0  0
 12  7  2  0  0  0  0
 15 16  1  0  0  0  0
 15 11  1  0  0  0  0
 17 15  1  0  0  0  0
 18 15  1  0  0  0  0
 18 24  2  0  0  0  0
 19 18  1  0  0  0  0
 20 19  2  0  0  0  0
 20 22  1  0  0  0  0
 21 20  1  0  0  0  0
 22 23  1  0  0  0  0
 22 24  1  0  0  0  0
 25 30  1  0  0  0  0
 26 32  1  0  0  0  0
 27 33  1  0  0  0  0
 27 26  2  0  0  0  0
 28 27  1  0  0  0  0
 29 28  2  0  0  0  0
 29 30  1  0  0  0  0
 30 31  2  0  0  0  0
 31 26  1  0  0  0  0
 35 36  1  0  0  0  0
 35 34  1  0  0  0  0
 36 28  1  0  0  0  0
 37 36  2  0  0  0  0
 38 37  1  0  0  0  0
 39 38  2  0  0  0  0
 39 40  1  0  0  0  0
 40 35  2  0  0  0  0
 41 37  1  0  0  0  0
 42 38  1  0  0  0  0
 43 39  1  0  0  0  0
 44 40  1  0  0  0  0
M  END
>  <minimizedAffinity>
-6.59692335

>  <minimizedRMSD>
0.878475666

$$$$
