
 OpenBabel03272509573D

 44 47  0  0  0  0  0  0  0  0999 V2000
   34.2440   28.7490   48.0740 C   0  0  0  0  0  0  0  0  0  0  0  0
   34.9760   29.1530   47.3210 H   0  0  0  0  0  0  0  0  0  0  0  0
   33.6160   29.6110   48.3630 H   0  0  0  0  0  0  0  0  0  0  0  0
   33.3420   27.6980   47.4970 C   0  0  0  0  0  0  0  0  0  0  0  0
   33.4320   27.7730   46.3910 H   0  0  0  0  0  0  0  0  0  0  0  0
   33.6280   26.6830   47.8410 H   0  0  0  0  0  0  0  0  0  0  0  0
   31.9160   27.9300   47.8240 C   0  0  0  0  0  0  0  0  0  0  0  0
   31.4770   27.5890   49.0980 C   0  0  0  0  0  0  0  0  0  0  0  0
   30.1780   27.7650   49.4960 C   0  0  0  0  0  0  0  0  0  0  0  0
   29.3010   28.2780   48.6420 N   0  0  0  0  0  0  0  0  0  0  0  0
   29.7390   28.6090   47.3980 C   0  0  0  0  0  0  0  0  0  0  0  0
   30.9980   28.4520   46.9730 N   0  0  0  0  0  0  0  0  0  0  0  0
   32.1580   27.1660   49.8290 H   0  0  0  0  0  0  0  0  0  0  0  0
   29.8200   27.5060   50.4790 H   0  0  0  0  0  0  0  0  0  0  0  0
   28.7170   29.1870   46.4610 C   0  0  0  0  0  0  0  0  0  0  0  0
   27.7690   29.4100   47.0210 H   0  0  0  0  0  0  0  0  0  0  0  0
   29.0870   30.0190   45.8680 H   0  0  0  0  0  0  0  0  0  0  0  0
   28.3890   28.0720   45.5110 C   0  0  0  0  0  0  0  0  0  0  0  0
   28.4940   28.1770   44.1580 N   0  0  0  0  0  0  0  0  0  0  0  0
   28.1250   27.0050   43.6180 C   0  0  0  0  0  0  0  0  0  0  0  0
   28.1120   26.8030   42.5540 H   0  0  0  0  0  0  0  0  0  0  0  0
   27.7900   26.1680   44.6420 N   0  0  0  0  0  0  0  0  0  0  0  0
   27.4620   25.1850   44.5510 H   0  0  0  0  0  0  0  0  0  0  0  0
   27.9520   26.8170   45.7650 N   0  0  0  0  0  0  0  0  0  0  0  0
   34.9060   28.2810   49.2330 O   0  0  0  0  0  0  0  0  0  0  0  0
   37.1040   30.0220   51.4970 C   0  0  0  0  0  0  0  0  0  0  0  0
   37.8900   30.7610   50.5910 C   0  0  0  0  0  0  0  0  0  0  0  0
   37.6060   30.6080   49.2430 C   0  0  0  0  0  0  0  0  0  0  0  0
   36.5890   29.7530   48.9280 N   0  0  0  0  0  0  0  0  0  0  0  0
   35.8580   29.0630   49.8000 C   0  0  0  0  0  0  0  0  0  0  0  0
   36.1360   29.2140   51.1190 N   0  0  0  0  0  0  0  0  0  0  0  0
   37.3340   30.1490   52.5440 H   0  0  0  0  0  0  0  0  0  0  0  0
   38.6840   31.4290   50.8430 H   0  0  0  0  0  0  0  0  0  0  0  0
   38.7980   33.2410   49.2410 F   0  0  0  0  0  0  0  0  0  0  0  0
   38.8470   32.4980   48.1340 C   0  0  0  0  0  0  0  0  0  0  0  0
   38.2870   31.2710   48.1470 C   0  0  0  0  0  0  0  0  0  0  0  0
   38.3950   30.5830   46.9460 C   0  0  0  0  0  0  0  0  0  0  0  0
   39.0150   31.1050   45.8430 C   0  0  0  0  0  0  0  0  0  0  0  0
   39.5750   32.3640   45.8710 C   0  0  0  0  0  0  0  0  0  0  0  0
   39.4840   33.0650   47.0450 C   0  0  0  0  0  0  0  0  0  0  0  0
   37.9920   29.5860   46.8050 H   0  0  0  0  0  0  0  0  0  0  0  0
   39.0990   30.5690   44.9060 H   0  0  0  0  0  0  0  0  0  0  0  0
   40.0750   32.8170   45.0240 H   0  0  0  0  0  0  0  0  0  0  0  0
   39.9130   34.0550   47.1000 H   0  0  0  0  0  0  0  0  0  0  0  0
  1  3  1  0  0  0  0
  1 25  1  0  0  0  0
  2  1  1  0  0  0  0
  4  7  1  0  0  0  0
  4  6  1  0  0  0  0
  4  1  1  0  0  0  0
  5  4  1  0  0  0  0
  7  8  1  0  0  0  0
  8  9  2  0  0  0  0
  8 13  1  0  0  0  0
  9 14  1  0  0  0  0
 10  9  1  0  0  0  0
 11 10  2  0  0  0  0
 12 11  1  0  0  0  0
 12  7  2  0  0  0  0
 15 16  1  0  0  0  0
 15 11  1  0  0  0  0
 17 15  1  0  0  0  0
 18 24  2  0  0  0  0
 18 15  1  0  0  0  0
 19 18  1  0  0  0  0
 20 19  2  0  0  0  0
 20 22  1  0  0  0  0
 21 20  1  0  0  0  0
 22 24  1  0  0  0  0
 23 22  1  0  0  0  0
 25 30  1  0  0  0  0
 26 32  1  0  0  0  0
 27 33  1  0  0  0  0
 27 26  2  0  0  0  0
 28 27  1  0  0  0  0
 29 28  2  0  0  0  0
 29 30  1  0  0  0  0
 30 31  2  0  0  0  0
 31 26  1  0  0  0  0
 35 36  1  0  0  0  0
 35 34  1  0  0  0  0
 36 28  1  0  0  0  0
 37 36  2  0  0  0  0
 38 39  2  0  0  0  0
 38 37  1  0  0  0  0
 39 40  1  0  0  0  0
 40 44  1  0  0  0  0
 40 35  2  0  0  0  0
 41 37  1  0  0  0  0
 42 38  1  0  0  0  0
 43 39  1  0  0  0  0
M  END
>  <minimizedAffinity>
-6.26076937

>  <minimizedRMSD>
0.533534944

$$$$
