
 OpenBabel03262521013D

 35 36  0  0  1  0  0  0  0  0999 V2000
   37.9850   30.5770   46.6110 S   0  0  0  0  0  0  0  0  0  0  0  0
   39.4760   32.8380   46.3600 N   0  0  0  0  0  0  0  0  0  0  0  0
   38.1530   32.3320   46.0960 C   0  0  1  0  0  0  0  0  0  0  0  0
   37.8510   32.3670   44.6250 C   0  0  0  0  0  0  0  0  0  0  0  0
   38.8570   31.5460   43.9630 N   0  0  0  0  0  0  0  0  0  0  0  0
   40.1020   32.3220   44.0940 C   0  0  0  0  0  0  0  0  0  0  0  0
   40.4860   32.2230   45.5590 C   0  0  2  0  0  0  0  0  0  0  0  0
   39.4540   33.8450   46.1760 H   0  0  0  0  0  0  0  0  0  0  0  0
   37.4260   32.9450   46.6640 H   0  0  0  0  0  0  0  0  0  0  0  0
   37.8570   33.3720   44.1870 H   0  0  0  0  0  0  0  0  0  0  0  0
   36.8410   31.8950   44.4620 H   0  0  0  0  0  0  0  0  0  0  0  0
   38.9460   30.6170   44.3930 H   0  0  0  0  0  0  0  0  0  0  0  0
   39.8630   33.3720   43.8400 H   0  0  0  0  0  0  0  0  0  0  0  0
   40.9040   31.8790   43.4950 H   0  0  0  0  0  0  0  0  0  0  0  0
   41.4270   32.8010   45.7160 H   0  0  0  0  0  0  0  0  0  0  0  0
   40.7190   30.8410   45.9100 N   0  0  0  0  0  0  0  0  0  0  0  0
   40.8340   30.2220   45.0880 H   0  0  0  0  0  0  0  0  0  0  0  0
   41.5480   30.7690   46.5360 H   0  0  0  0  0  0  0  0  0  0  0  0
   35.7340   31.1220   49.9400 C   0  0  0  0  0  0  0  0  0  0  0  0
   36.7070   31.3330   48.9860 C   0  0  0  0  0  0  0  0  0  0  0  0
   36.7920   30.4510   47.9270 C   0  0  0  0  0  0  0  0  0  0  0  0
   35.8940   29.4040   47.8840 N   0  0  0  0  0  0  0  0  0  0  0  0
   34.9830   29.2580   48.8330 C   0  0  0  0  0  0  0  0  0  0  0  0
   34.8840   30.0980   49.8650 N   0  0  0  0  0  0  0  0  0  0  0  0
   35.6530   31.8040   50.7770 H   0  0  0  0  0  0  0  0  0  0  0  0
   37.4060   32.1520   49.0220 H   0  0  0  0  0  0  0  0  0  0  0  0
   34.0500   28.1310   48.7480 C   0  0  0  0  0  0  0  0  0  0  0  0
   34.3510   27.0120   48.2890 O   0  0  0  0  0  0  0  0  0  0  0  0
   32.7080   28.3310   49.2240 N   0  0  0  0  0  0  0  0  0  0  0  0
   32.5710   28.8270   50.1530 H   0  0  0  0  0  0  0  0  0  0  0  0
   31.3080   27.7980   48.3480 S   0  0  0  0  0  0  0  0  0  0  0  0
   30.0590   28.0270   49.1210 O   0  0  0  0  0  1  0  0  0  0  0  0
   31.2150   28.5850   47.0730 O   0  0  0  0  0  1  0  0  0  0  0  0
   31.4620   26.1560   48.0280 O   0  0  0  0  0  0  0  0  0  0  0  0
   32.4070   25.9410   47.9380 H   0  0  0  0  0  0  0  0  0  0  0  0
  1 21  1  0  0  0  0
  3  2  1  0  0  0  0
  3  1  1  0  0  0  0
  3  9  1  1  0  0  0
  4  3  1  0  0  0  0
  5  6  1  0  0  0  0
  5 12  1  0  0  0  0
  5  4  1  0  0  0  0
  6  7  1  0  0  0  0
  7 15  1  1  0  0  0
  7 16  1  0  0  0  0
  7  2  1  0  0  0  0
  8  2  1  0  0  0  0
 10  4  1  0  0  0  0
 11  4  1  0  0  0  0
 13  6  1  0  0  0  0
 14  6  1  0  0  0  0
 16 18  1  0  0  0  0
 17 16  1  0  0  0  0
 19 25  1  0  0  0  0
 20 26  1  0  0  0  0
 20 19  2  0  0  0  0
 21 20  1  0  0  0  0
 22 21  2  0  0  0  0
 22 23  1  0  0  0  0
 23 24  2  0  0  0  0
 24 19  1  0  0  0  0
 27 23  1  0  0  0  0
 27 29  1  0  0  0  0
 28 27  2  0  0  0  0
 29 30  1  0  0  0  0
 31 32  1  0  0  0  0
 31 29  1  0  0  0  0
 33 31  1  0  0  0  0
 34 31  1  0  0  0  0
 35 34  1  0  0  0  0
M  END
>  <minimizedAffinity>
-5.30661583

>  <minimizedRMSD>
2.057199

$$$$
