
 OpenBabel03272510313D

 30 31  0  0  0  0  0  0  0  0999 V2000
   38.2230   24.9670   36.0820 C   0  0  0  0  0  0  0  0  0  0  0  0
   37.7310   24.2830   37.1770 C   0  0  0  0  0  0  0  0  0  0  0  0
   37.4660   22.9350   36.9480 C   0  0  0  0  0  0  0  0  0  0  0  0
   37.6960   22.3850   35.7140 N   0  0  0  0  0  0  0  0  0  0  0  0
   38.1780   23.0990   34.6770 C   0  0  0  0  0  0  0  0  0  0  0  0
   38.4450   24.4180   34.8730 N   0  0  0  0  0  0  0  0  0  0  0  0
   37.5540   24.7130   38.1350 H   0  0  0  0  0  0  0  0  0  0  0  0
   37.0810   22.2750   37.7050 H   0  0  0  0  0  0  0  0  0  0  0  0
   38.5620   26.4220   36.2660 C   0  0  0  0  0  0  0  0  0  0  0  0
   39.1840   27.2110   35.2570 C   0  0  0  0  0  0  0  0  0  0  0  0
   37.6760   27.3470   35.4110 C   0  0  0  0  0  0  0  0  0  0  0  0
   38.6210   26.6910   37.3430 H   0  0  0  0  0  0  0  0  0  0  0  0
   39.4490   26.7390   34.2650 H   0  0  0  0  0  0  0  0  0  0  0  0
   39.8350   28.0520   35.4890 H   0  0  0  0  0  0  0  0  0  0  0  0
   37.3580   28.2610   35.9250 H   0  0  0  0  0  0  0  0  0  0  0  0
   37.0010   26.8900   34.6790 H   0  0  0  0  0  0  0  0  0  0  0  0
   38.4280   22.4960   33.3800 C   0  0  0  0  0  0  0  0  0  0  0  0
   39.4630   22.1150   33.3130 H   0  0  0  0  0  0  0  0  0  0  0  0
   37.6870   21.6620   33.2510 H   0  0  0  0  0  0  0  0  0  0  0  0
   36.9480   23.5290   31.6670 C   0  0  0  0  0  0  0  0  0  0  0  0
   35.9770   22.7480   31.8530 O   0  0  0  0  0  0  0  0  0  0  0  0
   38.1820   23.5060   32.3630 N   0  0  0  0  0  0  0  0  0  0  0  0
   38.9400   24.1980   32.1730 H   0  0  0  0  0  0  0  0  0  0  0  0
   36.8360   24.5560   30.6610 N   0  0  0  0  0  0  0  0  0  0  0  0
   37.3370   24.4750   29.7280 H   0  0  0  0  0  0  0  0  0  0  0  0
   35.8500   25.9460   31.0180 S   0  0  0  0  0  0  0  0  0  0  0  0
   34.4000   25.5820   30.9630 O   0  0  0  0  0  1  0  0  0  0  0  0
   36.2210   26.3950   32.4020 O   0  0  0  0  0  1  0  0  0  0  0  0
   36.1770   27.1410   29.9050 O   0  0  0  0  0  0  0  0  0  0  0  0
   35.7140   27.9630   30.1470 H   0  0  0  0  0  0  0  0  0  0  0  0
  1  9  1  0  0  0  0
  1  2  1  0  0  0  0
  2  7  1  0  0  0  0
  3  2  2  0  0  0  0
  3  8  1  0  0  0  0
  4  3  1  0  0  0  0
  5  6  1  0  0  0  0
  5  4  2  0  0  0  0
  6  1  2  0  0  0  0
  9 12  1  0  0  0  0
 10 11  1  0  0  0  0
 10 14  1  0  0  0  0
 10  9  1  0  0  0  0
 11 15  1  0  0  0  0
 11  9  1  0  0  0  0
 13 10  1  0  0  0  0
 16 11  1  0  0  0  0
 17  5  1  0  0  0  0
 18 17  1  0  0  0  0
 19 17  1  0  0  0  0
 20 21  2  0  0  0  0
 20 22  1  0  0  0  0
 22 17  1  0  0  0  0
 23 22  1  0  0  0  0
 24 26  1  0  0  0  0
 24 20  1  0  0  0  0
 25 24  1  0  0  0  0
 26 28  1  0  0  0  0
 27 26  1  0  0  0  0
 29 30  1  0  0  0  0
 29 26  1  0  0  0  0
M  END
>  <minimizedAffinity>
-4.99806595

$$$$

 OpenBabel03272510313D

 30 31  0  0  0  0  0  0  0  0999 V2000
   36.6760   26.3440   32.3440 C   0  0  0  0  0  0  0  0  0  0  0  0
   35.5690   26.3610   31.5170 C   0  0  0  0  0  0  0  0  0  0  0  0
   35.2030   25.1160   31.0110 C   0  0  0  0  0  0  0  0  0  0  0  0
   35.9200   23.9970   31.3430 N   0  0  0  0  0  0  0  0  0  0  0  0
   36.9940   24.0350   32.1570 C   0  0  0  0  0  0  0  0  0  0  0  0
   37.3740   25.2380   32.6650 N   0  0  0  0  0  0  0  0  0  0  0  0
   35.0140   27.2340   31.2610 H   0  0  0  0  0  0  0  0  0  0  0  0
   34.3640   24.9730   30.3550 H   0  0  0  0  0  0  0  0  0  0  0  0
   37.1100   27.6500   32.9530 C   0  0  0  0  0  0  0  0  0  0  0  0
   36.1940   28.6680   33.3470 C   0  0  0  0  0  0  0  0  0  0  0  0
   36.7360   27.7600   34.4420 C   0  0  0  0  0  0  0  0  0  0  0  0
   38.1720   27.8740   32.7170 H   0  0  0  0  0  0  0  0  0  0  0  0
   35.0860   28.5080   33.1990 H   0  0  0  0  0  0  0  0  0  0  0  0
   36.4540   29.7250   33.3360 H   0  0  0  0  0  0  0  0  0  0  0  0
   37.5110   28.2210   35.0650 H   0  0  0  0  0  0  0  0  0  0  0  0
   36.1020   26.9800   34.8790 H   0  0  0  0  0  0  0  0  0  0  0  0
   37.7340   22.8360   32.5090 C   0  0  0  0  0  0  0  0  0  0  0  0
   37.3520   21.9590   31.9560 H   0  0  0  0  0  0  0  0  0  0  0  0
   38.8120   23.0250   32.2620 H   0  0  0  0  0  0  0  0  0  0  0  0
   38.6910   22.1100   34.6880 C   0  0  0  0  0  0  0  0  0  0  0  0
   39.8230   21.7980   34.2300 O   0  0  0  0  0  0  0  0  0  0  0  0
   37.6070   22.6380   33.9440 N   0  0  0  0  0  0  0  0  0  0  0  0
   36.6990   22.8950   34.3910 H   0  0  0  0  0  0  0  0  0  0  0  0
   38.4330   21.9290   36.0940 N   0  0  0  0  0  0  0  0  0  0  0  0
   37.8290   21.1310   36.4490 H   0  0  0  0  0  0  0  0  0  0  0  0
   39.1420   23.0630   37.2090 S   0  0  0  0  0  0  0  0  0  0  0  0
   40.6350   22.9750   37.1600 O   0  0  0  0  0  1  0  0  0  0  0  0
   38.6880   24.4300   36.7830 O   0  0  0  0  0  1  0  0  0  0  0  0
   38.6050   22.7180   38.7470 O   0  0  0  0  0  0  0  0  0  0  0  0
   38.9070   23.4030   39.3710 H   0  0  0  0  0  0  0  0  0  0  0  0
  1  6  1  0  0  0  0
  1  9  1  0  0  0  0
  2  1  2  0  0  0  0
  3  4  2  0  0  0  0
  3  2  1  0  0  0  0
  4  5  1  0  0  0  0
  5 17  1  0  0  0  0
  5  6  2  0  0  0  0
  7  2  1  0  0  0  0
  8  3  1  0  0  0  0
  9 10  1  0  0  0  0
  9 11  1  0  0  0  0
 10 11  1  0  0  0  0
 11 16  1  0  0  0  0
 11 15  1  0  0  0  0
 12  9  1  0  0  0  0
 13 10  1  0  0  0  0
 14 10  1  0  0  0  0
 17 22  1  0  0  0  0
 18 17  1  0  0  0  0
 19 17  1  0  0  0  0
 20 24  1  0  0  0  0
 21 20  2  0  0  0  0
 22 23  1  0  0  0  0
 22 20  1  0  0  0  0
 24 25  1  0  0  0  0
 24 26  1  0  0  0  0
 26 29  1  0  0  0  0
 27 26  1  0  0  0  0
 28 26  1  0  0  0  0
 29 30  1  0  0  0  0
M  END
>  <minimizedAffinity>
-4.93463516

$$$$

 OpenBabel03272510313D

 30 31  0  0  0  0  0  0  0  0999 V2000
   36.0170   23.6450   31.3820 C   0  0  0  0  0  0  0  0  0  0  0  0
   35.1030   24.6180   31.0230 C   0  0  0  0  0  0  0  0  0  0  0  0
   35.5290   25.9250   31.2510 C   0  0  0  0  0  0  0  0  0  0  0  0
   36.7650   26.1660   31.7890 N   0  0  0  0  0  0  0  0  0  0  0  0
   37.6200   25.1770   32.1210 C   0  0  0  0  0  0  0  0  0  0  0  0
   37.2300   23.8920   31.9110 N   0  0  0  0  0  0  0  0  0  0  0  0
   34.1420   24.4270   30.6050 H   0  0  0  0  0  0  0  0  0  0  0  0
   34.9270   26.7860   31.0220 H   0  0  0  0  0  0  0  0  0  0  0  0
   35.6360   22.2100   31.1340 C   0  0  0  0  0  0  0  0  0  0  0  0
   36.4020   21.1070   31.6120 C   0  0  0  0  0  0  0  0  0  0  0  0
   35.1670   21.4950   32.4140 C   0  0  0  0  0  0  0  0  0  0  0  0
   34.9510   22.1170   30.2640 H   0  0  0  0  0  0  0  0  0  0  0  0
   37.3450   21.2980   32.2020 H   0  0  0  0  0  0  0  0  0  0  0  0
   36.4380   20.1510   31.0920 H   0  0  0  0  0  0  0  0  0  0  0  0
   34.3080   20.8300   32.2650 H   0  0  0  0  0  0  0  0  0  0  0  0
   35.2700   22.0190   33.3710 H   0  0  0  0  0  0  0  0  0  0  0  0
   38.9320   25.4520   32.6780 C   0  0  0  0  0  0  0  0  0  0  0  0
   39.7100   25.4210   31.8930 H   0  0  0  0  0  0  0  0  0  0  0  0
   38.8870   26.4670   33.1550 H   0  0  0  0  0  0  0  0  0  0  0  0
   39.5420   24.8700   35.0200 C   0  0  0  0  0  0  0  0  0  0  0  0
   39.6270   26.0590   35.4260 O   0  0  0  0  0  0  0  0  0  0  0  0
   39.1970   24.4600   33.7070 N   0  0  0  0  0  0  0  0  0  0  0  0
   39.1250   23.4530   33.4410 H   0  0  0  0  0  0  0  0  0  0  0  0
   39.8130   23.7950   35.9410 N   0  0  0  0  0  0  0  0  0  0  0  0
   40.7200   23.2420   35.8980 H   0  0  0  0  0  0  0  0  0  0  0  0
   38.6050   23.4200   37.1380 S   0  0  0  0  0  0  0  0  0  0  0  0
   38.0200   24.6780   37.6970 O   0  0  0  0  0  1  0  0  0  0  0  0
   37.5440   22.6160   36.4440 O   0  0  0  0  0  1  0  0  0  0  0  0
   39.3110   22.5320   38.3590 O   0  0  0  0  0  0  0  0  0  0  0  0
   38.6330   22.2240   38.9860 H   0  0  0  0  0  0  0  0  0  0  0  0
  1  6  1  0  0  0  0
  2  3  1  0  0  0  0
  2  1  2  0  0  0  0
  3  4  2  0  0  0  0
  4  5  1  0  0  0  0
  5 17  1  0  0  0  0
  6  5  2  0  0  0  0
  7  2  1  0  0  0  0
  8  3  1  0  0  0  0
  9  1  1  0  0  0  0
  9 10  1  0  0  0  0
  9 11  1  0  0  0  0
 10 13  1  0  0  0  0
 10 11  1  0  0  0  0
 11 16  1  0  0  0  0
 12  9  1  0  0  0  0
 14 10  1  0  0  0  0
 15 11  1  0  0  0  0
 17 19  1  0  0  0  0
 17 22  1  0  0  0  0
 18 17  1  0  0  0  0
 20 21  2  0  0  0  0
 20 24  1  0  0  0  0
 22 20  1  0  0  0  0
 23 22  1  0  0  0  0
 24 26  1  0  0  0  0
 25 24  1  0  0  0  0
 26 27  1  0  0  0  0
 26 29  1  0  0  0  0
 28 26  1  0  0  0  0
 29 30  1  0  0  0  0
M  END
>  <minimizedAffinity>
-4.88263512

$$$$

 OpenBabel03272510313D

 30 31  0  0  0  0  0  0  0  0999 V2000
   35.5840   29.4520   34.0840 C   0  0  0  0  0  0  0  0  0  0  0  0
   35.0100   29.1140   32.8740 C   0  0  0  0  0  0  0  0  0  0  0  0
   35.5770   28.0040   32.2530 C   0  0  0  0  0  0  0  0  0  0  0  0
   36.6190   27.3380   32.8430 N   0  0  0  0  0  0  0  0  0  0  0  0
   37.1430   27.7100   34.0280 C   0  0  0  0  0  0  0  0  0  0  0  0
   36.6090   28.7920   34.6560 N   0  0  0  0  0  0  0  0  0  0  0  0
   34.1990   29.6340   32.4180 H   0  0  0  0  0  0  0  0  0  0  0  0
   35.2350   27.6220   31.3070 H   0  0  0  0  0  0  0  0  0  0  0  0
   35.0010   30.6240   34.8270 C   0  0  0  0  0  0  0  0  0  0  0  0
   35.6870   31.3010   35.8770 C   0  0  0  0  0  0  0  0  0  0  0  0
   35.7170   31.9470   34.4980 C   0  0  0  0  0  0  0  0  0  0  0  0
   33.8940   30.6520   34.7350 H   0  0  0  0  0  0  0  0  0  0  0  0
   36.7170   30.9540   36.1840 H   0  0  0  0  0  0  0  0  0  0  0  0
   35.1640   31.7890   36.6980 H   0  0  0  0  0  0  0  0  0  0  0  0
   35.0430   32.8040   34.3900 H   0  0  0  0  0  0  0  0  0  0  0  0
   36.6260   31.9090   33.8890 H   0  0  0  0  0  0  0  0  0  0  0  0
   38.2390   26.9850   34.6450 C   0  0  0  0  0  0  0  0  0  0  0  0
   38.9470   26.6140   33.8810 H   0  0  0  0  0  0  0  0  0  0  0  0
   38.7490   27.6900   35.3540 H   0  0  0  0  0  0  0  0  0  0  0  0
   38.4530   24.7290   35.6730 C   0  0  0  0  0  0  0  0  0  0  0  0
   39.6530   24.5500   35.3340 O   0  0  0  0  0  0  0  0  0  0  0  0
   37.6730   25.8810   35.4030 N   0  0  0  0  0  0  0  0  0  0  0  0
   36.6860   25.9740   35.7320 H   0  0  0  0  0  0  0  0  0  0  0  0
   37.7710   23.6910   36.4050 N   0  0  0  0  0  0  0  0  0  0  0  0
   37.0490   23.0670   35.9390 H   0  0  0  0  0  0  0  0  0  0  0  0
   38.1640   23.4830   38.0880 S   0  0  0  0  0  0  0  0  0  0  0  0
   39.5730   23.0040   38.2370 O   0  0  0  0  0  1  0  0  0  0  0  0
   38.0010   24.8270   38.7400 O   0  0  0  0  0  1  0  0  0  0  0  0
   37.1150   22.3750   38.7560 O   0  0  0  0  0  0  0  0  0  0  0  0
   37.2500   22.3210   39.7190 H   0  0  0  0  0  0  0  0  0  0  0  0
  1  6  1  0  0  0  0
  1  9  1  0  0  0  0
  2  1  2  0  0  0  0
  3  4  2  0  0  0  0
  3  2  1  0  0  0  0
  4  5  1  0  0  0  0
  5 17  1  0  0  0  0
  5  6  2  0  0  0  0
  7  2  1  0  0  0  0
  8  3  1  0  0  0  0
  9 10  1  0  0  0  0
 10 13  1  0  0  0  0
 10 14  1  0  0  0  0
 11  9  1  0  0  0  0
 11 10  1  0  0  0  0
 12  9  1  0  0  0  0
 15 11  1  0  0  0  0
 16 11  1  0  0  0  0
 17 19  1  0  0  0  0
 17 22  1  0  0  0  0
 18 17  1  0  0  0  0
 20 24  1  0  0  0  0
 21 20  2  0  0  0  0
 22 20  1  0  0  0  0
 22 23  1  0  0  0  0
 24 26  1  0  0  0  0
 25 24  1  0  0  0  0
 26 27  1  0  0  0  0
 26 28  1  0  0  0  0
 26 29  1  0  0  0  0
 29 30  1  0  0  0  0
M  END
>  <minimizedAffinity>
-4.8776536

$$$$

 OpenBabel03272510313D

 30 31  0  0  0  0  0  0  0  0999 V2000
   39.8820   22.4710   37.1670 C   0  0  0  0  0  0  0  0  0  0  0  0
   39.1930   23.1900   38.1260 C   0  0  0  0  0  0  0  0  0  0  0  0
   37.8710   23.4760   37.7970 C   0  0  0  0  0  0  0  0  0  0  0  0
   37.3470   23.0520   36.6050 N   0  0  0  0  0  0  0  0  0  0  0  0
   38.0640   22.3520   35.7020 C   0  0  0  0  0  0  0  0  0  0  0  0
   39.3580   22.0590   35.9970 N   0  0  0  0  0  0  0  0  0  0  0  0
   39.6040   23.5180   39.0530 H   0  0  0  0  0  0  0  0  0  0  0  0
   37.2120   24.0280   38.4440 H   0  0  0  0  0  0  0  0  0  0  0  0
   41.3080   22.0970   37.4700 C   0  0  0  0  0  0  0  0  0  0  0  0
   42.1250   21.3500   36.5730 C   0  0  0  0  0  0  0  0  0  0  0  0
   42.3160   22.8600   36.5910 C   0  0  0  0  0  0  0  0  0  0  0  0
   41.5140   22.1330   38.5610 H   0  0  0  0  0  0  0  0  0  0  0  0
   41.6980   21.0070   35.5850 H   0  0  0  0  0  0  0  0  0  0  0  0
   42.9230   20.6940   36.9170 H   0  0  0  0  0  0  0  0  0  0  0  0
   43.2130   23.1920   37.1260 H   0  0  0  0  0  0  0  0  0  0  0  0
   41.9300   23.4770   35.7720 H   0  0  0  0  0  0  0  0  0  0  0  0
   37.4880   21.8990   34.4490 C   0  0  0  0  0  0  0  0  0  0  0  0
   37.8230   20.8740   34.2070 H   0  0  0  0  0  0  0  0  0  0  0  0
   36.3720   21.9370   34.5610 H   0  0  0  0  0  0  0  0  0  0  0  0
   37.0270   23.0950   32.3160 C   0  0  0  0  0  0  0  0  0  0  0  0
   35.8800   22.6030   32.1420 O   0  0  0  0  0  0  0  0  0  0  0  0
   37.8890   22.8340   33.4100 N   0  0  0  0  0  0  0  0  0  0  0  0
   38.8220   23.2930   33.5040 H   0  0  0  0  0  0  0  0  0  0  0  0
   37.5490   24.0140   31.3360 N   0  0  0  0  0  0  0  0  0  0  0  0
   38.3010   23.7190   30.6450 H   0  0  0  0  0  0  0  0  0  0  0  0
   36.9120   25.6340   31.3110 S   0  0  0  0  0  0  0  0  0  0  0  0
   36.6270   26.1010   32.7030 O   0  0  0  0  0  1  0  0  0  0  0  0
   37.9600   26.5020   30.6760 O   0  0  0  0  0  1  0  0  0  0  0  0
   35.5100   25.6500   30.4110 O   0  0  0  0  0  0  0  0  0  0  0  0
   35.1940   26.5640   30.2980 H   0  0  0  0  0  0  0  0  0  0  0  0
  1  9  1  0  0  0  0
  1  2  1  0  0  0  0
  2  7  1  0  0  0  0
  3  2  2  0  0  0  0
  3  8  1  0  0  0  0
  4  3  1  0  0  0  0
  5  6  1  0  0  0  0
  5  4  2  0  0  0  0
  6  1  2  0  0  0  0
  9 12  1  0  0  0  0
 10 11  1  0  0  0  0
 10 14  1  0  0  0  0
 10  9  1  0  0  0  0
 11 15  1  0  0  0  0
 11  9  1  0  0  0  0
 13 10  1  0  0  0  0
 16 11  1  0  0  0  0
 17 19  1  0  0  0  0
 17  5  1  0  0  0  0
 18 17  1  0  0  0  0
 20 22  1  0  0  0  0
 21 20  2  0  0  0  0
 22 23  1  0  0  0  0
 22 17  1  0  0  0  0
 24 20  1  0  0  0  0
 25 24  1  0  0  0  0
 26 24  1  0  0  0  0
 26 27  1  0  0  0  0
 28 26  1  0  0  0  0
 29 26  1  0  0  0  0
 30 29  1  0  0  0  0
M  END
>  <minimizedAffinity>
-4.7151494

$$$$

 OpenBabel03272510313D

 30 31  0  0  0  0  0  0  0  0999 V2000
   37.6900   22.3680   35.7990 C   0  0  0  0  0  0  0  0  0  0  0  0
   36.6980   21.8480   36.6080 C   0  0  0  0  0  0  0  0  0  0  0  0
   35.7750   21.0410   35.9470 C   0  0  0  0  0  0  0  0  0  0  0  0
   35.8920   20.8150   34.6010 N   0  0  0  0  0  0  0  0  0  0  0  0
   36.8820   21.3470   33.8560 C   0  0  0  0  0  0  0  0  0  0  0  0
   37.7970   22.1400   34.4760 N   0  0  0  0  0  0  0  0  0  0  0  0
   36.6100   22.0250   37.6540 H   0  0  0  0  0  0  0  0  0  0  0  0
   34.9480   20.5670   36.4450 H   0  0  0  0  0  0  0  0  0  0  0  0
   38.7420   23.2230   36.4520 C   0  0  0  0  0  0  0  0  0  0  0  0
   39.0360   23.1690   37.8450 C   0  0  0  0  0  0  0  0  0  0  0  0
   39.9660   22.4090   36.9090 C   0  0  0  0  0  0  0  0  0  0  0  0
   38.9760   24.1190   35.8360 H   0  0  0  0  0  0  0  0  0  0  0  0
   38.4600   22.4600   38.5080 H   0  0  0  0  0  0  0  0  0  0  0  0
   39.4050   24.0300   38.3990 H   0  0  0  0  0  0  0  0  0  0  0  0
   40.9260   22.9050   36.7280 H   0  0  0  0  0  0  0  0  0  0  0  0
   39.9160   21.3160   36.8470 H   0  0  0  0  0  0  0  0  0  0  0  0
   36.9980   21.0860   32.4330 C   0  0  0  0  0  0  0  0  0  0  0  0
   37.6610   20.2220   32.2420 H   0  0  0  0  0  0  0  0  0  0  0  0
   35.9640   20.8890   32.0450 H   0  0  0  0  0  0  0  0  0  0  0  0
   36.6500   23.1440   31.0790 C   0  0  0  0  0  0  0  0  0  0  0  0
   35.4070   22.9910   30.9350 O   0  0  0  0  0  0  0  0  0  0  0  0
   37.5180   22.2870   31.7990 N   0  0  0  0  0  0  0  0  0  0  0  0
   38.5390   22.4840   31.8970 H   0  0  0  0  0  0  0  0  0  0  0  0
   37.2880   24.2840   30.4690 N   0  0  0  0  0  0  0  0  0  0  0  0
   37.8820   24.1850   29.5940 H   0  0  0  0  0  0  0  0  0  0  0  0
   37.0600   25.8430   31.2110 S   0  0  0  0  0  0  0  0  0  0  0  0
   36.6260   25.6830   32.6330 O   0  0  0  0  0  1  0  0  0  0  0  0
   38.3840   26.5500   31.1480 O   0  0  0  0  0  1  0  0  0  0  0  0
   35.9030   26.6840   30.3570 O   0  0  0  0  0  0  0  0  0  0  0  0
   35.8350   27.5960   30.6910 H   0  0  0  0  0  0  0  0  0  0  0  0
  1  9  1  0  0  0  0
  1  2  1  0  0  0  0
  2  7  1  0  0  0  0
  3  8  1  0  0  0  0
  3  2  2  0  0  0  0
  4  3  1  0  0  0  0
  5  6  1  0  0  0  0
  5  4  2  0  0  0  0
  6  1  2  0  0  0  0
  9 11  1  0  0  0  0
  9 10  1  0  0  0  0
 10 14  1  0  0  0  0
 10 13  1  0  0  0  0
 11 10  1  0  0  0  0
 12  9  1  0  0  0  0
 15 11  1  0  0  0  0
 16 11  1  0  0  0  0
 17  5  1  0  0  0  0
 18 17  1  0  0  0  0
 19 17  1  0  0  0  0
 20 22  1  0  0  0  0
 21 20  2  0  0  0  0
 22 23  1  0  0  0  0
 22 17  1  0  0  0  0
 24 20  1  0  0  0  0
 24 26  1  0  0  0  0
 25 24  1  0  0  0  0
 26 27  1  0  0  0  0
 28 26  1  0  0  0  0
 29 30  1  0  0  0  0
 29 26  1  0  0  0  0
M  END
>  <minimizedAffinity>
-4.5030241

$$$$

 OpenBabel03272510313D

 30 31  0  0  0  0  0  0  0  0999 V2000
   36.9730   27.4920   34.4220 C   0  0  0  0  0  0  0  0  0  0  0  0
   36.2760   28.6820   34.5100 C   0  0  0  0  0  0  0  0  0  0  0  0
   35.5330   29.0040   33.3770 C   0  0  0  0  0  0  0  0  0  0  0  0
   35.5300   28.1690   32.2910 N   0  0  0  0  0  0  0  0  0  0  0  0
   36.2300   27.0170   32.2560 C   0  0  0  0  0  0  0  0  0  0  0  0
   36.9650   26.6780   33.3490 N   0  0  0  0  0  0  0  0  0  0  0  0
   36.2800   29.3280   35.3570 H   0  0  0  0  0  0  0  0  0  0  0  0
   34.9400   29.8970   33.2990 H   0  0  0  0  0  0  0  0  0  0  0  0
   37.7730   27.0640   35.6220 C   0  0  0  0  0  0  0  0  0  0  0  0
   38.5220   25.8530   35.6690 C   0  0  0  0  0  0  0  0  0  0  0  0
   39.2910   27.1340   35.3760 C   0  0  0  0  0  0  0  0  0  0  0  0
   37.4230   27.5740   36.5460 H   0  0  0  0  0  0  0  0  0  0  0  0
   38.5240   25.1640   34.7730 H   0  0  0  0  0  0  0  0  0  0  0  0
   38.6990   25.3090   36.5950 H   0  0  0  0  0  0  0  0  0  0  0  0
   39.8650   27.5170   36.2270 H   0  0  0  0  0  0  0  0  0  0  0  0
   39.6440   27.3470   34.3600 H   0  0  0  0  0  0  0  0  0  0  0  0
   36.2050   26.1380   31.1010 C   0  0  0  0  0  0  0  0  0  0  0  0
   35.5380   26.5360   30.3150 H   0  0  0  0  0  0  0  0  0  0  0  0
   37.2580   26.0520   30.7240 H   0  0  0  0  0  0  0  0  0  0  0  0
   36.4520   23.6620   31.1420 C   0  0  0  0  0  0  0  0  0  0  0  0
   37.4860   23.6270   30.4220 O   0  0  0  0  0  0  0  0  0  0  0  0
   35.7550   24.8290   31.5460 N   0  0  0  0  0  0  0  0  0  0  0  0
   34.9140   24.7870   32.1630 H   0  0  0  0  0  0  0  0  0  0  0  0
   35.8910   22.4230   31.6210 N   0  0  0  0  0  0  0  0  0  0  0  0
   35.0060   22.0150   31.1990 H   0  0  0  0  0  0  0  0  0  0  0  0
   36.7100   21.6040   32.9210 S   0  0  0  0  0  0  0  0  0  0  0  0
   37.7130   20.6370   32.3770 O   0  0  0  0  0  1  0  0  0  0  0  0
   37.3960   22.6620   33.7350 O   0  0  0  0  0  1  0  0  0  0  0  0
   35.5840   20.7920   33.8420 O   0  0  0  0  0  0  0  0  0  0  0  0
   36.0060   20.4130   34.6340 H   0  0  0  0  0  0  0  0  0  0  0  0
  1  2  1  0  0  0  0
  1  9  1  0  0  0  0
  2  7  1  0  0  0  0
  3  2  2  0  0  0  0
  4  3  1  0  0  0  0
  5  4  2  0  0  0  0
  5  6  1  0  0  0  0
  6  1  2  0  0  0  0
  8  3  1  0  0  0  0
  9 10  1  0  0  0  0
  9 12  1  0  0  0  0
 10 14  1  0  0  0  0
 11  9  1  0  0  0  0
 11 10  1  0  0  0  0
 11 15  1  0  0  0  0
 13 10  1  0  0  0  0
 16 11  1  0  0  0  0
 17 22  1  0  0  0  0
 17  5  1  0  0  0  0
 18 17  1  0  0  0  0
 19 17  1  0  0  0  0
 20 22  1  0  0  0  0
 20 24  1  0  0  0  0
 21 20  2  0  0  0  0
 22 23  1  0  0  0  0
 24 26  1  0  0  0  0
 25 24  1  0  0  0  0
 26 28  1  0  0  0  0
 26 29  1  0  0  0  0
 27 26  1  0  0  0  0
 29 30  1  0  0  0  0
M  END
>  <minimizedAffinity>
-4.49472713

$$$$

 OpenBabel03272510313D

 30 31  0  0  0  0  0  0  0  0999 V2000
   38.3090   25.0800   35.7350 C   0  0  0  0  0  0  0  0  0  0  0  0
   38.2240   26.4060   36.1130 C   0  0  0  0  0  0  0  0  0  0  0  0
   37.9090   27.2850   35.0790 C   0  0  0  0  0  0  0  0  0  0  0  0
   37.7090   26.8140   33.8080 N   0  0  0  0  0  0  0  0  0  0  0  0
   37.8040   25.5070   33.4920 C   0  0  0  0  0  0  0  0  0  0  0  0
   38.1110   24.6270   34.4820 N   0  0  0  0  0  0  0  0  0  0  0  0
   38.3790   26.7690   37.1030 H   0  0  0  0  0  0  0  0  0  0  0  0
   37.8080   28.3460   35.2210 H   0  0  0  0  0  0  0  0  0  0  0  0
   38.6140   24.0700   36.8080 C   0  0  0  0  0  0  0  0  0  0  0  0
   38.0650   24.1370   38.1210 C   0  0  0  0  0  0  0  0  0  0  0  0
   37.4040   23.1780   37.1400 C   0  0  0  0  0  0  0  0  0  0  0  0
   39.5570   23.5220   36.5930 H   0  0  0  0  0  0  0  0  0  0  0  0
   37.3680   24.9840   38.3900 H   0  0  0  0  0  0  0  0  0  0  0  0
   38.5870   23.7510   38.9950 H   0  0  0  0  0  0  0  0  0  0  0  0
   37.6570   22.1240   37.3040 H   0  0  0  0  0  0  0  0  0  0  0  0
   36.4360   23.4250   36.6910 H   0  0  0  0  0  0  0  0  0  0  0  0
   37.5760   25.0240   32.1420 C   0  0  0  0  0  0  0  0  0  0  0  0
   37.3020   25.8550   31.4660 H   0  0  0  0  0  0  0  0  0  0  0  0
   38.5230   24.5280   31.8000 H   0  0  0  0  0  0  0  0  0  0  0  0
   36.6100   22.8470   31.4210 C   0  0  0  0  0  0  0  0  0  0  0  0
   37.5690   22.5280   30.6680 O   0  0  0  0  0  0  0  0  0  0  0  0
   36.5160   24.0310   32.1960 N   0  0  0  0  0  0  0  0  0  0  0  0
   35.7000   24.2240   32.8170 H   0  0  0  0  0  0  0  0  0  0  0  0
   35.4840   21.9550   31.5340 N   0  0  0  0  0  0  0  0  0  0  0  0
   34.5580   22.1680   31.0590 H   0  0  0  0  0  0  0  0  0  0  0  0
   35.6800   20.5060   32.4800 S   0  0  0  0  0  0  0  0  0  0  0  0
   35.4390   20.7940   33.9280 O   0  0  0  0  0  1  0  0  0  0  0  0
   34.6690   19.5180   31.9720 O   0  0  0  0  0  1  0  0  0  0  0  0
   37.2270   19.9270   32.2670 O   0  0  0  0  0  0  0  0  0  0  0  0
   37.3260   19.0620   32.7040 H   0  0  0  0  0  0  0  0  0  0  0  0
  1  2  1  0  0  0  0
  1  9  1  0  0  0  0
  2  7  1  0  0  0  0
  3  8  1  0  0  0  0
  3  2  2  0  0  0  0
  4  3  1  0  0  0  0
  5  4  2  0  0  0  0
  5  6  1  0  0  0  0
  6  1  2  0  0  0  0
  9 11  1  0  0  0  0
  9 10  1  0  0  0  0
 10 13  1  0  0  0  0
 10 14  1  0  0  0  0
 11 15  1  0  0  0  0
 11 10  1  0  0  0  0
 12  9  1  0  0  0  0
 16 11  1  0  0  0  0
 17 22  1  0  0  0  0
 17  5  1  0  0  0  0
 18 17  1  0  0  0  0
 19 17  1  0  0  0  0
 20 24  1  0  0  0  0
 20 22  1  0  0  0  0
 21 20  2  0  0  0  0
 22 23  1  0  0  0  0
 24 26  1  0  0  0  0
 25 24  1  0  0  0  0
 26 27  1  0  0  0  0
 28 26  1  0  0  0  0
 29 26  1  0  0  0  0
 29 30  1  0  0  0  0
M  END
>  <minimizedAffinity>
-4.45877552

$$$$

 OpenBabel03272510313D

 30 31  0  0  0  0  0  0  0  0999 V2000
   36.3470   22.6430   31.6080 C   0  0  0  0  0  0  0  0  0  0  0  0
   37.5250   22.3530   32.2690 C   0  0  0  0  0  0  0  0  0  0  0  0
   38.2120   23.4670   32.7450 C   0  0  0  0  0  0  0  0  0  0  0  0
   37.7100   24.7260   32.5470 N   0  0  0  0  0  0  0  0  0  0  0  0
   36.5520   24.9540   31.8930 C   0  0  0  0  0  0  0  0  0  0  0  0
   35.8620   23.8850   31.4160 N   0  0  0  0  0  0  0  0  0  0  0  0
   37.9120   21.3730   32.4220 H   0  0  0  0  0  0  0  0  0  0  0  0
   39.1420   23.3980   33.2790 H   0  0  0  0  0  0  0  0  0  0  0  0
   35.5360   21.4850   31.0930 C   0  0  0  0  0  0  0  0  0  0  0  0
   35.8650   20.1240   31.3580 C   0  0  0  0  0  0  0  0  0  0  0  0
   34.7740   20.7540   32.2140 C   0  0  0  0  0  0  0  0  0  0  0  0
   34.9160   21.7800   30.2190 H   0  0  0  0  0  0  0  0  0  0  0  0
   36.7770   19.8820   31.9780 H   0  0  0  0  0  0  0  0  0  0  0  0
   35.6210   19.3170   30.6690 H   0  0  0  0  0  0  0  0  0  0  0  0
   33.7570   20.4510   31.9390 H   0  0  0  0  0  0  0  0  0  0  0  0
   34.9790   21.0360   33.2530 H   0  0  0  0  0  0  0  0  0  0  0  0
   36.0290   26.2950   31.7030 C   0  0  0  0  0  0  0  0  0  0  0  0
   34.9320   26.3130   31.8290 H   0  0  0  0  0  0  0  0  0  0  0  0
   36.5290   26.9580   32.4590 H   0  0  0  0  0  0  0  0  0  0  0  0
   36.7860   28.0820   30.1450 C   0  0  0  0  0  0  0  0  0  0  0  0
   36.8660   28.9860   31.0200 O   0  0  0  0  0  0  0  0  0  0  0  0
   36.4040   26.7360   30.3690 N   0  0  0  0  0  0  0  0  0  0  0  0
   36.3790   26.0300   29.6000 H   0  0  0  0  0  0  0  0  0  0  0  0
   37.1030   28.4050   28.7770 N   0  0  0  0  0  0  0  0  0  0  0  0
   36.3430   28.5210   28.0440 H   0  0  0  0  0  0  0  0  0  0  0  0
   38.7800   28.6010   28.3500 S   0  0  0  0  0  0  0  0  0  0  0  0
   39.2740   27.3950   27.6170 O   0  0  0  0  0  1  0  0  0  0  0  0
   38.8630   29.8150   27.4700 O   0  0  0  0  0  1  0  0  0  0  0  0
   39.6690   28.8230   29.7410 O   0  0  0  0  0  0  0  0  0  0  0  0
   40.5930   29.0380   29.5200 H   0  0  0  0  0  0  0  0  0  0  0  0
  1  2  1  0  0  0  0
  2  7  1  0  0  0  0
  2  3  2  0  0  0  0
  3  8  1  0  0  0  0
  4  3  1  0  0  0  0
  5  4  2  0  0  0  0
  6  1  2  0  0  0  0
  6  5  1  0  0  0  0
  9 10  1  0  0  0  0
  9  1  1  0  0  0  0
  9 11  1  0  0  0  0
 10 13  1  0  0  0  0
 10 11  1  0  0  0  0
 11 16  1  0  0  0  0
 12  9  1  0  0  0  0
 14 10  1  0  0  0  0
 15 11  1  0  0  0  0
 17 18  1  0  0  0  0
 17  5  1  0  0  0  0
 17 19  1  0  0  0  0
 20 22  1  0  0  0  0
 20 21  2  0  0  0  0
 22 17  1  0  0  0  0
 23 22  1  0  0  0  0
 24 20  1  0  0  0  0
 25 24  1  0  0  0  0
 26 24  1  0  0  0  0
 26 29  1  0  0  0  0
 27 26  1  0  0  0  0
 28 26  1  0  0  0  0
 30 29  1  0  0  0  0
M  END
>  <minimizedAffinity>
-4.41718674

$$$$
