
 OpenBabel03272510313D

 30 31  0  0  0  0  0  0  0  0999 V2000
   37.4060   31.2240   49.0830 C   0  0  0  0  0  0  0  0  0  0  0  0
   38.4320   32.1490   49.1300 C   0  0  0  0  0  0  0  0  0  0  0  0
   38.8840   32.5770   47.8840 C   0  0  0  0  0  0  0  0  0  0  0  0
   38.3180   32.0870   46.7360 N   0  0  0  0  0  0  0  0  0  0  0  0
   37.3160   31.1840   46.7470 C   0  0  0  0  0  0  0  0  0  0  0  0
   36.8570   30.7480   47.9500 N   0  0  0  0  0  0  0  0  0  0  0  0
   38.8700   32.5290   50.0230 H   0  0  0  0  0  0  0  0  0  0  0  0
   39.6760   33.2940   47.7610 H   0  0  0  0  0  0  0  0  0  0  0  0
   36.8460   30.7410   50.3930 C   0  0  0  0  0  0  0  0  0  0  0  0
   35.9350   29.6500   50.4970 C   0  0  0  0  0  0  0  0  0  0  0  0
   37.4000   29.3620   50.7990 C   0  0  0  0  0  0  0  0  0  0  0  0
   36.9160   31.5250   51.1780 H   0  0  0  0  0  0  0  0  0  0  0  0
   35.6010   29.1130   49.5610 H   0  0  0  0  0  0  0  0  0  0  0  0
   35.1910   29.5830   51.2880 H   0  0  0  0  0  0  0  0  0  0  0  0
   37.6280   29.2690   51.8660 H   0  0  0  0  0  0  0  0  0  0  0  0
   38.0170   28.8160   50.0760 H   0  0  0  0  0  0  0  0  0  0  0  0
   36.7190   30.6850   45.5210 C   0  0  0  0  0  0  0  0  0  0  0  0
   35.8370   30.0560   45.7380 H   0  0  0  0  0  0  0  0  0  0  0  0
   36.4310   31.5770   44.9030 H   0  0  0  0  0  0  0  0  0  0  0  0
   38.0290   30.2290   43.4550 C   0  0  0  0  0  0  0  0  0  0  0  0
   37.5020   31.1450   42.7680 O   0  0  0  0  0  0  0  0  0  0  0  0
   37.7330   29.9260   44.8070 N   0  0  0  0  0  0  0  0  0  0  0  0
   38.2230   29.1630   45.3250 H   0  0  0  0  0  0  0  0  0  0  0  0
   39.0280   29.3860   42.8470 N   0  0  0  0  0  0  0  0  0  0  0  0
   38.8080   28.3890   42.5540 H   0  0  0  0  0  0  0  0  0  0  0  0
   40.6190   30.0490   42.6030 S   0  0  0  0  0  0  0  0  0  0  0  0
   40.6570   30.8590   41.3460 O   0  0  0  0  0  1  0  0  0  0  0  0
   40.9120   30.9200   43.7910 O   0  0  0  0  0  1  0  0  0  0  0  0
   41.7170   28.8000   42.5050 O   0  0  0  0  0  0  0  0  0  0  0  0
   42.6250   29.1510   42.4730 H   0  0  0  0  0  0  0  0  0  0  0  0
  1  2  1  0  0  0  0
  1  9  1  0  0  0  0
  2  7  1  0  0  0  0
  3  2  2  0  0  0  0
  4  5  2  0  0  0  0
  4  3  1  0  0  0  0
  5  6  1  0  0  0  0
  6  1  2  0  0  0  0
  8  3  1  0  0  0  0
  9 10  1  0  0  0  0
  9 11  1  0  0  0  0
  9 12  1  0  0  0  0
 10 11  1  0  0  0  0
 10 14  1  0  0  0  0
 11 15  1  0  0  0  0
 13 10  1  0  0  0  0
 16 11  1  0  0  0  0
 17 18  1  0  0  0  0
 17  5  1  0  0  0  0
 19 17  1  0  0  0  0
 20 22  1  0  0  0  0
 21 20  2  0  0  0  0
 22 23  1  0  0  0  0
 22 17  1  0  0  0  0
 24 20  1  0  0  0  0
 25 24  1  0  0  0  0
 26 24  1  0  0  0  0
 26 28  1  0  0  0  0
 27 26  1  0  0  0  0
 29 26  1  0  0  0  0
 30 29  1  0  0  0  0
M  END
>  <minimizedAffinity>
-5.33931303

>  <minimizedRMSD>
3.11723471

$$$$
