
 OpenBabel03272508183D

 29 30  0  0  0  0  0  0  0  0999 V2000
   35.4440   30.2130   47.6260 C   0  0  0  0  0  0  0  0  0  0  0  0
   36.6130   30.3850   46.8760 C   0  0  0  0  0  0  0  0  0  0  0  0
   36.3990   30.3940   45.5090 C   0  0  0  0  0  0  0  0  0  0  0  0
   35.1470   30.2540   44.9850 N   0  0  0  0  0  0  0  0  0  0  0  0
   34.0420   30.1170   45.7590 C   0  0  0  0  0  0  0  0  0  0  0  0
   34.2060   30.1050   47.0900 N   0  0  0  0  0  0  0  0  0  0  0  0
   37.2030   30.3050   44.8220 H   0  0  0  0  0  0  0  0  0  0  0  0
   33.0490   30.1990   45.3790 H   0  0  0  0  0  0  0  0  0  0  0  0
   35.6170   30.2420   49.1390 C   0  0  0  0  0  0  0  0  0  0  0  0
   34.5460   29.8400   50.0090 C   0  0  0  0  0  0  0  0  0  0  0  0
   35.5930   28.8080   49.7190 C   0  0  0  0  0  0  0  0  0  0  0  0
   36.3750   30.9350   49.5590 H   0  0  0  0  0  0  0  0  0  0  0  0
   34.5110   30.1990   51.0480 H   0  0  0  0  0  0  0  0  0  0  0  0
   33.5270   29.5800   49.6230 H   0  0  0  0  0  0  0  0  0  0  0  0
   36.3220   28.5670   50.5030 H   0  0  0  0  0  0  0  0  0  0  0  0
   35.3470   27.9720   49.0520 H   0  0  0  0  0  0  0  0  0  0  0  0
   37.9190   30.5210   47.4430 C   0  0  0  0  0  0  0  0  0  0  0  0
   37.9070   30.4340   48.5340 H   0  0  0  0  0  0  0  0  0  0  0  0
   38.5510   29.6220   47.1080 H   0  0  0  0  0  0  0  0  0  0  0  0
   38.7220   31.7140   47.0690 C   0  0  0  0  0  0  0  0  0  0  0  0
   38.7780   31.8970   45.9960 H   0  0  0  0  0  0  0  0  0  0  0  0
   39.7890   31.7020   47.4490 H   0  0  0  0  0  0  0  0  0  0  0  0
   38.0900   32.7280   47.8610 N   0  0  0  0  0  0  0  0  0  0  0  0
   37.3420   33.2440   47.3830 H   0  0  0  0  0  0  0  0  0  0  0  0
   38.4800   33.0840   49.3600 S   0  0  0  0  0  0  0  0  0  0  0  0
   39.4380   34.0310   49.7490 O   0  0  0  0  0  0  0  0  0  0  0  0
   38.8120   31.6270   50.0190 O   0  0  0  0  0  0  0  0  0  0  0  0
   36.9220   33.3900   50.0350 O   0  0  0  0  0  0  0  0  0  0  0  0
   36.5630   32.7450   50.6010 H   0  0  0  0  0  0  0  0  0  0  0  0
  1  9  1  0  0  0  0
  2 17  1  0  0  0  0
  2  1  2  0  0  0  0
  3  2  1  0  0  0  0
  4  3  2  0  0  0  0
  4  5  1  0  0  0  0
  5  6  2  0  0  0  0
  6  1  1  0  0  0  0
  7  3  1  0  0  0  0
  8  5  1  0  0  0  0
  9 12  1  0  0  0  0
  9 11  1  0  0  0  0
  9 10  1  0  0  0  0
 10 13  1  0  0  0  0
 11 10  1  0  0  0  0
 11 15  1  0  0  0  0
 14 10  1  0  0  0  0
 16 11  1  0  0  0  0
 17 18  1  0  0  0  0
 19 17  1  0  0  0  0
 20 17  1  0  0  0  0
 20 22  1  0  0  0  0
 20 23  1  0  0  0  0
 21 20  1  0  0  0  0
 23 25  1  0  0  0  0
 24 23  1  0  0  0  0
 25 26  1  0  0  0  0
 25 27  1  0  0  0  0
 25 28  1  0  0  0  0
 28 29  1  0  0  0  0
M  END
>  <minimizedAffinity>
-4.58803034

>  <minimizedRMSD>
3.15700364

$$$$
