
 OpenBabel03272509293D

 32 33  0  0  1  0  0  0  0  0999 V2000
   38.3490   26.3090   34.0980 C   0  0  2  0  0  0  0  0  0  0  0  0
   37.8150   27.4260   34.9630 C   0  0  0  0  0  0  0  0  0  0  0  0
   36.5650   28.0320   34.4200 C   0  0  0  0  0  0  0  0  0  0  0  0
   36.6320   28.4550   32.9800 C   0  0  0  0  0  0  0  0  0  0  0  0
   37.4470   27.5370   32.1250 C   0  0  0  0  0  0  0  0  0  0  0  0
   37.6790   26.1840   32.7880 C   0  0  2  0  0  0  0  0  0  0  0  0
   39.4570   26.4780   33.9680 H   0  0  0  0  0  0  0  0  0  0  0  0
   38.5660   28.2140   35.1740 H   0  0  0  0  0  0  0  0  0  0  0  0
   37.5330   26.9940   35.9630 H   0  0  0  0  0  0  0  0  0  0  0  0
   35.6230   27.5210   34.7100 H   0  0  0  0  0  0  0  0  0  0  0  0
   36.4680   29.0210   34.9830 H   0  0  0  0  0  0  0  0  0  0  0  0
   37.0120   29.4850   32.8260 H   0  0  0  0  0  0  0  0  0  0  0  0
   35.5540   28.4950   32.6440 H   0  0  0  0  0  0  0  0  0  0  0  0
   36.8450   27.3250   31.2040 H   0  0  0  0  0  0  0  0  0  0  0  0
   38.3990   27.9860   31.7800 H   0  0  0  0  0  0  0  0  0  0  0  0
   38.4380   25.6770   32.0980 H   0  0  0  0  0  0  0  0  0  0  0  0
   38.2460   25.0120   34.8050 C   0  0  0  0  0  0  0  0  0  0  0  0
   37.9740   25.0710   36.1980 C   0  0  0  0  0  0  0  0  0  0  0  0
   37.8690   23.8540   36.8780 C   0  0  0  0  0  0  0  0  0  0  0  0
   38.0330   22.6960   36.1780 N   0  0  0  0  0  0  0  0  0  0  0  0
   38.2960   22.6900   34.8330 C   0  0  0  0  0  0  0  0  0  0  0  0
   38.3970   23.8280   34.1750 N   0  0  0  0  0  0  0  0  0  0  0  0
   37.8410   25.9450   36.7820 H   0  0  0  0  0  0  0  0  0  0  0  0
   37.6640   23.8120   37.9390 H   0  0  0  0  0  0  0  0  0  0  0  0
   38.4010   21.6940   34.4160 H   0  0  0  0  0  0  0  0  0  0  0  0
   36.4550   25.5020   32.7010 N   0  0  0  0  0  0  0  0  0  0  0  0
   35.6920   25.6700   33.3230 H   0  0  0  0  0  0  0  0  0  0  0  0
   36.0900   24.7390   31.2250 S   0  0  0  0  0  0  0  0  0  0  0  0
   35.6980   23.3030   31.5750 O   0  0  0  0  0  1  0  0  0  0  0  0
   34.9530   25.3880   30.4970 O   0  0  0  0  0  1  0  0  0  0  0  0
   37.3920   24.6120   30.2040 O   0  0  0  0  0  0  0  0  0  0  0  0
   37.1940   24.8010   29.2540 H   0  0  0  0  0  0  0  0  0  0  0  0
  1  7  1  6  0  0  0
  1 17  1  0  0  0  0
  1  2  1  0  0  0  0
  2  8  1  0  0  0  0
  2  9  1  0  0  0  0
  3 10  1  0  0  0  0
  3  2  1  0  0  0  0
  3 11  1  0  0  0  0
  4  3  1  0  0  0  0
  5  6  1  0  0  0  0
  5  4  1  0  0  0  0
  6 16  1  6  0  0  0
  6  1  1  0  0  0  0
 12  4  1  0  0  0  0
 13  4  1  0  0  0  0
 14  5  1  0  0  0  0
 15  5  1  0  0  0  0
 17 18  1  0  0  0  0
 18 23  1  0  0  0  0
 18 19  2  0  0  0  0
 19 24  1  0  0  0  0
 20 19  1  0  0  0  0
 21 20  2  0  0  0  0
 22 17  2  0  0  0  0
 22 21  1  0  0  0  0
 25 21  1  0  0  0  0
 26  6  1  0  0  0  0
 26 27  1  0  0  0  0
 28 29  1  0  0  0  0
 28 26  1  0  0  0  0
 30 28  1  0  0  0  0
 31 28  1  0  0  0  0
 32 31  1  0  0  0  0
M  END
>  <minimizedAffinity>
-4.64793777

$$$$

 OpenBabel03272509293D

 32 33  0  0  1  0  0  0  0  0999 V2000
   38.7250   26.4910   34.6080 C   0  0  2  0  0  0  0  0  0  0  0  0
   37.9140   27.5670   35.2900 C   0  0  0  0  0  0  0  0  0  0  0  0
   36.6480   27.8840   34.5660 C   0  0  0  0  0  0  0  0  0  0  0  0
   36.8060   28.1780   33.1010 C   0  0  0  0  0  0  0  0  0  0  0  0
   37.8570   27.3490   32.4350 C   0  0  0  0  0  0  0  0  0  0  0  0
   38.2400   26.1270   33.2620 C   0  0  2  0  0  0  0  0  0  0  0  0
   39.7960   26.8460   34.5670 H   0  0  0  0  0  0  0  0  0  0  0  0
   38.4900   28.4950   35.4840 H   0  0  0  0  0  0  0  0  0  0  0  0
   37.5980   27.1840   36.3000 H   0  0  0  0  0  0  0  0  0  0  0  0
   35.7800   27.2390   34.8190 H   0  0  0  0  0  0  0  0  0  0  0  0
   36.3200   28.8860   35.0050 H   0  0  0  0  0  0  0  0  0  0  0  0
   37.0190   29.2420   32.8720 H   0  0  0  0  0  0  0  0  0  0  0  0
   35.7810   27.9910   32.6620 H   0  0  0  0  0  0  0  0  0  0  0  0
   37.4090   26.9480   31.4900 H   0  0  0  0  0  0  0  0  0  0  0  0
   38.7510   27.9300   32.1350 H   0  0  0  0  0  0  0  0  0  0  0  0
   39.1480   25.7050   32.7080 H   0  0  0  0  0  0  0  0  0  0  0  0
   38.7660   25.2670   35.4410 C   0  0  0  0  0  0  0  0  0  0  0  0
   39.9110   24.4400   35.2950 C   0  0  0  0  0  0  0  0  0  0  0  0
   39.9640   23.2840   36.0790 C   0  0  0  0  0  0  0  0  0  0  0  0
   38.9300   23.0170   36.9250 N   0  0  0  0  0  0  0  0  0  0  0  0
   37.8440   23.8460   37.0310 C   0  0  0  0  0  0  0  0  0  0  0  0
   37.7760   24.9420   36.3010 N   0  0  0  0  0  0  0  0  0  0  0  0
   40.7350   24.6060   34.6510 H   0  0  0  0  0  0  0  0  0  0  0  0
   40.8010   22.6010   36.0270 H   0  0  0  0  0  0  0  0  0  0  0  0
   37.1030   23.5020   37.7450 H   0  0  0  0  0  0  0  0  0  0  0  0
   37.1680   25.2290   33.1340 N   0  0  0  0  0  0  0  0  0  0  0  0
   36.2470   25.4290   33.4640 H   0  0  0  0  0  0  0  0  0  0  0  0
   37.3170   23.9970   31.9710 S   0  0  0  0  0  0  0  0  0  0  0  0
   38.7830   23.5660   31.9940 O   0  0  0  0  0  1  0  0  0  0  0  0
   36.4570   22.8060   32.2680 O   0  0  0  0  0  1  0  0  0  0  0  0
   37.0230   24.5090   30.4200 O   0  0  0  0  0  0  0  0  0  0  0  0
   36.4890   23.8850   29.8700 H   0  0  0  0  0  0  0  0  0  0  0  0
  1  7  1  6  0  0  0
  1  2  1  0  0  0  0
  1 17  1  0  0  0  0
  2  8  1  0  0  0  0
  2  9  1  0  0  0  0
  3 10  1  0  0  0  0
  3 11  1  0  0  0  0
  3  2  1  0  0  0  0
  4  3  1  0  0  0  0
  5  4  1  0  0  0  0
  5  6  1  0  0  0  0
  6 16  1  6  0  0  0
  6  1  1  0  0  0  0
 12  4  1  0  0  0  0
 13  4  1  0  0  0  0
 14  5  1  0  0  0  0
 15  5  1  0  0  0  0
 17 22  1  0  0  0  0
 18 17  2  0  0  0  0
 18 19  1  0  0  0  0
 19 20  2  0  0  0  0
 20 21  1  0  0  0  0
 21 25  1  0  0  0  0
 22 21  2  0  0  0  0
 23 18  1  0  0  0  0
 24 19  1  0  0  0  0
 26  6  1  0  0  0  0
 26 27  1  0  0  0  0
 28 29  1  0  0  0  0
 28 30  1  0  0  0  0
 28 26  1  0  0  0  0
 31 28  1  0  0  0  0
 32 31  1  0  0  0  0
M  END
>  <minimizedAffinity>
-4.44556856

$$$$

 OpenBabel03272509293D

 32 33  0  0  1  0  0  0  0  0999 V2000
   38.8160   26.4670   34.7090 C   0  0  2  0  0  0  0  0  0  0  0  0
   37.9310   27.4900   35.3810 C   0  0  0  0  0  0  0  0  0  0  0  0
   36.6860   27.7730   34.6110 C   0  0  0  0  0  0  0  0  0  0  0  0
   36.8940   28.1140   33.1630 C   0  0  0  0  0  0  0  0  0  0  0  0
   38.0070   27.3490   32.5220 C   0  0  0  0  0  0  0  0  0  0  0  0
   38.4050   26.1210   33.3330 C   0  0  2  0  0  0  0  0  0  0  0  0
   39.8710   26.8670   34.7250 H   0  0  0  0  0  0  0  0  0  0  0  0
   38.4580   28.4340   35.6250 H   0  0  0  0  0  0  0  0  0  0  0  0
   37.5880   27.0660   36.3660 H   0  0  0  0  0  0  0  0  0  0  0  0
   35.8360   27.0870   34.8080 H   0  0  0  0  0  0  0  0  0  0  0  0
   36.2970   28.7490   35.0600 H   0  0  0  0  0  0  0  0  0  0  0  0
   37.0720   29.1920   32.9710 H   0  0  0  0  0  0  0  0  0  0  0  0
   35.8990   27.8970   32.6730 H   0  0  0  0  0  0  0  0  0  0  0  0
   37.6180   26.9550   31.5480 H   0  0  0  0  0  0  0  0  0  0  0  0
   38.8880   27.9730   32.2780 H   0  0  0  0  0  0  0  0  0  0  0  0
   39.3540   25.7520   32.8100 H   0  0  0  0  0  0  0  0  0  0  0  0
   38.8720   25.2230   35.5110 C   0  0  0  0  0  0  0  0  0  0  0  0
   38.1040   25.2060   36.7050 C   0  0  0  0  0  0  0  0  0  0  0  0
   38.1430   24.0360   37.4700 C   0  0  0  0  0  0  0  0  0  0  0  0
   38.9070   22.9940   37.0360 N   0  0  0  0  0  0  0  0  0  0  0  0
   39.6320   23.0590   35.8750 C   0  0  0  0  0  0  0  0  0  0  0  0
   39.6070   24.1530   35.1400 N   0  0  0  0  0  0  0  0  0  0  0  0
   37.5000   25.9900   37.0830 H   0  0  0  0  0  0  0  0  0  0  0  0
   37.5870   23.9420   38.3930 H   0  0  0  0  0  0  0  0  0  0  0  0
   40.1890   22.1520   35.6600 H   0  0  0  0  0  0  0  0  0  0  0  0
   37.3800   25.1830   33.1350 N   0  0  0  0  0  0  0  0  0  0  0  0
   36.4520   25.3080   33.4840 H   0  0  0  0  0  0  0  0  0  0  0  0
   37.5810   24.0610   31.8730 S   0  0  0  0  0  0  0  0  0  0  0  0
   39.0890   23.8580   31.7210 O   0  0  0  0  0  1  0  0  0  0  0  0
   36.9410   22.7370   32.1590 O   0  0  0  0  0  1  0  0  0  0  0  0
   37.0530   24.6150   30.4010 O   0  0  0  0  0  0  0  0  0  0  0  0
   36.5600   23.9520   29.8590 H   0  0  0  0  0  0  0  0  0  0  0  0
  1  7  1  6  0  0  0
  1  2  1  0  0  0  0
  1 17  1  0  0  0  0
  2  8  1  0  0  0  0
  2  9  1  0  0  0  0
  3 10  1  0  0  0  0
  3 11  1  0  0  0  0
  3  2  1  0  0  0  0
  4  3  1  0  0  0  0
  5  4  1  0  0  0  0
  5  6  1  0  0  0  0
  6 16  1  6  0  0  0
  6  1  1  0  0  0  0
 12  4  1  0  0  0  0
 13  4  1  0  0  0  0
 14  5  1  0  0  0  0
 15  5  1  0  0  0  0
 17 18  1  0  0  0  0
 18 23  1  0  0  0  0
 18 19  2  0  0  0  0
 19 24  1  0  0  0  0
 20 19  1  0  0  0  0
 21 20  2  0  0  0  0
 22 17  2  0  0  0  0
 22 21  1  0  0  0  0
 25 21  1  0  0  0  0
 26  6  1  0  0  0  0
 26 27  1  0  0  0  0
 28 30  1  0  0  0  0
 28 26  1  0  0  0  0
 29 28  1  0  0  0  0
 31 28  1  0  0  0  0
 32 31  1  0  0  0  0
M  END
>  <minimizedAffinity>
-4.43407774

$$$$

 OpenBabel03272509293D

 32 33  0  0  1  0  0  0  0  0999 V2000
   39.1520   24.9210   33.9400 C   0  0  2  0  0  0  0  0  0  0  0  0
   39.7750   26.2800   33.7250 C   0  0  0  0  0  0  0  0  0  0  0  0
   39.7340   27.1360   34.9460 C   0  0  0  0  0  0  0  0  0  0  0  0
   38.3850   27.2620   35.5940 C   0  0  0  0  0  0  0  0  0  0  0  0
   37.5750   26.0060   35.5380 C   0  0  0  0  0  0  0  0  0  0  0  0
   38.4280   24.7820   35.2200 C   0  0  2  0  0  0  0  0  0  0  0  0
   38.4660   24.7180   33.0670 H   0  0  0  0  0  0  0  0  0  0  0  0
   39.3500   26.8250   32.8570 H   0  0  0  0  0  0  0  0  0  0  0  0
   40.8660   26.1350   33.4930 H   0  0  0  0  0  0  0  0  0  0  0  0
   40.5780   26.9960   35.6550 H   0  0  0  0  0  0  0  0  0  0  0  0
   39.9400   28.1890   34.5550 H   0  0  0  0  0  0  0  0  0  0  0  0
   37.7610   28.0840   35.1880 H   0  0  0  0  0  0  0  0  0  0  0  0
   38.6070   27.5710   36.6580 H   0  0  0  0  0  0  0  0  0  0  0  0
   37.1670   25.8320   36.5670 H   0  0  0  0  0  0  0  0  0  0  0  0
   36.7010   26.0750   34.8620 H   0  0  0  0  0  0  0  0  0  0  0  0
   37.6550   23.9560   35.0510 H   0  0  0  0  0  0  0  0  0  0  0  0
   40.1830   23.8610   33.8650 C   0  0  0  0  0  0  0  0  0  0  0  0
   41.4780   24.2670   33.4470 C   0  0  0  0  0  0  0  0  0  0  0  0
   42.4630   23.2770   33.3760 C   0  0  0  0  0  0  0  0  0  0  0  0
   42.1310   21.9970   33.7050 N   0  0  0  0  0  0  0  0  0  0  0  0
   40.8650   21.6540   34.1030 C   0  0  0  0  0  0  0  0  0  0  0  0
   39.9230   22.5730   34.1770 N   0  0  0  0  0  0  0  0  0  0  0  0
   41.7810   25.2470   33.1800 H   0  0  0  0  0  0  0  0  0  0  0  0
   43.4740   23.5040   33.0660 H   0  0  0  0  0  0  0  0  0  0  0  0
   40.7530   20.5990   34.3310 H   0  0  0  0  0  0  0  0  0  0  0  0
   39.1470   24.5030   36.3930 N   0  0  0  0  0  0  0  0  0  0  0  0
   39.9250   25.0500   36.6990 H   0  0  0  0  0  0  0  0  0  0  0  0
   38.3870   23.5280   37.5610 S   0  0  0  0  0  0  0  0  0  0  0  0
   37.9340   24.4720   38.6740 O   0  0  0  0  0  1  0  0  0  0  0  0
   37.1920   22.7990   37.0270 O   0  0  0  0  0  1  0  0  0  0  0  0
   39.4110   22.4400   38.2850 O   0  0  0  0  0  0  0  0  0  0  0  0
   39.0310   21.5380   38.4210 H   0  0  0  0  0  0  0  0  0  0  0  0
  1  7  1  6  0  0  0
  1  6  1  0  0  0  0
  2  1  1  0  0  0  0
  2  3  1  0  0  0  0
  3  4  1  0  0  0  0
  3 10  1  0  0  0  0
  4 13  1  0  0  0  0
  5  4  1  0  0  0  0
  5 14  1  0  0  0  0
  6 16  1  6  0  0  0
  6  5  1  0  0  0  0
  6 26  1  0  0  0  0
  8  2  1  0  0  0  0
  9  2  1  0  0  0  0
 11  3  1  0  0  0  0
 12  4  1  0  0  0  0
 15  5  1  0  0  0  0
 17  1  1  0  0  0  0
 17 22  1  0  0  0  0
 18 17  2  0  0  0  0
 19 18  1  0  0  0  0
 19 20  2  0  0  0  0
 20 21  1  0  0  0  0
 21 22  2  0  0  0  0
 21 25  1  0  0  0  0
 23 18  1  0  0  0  0
 24 19  1  0  0  0  0
 26 27  1  0  0  0  0
 26 28  1  0  0  0  0
 28 31  1  0  0  0  0
 28 29  1  0  0  0  0
 30 28  1  0  0  0  0
 31 32  1  0  0  0  0
M  END
>  <minimizedAffinity>
-4.26807547

$$$$

 OpenBabel03272509293D

 32 33  0  0  1  0  0  0  0  0999 V2000
   37.9100   25.1110   33.8770 C   0  0  2  0  0  0  0  0  0  0  0  0
   38.6280   26.3170   33.3210 C   0  0  0  0  0  0  0  0  0  0  0  0
   39.6020   26.9070   34.2850 C   0  0  0  0  0  0  0  0  0  0  0  0
   39.0520   27.1950   35.6530 C   0  0  0  0  0  0  0  0  0  0  0  0
   38.0600   26.1800   36.1240 C   0  0  0  0  0  0  0  0  0  0  0  0
   38.1300   24.8870   35.3210 C   0  0  2  0  0  0  0  0  0  0  0  0
   36.8110   25.2350   33.6540 H   0  0  0  0  0  0  0  0  0  0  0  0
   37.9410   27.0990   32.9380 H   0  0  0  0  0  0  0  0  0  0  0  0
   39.2400   25.9860   32.4360 H   0  0  0  0  0  0  0  0  0  0  0  0
   40.6150   26.4530   34.2780 H   0  0  0  0  0  0  0  0  0  0  0  0
   39.8180   27.9460   33.8610 H   0  0  0  0  0  0  0  0  0  0  0  0
   38.5850   28.1960   35.7530 H   0  0  0  0  0  0  0  0  0  0  0  0
   39.9620   27.2360   36.3220 H   0  0  0  0  0  0  0  0  0  0  0  0
   38.3460   25.9030   37.1710 H   0  0  0  0  0  0  0  0  0  0  0  0
   37.0240   26.5680   36.1750 H   0  0  0  0  0  0  0  0  0  0  0  0
   37.2200   24.2970   35.6860 H   0  0  0  0  0  0  0  0  0  0  0  0
   38.3080   23.8870   33.1450 C   0  0  0  0  0  0  0  0  0  0  0  0
   39.2280   24.0600   32.0770 C   0  0  0  0  0  0  0  0  0  0  0  0
   39.6170   22.9130   31.3790 C   0  0  0  0  0  0  0  0  0  0  0  0
   39.0980   21.7100   31.7550 N   0  0  0  0  0  0  0  0  0  0  0  0
   38.2120   21.5930   32.7930 C   0  0  0  0  0  0  0  0  0  0  0  0
   37.8340   22.6640   33.4640 N   0  0  0  0  0  0  0  0  0  0  0  0
   39.6540   24.9730   31.7480 H   0  0  0  0  0  0  0  0  0  0  0  0
   40.3130   22.9600   30.5530 H   0  0  0  0  0  0  0  0  0  0  0  0
   37.8870   20.5730   32.9740 H   0  0  0  0  0  0  0  0  0  0  0  0
   39.2980   24.2350   35.7470 N   0  0  0  0  0  0  0  0  0  0  0  0
   40.2060   24.6480   35.6860 H   0  0  0  0  0  0  0  0  0  0  0  0
   39.1170   22.9360   36.8300 S   0  0  0  0  0  0  0  0  0  0  0  0
   40.4130   22.1300   36.7470 O   0  0  0  0  0  1  0  0  0  0  0  0
   38.9110   23.3790   38.2460 O   0  0  0  0  0  1  0  0  0  0  0  0
   37.9060   21.8830   36.4060 O   0  0  0  0  0  0  0  0  0  0  0  0
   37.3490   21.5650   37.1580 H   0  0  0  0  0  0  0  0  0  0  0  0
  1  7  1  6  0  0  0
  1  6  1  0  0  0  0
  2  1  1  0  0  0  0
  2  3  1  0  0  0  0
  3  4  1  0  0  0  0
  4 12  1  0  0  0  0
  4  5  1  0  0  0  0
  4 13  1  0  0  0  0
  5 15  1  0  0  0  0
  5 14  1  0  0  0  0
  6 16  1  1  0  0  0
  6 26  1  0  0  0  0
  6  5  1  0  0  0  0
  8  2  1  0  0  0  0
  9  2  1  0  0  0  0
 10  3  1  0  0  0  0
 11  3  1  0  0  0  0
 17 22  1  0  0  0  0
 17  1  1  0  0  0  0
 18 17  2  0  0  0  0
 19 20  2  0  0  0  0
 19 18  1  0  0  0  0
 20 21  1  0  0  0  0
 21 25  1  0  0  0  0
 21 22  2  0  0  0  0
 23 18  1  0  0  0  0
 24 19  1  0  0  0  0
 26 28  1  0  0  0  0
 27 26  1  0  0  0  0
 28 30  1  0  0  0  0
 29 28  1  0  0  0  0
 31 28  1  0  0  0  0
 31 32  1  0  0  0  0
M  END
>  <minimizedAffinity>
-4.16751289

$$$$

 OpenBabel03272509293D

 32 33  0  0  1  0  0  0  0  0999 V2000
   37.5540   25.6760   33.6160 C   0  0  2  0  0  0  0  0  0  0  0  0
   38.4390   26.8450   33.2540 C   0  0  0  0  0  0  0  0  0  0  0  0
   39.5460   27.0590   34.2310 C   0  0  0  0  0  0  0  0  0  0  0  0
   39.1220   27.1340   35.6700 C   0  0  0  0  0  0  0  0  0  0  0  0
   37.9960   26.2110   36.0110 C   0  0  0  0  0  0  0  0  0  0  0  0
   37.8050   25.1210   34.9620 C   0  0  2  0  0  0  0  0  0  0  0  0
   36.4830   26.0150   33.5150 H   0  0  0  0  0  0  0  0  0  0  0  0
   37.8770   27.7880   33.0940 H   0  0  0  0  0  0  0  0  0  0  0  0
   38.9410   26.6170   32.2730 H   0  0  0  0  0  0  0  0  0  0  0  0
   40.4650   26.4640   34.0480 H   0  0  0  0  0  0  0  0  0  0  0  0
   39.9140   28.1170   34.0070 H   0  0  0  0  0  0  0  0  0  0  0  0
   38.8380   28.1520   36.0070 H   0  0  0  0  0  0  0  0  0  0  0  0
   40.0570   26.8900   36.2550 H   0  0  0  0  0  0  0  0  0  0  0  0
   38.2820   25.6770   36.9530 H   0  0  0  0  0  0  0  0  0  0  0  0
   37.0450   26.7360   36.2250 H   0  0  0  0  0  0  0  0  0  0  0  0
   36.8270   24.6170   35.2770 H   0  0  0  0  0  0  0  0  0  0  0  0
   37.7020   24.5880   32.6230 C   0  0  0  0  0  0  0  0  0  0  0  0
   36.4990   24.0310   32.1120 C   0  0  0  0  0  0  0  0  0  0  0  0
   36.6230   23.0050   31.1700 C   0  0  0  0  0  0  0  0  0  0  0  0
   37.8710   22.6010   30.8010 N   0  0  0  0  0  0  0  0  0  0  0  0
   39.0040   23.1700   31.3230 C   0  0  0  0  0  0  0  0  0  0  0  0
   38.9070   24.1390   32.2120 N   0  0  0  0  0  0  0  0  0  0  0  0
   35.5100   24.3100   32.3700 H   0  0  0  0  0  0  0  0  0  0  0  0
   35.7570   22.5280   30.7330 H   0  0  0  0  0  0  0  0  0  0  0  0
   39.9230   22.7440   30.9330 H   0  0  0  0  0  0  0  0  0  0  0  0
   38.8650   24.2200   35.1500 N   0  0  0  0  0  0  0  0  0  0  0  0
   39.8230   24.5010   35.1620 H   0  0  0  0  0  0  0  0  0  0  0  0
   38.4960   22.7170   35.8560 S   0  0  0  0  0  0  0  0  0  0  0  0
   37.8070   21.8950   34.7670 O   0  0  0  0  0  1  0  0  0  0  0  0
   39.7110   21.9780   36.3270 O   0  0  0  0  0  1  0  0  0  0  0  0
   37.4030   22.8190   37.1000 O   0  0  0  0  0  0  0  0  0  0  0  0
   37.6090   22.2510   37.8830 H   0  0  0  0  0  0  0  0  0  0  0  0
  1  7  1  6  0  0  0
  1  6  1  0  0  0  0
  2  1  1  0  0  0  0
  2  3  1  0  0  0  0
  3  4  1  0  0  0  0
  4 12  1  0  0  0  0
  4  5  1  0  0  0  0
  4 13  1  0  0  0  0
  5 15  1  0  0  0  0
  5 14  1  0  0  0  0
  6 26  1  0  0  0  0
  6 16  1  1  0  0  0
  6  5  1  0  0  0  0
  8  2  1  0  0  0  0
  9  2  1  0  0  0  0
 10  3  1  0  0  0  0
 11  3  1  0  0  0  0
 17  1  1  0  0  0  0
 18 23  1  0  0  0  0
 18 17  2  0  0  0  0
 19 18  1  0  0  0  0
 20 19  2  0  0  0  0
 20 21  1  0  0  0  0
 21 22  2  0  0  0  0
 22 17  1  0  0  0  0
 24 19  1  0  0  0  0
 25 21  1  0  0  0  0
 26 27  1  0  0  0  0
 26 28  1  0  0  0  0
 28 30  1  0  0  0  0
 28 31  1  0  0  0  0
 29 28  1  0  0  0  0
 31 32  1  0  0  0  0
M  END
>  <minimizedAffinity>
-4.16055584

$$$$

 OpenBabel03272509293D

 32 33  0  0  1  0  0  0  0  0999 V2000
   36.8420   22.1910   31.2520 C   0  0  2  0  0  0  0  0  0  0  0  0
   35.4580   21.6330   31.0180 C   0  0  0  0  0  0  0  0  0  0  0  0
   34.9420   20.8560   32.1820 C   0  0  0  0  0  0  0  0  0  0  0  0
   35.8670   19.7920   32.7000 C   0  0  0  0  0  0  0  0  0  0  0  0
   37.3120   20.1750   32.6430 C   0  0  0  0  0  0  0  0  0  0  0  0
   37.5040   21.6780   32.4690 C   0  0  2  0  0  0  0  0  0  0  0  0
   37.4590   21.9670   30.3350 H   0  0  0  0  0  0  0  0  0  0  0  0
   35.3780   21.0360   30.0870 H   0  0  0  0  0  0  0  0  0  0  0  0
   34.7470   22.4970   30.8910 H   0  0  0  0  0  0  0  0  0  0  0  0
   34.4360   21.4540   32.9680 H   0  0  0  0  0  0  0  0  0  0  0  0
   34.0670   20.2610   31.7520 H   0  0  0  0  0  0  0  0  0  0  0  0
   35.7590   18.8100   32.1960 H   0  0  0  0  0  0  0  0  0  0  0  0
   35.5230   19.6080   33.7610 H   0  0  0  0  0  0  0  0  0  0  0  0
   37.7580   19.9260   33.6390 H   0  0  0  0  0  0  0  0  0  0  0  0
   37.8890   19.6050   31.8890 H   0  0  0  0  0  0  0  0  0  0  0  0
   38.6270   21.7820   32.2790 H   0  0  0  0  0  0  0  0  0  0  0  0
   36.7990   23.6690   31.3270 C   0  0  0  0  0  0  0  0  0  0  0  0
   35.5350   24.2770   31.1070 C   0  0  0  0  0  0  0  0  0  0  0  0
   35.4790   25.6720   31.1790 C   0  0  0  0  0  0  0  0  0  0  0  0
   36.6220   26.3610   31.4500 N   0  0  0  0  0  0  0  0  0  0  0  0
   37.8210   25.7290   31.6550 C   0  0  0  0  0  0  0  0  0  0  0  0
   37.8930   24.4140   31.5920 N   0  0  0  0  0  0  0  0  0  0  0  0
   34.6220   23.7840   30.8910 H   0  0  0  0  0  0  0  0  0  0  0  0
   34.5540   26.2120   31.0230 H   0  0  0  0  0  0  0  0  0  0  0  0
   38.6410   26.4090   31.8610 H   0  0  0  0  0  0  0  0  0  0  0  0
   37.1960   22.2480   33.7140 N   0  0  0  0  0  0  0  0  0  0  0  0
   36.3010   22.1600   34.1480 H   0  0  0  0  0  0  0  0  0  0  0  0
   38.4990   22.6750   34.7210 S   0  0  0  0  0  0  0  0  0  0  0  0
   39.7670   22.2940   33.9580 O   0  0  0  0  0  1  0  0  0  0  0  0
   38.5420   24.1390   35.0340 O   0  0  0  0  0  1  0  0  0  0  0  0
   38.5520   21.8120   36.1380 O   0  0  0  0  0  0  0  0  0  0  0  0
   38.7780   22.3440   36.9400 H   0  0  0  0  0  0  0  0  0  0  0  0
  1  7  1  6  0  0  0
  1 17  1  0  0  0  0
  1  6  1  0  0  0  0
  2  1  1  0  0  0  0
  2  3  1  0  0  0  0
  3  4  1  0  0  0  0
  3 10  1  0  0  0  0
  4 13  1  0  0  0  0
  5  4  1  0  0  0  0
  5 14  1  0  0  0  0
  6 16  1  6  0  0  0
  6  5  1  0  0  0  0
  6 26  1  0  0  0  0
  8  2  1  0  0  0  0
  9  2  1  0  0  0  0
 11  3  1  0  0  0  0
 12  4  1  0  0  0  0
 15  5  1  0  0  0  0
 17 22  1  0  0  0  0
 18 19  1  0  0  0  0
 18 17  2  0  0  0  0
 19 20  2  0  0  0  0
 20 21  1  0  0  0  0
 21 25  1  0  0  0  0
 22 21  2  0  0  0  0
 23 18  1  0  0  0  0
 24 19  1  0  0  0  0
 26 27  1  0  0  0  0
 26 28  1  0  0  0  0
 28 30  1  0  0  0  0
 28 31  1  0  0  0  0
 29 28  1  0  0  0  0
 31 32  1  0  0  0  0
M  END
>  <minimizedAffinity>
-4.14415264

$$$$

 OpenBabel03272509293D

 32 33  0  0  1  0  0  0  0  0999 V2000
   38.6960   23.2540   35.3310 C   0  0  2  0  0  0  0  0  0  0  0  0
   38.1820   23.0130   36.7310 C   0  0  0  0  0  0  0  0  0  0  0  0
   39.2410   23.1650   37.7700 C   0  0  0  0  0  0  0  0  0  0  0  0
   40.5000   22.3840   37.5200 C   0  0  0  0  0  0  0  0  0  0  0  0
   40.8800   22.3100   36.0750 C   0  0  0  0  0  0  0  0  0  0  0  0
   40.1660   23.3630   35.2360 C   0  0  2  0  0  0  0  0  0  0  0  0
   38.3120   22.4180   34.6780 H   0  0  0  0  0  0  0  0  0  0  0  0
   37.6640   22.0400   36.8460 H   0  0  0  0  0  0  0  0  0  0  0  0
   37.4130   23.8010   36.9650 H   0  0  0  0  0  0  0  0  0  0  0  0
   39.4030   24.1990   38.1390 H   0  0  0  0  0  0  0  0  0  0  0  0
   38.7970   22.6630   38.6960 H   0  0  0  0  0  0  0  0  0  0  0  0
   40.4780   21.3480   37.9160 H   0  0  0  0  0  0  0  0  0  0  0  0
   41.2880   22.9090   38.1360 H   0  0  0  0  0  0  0  0  0  0  0  0
   41.9700   22.5580   36.0100 H   0  0  0  0  0  0  0  0  0  0  0  0
   40.7620   21.2990   35.6400 H   0  0  0  0  0  0  0  0  0  0  0  0
   40.4300   23.0700   34.1610 H   0  0  0  0  0  0  0  0  0  0  0  0
   38.0950   24.4830   34.7640 C   0  0  0  0  0  0  0  0  0  0  0  0
   37.8320   24.4720   33.3680 C   0  0  0  0  0  0  0  0  0  0  0  0
   37.2600   25.6240   32.8190 C   0  0  0  0  0  0  0  0  0  0  0  0
   36.9930   26.6780   33.6400 N   0  0  0  0  0  0  0  0  0  0  0  0
   37.2650   26.6410   34.9830 C   0  0  0  0  0  0  0  0  0  0  0  0
   37.8040   25.5640   35.5190 N   0  0  0  0  0  0  0  0  0  0  0  0
   38.0250   23.6790   32.6920 H   0  0  0  0  0  0  0  0  0  0  0  0
   37.0300   25.6960   31.7650 H   0  0  0  0  0  0  0  0  0  0  0  0
   36.9970   27.5540   35.5050 H   0  0  0  0  0  0  0  0  0  0  0  0
   40.7890   24.5830   35.5430 N   0  0  0  0  0  0  0  0  0  0  0  0
   40.9040   24.9160   36.4780 H   0  0  0  0  0  0  0  0  0  0  0  0
   41.7950   25.2680   34.3550 S   0  0  0  0  0  0  0  0  0  0  0  0
   43.1470   24.5680   34.4880 O   0  0  0  0  0  1  0  0  0  0  0  0
   41.2790   25.0640   32.9630 O   0  0  0  0  0  1  0  0  0  0  0  0
   42.0990   26.8820   34.5920 O   0  0  0  0  0  0  0  0  0  0  0  0
   42.0760   27.4340   33.7730 H   0  0  0  0  0  0  0  0  0  0  0  0
  1  7  1  6  0  0  0
  1  2  1  0  0  0  0
  2  8  1  0  0  0  0
  2  9  1  0  0  0  0
  2  3  1  0  0  0  0
  3 10  1  0  0  0  0
  3 11  1  0  0  0  0
  4  3  1  0  0  0  0
  4 12  1  0  0  0  0
  4 13  1  0  0  0  0
  5  4  1  0  0  0  0
  6 16  1  6  0  0  0
  6  1  1  0  0  0  0
  6 26  1  0  0  0  0
  6  5  1  0  0  0  0
 14  5  1  0  0  0  0
 15  5  1  0  0  0  0
 17  1  1  0  0  0  0
 17 22  1  0  0  0  0
 18 17  2  0  0  0  0
 19 18  1  0  0  0  0
 19 20  2  0  0  0  0
 20 21  1  0  0  0  0
 21 25  1  0  0  0  0
 21 22  2  0  0  0  0
 23 18  1  0  0  0  0
 24 19  1  0  0  0  0
 26 27  1  0  0  0  0
 28 29  1  0  0  0  0
 28 31  1  0  0  0  0
 28 26  1  0  0  0  0
 30 28  1  0  0  0  0
 32 31  1  0  0  0  0
M  END
>  <minimizedAffinity>
-4.09251928

$$$$

 OpenBabel03272509293D

 32 33  0  0  1  0  0  0  0  0999 V2000
   39.0960   24.6070   34.1450 C   0  0  2  0  0  0  0  0  0  0  0  0
   38.9080   24.5600   35.6430 C   0  0  0  0  0  0  0  0  0  0  0  0
   38.1830   25.7520   36.1730 C   0  0  0  0  0  0  0  0  0  0  0  0
   38.7380   27.0800   35.7440 C   0  0  0  0  0  0  0  0  0  0  0  0
   39.2550   27.0880   34.3410 C   0  0  0  0  0  0  0  0  0  0  0  0
   38.7420   25.9030   33.5300 C   0  0  2  0  0  0  0  0  0  0  0  0
   40.1700   24.3400   33.9280 H   0  0  0  0  0  0  0  0  0  0  0  0
   39.8550   24.4040   36.1990 H   0  0  0  0  0  0  0  0  0  0  0  0
   38.2570   23.6760   35.8890 H   0  0  0  0  0  0  0  0  0  0  0  0
   37.0760   25.6830   36.1540 H   0  0  0  0  0  0  0  0  0  0  0  0
   38.3920   25.7270   37.2960 H   0  0  0  0  0  0  0  0  0  0  0  0
   39.5410   27.4710   36.4020 H   0  0  0  0  0  0  0  0  0  0  0  0
   37.8800   27.8040   35.8800 H   0  0  0  0  0  0  0  0  0  0  0  0
   38.8390   28.0000   33.8420 H   0  0  0  0  0  0  0  0  0  0  0  0
   40.3570   27.1720   34.2780 H   0  0  0  0  0  0  0  0  0  0  0  0
   39.3470   25.9620   32.5610 H   0  0  0  0  0  0  0  0  0  0  0  0
   38.3020   23.5430   33.4900 C   0  0  0  0  0  0  0  0  0  0  0  0
   37.7910   22.5230   34.3360 C   0  0  0  0  0  0  0  0  0  0  0  0
   37.0350   21.5140   33.7320 C   0  0  0  0  0  0  0  0  0  0  0  0
   36.8360   21.5620   32.3850 N   0  0  0  0  0  0  0  0  0  0  0  0
   37.3510   22.5670   31.6090 C   0  0  0  0  0  0  0  0  0  0  0  0
   38.0650   23.5280   32.1610 N   0  0  0  0  0  0  0  0  0  0  0  0
   37.9220   22.4440   35.3850 H   0  0  0  0  0  0  0  0  0  0  0  0
   36.6110   20.7020   34.3060 H   0  0  0  0  0  0  0  0  0  0  0  0
   37.1080   22.4700   30.5560 H   0  0  0  0  0  0  0  0  0  0  0  0
   37.3970   26.1880   33.2470 N   0  0  0  0  0  0  0  0  0  0  0  0
   36.6970   26.2720   33.9550 H   0  0  0  0  0  0  0  0  0  0  0  0
   37.0470   26.8820   31.7350 S   0  0  0  0  0  0  0  0  0  0  0  0
   35.5350   26.7560   31.5490 O   0  0  0  0  0  1  0  0  0  0  0  0
   37.4260   28.3290   31.6530 O   0  0  0  0  0  1  0  0  0  0  0  0
   37.7260   26.0680   30.4580 O   0  0  0  0  0  0  0  0  0  0  0  0
   38.1130   26.6450   29.7550 H   0  0  0  0  0  0  0  0  0  0  0  0
  1  7  1  6  0  0  0
  1  2  1  0  0  0  0
  2  9  1  0  0  0  0
  2  3  1  0  0  0  0
  2  8  1  0  0  0  0
  3 11  1  0  0  0  0
  4 13  1  0  0  0  0
  4  3  1  0  0  0  0
  4 12  1  0  0  0  0
  5  4  1  0  0  0  0
  6 16  1  6  0  0  0
  6  1  1  0  0  0  0
  6  5  1  0  0  0  0
 10  3  1  0  0  0  0
 14  5  1  0  0  0  0
 15  5  1  0  0  0  0
 17  1  1  0  0  0  0
 17 18  1  0  0  0  0
 18 23  1  0  0  0  0
 19 24  1  0  0  0  0
 19 18  2  0  0  0  0
 20 19  1  0  0  0  0
 21 22  1  0  0  0  0
 21 20  2  0  0  0  0
 22 17  2  0  0  0  0
 25 21  1  0  0  0  0
 26  6  1  0  0  0  0
 26 27  1  0  0  0  0
 28 26  1  0  0  0  0
 29 28  1  0  0  0  0
 30 28  1  0  0  0  0
 31 28  1  0  0  0  0
 32 31  1  0  0  0  0
M  END
>  <minimizedAffinity>
-4.06802702

$$$$
