
 OpenBabel03272509523D

 41 43  0  0  0  0  0  0  0  0999 V2000
   34.0120   29.2810   48.0970 C   0  0  0  0  0  0  0  0  0  0  0  0
   33.2700   29.6680   48.8270 H   0  0  0  0  0  0  0  0  0  0  0  0
   34.5370   30.1100   47.5500 H   0  0  0  0  0  0  0  0  0  0  0  0
   33.3230   28.3790   47.1130 C   0  0  0  0  0  0  0  0  0  0  0  0
   33.2980   28.8370   46.0840 H   0  0  0  0  0  0  0  0  0  0  0  0
   33.8540   27.4220   46.9940 H   0  0  0  0  0  0  0  0  0  0  0  0
   31.9100   28.1190   47.4810 C   0  0  0  0  0  0  0  0  0  0  0  0
   31.6750   27.1670   48.4740 C   0  0  0  0  0  0  0  0  0  0  0  0
   30.4090   26.8540   48.8850 C   0  0  0  0  0  0  0  0  0  0  0  0
   29.3820   27.4630   48.3320 N   0  0  0  0  0  0  0  0  0  0  0  0
   29.6060   28.3940   47.3610 C   0  0  0  0  0  0  0  0  0  0  0  0
   30.8370   28.7330   46.9250 N   0  0  0  0  0  0  0  0  0  0  0  0
   32.5250   26.6620   48.9320 H   0  0  0  0  0  0  0  0  0  0  0  0
   30.2280   26.1090   49.6620 H   0  0  0  0  0  0  0  0  0  0  0  0
   28.4790   29.0430   46.7750 N   0  0  0  0  0  0  0  0  0  0  0  0
   28.4080   29.1710   45.7410 H   0  0  0  0  0  0  0  0  0  0  0  0
   27.1590   29.6630   47.6930 S   0  0  0  0  0  0  0  0  0  0  0  0
   27.5890   30.0500   49.0790 O   0  0  0  0  0  0  0  0  0  0  0  0
   26.5910   30.9150   47.0670 O   0  0  0  0  0  0  0  0  0  0  0  0
   25.9620   28.4690   47.7280 O   0  0  0  0  0  0  0  0  0  0  0  0
   25.4100   28.6120   46.9010 H   0  0  0  0  0  0  0  0  0  0  0  0
   35.0360   28.5500   48.7760 O   0  0  0  0  0  0  0  0  0  0  0  0
   37.2200   30.0250   51.2520 C   0  0  0  0  0  0  0  0  0  0  0  0
   38.0510   30.8250   50.4140 C   0  0  0  0  0  0  0  0  0  0  0  0
   37.7900   30.7910   49.0510 C   0  0  0  0  0  0  0  0  0  0  0  0
   36.7600   29.9940   48.6340 N   0  0  0  0  0  0  0  0  0  0  0  0
   36.0030   29.2610   49.4360 C   0  0  0  0  0  0  0  0  0  0  0  0
   36.2410   29.2810   50.7630 N   0  0  0  0  0  0  0  0  0  0  0  0
   37.4450   30.0710   52.3140 H   0  0  0  0  0  0  0  0  0  0  0  0
   38.8560   31.4470   50.7430 H   0  0  0  0  0  0  0  0  0  0  0  0
   38.8080   33.4950   49.2110 F   0  0  0  0  0  0  0  0  0  0  0  0
   39.0030   32.7860   48.0990 C   0  0  0  0  0  0  0  0  0  0  0  0
   38.5200   31.5290   48.0490 C   0  0  0  0  0  0  0  0  0  0  0  0
   38.7830   30.8780   46.8340 C   0  0  0  0  0  0  0  0  0  0  0  0
   39.4660   31.4680   45.8040 C   0  0  0  0  0  0  0  0  0  0  0  0
   39.9390   32.7580   45.9080 C   0  0  0  0  0  0  0  0  0  0  0  0
   39.6960   33.4150   47.0850 C   0  0  0  0  0  0  0  0  0  0  0  0
   38.4480   29.8540   46.6560 H   0  0  0  0  0  0  0  0  0  0  0  0
   39.6630   30.9560   44.8710 H   0  0  0  0  0  0  0  0  0  0  0  0
   40.4720   33.2090   45.0970 H   0  0  0  0  0  0  0  0  0  0  0  0
   40.0570   34.4320   47.1980 H   0  0  0  0  0  0  0  0  0  0  0  0
  1 22  1  0  0  0  0
  1  2  1  0  0  0  0
  3  1  1  0  0  0  0
  4  7  1  0  0  0  0
  4  1  1  0  0  0  0
  5  4  1  0  0  0  0
  6  4  1  0  0  0  0
  7  8  1  0  0  0  0
  8  9  2  0  0  0  0
  8 13  1  0  0  0  0
  9 14  1  0  0  0  0
 10  9  1  0  0  0  0
 11 10  2  0  0  0  0
 12 11  1  0  0  0  0
 12  7  2  0  0  0  0
 15 11  1  0  0  0  0
 15 17  1  0  0  0  0
 16 15  1  0  0  0  0
 17 20  1  0  0  0  0
 17 18  1  0  0  0  0
 19 17  1  0  0  0  0
 21 20  1  0  0  0  0
 22 27  1  0  0  0  0
 23 29  1  0  0  0  0
 24 30  1  0  0  0  0
 24 23  2  0  0  0  0
 25 24  1  0  0  0  0
 26 25  2  0  0  0  0
 26 27  1  0  0  0  0
 27 28  2  0  0  0  0
 28 23  1  0  0  0  0
 32 31  1  0  0  0  0
 33 32  1  0  0  0  0
 33 25  1  0  0  0  0
 34 33  2  0  0  0  0
 35 36  2  0  0  0  0
 35 34  1  0  0  0  0
 36 37  1  0  0  0  0
 37 41  1  0  0  0  0
 37 32  2  0  0  0  0
 38 34  1  0  0  0  0
 39 35  1  0  0  0  0
 40 36  1  0  0  0  0
M  END
>  <minimizedAffinity>
-7.08302164

>  <minimizedRMSD>
1.24630117

$$$$
