
 OpenBabel03272503063D

 30 31  0  0  0  0  0  0  0  0999 V2000
   38.5230   30.4140   47.3400 F   0  0  0  0  0  0  0  0  0  0  0  0
   38.7710   31.6560   47.8240 C   0  0  0  0  0  0  0  0  0  0  0  0
   38.1760   32.0840   48.9830 C   0  0  0  0  0  0  0  0  0  0  0  0
   38.4720   33.3460   49.4090 C   0  0  0  0  0  0  0  0  0  0  0  0
   39.3290   34.1800   48.7260 C   0  0  0  0  0  0  0  0  0  0  0  0
   39.9180   33.7350   47.5640 C   0  0  0  0  0  0  0  0  0  0  0  0
   39.6400   32.4620   47.1030 C   0  0  0  0  0  0  0  0  0  0  0  0
   38.0070   33.6880   50.3210 H   0  0  0  0  0  0  0  0  0  0  0  0
   39.5720   35.1830   49.0540 H   0  0  0  0  0  0  0  0  0  0  0  0
   40.6130   34.3030   46.9350 H   0  0  0  0  0  0  0  0  0  0  0  0
   36.7360   29.5900   51.4360 C   0  0  0  0  0  0  0  0  0  0  0  0
   37.6290   30.4700   50.8130 C   0  0  0  0  0  0  0  0  0  0  0  0
   37.2780   31.1590   49.6640 C   0  0  0  0  0  0  0  0  0  0  0  0
   36.0130   30.9240   49.1860 N   0  0  0  0  0  0  0  0  0  0  0  0
   35.1690   30.0770   49.7960 C   0  0  0  0  0  0  0  0  0  0  0  0
   35.5230   29.4180   50.9050 N   0  0  0  0  0  0  0  0  0  0  0  0
   37.0810   29.1000   52.3120 H   0  0  0  0  0  0  0  0  0  0  0  0
   38.6280   30.6340   51.2200 H   0  0  0  0  0  0  0  0  0  0  0  0
   34.1640   29.9030   49.3990 H   0  0  0  0  0  0  0  0  0  0  0  0
   39.4520   32.2060   44.7270 C   0  0  0  0  0  0  0  0  0  0  0  0
   38.3390   32.7790   44.9350 O   0  0  0  0  0  0  0  0  0  0  0  0
   40.2300   31.9550   45.8960 N   0  0  0  0  0  0  0  0  0  0  0  0
   41.1230   31.4410   45.7530 H   0  0  0  0  0  0  0  0  0  0  0  0
   39.8680   31.8520   43.4120 N   0  0  0  0  0  0  0  0  0  0  0  0
   40.2050   32.6070   42.7660 H   0  0  0  0  0  0  0  0  0  0  0  0
   39.8430   30.2270   42.8270 S   0  0  0  0  0  0  0  0  0  0  0  0
   41.1260   29.9230   42.1540 O   0  0  0  0  0  1  0  0  0  0  0  0
   38.7220   30.0440   41.8260 O   0  0  0  0  0  1  0  0  0  0  0  0
   39.5090   29.1870   44.1110 O   0  0  0  0  0  0  0  0  0  0  0  0
   39.9560   28.3090   44.0010 H   0  0  0  0  0  0  0  0  0  0  0  0
  1  2  1  0  0  0  0
  2  3  1  0  0  0  0
  3  4  2  0  0  0  0
  3 13  1  0  0  0  0
  4  8  1  0  0  0  0
  5  9  1  0  0  0  0
  5  4  1  0  0  0  0
  6  5  2  0  0  0  0
  7  6  1  0  0  0  0
  7  2  2  0  0  0  0
 10  6  1  0  0  0  0
 11 17  1  0  0  0  0
 12 18  1  0  0  0  0
 12 11  2  0  0  0  0
 13 12  1  0  0  0  0
 14 13  2  0  0  0  0
 14 15  1  0  0  0  0
 15 16  2  0  0  0  0
 16 11  1  0  0  0  0
 19 15  1  0  0  0  0
 20 21  2  0  0  0  0
 20 22  1  0  0  0  0
 22  7  1  0  0  0  0
 23 22  1  0  0  0  0
 24 20  1  0  0  0  0
 25 24  1  0  0  0  0
 26 24  1  0  0  0  0
 26 29  1  0  0  0  0
 27 26  1  0  0  0  0
 28 26  1  0  0  0  0
 30 29  1  0  0  0  0
M  END
>  <minimizedAffinity>
-6.60356903

>  <minimizedRMSD>
0.21377559

$$$$
