
 OpenBabel03272503063D

 30 31  0  0  0  0  0  0  0  0999 V2000
   37.9280   29.8000   47.1380 F   0  0  0  0  0  0  0  0  0  0  0  0
   38.4120   31.0370   47.4100 C   0  0  0  0  0  0  0  0  0  0  0  0
   38.1510   31.6380   48.6150 C   0  0  0  0  0  0  0  0  0  0  0  0
   38.6700   32.8830   48.8180 C   0  0  0  0  0  0  0  0  0  0  0  0
   39.4290   33.5370   47.8730 C   0  0  0  0  0  0  0  0  0  0  0  0
   39.6810   32.9190   46.6680 C   0  0  0  0  0  0  0  0  0  0  0  0
   39.1710   31.6580   46.4280 C   0  0  0  0  0  0  0  0  0  0  0  0
   38.4690   33.3610   49.7650 H   0  0  0  0  0  0  0  0  0  0  0  0
   39.8460   34.5240   48.0220 H   0  0  0  0  0  0  0  0  0  0  0  0
   40.2680   33.3360   45.8410 H   0  0  0  0  0  0  0  0  0  0  0  0
   37.0200   29.7560   51.6960 C   0  0  0  0  0  0  0  0  0  0  0  0
   37.8300   30.4620   50.7990 C   0  0  0  0  0  0  0  0  0  0  0  0
   37.3430   30.9000   49.5780 C   0  0  0  0  0  0  0  0  0  0  0  0
   36.0300   30.5980   49.3130 N   0  0  0  0  0  0  0  0  0  0  0  0
   35.2670   29.9200   50.1840 C   0  0  0  0  0  0  0  0  0  0  0  0
   35.7530   29.5030   51.3590 N   0  0  0  0  0  0  0  0  0  0  0  0
   37.4670   29.4550   52.6100 H   0  0  0  0  0  0  0  0  0  0  0  0
   38.8700   30.6860   51.0410 H   0  0  0  0  0  0  0  0  0  0  0  0
   34.2230   29.6880   49.9530 H   0  0  0  0  0  0  0  0  0  0  0  0
   38.4210   31.2380   44.1910 C   0  0  0  0  0  0  0  0  0  0  0  0
   37.4610   31.9790   44.5660 O   0  0  0  0  0  0  0  0  0  0  0  0
   39.4070   30.9750   45.1870 N   0  0  0  0  0  0  0  0  0  0  0  0
   40.1760   30.3300   44.9150 H   0  0  0  0  0  0  0  0  0  0  0  0
   38.4820   30.7220   42.8650 N   0  0  0  0  0  0  0  0  0  0  0  0
   37.5870   30.5350   42.3510 H   0  0  0  0  0  0  0  0  0  0  0  0
   39.9730   30.3890   42.0570 S   0  0  0  0  0  0  0  0  0  0  0  0
   40.3670   31.5600   41.2420 O   0  0  0  0  0  1  0  0  0  0  0  0
   39.8190   29.1960   41.1390 O   0  0  0  0  0  1  0  0  0  0  0  0
   41.1330   29.9630   43.2030 O   0  0  0  0  0  0  0  0  0  0  0  0
   42.0430   30.2480   42.9290 H   0  0  0  0  0  0  0  0  0  0  0  0
  1  2  1  0  0  0  0
  2  3  1  0  0  0  0
  3  4  2  0  0  0  0
  3 13  1  0  0  0  0
  4  8  1  0  0  0  0
  5  9  1  0  0  0  0
  5  4  1  0  0  0  0
  6  5  2  0  0  0  0
  7  6  1  0  0  0  0
  7  2  2  0  0  0  0
 10  6  1  0  0  0  0
 11 17  1  0  0  0  0
 12 18  1  0  0  0  0
 12 11  2  0  0  0  0
 13 12  1  0  0  0  0
 14 13  2  0  0  0  0
 14 15  1  0  0  0  0
 15 16  2  0  0  0  0
 16 11  1  0  0  0  0
 19 15  1  0  0  0  0
 20 21  2  0  0  0  0
 20 22  1  0  0  0  0
 22  7  1  0  0  0  0
 23 22  1  0  0  0  0
 24 20  1  0  0  0  0
 25 24  1  0  0  0  0
 26 24  1  0  0  0  0
 26 29  1  0  0  0  0
 27 26  1  0  0  0  0
 28 26  1  0  0  0  0
 30 29  1  0  0  0  0
M  END
>  <minimizedAffinity>
-5.88728762

>  <minimizedRMSD>
1.25229919

$$$$
