
 OpenBabel03272506523D

 32 33  0  0  1  0  0  0  0  0999 V2000
   39.1200   26.9510   33.6260 C   0  0  1  0  0  0  0  0  0  0  0  0
   38.6100   27.2650   34.9550 C   0  0  0  0  0  0  0  0  0  0  0  0
   37.7300   26.2380   35.6150 C   0  0  0  0  0  0  0  0  0  0  0  0
   38.1110   24.8260   35.3710 C   0  0  1  0  0  0  0  0  0  0  0  0
   38.6180   24.4860   34.0120 C   0  0  0  0  0  0  0  0  0  0  0  0
   39.5720   25.5190   33.5030 C   0  0  0  0  0  0  0  0  0  0  0  0
   40.0860   27.5330   33.4690 H   0  0  0  0  0  0  0  0  0  0  0  0
   38.1530   28.2380   35.1050 H   0  0  0  0  0  0  0  0  0  0  0  0
   39.5190   27.2970   35.6440 H   0  0  0  0  0  0  0  0  0  0  0  0
   37.7030   26.4560   36.6810 H   0  0  0  0  0  0  0  0  0  0  0  0
   36.7000   26.3990   35.2180 H   0  0  0  0  0  0  0  0  0  0  0  0
   37.1940   24.1970   35.5180 H   0  0  0  0  0  0  0  0  0  0  0  0
   37.7560   24.4170   33.3380 H   0  0  0  0  0  0  0  0  0  0  0  0
   39.1480   23.5360   34.0600 H   0  0  0  0  0  0  0  0  0  0  0  0
   40.4120   25.4740   34.2750 H   0  0  0  0  0  0  0  0  0  0  0  0
   40.0900   25.2570   32.5900 H   0  0  0  0  0  0  0  0  0  0  0  0
   36.9960   27.9150   32.6520 C   0  0  0  0  0  0  0  0  0  0  0  0
   38.2970   27.3930   32.4760 C   0  0  0  0  0  0  0  0  0  0  0  0
   38.7710   27.3190   31.1820 C   0  0  0  0  0  0  0  0  0  0  0  0
   37.9730   27.7480   30.1480 N   0  0  0  0  0  0  0  0  0  0  0  0
   36.7400   28.2380   30.3660 C   0  0  0  0  0  0  0  0  0  0  0  0
   36.2640   28.3170   31.6190 N   0  0  0  0  0  0  0  0  0  0  0  0
   36.5320   28.0160   33.6210 H   0  0  0  0  0  0  0  0  0  0  0  0
   39.7480   26.9390   30.9230 H   0  0  0  0  0  0  0  0  0  0  0  0
   36.1100   28.5770   29.5530 H   0  0  0  0  0  0  0  0  0  0  0  0
   39.0670   24.3550   36.3270 N   0  0  0  0  0  0  0  0  0  0  0  0
   39.9210   23.9330   35.9640 H   0  0  0  0  0  0  0  0  0  0  0  0
   38.3860   23.5240   37.6630 S   0  0  0  0  0  0  0  0  0  0  0  0
   37.1380   22.8030   37.3360 O   0  0  0  0  0  1  0  0  0  0  0  0
   38.0060   24.5880   38.6830 O   0  0  0  0  0  1  0  0  0  0  0  0
   39.4460   22.4700   38.4070 O   0  0  0  0  0  0  0  0  0  0  0  0
   39.0410   21.5790   38.5920 H   0  0  0  0  0  0  0  0  0  0  0  0
  1  7  1  6  0  0  0
  1  2  1  0  0  0  0
  2  8  1  0  0  0  0
  2  3  1  0  0  0  0
  2  9  1  0  0  0  0
  3 10  1  0  0  0  0
  4 12  1  1  0  0  0
  4  3  1  0  0  0  0
  4 26  1  0  0  0  0
  5 14  1  0  0  0  0
  5  4  1  0  0  0  0
  6  1  1  0  0  0  0
  6  5  1  0  0  0  0
  6 15  1  0  0  0  0
 11  3  1  0  0  0  0
 13  5  1  0  0  0  0
 16  6  1  0  0  0  0
 17 23  1  0  0  0  0
 18 17  1  0  0  0  0
 18  1  1  0  0  0  0
 19 18  2  0  0  0  0
 20 21  2  0  0  0  0
 20 19  1  0  0  0  0
 21 22  1  0  0  0  0
 22 17  2  0  0  0  0
 24 19  1  0  0  0  0
 25 21  1  0  0  0  0
 26 28  1  0  0  0  0
 27 26  1  0  0  0  0
 28 31  1  0  0  0  0
 28 30  1  0  0  0  0
 29 28  1  0  0  0  0
 31 32  1  0  0  0  0
M  END
>  <minimizedAffinity>
-4.80839109

$$$$

 OpenBabel03272506523D

 32 33  0  0  1  0  0  0  0  0999 V2000
   38.4300   27.2150   34.1180 C   0  0  1  0  0  0  0  0  0  0  0  0
   38.6160   27.1990   35.5640 C   0  0  0  0  0  0  0  0  0  0  0  0
   38.1530   25.9730   36.3040 C   0  0  0  0  0  0  0  0  0  0  0  0
   38.3680   24.6870   35.5970 C   0  0  1  0  0  0  0  0  0  0  0  0
   38.1660   24.6830   34.1220 C   0  0  0  0  0  0  0  0  0  0  0  0
   38.7650   25.8930   33.4770 C   0  0  0  0  0  0  0  0  0  0  0  0
   39.2060   27.9150   33.6670 H   0  0  0  0  0  0  0  0  0  0  0  0
   38.2870   28.0680   36.1260 H   0  0  0  0  0  0  0  0  0  0  0  0
   39.7430   27.1870   35.7390 H   0  0  0  0  0  0  0  0  0  0  0  0
   38.6380   25.9680   37.2780 H   0  0  0  0  0  0  0  0  0  0  0  0
   37.0590   26.1000   36.4790 H   0  0  0  0  0  0  0  0  0  0  0  0
   37.6310   23.9480   36.0060 H   0  0  0  0  0  0  0  0  0  0  0  0
   37.0860   24.6600   33.9290 H   0  0  0  0  0  0  0  0  0  0  0  0
   38.6520   23.8050   33.7000 H   0  0  0  0  0  0  0  0  0  0  0  0
   39.8710   25.7830   33.7380 H   0  0  0  0  0  0  0  0  0  0  0  0
   38.7840   25.8760   32.3950 H   0  0  0  0  0  0  0  0  0  0  0  0
   36.3110   28.5520   34.4490 C   0  0  0  0  0  0  0  0  0  0  0  0
   37.1590   27.7890   33.6170 C   0  0  0  0  0  0  0  0  0  0  0  0
   36.7540   27.6070   32.3100 C   0  0  0  0  0  0  0  0  0  0  0  0
   35.5710   28.1650   31.8890 N   0  0  0  0  0  0  0  0  0  0  0  0
   34.7960   28.8850   32.7200 C   0  0  0  0  0  0  0  0  0  0  0  0
   35.1750   29.0720   33.9940 N   0  0  0  0  0  0  0  0  0  0  0  0
   36.5340   28.7540   35.4850 H   0  0  0  0  0  0  0  0  0  0  0  0
   37.3180   27.0430   31.5810 H   0  0  0  0  0  0  0  0  0  0  0  0
   33.8630   29.3260   32.3900 H   0  0  0  0  0  0  0  0  0  0  0  0
   39.6630   24.1380   35.8640 N   0  0  0  0  0  0  0  0  0  0  0  0
   40.3780   24.2560   35.1460 H   0  0  0  0  0  0  0  0  0  0  0  0
   39.6400   22.5820   36.5830 S   0  0  0  0  0  0  0  0  0  0  0  0
   40.8530   21.7840   36.3040 O   0  0  0  0  0  1  0  0  0  0  0  0
   38.4820   21.8300   35.9430 O   0  0  0  0  0  1  0  0  0  0  0  0
   39.3720   22.6090   38.2320 O   0  0  0  0  0  0  0  0  0  0  0  0
   39.9970   22.0210   38.7360 H   0  0  0  0  0  0  0  0  0  0  0  0
  1  7  1  6  0  0  0
  1  2  1  0  0  0  0
  2  9  1  0  0  0  0
  2  8  1  0  0  0  0
  2  3  1  0  0  0  0
  3 11  1  0  0  0  0
  3 10  1  0  0  0  0
  4 26  1  0  0  0  0
  4 12  1  1  0  0  0
  4  3  1  0  0  0  0
  5  4  1  0  0  0  0
  6 15  1  0  0  0  0
  6  1  1  0  0  0  0
  6  5  1  0  0  0  0
 13  5  1  0  0  0  0
 14  5  1  0  0  0  0
 16  6  1  0  0  0  0
 17 23  1  0  0  0  0
 18  1  1  0  0  0  0
 18 17  2  0  0  0  0
 19 18  1  0  0  0  0
 20 19  2  0  0  0  0
 20 21  1  0  0  0  0
 21 22  2  0  0  0  0
 22 17  1  0  0  0  0
 24 19  1  0  0  0  0
 25 21  1  0  0  0  0
 26 28  1  0  0  0  0
 27 26  1  0  0  0  0
 28 31  1  0  0  0  0
 29 28  1  0  0  0  0
 30 28  1  0  0  0  0
 31 32  1  0  0  0  0
M  END
>  <minimizedAffinity>
-4.76704025

$$$$

 OpenBabel03272506523D

 32 33  0  0  1  0  0  0  0  0999 V2000
   38.3760   27.2480   34.0190 C   0  0  1  0  0  0  0  0  0  0  0  0
   38.6140   27.2430   35.4570 C   0  0  0  0  0  0  0  0  0  0  0  0
   38.1580   26.0330   36.2260 C   0  0  0  0  0  0  0  0  0  0  0  0
   38.3260   24.7360   35.5260 C   0  0  1  0  0  0  0  0  0  0  0  0
   38.0700   24.7210   34.0590 C   0  0  0  0  0  0  0  0  0  0  0  0
   38.6660   25.9140   33.3810 C   0  0  0  0  0  0  0  0  0  0  0  0
   39.1460   27.9300   33.5320 H   0  0  0  0  0  0  0  0  0  0  0  0
   38.3200   28.1230   36.0210 H   0  0  0  0  0  0  0  0  0  0  0  0
   39.7460   27.2150   35.5910 H   0  0  0  0  0  0  0  0  0  0  0  0
   38.6780   26.0290   37.1820 H   0  0  0  0  0  0  0  0  0  0  0  0
   37.0730   26.1800   36.4400 H   0  0  0  0  0  0  0  0  0  0  0  0
   37.5920   24.0140   35.9700 H   0  0  0  0  0  0  0  0  0  0  0  0
   36.9840   24.7140   33.9060 H   0  0  0  0  0  0  0  0  0  0  0  0
   38.5260   23.8300   33.6300 H   0  0  0  0  0  0  0  0  0  0  0  0
   39.7780   25.7880   33.6020 H   0  0  0  0  0  0  0  0  0  0  0  0
   38.6450   25.8850   32.2990 H   0  0  0  0  0  0  0  0  0  0  0  0
   36.6400   27.6730   32.2320 C   0  0  0  0  0  0  0  0  0  0  0  0
   37.0970   27.8380   33.5580 C   0  0  0  0  0  0  0  0  0  0  0  0
   36.2940   28.5690   34.4100 C   0  0  0  0  0  0  0  0  0  0  0  0
   35.1130   29.0910   33.9380 N   0  0  0  0  0  0  0  0  0  0  0  0
   34.7200   28.9070   32.6650 C   0  0  0  0  0  0  0  0  0  0  0  0
   35.4890   28.1980   31.8240 N   0  0  0  0  0  0  0  0  0  0  0  0
   37.1910   27.1200   31.4870 H   0  0  0  0  0  0  0  0  0  0  0  0
   36.5380   28.7620   35.4440 H   0  0  0  0  0  0  0  0  0  0  0  0
   33.7890   29.3170   32.2920 H   0  0  0  0  0  0  0  0  0  0  0  0
   39.6210   24.1680   35.7520 N   0  0  0  0  0  0  0  0  0  0  0  0
   40.2750   24.1710   34.9700 H   0  0  0  0  0  0  0  0  0  0  0  0
   39.6090   22.7100   36.6530 S   0  0  0  0  0  0  0  0  0  0  0  0
   39.7120   22.9160   38.1120 O   0  0  0  0  0  1  0  0  0  0  0  0
   40.8570   21.9410   36.2440 O   0  0  0  0  0  1  0  0  0  0  0  0
   38.2900   21.7350   36.3320 O   0  0  0  0  0  0  0  0  0  0  0  0
   37.8590   21.3820   37.1560 H   0  0  0  0  0  0  0  0  0  0  0  0
  1  7  1  6  0  0  0
  1  2  1  0  0  0  0
  2  9  1  0  0  0  0
  2  8  1  0  0  0  0
  2  3  1  0  0  0  0
  3 11  1  0  0  0  0
  3 10  1  0  0  0  0
  4 26  1  0  0  0  0
  4 12  1  1  0  0  0
  4  3  1  0  0  0  0
  5  4  1  0  0  0  0
  6 15  1  0  0  0  0
  6  1  1  0  0  0  0
  6  5  1  0  0  0  0
 13  5  1  0  0  0  0
 14  5  1  0  0  0  0
 16  6  1  0  0  0  0
 17 18  1  0  0  0  0
 18  1  1  0  0  0  0
 18 19  2  0  0  0  0
 19 24  1  0  0  0  0
 20 19  1  0  0  0  0
 21 20  2  0  0  0  0
 22 17  2  0  0  0  0
 22 21  1  0  0  0  0
 23 17  1  0  0  0  0
 25 21  1  0  0  0  0
 26 28  1  0  0  0  0
 27 26  1  0  0  0  0
 28 29  1  0  0  0  0
 30 28  1  0  0  0  0
 31 28  1  0  0  0  0
 31 32  1  0  0  0  0
M  END
>  <minimizedAffinity>
-4.64215755

$$$$

 OpenBabel03272506523D

 32 33  0  0  1  0  0  0  0  0999 V2000
   39.0440   26.8890   34.9190 C   0  0  1  0  0  0  0  0  0  0  0  0
   39.5630   26.9980   33.5620 C   0  0  0  0  0  0  0  0  0  0  0  0
   38.5920   26.7800   32.4330 C   0  0  0  0  0  0  0  0  0  0  0  0
   37.2250   27.3100   32.6610 C   0  0  1  0  0  0  0  0  0  0  0  0
   36.6740   27.1900   34.0400 C   0  0  0  0  0  0  0  0  0  0  0  0
   37.6940   27.5400   35.0760 C   0  0  0  0  0  0  0  0  0  0  0  0
   39.7030   27.5140   35.6050 H   0  0  0  0  0  0  0  0  0  0  0  0
   40.4740   26.4570   33.3240 H   0  0  0  0  0  0  0  0  0  0  0  0
   39.8660   28.0890   33.4250 H   0  0  0  0  0  0  0  0  0  0  0  0
   39.0280   27.2030   31.5300 H   0  0  0  0  0  0  0  0  0  0  0  0
   38.5210   25.6770   32.2820 H   0  0  0  0  0  0  0  0  0  0  0  0
   36.5240   26.7330   32.0030 H   0  0  0  0  0  0  0  0  0  0  0  0
   36.3440   26.1530   34.1830 H   0  0  0  0  0  0  0  0  0  0  0  0
   35.8380   27.8790   34.1470 H   0  0  0  0  0  0  0  0  0  0  0  0
   37.9310   28.6280   34.8250 H   0  0  0  0  0  0  0  0  0  0  0  0
   37.3140   27.6190   36.0870 H   0  0  0  0  0  0  0  0  0  0  0  0
   38.1890   25.1520   36.5430 C   0  0  0  0  0  0  0  0  0  0  0  0
   39.1110   25.5510   35.5520 C   0  0  0  0  0  0  0  0  0  0  0  0
   40.0770   24.6330   35.1910 C   0  0  0  0  0  0  0  0  0  0  0  0
   40.0950   23.4010   35.8010 N   0  0  0  0  0  0  0  0  0  0  0  0
   39.1940   23.0670   36.7420 C   0  0  0  0  0  0  0  0  0  0  0  0
   38.2480   23.9480   37.1030 N   0  0  0  0  0  0  0  0  0  0  0  0
   37.3950   25.7920   36.8960 H   0  0  0  0  0  0  0  0  0  0  0  0
   40.8360   24.8230   34.4460 H   0  0  0  0  0  0  0  0  0  0  0  0
   39.2060   22.0970   37.2230 H   0  0  0  0  0  0  0  0  0  0  0  0
   37.1070   28.6780   32.2570 N   0  0  0  0  0  0  0  0  0  0  0  0
   36.4960   29.2770   32.8130 H   0  0  0  0  0  0  0  0  0  0  0  0
   36.9670   28.9090   30.5650 S   0  0  0  0  0  0  0  0  0  0  0  0
   38.2290   29.3250   29.9190 O   0  0  0  0  0  1  0  0  0  0  0  0
   35.9900   30.0600   30.3660 O   0  0  0  0  0  1  0  0  0  0  0  0
   36.3510   27.5830   29.7560 O   0  0  0  0  0  0  0  0  0  0  0  0
   36.8670   27.3550   28.9370 H   0  0  0  0  0  0  0  0  0  0  0  0
  1  6  1  0  0  0  0
  1 18  1  0  0  0  0
  1  7  1  1  0  0  0
  2  1  1  0  0  0  0
  3  4  1  0  0  0  0
  3  2  1  0  0  0  0
  4 12  1  6  0  0  0
  4  5  1  0  0  0  0
  5 14  1  0  0  0  0
  5 13  1  0  0  0  0
  5  6  1  0  0  0  0
  6 16  1  0  0  0  0
  8  2  1  0  0  0  0
  9  2  1  0  0  0  0
 10  3  1  0  0  0  0
 11  3  1  0  0  0  0
 15  6  1  0  0  0  0
 17 23  1  0  0  0  0
 17 22  1  0  0  0  0
 18 17  2  0  0  0  0
 19 18  1  0  0  0  0
 19 20  2  0  0  0  0
 20 21  1  0  0  0  0
 21 22  2  0  0  0  0
 21 25  1  0  0  0  0
 24 19  1  0  0  0  0
 26  4  1  0  0  0  0
 26 27  1  0  0  0  0
 28 26  1  0  0  0  0
 29 28  1  0  0  0  0
 30 28  1  0  0  0  0
 31 28  1  0  0  0  0
 32 31  1  0  0  0  0
M  END
>  <minimizedAffinity>
-4.57411051

$$$$

 OpenBabel03272506523D

 32 33  0  0  1  0  0  0  0  0999 V2000
   38.7150   26.2480   35.2210 C   0  0  1  0  0  0  0  0  0  0  0  0
   39.6680   26.9550   34.3760 C   0  0  0  0  0  0  0  0  0  0  0  0
   39.4770   26.8520   32.8870 C   0  0  0  0  0  0  0  0  0  0  0  0
   38.0660   26.8450   32.4280 C   0  0  1  0  0  0  0  0  0  0  0  0
   37.0830   26.1120   33.2730 C   0  0  0  0  0  0  0  0  0  0  0  0
   37.2970   26.3780   34.7290 C   0  0  0  0  0  0  0  0  0  0  0  0
   38.6770   26.7710   36.2310 H   0  0  0  0  0  0  0  0  0  0  0  0
   40.7250   26.8210   34.5830 H   0  0  0  0  0  0  0  0  0  0  0  0
   39.5040   28.0670   34.5730 H   0  0  0  0  0  0  0  0  0  0  0  0
   40.0340   27.6620   32.4210 H   0  0  0  0  0  0  0  0  0  0  0  0
   39.9550   25.8960   32.5690 H   0  0  0  0  0  0  0  0  0  0  0  0
   38.0380   26.3430   31.4250 H   0  0  0  0  0  0  0  0  0  0  0  0
   37.2000   25.0390   33.0730 H   0  0  0  0  0  0  0  0  0  0  0  0
   36.0780   26.4450   33.0160 H   0  0  0  0  0  0  0  0  0  0  0  0
   37.1310   27.5060   34.7960 H   0  0  0  0  0  0  0  0  0  0  0  0
   36.5250   25.9970   35.3840 H   0  0  0  0  0  0  0  0  0  0  0  0
   40.3240   24.3010   35.2920 C   0  0  0  0  0  0  0  0  0  0  0  0
   39.0640   24.8590   35.6000 C   0  0  0  0  0  0  0  0  0  0  0  0
   38.1720   24.0520   36.2780 C   0  0  0  0  0  0  0  0  0  0  0  0
   38.5450   22.7730   36.6150 N   0  0  0  0  0  0  0  0  0  0  0  0
   39.7580   22.2860   36.2990 C   0  0  0  0  0  0  0  0  0  0  0  0
   40.6370   23.0570   35.6400 N   0  0  0  0  0  0  0  0  0  0  0  0
   41.0930   24.8450   34.7660 H   0  0  0  0  0  0  0  0  0  0  0  0
   37.1810   24.3670   36.5680 H   0  0  0  0  0  0  0  0  0  0  0  0
   40.0530   21.2770   36.5640 H   0  0  0  0  0  0  0  0  0  0  0  0
   37.5640   28.1700   32.2180 N   0  0  0  0  0  0  0  0  0  0  0  0
   36.7490   28.4510   32.7620 H   0  0  0  0  0  0  0  0  0  0  0  0
   37.5160   28.6580   30.5760 S   0  0  0  0  0  0  0  0  0  0  0  0
   38.8450   28.7000   29.9320 O   0  0  0  0  0  1  0  0  0  0  0  0
   36.9960   30.0890   30.5670 O   0  0  0  0  0  1  0  0  0  0  0  0
   36.4830   27.7430   29.6350 O   0  0  0  0  0  0  0  0  0  0  0  0
   36.8910   27.4630   28.7710 H   0  0  0  0  0  0  0  0  0  0  0  0
  1 18  1  0  0  0  0
  1  7  1  1  0  0  0
  2  9  1  0  0  0  0
  2  8  1  0  0  0  0
  2  1  1  0  0  0  0
  3  2  1  0  0  0  0
  4 12  1  6  0  0  0
  4  3  1  0  0  0  0
  4  5  1  0  0  0  0
  5  6  1  0  0  0  0
  6 15  1  0  0  0  0
  6  1  1  0  0  0  0
  6 16  1  0  0  0  0
 10  3  1  0  0  0  0
 11  3  1  0  0  0  0
 13  5  1  0  0  0  0
 14  5  1  0  0  0  0
 17 18  2  0  0  0  0
 17 22  1  0  0  0  0
 18 19  1  0  0  0  0
 19 24  1  0  0  0  0
 19 20  2  0  0  0  0
 21 25  1  0  0  0  0
 21 20  1  0  0  0  0
 22 21  2  0  0  0  0
 23 17  1  0  0  0  0
 26  4  1  0  0  0  0
 26 27  1  0  0  0  0
 28 26  1  0  0  0  0
 29 28  1  0  0  0  0
 30 28  1  0  0  0  0
 31 28  1  0  0  0  0
 32 31  1  0  0  0  0
M  END
>  <minimizedAffinity>
-4.39844847

$$$$

 OpenBabel03272506523D

 32 33  0  0  1  0  0  0  0  0999 V2000
   38.7640   25.9070   34.6920 C   0  0  1  0  0  0  0  0  0  0  0  0
   38.4710   25.5480   33.3100 C   0  0  0  0  0  0  0  0  0  0  0  0
   37.1350   25.9670   32.7580 C   0  0  0  0  0  0  0  0  0  0  0  0
   36.6490   27.2920   33.2130 C   0  0  1  0  0  0  0  0  0  0  0  0
   36.9260   27.6670   34.6270 C   0  0  0  0  0  0  0  0  0  0  0  0
   38.3200   27.3060   35.0330 C   0  0  0  0  0  0  0  0  0  0  0  0
   39.8950   25.9680   34.8120 H   0  0  0  0  0  0  0  0  0  0  0  0
   38.6470   24.5210   33.0070 H   0  0  0  0  0  0  0  0  0  0  0  0
   39.2050   26.1380   32.6670 H   0  0  0  0  0  0  0  0  0  0  0  0
   37.1940   25.9250   31.6730 H   0  0  0  0  0  0  0  0  0  0  0  0
   36.4000   25.1920   33.0810 H   0  0  0  0  0  0  0  0  0  0  0  0
   35.5320   27.2960   33.1110 H   0  0  0  0  0  0  0  0  0  0  0  0
   36.2080   27.1350   35.2640 H   0  0  0  0  0  0  0  0  0  0  0  0
   36.8140   28.7450   34.7360 H   0  0  0  0  0  0  0  0  0  0  0  0
   38.9500   27.9310   34.3140 H   0  0  0  0  0  0  0  0  0  0  0  0
   38.6310   27.6870   35.9970 H   0  0  0  0  0  0  0  0  0  0  0  0
   38.2350   25.2880   37.0840 C   0  0  0  0  0  0  0  0  0  0  0  0
   38.3900   24.9190   35.7300 C   0  0  0  0  0  0  0  0  0  0  0  0
   38.1700   23.5930   35.4150 C   0  0  0  0  0  0  0  0  0  0  0  0
   37.8180   22.7140   36.4110 N   0  0  0  0  0  0  0  0  0  0  0  0
   37.6820   23.1140   37.6880 C   0  0  0  0  0  0  0  0  0  0  0  0
   37.8930   24.4000   38.0120 N   0  0  0  0  0  0  0  0  0  0  0  0
   38.3830   26.2970   37.4370 H   0  0  0  0  0  0  0  0  0  0  0  0
   38.2590   23.1930   34.4150 H   0  0  0  0  0  0  0  0  0  0  0  0
   37.4040   22.4230   38.4750 H   0  0  0  0  0  0  0  0  0  0  0  0
   37.1230   28.3530   32.3760 N   0  0  0  0  0  0  0  0  0  0  0  0
   38.0110   28.7860   32.6300 H   0  0  0  0  0  0  0  0  0  0  0  0
   35.9140   29.4650   31.8860 S   0  0  0  0  0  0  0  0  0  0  0  0
   36.0080   30.7750   32.5630 O   0  0  0  0  0  1  0  0  0  0  0  0
   34.5810   28.8640   32.3060 O   0  0  0  0  0  1  0  0  0  0  0  0
   35.8570   29.7070   30.2340 O   0  0  0  0  0  0  0  0  0  0  0  0
   35.7990   30.6690   29.9850 H   0  0  0  0  0  0  0  0  0  0  0  0
  1  7  1  1  0  0  0
  1  6  1  0  0  0  0
  1 18  1  0  0  0  0
  2  1  1  0  0  0  0
  3 11  1  0  0  0  0
  3  4  1  0  0  0  0
  3  2  1  0  0  0  0
  4 12  1  6  0  0  0
  4  5  1  0  0  0  0
  5 14  1  0  0  0  0
  5  6  1  0  0  0  0
  5 13  1  0  0  0  0
  6 16  1  0  0  0  0
  8  2  1  0  0  0  0
  9  2  1  0  0  0  0
 10  3  1  0  0  0  0
 15  6  1  0  0  0  0
 17 23  1  0  0  0  0
 17 22  1  0  0  0  0
 18 17  2  0  0  0  0
 19 18  1  0  0  0  0
 19 20  2  0  0  0  0
 20 21  1  0  0  0  0
 21 22  2  0  0  0  0
 21 25  1  0  0  0  0
 24 19  1  0  0  0  0
 26 27  1  0  0  0  0
 26  4  1  0  0  0  0
 28 30  1  0  0  0  0
 28 26  1  0  0  0  0
 28 29  1  0  0  0  0
 31 28  1  0  0  0  0
 32 31  1  0  0  0  0
M  END
>  <minimizedAffinity>
-4.33919239

$$$$

 OpenBabel03272506523D

 32 33  0  0  1  0  0  0  0  0999 V2000
   39.6770   27.0860   34.3260 C   0  0  1  0  0  0  0  0  0  0  0  0
   38.3600   27.3000   34.9150 C   0  0  0  0  0  0  0  0  0  0  0  0
   37.4920   26.0880   35.1190 C   0  0  0  0  0  0  0  0  0  0  0  0
   38.2090   24.8580   35.5350 C   0  0  1  0  0  0  0  0  0  0  0  0
   39.5480   24.6170   34.9290 C   0  0  0  0  0  0  0  0  0  0  0  0
   40.3670   25.8680   34.8810 C   0  0  0  0  0  0  0  0  0  0  0  0
   40.3580   27.9340   34.6620 H   0  0  0  0  0  0  0  0  0  0  0  0
   37.7390   28.0840   34.4930 H   0  0  0  0  0  0  0  0  0  0  0  0
   38.5440   27.6590   35.9810 H   0  0  0  0  0  0  0  0  0  0  0  0
   36.7170   26.3480   35.8360 H   0  0  0  0  0  0  0  0  0  0  0  0
   36.9880   25.8890   34.1430 H   0  0  0  0  0  0  0  0  0  0  0  0
   37.5780   23.9800   35.2350 H   0  0  0  0  0  0  0  0  0  0  0  0
   39.3960   24.2370   33.9110 H   0  0  0  0  0  0  0  0  0  0  0  0
   40.0850   23.8890   35.5360 H   0  0  0  0  0  0  0  0  0  0  0  0
   40.4610   26.1380   35.9860 H   0  0  0  0  0  0  0  0  0  0  0  0
   41.4010   25.7300   34.5930 H   0  0  0  0  0  0  0  0  0  0  0  0
   38.6280   27.4020   32.0490 C   0  0  0  0  0  0  0  0  0  0  0  0
   39.7680   27.1740   32.8500 C   0  0  0  0  0  0  0  0  0  0  0  0
   40.9770   27.0440   32.1960 C   0  0  0  0  0  0  0  0  0  0  0  0
   41.0130   27.1410   30.8250 N   0  0  0  0  0  0  0  0  0  0  0  0
   39.8980   27.3590   30.1040 C   0  0  0  0  0  0  0  0  0  0  0  0
   38.7160   27.4880   30.7250 N   0  0  0  0  0  0  0  0  0  0  0  0
   37.6370   27.5190   32.4600 H   0  0  0  0  0  0  0  0  0  0  0  0
   41.9150   26.8680   32.7010 H   0  0  0  0  0  0  0  0  0  0  0  0
   39.9250   27.4360   29.0240 H   0  0  0  0  0  0  0  0  0  0  0  0
   38.3480   24.7730   36.9570 N   0  0  0  0  0  0  0  0  0  0  0  0
   39.0270   25.3930   37.3970 H   0  0  0  0  0  0  0  0  0  0  0  0
   38.3510   23.1750   37.5770 S   0  0  0  0  0  0  0  0  0  0  0  0
   37.5300   23.0110   38.7940 O   0  0  0  0  0  1  0  0  0  0  0  0
   39.7850   22.8760   37.9890 O   0  0  0  0  0  1  0  0  0  0  0  0
   37.9010   22.0210   36.4550 O   0  0  0  0  0  0  0  0  0  0  0  0
   37.2400   21.3690   36.8140 H   0  0  0  0  0  0  0  0  0  0  0  0
  1  7  1  1  0  0  0
  1  6  1  0  0  0  0
  1  2  1  0  0  0  0
  2  3  1  0  0  0  0
  2  9  1  0  0  0  0
  3  4  1  0  0  0  0
  3 10  1  0  0  0  0
  4 12  1  6  0  0  0
  4 26  1  0  0  0  0
  5  4  1  0  0  0  0
  5 14  1  0  0  0  0
  6  5  1  0  0  0  0
  6 15  1  0  0  0  0
  8  2  1  0  0  0  0
 11  3  1  0  0  0  0
 13  5  1  0  0  0  0
 16  6  1  0  0  0  0
 17 23  1  0  0  0  0
 17 18  1  0  0  0  0
 18  1  1  0  0  0  0
 19 24  1  0  0  0  0
 19 18  2  0  0  0  0
 20 19  1  0  0  0  0
 21 22  1  0  0  0  0
 21 20  2  0  0  0  0
 22 17  2  0  0  0  0
 25 21  1  0  0  0  0
 26 27  1  0  0  0  0
 26 28  1  0  0  0  0
 28 30  1  0  0  0  0
 28 29  1  0  0  0  0
 31 32  1  0  0  0  0
 31 28  1  0  0  0  0
M  END
>  <minimizedAffinity>
-4.33242893

$$$$

 OpenBabel03272506523D

 32 33  0  0  1  0  0  0  0  0999 V2000
   39.2830   24.5530   34.5450 C   0  0  1  0  0  0  0  0  0  0  0  0
   38.1150   24.5200   33.6740 C   0  0  0  0  0  0  0  0  0  0  0  0
   37.3060   25.7840   33.5580 C   0  0  0  0  0  0  0  0  0  0  0  0
   38.0930   27.0420   33.5600 C   0  0  1  0  0  0  0  0  0  0  0  0
   39.2800   27.0960   34.4570 C   0  0  0  0  0  0  0  0  0  0  0  0
   40.0720   25.8290   34.4060 C   0  0  0  0  0  0  0  0  0  0  0  0
   40.0190   23.7630   34.1830 H   0  0  0  0  0  0  0  0  0  0  0  0
   37.4210   23.6930   33.7900 H   0  0  0  0  0  0  0  0  0  0  0  0
   38.5120   24.3790   32.6150 H   0  0  0  0  0  0  0  0  0  0  0  0
   36.6940   25.7090   32.6620 H   0  0  0  0  0  0  0  0  0  0  0  0
   36.6140   25.8010   34.4330 H   0  0  0  0  0  0  0  0  0  0  0  0
   37.4140   27.8650   33.9040 H   0  0  0  0  0  0  0  0  0  0  0  0
   38.9230   27.2660   35.4810 H   0  0  0  0  0  0  0  0  0  0  0  0
   39.9290   27.9100   34.1360 H   0  0  0  0  0  0  0  0  0  0  0  0
   40.3900   25.7860   33.3110 H   0  0  0  0  0  0  0  0  0  0  0  0
   41.0250   25.8610   34.9180 H   0  0  0  0  0  0  0  0  0  0  0  0
   39.8840   23.1950   36.5900 C   0  0  0  0  0  0  0  0  0  0  0  0
   39.0710   24.1610   35.9580 C   0  0  0  0  0  0  0  0  0  0  0  0
   38.0720   24.7320   36.7200 C   0  0  0  0  0  0  0  0  0  0  0  0
   37.9180   24.3420   38.0290 N   0  0  0  0  0  0  0  0  0  0  0  0
   38.7190   23.4160   38.5870 C   0  0  0  0  0  0  0  0  0  0  0  0
   39.6950   22.8510   37.8600 N   0  0  0  0  0  0  0  0  0  0  0  0
   40.6920   22.6890   36.0840 H   0  0  0  0  0  0  0  0  0  0  0  0
   37.3880   25.4810   36.3480 H   0  0  0  0  0  0  0  0  0  0  0  0
   38.6000   23.1070   39.6180 H   0  0  0  0  0  0  0  0  0  0  0  0
   38.5190   27.4090   32.2430 N   0  0  0  0  0  0  0  0  0  0  0  0
   39.4810   27.7300   32.1370 H   0  0  0  0  0  0  0  0  0  0  0  0
   37.3720   28.3220   31.3550 S   0  0  0  0  0  0  0  0  0  0  0  0
   36.4730   29.1280   32.2050 O   0  0  0  0  0  1  0  0  0  0  0  0
   36.4860   27.3150   30.6350 O   0  0  0  0  0  1  0  0  0  0  0  0
   38.0570   29.3090   30.1930 O   0  0  0  0  0  0  0  0  0  0  0  0
   37.6840   30.2320   30.2010 H   0  0  0  0  0  0  0  0  0  0  0  0
  1  7  1  6  0  0  0
  1 18  1  0  0  0  0
  2  8  1  0  0  0  0
  2  1  1  0  0  0  0
  3  4  1  0  0  0  0
  3  2  1  0  0  0  0
  3 11  1  0  0  0  0
  4 12  1  1  0  0  0
  4  5  1  0  0  0  0
  5 13  1  0  0  0  0
  6  5  1  0  0  0  0
  6  1  1  0  0  0  0
  6 16  1  0  0  0  0
  9  2  1  0  0  0  0
 10  3  1  0  0  0  0
 14  5  1  0  0  0  0
 15  6  1  0  0  0  0
 17 22  1  0  0  0  0
 18 17  2  0  0  0  0
 18 19  1  0  0  0  0
 19 20  2  0  0  0  0
 20 21  1  0  0  0  0
 21 25  1  0  0  0  0
 22 21  2  0  0  0  0
 23 17  1  0  0  0  0
 24 19  1  0  0  0  0
 26  4  1  0  0  0  0
 27 26  1  0  0  0  0
 28 29  1  0  0  0  0
 28 26  1  0  0  0  0
 30 28  1  0  0  0  0
 31 32  1  0  0  0  0
 31 28  1  0  0  0  0
M  END
>  <minimizedAffinity>
-4.30219173

$$$$

 OpenBabel03272506523D

 32 33  0  0  1  0  0  0  0  0999 V2000
   37.0660   27.0340   33.5950 C   0  0  1  0  0  0  0  0  0  0  0  0
   38.1800   26.6660   32.7310 C   0  0  0  0  0  0  0  0  0  0  0  0
   39.5630   27.0380   33.1940 C   0  0  0  0  0  0  0  0  0  0  0  0
   39.7940   26.9210   34.6550 C   0  0  1  0  0  0  0  0  0  0  0  0
   38.6710   27.3080   35.5510 C   0  0  0  0  0  0  0  0  0  0  0  0
   37.3600   26.7890   35.0530 C   0  0  0  0  0  0  0  0  0  0  0  0
   36.2050   26.3170   33.3910 H   0  0  0  0  0  0  0  0  0  0  0  0
   38.1060   26.9160   31.6770 H   0  0  0  0  0  0  0  0  0  0  0  0
   38.2150   25.5260   32.7250 H   0  0  0  0  0  0  0  0  0  0  0  0
   40.2760   26.4330   32.6370 H   0  0  0  0  0  0  0  0  0  0  0  0
   39.7240   28.1000   32.8960 H   0  0  0  0  0  0  0  0  0  0  0  0
   40.6430   27.6040   34.9180 H   0  0  0  0  0  0  0  0  0  0  0  0
   38.6390   28.4040   35.5990 H   0  0  0  0  0  0  0  0  0  0  0  0
   38.8450   26.8840   36.5400 H   0  0  0  0  0  0  0  0  0  0  0  0
   37.5240   25.6600   35.0700 H   0  0  0  0  0  0  0  0  0  0  0  0
   36.5290   26.9080   35.7360 H   0  0  0  0  0  0  0  0  0  0  0  0
   36.5290   28.9950   32.0950 C   0  0  0  0  0  0  0  0  0  0  0  0
   36.4410   28.3540   33.3510 C   0  0  0  0  0  0  0  0  0  0  0  0
   35.7380   29.0120   34.3400 C   0  0  0  0  0  0  0  0  0  0  0  0
   35.1690   30.2320   34.0640 N   0  0  0  0  0  0  0  0  0  0  0  0
   35.2810   30.8030   32.8500 C   0  0  0  0  0  0  0  0  0  0  0  0
   35.9600   30.1770   31.8770 N   0  0  0  0  0  0  0  0  0  0  0  0
   37.0530   28.5670   31.2550 H   0  0  0  0  0  0  0  0  0  0  0  0
   35.6030   28.6220   35.3390 H   0  0  0  0  0  0  0  0  0  0  0  0
   34.8330   31.7640   32.6300 H   0  0  0  0  0  0  0  0  0  0  0  0
   40.2200   25.6050   35.0260 N   0  0  0  0  0  0  0  0  0  0  0  0
   39.9020   25.2490   35.9270 H   0  0  0  0  0  0  0  0  0  0  0  0
   41.8640   25.2660   34.6770 S   0  0  0  0  0  0  0  0  0  0  0  0
   42.0680   24.6280   33.3600 O   0  0  0  0  0  1  0  0  0  0  0  0
   42.3240   24.2520   35.7150 O   0  0  0  0  0  1  0  0  0  0  0  0
   42.8630   26.5990   34.7990 O   0  0  0  0  0  0  0  0  0  0  0  0
   43.4860   26.6880   34.0280 H   0  0  0  0  0  0  0  0  0  0  0  0
  1  7  1  6  0  0  0
  1  6  1  0  0  0  0
  2  3  1  0  0  0  0
  2  1  1  0  0  0  0
  3  4  1  0  0  0  0
  4 12  1  1  0  0  0
  4 26  1  0  0  0  0
  4  5  1  0  0  0  0
  5 13  1  0  0  0  0
  5 14  1  0  0  0  0
  6 15  1  0  0  0  0
  6  5  1  0  0  0  0
  6 16  1  0  0  0  0
  8  2  1  0  0  0  0
  9  2  1  0  0  0  0
 10  3  1  0  0  0  0
 11  3  1  0  0  0  0
 17 18  1  0  0  0  0
 18  1  1  0  0  0  0
 18 19  2  0  0  0  0
 19 24  1  0  0  0  0
 20 19  1  0  0  0  0
 21 20  2  0  0  0  0
 22 17  2  0  0  0  0
 22 21  1  0  0  0  0
 23 17  1  0  0  0  0
 25 21  1  0  0  0  0
 26 27  1  0  0  0  0
 28 31  1  0  0  0  0
 28 26  1  0  0  0  0
 28 30  1  0  0  0  0
 29 28  1  0  0  0  0
 32 31  1  0  0  0  0
M  END
>  <minimizedAffinity>
-4.2635293

$$$$
