
 OpenBabel03272510323D

 26 27  0  0  0  0  0  0  0  0999 V2000
   35.9070   30.1420   47.2220 C   0  0  0  0  0  0  0  0  0  0  0  0
   34.8930   30.2210   46.3200 C   0  0  0  0  0  0  0  0  0  0  0  0
   33.6950   29.5670   46.4730 C   0  0  0  0  0  0  0  0  0  0  0  0
   33.5370   28.8020   47.6000 C   0  0  0  0  0  0  0  0  0  0  0  0
   34.5360   28.6930   48.5380 C   0  0  0  0  0  0  0  0  0  0  0  0
   35.7320   29.3650   48.3540 C   0  0  0  0  0  0  0  0  0  0  0  0
   35.0090   30.8280   45.4180 H   0  0  0  0  0  0  0  0  0  0  0  0
   32.9140   29.6670   45.7160 H   0  0  0  0  0  0  0  0  0  0  0  0
   32.5750   28.2970   47.6900 H   0  0  0  0  0  0  0  0  0  0  0  0
   34.2980   28.0640   49.3830 H   0  0  0  0  0  0  0  0  0  0  0  0
   38.6820   32.4330   47.7360 C   0  0  0  0  0  0  0  0  0  0  0  0
   39.4250   32.3560   46.5610 C   0  0  0  0  0  0  0  0  0  0  0  0
   38.9470   31.4850   45.5700 C   0  0  0  0  0  0  0  0  0  0  0  0
   37.8050   30.7670   45.7860 N   0  0  0  0  0  0  0  0  0  0  0  0
   37.1230   30.8860   46.9560 C   0  0  0  0  0  0  0  0  0  0  0  0
   37.5640   31.7230   47.9360 N   0  0  0  0  0  0  0  0  0  0  0  0
   39.0610   33.1070   48.4900 H   0  0  0  0  0  0  0  0  0  0  0  0
   40.3270   32.9040   46.3530 H   0  0  0  0  0  0  0  0  0  0  0  0
   39.4590   31.3570   44.6190 H   0  0  0  0  0  0  0  0  0  0  0  0
   36.7430   29.2430   49.3150 N   0  0  0  0  0  0  0  0  0  0  0  0
   37.6820   28.8450   49.0090 H   0  0  0  0  0  0  0  0  0  0  0  0
   36.8470   29.5950   50.9690 S   0  0  0  0  0  0  0  0  0  0  0  0
   35.6310   29.2680   51.7750 O   0  0  0  0  0  1  0  0  0  0  0  0
   37.2860   31.0100   51.1490 O   0  0  0  0  0  1  0  0  0  0  0  0
   38.0840   28.6110   51.6020 O   0  0  0  0  0  0  0  0  0  0  0  0
   38.0530   27.7080   51.1570 H   0  0  0  0  0  0  0  0  0  0  0  0
  1  6  1  0  0  0  0
  2  3  1  0  0  0  0
  2  1  2  0  0  0  0
  3  4  2  0  0  0  0
  4  9  1  0  0  0  0
  4  5  1  0  0  0  0
  5 10  1  0  0  0  0
  6  5  2  0  0  0  0
  6 20  1  0  0  0  0
  7  2  1  0  0  0  0
  8  3  1  0  0  0  0
 11 16  1  0  0  0  0
 11 17  1  0  0  0  0
 12 11  2  0  0  0  0
 13 14  2  0  0  0  0
 13 12  1  0  0  0  0
 14 15  1  0  0  0  0
 15  1  1  0  0  0  0
 15 16  2  0  0  0  0
 18 12  1  0  0  0  0
 19 13  1  0  0  0  0
 20 22  1  0  0  0  0
 21 20  1  0  0  0  0
 22 24  1  0  0  0  0
 22 25  1  0  0  0  0
 22 23  1  0  0  0  0
 26 25  1  0  0  0  0
M  END
>  <minimizedAffinity>
-4.81347179

>  <minimizedRMSD>
1.72633493

$$$$
