
 OpenBabel03272503063D

 30 31  0  0  0  0  0  0  0  0999 V2000
   38.5090   30.4330   47.2970 F   0  0  0  0  0  0  0  0  0  0  0  0
   38.7770   31.6670   47.7910 C   0  0  0  0  0  0  0  0  0  0  0  0
   38.2080   32.0860   48.9670 C   0  0  0  0  0  0  0  0  0  0  0  0
   38.5230   33.3390   49.4020 C   0  0  0  0  0  0  0  0  0  0  0  0
   39.3730   34.1760   48.7130 C   0  0  0  0  0  0  0  0  0  0  0  0
   39.9350   33.7400   47.5340 C   0  0  0  0  0  0  0  0  0  0  0  0
   39.6380   32.4750   47.0620 C   0  0  0  0  0  0  0  0  0  0  0  0
   38.0790   33.6740   50.3270 H   0  0  0  0  0  0  0  0  0  0  0  0
   39.6300   35.1720   49.0480 H   0  0  0  0  0  0  0  0  0  0  0  0
   40.6230   34.3100   46.8980 H   0  0  0  0  0  0  0  0  0  0  0  0
   36.7950   29.5790   51.4230 C   0  0  0  0  0  0  0  0  0  0  0  0
   37.6810   30.4600   50.7920 C   0  0  0  0  0  0  0  0  0  0  0  0
   37.3160   31.1590   49.6540 C   0  0  0  0  0  0  0  0  0  0  0  0
   36.0430   30.9330   49.1940 N   0  0  0  0  0  0  0  0  0  0  0  0
   35.2050   30.0850   49.8100 C   0  0  0  0  0  0  0  0  0  0  0  0
   35.5730   29.4160   50.9090 N   0  0  0  0  0  0  0  0  0  0  0  0
   37.1500   29.0810   52.2900 H   0  0  0  0  0  0  0  0  0  0  0  0
   38.6880   30.6160   51.1860 H   0  0  0  0  0  0  0  0  0  0  0  0
   34.1940   29.9180   49.4260 H   0  0  0  0  0  0  0  0  0  0  0  0
   39.3990   32.2450   44.6890 C   0  0  0  0  0  0  0  0  0  0  0  0
   38.2930   32.8220   44.9270 O   0  0  0  0  0  0  0  0  0  0  0  0
   40.2000   31.9780   45.8390 N   0  0  0  0  0  0  0  0  0  0  0  0
   41.0870   31.4610   45.6710 H   0  0  0  0  0  0  0  0  0  0  0  0
   39.7850   31.9040   43.3620 N   0  0  0  0  0  0  0  0  0  0  0  0
   40.6680   32.3140   42.9680 H   0  0  0  0  0  0  0  0  0  0  0  0
   38.8630   30.8390   42.3620 S   0  0  0  0  0  0  0  0  0  0  0  0
   39.6830   29.6590   42.0070 O   0  0  0  0  0  1  0  0  0  0  0  0
   38.4530   31.5390   41.0840 O   0  0  0  0  0  1  0  0  0  0  0  0
   37.4370   30.4340   43.1630 O   0  0  0  0  0  0  0  0  0  0  0  0
   37.1340   29.5160   42.9380 H   0  0  0  0  0  0  0  0  0  0  0  0
  1  2  1  0  0  0  0
  2  3  1  0  0  0  0
  3  4  2  0  0  0  0
  3 13  1  0  0  0  0
  4  8  1  0  0  0  0
  5  9  1  0  0  0  0
  5  4  1  0  0  0  0
  6  5  2  0  0  0  0
  7  6  1  0  0  0  0
  7  2  2  0  0  0  0
 10  6  1  0  0  0  0
 11 17  1  0  0  0  0
 12 18  1  0  0  0  0
 12 11  2  0  0  0  0
 13 12  1  0  0  0  0
 14 13  2  0  0  0  0
 14 15  1  0  0  0  0
 15 16  2  0  0  0  0
 16 11  1  0  0  0  0
 19 15  1  0  0  0  0
 20 21  2  0  0  0  0
 20 22  1  0  0  0  0
 22  7  1  0  0  0  0
 23 22  1  0  0  0  0
 24 20  1  0  0  0  0
 25 24  1  0  0  0  0
 26 29  1  0  0  0  0
 26 24  1  0  0  0  0
 27 26  1  0  0  0  0
 28 26  1  0  0  0  0
 30 29  1  0  0  0  0
M  END
>  <minimizedAffinity>
-6.14699125

>  <minimizedRMSD>
0.214355797

$$$$
