
 OpenBabel03272502053D

 37 39  0  0  0  0  0  0  0  0999 V2000
   34.3180   30.0290   48.5570 F   0  0  0  0  0  0  0  0  0  0  0  0
   34.6130   29.7570   47.2440 C   0  0  0  0  0  0  0  0  0  0  0  0
   33.7470   29.0520   46.4270 C   0  0  0  0  0  0  0  0  0  0  0  0
   34.1020   28.8340   45.1130 C   0  0  0  0  0  0  0  0  0  0  0  0
   35.3170   29.3150   44.6130 C   0  0  0  0  0  0  0  0  0  0  0  0
   36.1330   30.0100   45.4860 C   0  0  0  0  0  0  0  0  0  0  0  0
   35.8270   30.2460   46.7730 C   0  0  0  0  0  0  0  0  0  0  0  0
   33.3840   28.2700   44.5050 H   0  0  0  0  0  0  0  0  0  0  0  0
   35.5470   29.1180   43.5790 H   0  0  0  0  0  0  0  0  0  0  0  0
   37.0500   30.3450   45.0160 H   0  0  0  0  0  0  0  0  0  0  0  0
   37.9320   32.1260   45.4180 Br  0  0  0  0  0  0  0  0  0  0  0  0
   37.7190   31.8660   47.2930 C   0  0  0  0  0  0  0  0  0  0  0  0
   36.7430   30.9670   47.6320 C   0  0  0  0  0  0  0  0  0  0  0  0
   36.5560   30.6910   48.9960 C   0  0  0  0  0  0  0  0  0  0  0  0
   37.3210   31.2990   49.9470 C   0  0  0  0  0  0  0  0  0  0  0  0
   38.2820   32.1930   49.5320 C   0  0  0  0  0  0  0  0  0  0  0  0
   38.4960   32.4910   48.1790 C   0  0  0  0  0  0  0  0  0  0  0  0
   35.8130   29.9980   49.3650 H   0  0  0  0  0  0  0  0  0  0  0  0
   37.1920   31.0980   51.0020 H   0  0  0  0  0  0  0  0  0  0  0  0
   38.9170   32.7040   50.2560 H   0  0  0  0  0  0  0  0  0  0  0  0
   39.4260   33.3680   47.6990 O   0  0  0  0  0  0  0  0  0  0  0  0
   39.7220   34.1490   48.2650 H   0  0  0  0  0  0  0  0  0  0  0  0
   32.6650   27.7860   48.1670 C   0  0  0  0  0  0  0  0  0  0  0  0
   32.5350   28.6130   47.0590 C   0  0  0  0  0  0  0  0  0  0  0  0
   31.2570   28.9610   46.6550 C   0  0  0  0  0  0  0  0  0  0  0  0
   30.1760   28.5000   47.3330 N   0  0  0  0  0  0  0  0  0  0  0  0
   30.3410   27.7060   48.3980 C   0  0  0  0  0  0  0  0  0  0  0  0
   31.5470   27.3510   48.8120 N   0  0  0  0  0  0  0  0  0  0  0  0
   33.6410   27.4830   48.5240 H   0  0  0  0  0  0  0  0  0  0  0  0
   31.1940   29.5960   45.8030 H   0  0  0  0  0  0  0  0  0  0  0  0
   29.1820   27.2440   49.0820 N   0  0  0  0  0  0  0  0  0  0  0  0
   29.0690   26.2500   49.3810 H   0  0  0  0  0  0  0  0  0  0  0  0
   27.8490   28.2640   49.4900 S   0  0  0  0  0  0  0  0  0  0  0  0
   27.6920   28.2980   50.9800 O   0  0  0  0  0  0  0  0  0  0  0  0
   28.0090   29.6560   49.0010 O   0  0  0  0  0  0  0  0  0  0  0  0
   26.4600   27.5390   48.8540 O   0  0  0  0  0  0  0  0  0  0  0  0
   26.6390   26.6160   48.5190 H   0  0  0  0  0  0  0  0  0  0  0  0
  2  1  1  0  0  0  0
  3 24  1  0  0  0  0
  3  2  2  0  0  0  0
  4  3  1  0  0  0  0
  5  4  2  0  0  0  0
  5  6  1  0  0  0  0
  6  7  2  0  0  0  0
  7  2  1  0  0  0  0
  7 13  1  0  0  0  0
  8  4  1  0  0  0  0
  9  5  1  0  0  0  0
 10  6  1  0  0  0  0
 11 12  1  0  0  0  0
 12 13  2  0  0  0  0
 12 17  1  0  0  0  0
 13 14  1  0  0  0  0
 14 18  1  0  0  0  0
 14 15  2  0  0  0  0
 15 19  1  0  0  0  0
 16 15  1  0  0  0  0
 16 20  1  0  0  0  0
 17 16  2  0  0  0  0
 21 17  1  0  0  0  0
 21 22  1  0  0  0  0
 23 29  1  0  0  0  0
 23 28  1  0  0  0  0
 24 23  2  0  0  0  0
 25 24  1  0  0  0  0
 25 26  2  0  0  0  0
 26 27  1  0  0  0  0
 27 28  2  0  0  0  0
 27 31  1  0  0  0  0
 30 25  1  0  0  0  0
 31 32  1  0  0  0  0
 31 33  1  0  0  0  0
 33 34  1  0  0  0  0
 35 33  1  0  0  0  0
 36 33  1  0  0  0  0
 37 36  1  0  0  0  0
M  END
>  <minimizedAffinity>
-7.178545

>  <minimizedRMSD>
1.4121182

$$$$
