
 OpenBabel03272510323D

 26 27  0  0  0  0  0  0  0  0999 V2000
   35.9080   30.1420   47.2210 C   0  0  0  0  0  0  0  0  0  0  0  0
   34.8930   30.2210   46.3200 C   0  0  0  0  0  0  0  0  0  0  0  0
   33.6950   29.5660   46.4730 C   0  0  0  0  0  0  0  0  0  0  0  0
   33.5380   28.8010   47.6000 C   0  0  0  0  0  0  0  0  0  0  0  0
   34.5370   28.6930   48.5380 C   0  0  0  0  0  0  0  0  0  0  0  0
   35.7330   29.3650   48.3530 C   0  0  0  0  0  0  0  0  0  0  0  0
   35.0090   30.8280   45.4180 H   0  0  0  0  0  0  0  0  0  0  0  0
   32.9140   29.6660   45.7160 H   0  0  0  0  0  0  0  0  0  0  0  0
   32.5760   28.2960   47.6900 H   0  0  0  0  0  0  0  0  0  0  0  0
   34.3000   28.0640   49.3820 H   0  0  0  0  0  0  0  0  0  0  0  0
   38.6820   32.4330   47.7360 C   0  0  0  0  0  0  0  0  0  0  0  0
   39.4250   32.3570   46.5610 C   0  0  0  0  0  0  0  0  0  0  0  0
   38.9470   31.4870   45.5690 C   0  0  0  0  0  0  0  0  0  0  0  0
   37.8050   30.7690   45.7850 N   0  0  0  0  0  0  0  0  0  0  0  0
   37.1240   30.8860   46.9560 C   0  0  0  0  0  0  0  0  0  0  0  0
   37.5640   31.7230   47.9360 N   0  0  0  0  0  0  0  0  0  0  0  0
   39.0620   33.1070   48.4900 H   0  0  0  0  0  0  0  0  0  0  0  0
   40.3270   32.9060   46.3520 H   0  0  0  0  0  0  0  0  0  0  0  0
   39.4580   31.3600   44.6170 H   0  0  0  0  0  0  0  0  0  0  0  0
   36.7450   29.2430   49.3140 N   0  0  0  0  0  0  0  0  0  0  0  0
   37.6830   28.8450   49.0090 H   0  0  0  0  0  0  0  0  0  0  0  0
   36.8480   29.5950   50.9690 S   0  0  0  0  0  0  0  0  0  0  0  0
   35.6310   29.2680   51.7740 O   0  0  0  0  0  1  0  0  0  0  0  0
   37.2870   31.0110   51.1480 O   0  0  0  0  0  1  0  0  0  0  0  0
   38.0830   28.6120   51.6020 O   0  0  0  0  0  0  0  0  0  0  0  0
   38.0530   27.7090   51.1580 H   0  0  0  0  0  0  0  0  0  0  0  0
  1  6  1  0  0  0  0
  2  3  1  0  0  0  0
  2  1  2  0  0  0  0
  3  4  2  0  0  0  0
  4  9  1  0  0  0  0
  4  5  1  0  0  0  0
  5 10  1  0  0  0  0
  6  5  2  0  0  0  0
  6 20  1  0  0  0  0
  7  2  1  0  0  0  0
  8  3  1  0  0  0  0
 11 16  1  0  0  0  0
 11 17  1  0  0  0  0
 12 11  2  0  0  0  0
 13 14  2  0  0  0  0
 13 12  1  0  0  0  0
 14 15  1  0  0  0  0
 15  1  1  0  0  0  0
 15 16  2  0  0  0  0
 18 12  1  0  0  0  0
 19 13  1  0  0  0  0
 20 22  1  0  0  0  0
 21 20  1  0  0  0  0
 22 24  1  0  0  0  0
 22 25  1  0  0  0  0
 22 23  1  0  0  0  0
 26 25  1  0  0  0  0
M  END
>  <minimizedAffinity>
-4.81357241

>  <minimizedRMSD>
1.66227174

$$$$
