
 OpenBabel03262523453D

 26 27  0  0  0  0  0  0  0  0999 V2000
   36.5610   24.7340   30.9010 Cl  0  0  0  0  0  0  0  0  0  0  0  0
   37.2420   24.5400   32.4860 C   0  0  0  0  0  0  0  0  0  0  0  0
   37.4420   23.2870   33.0070 C   0  0  0  0  0  0  0  0  0  0  0  0
   37.9920   23.2130   34.2790 C   0  0  0  0  0  0  0  0  0  0  0  0
   38.3300   24.3210   35.0050 C   0  0  0  0  0  0  0  0  0  0  0  0
   38.1170   25.5750   34.4510 C   0  0  0  0  0  0  0  0  0  0  0  0
   38.5520   26.9800   35.3830 Cl  0  0  0  0  0  0  0  0  0  0  0  0
   37.5790   25.6850   33.2040 C   0  0  0  0  0  0  0  0  0  0  0  0
   38.1350   22.2110   34.6590 H   0  0  0  0  0  0  0  0  0  0  0  0
   37.4280   26.6860   32.8080 H   0  0  0  0  0  0  0  0  0  0  0  0
   35.4400   20.4370   31.5380 C   0  0  0  0  0  0  0  0  0  0  0  0
   35.8020   21.5410   32.3200 C   0  0  0  0  0  0  0  0  0  0  0  0
   37.0640   22.1420   32.1960 C   0  0  0  0  0  0  0  0  0  0  0  0
   37.8930   21.5910   31.2880 N   0  0  0  0  0  0  0  0  0  0  0  0
   37.5480   20.5330   30.5380 C   0  0  0  0  0  0  0  0  0  0  0  0
   36.3460   19.9640   30.6570 N   0  0  0  0  0  0  0  0  0  0  0  0
   34.4490   20.0120   31.6740 H   0  0  0  0  0  0  0  0  0  0  0  0
   35.1450   21.9980   33.0570 H   0  0  0  0  0  0  0  0  0  0  0  0
   38.2420   20.1140   29.8130 H   0  0  0  0  0  0  0  0  0  0  0  0
   38.8920   24.2400   36.3050 N   0  0  0  0  0  0  0  0  0  0  0  0
   39.8460   24.6070   36.5060 H   0  0  0  0  0  0  0  0  0  0  0  0
   38.3100   23.6110   37.7960 S   0  0  0  0  0  0  0  0  0  0  0  0
   38.1300   24.6900   38.8280 O   0  0  0  0  0  1  0  0  0  0  0  0
   37.0860   22.7650   37.6530 O   0  0  0  0  0  1  0  0  0  0  0  0
   39.5100   22.5860   38.4270 O   0  0  0  0  0  0  0  0  0  0  0  0
   39.0890   22.1720   39.2270 H   0  0  0  0  0  0  0  0  0  0  0  0
  1  2  1  0  0  0  0
  2  3  2  0  0  0  0
  2  8  1  0  0  0  0
  3  4  1  0  0  0  0
  4  9  1  0  0  0  0
  4  5  2  0  0  0  0
  5 20  1  0  0  0  0
  6  5  1  0  0  0  0
  6  7  1  0  0  0  0
  8  6  2  0  0  0  0
 10  8  1  0  0  0  0
 11 17  1  0  0  0  0
 11 12  1  0  0  0  0
 12 18  1  0  0  0  0
 13 12  2  0  0  0  0
 13  3  1  0  0  0  0
 14 13  1  0  0  0  0
 15 16  1  0  0  0  0
 15 14  2  0  0  0  0
 16 11  2  0  0  0  0
 19 15  1  0  0  0  0
 20 21  1  0  0  0  0
 20 22  1  0  0  0  0
 22 25  1  0  0  0  0
 22 23  1  0  0  0  0
 24 22  1  0  0  0  0
 25 26  1  0  0  0  0
M  END
>  <minimizedAffinity>
-5.13545084

$$$$

 OpenBabel03262523453D

 26 27  0  0  0  0  0  0  0  0999 V2000
   34.4070   31.4680   32.4150 Cl  0  0  0  0  0  0  0  0  0  0  0  0
   35.3760   30.1080   32.8880 C   0  0  0  0  0  0  0  0  0  0  0  0
   35.4920   29.7660   34.2110 C   0  0  0  0  0  0  0  0  0  0  0  0
   36.2830   28.6650   34.5110 C   0  0  0  0  0  0  0  0  0  0  0  0
   36.9290   27.9360   33.5520 C   0  0  0  0  0  0  0  0  0  0  0  0
   36.7920   28.3050   32.2220 C   0  0  0  0  0  0  0  0  0  0  0  0
   37.6180   27.3690   31.0090 Cl  0  0  0  0  0  0  0  0  0  0  0  0
   36.0230   29.3810   31.8920 C   0  0  0  0  0  0  0  0  0  0  0  0
   36.3530   28.4230   35.5620 H   0  0  0  0  0  0  0  0  0  0  0  0
   35.9430   29.6370   30.8380 H   0  0  0  0  0  0  0  0  0  0  0  0
   34.7730   32.3150   36.9080 C   0  0  0  0  0  0  0  0  0  0  0  0
   35.4550   31.5370   35.9630 C   0  0  0  0  0  0  0  0  0  0  0  0
   34.7870   30.5750   35.1910 C   0  0  0  0  0  0  0  0  0  0  0  0
   33.4640   30.4510   35.4160 N   0  0  0  0  0  0  0  0  0  0  0  0
   32.8100   31.1960   36.3210 C   0  0  0  0  0  0  0  0  0  0  0  0
   33.4480   32.1120   37.0540 N   0  0  0  0  0  0  0  0  0  0  0  0
   35.3400   33.0470   37.4770 H   0  0  0  0  0  0  0  0  0  0  0  0
   36.5210   31.6250   35.7680 H   0  0  0  0  0  0  0  0  0  0  0  0
   31.7410   31.0710   36.4770 H   0  0  0  0  0  0  0  0  0  0  0  0
   37.7360   26.8110   33.8640 N   0  0  0  0  0  0  0  0  0  0  0  0
   37.5200   25.8670   33.4800 H   0  0  0  0  0  0  0  0  0  0  0  0
   39.1430   26.6110   34.8320 S   0  0  0  0  0  0  0  0  0  0  0  0
   39.2890   25.1970   35.3250 O   0  0  0  0  0  1  0  0  0  0  0  0
   40.3940   27.1070   34.1820 O   0  0  0  0  0  1  0  0  0  0  0  0
   38.9440   27.5530   36.2330 O   0  0  0  0  0  0  0  0  0  0  0  0
   39.8160   27.4860   36.7040 H   0  0  0  0  0  0  0  0  0  0  0  0
  1  2  1  0  0  0  0
  2  3  1  0  0  0  0
  3  4  2  0  0  0  0
  3 13  1  0  0  0  0
  4  9  1  0  0  0  0
  5 20  1  0  0  0  0
  5  4  1  0  0  0  0
  6  5  2  0  0  0  0
  7  6  1  0  0  0  0
  8  6  1  0  0  0  0
  8  2  2  0  0  0  0
 10  8  1  0  0  0  0
 11 16  1  0  0  0  0
 11 17  1  0  0  0  0
 12 11  2  0  0  0  0
 13 14  2  0  0  0  0
 13 12  1  0  0  0  0
 14 15  1  0  0  0  0
 15 19  1  0  0  0  0
 15 16  2  0  0  0  0
 18 12  1  0  0  0  0
 20 22  1  0  0  0  0
 21 20  1  0  0  0  0
 22 23  1  0  0  0  0
 22 25  1  0  0  0  0
 24 22  1  0  0  0  0
 25 26  1  0  0  0  0
M  END
>  <minimizedAffinity>
-4.95625401

$$$$

 OpenBabel03262523453D

 26 27  0  0  0  0  0  0  0  0999 V2000
   37.0400   26.6150   34.9790 Cl  0  0  0  0  0  0  0  0  0  0  0  0
   37.9340   25.2060   35.4530 C   0  0  0  0  0  0  0  0  0  0  0  0
   38.5300   24.4110   34.5080 C   0  0  0  0  0  0  0  0  0  0  0  0
   39.2290   23.3020   34.9640 C   0  0  0  0  0  0  0  0  0  0  0  0
   39.3360   22.9900   36.2910 C   0  0  0  0  0  0  0  0  0  0  0  0
   38.7230   23.8130   37.2250 C   0  0  0  0  0  0  0  0  0  0  0  0
   38.8670   23.4080   38.9120 Cl  0  0  0  0  0  0  0  0  0  0  0  0
   38.0290   24.9110   36.8110 C   0  0  0  0  0  0  0  0  0  0  0  0
   39.6860   22.6980   34.1930 H   0  0  0  0  0  0  0  0  0  0  0  0
   37.5630   25.5280   37.5750 H   0  0  0  0  0  0  0  0  0  0  0  0
   39.2230   25.9000   31.1020 C   0  0  0  0  0  0  0  0  0  0  0  0
   39.3650   25.5410   32.4490 C   0  0  0  0  0  0  0  0  0  0  0  0
   38.3850   24.7850   33.1110 C   0  0  0  0  0  0  0  0  0  0  0  0
   37.3140   24.4320   32.3730 N   0  0  0  0  0  0  0  0  0  0  0  0
   37.1760   24.7760   31.0830 C   0  0  0  0  0  0  0  0  0  0  0  0
   38.1100   25.4950   30.4560 N   0  0  0  0  0  0  0  0  0  0  0  0
   40.0130   26.4850   30.6400 H   0  0  0  0  0  0  0  0  0  0  0  0
   40.2230   25.8160   33.0580 H   0  0  0  0  0  0  0  0  0  0  0  0
   36.2980   24.4740   30.5170 H   0  0  0  0  0  0  0  0  0  0  0  0
   40.0520   21.8560   36.7530 N   0  0  0  0  0  0  0  0  0  0  0  0
   39.5570   21.0130   37.1120 H   0  0  0  0  0  0  0  0  0  0  0  0
   41.7300   21.4990   36.8730 S   0  0  0  0  0  0  0  0  0  0  0  0
   42.2080   20.6530   35.7250 O   0  0  0  0  0  1  0  0  0  0  0  0
   42.5880   22.7070   37.0710 O   0  0  0  0  0  1  0  0  0  0  0  0
   41.9560   20.5400   38.2580 O   0  0  0  0  0  0  0  0  0  0  0  0
   42.9420   20.4480   38.3410 H   0  0  0  0  0  0  0  0  0  0  0  0
  1  2  1  0  0  0  0
  2  8  1  0  0  0  0
  3  4  1  0  0  0  0
  3  2  2  0  0  0  0
  4  5  2  0  0  0  0
  5 20  1  0  0  0  0
  5  6  1  0  0  0  0
  6  7  1  0  0  0  0
  8  6  2  0  0  0  0
  8 10  1  0  0  0  0
  9  4  1  0  0  0  0
 11 12  1  0  0  0  0
 12 18  1  0  0  0  0
 12 13  2  0  0  0  0
 13  3  1  0  0  0  0
 14 13  1  0  0  0  0
 15 14  2  0  0  0  0
 16 15  1  0  0  0  0
 16 11  2  0  0  0  0
 17 11  1  0  0  0  0
 19 15  1  0  0  0  0
 20 22  1  0  0  0  0
 20 21  1  0  0  0  0
 22 24  1  0  0  0  0
 22 25  1  0  0  0  0
 23 22  1  0  0  0  0
 25 26  1  0  0  0  0
M  END
>  <minimizedAffinity>
-4.80377483

$$$$

 OpenBabel03262523453D

 26 27  0  0  0  0  0  0  0  0999 V2000
   40.0370   27.2770   31.8390 Cl  0  0  0  0  0  0  0  0  0  0  0  0
   39.8090   26.2390   33.2110 C   0  0  0  0  0  0  0  0  0  0  0  0
   38.5540   26.0370   33.7270 C   0  0  0  0  0  0  0  0  0  0  0  0
   38.4510   25.1930   34.8250 C   0  0  0  0  0  0  0  0  0  0  0  0
   39.5330   24.5760   35.3870 C   0  0  0  0  0  0  0  0  0  0  0  0
   40.7900   24.7980   34.8420 C   0  0  0  0  0  0  0  0  0  0  0  0
   42.1620   24.0050   35.5640 Cl  0  0  0  0  0  0  0  0  0  0  0  0
   40.9270   25.6210   33.7640 C   0  0  0  0  0  0  0  0  0  0  0  0
   37.4490   25.0560   35.2060 H   0  0  0  0  0  0  0  0  0  0  0  0
   41.9300   25.7690   33.3700 H   0  0  0  0  0  0  0  0  0  0  0  0
   35.8500   28.5750   32.9970 C   0  0  0  0  0  0  0  0  0  0  0  0
   36.9270   27.9210   33.6080 C   0  0  0  0  0  0  0  0  0  0  0  0
   37.4370   26.7180   33.0950 C   0  0  0  0  0  0  0  0  0  0  0  0
   36.8280   26.2420   31.9910 N   0  0  0  0  0  0  0  0  0  0  0  0
   35.7960   26.8680   31.4050 C   0  0  0  0  0  0  0  0  0  0  0  0
   35.3130   28.0130   31.8950 N   0  0  0  0  0  0  0  0  0  0  0  0
   35.4960   29.5040   33.4360 H   0  0  0  0  0  0  0  0  0  0  0  0
   37.4300   28.2920   34.4980 H   0  0  0  0  0  0  0  0  0  0  0  0
   35.3280   26.4560   30.5140 H   0  0  0  0  0  0  0  0  0  0  0  0
   39.4230   23.7130   36.5070 N   0  0  0  0  0  0  0  0  0  0  0  0
   40.1710   23.0240   36.7360 H   0  0  0  0  0  0  0  0  0  0  0  0
   38.2150   23.5090   37.7150 S   0  0  0  0  0  0  0  0  0  0  0  0
   37.9040   24.8000   38.4200 O   0  0  0  0  0  1  0  0  0  0  0  0
   36.9790   22.8320   37.2180 O   0  0  0  0  0  1  0  0  0  0  0  0
   38.8520   22.4880   38.9150 O   0  0  0  0  0  0  0  0  0  0  0  0
   38.0910   22.3190   39.5300 H   0  0  0  0  0  0  0  0  0  0  0  0
  1  2  1  0  0  0  0
  2  3  2  0  0  0  0
  2  8  1  0  0  0  0
  3  4  1  0  0  0  0
  4  9  1  0  0  0  0
  4  5  2  0  0  0  0
  5 20  1  0  0  0  0
  6  5  1  0  0  0  0
  6  7  1  0  0  0  0
  8  6  2  0  0  0  0
 10  8  1  0  0  0  0
 11 17  1  0  0  0  0
 11 12  1  0  0  0  0
 12 18  1  0  0  0  0
 13 12  2  0  0  0  0
 13  3  1  0  0  0  0
 14 13  1  0  0  0  0
 15 16  1  0  0  0  0
 15 14  2  0  0  0  0
 16 11  2  0  0  0  0
 19 15  1  0  0  0  0
 20 21  1  0  0  0  0
 20 22  1  0  0  0  0
 22 23  1  0  0  0  0
 22 25  1  0  0  0  0
 24 22  1  0  0  0  0
 25 26  1  0  0  0  0
M  END
>  <minimizedAffinity>
-4.78930235

$$$$

 OpenBabel03262523453D

 26 27  0  0  0  0  0  0  0  0999 V2000
   34.9660   32.4410   32.3230 Cl  0  0  0  0  0  0  0  0  0  0  0  0
   35.6060   30.8280   32.2900 C   0  0  0  0  0  0  0  0  0  0  0  0
   35.5670   30.0430   33.4130 C   0  0  0  0  0  0  0  0  0  0  0  0
   36.0980   28.7640   33.3090 C   0  0  0  0  0  0  0  0  0  0  0  0
   36.6400   28.2810   32.1510 C   0  0  0  0  0  0  0  0  0  0  0  0
   36.6640   29.0980   31.0300 C   0  0  0  0  0  0  0  0  0  0  0  0
   37.3560   28.4730   29.5600 Cl  0  0  0  0  0  0  0  0  0  0  0  0
   36.1520   30.3600   31.0980 C   0  0  0  0  0  0  0  0  0  0  0  0
   36.0510   28.1730   34.2130 H   0  0  0  0  0  0  0  0  0  0  0  0
   36.1920   30.9670   30.1960 H   0  0  0  0  0  0  0  0  0  0  0  0
   35.1860   31.8780   36.6960 C   0  0  0  0  0  0  0  0  0  0  0  0
   35.7520   31.3390   35.5340 C   0  0  0  0  0  0  0  0  0  0  0  0
   34.9820   30.6030   34.6200 C   0  0  0  0  0  0  0  0  0  0  0  0
   33.6800   30.4530   34.9320 N   0  0  0  0  0  0  0  0  0  0  0  0
   33.1360   30.9680   36.0450 C   0  0  0  0  0  0  0  0  0  0  0  0
   33.8710   31.6690   36.9130 N   0  0  0  0  0  0  0  0  0  0  0  0
   35.8280   32.4400   37.3680 H   0  0  0  0  0  0  0  0  0  0  0  0
   36.8000   31.4520   35.2670 H   0  0  0  0  0  0  0  0  0  0  0  0
   32.0810   30.8280   36.2660 H   0  0  0  0  0  0  0  0  0  0  0  0
   37.1800   26.9740   32.0480 N   0  0  0  0  0  0  0  0  0  0  0  0
   38.1580   26.7670   32.3410 H   0  0  0  0  0  0  0  0  0  0  0  0
   36.5330   25.4790   31.4950 S   0  0  0  0  0  0  0  0  0  0  0  0
   36.6970   24.3850   32.5150 O   0  0  0  0  0  1  0  0  0  0  0  0
   35.1250   25.5800   31.0050 O   0  0  0  0  0  1  0  0  0  0  0  0
   37.4550   24.9810   30.1570 O   0  0  0  0  0  0  0  0  0  0  0  0
   36.9840   24.1770   29.8140 H   0  0  0  0  0  0  0  0  0  0  0  0
  2  1  1  0  0  0  0
  2  3  1  0  0  0  0
  3 13  1  0  0  0  0
  4  3  2  0  0  0  0
  4  9  1  0  0  0  0
  5  4  1  0  0  0  0
  6  8  1  0  0  0  0
  6  5  2  0  0  0  0
  7  6  1  0  0  0  0
  8  2  2  0  0  0  0
 10  8  1  0  0  0  0
 11 16  1  0  0  0  0
 11 17  1  0  0  0  0
 12 11  2  0  0  0  0
 13 14  2  0  0  0  0
 13 12  1  0  0  0  0
 14 15  1  0  0  0  0
 15 19  1  0  0  0  0
 15 16  2  0  0  0  0
 18 12  1  0  0  0  0
 20  5  1  0  0  0  0
 20 21  1  0  0  0  0
 22 20  1  0  0  0  0
 22 23  1  0  0  0  0
 24 22  1  0  0  0  0
 25 22  1  0  0  0  0
 26 25  1  0  0  0  0
M  END
>  <minimizedAffinity>
-4.63875246

$$$$

 OpenBabel03262523453D

 26 27  0  0  0  0  0  0  0  0999 V2000
   34.7580   25.2570   30.5070 Cl  0  0  0  0  0  0  0  0  0  0  0  0
   35.9490   24.5870   31.5770 C   0  0  0  0  0  0  0  0  0  0  0  0
   36.8760   25.4000   32.1780 C   0  0  0  0  0  0  0  0  0  0  0  0
   37.7960   24.7910   33.0220 C   0  0  0  0  0  0  0  0  0  0  0  0
   37.8020   23.4460   33.2620 C   0  0  0  0  0  0  0  0  0  0  0  0
   36.8510   22.6500   32.6400 C   0  0  0  0  0  0  0  0  0  0  0  0
   36.8660   20.9370   32.9550 Cl  0  0  0  0  0  0  0  0  0  0  0  0
   35.9330   23.2140   31.8060 C   0  0  0  0  0  0  0  0  0  0  0  0
   38.5120   25.4600   33.4780 H   0  0  0  0  0  0  0  0  0  0  0  0
   35.2060   22.5540   31.3380 H   0  0  0  0  0  0  0  0  0  0  0  0
   37.5240   28.7530   30.5580 C   0  0  0  0  0  0  0  0  0  0  0  0
   37.5710   27.3810   30.8350 C   0  0  0  0  0  0  0  0  0  0  0  0
   36.8290   26.8230   31.8880 C   0  0  0  0  0  0  0  0  0  0  0  0
   36.0790   27.6840   32.6030 N   0  0  0  0  0  0  0  0  0  0  0  0
   36.0340   28.9990   32.3380 C   0  0  0  0  0  0  0  0  0  0  0  0
   36.7410   29.5280   31.3360 N   0  0  0  0  0  0  0  0  0  0  0  0
   38.1180   29.1310   29.7300 H   0  0  0  0  0  0  0  0  0  0  0  0
   38.1700   26.6720   30.2680 H   0  0  0  0  0  0  0  0  0  0  0  0
   35.4170   29.6660   32.9360 H   0  0  0  0  0  0  0  0  0  0  0  0
   38.7430   22.8290   34.1250 N   0  0  0  0  0  0  0  0  0  0  0  0
   39.5940   22.3590   33.7510 H   0  0  0  0  0  0  0  0  0  0  0  0
   38.8260   22.6530   35.8340 S   0  0  0  0  0  0  0  0  0  0  0  0
   40.0440   21.8810   36.2610 O   0  0  0  0  0  1  0  0  0  0  0  0
   38.6940   23.9440   36.5770 O   0  0  0  0  0  1  0  0  0  0  0  0
   37.5040   21.7020   36.3200 O   0  0  0  0  0  0  0  0  0  0  0  0
   37.5370   21.7160   37.3130 H   0  0  0  0  0  0  0  0  0  0  0  0
  1  2  1  0  0  0  0
  2  8  2  0  0  0  0
  2  3  1  0  0  0  0
  3  4  2  0  0  0  0
  4  5  1  0  0  0  0
  4  9  1  0  0  0  0
  5 20  1  0  0  0  0
  6  7  1  0  0  0  0
  6  5  2  0  0  0  0
  8  6  1  0  0  0  0
 10  8  1  0  0  0  0
 11 12  2  0  0  0  0
 11 16  1  0  0  0  0
 12 13  1  0  0  0  0
 13  3  1  0  0  0  0
 13 14  2  0  0  0  0
 15 14  1  0  0  0  0
 15 19  1  0  0  0  0
 16 15  2  0  0  0  0
 17 11  1  0  0  0  0
 18 12  1  0  0  0  0
 20 22  1  0  0  0  0
 21 20  1  0  0  0  0
 22 23  1  0  0  0  0
 22 25  1  0  0  0  0
 22 24  1  0  0  0  0
 25 26  1  0  0  0  0
M  END
>  <minimizedAffinity>
-4.60022116

$$$$

 OpenBabel03262523453D

 26 27  0  0  0  0  0  0  0  0999 V2000
   36.3890   24.1840   31.2780 Cl  0  0  0  0  0  0  0  0  0  0  0  0
   37.3330   23.9100   32.7080 C   0  0  0  0  0  0  0  0  0  0  0  0
   37.4840   22.6420   33.2070 C   0  0  0  0  0  0  0  0  0  0  0  0
   38.2540   22.5020   34.3540 C   0  0  0  0  0  0  0  0  0  0  0  0
   38.8490   23.5630   34.9790 C   0  0  0  0  0  0  0  0  0  0  0  0
   38.6800   24.8340   34.4490 C   0  0  0  0  0  0  0  0  0  0  0  0
   39.4420   26.1770   35.2520 Cl  0  0  0  0  0  0  0  0  0  0  0  0
   37.9290   25.0070   33.3250 C   0  0  0  0  0  0  0  0  0  0  0  0
   38.3520   21.4900   34.7200 H   0  0  0  0  0  0  0  0  0  0  0  0
   37.8210   26.0200   32.9440 H   0  0  0  0  0  0  0  0  0  0  0  0
   34.9180   20.0580   32.1930 C   0  0  0  0  0  0  0  0  0  0  0  0
   35.5460   21.1120   32.8680 C   0  0  0  0  0  0  0  0  0  0  0  0
   36.8300   21.5490   32.5070 C   0  0  0  0  0  0  0  0  0  0  0  0
   37.4090   20.8950   31.4810 N   0  0  0  0  0  0  0  0  0  0  0  0
   36.8080   19.8850   30.8330 C   0  0  0  0  0  0  0  0  0  0  0  0
   35.5860   19.4720   31.1780 N   0  0  0  0  0  0  0  0  0  0  0  0
   33.9230   19.7610   32.5140 H   0  0  0  0  0  0  0  0  0  0  0  0
   35.0930   21.6500   33.6980 H   0  0  0  0  0  0  0  0  0  0  0  0
   37.3050   19.3800   30.0080 H   0  0  0  0  0  0  0  0  0  0  0  0
   39.6360   23.4150   36.1490 N   0  0  0  0  0  0  0  0  0  0  0  0
   39.3960   23.9160   37.0300 H   0  0  0  0  0  0  0  0  0  0  0  0
   41.0500   22.5020   36.5030 S   0  0  0  0  0  0  0  0  0  0  0  0
   41.3490   21.4920   35.4300 O   0  0  0  0  0  1  0  0  0  0  0  0
   42.2420   23.3430   36.8260 O   0  0  0  0  0  1  0  0  0  0  0  0
   40.7370   21.5870   37.9010 O   0  0  0  0  0  0  0  0  0  0  0  0
   41.6080   21.1620   38.1210 H   0  0  0  0  0  0  0  0  0  0  0  0
  1  2  1  0  0  0  0
  2  3  2  0  0  0  0
  2  8  1  0  0  0  0
  3  4  1  0  0  0  0
  4  9  1  0  0  0  0
  4  5  2  0  0  0  0
  5 20  1  0  0  0  0
  6  5  1  0  0  0  0
  6  7  1  0  0  0  0
  8  6  2  0  0  0  0
 10  8  1  0  0  0  0
 11 17  1  0  0  0  0
 11 12  1  0  0  0  0
 12 18  1  0  0  0  0
 13 12  2  0  0  0  0
 13  3  1  0  0  0  0
 14 13  1  0  0  0  0
 15 16  1  0  0  0  0
 15 14  2  0  0  0  0
 16 11  2  0  0  0  0
 19 15  1  0  0  0  0
 20 22  1  0  0  0  0
 20 21  1  0  0  0  0
 22 24  1  0  0  0  0
 22 25  1  0  0  0  0
 23 22  1  0  0  0  0
 25 26  1  0  0  0  0
M  END
>  <minimizedAffinity>
-4.56719589

$$$$

 OpenBabel03262523453D

 26 27  0  0  0  0  0  0  0  0999 V2000
   39.1930   25.3440   34.3310 Cl  0  0  0  0  0  0  0  0  0  0  0  0
   38.1860   24.0390   33.7900 C   0  0  0  0  0  0  0  0  0  0  0  0
   38.2120   22.8290   34.4350 C   0  0  0  0  0  0  0  0  0  0  0  0
   37.3780   21.8340   33.9450 C   0  0  0  0  0  0  0  0  0  0  0  0
   36.5560   22.0210   32.8690 C   0  0  0  0  0  0  0  0  0  0  0  0
   36.5510   23.2570   32.2370 C   0  0  0  0  0  0  0  0  0  0  0  0
   35.4990   23.4860   30.8680 Cl  0  0  0  0  0  0  0  0  0  0  0  0
   37.3580   24.2560   32.6920 C   0  0  0  0  0  0  0  0  0  0  0  0
   37.4240   20.8930   34.4770 H   0  0  0  0  0  0  0  0  0  0  0  0
   37.3230   25.2080   32.1670 H   0  0  0  0  0  0  0  0  0  0  0  0
   41.2530   22.0020   36.5240 C   0  0  0  0  0  0  0  0  0  0  0  0
   40.3940   22.1450   35.4260 C   0  0  0  0  0  0  0  0  0  0  0  0
   39.1050   22.6800   35.5720 C   0  0  0  0  0  0  0  0  0  0  0  0
   38.7540   23.0400   36.8220 N   0  0  0  0  0  0  0  0  0  0  0  0
   39.5750   22.9030   37.8750 C   0  0  0  0  0  0  0  0  0  0  0  0
   40.8020   22.3950   37.7330 N   0  0  0  0  0  0  0  0  0  0  0  0
   42.2410   21.5830   36.3530 H   0  0  0  0  0  0  0  0  0  0  0  0
   40.6620   21.8600   34.4120 H   0  0  0  0  0  0  0  0  0  0  0  0
   39.2590   23.2050   38.8710 H   0  0  0  0  0  0  0  0  0  0  0  0
   35.7050   21.0010   32.3720 N   0  0  0  0  0  0  0  0  0  0  0  0
   34.6690   21.0700   32.4600 H   0  0  0  0  0  0  0  0  0  0  0  0
   36.0070   19.5120   31.5660 S   0  0  0  0  0  0  0  0  0  0  0  0
   36.1330   19.6940   30.0790 O   0  0  0  0  0  1  0  0  0  0  0  0
   37.1580   18.7460   32.1350 O   0  0  0  0  0  1  0  0  0  0  0  0
   34.6410   18.5230   31.7800 O   0  0  0  0  0  0  0  0  0  0  0  0
   34.9030   17.6480   31.3910 H   0  0  0  0  0  0  0  0  0  0  0  0
  2  1  1  0  0  0  0
  2  3  1  0  0  0  0
  3 13  1  0  0  0  0
  4  3  2  0  0  0  0
  4  9  1  0  0  0  0
  5  4  1  0  0  0  0
  6  8  1  0  0  0  0
  6  5  2  0  0  0  0
  7  6  1  0  0  0  0
  8  2  2  0  0  0  0
 10  8  1  0  0  0  0
 11 16  1  0  0  0  0
 12 13  1  0  0  0  0
 12 11  2  0  0  0  0
 13 14  2  0  0  0  0
 14 15  1  0  0  0  0
 15 19  1  0  0  0  0
 16 15  2  0  0  0  0
 17 11  1  0  0  0  0
 18 12  1  0  0  0  0
 20 21  1  0  0  0  0
 20  5  1  0  0  0  0
 22 25  1  0  0  0  0
 22 24  1  0  0  0  0
 22 20  1  0  0  0  0
 23 22  1  0  0  0  0
 26 25  1  0  0  0  0
M  END
>  <minimizedAffinity>
-4.5351491

$$$$

 OpenBabel03262523453D

 26 27  0  0  0  0  0  0  0  0999 V2000
   38.5860   27.2220   36.1290 Cl  0  0  0  0  0  0  0  0  0  0  0  0
   38.4250   26.3270   34.6500 C   0  0  0  0  0  0  0  0  0  0  0  0
   38.4750   24.9570   34.6600 C   0  0  0  0  0  0  0  0  0  0  0  0
   38.3380   24.3120   33.4380 C   0  0  0  0  0  0  0  0  0  0  0  0
   38.1600   24.9850   32.2620 C   0  0  0  0  0  0  0  0  0  0  0  0
   38.1120   26.3720   32.2840 C   0  0  0  0  0  0  0  0  0  0  0  0
   37.8830   27.2200   30.7810 Cl  0  0  0  0  0  0  0  0  0  0  0  0
   38.2440   27.0370   33.4660 C   0  0  0  0  0  0  0  0  0  0  0  0
   38.3830   23.2320   33.4810 H   0  0  0  0  0  0  0  0  0  0  0  0
   38.2020   28.1240   33.4390 H   0  0  0  0  0  0  0  0  0  0  0  0
   37.8690   23.6640   38.1600 C   0  0  0  0  0  0  0  0  0  0  0  0
   37.6800   24.3090   36.9310 C   0  0  0  0  0  0  0  0  0  0  0  0
   38.6690   24.2880   35.9350 C   0  0  0  0  0  0  0  0  0  0  0  0
   39.7970   23.6150   36.2370 N   0  0  0  0  0  0  0  0  0  0  0  0
   39.9790   22.9970   37.4140 C   0  0  0  0  0  0  0  0  0  0  0  0
   39.0360   23.0180   38.3600 N   0  0  0  0  0  0  0  0  0  0  0  0
   37.0690   23.7110   38.8940 H   0  0  0  0  0  0  0  0  0  0  0  0
   36.7760   24.8550   36.6700 H   0  0  0  0  0  0  0  0  0  0  0  0
   40.9020   22.4620   37.6250 H   0  0  0  0  0  0  0  0  0  0  0  0
   38.0200   24.3220   31.0160 N   0  0  0  0  0  0  0  0  0  0  0  0
   37.0860   24.1990   30.5700 H   0  0  0  0  0  0  0  0  0  0  0  0
   39.1490   23.5910   29.9440 S   0  0  0  0  0  0  0  0  0  0  0  0
   40.5660   23.7730   30.4130 O   0  0  0  0  0  1  0  0  0  0  0  0
   38.8420   22.1610   29.6350 O   0  0  0  0  0  1  0  0  0  0  0  0
   39.0600   24.4150   28.4610 O   0  0  0  0  0  0  0  0  0  0  0  0
   39.6480   23.8950   27.8510 H   0  0  0  0  0  0  0  0  0  0  0  0
  2  3  1  0  0  0  0
  2  1  1  0  0  0  0
  3 13  1  0  0  0  0
  4  9  1  0  0  0  0
  4  3  2  0  0  0  0
  5  6  2  0  0  0  0
  5  4  1  0  0  0  0
  6  8  1  0  0  0  0
  7  6  1  0  0  0  0
  8  2  2  0  0  0  0
 10  8  1  0  0  0  0
 11 16  1  0  0  0  0
 11 17  1  0  0  0  0
 12 11  2  0  0  0  0
 13 14  2  0  0  0  0
 13 12  1  0  0  0  0
 14 15  1  0  0  0  0
 15 19  1  0  0  0  0
 15 16  2  0  0  0  0
 18 12  1  0  0  0  0
 20  5  1  0  0  0  0
 21 20  1  0  0  0  0
 22 23  1  0  0  0  0
 22 20  1  0  0  0  0
 24 22  1  0  0  0  0
 25 22  1  0  0  0  0
 26 25  1  0  0  0  0
M  END
>  <minimizedAffinity>
-4.51032686

$$$$
