
 OpenBabel03272503063D

 30 31  0  0  0  0  0  0  0  0999 V2000
   38.4270   30.5470   47.2660 F   0  0  0  0  0  0  0  0  0  0  0  0
   38.7570   31.7490   47.7990 C   0  0  0  0  0  0  0  0  0  0  0  0
   38.2890   32.1150   49.0350 C   0  0  0  0  0  0  0  0  0  0  0  0
   38.6630   33.3390   49.5080 C   0  0  0  0  0  0  0  0  0  0  0  0
   39.4750   34.1950   48.7990 C   0  0  0  0  0  0  0  0  0  0  0  0
   39.9360   33.8120   47.5590 C   0  0  0  0  0  0  0  0  0  0  0  0
   39.5780   32.5790   47.0480 C   0  0  0  0  0  0  0  0  0  0  0  0
   38.2970   33.6320   50.4810 H   0  0  0  0  0  0  0  0  0  0  0  0
   39.7780   35.1680   49.1630 H   0  0  0  0  0  0  0  0  0  0  0  0
   40.5850   34.4030   46.9020 H   0  0  0  0  0  0  0  0  0  0  0  0
   36.9850   29.5760   51.5180 C   0  0  0  0  0  0  0  0  0  0  0  0
   37.8380   30.4760   50.8690 C   0  0  0  0  0  0  0  0  0  0  0  0
   37.4330   31.1700   49.7410 C   0  0  0  0  0  0  0  0  0  0  0  0
   36.1540   30.9180   49.3100 N   0  0  0  0  0  0  0  0  0  0  0  0
   35.3480   30.0520   49.9440 C   0  0  0  0  0  0  0  0  0  0  0  0
   35.7550   29.3890   51.0320 N   0  0  0  0  0  0  0  0  0  0  0  0
   37.3700   29.0840   52.3760 H   0  0  0  0  0  0  0  0  0  0  0  0
   38.8500   30.6530   51.2390 H   0  0  0  0  0  0  0  0  0  0  0  0
   34.3320   29.8650   49.5840 H   0  0  0  0  0  0  0  0  0  0  0  0
   39.0940   32.3580   44.7120 C   0  0  0  0  0  0  0  0  0  0  0  0
   37.9830   32.8510   45.0800 O   0  0  0  0  0  0  0  0  0  0  0  0
   40.0350   32.1370   45.7610 N   0  0  0  0  0  0  0  0  0  0  0  0
   40.9320   31.6880   45.4880 H   0  0  0  0  0  0  0  0  0  0  0  0
   39.3530   32.0590   43.3440 N   0  0  0  0  0  0  0  0  0  0  0  0
   40.1700   31.4440   43.1050 H   0  0  0  0  0  0  0  0  0  0  0  0
   38.3820   32.6670   42.0510 S   0  0  0  0  0  0  0  0  0  0  0  0
   38.3220   31.6630   40.9640 O   0  0  0  0  0  1  0  0  0  0  0  0
   38.9820   33.9400   41.4930 O   0  0  0  0  0  1  0  0  0  0  0  0
   36.8630   33.0770   42.6540 O   0  0  0  0  0  0  0  0  0  0  0  0
   36.1490   32.9380   41.9790 H   0  0  0  0  0  0  0  0  0  0  0  0
  1  2  1  0  0  0  0
  2  3  1  0  0  0  0
  3  4  2  0  0  0  0
  3 13  1  0  0  0  0
  4  8  1  0  0  0  0
  5  9  1  0  0  0  0
  5  4  1  0  0  0  0
  6  5  2  0  0  0  0
  7  6  1  0  0  0  0
  7  2  2  0  0  0  0
 10  6  1  0  0  0  0
 11 17  1  0  0  0  0
 12 18  1  0  0  0  0
 12 11  2  0  0  0  0
 13 12  1  0  0  0  0
 14 13  2  0  0  0  0
 14 15  1  0  0  0  0
 15 16  2  0  0  0  0
 16 11  1  0  0  0  0
 19 15  1  0  0  0  0
 20 21  2  0  0  0  0
 20 22  1  0  0  0  0
 22  7  1  0  0  0  0
 23 22  1  0  0  0  0
 24 20  1  0  0  0  0
 25 24  1  0  0  0  0
 26 29  1  0  0  0  0
 26 24  1  0  0  0  0
 27 26  1  0  0  0  0
 28 26  1  0  0  0  0
 30 29  1  0  0  0  0
M  END
>  <minimizedAffinity>
-6.32044029

>  <minimizedRMSD>
0.298600316

$$$$
