
 OpenBabel03272500593D

 33 34  0  0  0  0  0  0  0  0999 V2000
   39.6030   26.0780   32.8360 C   0  0  0  0  0  0  0  0  0  0  0  0
   40.1870   27.0970   32.1390 C   0  0  0  0  0  0  0  0  0  0  0  0
   41.3790   27.7040   32.5630 C   0  0  0  0  0  0  0  0  0  0  0  0
   41.9830   27.2070   33.7830 C   0  0  0  0  0  0  0  0  0  0  0  0
   41.3540   26.1940   34.4270 C   0  0  0  0  0  0  0  0  0  0  0  0
   40.2090   25.6190   34.0140 C   0  0  0  0  0  0  0  0  0  0  0  0
   39.7490   27.4920   31.2090 H   0  0  0  0  0  0  0  0  0  0  0  0
   41.7850   28.5050   31.9620 H   0  0  0  0  0  0  0  0  0  0  0  0
   42.8710   27.7600   33.9720 H   0  0  0  0  0  0  0  0  0  0  0  0
   41.9850   25.9750   35.2740 H   0  0  0  0  0  0  0  0  0  0  0  0
   38.5270   24.4870   31.3320 C   0  0  0  0  0  0  0  0  0  0  0  0
   38.3930   25.5410   32.2660 C   0  0  0  0  0  0  0  0  0  0  0  0
   37.0980   25.9200   32.5190 C   0  0  0  0  0  0  0  0  0  0  0  0
   36.0680   25.3080   31.9050 N   0  0  0  0  0  0  0  0  0  0  0  0
   36.2130   24.3320   31.0410 C   0  0  0  0  0  0  0  0  0  0  0  0
   37.4390   23.9220   30.7560 N   0  0  0  0  0  0  0  0  0  0  0  0
   39.5150   24.1060   31.0570 H   0  0  0  0  0  0  0  0  0  0  0  0
   36.9920   26.7330   33.2390 H   0  0  0  0  0  0  0  0  0  0  0  0
   35.2970   23.9290   30.6190 H   0  0  0  0  0  0  0  0  0  0  0  0
   38.7680   25.1040   35.8010 C   0  0  0  0  0  0  0  0  0  0  0  0
   38.7010   26.3840   35.9910 O   0  0  0  0  0  0  0  0  0  0  0  0
   39.6130   24.6130   34.7300 N   0  0  0  0  0  0  0  0  0  0  0  0
   39.7400   23.6170   34.5450 H   0  0  0  0  0  0  0  0  0  0  0  0
   38.0460   24.2660   36.6120 O   0  0  0  0  0  0  0  0  0  0  0  0
   38.3850   23.9580   37.9270 C   0  0  0  0  0  0  0  0  0  0  0  0
   37.8290   24.5790   38.9440 O   0  0  0  0  0  0  0  0  0  0  0  0
   39.3030   22.9810   38.4020 N   0  0  0  0  0  0  0  0  0  0  0  0
   39.1990   22.7480   39.4340 H   0  0  0  0  0  0  0  0  0  0  0  0
   40.4580   22.2780   37.3340 S   0  0  0  0  0  0  0  0  0  0  0  0
   39.6640   21.7280   36.1600 O   0  0  0  0  0  1  0  0  0  0  0  0
   41.4350   23.2970   36.8440 O   0  0  0  0  0  1  0  0  0  0  0  0
   41.2300   20.9570   38.0110 O   0  0  0  0  0  0  0  0  0  0  0  0
   41.2140   20.9480   38.9990 H   0  0  0  0  0  0  0  0  0  0  0  0
  1  6  1  0  0  0  0
  2  3  1  0  0  0  0
  2  1  2  0  0  0  0
  3  4  2  0  0  0  0
  4  9  1  0  0  0  0
  4  5  1  0  0  0  0
  5 10  1  0  0  0  0
  6  5  2  0  0  0  0
  6 22  1  0  0  0  0
  7  2  1  0  0  0  0
  8  3  1  0  0  0  0
 11 12  1  0  0  0  0
 12 13  2  0  0  0  0
 12  1  1  0  0  0  0
 13 18  1  0  0  0  0
 14 13  1  0  0  0  0
 15 14  2  0  0  0  0
 16 15  1  0  0  0  0
 16 11  2  0  0  0  0
 17 11  1  0  0  0  0
 19 15  1  0  0  0  0
 20 21  2  0  0  0  0
 20 24  1  0  0  0  0
 22 20  1  0  0  0  0
 23 22  1  0  0  0  0
 24 25  1  0  0  0  0
 25 27  1  0  0  0  0
 25 26  2  0  0  0  0
 27 28  1  0  0  0  0
 29 32  1  0  0  0  0
 29 27  1  0  0  0  0
 30 29  1  0  0  0  0
 31 29  1  0  0  0  0
 32 33  1  0  0  0  0
M  END
>  <minimizedAffinity>
-5.52958965

$$$$

 OpenBabel03272500593D

 33 34  0  0  0  0  0  0  0  0999 V2000
   36.4970   28.8860   32.0170 C   0  0  0  0  0  0  0  0  0  0  0  0
   36.3770   29.4140   30.7630 C   0  0  0  0  0  0  0  0  0  0  0  0
   37.2560   29.0730   29.7230 C   0  0  0  0  0  0  0  0  0  0  0  0
   38.3120   28.1260   30.0250 C   0  0  0  0  0  0  0  0  0  0  0  0
   38.3750   27.6400   31.2890 C   0  0  0  0  0  0  0  0  0  0  0  0
   37.5290   27.9740   32.2810 C   0  0  0  0  0  0  0  0  0  0  0  0
   35.5840   30.1340   30.5070 H   0  0  0  0  0  0  0  0  0  0  0  0
   37.1020   29.5290   28.7560 H   0  0  0  0  0  0  0  0  0  0  0  0
   38.8890   27.9700   29.1470 H   0  0  0  0  0  0  0  0  0  0  0  0
   39.2020   26.9480   31.2740 H   0  0  0  0  0  0  0  0  0  0  0  0
   34.1620   28.9670   32.7180 C   0  0  0  0  0  0  0  0  0  0  0  0
   35.5080   29.3150   32.9750 C   0  0  0  0  0  0  0  0  0  0  0  0
   35.7050   30.0270   34.1330 C   0  0  0  0  0  0  0  0  0  0  0  0
   34.6680   30.3440   34.9300 N   0  0  0  0  0  0  0  0  0  0  0  0
   33.4240   30.0120   34.6740 C   0  0  0  0  0  0  0  0  0  0  0  0
   33.1730   29.3250   33.5710 N   0  0  0  0  0  0  0  0  0  0  0  0
   33.8920   28.3980   31.8220 H   0  0  0  0  0  0  0  0  0  0  0  0
   36.7430   30.2960   34.3330 H   0  0  0  0  0  0  0  0  0  0  0  0
   32.6860   30.3340   35.4020 H   0  0  0  0  0  0  0  0  0  0  0  0
   37.2130   26.0900   33.6530 C   0  0  0  0  0  0  0  0  0  0  0  0
   36.7040   25.5280   32.6030 O   0  0  0  0  0  0  0  0  0  0  0  0
   37.6680   27.4620   33.5450 N   0  0  0  0  0  0  0  0  0  0  0  0
   38.0480   27.9780   34.3410 H   0  0  0  0  0  0  0  0  0  0  0  0
   37.3030   25.3740   34.8200 O   0  0  0  0  0  0  0  0  0  0  0  0
   37.9650   25.8140   35.9640 C   0  0  0  0  0  0  0  0  0  0  0  0
   38.2530   27.0830   36.1480 O   0  0  0  0  0  0  0  0  0  0  0  0
   38.4070   25.0520   37.0810 N   0  0  0  0  0  0  0  0  0  0  0  0
   38.6440   25.6320   37.9400 H   0  0  0  0  0  0  0  0  0  0  0  0
   38.5230   23.3360   36.9760 S   0  0  0  0  0  0  0  0  0  0  0  0
   37.0940   22.8200   36.9440 O   0  0  0  0  0  1  0  0  0  0  0  0
   39.2350   22.9150   35.7310 O   0  0  0  0  0  1  0  0  0  0  0  0
   39.2140   22.6600   38.3420 O   0  0  0  0  0  0  0  0  0  0  0  0
   39.7740   23.2870   38.8590 H   0  0  0  0  0  0  0  0  0  0  0  0
  1  6  1  0  0  0  0
  1 12  1  0  0  0  0
  2  1  2  0  0  0  0
  3  4  2  0  0  0  0
  3  2  1  0  0  0  0
  4  5  1  0  0  0  0
  5  6  2  0  0  0  0
  6 22  1  0  0  0  0
  7  2  1  0  0  0  0
  8  3  1  0  0  0  0
  9  4  1  0  0  0  0
 10  5  1  0  0  0  0
 11 12  2  0  0  0  0
 11 16  1  0  0  0  0
 12 13  1  0  0  0  0
 13 18  1  0  0  0  0
 13 14  2  0  0  0  0
 15 14  1  0  0  0  0
 15 19  1  0  0  0  0
 16 15  2  0  0  0  0
 17 11  1  0  0  0  0
 20 24  1  0  0  0  0
 21 20  2  0  0  0  0
 22 20  1  0  0  0  0
 22 23  1  0  0  0  0
 24 25  1  0  0  0  0
 25 26  2  0  0  0  0
 25 27  1  0  0  0  0
 27 28  1  0  0  0  0
 29 27  1  0  0  0  0
 29 32  1  0  0  0  0
 30 29  1  0  0  0  0
 31 29  1  0  0  0  0
 32 33  1  0  0  0  0
M  END
>  <minimizedAffinity>
-5.21686697

$$$$

 OpenBabel03272500593D

 33 34  0  0  0  0  0  0  0  0999 V2000
   33.7220   31.0090   35.4530 C   0  0  0  0  0  0  0  0  0  0  0  0
   33.8950   31.7060   36.6150 C   0  0  0  0  0  0  0  0  0  0  0  0
   35.0270   32.5010   36.8470 C   0  0  0  0  0  0  0  0  0  0  0  0
   36.0250   32.5630   35.7980 C   0  0  0  0  0  0  0  0  0  0  0  0
   35.7940   31.8490   34.6690 C   0  0  0  0  0  0  0  0  0  0  0  0
   34.7050   31.0860   34.4560 C   0  0  0  0  0  0  0  0  0  0  0  0
   33.1520   31.6760   37.4280 H   0  0  0  0  0  0  0  0  0  0  0  0
   35.0980   33.0240   37.7900 H   0  0  0  0  0  0  0  0  0  0  0  0
   36.8150   33.1980   36.1180 H   0  0  0  0  0  0  0  0  0  0  0  0
   36.6370   32.0640   34.0320 H   0  0  0  0  0  0  0  0  0  0  0  0
   31.3650   30.9190   34.8310 C   0  0  0  0  0  0  0  0  0  0  0  0
   32.4990   30.2530   35.3510 C   0  0  0  0  0  0  0  0  0  0  0  0
   32.2850   28.9400   35.6920 C   0  0  0  0  0  0  0  0  0  0  0  0
   31.0750   28.3740   35.5270 N   0  0  0  0  0  0  0  0  0  0  0  0
   30.0340   29.0100   35.0430 C   0  0  0  0  0  0  0  0  0  0  0  0
   30.1790   30.2790   34.6960 N   0  0  0  0  0  0  0  0  0  0  0  0
   31.4240   31.9690   34.5270 H   0  0  0  0  0  0  0  0  0  0  0  0
   33.1580   28.4240   36.0930 H   0  0  0  0  0  0  0  0  0  0  0  0
   29.1180   28.4330   34.9640 H   0  0  0  0  0  0  0  0  0  0  0  0
   35.1850   29.0690   33.3470 C   0  0  0  0  0  0  0  0  0  0  0  0
   35.8460   28.7490   34.4150 O   0  0  0  0  0  0  0  0  0  0  0  0
   34.5480   30.3690   33.2980 N   0  0  0  0  0  0  0  0  0  0  0  0
   34.0400   30.7000   32.4760 H   0  0  0  0  0  0  0  0  0  0  0  0
   35.1130   28.1740   32.3090 O   0  0  0  0  0  0  0  0  0  0  0  0
   35.9400   28.2000   31.1890 C   0  0  0  0  0  0  0  0  0  0  0  0
   36.1580   29.3100   30.5200 O   0  0  0  0  0  0  0  0  0  0  0  0
   36.6730   27.1310   30.6020 N   0  0  0  0  0  0  0  0  0  0  0  0
   37.4310   27.4400   29.9250 H   0  0  0  0  0  0  0  0  0  0  0  0
   36.3040   25.4960   31.0040 S   0  0  0  0  0  0  0  0  0  0  0  0
   36.5990   25.3520   32.4880 O   0  0  0  0  0  1  0  0  0  0  0  0
   34.8640   25.1860   30.7480 O   0  0  0  0  0  1  0  0  0  0  0  0
   37.3170   24.4080   30.2360 O   0  0  0  0  0  0  0  0  0  0  0  0
   37.7390   24.7640   29.4180 H   0  0  0  0  0  0  0  0  0  0  0  0
  1  2  1  0  0  0  0
  2  3  2  0  0  0  0
  2  7  1  0  0  0  0
  3  8  1  0  0  0  0
  4  9  1  0  0  0  0
  4  3  1  0  0  0  0
  5  4  2  0  0  0  0
  6  5  1  0  0  0  0
  6  1  2  0  0  0  0
 10  5  1  0  0  0  0
 11 12  1  0  0  0  0
 12  1  1  0  0  0  0
 12 13  2  0  0  0  0
 13 18  1  0  0  0  0
 14 13  1  0  0  0  0
 15 14  2  0  0  0  0
 16 11  2  0  0  0  0
 16 15  1  0  0  0  0
 17 11  1  0  0  0  0
 19 15  1  0  0  0  0
 20 21  2  0  0  0  0
 22 20  1  0  0  0  0
 22  6  1  0  0  0  0
 23 22  1  0  0  0  0
 24 20  1  0  0  0  0
 25 24  1  0  0  0  0
 26 25  2  0  0  0  0
 27 29  1  0  0  0  0
 27 25  1  0  0  0  0
 28 27  1  0  0  0  0
 29 30  1  0  0  0  0
 31 29  1  0  0  0  0
 32 29  1  0  0  0  0
 33 32  1  0  0  0  0
M  END
>  <minimizedAffinity>
-5.17164898

$$$$

 OpenBabel03272500593D

 33 34  0  0  0  0  0  0  0  0999 V2000
   39.4090   25.3690   34.6810 C   0  0  0  0  0  0  0  0  0  0  0  0
   40.2960   26.4020   34.7820 C   0  0  0  0  0  0  0  0  0  0  0  0
   40.5910   27.2410   33.6970 C   0  0  0  0  0  0  0  0  0  0  0  0
   39.9120   26.9750   32.4440 C   0  0  0  0  0  0  0  0  0  0  0  0
   39.0430   25.9350   32.4110 C   0  0  0  0  0  0  0  0  0  0  0  0
   38.7680   25.1330   33.4570 C   0  0  0  0  0  0  0  0  0  0  0  0
   40.8250   26.6260   35.7220 H   0  0  0  0  0  0  0  0  0  0  0  0
   41.3030   28.0390   33.8480 H   0  0  0  0  0  0  0  0  0  0  0  0
   40.2350   27.6870   31.7250 H   0  0  0  0  0  0  0  0  0  0  0  0
   38.6450   25.9440   31.4090 H   0  0  0  0  0  0  0  0  0  0  0  0
   38.1730   25.0480   36.7590 C   0  0  0  0  0  0  0  0  0  0  0  0
   39.1940   24.6070   35.8860 C   0  0  0  0  0  0  0  0  0  0  0  0
   39.8600   23.4810   36.3060 C   0  0  0  0  0  0  0  0  0  0  0  0
   39.5300   22.8780   37.4630 N   0  0  0  0  0  0  0  0  0  0  0  0
   38.5780   23.3030   38.2610 C   0  0  0  0  0  0  0  0  0  0  0  0
   37.9010   24.3840   37.9090 N   0  0  0  0  0  0  0  0  0  0  0  0
   37.5780   25.9360   36.5220 H   0  0  0  0  0  0  0  0  0  0  0  0
   40.6480   23.1400   35.6340 H   0  0  0  0  0  0  0  0  0  0  0  0
   38.4190   22.7210   39.1640 H   0  0  0  0  0  0  0  0  0  0  0  0
   38.5360   22.8610   32.8970 C   0  0  0  0  0  0  0  0  0  0  0  0
   39.8000   22.8970   32.6200 O   0  0  0  0  0  0  0  0  0  0  0  0
   37.8960   24.0810   33.3450 N   0  0  0  0  0  0  0  0  0  0  0  0
   36.8960   24.1340   33.5480 H   0  0  0  0  0  0  0  0  0  0  0  0
   37.8510   21.6790   32.7590 O   0  0  0  0  0  0  0  0  0  0  0  0
   36.8920   21.2160   33.6550 C   0  0  0  0  0  0  0  0  0  0  0  0
   36.8710   21.6140   34.9080 O   0  0  0  0  0  0  0  0  0  0  0  0
   35.8170   20.3140   33.4180 N   0  0  0  0  0  0  0  0  0  0  0  0
   35.0690   20.3170   34.1730 H   0  0  0  0  0  0  0  0  0  0  0  0
   35.7990   19.3320   32.0020 S   0  0  0  0  0  0  0  0  0  0  0  0
   35.7270   20.2930   30.8260 O   0  0  0  0  0  1  0  0  0  0  0  0
   37.0410   18.5070   31.8980 O   0  0  0  0  0  1  0  0  0  0  0  0
   34.4200   18.3910   31.8970 O   0  0  0  0  0  0  0  0  0  0  0  0
   33.9780   18.2330   32.7660 H   0  0  0  0  0  0  0  0  0  0  0  0
  1  2  1  0  0  0  0
  1 12  1  0  0  0  0
  2  7  1  0  0  0  0
  3  8  1  0  0  0  0
  3  2  2  0  0  0  0
  4  3  1  0  0  0  0
  5  4  2  0  0  0  0
  5  6  1  0  0  0  0
  6  1  2  0  0  0  0
  9  4  1  0  0  0  0
 10  5  1  0  0  0  0
 11 16  1  0  0  0  0
 12 13  1  0  0  0  0
 12 11  2  0  0  0  0
 13 14  2  0  0  0  0
 14 15  1  0  0  0  0
 15 19  1  0  0  0  0
 16 15  2  0  0  0  0
 17 11  1  0  0  0  0
 18 13  1  0  0  0  0
 20 22  1  0  0  0  0
 21 20  2  0  0  0  0
 22  6  1  0  0  0  0
 22 23  1  0  0  0  0
 24 20  1  0  0  0  0
 24 25  1  0  0  0  0
 25 26  2  0  0  0  0
 27 25  1  0  0  0  0
 27 28  1  0  0  0  0
 29 27  1  0  0  0  0
 30 29  1  0  0  0  0
 31 29  1  0  0  0  0
 32 29  1  0  0  0  0
 32 33  1  0  0  0  0
M  END
>  <minimizedAffinity>
-5.14500284

$$$$

 OpenBabel03272500593D

 33 34  0  0  0  0  0  0  0  0999 V2000
   36.2660   22.2560   32.0990 C   0  0  0  0  0  0  0  0  0  0  0  0
   35.5180   21.5110   31.2330 C   0  0  0  0  0  0  0  0  0  0  0  0
   35.0620   20.2250   31.5570 C   0  0  0  0  0  0  0  0  0  0  0  0
   35.4130   19.7010   32.8620 C   0  0  0  0  0  0  0  0  0  0  0  0
   36.1570   20.4900   33.6750 C   0  0  0  0  0  0  0  0  0  0  0  0
   36.5930   21.7240   33.3540 C   0  0  0  0  0  0  0  0  0  0  0  0
   35.2370   21.8860   30.2360 H   0  0  0  0  0  0  0  0  0  0  0  0
   34.4740   19.6920   30.8230 H   0  0  0  0  0  0  0  0  0  0  0  0
   35.0000   18.7270   32.9590 H   0  0  0  0  0  0  0  0  0  0  0  0
   36.2700   19.9190   34.5820 H   0  0  0  0  0  0  0  0  0  0  0  0
   35.6420   24.5640   31.6180 C   0  0  0  0  0  0  0  0  0  0  0  0
   36.6440   23.5670   31.6340 C   0  0  0  0  0  0  0  0  0  0  0  0
   37.8780   23.9880   31.2010 C   0  0  0  0  0  0  0  0  0  0  0  0
   38.0700   25.2600   30.8040 N   0  0  0  0  0  0  0  0  0  0  0  0
   37.1260   26.1710   30.7950 C   0  0  0  0  0  0  0  0  0  0  0  0
   35.9160   25.8240   31.2020 N   0  0  0  0  0  0  0  0  0  0  0  0
   34.6210   24.3370   31.9430 H   0  0  0  0  0  0  0  0  0  0  0  0
   38.6520   23.2210   31.2130 H   0  0  0  0  0  0  0  0  0  0  0  0
   37.4190   27.1580   30.4490 H   0  0  0  0  0  0  0  0  0  0  0  0
   38.7750   22.1360   34.1280 C   0  0  0  0  0  0  0  0  0  0  0  0
   39.1410   21.1990   33.3110 O   0  0  0  0  0  0  0  0  0  0  0  0
   37.3650   22.4580   34.2170 N   0  0  0  0  0  0  0  0  0  0  0  0
   37.0030   23.1600   34.8630 H   0  0  0  0  0  0  0  0  0  0  0  0
   39.7270   22.7850   34.8740 O   0  0  0  0  0  0  0  0  0  0  0  0
   40.0790   22.4350   36.1760 C   0  0  0  0  0  0  0  0  0  0  0  0
   41.0030   21.5320   36.4200 O   0  0  0  0  0  0  0  0  0  0  0  0
   39.5750   22.9530   37.4010 N   0  0  0  0  0  0  0  0  0  0  0  0
   40.1750   22.7300   38.2500 H   0  0  0  0  0  0  0  0  0  0  0  0
   38.1080   23.8570   37.4280 S   0  0  0  0  0  0  0  0  0  0  0  0
   36.9890   22.8470   37.2330 O   0  0  0  0  0  1  0  0  0  0  0  0
   37.9270   24.5580   38.7360 O   0  0  0  0  0  1  0  0  0  0  0  0
   37.9880   24.9150   36.1380 O   0  0  0  0  0  0  0  0  0  0  0  0
   38.8580   25.1590   35.7390 H   0  0  0  0  0  0  0  0  0  0  0  0
  1  6  1  0  0  0  0
  2  3  1  0  0  0  0
  2  1  2  0  0  0  0
  3  4  2  0  0  0  0
  4  9  1  0  0  0  0
  4  5  1  0  0  0  0
  5 10  1  0  0  0  0
  6  5  2  0  0  0  0
  6 22  1  0  0  0  0
  7  2  1  0  0  0  0
  8  3  1  0  0  0  0
 11 12  1  0  0  0  0
 11 17  1  0  0  0  0
 12  1  1  0  0  0  0
 13 18  1  0  0  0  0
 13 12  2  0  0  0  0
 14 13  1  0  0  0  0
 15 14  2  0  0  0  0
 15 16  1  0  0  0  0
 16 11  2  0  0  0  0
 19 15  1  0  0  0  0
 20 22  1  0  0  0  0
 20 24  1  0  0  0  0
 21 20  2  0  0  0  0
 22 23  1  0  0  0  0
 24 25  1  0  0  0  0
 25 26  2  0  0  0  0
 25 27  1  0  0  0  0
 27 29  1  0  0  0  0
 27 28  1  0  0  0  0
 29 31  1  0  0  0  0
 30 29  1  0  0  0  0
 32 29  1  0  0  0  0
 33 32  1  0  0  0  0
M  END
>  <minimizedAffinity>
-5.10057354

$$$$

 OpenBabel03272500593D

 33 34  0  0  0  0  0  0  0  0999 V2000
   36.2830   21.9150   31.9410 C   0  0  0  0  0  0  0  0  0  0  0  0
   35.8930   21.0830   30.9300 C   0  0  0  0  0  0  0  0  0  0  0  0
   35.5960   19.7290   31.1500 C   0  0  0  0  0  0  0  0  0  0  0  0
   35.7150   19.2320   32.5060 C   0  0  0  0  0  0  0  0  0  0  0  0
   36.1060   20.1090   33.4630 C   0  0  0  0  0  0  0  0  0  0  0  0
   36.3910   21.4060   33.2420 C   0  0  0  0  0  0  0  0  0  0  0  0
   35.7940   21.4360   29.8910 H   0  0  0  0  0  0  0  0  0  0  0  0
   35.2950   19.1300   30.3030 H   0  0  0  0  0  0  0  0  0  0  0  0
   35.4600   18.2010   32.5130 H   0  0  0  0  0  0  0  0  0  0  0  0
   36.0970   19.5370   34.3770 H   0  0  0  0  0  0  0  0  0  0  0  0
   35.4260   24.1630   31.5370 C   0  0  0  0  0  0  0  0  0  0  0  0
   36.5340   23.2840   31.5650 C   0  0  0  0  0  0  0  0  0  0  0  0
   37.7330   23.8630   31.2290 C   0  0  0  0  0  0  0  0  0  0  0  0
   37.8010   25.1680   30.9080 N   0  0  0  0  0  0  0  0  0  0  0  0
   36.7610   25.9680   30.8870 C   0  0  0  0  0  0  0  0  0  0  0  0
   35.5770   25.4660   31.2010 N   0  0  0  0  0  0  0  0  0  0  0  0
   34.4220   23.8060   31.7870 H   0  0  0  0  0  0  0  0  0  0  0  0
   38.5880   23.1860   31.2510 H   0  0  0  0  0  0  0  0  0  0  0  0
   36.9580   26.9980   30.6080 H   0  0  0  0  0  0  0  0  0  0  0  0
   38.2440   22.2320   34.4320 C   0  0  0  0  0  0  0  0  0  0  0  0
   38.9550   21.4550   33.6790 O   0  0  0  0  0  0  0  0  0  0  0  0
   36.8060   22.2310   34.2560 N   0  0  0  0  0  0  0  0  0  0  0  0
   36.1820   22.7930   34.8370 H   0  0  0  0  0  0  0  0  0  0  0  0
   38.8710   23.0210   35.3640 O   0  0  0  0  0  0  0  0  0  0  0  0
   38.2240   23.6580   36.4190 C   0  0  0  0  0  0  0  0  0  0  0  0
   37.5510   22.9820   37.3240 O   0  0  0  0  0  0  0  0  0  0  0  0
   38.1780   25.0470   36.7230 N   0  0  0  0  0  0  0  0  0  0  0  0
   37.8530   25.2690   37.7100 H   0  0  0  0  0  0  0  0  0  0  0  0
   38.6270   26.2150   35.5380 S   0  0  0  0  0  0  0  0  0  0  0  0
   40.0760   25.9180   35.1840 O   0  0  0  0  0  1  0  0  0  0  0  0
   37.7800   26.0990   34.3120 O   0  0  0  0  0  1  0  0  0  0  0  0
   38.6250   27.7740   36.1460 O   0  0  0  0  0  0  0  0  0  0  0  0
   38.0550   27.8900   36.9450 H   0  0  0  0  0  0  0  0  0  0  0  0
  1  6  1  0  0  0  0
  2  3  1  0  0  0  0
  2  1  2  0  0  0  0
  3  4  2  0  0  0  0
  4  9  1  0  0  0  0
  4  5  1  0  0  0  0
  5 10  1  0  0  0  0
  6  5  2  0  0  0  0
  6 22  1  0  0  0  0
  7  2  1  0  0  0  0
  8  3  1  0  0  0  0
 11 12  1  0  0  0  0
 11 17  1  0  0  0  0
 12  1  1  0  0  0  0
 13 18  1  0  0  0  0
 13 12  2  0  0  0  0
 14 13  1  0  0  0  0
 15 14  2  0  0  0  0
 15 16  1  0  0  0  0
 16 11  2  0  0  0  0
 19 15  1  0  0  0  0
 20 24  1  0  0  0  0
 21 20  2  0  0  0  0
 22 20  1  0  0  0  0
 22 23  1  0  0  0  0
 24 25  1  0  0  0  0
 25 27  1  0  0  0  0
 25 26  2  0  0  0  0
 27 28  1  0  0  0  0
 29 32  1  0  0  0  0
 29 27  1  0  0  0  0
 30 29  1  0  0  0  0
 31 29  1  0  0  0  0
 32 33  1  0  0  0  0
M  END
>  <minimizedAffinity>
-5.07341623

$$$$

 OpenBabel03272500593D

 33 34  0  0  0  0  0  0  0  0999 V2000
   36.9560   25.9910   32.5550 C   0  0  0  0  0  0  0  0  0  0  0  0
   36.4350   26.9600   31.7450 C   0  0  0  0  0  0  0  0  0  0  0  0
   36.1390   28.2480   32.2160 C   0  0  0  0  0  0  0  0  0  0  0  0
   36.4080   28.5250   33.6140 C   0  0  0  0  0  0  0  0  0  0  0  0
   36.9250   27.5210   34.3640 C   0  0  0  0  0  0  0  0  0  0  0  0
   37.2040   26.2870   33.9030 C   0  0  0  0  0  0  0  0  0  0  0  0
   36.2230   26.7760   30.6800 H   0  0  0  0  0  0  0  0  0  0  0  0
   35.7290   28.9640   31.5190 H   0  0  0  0  0  0  0  0  0  0  0  0
   36.1340   29.5310   33.8190 H   0  0  0  0  0  0  0  0  0  0  0  0
   37.0650   27.9550   35.3410 H   0  0  0  0  0  0  0  0  0  0  0  0
   36.1330   23.8510   31.7220 C   0  0  0  0  0  0  0  0  0  0  0  0
   37.2270   24.7240   31.9240 C   0  0  0  0  0  0  0  0  0  0  0  0
   38.4330   24.2430   31.4770 C   0  0  0  0  0  0  0  0  0  0  0  0
   38.5190   23.0310   30.8960 N   0  0  0  0  0  0  0  0  0  0  0  0
   37.4910   22.2350   30.7180 C   0  0  0  0  0  0  0  0  0  0  0  0
   36.3020   22.6450   31.1300 N   0  0  0  0  0  0  0  0  0  0  0  0
   35.1250   24.1350   32.0410 H   0  0  0  0  0  0  0  0  0  0  0  0
   39.2790   24.9150   31.6310 H   0  0  0  0  0  0  0  0  0  0  0  0
   37.7020   21.2850   30.2380 H   0  0  0  0  0  0  0  0  0  0  0  0
   39.1440   25.3620   34.8570 C   0  0  0  0  0  0  0  0  0  0  0  0
   39.7900   26.2570   34.1790 O   0  0  0  0  0  0  0  0  0  0  0  0
   37.7020   25.3100   34.7260 N   0  0  0  0  0  0  0  0  0  0  0  0
   37.1330   24.6090   35.2040 H   0  0  0  0  0  0  0  0  0  0  0  0
   39.8410   24.5010   35.6670 O   0  0  0  0  0  0  0  0  0  0  0  0
   39.5730   23.1400   35.7850 C   0  0  0  0  0  0  0  0  0  0  0  0
   39.8850   22.2910   34.8290 O   0  0  0  0  0  0  0  0  0  0  0  0
   38.9800   22.4430   36.8740 N   0  0  0  0  0  0  0  0  0  0  0  0
   39.1190   21.3890   36.8470 H   0  0  0  0  0  0  0  0  0  0  0  0
   38.1240   23.3030   38.0970 S   0  0  0  0  0  0  0  0  0  0  0  0
   39.1720   23.7670   39.0960 O   0  0  0  0  0  1  0  0  0  0  0  0
   37.4130   24.4890   37.5300 O   0  0  0  0  0  1  0  0  0  0  0  0
   37.0870   22.3160   38.9620 O   0  0  0  0  0  0  0  0  0  0  0  0
   36.8200   21.4960   38.4800 H   0  0  0  0  0  0  0  0  0  0  0  0
  1  6  1  0  0  0  0
  2  3  1  0  0  0  0
  2  1  2  0  0  0  0
  3  4  2  0  0  0  0
  4  9  1  0  0  0  0
  4  5  1  0  0  0  0
  5 10  1  0  0  0  0
  6  5  2  0  0  0  0
  6 22  1  0  0  0  0
  7  2  1  0  0  0  0
  8  3  1  0  0  0  0
 11 12  1  0  0  0  0
 11 17  1  0  0  0  0
 12  1  1  0  0  0  0
 13 18  1  0  0  0  0
 13 12  2  0  0  0  0
 14 13  1  0  0  0  0
 15 14  2  0  0  0  0
 15 16  1  0  0  0  0
 16 11  2  0  0  0  0
 19 15  1  0  0  0  0
 20 24  1  0  0  0  0
 21 20  2  0  0  0  0
 22 20  1  0  0  0  0
 22 23  1  0  0  0  0
 24 25  1  0  0  0  0
 25 27  1  0  0  0  0
 26 25  2  0  0  0  0
 27 29  1  0  0  0  0
 28 27  1  0  0  0  0
 29 32  1  0  0  0  0
 29 30  1  0  0  0  0
 31 29  1  0  0  0  0
 33 32  1  0  0  0  0
M  END
>  <minimizedAffinity>
-5.06744766

$$$$

 OpenBabel03272500593D

 33 34  0  0  0  0  0  0  0  0999 V2000
   38.9220   25.1570   32.6240 C   0  0  0  0  0  0  0  0  0  0  0  0
   39.2140   26.1890   31.7790 C   0  0  0  0  0  0  0  0  0  0  0  0
   40.0830   27.2290   32.1430 C   0  0  0  0  0  0  0  0  0  0  0  0
   40.6740   27.1720   33.4660 C   0  0  0  0  0  0  0  0  0  0  0  0
   40.3430   26.1210   34.2560 C   0  0  0  0  0  0  0  0  0  0  0  0
   39.5060   25.1290   33.8980 C   0  0  0  0  0  0  0  0  0  0  0  0
   38.7800   26.2560   30.7680 H   0  0  0  0  0  0  0  0  0  0  0  0
   40.2690   28.0140   31.4240 H   0  0  0  0  0  0  0  0  0  0  0  0
   41.3020   28.0200   33.5940 H   0  0  0  0  0  0  0  0  0  0  0  0
   40.9090   26.2710   35.1610 H   0  0  0  0  0  0  0  0  0  0  0  0
   36.6440   24.4380   32.1290 C   0  0  0  0  0  0  0  0  0  0  0  0
   38.0290   24.1530   32.1020 C   0  0  0  0  0  0  0  0  0  0  0  0
   38.3520   22.9310   31.5640 C   0  0  0  0  0  0  0  0  0  0  0  0
   37.3920   22.1040   31.1100 N   0  0  0  0  0  0  0  0  0  0  0  0
   36.1110   22.3860   31.1440 C   0  0  0  0  0  0  0  0  0  0  0  0
   35.7390   23.5510   31.6520 N   0  0  0  0  0  0  0  0  0  0  0  0
   36.2760   25.3840   32.5370 H   0  0  0  0  0  0  0  0  0  0  0  0
   39.4190   22.7090   31.5420 H   0  0  0  0  0  0  0  0  0  0  0  0
   35.4450   21.6280   30.7450 H   0  0  0  0  0  0  0  0  0  0  0  0
   40.2280   23.0940   34.8300 C   0  0  0  0  0  0  0  0  0  0  0  0
   41.2720   23.2270   34.0740 O   0  0  0  0  0  0  0  0  0  0  0  0
   39.1950   24.1080   34.7590 N   0  0  0  0  0  0  0  0  0  0  0  0
   38.3310   24.0500   35.3000 H   0  0  0  0  0  0  0  0  0  0  0  0
   40.1370   22.0070   35.6630 O   0  0  0  0  0  0  0  0  0  0  0  0
   40.4410   22.0300   37.0220 C   0  0  0  0  0  0  0  0  0  0  0  0
   41.5070   21.4250   37.4980 O   0  0  0  0  0  0  0  0  0  0  0  0
   39.7390   22.6730   38.0780 N   0  0  0  0  0  0  0  0  0  0  0  0
   40.2970   22.7730   38.9770 H   0  0  0  0  0  0  0  0  0  0  0  0
   38.1200   23.2170   37.8460 S   0  0  0  0  0  0  0  0  0  0  0  0
   37.3890   22.9250   39.1460 O   0  0  0  0  0  1  0  0  0  0  0  0
   38.0750   24.6840   37.5650 O   0  0  0  0  0  1  0  0  0  0  0  0
   37.3160   22.3380   36.6710 O   0  0  0  0  0  0  0  0  0  0  0  0
   37.9150   21.8860   36.0290 H   0  0  0  0  0  0  0  0  0  0  0  0
  1  6  1  0  0  0  0
  2  3  1  0  0  0  0
  2  1  2  0  0  0  0
  3  4  2  0  0  0  0
  4  9  1  0  0  0  0
  4  5  1  0  0  0  0
  5 10  1  0  0  0  0
  6  5  2  0  0  0  0
  6 22  1  0  0  0  0
  7  2  1  0  0  0  0
  8  3  1  0  0  0  0
 11 17  1  0  0  0  0
 12 11  1  0  0  0  0
 12  1  1  0  0  0  0
 13 12  2  0  0  0  0
 14 15  2  0  0  0  0
 14 13  1  0  0  0  0
 15 16  1  0  0  0  0
 16 11  2  0  0  0  0
 18 13  1  0  0  0  0
 19 15  1  0  0  0  0
 20 24  1  0  0  0  0
 21 20  2  0  0  0  0
 22 20  1  0  0  0  0
 22 23  1  0  0  0  0
 24 25  1  0  0  0  0
 25 26  2  0  0  0  0
 25 27  1  0  0  0  0
 27 28  1  0  0  0  0
 29 27  1  0  0  0  0
 29 30  1  0  0  0  0
 31 29  1  0  0  0  0
 32 29  1  0  0  0  0
 33 32  1  0  0  0  0
M  END
>  <minimizedAffinity>
-4.95236731

$$$$

 OpenBabel03272500593D

 33 34  0  0  0  0  0  0  0  0999 V2000
   39.8160   23.2790   36.4280 C   0  0  0  0  0  0  0  0  0  0  0  0
   40.0270   23.1940   37.7750 C   0  0  0  0  0  0  0  0  0  0  0  0
   39.0060   23.4360   38.7070 C   0  0  0  0  0  0  0  0  0  0  0  0
   37.6980   23.7840   38.1880 C   0  0  0  0  0  0  0  0  0  0  0  0
   37.5550   23.8520   36.8420 C   0  0  0  0  0  0  0  0  0  0  0  0
   38.5410   23.6200   35.9550 C   0  0  0  0  0  0  0  0  0  0  0  0
   41.0100   22.9310   38.1950 H   0  0  0  0  0  0  0  0  0  0  0  0
   39.2440   23.3510   39.7570 H   0  0  0  0  0  0  0  0  0  0  0  0
   37.0370   23.9360   39.0070 H   0  0  0  0  0  0  0  0  0  0  0  0
   36.5150   24.0930   36.6890 H   0  0  0  0  0  0  0  0  0  0  0  0
   41.7900   24.0630   35.2280 C   0  0  0  0  0  0  0  0  0  0  0  0
   40.9540   22.9830   35.5950 C   0  0  0  0  0  0  0  0  0  0  0  0
   41.3480   21.7620   35.1040 C   0  0  0  0  0  0  0  0  0  0  0  0
   42.4500   21.6510   34.3390 N   0  0  0  0  0  0  0  0  0  0  0  0
   43.2130   22.6660   34.0100 C   0  0  0  0  0  0  0  0  0  0  0  0
   42.8840   23.8690   34.4540 N   0  0  0  0  0  0  0  0  0  0  0  0
   41.5690   25.0810   35.5650 H   0  0  0  0  0  0  0  0  0  0  0  0
   40.7050   20.9280   35.3860 H   0  0  0  0  0  0  0  0  0  0  0  0
   44.0710   22.4350   33.3860 H   0  0  0  0  0  0  0  0  0  0  0  0
   37.8750   22.4960   33.9990 C   0  0  0  0  0  0  0  0  0  0  0  0
   37.7600   21.4490   34.7530 O   0  0  0  0  0  0  0  0  0  0  0  0
   38.3320   23.7310   34.6040 N   0  0  0  0  0  0  0  0  0  0  0  0
   38.4780   24.5860   34.0640 H   0  0  0  0  0  0  0  0  0  0  0  0
   37.5660   22.4010   32.6650 O   0  0  0  0  0  0  0  0  0  0  0  0
   36.2920   22.5920   32.1380 C   0  0  0  0  0  0  0  0  0  0  0  0
   35.8450   23.7910   31.8340 O   0  0  0  0  0  0  0  0  0  0  0  0
   35.3050   21.6170   31.8230 N   0  0  0  0  0  0  0  0  0  0  0  0
   34.5250   21.9700   31.1930 H   0  0  0  0  0  0  0  0  0  0  0  0
   35.4300   20.0160   32.4500 S   0  0  0  0  0  0  0  0  0  0  0  0
   36.7820   19.4920   31.9940 O   0  0  0  0  0  1  0  0  0  0  0  0
   35.3700   20.0120   33.9430 O   0  0  0  0  0  1  0  0  0  0  0  0
   34.2990   18.9810   31.7820 O   0  0  0  0  0  0  0  0  0  0  0  0
   33.5070   19.4400   31.4100 H   0  0  0  0  0  0  0  0  0  0  0  0
  1  2  1  0  0  0  0
  2  7  1  0  0  0  0
  2  3  2  0  0  0  0
  3  8  1  0  0  0  0
  4  3  1  0  0  0  0
  4  9  1  0  0  0  0
  5  4  2  0  0  0  0
  6  1  2  0  0  0  0
  6  5  1  0  0  0  0
 10  5  1  0  0  0  0
 11 17  1  0  0  0  0
 11 12  1  0  0  0  0
 12  1  1  0  0  0  0
 13 18  1  0  0  0  0
 13 12  2  0  0  0  0
 14 13  1  0  0  0  0
 15 14  2  0  0  0  0
 15 16  1  0  0  0  0
 16 11  2  0  0  0  0
 19 15  1  0  0  0  0
 20 22  1  0  0  0  0
 20 21  2  0  0  0  0
 22  6  1  0  0  0  0
 23 22  1  0  0  0  0
 24 20  1  0  0  0  0
 25 24  1  0  0  0  0
 26 25  2  0  0  0  0
 27 25  1  0  0  0  0
 27 29  1  0  0  0  0
 28 27  1  0  0  0  0
 29 31  1  0  0  0  0
 30 29  1  0  0  0  0
 32 29  1  0  0  0  0
 33 32  1  0  0  0  0
M  END
>  <minimizedAffinity>
-4.93803453

$$$$
