
 OpenBabel03272510323D

 26 27  0  0  0  0  0  0  0  0999 V2000
   36.0690   30.1530   48.6240 C   0  0  0  0  0  0  0  0  0  0  0  0
   35.9410   29.4090   49.7540 C   0  0  0  0  0  0  0  0  0  0  0  0
   35.0420   28.3780   49.8810 C   0  0  0  0  0  0  0  0  0  0  0  0
   34.2450   28.1040   48.8000 C   0  0  0  0  0  0  0  0  0  0  0  0
   34.3400   28.8300   47.6360 C   0  0  0  0  0  0  0  0  0  0  0  0
   35.2570   29.8630   47.5410 C   0  0  0  0  0  0  0  0  0  0  0  0
   36.5710   29.6200   50.6220 H   0  0  0  0  0  0  0  0  0  0  0  0
   34.9810   27.8140   50.8140 H   0  0  0  0  0  0  0  0  0  0  0  0
   33.5440   27.2810   48.9340 H   0  0  0  0  0  0  0  0  0  0  0  0
   33.6630   28.5240   46.8530 H   0  0  0  0  0  0  0  0  0  0  0  0
   38.9290   32.1240   47.5530 C   0  0  0  0  0  0  0  0  0  0  0  0
   39.0010   33.1690   48.4700 C   0  0  0  0  0  0  0  0  0  0  0  0
   38.0300   33.1850   49.4840 C   0  0  0  0  0  0  0  0  0  0  0  0
   37.0790   32.2050   49.5320 N   0  0  0  0  0  0  0  0  0  0  0  0
   37.0610   31.2110   48.6050 C   0  0  0  0  0  0  0  0  0  0  0  0
   37.9910   31.1700   47.6100 N   0  0  0  0  0  0  0  0  0  0  0  0
   39.6820   32.1250   46.7780 H   0  0  0  0  0  0  0  0  0  0  0  0
   39.7340   33.9570   48.4680 H   0  0  0  0  0  0  0  0  0  0  0  0
   38.0050   33.9590   50.2470 H   0  0  0  0  0  0  0  0  0  0  0  0
   35.3420   30.5980   46.3520 N   0  0  0  0  0  0  0  0  0  0  0  0
   35.1840   31.6500   46.3980 H   0  0  0  0  0  0  0  0  0  0  0  0
   35.6530   30.1940   44.7360 S   0  0  0  0  0  0  0  0  0  0  0  0
   34.9210   28.9980   44.2180 O   0  0  0  0  0  1  0  0  0  0  0  0
   37.1280   30.0940   44.5240 O   0  0  0  0  0  1  0  0  0  0  0  0
   35.1070   31.4990   43.7910 O   0  0  0  0  0  0  0  0  0  0  0  0
   34.2590   31.8680   44.1890 H   0  0  0  0  0  0  0  0  0  0  0  0
  1  2  1  0  0  0  0
  2  3  2  0  0  0  0
  2  7  1  0  0  0  0
  3  8  1  0  0  0  0
  4  9  1  0  0  0  0
  4  3  1  0  0  0  0
  5  4  2  0  0  0  0
  6  5  1  0  0  0  0
  6  1  2  0  0  0  0
 10  5  1  0  0  0  0
 11 16  2  0  0  0  0
 11 12  1  0  0  0  0
 12 13  2  0  0  0  0
 13 14  1  0  0  0  0
 13 19  1  0  0  0  0
 15  1  1  0  0  0  0
 15 14  2  0  0  0  0
 16 15  1  0  0  0  0
 17 11  1  0  0  0  0
 18 12  1  0  0  0  0
 20 21  1  0  0  0  0
 20  6  1  0  0  0  0
 22 20  1  0  0  0  0
 23 22  1  0  0  0  0
 24 22  1  0  0  0  0
 25 26  1  0  0  0  0
 25 22  1  0  0  0  0
M  END
>  <minimizedAffinity>
-5.40896368

>  <minimizedRMSD>
4.72041225

$$$$
