
 OpenBabel03272503063D

 30 31  0  0  0  0  0  0  0  0999 V2000
   36.4980   27.3250   35.1030 F   0  0  0  0  0  0  0  0  0  0  0  0
   37.1570   27.4160   33.9220 C   0  0  0  0  0  0  0  0  0  0  0  0
   36.7090   28.2590   32.9370 C   0  0  0  0  0  0  0  0  0  0  0  0
   37.4230   28.2980   31.7750 C   0  0  0  0  0  0  0  0  0  0  0  0
   38.5500   27.5350   31.5670 C   0  0  0  0  0  0  0  0  0  0  0  0
   38.9860   26.6940   32.5660 C   0  0  0  0  0  0  0  0  0  0  0  0
   38.2870   26.6290   33.7570 C   0  0  0  0  0  0  0  0  0  0  0  0
   37.0750   28.9600   30.9960 H   0  0  0  0  0  0  0  0  0  0  0  0
   39.1240   27.5580   30.6500 H   0  0  0  0  0  0  0  0  0  0  0  0
   39.8650   26.0400   32.5200 H   0  0  0  0  0  0  0  0  0  0  0  0
   34.3160   30.8380   34.3290 C   0  0  0  0  0  0  0  0  0  0  0  0
   35.4880   30.1100   34.0940 C   0  0  0  0  0  0  0  0  0  0  0  0
   35.5110   29.0430   33.2110 C   0  0  0  0  0  0  0  0  0  0  0  0
   34.3210   28.7530   32.5910 N   0  0  0  0  0  0  0  0  0  0  0  0
   33.2050   29.4600   32.8280 C   0  0  0  0  0  0  0  0  0  0  0  0
   33.2000   30.4890   33.6840 N   0  0  0  0  0  0  0  0  0  0  0  0
   34.3810   31.6410   35.0190 H   0  0  0  0  0  0  0  0  0  0  0  0
   36.4190   30.3680   34.6040 H   0  0  0  0  0  0  0  0  0  0  0  0
   32.2660   29.2120   32.3240 H   0  0  0  0  0  0  0  0  0  0  0  0
   38.3760   24.3940   34.6180 C   0  0  0  0  0  0  0  0  0  0  0  0
   37.7180   24.1530   33.5590 O   0  0  0  0  0  0  0  0  0  0  0  0
   38.7040   25.7660   34.8260 N   0  0  0  0  0  0  0  0  0  0  0  0
   39.1990   25.9910   35.7130 H   0  0  0  0  0  0  0  0  0  0  0  0
   38.7450   23.3500   35.5130 N   0  0  0  0  0  0  0  0  0  0  0  0
   39.3520   22.5690   35.1590 H   0  0  0  0  0  0  0  0  0  0  0  0
   38.2400   23.3070   37.1640 S   0  0  0  0  0  0  0  0  0  0  0  0
   36.9260   22.6320   37.2620 O   0  0  0  0  0  1  0  0  0  0  0  0
   38.0980   24.7120   37.7080 O   0  0  0  0  0  1  0  0  0  0  0  0
   39.4370   22.5570   38.0830 O   0  0  0  0  0  0  0  0  0  0  0  0
   39.0540   22.0580   38.8500 H   0  0  0  0  0  0  0  0  0  0  0  0
  2  1  1  0  0  0  0
  3 13  1  0  0  0  0
  3  2  2  0  0  0  0
  4  3  1  0  0  0  0
  5  4  2  0  0  0  0
  5  6  1  0  0  0  0
  6  7  2  0  0  0  0
  7  2  1  0  0  0  0
  7 22  1  0  0  0  0
  8  4  1  0  0  0  0
  9  5  1  0  0  0  0
 10  6  1  0  0  0  0
 11 17  1  0  0  0  0
 12 11  1  0  0  0  0
 12 18  1  0  0  0  0
 13 12  2  0  0  0  0
 14 15  2  0  0  0  0
 14 13  1  0  0  0  0
 15 16  1  0  0  0  0
 16 11  2  0  0  0  0
 19 15  1  0  0  0  0
 20 22  1  0  0  0  0
 20 24  1  0  0  0  0
 21 20  2  0  0  0  0
 22 23  1  0  0  0  0
 24 26  1  0  0  0  0
 25 24  1  0  0  0  0
 26 27  1  0  0  0  0
 26 28  1  0  0  0  0
 26 29  1  0  0  0  0
 29 30  1  0  0  0  0
M  END
>  <minimizedAffinity>
-5.2498765

$$$$

 OpenBabel03272503063D

 30 31  0  0  0  0  0  0  0  0999 V2000
   36.4490   27.3740   34.9640 F   0  0  0  0  0  0  0  0  0  0  0  0
   36.9950   27.5780   33.7400 C   0  0  0  0  0  0  0  0  0  0  0  0
   36.4610   28.5070   32.8840 C   0  0  0  0  0  0  0  0  0  0  0  0
   37.0630   28.6570   31.6690 C   0  0  0  0  0  0  0  0  0  0  0  0
   38.1630   27.9210   31.2870 C   0  0  0  0  0  0  0  0  0  0  0  0
   38.6860   26.9920   32.1580 C   0  0  0  0  0  0  0  0  0  0  0  0
   38.1020   26.8130   33.3980 C   0  0  0  0  0  0  0  0  0  0  0  0
   36.6480   29.3870   30.9910 H   0  0  0  0  0  0  0  0  0  0  0  0
   38.6490   28.0310   30.3260 H   0  0  0  0  0  0  0  0  0  0  0  0
   39.5540   26.3490   31.9700 H   0  0  0  0  0  0  0  0  0  0  0  0
   32.9390   29.8330   33.2710 C   0  0  0  0  0  0  0  0  0  0  0  0
   34.0310   29.0930   32.8040 C   0  0  0  0  0  0  0  0  0  0  0  0
   35.2970   29.2570   33.3400 C   0  0  0  0  0  0  0  0  0  0  0  0
   35.4060   30.1830   34.3480 N   0  0  0  0  0  0  0  0  0  0  0  0
   34.3490   30.8850   34.7850 C   0  0  0  0  0  0  0  0  0  0  0  0
   33.1320   30.7150   34.2560 N   0  0  0  0  0  0  0  0  0  0  0  0
   32.0020   29.6490   32.8090 H   0  0  0  0  0  0  0  0  0  0  0  0
   33.9090   28.3630   32.0000 H   0  0  0  0  0  0  0  0  0  0  0  0
   34.4570   31.6190   35.5890 H   0  0  0  0  0  0  0  0  0  0  0  0
   38.1630   24.5240   34.1020 C   0  0  0  0  0  0  0  0  0  0  0  0
   37.3410   24.3950   33.1430 O   0  0  0  0  0  0  0  0  0  0  0  0
   38.6120   25.8570   34.3380 N   0  0  0  0  0  0  0  0  0  0  0  0
   39.2480   25.9910   35.1510 H   0  0  0  0  0  0  0  0  0  0  0  0
   38.5890   23.4010   34.8670 N   0  0  0  0  0  0  0  0  0  0  0  0
   39.0820   22.6120   34.3800 H   0  0  0  0  0  0  0  0  0  0  0  0
   38.3320   23.2750   36.5710 S   0  0  0  0  0  0  0  0  0  0  0  0
   38.0440   24.6160   37.1280 O   0  0  0  0  0  1  0  0  0  0  0  0
   39.5690   22.7300   37.2510 O   0  0  0  0  0  1  0  0  0  0  0  0
   37.0990   22.1620   36.8580 O   0  0  0  0  0  0  0  0  0  0  0  0
   36.5730   22.3960   37.6650 H   0  0  0  0  0  0  0  0  0  0  0  0
  2  1  1  0  0  0  0
  3 13  1  0  0  0  0
  3  2  2  0  0  0  0
  4  3  1  0  0  0  0
  5  4  2  0  0  0  0
  5  6  1  0  0  0  0
  6  7  2  0  0  0  0
  7  2  1  0  0  0  0
  7 22  1  0  0  0  0
  8  4  1  0  0  0  0
  9  5  1  0  0  0  0
 10  6  1  0  0  0  0
 11 16  1  0  0  0  0
 12 11  2  0  0  0  0
 12 13  1  0  0  0  0
 13 14  2  0  0  0  0
 14 15  1  0  0  0  0
 15 19  1  0  0  0  0
 16 15  2  0  0  0  0
 17 11  1  0  0  0  0
 18 12  1  0  0  0  0
 20 22  1  0  0  0  0
 20 24  1  0  0  0  0
 21 20  2  0  0  0  0
 22 23  1  0  0  0  0
 24 26  1  0  0  0  0
 25 24  1  0  0  0  0
 26 29  1  0  0  0  0
 26 27  1  0  0  0  0
 26 28  1  0  0  0  0
 29 30  1  0  0  0  0
M  END
>  <minimizedAffinity>
-4.96917009

$$$$

 OpenBabel03272503063D

 30 31  0  0  0  0  0  0  0  0999 V2000
   36.5570   27.7440   34.9420 F   0  0  0  0  0  0  0  0  0  0  0  0
   36.6000   28.2230   33.6750 C   0  0  0  0  0  0  0  0  0  0  0  0
   35.9050   29.3550   33.3340 C   0  0  0  0  0  0  0  0  0  0  0  0
   35.9950   29.7790   32.0410 C   0  0  0  0  0  0  0  0  0  0  0  0
   36.7420   29.1190   31.0910 C   0  0  0  0  0  0  0  0  0  0  0  0
   37.4320   27.9830   31.4490 C   0  0  0  0  0  0  0  0  0  0  0  0
   37.3650   27.5240   32.7510 C   0  0  0  0  0  0  0  0  0  0  0  0
   35.4510   30.6710   31.7670 H   0  0  0  0  0  0  0  0  0  0  0  0
   36.8200   29.4440   30.0620 H   0  0  0  0  0  0  0  0  0  0  0  0
   38.0580   27.3730   30.7870 H   0  0  0  0  0  0  0  0  0  0  0  0
   34.8900   31.5680   36.2310 C   0  0  0  0  0  0  0  0  0  0  0  0
   35.6670   30.9590   35.2390 C   0  0  0  0  0  0  0  0  0  0  0  0
   35.1310   30.0140   34.3800 C   0  0  0  0  0  0  0  0  0  0  0  0
   33.8030   29.7210   34.5640 N   0  0  0  0  0  0  0  0  0  0  0  0
   33.0700   30.3140   35.5200 C   0  0  0  0  0  0  0  0  0  0  0  0
   33.6040   31.2250   36.3430 N   0  0  0  0  0  0  0  0  0  0  0  0
   35.3740   32.2810   36.8490 H   0  0  0  0  0  0  0  0  0  0  0  0
   36.7220   31.2150   35.1200 H   0  0  0  0  0  0  0  0  0  0  0  0
   32.0130   30.0660   35.6510 H   0  0  0  0  0  0  0  0  0  0  0  0
   37.4010   25.1300   32.8330 C   0  0  0  0  0  0  0  0  0  0  0  0
   36.2710   25.2740   32.2740 O   0  0  0  0  0  0  0  0  0  0  0  0
   38.0680   26.3450   33.1710 N   0  0  0  0  0  0  0  0  0  0  0  0
   38.9720   26.2490   33.6750 H   0  0  0  0  0  0  0  0  0  0  0  0
   37.9390   23.8370   33.0910 N   0  0  0  0  0  0  0  0  0  0  0  0
   38.1120   23.1880   32.2840 H   0  0  0  0  0  0  0  0  0  0  0  0
   38.3250   23.2820   34.6810 S   0  0  0  0  0  0  0  0  0  0  0  0
   39.7520   22.8930   34.7370 O   0  0  0  0  0  1  0  0  0  0  0  0
   37.4850   22.0750   35.0360 O   0  0  0  0  0  1  0  0  0  0  0  0
   37.9260   24.4860   35.7920 O   0  0  0  0  0  0  0  0  0  0  0  0
   38.5350   24.4820   36.5740 H   0  0  0  0  0  0  0  0  0  0  0  0
  2  1  1  0  0  0  0
  3  2  1  0  0  0  0
  3 13  1  0  0  0  0
  4  3  2  0  0  0  0
  5  6  2  0  0  0  0
  5  4  1  0  0  0  0
  6  7  1  0  0  0  0
  7 22  1  0  0  0  0
  7  2  2  0  0  0  0
  8  4  1  0  0  0  0
  9  5  1  0  0  0  0
 10  6  1  0  0  0  0
 11 16  1  0  0  0  0
 11 17  1  0  0  0  0
 12 11  2  0  0  0  0
 13 14  2  0  0  0  0
 13 12  1  0  0  0  0
 14 15  1  0  0  0  0
 15 19  1  0  0  0  0
 15 16  2  0  0  0  0
 18 12  1  0  0  0  0
 20 24  1  0  0  0  0
 20 22  1  0  0  0  0
 21 20  2  0  0  0  0
 22 23  1  0  0  0  0
 24 26  1  0  0  0  0
 25 24  1  0  0  0  0
 26 27  1  0  0  0  0
 26 28  1  0  0  0  0
 26 29  1  0  0  0  0
 29 30  1  0  0  0  0
M  END
>  <minimizedAffinity>
-4.96683455

$$$$

 OpenBabel03272503063D

 30 31  0  0  0  0  0  0  0  0999 V2000
   38.9540   25.8710   34.6650 F   0  0  0  0  0  0  0  0  0  0  0  0
   38.4800   24.8200   33.9520 C   0  0  0  0  0  0  0  0  0  0  0  0
   38.2270   23.6190   34.5640 C   0  0  0  0  0  0  0  0  0  0  0  0
   37.7520   22.6070   33.7830 C   0  0  0  0  0  0  0  0  0  0  0  0
   37.5240   22.7520   32.4330 C   0  0  0  0  0  0  0  0  0  0  0  0
   37.7830   23.9640   31.8340 C   0  0  0  0  0  0  0  0  0  0  0  0
   38.2660   25.0120   32.5940 C   0  0  0  0  0  0  0  0  0  0  0  0
   37.5500   21.6590   34.2600 H   0  0  0  0  0  0  0  0  0  0  0  0
   37.1470   21.9560   31.8030 H   0  0  0  0  0  0  0  0  0  0  0  0
   37.6430   24.2020   30.7720 H   0  0  0  0  0  0  0  0  0  0  0  0
   39.8210   22.8360   37.9050 C   0  0  0  0  0  0  0  0  0  0  0  0
   39.6100   22.9080   36.5230 C   0  0  0  0  0  0  0  0  0  0  0  0
   38.4860   23.5220   35.9950 C   0  0  0  0  0  0  0  0  0  0  0  0
   37.6070   24.0490   36.9080 N   0  0  0  0  0  0  0  0  0  0  0  0
   37.8230   23.9720   38.2310 C   0  0  0  0  0  0  0  0  0  0  0  0
   38.9140   23.3750   38.7250 N   0  0  0  0  0  0  0  0  0  0  0  0
   40.7060   22.3490   38.2300 H   0  0  0  0  0  0  0  0  0  0  0  0
   40.3300   22.4780   35.8240 H   0  0  0  0  0  0  0  0  0  0  0  0
   37.1100   24.3980   38.9420 H   0  0  0  0  0  0  0  0  0  0  0  0
   37.4180   27.1600   31.9530 C   0  0  0  0  0  0  0  0  0  0  0  0
   36.3290   26.6510   32.3610 O   0  0  0  0  0  0  0  0  0  0  0  0
   38.5500   26.2940   32.0130 N   0  0  0  0  0  0  0  0  0  0  0  0
   39.4420   26.6750   31.6370 H   0  0  0  0  0  0  0  0  0  0  0  0
   37.4760   28.5010   31.4760 N   0  0  0  0  0  0  0  0  0  0  0  0
   37.2030   29.2820   32.1230 H   0  0  0  0  0  0  0  0  0  0  0  0
   37.9760   28.9050   29.8730 S   0  0  0  0  0  0  0  0  0  0  0  0
   39.3940   28.5220   29.6850 O   0  0  0  0  0  1  0  0  0  0  0  0
   37.8480   30.3950   29.6410 O   0  0  0  0  0  1  0  0  0  0  0  0
   36.9400   28.1590   28.7720 O   0  0  0  0  0  0  0  0  0  0  0  0
   37.4090   27.9150   27.9330 H   0  0  0  0  0  0  0  0  0  0  0  0
  2  3  1  0  0  0  0
  2  1  1  0  0  0  0
  3 13  1  0  0  0  0
  4  8  1  0  0  0  0
  4  3  2  0  0  0  0
  5  4  1  0  0  0  0
  6  5  2  0  0  0  0
  6  7  1  0  0  0  0
  7  2  2  0  0  0  0
  9  5  1  0  0  0  0
 10  6  1  0  0  0  0
 11 17  1  0  0  0  0
 11 16  1  0  0  0  0
 12 11  2  0  0  0  0
 13 12  1  0  0  0  0
 13 14  2  0  0  0  0
 14 15  1  0  0  0  0
 15 16  2  0  0  0  0
 15 19  1  0  0  0  0
 18 12  1  0  0  0  0
 20 22  1  0  0  0  0
 20 21  2  0  0  0  0
 22  7  1  0  0  0  0
 23 22  1  0  0  0  0
 24 20  1  0  0  0  0
 24 25  1  0  0  0  0
 26 24  1  0  0  0  0
 27 26  1  0  0  0  0
 28 26  1  0  0  0  0
 29 26  1  0  0  0  0
 30 29  1  0  0  0  0
M  END
>  <minimizedAffinity>
-4.95970058

$$$$

 OpenBabel03272503063D

 30 31  0  0  0  0  0  0  0  0999 V2000
   40.5540   23.7820   34.5210 F   0  0  0  0  0  0  0  0  0  0  0  0
   39.8520   23.7460   35.6800 C   0  0  0  0  0  0  0  0  0  0  0  0
   40.3290   23.0530   36.7630 C   0  0  0  0  0  0  0  0  0  0  0  0
   39.5690   23.0610   37.8950 C   0  0  0  0  0  0  0  0  0  0  0  0
   38.3670   23.7270   37.9810 C   0  0  0  0  0  0  0  0  0  0  0  0
   37.9020   24.4180   36.8840 C   0  0  0  0  0  0  0  0  0  0  0  0
   38.6460   24.4320   35.7200 C   0  0  0  0  0  0  0  0  0  0  0  0
   39.9410   22.5180   38.7510 H   0  0  0  0  0  0  0  0  0  0  0  0
   37.7560   23.7410   38.8730 H   0  0  0  0  0  0  0  0  0  0  0  0
   36.9650   24.9840   36.8290 H   0  0  0  0  0  0  0  0  0  0  0  0
   43.9990   22.3260   36.1970 C   0  0  0  0  0  0  0  0  0  0  0  0
   42.7930   23.0230   36.3300 C   0  0  0  0  0  0  0  0  0  0  0  0
   41.6070   22.3660   36.6160 C   0  0  0  0  0  0  0  0  0  0  0  0
   41.6960   21.0040   36.7590 N   0  0  0  0  0  0  0  0  0  0  0  0
   42.8610   20.3500   36.6280 C   0  0  0  0  0  0  0  0  0  0  0  0
   43.9980   20.9990   36.3510 N   0  0  0  0  0  0  0  0  0  0  0  0
   44.8630   22.9010   35.9780 H   0  0  0  0  0  0  0  0  0  0  0  0
   42.7570   24.1070   36.2100 H   0  0  0  0  0  0  0  0  0  0  0  0
   42.9100   19.2630   36.7450 H   0  0  0  0  0  0  0  0  0  0  0  0
   38.6860   26.4770   34.4720 C   0  0  0  0  0  0  0  0  0  0  0  0
   39.3810   26.8580   35.4640 O   0  0  0  0  0  0  0  0  0  0  0  0
   38.2010   25.1380   34.5520 N   0  0  0  0  0  0  0  0  0  0  0  0
   37.5890   24.8230   33.7720 H   0  0  0  0  0  0  0  0  0  0  0  0
   38.4290   27.3450   33.3730 N   0  0  0  0  0  0  0  0  0  0  0  0
   39.2400   27.7250   32.8250 H   0  0  0  0  0  0  0  0  0  0  0  0
   36.8330   27.8050   32.8950 S   0  0  0  0  0  0  0  0  0  0  0  0
   36.1400   26.6410   32.3000 O   0  0  0  0  0  1  0  0  0  0  0  0
   36.8900   28.9090   31.8620 O   0  0  0  0  0  1  0  0  0  0  0  0
   36.0250   28.4420   34.2310 O   0  0  0  0  0  0  0  0  0  0  0  0
   35.0530   28.2530   34.1970 H   0  0  0  0  0  0  0  0  0  0  0  0
  1  2  1  0  0  0  0
  2  7  2  0  0  0  0
  2  3  1  0  0  0  0
  3  4  2  0  0  0  0
  4  5  1  0  0  0  0
  4  8  1  0  0  0  0
  5  9  1  0  0  0  0
  6  5  2  0  0  0  0
  7  6  1  0  0  0  0
 10  6  1  0  0  0  0
 11 12  2  0  0  0  0
 11 16  1  0  0  0  0
 12 13  1  0  0  0  0
 13 14  2  0  0  0  0
 13  3  1  0  0  0  0
 15 19  1  0  0  0  0
 15 14  1  0  0  0  0
 16 15  2  0  0  0  0
 17 11  1  0  0  0  0
 18 12  1  0  0  0  0
 20 22  1  0  0  0  0
 20 21  2  0  0  0  0
 22  7  1  0  0  0  0
 23 22  1  0  0  0  0
 24 20  1  0  0  0  0
 25 24  1  0  0  0  0
 26 24  1  0  0  0  0
 26 29  1  0  0  0  0
 27 26  1  0  0  0  0
 28 26  1  0  0  0  0
 30 29  1  0  0  0  0
M  END
>  <minimizedAffinity>
-4.94228792

$$$$

 OpenBabel03272503063D

 30 31  0  0  0  0  0  0  0  0999 V2000
   34.7810   28.7630   34.2900 F   0  0  0  0  0  0  0  0  0  0  0  0
   35.3550   29.4830   33.2950 C   0  0  0  0  0  0  0  0  0  0  0  0
   35.4570   30.8470   33.3910 C   0  0  0  0  0  0  0  0  0  0  0  0
   36.0470   31.5050   32.3510 C   0  0  0  0  0  0  0  0  0  0  0  0
   36.5290   30.8560   31.2360 C   0  0  0  0  0  0  0  0  0  0  0  0
   36.4180   29.4860   31.1560 C   0  0  0  0  0  0  0  0  0  0  0  0
   35.8270   28.7860   32.1910 C   0  0  0  0  0  0  0  0  0  0  0  0
   36.1300   32.5790   32.4210 H   0  0  0  0  0  0  0  0  0  0  0  0
   36.9980   31.3660   30.4060 H   0  0  0  0  0  0  0  0  0  0  0  0
   36.7630   28.8590   30.3250 H   0  0  0  0  0  0  0  0  0  0  0  0
   35.1180   32.2380   36.8930 C   0  0  0  0  0  0  0  0  0  0  0  0
   35.6620   31.6220   35.7600 C   0  0  0  0  0  0  0  0  0  0  0  0
   34.9300   31.4820   34.5920 C   0  0  0  0  0  0  0  0  0  0  0  0
   33.6520   31.9830   34.6230 N   0  0  0  0  0  0  0  0  0  0  0  0
   33.1450   32.5720   35.7170 C   0  0  0  0  0  0  0  0  0  0  0  0
   33.8660   32.6980   36.8380 N   0  0  0  0  0  0  0  0  0  0  0  0
   35.7430   32.3060   37.7480 H   0  0  0  0  0  0  0  0  0  0  0  0
   36.6830   31.2340   35.7700 H   0  0  0  0  0  0  0  0  0  0  0  0
   32.1240   32.9650   35.7210 H   0  0  0  0  0  0  0  0  0  0  0  0
   36.8680   26.6570   32.5460 C   0  0  0  0  0  0  0  0  0  0  0  0
   37.8690   27.3930   32.8110 O   0  0  0  0  0  0  0  0  0  0  0  0
   35.6900   27.3580   32.1520 N   0  0  0  0  0  0  0  0  0  0  0  0
   34.8750   26.7710   31.8820 H   0  0  0  0  0  0  0  0  0  0  0  0
   36.9470   25.2390   32.6450 N   0  0  0  0  0  0  0  0  0  0  0  0
   37.1830   24.8070   33.5730 H   0  0  0  0  0  0  0  0  0  0  0  0
   36.6700   24.1880   31.3020 S   0  0  0  0  0  0  0  0  0  0  0  0
   35.2630   24.3090   30.8610 O   0  0  0  0  0  1  0  0  0  0  0  0
   36.9260   22.7500   31.6970 O   0  0  0  0  0  1  0  0  0  0  0  0
   37.7770   24.5540   30.0840 O   0  0  0  0  0  0  0  0  0  0  0  0
   37.3960   24.3980   29.1820 H   0  0  0  0  0  0  0  0  0  0  0  0
  2  3  1  0  0  0  0
  2  1  1  0  0  0  0
  3 13  1  0  0  0  0
  4  8  1  0  0  0  0
  4  3  2  0  0  0  0
  5  4  1  0  0  0  0
  6  5  2  0  0  0  0
  6  7  1  0  0  0  0
  7  2  2  0  0  0  0
  9  5  1  0  0  0  0
 10  6  1  0  0  0  0
 11 17  1  0  0  0  0
 12 18  1  0  0  0  0
 12 11  2  0  0  0  0
 13 14  2  0  0  0  0
 13 12  1  0  0  0  0
 14 15  1  0  0  0  0
 15 19  1  0  0  0  0
 15 16  2  0  0  0  0
 16 11  1  0  0  0  0
 20 24  1  0  0  0  0
 20 21  2  0  0  0  0
 22  7  1  0  0  0  0
 22 20  1  0  0  0  0
 23 22  1  0  0  0  0
 24 25  1  0  0  0  0
 26 28  1  0  0  0  0
 26 24  1  0  0  0  0
 27 26  1  0  0  0  0
 29 26  1  0  0  0  0
 30 29  1  0  0  0  0
M  END
>  <minimizedAffinity>
-4.92257881

$$$$

 OpenBabel03272503063D

 30 31  0  0  0  0  0  0  0  0999 V2000
   35.9350   28.0290   33.1640 F   0  0  0  0  0  0  0  0  0  0  0  0
   36.9980   27.9590   32.3260 C   0  0  0  0  0  0  0  0  0  0  0  0
   38.1420   27.3040   32.7050 C   0  0  0  0  0  0  0  0  0  0  0  0
   39.1710   27.2730   31.8100 C   0  0  0  0  0  0  0  0  0  0  0  0
   39.0970   27.8660   30.5700 C   0  0  0  0  0  0  0  0  0  0  0  0
   37.9410   28.5200   30.2050 C   0  0  0  0  0  0  0  0  0  0  0  0
   36.8780   28.5710   31.0870 C   0  0  0  0  0  0  0  0  0  0  0  0
   40.0740   26.7590   32.1030 H   0  0  0  0  0  0  0  0  0  0  0  0
   39.9060   27.8490   29.8520 H   0  0  0  0  0  0  0  0  0  0  0  0
   37.7620   29.0280   29.2500 H   0  0  0  0  0  0  0  0  0  0  0  0
   38.3620   26.7960   36.4480 C   0  0  0  0  0  0  0  0  0  0  0  0
   38.3460   27.4200   35.1960 C   0  0  0  0  0  0  0  0  0  0  0  0
   38.1650   26.6940   34.0300 C   0  0  0  0  0  0  0  0  0  0  0  0
   38.0030   25.3410   34.1860 N   0  0  0  0  0  0  0  0  0  0  0  0
   38.0210   24.7570   35.3940 C   0  0  0  0  0  0  0  0  0  0  0  0
   38.1980   25.4720   36.5110 N   0  0  0  0  0  0  0  0  0  0  0  0
   38.5060   27.4220   37.2930 H   0  0  0  0  0  0  0  0  0  0  0  0
   38.4780   28.5010   35.1070 H   0  0  0  0  0  0  0  0  0  0  0  0
   37.8910   23.6760   35.4970 H   0  0  0  0  0  0  0  0  0  0  0  0
   35.7280   30.6610   30.8600 C   0  0  0  0  0  0  0  0  0  0  0  0
   36.8340   31.1100   31.2930 O   0  0  0  0  0  0  0  0  0  0  0  0
   35.6540   29.2410   30.7500 N   0  0  0  0  0  0  0  0  0  0  0  0
   34.7400   28.8500   30.4450 H   0  0  0  0  0  0  0  0  0  0  0  0
   34.6580   31.5360   30.5170 N   0  0  0  0  0  0  0  0  0  0  0  0
   34.8100   32.2520   29.7640 H   0  0  0  0  0  0  0  0  0  0  0  0
   33.1120   31.4730   31.2850 S   0  0  0  0  0  0  0  0  0  0  0  0
   32.9690   32.6230   32.2050 O   0  0  0  0  0  1  0  0  0  0  0  0
   32.9740   30.1970   32.0870 O   0  0  0  0  0  1  0  0  0  0  0  0
   31.9150   31.4240   30.1000 O   0  0  0  0  0  0  0  0  0  0  0  0
   31.0850   31.8790   30.3950 H   0  0  0  0  0  0  0  0  0  0  0  0
  2  3  1  0  0  0  0
  2  1  1  0  0  0  0
  3 13  1  0  0  0  0
  4  8  1  0  0  0  0
  4  3  2  0  0  0  0
  5  4  1  0  0  0  0
  6  5  2  0  0  0  0
  6  7  1  0  0  0  0
  7  2  2  0  0  0  0
  9  5  1  0  0  0  0
 10  6  1  0  0  0  0
 11 16  1  0  0  0  0
 11 17  1  0  0  0  0
 12 11  2  0  0  0  0
 13 14  2  0  0  0  0
 13 12  1  0  0  0  0
 14 15  1  0  0  0  0
 15 19  1  0  0  0  0
 15 16  2  0  0  0  0
 18 12  1  0  0  0  0
 20 21  2  0  0  0  0
 22 20  1  0  0  0  0
 22  7  1  0  0  0  0
 23 22  1  0  0  0  0
 24 20  1  0  0  0  0
 24 26  1  0  0  0  0
 25 24  1  0  0  0  0
 26 28  1  0  0  0  0
 26 27  1  0  0  0  0
 29 30  1  0  0  0  0
 29 26  1  0  0  0  0
M  END
>  <minimizedAffinity>
-4.91677237

$$$$

 OpenBabel03272503063D

 30 31  0  0  0  0  0  0  0  0999 V2000
   36.1740   28.2530   34.9800 F   0  0  0  0  0  0  0  0  0  0  0  0
   36.2610   28.4390   33.6400 C   0  0  0  0  0  0  0  0  0  0  0  0
   37.1780   27.7380   32.8980 C   0  0  0  0  0  0  0  0  0  0  0  0
   37.2070   27.9770   31.5550 C   0  0  0  0  0  0  0  0  0  0  0  0
   36.3670   28.8770   30.9390 C   0  0  0  0  0  0  0  0  0  0  0  0
   35.4530   29.5720   31.6990 C   0  0  0  0  0  0  0  0  0  0  0  0
   35.3950   29.3560   33.0630 C   0  0  0  0  0  0  0  0  0  0  0  0
   37.9260   27.4280   30.9650 H   0  0  0  0  0  0  0  0  0  0  0  0
   36.3820   29.0750   29.8750 H   0  0  0  0  0  0  0  0  0  0  0  0
   34.7350   30.3120   31.3270 H   0  0  0  0  0  0  0  0  0  0  0  0
   40.1080   26.1930   34.7250 C   0  0  0  0  0  0  0  0  0  0  0  0
   39.3100   27.1260   34.0530 C   0  0  0  0  0  0  0  0  0  0  0  0
   38.0420   26.7980   33.6010 C   0  0  0  0  0  0  0  0  0  0  0  0
   37.6280   25.5150   33.8550 N   0  0  0  0  0  0  0  0  0  0  0  0
   38.4050   24.6310   34.5010 C   0  0  0  0  0  0  0  0  0  0  0  0
   39.6290   24.9630   34.9310 N   0  0  0  0  0  0  0  0  0  0  0  0
   41.0670   26.5210   35.0380 H   0  0  0  0  0  0  0  0  0  0  0  0
   39.6700   28.1390   33.8670 H   0  0  0  0  0  0  0  0  0  0  0  0
   38.0570   23.6120   34.6940 H   0  0  0  0  0  0  0  0  0  0  0  0
   34.8440   31.3990   34.1880 C   0  0  0  0  0  0  0  0  0  0  0  0
   35.9730   31.7480   33.7230 O   0  0  0  0  0  0  0  0  0  0  0  0
   34.4590   30.0570   33.8960 N   0  0  0  0  0  0  0  0  0  0  0  0
   33.5600   29.7360   34.3090 H   0  0  0  0  0  0  0  0  0  0  0  0
   34.0420   32.3040   34.9400 N   0  0  0  0  0  0  0  0  0  0  0  0
   33.7260   33.1980   34.4890 H   0  0  0  0  0  0  0  0  0  0  0  0
   33.5630   31.9980   36.5720 S   0  0  0  0  0  0  0  0  0  0  0  0
   32.8990   30.6780   36.6530 O   0  0  0  0  0  1  0  0  0  0  0  0
   32.5870   33.0550   37.0410 O   0  0  0  0  0  1  0  0  0  0  0  0
   34.9150   32.1190   37.5710 O   0  0  0  0  0  0  0  0  0  0  0  0
   34.8560   31.5030   38.3460 H   0  0  0  0  0  0  0  0  0  0  0  0
  2  1  1  0  0  0  0
  3 13  1  0  0  0  0
  3  2  2  0  0  0  0
  4  3  1  0  0  0  0
  5  4  2  0  0  0  0
  5  6  1  0  0  0  0
  6  7  2  0  0  0  0
  7  2  1  0  0  0  0
  7 22  1  0  0  0  0
  8  4  1  0  0  0  0
  9  5  1  0  0  0  0
 10  6  1  0  0  0  0
 11 16  1  0  0  0  0
 11 17  1  0  0  0  0
 12 11  2  0  0  0  0
 13 14  2  0  0  0  0
 13 12  1  0  0  0  0
 14 15  1  0  0  0  0
 15 19  1  0  0  0  0
 15 16  2  0  0  0  0
 18 12  1  0  0  0  0
 20 24  1  0  0  0  0
 21 20  2  0  0  0  0
 22 20  1  0  0  0  0
 22 23  1  0  0  0  0
 24 26  1  0  0  0  0
 25 24  1  0  0  0  0
 26 27  1  0  0  0  0
 26 28  1  0  0  0  0
 26 29  1  0  0  0  0
 29 30  1  0  0  0  0
M  END
>  <minimizedAffinity>
-4.90217972

$$$$

 OpenBabel03272503063D

 30 31  0  0  0  0  0  0  0  0999 V2000
   38.0730   24.8000   33.9370 F   0  0  0  0  0  0  0  0  0  0  0  0
   37.7050   23.5680   33.5070 C   0  0  0  0  0  0  0  0  0  0  0  0
   37.8290   22.4770   34.3290 C   0  0  0  0  0  0  0  0  0  0  0  0
   37.4380   21.2700   33.8290 C   0  0  0  0  0  0  0  0  0  0  0  0
   36.9380   21.1180   32.5560 C   0  0  0  0  0  0  0  0  0  0  0  0
   36.8200   22.2230   31.7430 C   0  0  0  0  0  0  0  0  0  0  0  0
   37.2060   23.4630   32.2170 C   0  0  0  0  0  0  0  0  0  0  0  0
   37.5330   20.4070   34.4720 H   0  0  0  0  0  0  0  0  0  0  0  0
   36.6250   20.1650   32.1480 H   0  0  0  0  0  0  0  0  0  0  0  0
   36.4380   22.2300   30.7150 H   0  0  0  0  0  0  0  0  0  0  0  0
   40.1430   22.6110   37.3200 C   0  0  0  0  0  0  0  0  0  0  0  0
   39.6670   22.3850   36.0230 C   0  0  0  0  0  0  0  0  0  0  0  0
   38.3650   22.6960   35.6670 C   0  0  0  0  0  0  0  0  0  0  0  0
   37.5850   23.2350   36.6600 N   0  0  0  0  0  0  0  0  0  0  0  0
   38.0560   23.4460   37.8990 C   0  0  0  0  0  0  0  0  0  0  0  0
   39.3160   23.1390   38.2270 N   0  0  0  0  0  0  0  0  0  0  0  0
   41.1520   22.3460   37.5130 H   0  0  0  0  0  0  0  0  0  0  0  0
   40.3150   21.9550   35.2570 H   0  0  0  0  0  0  0  0  0  0  0  0
   37.4180   23.8750   38.6770 H   0  0  0  0  0  0  0  0  0  0  0  0
   38.2970   24.9560   30.6920 C   0  0  0  0  0  0  0  0  0  0  0  0
   39.2800   24.1860   30.9260 O   0  0  0  0  0  0  0  0  0  0  0  0
   37.1020   24.6430   31.4060 N   0  0  0  0  0  0  0  0  0  0  0  0
   36.3000   25.2900   31.2670 H   0  0  0  0  0  0  0  0  0  0  0  0
   38.4080   26.0420   29.7780 N   0  0  0  0  0  0  0  0  0  0  0  0
   38.6550   25.8400   28.7770 H   0  0  0  0  0  0  0  0  0  0  0  0
   38.1540   27.6870   30.2410 S   0  0  0  0  0  0  0  0  0  0  0  0
   39.3940   28.4620   30.0120 O   0  0  0  0  0  1  0  0  0  0  0  0
   37.8010   27.7720   31.7100 O   0  0  0  0  0  1  0  0  0  0  0  0
   36.8300   28.2950   29.3940 O   0  0  0  0  0  0  0  0  0  0  0  0
   36.9270   29.2630   29.2060 H   0  0  0  0  0  0  0  0  0  0  0  0
  2  1  1  0  0  0  0
  2  3  1  0  0  0  0
  3 13  1  0  0  0  0
  4  3  2  0  0  0  0
  4  8  1  0  0  0  0
  5  4  1  0  0  0  0
  6  7  1  0  0  0  0
  6  5  2  0  0  0  0
  7  2  2  0  0  0  0
  9  5  1  0  0  0  0
 10  6  1  0  0  0  0
 11 17  1  0  0  0  0
 11 16  1  0  0  0  0
 12 11  2  0  0  0  0
 13 12  1  0  0  0  0
 13 14  2  0  0  0  0
 14 15  1  0  0  0  0
 15 16  2  0  0  0  0
 15 19  1  0  0  0  0
 18 12  1  0  0  0  0
 20 21  2  0  0  0  0
 20 22  1  0  0  0  0
 22  7  1  0  0  0  0
 23 22  1  0  0  0  0
 24 26  1  0  0  0  0
 24 20  1  0  0  0  0
 25 24  1  0  0  0  0
 26 28  1  0  0  0  0
 27 26  1  0  0  0  0
 29 26  1  0  0  0  0
 30 29  1  0  0  0  0
M  END
>  <minimizedAffinity>
-4.85455227

$$$$
