
 OpenBabel03272506043D

 28 29  0  0  0  0  0  0  0  0999 V2000
   34.4620   28.4100   49.3550 C   0  0  0  0  0  0  0  0  0  0  0  0
   34.5070   27.6260   50.1380 H   0  0  0  0  0  0  0  0  0  0  0  0
   35.3420   28.1850   48.6870 H   0  0  0  0  0  0  0  0  0  0  0  0
   33.2100   28.2830   48.5280 C   0  0  0  0  0  0  0  0  0  0  0  0
   33.1930   28.8750   47.2140 C   0  0  0  0  0  0  0  0  0  0  0  0
   31.5550   28.4590   46.6810 S   0  0  0  0  0  0  0  0  0  0  0  0
   31.1300   27.5630   48.2740 C   0  0  0  0  0  0  0  0  0  0  0  0
   32.1270   27.6690   48.9200 N   0  0  0  0  0  0  0  0  0  0  0  0
   34.0590   29.4370   46.7440 H   0  0  0  0  0  0  0  0  0  0  0  0
   29.7640   26.9640   48.3880 N   0  0  0  0  0  0  0  0  0  0  0  0
   29.6520   26.2750   47.6400 H   0  0  0  0  0  0  0  0  0  0  0  0
   28.6650   27.4390   49.6160 S   0  0  0  0  0  0  0  0  0  0  0  0
   28.6120   28.9410   49.6570 O   0  0  0  0  0  0  0  0  0  0  0  0
   29.1050   26.9490   50.9430 O   0  0  0  0  0  0  0  0  0  0  0  0
   27.1320   26.8320   49.2430 O   0  0  0  0  0  0  0  0  0  0  0  0
   27.2950   25.9660   48.7830 H   0  0  0  0  0  0  0  0  0  0  0  0
   34.5940   29.7420   49.9920 C   0  0  0  0  0  0  0  0  0  0  0  0
   34.6320   29.6950   51.1100 H   0  0  0  0  0  0  0  0  0  0  0  0
   33.7600   30.4120   49.6910 H   0  0  0  0  0  0  0  0  0  0  0  0
   37.4400   32.1160   49.6820 C   0  0  0  0  0  0  0  0  0  0  0  0
   38.1960   31.5460   48.6600 C   0  0  0  0  0  0  0  0  0  0  0  0
   37.7230   30.3610   48.0920 C   0  0  0  0  0  0  0  0  0  0  0  0
   36.5640   29.8260   48.5560 N   0  0  0  0  0  0  0  0  0  0  0  0
   35.8730   30.4220   49.5490 C   0  0  0  0  0  0  0  0  0  0  0  0
   36.2910   31.5540   50.1190 N   0  0  0  0  0  0  0  0  0  0  0  0
   37.8450   33.0250   50.0860 H   0  0  0  0  0  0  0  0  0  0  0  0
   39.1180   31.9880   48.3040 H   0  0  0  0  0  0  0  0  0  0  0  0
   38.2670   29.8710   47.2940 H   0  0  0  0  0  0  0  0  0  0  0  0
  1 17  1  0  0  0  0
  1  2  1  0  0  0  0
  3  1  1  0  0  0  0
  4  8  1  0  0  0  0
  4  1  1  0  0  0  0
  5  4  2  0  0  0  0
  6  5  1  0  0  0  0
  6  7  1  0  0  0  0
  7 10  1  0  0  0  0
  7  8  2  0  0  0  0
  9  5  1  0  0  0  0
 10 12  1  0  0  0  0
 11 10  1  0  0  0  0
 12 13  1  0  0  0  0
 12 14  1  0  0  0  0
 15 12  1  0  0  0  0
 16 15  1  0  0  0  0
 17 18  1  0  0  0  0
 19 17  1  0  0  0  0
 20 26  1  0  0  0  0
 20 25  1  0  0  0  0
 21 20  2  0  0  0  0
 22 23  2  0  0  0  0
 22 21  1  0  0  0  0
 23 24  1  0  0  0  0
 24 17  1  0  0  0  0
 24 25  2  0  0  0  0
 27 21  1  0  0  0  0
 28 22  1  0  0  0  0
M  END
>  <minimizedAffinity>
-5.24055576

>  <minimizedRMSD>
1.92198348

$$$$
