
 OpenBabel03262521523D

 20 20  0  0  0  0  0  0  0  0999 V2000
   38.2850   25.7570   34.2820 S   0  0  0  0  0  0  0  0  0  0  0  0
   37.1390   25.6570   32.9220 C   0  0  0  0  0  0  0  0  0  0  0  0
   36.6810   26.9270   32.5590 C   0  0  0  0  0  0  0  0  0  0  0  0
   35.7630   27.0060   31.4910 C   0  0  0  0  0  0  0  0  0  0  0  0
   35.3690   25.8470   30.8690 N   0  0  0  0  0  0  0  0  0  0  0  0
   35.8580   24.6520   31.2770 C   0  0  0  0  0  0  0  0  0  0  0  0
   36.7290   24.5700   32.2890 N   0  0  0  0  0  0  0  0  0  0  0  0
   36.9500   27.8880   33.0080 H   0  0  0  0  0  0  0  0  0  0  0  0
   35.3600   27.9560   31.1490 H   0  0  0  0  0  0  0  0  0  0  0  0
   35.5080   23.7820   30.7450 H   0  0  0  0  0  0  0  0  0  0  0  0
   38.1930   24.1860   35.1730 C   0  0  0  0  0  0  0  0  0  0  0  0
   38.3560   23.3080   34.5540 H   0  0  0  0  0  0  0  0  0  0  0  0
   37.1430   24.1260   35.5610 H   0  0  0  0  0  0  0  0  0  0  0  0
   39.0750   24.2540   36.3210 N   0  0  0  0  0  0  0  0  0  0  0  0
   39.2790   25.2480   36.5770 H   0  0  0  0  0  0  0  0  0  0  0  0
   38.3560   23.5400   37.7180 S   0  0  0  0  0  0  0  0  0  0  0  0
   37.1050   22.8210   37.2730 O   0  0  0  0  0  1  0  0  0  0  0  0
   38.0110   24.6480   38.6720 O   0  0  0  0  0  1  0  0  0  0  0  0
   39.4600   22.4620   38.3860 O   0  0  0  0  0  0  0  0  0  0  0  0
   39.7090   22.7100   39.3240 H   0  0  0  0  0  0  0  0  0  0  0  0
  1 11  1  0  0  0  0
  2  1  1  0  0  0  0
  3  2  1  0  0  0  0
  3  8  1  0  0  0  0
  4  3  2  0  0  0  0
  5  6  2  0  0  0  0
  5  4  1  0  0  0  0
  6  7  1  0  0  0  0
  7  2  2  0  0  0  0
  9  4  1  0  0  0  0
 10  6  1  0  0  0  0
 11 13  1  0  0  0  0
 11 14  1  0  0  0  0
 12 11  1  0  0  0  0
 14 15  1  0  0  0  0
 14 16  1  0  0  0  0
 16 19  1  0  0  0  0
 16 18  1  0  0  0  0
 17 16  1  0  0  0  0
 19 20  1  0  0  0  0
M  END
>  <minimizedAffinity>
-3.8510561

$$$$

 OpenBabel03262521523D

 20 20  0  0  0  0  0  0  0  0999 V2000
   38.1870   26.8890   35.6060 S   0  0  0  0  0  0  0  0  0  0  0  0
   37.0670   27.5920   34.4110 C   0  0  0  0  0  0  0  0  0  0  0  0
   37.1210   26.8900   33.2030 C   0  0  0  0  0  0  0  0  0  0  0  0
   36.2850   27.3340   32.1570 C   0  0  0  0  0  0  0  0  0  0  0  0
   35.4720   28.4190   32.3740 N   0  0  0  0  0  0  0  0  0  0  0  0
   35.4760   29.0470   33.5730 C   0  0  0  0  0  0  0  0  0  0  0  0
   36.2650   28.6320   34.5690 N   0  0  0  0  0  0  0  0  0  0  0  0
   37.7410   26.0220   32.9620 H   0  0  0  0  0  0  0  0  0  0  0  0
   36.2680   26.8420   31.1880 H   0  0  0  0  0  0  0  0  0  0  0  0
   34.8120   29.8920   33.6760 H   0  0  0  0  0  0  0  0  0  0  0  0
   37.9110   25.1020   35.6080 C   0  0  0  0  0  0  0  0  0  0  0  0
   37.7750   24.6660   34.6220 H   0  0  0  0  0  0  0  0  0  0  0  0
   36.9530   24.9520   36.1700 H   0  0  0  0  0  0  0  0  0  0  0  0
   38.9670   24.4730   36.3770 N   0  0  0  0  0  0  0  0  0  0  0  0
   39.6230   25.1890   36.7650 H   0  0  0  0  0  0  0  0  0  0  0  0
   38.3380   23.6160   37.7360 S   0  0  0  0  0  0  0  0  0  0  0  0
   37.1180   22.8560   37.2750 O   0  0  0  0  0  1  0  0  0  0  0  0
   37.9600   24.6280   38.7810 O   0  0  0  0  0  1  0  0  0  0  0  0
   39.5260   22.5620   38.2900 O   0  0  0  0  0  0  0  0  0  0  0  0
   39.7910   22.7560   39.2360 H   0  0  0  0  0  0  0  0  0  0  0  0
  1 11  1  0  0  0  0
  2  7  1  0  0  0  0
  2  1  1  0  0  0  0
  3  2  2  0  0  0  0
  4  5  2  0  0  0  0
  4  3  1  0  0  0  0
  5  6  1  0  0  0  0
  6 10  1  0  0  0  0
  6  7  2  0  0  0  0
  8  3  1  0  0  0  0
  9  4  1  0  0  0  0
 11 13  1  0  0  0  0
 11 14  1  0  0  0  0
 12 11  1  0  0  0  0
 14 15  1  0  0  0  0
 14 16  1  0  0  0  0
 16 19  1  0  0  0  0
 16 18  1  0  0  0  0
 17 16  1  0  0  0  0
 19 20  1  0  0  0  0
M  END
>  <minimizedAffinity>
-3.82649755

$$$$

 OpenBabel03262521523D

 20 20  0  0  0  0  0  0  0  0999 V2000
   38.1050   22.8950   34.3090 S   0  0  0  0  0  0  0  0  0  0  0  0
   38.3710   23.0800   36.0610 C   0  0  0  0  0  0  0  0  0  0  0  0
   39.6520   22.6500   36.4200 C   0  0  0  0  0  0  0  0  0  0  0  0
   40.0090   22.7360   37.7820 C   0  0  0  0  0  0  0  0  0  0  0  0
   39.0910   23.2300   38.6770 N   0  0  0  0  0  0  0  0  0  0  0  0
   37.8680   23.6280   38.2530 C   0  0  0  0  0  0  0  0  0  0  0  0
   37.5240   23.5490   36.9630 N   0  0  0  0  0  0  0  0  0  0  0  0
   40.4300   22.2480   35.7640 H   0  0  0  0  0  0  0  0  0  0  0  0
   40.9850   22.4230   38.1420 H   0  0  0  0  0  0  0  0  0  0  0  0
   37.1970   24.0070   39.0070 H   0  0  0  0  0  0  0  0  0  0  0  0
   38.1230   24.5540   33.5900 C   0  0  0  0  0  0  0  0  0  0  0  0
   37.4640   24.6810   32.7350 H   0  0  0  0  0  0  0  0  0  0  0  0
   39.1710   24.7070   33.2250 H   0  0  0  0  0  0  0  0  0  0  0  0
   37.8870   25.5180   34.6470 N   0  0  0  0  0  0  0  0  0  0  0  0
   37.7830   25.0390   35.5720 H   0  0  0  0  0  0  0  0  0  0  0  0
   39.2160   26.6060   34.8210 S   0  0  0  0  0  0  0  0  0  0  0  0
   39.3470   27.3790   33.5310 O   0  0  0  0  0  1  0  0  0  0  0  0
   40.4500   25.7860   35.0670 O   0  0  0  0  0  1  0  0  0  0  0  0
   38.8860   27.6390   36.1070 O   0  0  0  0  0  0  0  0  0  0  0  0
   39.5700   27.5640   36.8350 H   0  0  0  0  0  0  0  0  0  0  0  0
  1  2  1  0  0  0  0
  2  3  2  0  0  0  0
  2  7  1  0  0  0  0
  3  4  1  0  0  0  0
  4  9  1  0  0  0  0
  4  5  2  0  0  0  0
  6  5  1  0  0  0  0
  6 10  1  0  0  0  0
  7  6  2  0  0  0  0
  8  3  1  0  0  0  0
 11  1  1  0  0  0  0
 11 14  1  0  0  0  0
 12 11  1  0  0  0  0
 13 11  1  0  0  0  0
 14 16  1  0  0  0  0
 14 15  1  0  0  0  0
 16 18  1  0  0  0  0
 16 19  1  0  0  0  0
 17 16  1  0  0  0  0
 19 20  1  0  0  0  0
M  END
>  <minimizedAffinity>
-3.7015872

$$$$

 OpenBabel03262521523D

 20 20  0  0  0  0  0  0  0  0999 V2000
   37.7470   25.7440   35.0700 S   0  0  0  0  0  0  0  0  0  0  0  0
   38.5930   24.5630   36.1010 C   0  0  0  0  0  0  0  0  0  0  0  0
   37.9680   24.4490   37.3470 C   0  0  0  0  0  0  0  0  0  0  0  0
   38.5280   23.5470   38.2750 C   0  0  0  0  0  0  0  0  0  0  0  0
   39.6460   22.8350   37.9150 N   0  0  0  0  0  0  0  0  0  0  0  0
   40.1950   22.9990   36.6880 C   0  0  0  0  0  0  0  0  0  0  0  0
   39.6690   23.8530   35.8030 N   0  0  0  0  0  0  0  0  0  0  0  0
   37.0800   24.9820   37.7000 H   0  0  0  0  0  0  0  0  0  0  0  0
   38.1020   23.4010   39.2640 H   0  0  0  0  0  0  0  0  0  0  0  0
   41.0710   22.4090   36.4690 H   0  0  0  0  0  0  0  0  0  0  0  0
   37.7950   25.1050   33.3790 C   0  0  0  0  0  0  0  0  0  0  0  0
   37.7360   24.0220   33.3050 H   0  0  0  0  0  0  0  0  0  0  0  0
   38.7960   25.4080   32.9760 H   0  0  0  0  0  0  0  0  0  0  0  0
   36.7870   25.7930   32.5970 N   0  0  0  0  0  0  0  0  0  0  0  0
   37.1870   26.6440   32.1390 H   0  0  0  0  0  0  0  0  0  0  0  0
   36.1870   24.7990   31.3200 S   0  0  0  0  0  0  0  0  0  0  0  0
   34.9750   25.4830   30.7370 O   0  0  0  0  0  1  0  0  0  0  0  0
   35.8040   23.4730   31.9140 O   0  0  0  0  0  1  0  0  0  0  0  0
   37.3980   24.6390   30.1640 O   0  0  0  0  0  0  0  0  0  0  0  0
   37.6700   23.6850   30.0330 H   0  0  0  0  0  0  0  0  0  0  0  0
  1  2  1  0  0  0  0
  2  3  1  0  0  0  0
  3  8  1  0  0  0  0
  3  4  2  0  0  0  0
  4  9  1  0  0  0  0
  5  4  1  0  0  0  0
  6  5  2  0  0  0  0
  7  2  2  0  0  0  0
  7  6  1  0  0  0  0
 10  6  1  0  0  0  0
 11  1  1  0  0  0  0
 12 11  1  0  0  0  0
 13 11  1  0  0  0  0
 14 11  1  0  0  0  0
 15 14  1  0  0  0  0
 16 18  1  0  0  0  0
 16 14  1  0  0  0  0
 17 16  1  0  0  0  0
 19 16  1  0  0  0  0
 20 19  1  0  0  0  0
M  END
>  <minimizedAffinity>
-3.67923546

$$$$

 OpenBabel03262521523D

 20 20  0  0  0  0  0  0  0  0999 V2000
   38.9270   23.5640   34.2800 S   0  0  0  0  0  0  0  0  0  0  0  0
   38.4970   25.2430   34.6910 C   0  0  0  0  0  0  0  0  0  0  0  0
   37.5070   25.7300   33.8320 C   0  0  0  0  0  0  0  0  0  0  0  0
   37.0630   27.0530   34.0360 C   0  0  0  0  0  0  0  0  0  0  0  0
   37.6190   27.7880   35.0540 N   0  0  0  0  0  0  0  0  0  0  0  0
   38.5740   27.2470   35.8460 C   0  0  0  0  0  0  0  0  0  0  0  0
   38.9990   25.9930   35.6580 N   0  0  0  0  0  0  0  0  0  0  0  0
   37.0230   25.2040   33.0040 H   0  0  0  0  0  0  0  0  0  0  0  0
   36.2970   27.5050   33.4110 H   0  0  0  0  0  0  0  0  0  0  0  0
   38.9670   27.8780   36.6270 H   0  0  0  0  0  0  0  0  0  0  0  0
   38.5360   22.5460   35.7220 C   0  0  0  0  0  0  0  0  0  0  0  0
   39.4040   22.1700   36.2560 H   0  0  0  0  0  0  0  0  0  0  0  0
   37.9880   21.6560   35.3160 H   0  0  0  0  0  0  0  0  0  0  0  0
   37.6110   23.2760   36.5650 N   0  0  0  0  0  0  0  0  0  0  0  0
   36.6860   22.7900   36.6140 H   0  0  0  0  0  0  0  0  0  0  0  0
   38.1810   23.3800   38.1910 S   0  0  0  0  0  0  0  0  0  0  0  0
   38.0100   24.8080   38.6470 O   0  0  0  0  0  1  0  0  0  0  0  0
   39.6350   23.0010   38.1910 O   0  0  0  0  0  1  0  0  0  0  0  0
   37.2640   22.3360   39.1380 O   0  0  0  0  0  0  0  0  0  0  0  0
   37.8260   21.6290   39.5720 H   0  0  0  0  0  0  0  0  0  0  0  0
  1  2  1  0  0  0  0
  1 11  1  0  0  0  0
  2  7  1  0  0  0  0
  3  4  1  0  0  0  0
  3  2  2  0  0  0  0
  4  5  2  0  0  0  0
  5  6  1  0  0  0  0
  6 10  1  0  0  0  0
  7  6  2  0  0  0  0
  8  3  1  0  0  0  0
  9  4  1  0  0  0  0
 11 12  1  0  0  0  0
 11 14  1  0  0  0  0
 13 11  1  0  0  0  0
 14 15  1  0  0  0  0
 14 16  1  0  0  0  0
 16 18  1  0  0  0  0
 16 17  1  0  0  0  0
 16 19  1  0  0  0  0
 19 20  1  0  0  0  0
M  END
>  <minimizedAffinity>
-3.66047812

$$$$

 OpenBabel03262521523D

 20 20  0  0  0  0  0  0  0  0999 V2000
   37.9740   27.1690   35.3020 S   0  0  0  0  0  0  0  0  0  0  0  0
   37.1530   26.8550   33.7520 C   0  0  0  0  0  0  0  0  0  0  0  0
   36.5640   28.0210   33.2530 C   0  0  0  0  0  0  0  0  0  0  0  0
   35.8740   27.9270   32.0270 C   0  0  0  0  0  0  0  0  0  0  0  0
   35.8140   26.7100   31.3920 N   0  0  0  0  0  0  0  0  0  0  0  0
   36.4100   25.6240   31.9380 C   0  0  0  0  0  0  0  0  0  0  0  0
   37.0670   25.7060   33.1010 N   0  0  0  0  0  0  0  0  0  0  0  0
   36.5720   29.0180   33.7030 H   0  0  0  0  0  0  0  0  0  0  0  0
   35.3900   28.7870   31.5720 H   0  0  0  0  0  0  0  0  0  0  0  0
   36.3260   24.7010   31.3880 H   0  0  0  0  0  0  0  0  0  0  0  0
   38.7920   25.6330   35.7910 C   0  0  0  0  0  0  0  0  0  0  0  0
   39.4910   25.7380   36.6170 H   0  0  0  0  0  0  0  0  0  0  0  0
   39.3860   25.3150   34.8950 H   0  0  0  0  0  0  0  0  0  0  0  0
   37.7790   24.6220   36.0190 N   0  0  0  0  0  0  0  0  0  0  0  0
   37.7330   23.9520   35.2170 H   0  0  0  0  0  0  0  0  0  0  0  0
   38.1330   23.6710   37.4150 S   0  0  0  0  0  0  0  0  0  0  0  0
   37.9740   24.5560   38.6260 O   0  0  0  0  0  1  0  0  0  0  0  0
   39.5540   23.1970   37.2970 O   0  0  0  0  0  1  0  0  0  0  0  0
   37.0490   22.3860   37.4660 O   0  0  0  0  0  0  0  0  0  0  0  0
   37.5130   21.4990   37.4270 H   0  0  0  0  0  0  0  0  0  0  0  0
  1 11  1  0  0  0  0
  2  1  1  0  0  0  0
  3  8  1  0  0  0  0
  3  2  1  0  0  0  0
  4  3  2  0  0  0  0
  5  6  2  0  0  0  0
  5  4  1  0  0  0  0
  6  7  1  0  0  0  0
  7  2  2  0  0  0  0
  9  4  1  0  0  0  0
 10  6  1  0  0  0  0
 11 14  1  0  0  0  0
 11 12  1  0  0  0  0
 13 11  1  0  0  0  0
 14 16  1  0  0  0  0
 15 14  1  0  0  0  0
 16 19  1  0  0  0  0
 16 17  1  0  0  0  0
 18 16  1  0  0  0  0
 20 19  1  0  0  0  0
M  END
>  <minimizedAffinity>
-3.63503766

$$$$

 OpenBabel03262521523D

 20 20  0  0  0  0  0  0  0  0999 V2000
   38.6550   27.0350   35.6440 S   0  0  0  0  0  0  0  0  0  0  0  0
   40.0500   26.7730   34.5680 C   0  0  0  0  0  0  0  0  0  0  0  0
   39.7450   27.1470   33.2560 C   0  0  0  0  0  0  0  0  0  0  0  0
   40.7580   26.9940   32.2860 C   0  0  0  0  0  0  0  0  0  0  0  0
   41.9760   26.4920   32.6730 N   0  0  0  0  0  0  0  0  0  0  0  0
   42.1960   26.1520   33.9650 C   0  0  0  0  0  0  0  0  0  0  0  0
   41.2400   26.2940   34.8900 N   0  0  0  0  0  0  0  0  0  0  0  0
   38.8020   27.5510   32.8780 H   0  0  0  0  0  0  0  0  0  0  0  0
   40.6010   27.2610   31.2440 H   0  0  0  0  0  0  0  0  0  0  0  0
   43.1740   25.7650   34.2010 H   0  0  0  0  0  0  0  0  0  0  0  0
   37.8580   25.4300   35.8860 C   0  0  0  0  0  0  0  0  0  0  0  0
   37.2830   25.0800   35.0330 H   0  0  0  0  0  0  0  0  0  0  0  0
   37.1370   25.5810   36.7300 H   0  0  0  0  0  0  0  0  0  0  0  0
   38.8590   24.4820   36.3350 N   0  0  0  0  0  0  0  0  0  0  0  0
   39.7350   24.9740   36.6270 H   0  0  0  0  0  0  0  0  0  0  0  0
   38.3220   23.6010   37.7190 S   0  0  0  0  0  0  0  0  0  0  0  0
   37.0930   22.8230   37.3190 O   0  0  0  0  0  1  0  0  0  0  0  0
   37.9840   24.5970   38.7920 O   0  0  0  0  0  1  0  0  0  0  0  0
   39.5580   22.5650   38.1960 O   0  0  0  0  0  0  0  0  0  0  0  0
   39.8720   22.7560   39.1270 H   0  0  0  0  0  0  0  0  0  0  0  0
  1 11  1  0  0  0  0
  2  7  1  0  0  0  0
  2  1  1  0  0  0  0
  3  2  2  0  0  0  0
  4  5  2  0  0  0  0
  4  3  1  0  0  0  0
  5  6  1  0  0  0  0
  6 10  1  0  0  0  0
  6  7  2  0  0  0  0
  8  3  1  0  0  0  0
  9  4  1  0  0  0  0
 11 14  1  0  0  0  0
 11 13  1  0  0  0  0
 12 11  1  0  0  0  0
 14 15  1  0  0  0  0
 14 16  1  0  0  0  0
 16 19  1  0  0  0  0
 16 18  1  0  0  0  0
 17 16  1  0  0  0  0
 19 20  1  0  0  0  0
M  END
>  <minimizedAffinity>
-3.60175562

$$$$

 OpenBabel03262521523D

 20 20  0  0  0  0  0  0  0  0999 V2000
   38.4770   26.0790   34.3040 S   0  0  0  0  0  0  0  0  0  0  0  0
   37.6630   24.8200   33.3420 C   0  0  0  0  0  0  0  0  0  0  0  0
   36.7980   25.3900   32.4030 C   0  0  0  0  0  0  0  0  0  0  0  0
   36.0790   24.5120   31.5650 C   0  0  0  0  0  0  0  0  0  0  0  0
   36.2610   23.1580   31.7120 N   0  0  0  0  0  0  0  0  0  0  0  0
   37.1180   22.6810   32.6460 C   0  0  0  0  0  0  0  0  0  0  0  0
   37.8030   23.5080   33.4430 N   0  0  0  0  0  0  0  0  0  0  0  0
   36.6040   26.4530   32.2310 H   0  0  0  0  0  0  0  0  0  0  0  0
   35.3870   24.8750   30.8100 H   0  0  0  0  0  0  0  0  0  0  0  0
   37.2140   21.6090   32.7080 H   0  0  0  0  0  0  0  0  0  0  0  0
   38.2840   25.6290   36.0440 C   0  0  0  0  0  0  0  0  0  0  0  0
   37.2570   25.6360   36.4000 H   0  0  0  0  0  0  0  0  0  0  0  0
   38.8370   26.4180   36.6170 H   0  0  0  0  0  0  0  0  0  0  0  0
   38.9650   24.3700   36.2730 N   0  0  0  0  0  0  0  0  0  0  0  0
   39.9800   24.5260   36.4760 H   0  0  0  0  0  0  0  0  0  0  0  0
   38.3260   23.5430   37.6470 S   0  0  0  0  0  0  0  0  0  0  0  0
   37.0960   22.7920   37.1990 O   0  0  0  0  0  1  0  0  0  0  0  0
   37.9620   24.5770   38.6750 O   0  0  0  0  0  1  0  0  0  0  0  0
   39.5000   22.4830   38.2170 O   0  0  0  0  0  0  0  0  0  0  0  0
   39.7690   22.6890   39.1600 H   0  0  0  0  0  0  0  0  0  0  0  0
  1 11  1  0  0  0  0
  2  7  1  0  0  0  0
  2  1  1  0  0  0  0
  3  2  2  0  0  0  0
  4  5  2  0  0  0  0
  4  3  1  0  0  0  0
  5  6  1  0  0  0  0
  6 10  1  0  0  0  0
  6  7  2  0  0  0  0
  8  3  1  0  0  0  0
  9  4  1  0  0  0  0
 11 14  1  0  0  0  0
 11 12  1  0  0  0  0
 11 13  1  0  0  0  0
 14 15  1  0  0  0  0
 14 16  1  0  0  0  0
 16 19  1  0  0  0  0
 16 18  1  0  0  0  0
 17 16  1  0  0  0  0
 19 20  1  0  0  0  0
M  END
>  <minimizedAffinity>
-3.5929687

$$$$

 OpenBabel03262521523D

 20 20  0  0  0  0  0  0  0  0999 V2000
   38.6240   25.5150   33.7230 S   0  0  0  0  0  0  0  0  0  0  0  0
   37.2430   25.4460   32.5990 C   0  0  0  0  0  0  0  0  0  0  0  0
   36.9290   24.1230   32.2730 C   0  0  0  0  0  0  0  0  0  0  0  0
   35.8520   23.9110   31.3870 C   0  0  0  0  0  0  0  0  0  0  0  0
   35.1750   24.9990   30.8950 N   0  0  0  0  0  0  0  0  0  0  0  0
   35.5380   26.2520   31.2580 C   0  0  0  0  0  0  0  0  0  0  0  0
   36.5580   26.4610   32.0980 N   0  0  0  0  0  0  0  0  0  0  0  0
   37.4230   23.2130   32.6250 H   0  0  0  0  0  0  0  0  0  0  0  0
   35.5460   22.9130   31.0840 H   0  0  0  0  0  0  0  0  0  0  0  0
   34.9630   27.0610   30.8360 H   0  0  0  0  0  0  0  0  0  0  0  0
   37.9990   25.0750   35.3620 C   0  0  0  0  0  0  0  0  0  0  0  0
   37.0810   24.4930   35.3530 H   0  0  0  0  0  0  0  0  0  0  0  0
   37.7660   26.0500   35.8620 H   0  0  0  0  0  0  0  0  0  0  0  0
   39.0710   24.4490   36.1110 N   0  0  0  0  0  0  0  0  0  0  0  0
   39.3590   25.0470   36.9200 H   0  0  0  0  0  0  0  0  0  0  0  0
   38.5760   22.9390   36.7870 S   0  0  0  0  0  0  0  0  0  0  0  0
   38.7430   21.8840   35.7220 O   0  0  0  0  0  1  0  0  0  0  0  0
   37.1300   23.0650   37.1760 O   0  0  0  0  0  1  0  0  0  0  0  0
   39.5540   22.6110   38.1150 O   0  0  0  0  0  0  0  0  0  0  0  0
   39.0250   22.5320   38.9620 H   0  0  0  0  0  0  0  0  0  0  0  0
  1 11  1  0  0  0  0
  2  1  1  0  0  0  0
  3  2  1  0  0  0  0
  3  8  1  0  0  0  0
  4  3  2  0  0  0  0
  5  6  2  0  0  0  0
  5  4  1  0  0  0  0
  6  7  1  0  0  0  0
  7  2  2  0  0  0  0
  9  4  1  0  0  0  0
 10  6  1  0  0  0  0
 11 13  1  0  0  0  0
 11 14  1  0  0  0  0
 12 11  1  0  0  0  0
 14 16  1  0  0  0  0
 14 15  1  0  0  0  0
 16 18  1  0  0  0  0
 16 19  1  0  0  0  0
 17 16  1  0  0  0  0
 19 20  1  0  0  0  0
M  END
>  <minimizedAffinity>
-3.53335667

$$$$
