
 OpenBabel03272509563D

 44 46  0  0  0  0  0  0  0  0999 V2000
   34.5090   28.6940   48.1660 C   0  0  0  0  0  0  0  0  0  0  0  0
   35.3530   28.9240   47.4710 H   0  0  0  0  0  0  0  0  0  0  0  0
   33.9240   29.6480   48.2810 H   0  0  0  0  0  0  0  0  0  0  0  0
   33.6620   27.5770   47.6600 C   0  0  0  0  0  0  0  0  0  0  0  0
   33.9100   26.5870   48.0860 H   0  0  0  0  0  0  0  0  0  0  0  0
   33.8670   27.4660   46.5570 H   0  0  0  0  0  0  0  0  0  0  0  0
   32.2040   27.8380   47.7920 C   0  0  0  0  0  0  0  0  0  0  0  0
   31.5990   27.5390   48.9980 C   0  0  0  0  0  0  0  0  0  0  0  0
   30.2610   27.7440   49.2160 C   0  0  0  0  0  0  0  0  0  0  0  0
   29.5120   28.2530   48.2230 N   0  0  0  0  0  0  0  0  0  0  0  0
   30.1220   28.5380   47.0510 C   0  0  0  0  0  0  0  0  0  0  0  0
   31.4230   28.3510   46.8040 N   0  0  0  0  0  0  0  0  0  0  0  0
   32.1540   27.1290   49.8290 H   0  0  0  0  0  0  0  0  0  0  0  0
   29.7870   27.5150   50.1490 H   0  0  0  0  0  0  0  0  0  0  0  0
   29.2510   29.1060   45.9620 C   0  0  0  0  0  0  0  0  0  0  0  0
   28.8090   30.0750   46.2330 H   0  0  0  0  0  0  0  0  0  0  0  0
   29.8590   29.2720   45.0590 H   0  0  0  0  0  0  0  0  0  0  0  0
   28.2480   28.0930   45.7040 N   0  0  0  0  0  0  0  0  0  0  0  0
   28.3110   27.2890   46.3510 H   0  0  0  0  0  0  0  0  0  0  0  0
   26.6510   28.7400   45.8090 S   0  0  0  0  0  0  0  0  0  0  0  0
   26.6990   30.1570   45.3610 O   0  0  0  0  0  0  0  0  0  0  0  0
   26.2190   28.5830   47.2450 O   0  0  0  0  0  0  0  0  0  0  0  0
   25.5740   27.8900   44.8690 O   0  0  0  0  0  0  0  0  0  0  0  0
   25.6210   28.1240   43.8910 H   0  0  0  0  0  0  0  0  0  0  0  0
   35.0460   28.3850   49.4480 O   0  0  0  0  0  0  0  0  0  0  0  0
   37.3710   30.1760   51.5640 C   0  0  0  0  0  0  0  0  0  0  0  0
   38.0960   30.8850   50.5840 C   0  0  0  0  0  0  0  0  0  0  0  0
   37.7430   30.7050   49.2610 C   0  0  0  0  0  0  0  0  0  0  0  0
   36.7080   29.8440   49.0150 N   0  0  0  0  0  0  0  0  0  0  0  0
   36.0280   29.1760   49.9580 C   0  0  0  0  0  0  0  0  0  0  0  0
   36.3700   29.3510   51.2480 N   0  0  0  0  0  0  0  0  0  0  0  0
   37.6570   30.3250   52.6000 H   0  0  0  0  0  0  0  0  0  0  0  0
   38.8990   31.5510   50.7980 H   0  0  0  0  0  0  0  0  0  0  0  0
   38.8910   33.3550   49.1060 F   0  0  0  0  0  0  0  0  0  0  0  0
   38.9150   32.5740   48.0400 C   0  0  0  0  0  0  0  0  0  0  0  0
   38.3770   31.3500   48.1300 C   0  0  0  0  0  0  0  0  0  0  0  0
   38.4560   30.6090   46.9460 C   0  0  0  0  0  0  0  0  0  0  0  0
   39.0290   31.0980   45.8030 C   0  0  0  0  0  0  0  0  0  0  0  0
   39.5660   32.3540   45.7520 C   0  0  0  0  0  0  0  0  0  0  0  0
   39.4980   33.0910   46.8980 C   0  0  0  0  0  0  0  0  0  0  0  0
   38.0450   29.5880   46.9090 H   0  0  0  0  0  0  0  0  0  0  0  0
   39.0640   30.4820   44.9090 H   0  0  0  0  0  0  0  0  0  0  0  0
   40.0060   32.6920   44.8280 H   0  0  0  0  0  0  0  0  0  0  0  0
   39.9150   34.0960   46.8940 H   0  0  0  0  0  0  0  0  0  0  0  0
  1  3  1  0  0  0  0
  1 25  1  0  0  0  0
  2  1  1  0  0  0  0
  4  7  1  0  0  0  0
  4  5  1  0  0  0  0
  4  1  1  0  0  0  0
  6  4  1  0  0  0  0
  7  8  1  0  0  0  0
  8  9  2  0  0  0  0
  8 13  1  0  0  0  0
  9 14  1  0  0  0  0
 10  9  1  0  0  0  0
 11 10  2  0  0  0  0
 12 11  1  0  0  0  0
 12  7  2  0  0  0  0
 15 16  1  0  0  0  0
 15 11  1  0  0  0  0
 17 15  1  0  0  0  0
 18 20  1  0  0  0  0
 18 15  1  0  0  0  0
 18 19  1  0  0  0  0
 20 22  1  0  0  0  0
 21 20  1  0  0  0  0
 23 20  1  0  0  0  0
 24 23  1  0  0  0  0
 25 30  1  0  0  0  0
 26 32  1  0  0  0  0
 27 33  1  0  0  0  0
 27 26  2  0  0  0  0
 28 27  1  0  0  0  0
 29 28  2  0  0  0  0
 29 30  1  0  0  0  0
 30 31  2  0  0  0  0
 31 26  1  0  0  0  0
 35 36  1  0  0  0  0
 35 34  1  0  0  0  0
 36 28  1  0  0  0  0
 37 36  2  0  0  0  0
 38 37  1  0  0  0  0
 39 38  2  0  0  0  0
 39 40  1  0  0  0  0
 40 35  2  0  0  0  0
 41 37  1  0  0  0  0
 42 38  1  0  0  0  0
 43 39  1  0  0  0  0
 44 40  1  0  0  0  0
M  END
>  <minimizedAffinity>
-6.48701191

>  <minimizedRMSD>
1.22452354

$$$$
