
 OpenBabel03272510153D

 26 27  0  0  0  0  0  0  0  0999 V2000
   37.2640   29.3590   51.0490 Br  0  0  0  0  0  0  0  0  0  0  0  0
   35.9150   29.3550   49.7090 C   0  0  0  0  0  0  0  0  0  0  0  0
   35.9420   30.2610   48.6700 C   0  0  0  0  0  0  0  0  0  0  0  0
   34.9250   30.1930   47.7360 C   0  0  0  0  0  0  0  0  0  0  0  0
   33.8970   29.2680   47.7980 C   0  0  0  0  0  0  0  0  0  0  0  0
   33.8990   28.3800   48.8410 C   0  0  0  0  0  0  0  0  0  0  0  0
   34.9110   28.4290   49.7940 C   0  0  0  0  0  0  0  0  0  0  0  0
   34.9550   30.9190   46.9140 H   0  0  0  0  0  0  0  0  0  0  0  0
   33.0900   27.6620   48.8790 H   0  0  0  0  0  0  0  0  0  0  0  0
   34.8290   27.6860   50.5840 H   0  0  0  0  0  0  0  0  0  0  0  0
   37.9890   33.1760   49.4500 C   0  0  0  0  0  0  0  0  0  0  0  0
   38.9980   33.1630   48.4500 C   0  0  0  0  0  0  0  0  0  0  0  0
   38.9450   32.1360   47.5220 C   0  0  0  0  0  0  0  0  0  0  0  0
   37.9490   31.1930   47.5970 N   0  0  0  0  0  0  0  0  0  0  0  0
   37.0080   31.2510   48.5720 C   0  0  0  0  0  0  0  0  0  0  0  0
   37.0310   32.2450   49.5000 N   0  0  0  0  0  0  0  0  0  0  0  0
   37.9530   33.9440   50.2180 H   0  0  0  0  0  0  0  0  0  0  0  0
   39.7380   33.9420   48.4680 H   0  0  0  0  0  0  0  0  0  0  0  0
   39.7000   32.1130   46.7590 H   0  0  0  0  0  0  0  0  0  0  0  0
   32.9200   29.3280   46.7510 N   0  0  0  0  0  0  0  0  0  0  0  0
   32.8210   30.2890   46.4180 H   0  0  0  0  0  0  0  0  0  0  0  0
   32.0490   27.9590   46.1600 S   0  0  0  0  0  0  0  0  0  0  0  0
   32.4150   27.6980   44.7420 O   0  0  0  0  0  1  0  0  0  0  0  0
   32.4810   26.7510   46.9770 O   0  0  0  0  0  1  0  0  0  0  0  0
   30.3920   28.1060   46.3950 O   0  0  0  0  0  0  0  0  0  0  0  0
   30.0320   28.6500   45.6440 H   0  0  0  0  0  0  0  0  0  0  0  0
  2  7  1  0  0  0  0
  2  1  1  0  0  0  0
  3  2  2  0  0  0  0
  4  5  2  0  0  0  0
  4  3  1  0  0  0  0
  5  6  1  0  0  0  0
  6  9  1  0  0  0  0
  6  7  2  0  0  0  0
  7 10  1  0  0  0  0
  8  4  1  0  0  0  0
 11 16  1  0  0  0  0
 11 17  1  0  0  0  0
 12 18  1  0  0  0  0
 12 11  2  0  0  0  0
 13 14  2  0  0  0  0
 13 12  1  0  0  0  0
 14 15  1  0  0  0  0
 15  3  1  0  0  0  0
 15 16  2  0  0  0  0
 19 13  1  0  0  0  0
 20  5  1  0  0  0  0
 21 20  1  0  0  0  0
 22 25  1  0  0  0  0
 22 20  1  0  0  0  0
 22 24  1  0  0  0  0
 23 22  1  0  0  0  0
 26 25  1  0  0  0  0
M  END
>  <minimizedAffinity>
-5.36953068

>  <minimizedRMSD>
0.157481745

$$$$
