
 OpenBabel03272501093D

 38 40  0  0  1  0  0  0  0  0999 V2000
   37.9700   26.3170   34.6410 C   0  0  2  0  0  0  0  0  0  0  0  0
   38.3770   25.8250   33.2200 C   0  0  2  0  0  0  0  0  0  0  0  0
   39.2940   26.8810   32.8150 C   0  0  0  0  0  0  0  0  0  0  0  0
   39.9970   27.2990   33.9420 O   0  0  0  0  0  0  0  0  0  0  0  0
   39.3970   26.7820   35.0420 C   0  0  0  0  0  0  0  0  0  0  0  0
   37.3050   27.1740   34.5780 H   0  0  0  0  0  0  0  0  0  0  0  0
   38.9150   24.8620   33.4040 H   0  0  0  0  0  0  0  0  0  0  0  0
   38.8930   27.7450   32.2780 H   0  0  0  0  0  0  0  0  0  0  0  0
   40.0750   26.4480   32.1230 H   0  0  0  0  0  0  0  0  0  0  0  0
   39.2000   27.6250   35.7670 H   0  0  0  0  0  0  0  0  0  0  0  0
   39.9300   26.0070   35.5980 H   0  0  0  0  0  0  0  0  0  0  0  0
   35.6880   24.0320   31.2860 C   0  0  0  0  0  0  0  0  0  0  0  0
   36.8240   24.2170   32.1220 C   0  0  0  0  0  0  0  0  0  0  0  0
   37.2280   25.5560   32.3890 C   0  0  0  0  0  0  0  0  0  0  0  0
   36.5120   26.5960   31.8340 N   0  0  0  0  0  0  0  0  0  0  0  0
   35.4520   26.3660   31.0540 C   0  0  0  0  0  0  0  0  0  0  0  0
   35.0280   25.1100   30.7720 N   0  0  0  0  0  0  0  0  0  0  0  0
   35.3490   23.0310   31.0590 H   0  0  0  0  0  0  0  0  0  0  0  0
   37.3470   23.3650   32.5290 H   0  0  0  0  0  0  0  0  0  0  0  0
   34.9800   27.2650   30.6830 H   0  0  0  0  0  0  0  0  0  0  0  0
   37.6030   25.2960   35.4520 O   0  0  0  0  0  0  0  0  0  0  0  0
   39.3340   22.9300   34.5030 Cl  0  0  0  0  0  0  0  0  0  0  0  0
   39.0010   23.3580   36.1750 C   0  0  0  0  0  0  0  0  0  0  0  0
   38.2020   24.4570   36.3270 C   0  0  0  0  0  0  0  0  0  0  0  0
   37.9390   24.8020   37.6430 C   0  0  0  0  0  0  0  0  0  0  0  0
   38.4470   24.0830   38.7090 C   0  0  0  0  0  0  0  0  0  0  0  0
   39.2400   22.9910   38.4840 C   0  0  0  0  0  0  0  0  0  0  0  0
   39.5260   22.6170   37.2050 C   0  0  0  0  0  0  0  0  0  0  0  0
   37.3290   25.6390   37.9540 H   0  0  0  0  0  0  0  0  0  0  0  0
   38.2440   24.3490   39.7550 H   0  0  0  0  0  0  0  0  0  0  0  0
   39.6300   22.4400   39.3200 H   0  0  0  0  0  0  0  0  0  0  0  0
   40.3220   21.5230   36.8530 N   0  0  0  0  0  0  0  0  0  0  0  0
   39.9390   20.6240   36.4930 H   0  0  0  0  0  0  0  0  0  0  0  0
   42.0190   21.2520   36.8700 S   0  0  0  0  0  0  0  0  0  0  0  0
   42.7730   22.5470   36.9540 O   0  0  0  0  0  1  0  0  0  0  0  0
   42.4490   20.5040   35.6270 O   0  0  0  0  0  1  0  0  0  0  0  0
   42.3420   20.3130   38.2470 O   0  0  0  0  0  0  0  0  0  0  0  0
   43.2670   20.5260   38.5910 H   0  0  0  0  0  0  0  0  0  0  0  0
  1  6  1  6  0  0  0
  1  5  1  0  0  0  0
  1 21  1  0  0  0  0
  2  7  1  1  0  0  0
  2  1  1  0  0  0  0
  3  2  1  0  0  0  0
  3  4  1  0  0  0  0
  4  5  1  0  0  0  0
  5 11  1  0  0  0  0
  5 10  1  0  0  0  0
  8  3  1  0  0  0  0
  9  3  1  0  0  0  0
 12 13  1  0  0  0  0
 13 14  2  0  0  0  0
 13 19  1  0  0  0  0
 14  2  1  0  0  0  0
 15 14  1  0  0  0  0
 16 15  2  0  0  0  0
 17 16  1  0  0  0  0
 17 12  2  0  0  0  0
 18 12  1  0  0  0  0
 20 16  1  0  0  0  0
 21 24  1  0  0  0  0
 22 23  1  0  0  0  0
 23 24  2  0  0  0  0
 23 28  1  0  0  0  0
 24 25  1  0  0  0  0
 25 29  1  0  0  0  0
 25 26  2  0  0  0  0
 26 30  1  0  0  0  0
 27 26  1  0  0  0  0
 27 31  1  0  0  0  0
 28 27  2  0  0  0  0
 32 34  1  0  0  0  0
 32 28  1  0  0  0  0
 33 32  1  0  0  0  0
 34 35  1  0  0  0  0
 34 37  1  0  0  0  0
 36 34  1  0  0  0  0
 37 38  1  0  0  0  0
M  END
>  <minimizedAffinity>
-5.94314003

$$$$

 OpenBabel03272501093D

 38 40  0  0  1  0  0  0  0  0999 V2000
   37.1920   25.2710   31.0910 C   0  0  2  0  0  0  0  0  0  0  0  0
   35.9080   26.0540   31.4960 C   0  0  2  0  0  0  0  0  0  0  0  0
   34.8970   25.3430   30.7260 C   0  0  0  0  0  0  0  0  0  0  0  0
   35.2490   23.9960   30.6910 O   0  0  0  0  0  0  0  0  0  0  0  0
   36.5220   23.8700   31.1380 C   0  0  0  0  0  0  0  0  0  0  0  0
   37.4850   25.5080   30.0720 H   0  0  0  0  0  0  0  0  0  0  0  0
   35.7990   25.8610   32.5920 H   0  0  0  0  0  0  0  0  0  0  0  0
   34.6600   25.6990   29.7190 H   0  0  0  0  0  0  0  0  0  0  0  0
   33.9150   25.3780   31.2820 H   0  0  0  0  0  0  0  0  0  0  0  0
   37.1080   23.2780   30.3760 H   0  0  0  0  0  0  0  0  0  0  0  0
   36.6780   23.3830   32.1030 H   0  0  0  0  0  0  0  0  0  0  0  0
   35.6540   29.7850   31.9390 C   0  0  0  0  0  0  0  0  0  0  0  0
   35.4770   28.4000   32.2110 C   0  0  0  0  0  0  0  0  0  0  0  0
   36.0520   27.4760   31.2940 C   0  0  0  0  0  0  0  0  0  0  0  0
   36.7440   27.9560   30.2020 N   0  0  0  0  0  0  0  0  0  0  0  0
   36.8800   29.2690   29.9930 C   0  0  0  0  0  0  0  0  0  0  0  0
   36.3520   30.1880   30.8370 N   0  0  0  0  0  0  0  0  0  0  0  0
   35.2330   30.5210   32.6110 H   0  0  0  0  0  0  0  0  0  0  0  0
   34.9250   28.0820   33.0810 H   0  0  0  0  0  0  0  0  0  0  0  0
   37.4430   29.5130   29.1030 H   0  0  0  0  0  0  0  0  0  0  0  0
   38.1490   25.3250   32.0480 O   0  0  0  0  0  0  0  0  0  0  0  0
   37.6860   22.9050   33.8990 Cl  0  0  0  0  0  0  0  0  0  0  0  0
   38.0380   24.5470   34.4180 C   0  0  0  0  0  0  0  0  0  0  0  0
   38.2030   25.4390   33.3950 C   0  0  0  0  0  0  0  0  0  0  0  0
   38.4860   26.7340   33.7980 C   0  0  0  0  0  0  0  0  0  0  0  0
   38.5880   27.0850   35.1310 C   0  0  0  0  0  0  0  0  0  0  0  0
   38.4100   26.1410   36.1050 C   0  0  0  0  0  0  0  0  0  0  0  0
   38.1320   24.8540   35.7530 C   0  0  0  0  0  0  0  0  0  0  0  0
   38.6470   27.5690   33.1290 H   0  0  0  0  0  0  0  0  0  0  0  0
   38.8110   28.1100   35.4590 H   0  0  0  0  0  0  0  0  0  0  0  0
   38.4920   26.4250   37.1380 H   0  0  0  0  0  0  0  0  0  0  0  0
   37.9300   23.8070   36.6570 N   0  0  0  0  0  0  0  0  0  0  0  0
   37.4840   22.9010   36.4000 H   0  0  0  0  0  0  0  0  0  0  0  0
   38.2870   23.6120   38.3270 S   0  0  0  0  0  0  0  0  0  0  0  0
   38.0390   24.8830   39.0850 O   0  0  0  0  0  1  0  0  0  0  0  0
   39.7280   23.1910   38.5160 O   0  0  0  0  0  1  0  0  0  0  0  0
   37.2520   22.3940   38.9000 O   0  0  0  0  0  0  0  0  0  0  0  0
   37.0420   22.5600   39.8740 H   0  0  0  0  0  0  0  0  0  0  0  0
  1  6  1  6  0  0  0
  1  5  1  0  0  0  0
  1  2  1  0  0  0  0
  1 21  1  0  0  0  0
  2  7  1  1  0  0  0
  3  9  1  0  0  0  0
  3  2  1  0  0  0  0
  4  3  1  0  0  0  0
  4  5  1  0  0  0  0
  5 11  1  0  0  0  0
  8  3  1  0  0  0  0
 10  5  1  0  0  0  0
 12 13  1  0  0  0  0
 12 18  1  0  0  0  0
 13 19  1  0  0  0  0
 14  2  1  0  0  0  0
 14 13  2  0  0  0  0
 15 14  1  0  0  0  0
 16 15  2  0  0  0  0
 16 17  1  0  0  0  0
 17 12  2  0  0  0  0
 20 16  1  0  0  0  0
 21 24  1  0  0  0  0
 22 23  1  0  0  0  0
 23 28  1  0  0  0  0
 24 25  1  0  0  0  0
 24 23  2  0  0  0  0
 25 26  2  0  0  0  0
 26 30  1  0  0  0  0
 26 27  1  0  0  0  0
 27 31  1  0  0  0  0
 28 27  2  0  0  0  0
 28 32  1  0  0  0  0
 29 25  1  0  0  0  0
 32 34  1  0  0  0  0
 33 32  1  0  0  0  0
 34 36  1  0  0  0  0
 34 37  1  0  0  0  0
 34 35  1  0  0  0  0
 37 38  1  0  0  0  0
M  END
>  <minimizedAffinity>
-5.89265347

$$$$

 OpenBabel03272501093D

 38 40  0  0  1  0  0  0  0  0999 V2000
   37.3120   26.2310   34.3420 C   0  0  2  0  0  0  0  0  0  0  0  0
   37.7140   26.5800   32.8780 C   0  0  2  0  0  0  0  0  0  0  0  0
   36.7040   27.5730   32.5430 C   0  0  0  0  0  0  0  0  0  0  0  0
   36.4380   28.3220   33.6870 O   0  0  0  0  0  0  0  0  0  0  0  0
   36.9960   27.6960   34.7520 C   0  0  0  0  0  0  0  0  0  0  0  0
   36.4030   25.6360   34.3620 H   0  0  0  0  0  0  0  0  0  0  0  0
   38.7280   27.0420   32.9710 H   0  0  0  0  0  0  0  0  0  0  0  0
   35.7690   27.2360   32.0870 H   0  0  0  0  0  0  0  0  0  0  0  0
   37.1370   28.3080   31.8030 H   0  0  0  0  0  0  0  0  0  0  0  0
   36.2040   27.5760   35.5470 H   0  0  0  0  0  0  0  0  0  0  0  0
   37.8540   28.1720   35.2320 H   0  0  0  0  0  0  0  0  0  0  0  0
   37.1800   23.1370   31.4490 C   0  0  0  0  0  0  0  0  0  0  0  0
   37.0100   24.2620   32.3020 C   0  0  0  0  0  0  0  0  0  0  0  0
   37.8220   25.4030   32.0490 C   0  0  0  0  0  0  0  0  0  0  0  0
   38.7240   25.3660   31.0060 N   0  0  0  0  0  0  0  0  0  0  0  0
   38.8440   24.2830   30.2340 C   0  0  0  0  0  0  0  0  0  0  0  0
   38.0930   23.1720   30.4350 N   0  0  0  0  0  0  0  0  0  0  0  0
   36.5830   22.2490   31.6070 H   0  0  0  0  0  0  0  0  0  0  0  0
   36.2890   24.2330   33.1040 H   0  0  0  0  0  0  0  0  0  0  0  0
   39.5850   24.3830   29.4530 H   0  0  0  0  0  0  0  0  0  0  0  0
   38.3650   25.7940   35.0730 O   0  0  0  0  0  0  0  0  0  0  0  0
   40.0850   23.3080   34.4700 Cl  0  0  0  0  0  0  0  0  0  0  0  0
   39.3070   23.6770   36.0030 C   0  0  0  0  0  0  0  0  0  0  0  0
   38.6000   24.8470   36.0100 C   0  0  0  0  0  0  0  0  0  0  0  0
   37.9880   25.1460   37.2160 C   0  0  0  0  0  0  0  0  0  0  0  0
   38.0900   24.3180   38.3190 C   0  0  0  0  0  0  0  0  0  0  0  0
   38.8140   23.1600   38.2430 C   0  0  0  0  0  0  0  0  0  0  0  0
   39.4330   22.8280   37.0750 C   0  0  0  0  0  0  0  0  0  0  0  0
   37.3900   26.0270   37.4060 H   0  0  0  0  0  0  0  0  0  0  0  0
   37.6080   24.5460   39.2800 H   0  0  0  0  0  0  0  0  0  0  0  0
   38.8870   22.5240   39.1060 H   0  0  0  0  0  0  0  0  0  0  0  0
   40.1980   21.6740   36.8780 N   0  0  0  0  0  0  0  0  0  0  0  0
   39.7870   20.7350   36.6900 H   0  0  0  0  0  0  0  0  0  0  0  0
   41.8910   21.3740   36.8690 S   0  0  0  0  0  0  0  0  0  0  0  0
   42.6670   22.6530   36.9930 O   0  0  0  0  0  1  0  0  0  0  0  0
   42.2960   20.6660   35.5950 O   0  0  0  0  0  1  0  0  0  0  0  0
   42.2100   20.3790   38.2070 O   0  0  0  0  0  0  0  0  0  0  0  0
   43.1410   20.5640   38.5500 H   0  0  0  0  0  0  0  0  0  0  0  0
  1  6  1  1  0  0  0
  1  5  1  0  0  0  0
  1 21  1  0  0  0  0
  2  7  1  1  0  0  0
  2  1  1  0  0  0  0
  3  2  1  0  0  0  0
  3  4  1  0  0  0  0
  4  5  1  0  0  0  0
  5 11  1  0  0  0  0
  5 10  1  0  0  0  0
  8  3  1  0  0  0  0
  9  3  1  0  0  0  0
 12 18  1  0  0  0  0
 12 13  1  0  0  0  0
 13 19  1  0  0  0  0
 14 13  2  0  0  0  0
 14  2  1  0  0  0  0
 15 14  1  0  0  0  0
 16 17  1  0  0  0  0
 16 15  2  0  0  0  0
 17 12  2  0  0  0  0
 20 16  1  0  0  0  0
 21 24  1  0  0  0  0
 22 23  1  0  0  0  0
 23 24  2  0  0  0  0
 23 28  1  0  0  0  0
 24 25  1  0  0  0  0
 25 29  1  0  0  0  0
 25 26  2  0  0  0  0
 26 30  1  0  0  0  0
 27 26  1  0  0  0  0
 27 31  1  0  0  0  0
 28 27  2  0  0  0  0
 32 28  1  0  0  0  0
 33 32  1  0  0  0  0
 34 32  1  0  0  0  0
 34 35  1  0  0  0  0
 34 37  1  0  0  0  0
 36 34  1  0  0  0  0
 37 38  1  0  0  0  0
M  END
>  <minimizedAffinity>
-5.66243267

$$$$

 OpenBabel03272501093D

 38 40  0  0  1  0  0  0  0  0999 V2000
   34.6870   29.4600   32.7760 C   0  0  2  0  0  0  0  0  0  0  0  0
   36.0510   29.0520   32.1430 C   0  0  2  0  0  0  0  0  0  0  0  0
   35.9500   29.6860   30.8370 C   0  0  0  0  0  0  0  0  0  0  0  0
   35.2670   30.8910   30.9930 O   0  0  0  0  0  0  0  0  0  0  0  0
   34.7080   30.9140   32.2270 C   0  0  0  0  0  0  0  0  0  0  0  0
   33.8690   28.9050   32.3240 H   0  0  0  0  0  0  0  0  0  0  0  0
   36.8160   29.5550   32.7850 H   0  0  0  0  0  0  0  0  0  0  0  0
   35.5220   29.1140   30.0090 H   0  0  0  0  0  0  0  0  0  0  0  0
   36.9830   29.9760   30.4840 H   0  0  0  0  0  0  0  0  0  0  0  0
   33.6130   31.1630   32.1150 H   0  0  0  0  0  0  0  0  0  0  0  0
   35.1170   31.6130   32.9590 H   0  0  0  0  0  0  0  0  0  0  0  0
   37.3690   25.6610   33.1150 C   0  0  0  0  0  0  0  0  0  0  0  0
   37.2000   27.0730   33.1250 C   0  0  0  0  0  0  0  0  0  0  0  0
   36.2700   27.6270   32.2000 C   0  0  0  0  0  0  0  0  0  0  0  0
   35.5870   26.7830   31.3500 N   0  0  0  0  0  0  0  0  0  0  0  0
   35.7840   25.4620   31.3820 C   0  0  0  0  0  0  0  0  0  0  0  0
   36.6580   24.8870   32.2440 N   0  0  0  0  0  0  0  0  0  0  0  0
   38.0660   25.2000   33.8010 H   0  0  0  0  0  0  0  0  0  0  0  0
   37.7630   27.6850   33.8130 H   0  0  0  0  0  0  0  0  0  0  0  0
   35.1870   24.9140   30.6650 H   0  0  0  0  0  0  0  0  0  0  0  0
   34.7420   29.5070   34.1290 O   0  0  0  0  0  0  0  0  0  0  0  0
   36.1520   31.7510   35.7020 Cl  0  0  0  0  0  0  0  0  0  0  0  0
   34.5080   31.1850   35.9630 C   0  0  0  0  0  0  0  0  0  0  0  0
   34.1200   30.1760   35.1270 C   0  0  0  0  0  0  0  0  0  0  0  0
   32.8240   29.7280   35.3240 C   0  0  0  0  0  0  0  0  0  0  0  0
   31.9980   30.2660   36.2940 C   0  0  0  0  0  0  0  0  0  0  0  0
   32.4520   31.2760   37.0970 C   0  0  0  0  0  0  0  0  0  0  0  0
   33.7210   31.7470   36.9370 C   0  0  0  0  0  0  0  0  0  0  0  0
   32.3480   28.9390   34.7570 H   0  0  0  0  0  0  0  0  0  0  0  0
   30.9690   29.9180   36.4570 H   0  0  0  0  0  0  0  0  0  0  0  0
   31.8020   31.6870   37.8480 H   0  0  0  0  0  0  0  0  0  0  0  0
   34.2920   32.7720   37.6970 N   0  0  0  0  0  0  0  0  0  0  0  0
   35.0650   32.6210   38.3790 H   0  0  0  0  0  0  0  0  0  0  0  0
   33.9940   34.4620   37.8040 S   0  0  0  0  0  0  0  0  0  0  0  0
   32.5810   34.7870   37.4170 O   0  0  0  0  0  1  0  0  0  0  0  0
   34.9450   35.2240   36.9070 O   0  0  0  0  0  1  0  0  0  0  0  0
   34.2580   34.8950   39.4240 O   0  0  0  0  0  0  0  0  0  0  0  0
   33.6620   35.6730   39.6660 H   0  0  0  0  0  0  0  0  0  0  0  0
  1  6  1  6  0  0  0
  1 21  1  0  0  0  0
  2 14  1  0  0  0  0
  2  1  1  0  0  0  0
  2  7  1  1  0  0  0
  3  4  1  0  0  0  0
  3  2  1  0  0  0  0
  4  5  1  0  0  0  0
  5  1  1  0  0  0  0
  5 11  1  0  0  0  0
  8  3  1  0  0  0  0
  9  3  1  0  0  0  0
 10  5  1  0  0  0  0
 12 13  1  0  0  0  0
 12 18  1  0  0  0  0
 13 19  1  0  0  0  0
 14 13  2  0  0  0  0
 15 16  2  0  0  0  0
 15 14  1  0  0  0  0
 16 17  1  0  0  0  0
 17 12  2  0  0  0  0
 20 16  1  0  0  0  0
 21 24  1  0  0  0  0
 22 23  1  0  0  0  0
 23 28  1  0  0  0  0
 24 25  1  0  0  0  0
 24 23  2  0  0  0  0
 25 26  2  0  0  0  0
 26 30  1  0  0  0  0
 26 27  1  0  0  0  0
 27 31  1  0  0  0  0
 28 27  2  0  0  0  0
 28 32  1  0  0  0  0
 29 25  1  0  0  0  0
 32 34  1  0  0  0  0
 32 33  1  0  0  0  0
 34 37  1  0  0  0  0
 35 34  1  0  0  0  0
 36 34  1  0  0  0  0
 37 38  1  0  0  0  0
M  END
>  <minimizedAffinity>
-5.56840992

$$$$

 OpenBabel03272501093D

 38 40  0  0  1  0  0  0  0  0999 V2000
   37.0170   28.0960   32.4390 C   0  0  2  0  0  0  0  0  0  0  0  0
   35.8250   28.9030   31.8410 C   0  0  2  0  0  0  0  0  0  0  0  0
   36.5310   29.8460   30.9870 C   0  0  0  0  0  0  0  0  0  0  0  0
   37.6390   29.1960   30.4470 O   0  0  0  0  0  0  0  0  0  0  0  0
   37.8190   28.0280   31.1100 C   0  0  0  0  0  0  0  0  0  0  0  0
   37.5590   28.6910   33.1690 H   0  0  0  0  0  0  0  0  0  0  0  0
   35.2560   28.1510   31.2400 H   0  0  0  0  0  0  0  0  0  0  0  0
   36.8280   30.8120   31.4060 H   0  0  0  0  0  0  0  0  0  0  0  0
   35.8800   30.1040   30.1020 H   0  0  0  0  0  0  0  0  0  0  0  0
   38.8920   27.9810   31.4580 H   0  0  0  0  0  0  0  0  0  0  0  0
   37.6220   27.0990   30.5700 H   0  0  0  0  0  0  0  0  0  0  0  0
   34.5660   30.5880   34.9650 C   0  0  0  0  0  0  0  0  0  0  0  0
   35.4880   30.1140   33.9910 C   0  0  0  0  0  0  0  0  0  0  0  0
   34.9540   29.4230   32.8670 C   0  0  0  0  0  0  0  0  0  0  0  0
   33.5880   29.2470   32.7750 N   0  0  0  0  0  0  0  0  0  0  0  0
   32.7670   29.7140   33.7190 C   0  0  0  0  0  0  0  0  0  0  0  0
   33.2270   30.3780   34.8070 N   0  0  0  0  0  0  0  0  0  0  0  0
   34.9310   31.1180   35.8340 H   0  0  0  0  0  0  0  0  0  0  0  0
   36.5470   30.2790   34.1160 H   0  0  0  0  0  0  0  0  0  0  0  0
   31.7220   29.5100   33.5270 H   0  0  0  0  0  0  0  0  0  0  0  0
   36.6590   26.8390   32.7940 O   0  0  0  0  0  0  0  0  0  0  0  0
   37.7650   26.8800   35.6710 Cl  0  0  0  0  0  0  0  0  0  0  0  0
   37.8150   25.5130   34.5660 C   0  0  0  0  0  0  0  0  0  0  0  0
   37.2530   25.7550   33.3440 C   0  0  0  0  0  0  0  0  0  0  0  0
   37.2850   24.6810   32.4700 C   0  0  0  0  0  0  0  0  0  0  0  0
   37.8470   23.4650   32.8170 C   0  0  0  0  0  0  0  0  0  0  0  0
   38.3940   23.2920   34.0580 C   0  0  0  0  0  0  0  0  0  0  0  0
   38.3820   24.3230   34.9500 C   0  0  0  0  0  0  0  0  0  0  0  0
   36.8890   24.6880   31.4640 H   0  0  0  0  0  0  0  0  0  0  0  0
   37.8780   22.6080   32.1300 H   0  0  0  0  0  0  0  0  0  0  0  0
   38.8270   22.3440   34.3180 H   0  0  0  0  0  0  0  0  0  0  0  0
   38.9090   24.2640   36.2440 N   0  0  0  0  0  0  0  0  0  0  0  0
   39.8350   24.6620   36.5080 H   0  0  0  0  0  0  0  0  0  0  0  0
   38.3280   23.6020   37.7200 S   0  0  0  0  0  0  0  0  0  0  0  0
   37.0870   22.7880   37.4960 O   0  0  0  0  0  1  0  0  0  0  0  0
   38.0310   24.7030   38.7140 O   0  0  0  0  0  1  0  0  0  0  0  0
   39.5650   22.6040   38.3190 O   0  0  0  0  0  0  0  0  0  0  0  0
   39.1590   21.8450   38.8470 H   0  0  0  0  0  0  0  0  0  0  0  0
  1 21  1  0  0  0  0
  1  6  1  1  0  0  0
  2  7  1  6  0  0  0
  2  1  1  0  0  0  0
  2 14  1  0  0  0  0
  3  8  1  0  0  0  0
  3  2  1  0  0  0  0
  4  3  1  0  0  0  0
  4  5  1  0  0  0  0
  5 10  1  0  0  0  0
  5  1  1  0  0  0  0
  9  3  1  0  0  0  0
 11  5  1  0  0  0  0
 12 18  1  0  0  0  0
 13 19  1  0  0  0  0
 13 12  2  0  0  0  0
 14 13  1  0  0  0  0
 15 14  2  0  0  0  0
 15 16  1  0  0  0  0
 16 17  2  0  0  0  0
 17 12  1  0  0  0  0
 20 16  1  0  0  0  0
 21 24  1  0  0  0  0
 23 28  1  0  0  0  0
 23 22  1  0  0  0  0
 24 23  2  0  0  0  0
 25 26  2  0  0  0  0
 25 24  1  0  0  0  0
 26 27  1  0  0  0  0
 27 31  1  0  0  0  0
 27 28  2  0  0  0  0
 28 32  1  0  0  0  0
 29 25  1  0  0  0  0
 30 26  1  0  0  0  0
 32 33  1  0  0  0  0
 32 34  1  0  0  0  0
 34 37  1  0  0  0  0
 34 36  1  0  0  0  0
 35 34  1  0  0  0  0
 37 38  1  0  0  0  0
M  END
>  <minimizedAffinity>
-5.5573926

$$$$

 OpenBabel03272501093D

 38 40  0  0  1  0  0  0  0  0999 V2000
   35.6120   28.7120   33.0400 C   0  0  2  0  0  0  0  0  0  0  0  0
   37.0580   28.1640   32.8530 C   0  0  2  0  0  0  0  0  0  0  0  0
   36.9700   27.6050   31.5120 C   0  0  0  0  0  0  0  0  0  0  0  0
   36.1300   28.4220   30.7580 O   0  0  0  0  0  0  0  0  0  0  0  0
   35.4870   29.2710   31.5950 C   0  0  0  0  0  0  0  0  0  0  0  0
   34.9050   27.9000   33.1860 H   0  0  0  0  0  0  0  0  0  0  0  0
   37.7050   29.0750   32.8770 H   0  0  0  0  0  0  0  0  0  0  0  0
   36.6780   26.5570   31.3990 H   0  0  0  0  0  0  0  0  0  0  0  0
   37.9800   27.6790   31.0130 H   0  0  0  0  0  0  0  0  0  0  0  0
   34.3800   29.2020   31.3870 H   0  0  0  0  0  0  0  0  0  0  0  0
   35.7510   30.3300   31.5510 H   0  0  0  0  0  0  0  0  0  0  0  0
   38.2720   26.9140   36.1920 C   0  0  0  0  0  0  0  0  0  0  0  0
   37.8900   27.8350   35.1770 C   0  0  0  0  0  0  0  0  0  0  0  0
   37.4520   27.2940   33.9360 C   0  0  0  0  0  0  0  0  0  0  0  0
   37.4190   25.9240   33.7750 N   0  0  0  0  0  0  0  0  0  0  0  0
   37.7890   25.1040   34.7620 C   0  0  0  0  0  0  0  0  0  0  0  0
   38.2120   25.5700   35.9620 N   0  0  0  0  0  0  0  0  0  0  0  0
   38.6110   27.2840   37.1500 H   0  0  0  0  0  0  0  0  0  0  0  0
   37.9380   28.8970   35.3590 H   0  0  0  0  0  0  0  0  0  0  0  0
   37.7150   24.0550   34.5080 H   0  0  0  0  0  0  0  0  0  0  0  0
   35.5650   29.7490   33.9110 O   0  0  0  0  0  0  0  0  0  0  0  0
   36.3910   31.9690   35.8820 Cl  0  0  0  0  0  0  0  0  0  0  0  0
   34.8240   31.1750   35.8220 C   0  0  0  0  0  0  0  0  0  0  0  0
   34.7120   30.2210   34.8490 C   0  0  0  0  0  0  0  0  0  0  0  0
   33.4780   29.5950   34.7930 C   0  0  0  0  0  0  0  0  0  0  0  0
   32.4480   29.9160   35.6590 C   0  0  0  0  0  0  0  0  0  0  0  0
   32.6290   30.8820   36.6110 C   0  0  0  0  0  0  0  0  0  0  0  0
   33.8280   31.5240   36.7000 C   0  0  0  0  0  0  0  0  0  0  0  0
   33.2080   28.8180   34.0900 H   0  0  0  0  0  0  0  0  0  0  0  0
   31.4670   29.4250   35.6220 H   0  0  0  0  0  0  0  0  0  0  0  0
   31.8230   31.1240   37.2780 H   0  0  0  0  0  0  0  0  0  0  0  0
   34.1280   32.5250   37.6290 N   0  0  0  0  0  0  0  0  0  0  0  0
   34.6390   32.3490   38.5200 H   0  0  0  0  0  0  0  0  0  0  0  0
   33.8210   34.2160   37.6760 S   0  0  0  0  0  0  0  0  0  0  0  0
   32.3740   34.5100   37.4070 O   0  0  0  0  0  1  0  0  0  0  0  0
   34.6750   34.9370   36.6570 O   0  0  0  0  0  1  0  0  0  0  0  0
   34.2290   34.7350   39.2400 O   0  0  0  0  0  0  0  0  0  0  0  0
   33.6490   35.5210   39.4960 H   0  0  0  0  0  0  0  0  0  0  0  0
  1  6  1  1  0  0  0
  1 21  1  0  0  0  0
  2  7  1  6  0  0  0
  2  1  1  0  0  0  0
  2 14  1  0  0  0  0
  3  2  1  0  0  0  0
  4  3  1  0  0  0  0
  4  5  1  0  0  0  0
  5  1  1  0  0  0  0
  8  3  1  0  0  0  0
  9  3  1  0  0  0  0
 10  5  1  0  0  0  0
 11  5  1  0  0  0  0
 12 18  1  0  0  0  0
 13 19  1  0  0  0  0
 13 12  2  0  0  0  0
 14 13  1  0  0  0  0
 15 14  2  0  0  0  0
 15 16  1  0  0  0  0
 16 17  2  0  0  0  0
 17 12  1  0  0  0  0
 20 16  1  0  0  0  0
 21 24  1  0  0  0  0
 23 22  1  0  0  0  0
 23 28  1  0  0  0  0
 24 23  2  0  0  0  0
 25 24  1  0  0  0  0
 25 26  2  0  0  0  0
 26 27  1  0  0  0  0
 27 28  2  0  0  0  0
 27 31  1  0  0  0  0
 28 32  1  0  0  0  0
 29 25  1  0  0  0  0
 30 26  1  0  0  0  0
 32 34  1  0  0  0  0
 32 33  1  0  0  0  0
 34 37  1  0  0  0  0
 35 34  1  0  0  0  0
 36 34  1  0  0  0  0
 37 38  1  0  0  0  0
M  END
>  <minimizedAffinity>
-5.46381283

$$$$

 OpenBabel03272501093D

 38 40  0  0  1  0  0  0  0  0999 V2000
   36.3640   29.0500   32.4240 C   0  0  2  0  0  0  0  0  0  0  0  0
   34.9020   29.5770   32.3140 C   0  0  2  0  0  0  0  0  0  0  0  0
   35.0460   30.5720   31.2610 C   0  0  0  0  0  0  0  0  0  0  0  0
   35.9850   30.1020   30.3470 O   0  0  0  0  0  0  0  0  0  0  0  0
   36.6230   29.0370   30.8920 C   0  0  0  0  0  0  0  0  0  0  0  0
   37.0060   29.7860   32.9020 H   0  0  0  0  0  0  0  0  0  0  0  0
   34.3140   28.6930   31.9650 H   0  0  0  0  0  0  0  0  0  0  0  0
   35.2770   31.6030   31.5430 H   0  0  0  0  0  0  0  0  0  0  0  0
   34.0790   30.6420   30.6820 H   0  0  0  0  0  0  0  0  0  0  0  0
   37.7350   29.2140   30.8170 H   0  0  0  0  0  0  0  0  0  0  0  0
   36.4310   28.0520   30.4620 H   0  0  0  0  0  0  0  0  0  0  0  0
   34.5450   31.2500   35.6700 C   0  0  0  0  0  0  0  0  0  0  0  0
   35.1210   30.8880   34.4200 C   0  0  0  0  0  0  0  0  0  0  0  0
   34.3800   29.9990   33.5920 C   0  0  0  0  0  0  0  0  0  0  0  0
   33.1570   29.5360   34.0310 N   0  0  0  0  0  0  0  0  0  0  0  0
   32.6620   29.9080   35.2140 C   0  0  0  0  0  0  0  0  0  0  0  0
   33.3290   30.7520   36.0380 N   0  0  0  0  0  0  0  0  0  0  0  0
   35.0760   31.9230   36.3290 H   0  0  0  0  0  0  0  0  0  0  0  0
   36.0830   31.2810   34.1290 H   0  0  0  0  0  0  0  0  0  0  0  0
   31.6960   29.4740   35.4390 H   0  0  0  0  0  0  0  0  0  0  0  0
   36.4180   27.7770   32.8840 O   0  0  0  0  0  0  0  0  0  0  0  0
   36.9890   24.7610   32.6070 Cl  0  0  0  0  0  0  0  0  0  0  0  0
   37.4680   25.7820   33.9560 C   0  0  0  0  0  0  0  0  0  0  0  0
   37.0920   27.0910   33.8340 C   0  0  0  0  0  0  0  0  0  0  0  0
   37.4710   27.9020   34.8920 C   0  0  0  0  0  0  0  0  0  0  0  0
   38.1710   27.4140   35.9800 C   0  0  0  0  0  0  0  0  0  0  0  0
   38.5140   26.0920   36.0380 C   0  0  0  0  0  0  0  0  0  0  0  0
   38.1630   25.2580   35.0180 C   0  0  0  0  0  0  0  0  0  0  0  0
   37.2610   28.9600   34.9670 H   0  0  0  0  0  0  0  0  0  0  0  0
   38.4750   28.0500   36.8230 H   0  0  0  0  0  0  0  0  0  0  0  0
   39.0590   25.7240   36.8880 H   0  0  0  0  0  0  0  0  0  0  0  0
   38.4580   23.8930   34.9670 N   0  0  0  0  0  0  0  0  0  0  0  0
   39.1000   23.4670   34.2660 H   0  0  0  0  0  0  0  0  0  0  0  0
   37.9520   22.5460   35.9090 S   0  0  0  0  0  0  0  0  0  0  0  0
   37.1370   21.5890   35.0890 O   0  0  0  0  0  1  0  0  0  0  0  0
   37.1370   23.0060   37.0970 O   0  0  0  0  0  1  0  0  0  0  0  0
   39.3680   21.7770   36.4450 O   0  0  0  0  0  0  0  0  0  0  0  0
   39.1950   20.7880   36.5500 H   0  0  0  0  0  0  0  0  0  0  0  0
  1 21  1  0  0  0  0
  1  6  1  1  0  0  0
  2  7  1  6  0  0  0
  2  1  1  0  0  0  0
  2 14  1  0  0  0  0
  3  8  1  0  0  0  0
  3  2  1  0  0  0  0
  4  5  1  0  0  0  0
  4  3  1  0  0  0  0
  5  1  1  0  0  0  0
  9  3  1  0  0  0  0
 10  5  1  0  0  0  0
 11  5  1  0  0  0  0
 12 17  1  0  0  0  0
 12 18  1  0  0  0  0
 13 12  2  0  0  0  0
 14 15  2  0  0  0  0
 14 13  1  0  0  0  0
 15 16  1  0  0  0  0
 16 20  1  0  0  0  0
 16 17  2  0  0  0  0
 19 13  1  0  0  0  0
 21 24  1  0  0  0  0
 22 23  1  0  0  0  0
 23 28  1  0  0  0  0
 24 23  2  0  0  0  0
 24 25  1  0  0  0  0
 25 29  1  0  0  0  0
 25 26  2  0  0  0  0
 26 27  1  0  0  0  0
 26 30  1  0  0  0  0
 27 31  1  0  0  0  0
 28 27  2  0  0  0  0
 32 28  1  0  0  0  0
 32 34  1  0  0  0  0
 33 32  1  0  0  0  0
 34 37  1  0  0  0  0
 34 36  1  0  0  0  0
 35 34  1  0  0  0  0
 37 38  1  0  0  0  0
M  END
>  <minimizedAffinity>
-5.4195466

$$$$

 OpenBabel03272501093D

 38 40  0  0  1  0  0  0  0  0999 V2000
   39.3410   25.5040   31.0210 C   0  0  2  0  0  0  0  0  0  0  0  0
   39.2010   24.1320   30.2970 C   0  0  2  0  0  0  0  0  0  0  0  0
   39.4060   24.5290   28.9110 C   0  0  0  0  0  0  0  0  0  0  0  0
   40.3500   25.5530   28.8900 O   0  0  0  0  0  0  0  0  0  0  0  0
   40.5350   25.9970   30.1570 C   0  0  0  0  0  0  0  0  0  0  0  0
   38.4700   26.1270   30.8400 H   0  0  0  0  0  0  0  0  0  0  0  0
   40.0600   23.5270   30.6810 H   0  0  0  0  0  0  0  0  0  0  0  0
   38.5340   24.8070   28.3120 H   0  0  0  0  0  0  0  0  0  0  0  0
   39.8830   23.6750   28.3470 H   0  0  0  0  0  0  0  0  0  0  0  0
   40.4100   27.1190   30.1610 H   0  0  0  0  0  0  0  0  0  0  0  0
   41.4920   25.7850   30.6380 H   0  0  0  0  0  0  0  0  0  0  0  0
   35.6320   23.4650   31.2960 C   0  0  0  0  0  0  0  0  0  0  0  0
   36.8000   24.2010   30.9530 C   0  0  0  0  0  0  0  0  0  0  0  0
   37.9740   23.4570   30.6450 C   0  0  0  0  0  0  0  0  0  0  0  0
   37.9270   22.0790   30.6920 N   0  0  0  0  0  0  0  0  0  0  0  0
   36.8020   21.4370   31.0210 C   0  0  0  0  0  0  0  0  0  0  0  0
   35.6590   22.1000   31.3220 N   0  0  0  0  0  0  0  0  0  0  0  0
   34.7190   23.9920   31.5370 H   0  0  0  0  0  0  0  0  0  0  0  0
   36.7780   25.2790   30.9330 H   0  0  0  0  0  0  0  0  0  0  0  0
   36.8990   20.3600   31.0210 H   0  0  0  0  0  0  0  0  0  0  0  0
   39.7600   25.3680   32.3020 O   0  0  0  0  0  0  0  0  0  0  0  0
   38.7880   23.0100   34.0320 Cl  0  0  0  0  0  0  0  0  0  0  0  0
   38.7580   24.7070   34.4910 C   0  0  0  0  0  0  0  0  0  0  0  0
   39.2500   25.5570   33.5410 C   0  0  0  0  0  0  0  0  0  0  0  0
   39.2330   26.8960   33.8980 C   0  0  0  0  0  0  0  0  0  0  0  0
   38.7520   27.3260   35.1210 C   0  0  0  0  0  0  0  0  0  0  0  0
   38.2730   26.4200   36.0260 C   0  0  0  0  0  0  0  0  0  0  0  0
   38.2720   25.0920   35.7160 C   0  0  0  0  0  0  0  0  0  0  0  0
   39.5830   27.7080   33.2740 H   0  0  0  0  0  0  0  0  0  0  0  0
   38.7350   28.3850   35.4120 H   0  0  0  0  0  0  0  0  0  0  0  0
   37.9020   26.7650   36.9740 H   0  0  0  0  0  0  0  0  0  0  0  0
   37.8080   24.0780   36.5580 N   0  0  0  0  0  0  0  0  0  0  0  0
   37.0570   23.4060   36.2930 H   0  0  0  0  0  0  0  0  0  0  0  0
   38.2280   23.5910   38.1530 S   0  0  0  0  0  0  0  0  0  0  0  0
   38.1380   24.7430   39.1110 O   0  0  0  0  0  1  0  0  0  0  0  0
   39.6300   23.0250   38.1820 O   0  0  0  0  0  1  0  0  0  0  0  0
   37.1130   22.3900   38.5980 O   0  0  0  0  0  0  0  0  0  0  0  0
   36.9680   22.4180   39.5970 H   0  0  0  0  0  0  0  0  0  0  0  0
  1  6  1  6  0  0  0
  1 21  1  0  0  0  0
  2 14  1  0  0  0  0
  2  7  1  1  0  0  0
  2  1  1  0  0  0  0
  3  2  1  0  0  0  0
  4  3  1  0  0  0  0
  4  5  1  0  0  0  0
  5 10  1  0  0  0  0
  5 11  1  0  0  0  0
  5  1  1  0  0  0  0
  8  3  1  0  0  0  0
  9  3  1  0  0  0  0
 12 17  1  0  0  0  0
 12 18  1  0  0  0  0
 13 12  2  0  0  0  0
 14 15  2  0  0  0  0
 14 13  1  0  0  0  0
 15 16  1  0  0  0  0
 16 17  2  0  0  0  0
 19 13  1  0  0  0  0
 20 16  1  0  0  0  0
 21 24  1  0  0  0  0
 22 23  1  0  0  0  0
 23 28  1  0  0  0  0
 24 25  1  0  0  0  0
 24 23  2  0  0  0  0
 25 26  2  0  0  0  0
 26 30  1  0  0  0  0
 26 27  1  0  0  0  0
 27 31  1  0  0  0  0
 28 27  2  0  0  0  0
 28 32  1  0  0  0  0
 29 25  1  0  0  0  0
 32 34  1  0  0  0  0
 33 32  1  0  0  0  0
 34 36  1  0  0  0  0
 34 37  1  0  0  0  0
 34 35  1  0  0  0  0
 37 38  1  0  0  0  0
M  END
>  <minimizedAffinity>
-5.38658619

$$$$

 OpenBabel03272501093D

 38 40  0  0  1  0  0  0  0  0999 V2000
   37.3030   25.2740   31.3970 C   0  0  2  0  0  0  0  0  0  0  0  0
   36.0010   26.0970   31.6340 C   0  0  2  0  0  0  0  0  0  0  0  0
   35.0380   25.3140   30.8740 C   0  0  0  0  0  0  0  0  0  0  0  0
   35.3790   23.9700   30.9970 O   0  0  0  0  0  0  0  0  0  0  0  0
   36.6180   23.8860   31.5390 C   0  0  0  0  0  0  0  0  0  0  0  0
   37.6650   25.4060   30.3810 H   0  0  0  0  0  0  0  0  0  0  0  0
   35.8180   26.0150   32.7340 H   0  0  0  0  0  0  0  0  0  0  0  0
   34.8720   25.5670   29.8220 H   0  0  0  0  0  0  0  0  0  0  0  0
   34.0210   25.4070   31.3560 H   0  0  0  0  0  0  0  0  0  0  0  0
   37.2480   23.2190   30.8820 H   0  0  0  0  0  0  0  0  0  0  0  0
   36.7050   23.4990   32.5570 H   0  0  0  0  0  0  0  0  0  0  0  0
   35.9160   29.8590   31.7840 C   0  0  0  0  0  0  0  0  0  0  0  0
   35.7210   28.5080   32.1870 C   0  0  0  0  0  0  0  0  0  0  0  0
   36.1720   27.4900   31.3010 C   0  0  0  0  0  0  0  0  0  0  0  0
   36.7680   27.8530   30.1100 N   0  0  0  0  0  0  0  0  0  0  0  0
   36.9270   29.1370   29.7800 C   0  0  0  0  0  0  0  0  0  0  0  0
   36.5140   30.1420   30.5900 N   0  0  0  0  0  0  0  0  0  0  0  0
   35.5880   30.6630   32.4280 H   0  0  0  0  0  0  0  0  0  0  0  0
   35.2480   28.2840   33.1300 H   0  0  0  0  0  0  0  0  0  0  0  0
   37.4070   29.2860   28.8220 H   0  0  0  0  0  0  0  0  0  0  0  0
   38.1950   25.4220   32.4060 O   0  0  0  0  0  0  0  0  0  0  0  0
   39.5840   22.7730   33.1480 Cl  0  0  0  0  0  0  0  0  0  0  0  0
   38.8720   23.9160   34.2790 C   0  0  0  0  0  0  0  0  0  0  0  0
   38.3180   25.0190   33.6920 C   0  0  0  0  0  0  0  0  0  0  0  0
   37.7590   25.9260   34.5770 C   0  0  0  0  0  0  0  0  0  0  0  0
   37.7670   25.7210   35.9450 C   0  0  0  0  0  0  0  0  0  0  0  0
   38.3400   24.5940   36.4660 C   0  0  0  0  0  0  0  0  0  0  0  0
   38.9020   23.6750   35.6300 C   0  0  0  0  0  0  0  0  0  0  0  0
   37.2780   26.8530   34.2940 H   0  0  0  0  0  0  0  0  0  0  0  0
   37.3270   26.4350   36.6540 H   0  0  0  0  0  0  0  0  0  0  0  0
   38.3410   24.4440   37.5300 H   0  0  0  0  0  0  0  0  0  0  0  0
   39.5140   22.4890   36.0460 N   0  0  0  0  0  0  0  0  0  0  0  0
   39.0090   21.5830   36.1450 H   0  0  0  0  0  0  0  0  0  0  0  0
   41.1250   22.0950   36.5010 S   0  0  0  0  0  0  0  0  0  0  0  0
   41.9480   23.3340   36.7020 O   0  0  0  0  0  1  0  0  0  0  0  0
   41.7760   21.2290   35.4450 O   0  0  0  0  0  1  0  0  0  0  0  0
   41.0150   21.2380   37.9620 O   0  0  0  0  0  0  0  0  0  0  0  0
   41.8430   21.4070   38.5140 H   0  0  0  0  0  0  0  0  0  0  0  0
  1  6  1  6  0  0  0
  1  5  1  0  0  0  0
  1  2  1  0  0  0  0
  1 21  1  0  0  0  0
  2  7  1  1  0  0  0
  3  4  1  0  0  0  0
  3  9  1  0  0  0  0
  3  2  1  0  0  0  0
  4  5  1  0  0  0  0
  5 11  1  0  0  0  0
  8  3  1  0  0  0  0
 10  5  1  0  0  0  0
 12 13  1  0  0  0  0
 12 18  1  0  0  0  0
 13 19  1  0  0  0  0
 14  2  1  0  0  0  0
 14 13  2  0  0  0  0
 15 14  1  0  0  0  0
 16 15  2  0  0  0  0
 16 17  1  0  0  0  0
 17 12  2  0  0  0  0
 20 16  1  0  0  0  0
 21 24  1  0  0  0  0
 22 23  1  0  0  0  0
 23 28  1  0  0  0  0
 24 23  2  0  0  0  0
 24 25  1  0  0  0  0
 25 26  2  0  0  0  0
 26 27  1  0  0  0  0
 26 30  1  0  0  0  0
 27 31  1  0  0  0  0
 28 32  1  0  0  0  0
 28 27  2  0  0  0  0
 29 25  1  0  0  0  0
 32 33  1  0  0  0  0
 32 34  1  0  0  0  0
 34 35  1  0  0  0  0
 34 37  1  0  0  0  0
 36 34  1  0  0  0  0
 37 38  1  0  0  0  0
M  END
>  <minimizedAffinity>
-5.31149244

$$$$
