
 OpenBabel03272510153D

 26 27  0  0  0  0  0  0  0  0999 V2000
   37.4610   29.2090   50.9080 Br  0  0  0  0  0  0  0  0  0  0  0  0
   36.0180   29.2980   49.6720 C   0  0  0  0  0  0  0  0  0  0  0  0
   35.9790   30.2660   48.6920 C   0  0  0  0  0  0  0  0  0  0  0  0
   34.8960   30.2640   47.8330 C   0  0  0  0  0  0  0  0  0  0  0  0
   33.8650   29.3440   47.9130 C   0  0  0  0  0  0  0  0  0  0  0  0
   33.9320   28.3930   48.8970 C   0  0  0  0  0  0  0  0  0  0  0  0
   35.0120   28.3760   49.7740 C   0  0  0  0  0  0  0  0  0  0  0  0
   34.8740   31.0390   47.0570 H   0  0  0  0  0  0  0  0  0  0  0  0
   33.1200   27.6790   48.9500 H   0  0  0  0  0  0  0  0  0  0  0  0
   34.9790   27.5850   50.5210 H   0  0  0  0  0  0  0  0  0  0  0  0
   38.0220   33.1990   49.4140 C   0  0  0  0  0  0  0  0  0  0  0  0
   39.0380   33.1610   48.4220 C   0  0  0  0  0  0  0  0  0  0  0  0
   38.9910   32.1110   47.5190 C   0  0  0  0  0  0  0  0  0  0  0  0
   37.9940   31.1710   47.6110 N   0  0  0  0  0  0  0  0  0  0  0  0
   37.0460   31.2530   48.5780 C   0  0  0  0  0  0  0  0  0  0  0  0
   37.0620   32.2710   49.4800 N   0  0  0  0  0  0  0  0  0  0  0  0
   37.9810   33.9870   50.1620 H   0  0  0  0  0  0  0  0  0  0  0  0
   39.7780   33.9400   48.4260 H   0  0  0  0  0  0  0  0  0  0  0  0
   39.7520   32.0690   46.7630 H   0  0  0  0  0  0  0  0  0  0  0  0
   32.8140   29.4750   46.9470 N   0  0  0  0  0  0  0  0  0  0  0  0
   32.3490   30.3790   47.0550 H   0  0  0  0  0  0  0  0  0  0  0  0
   32.4140   28.2670   45.7810 S   0  0  0  0  0  0  0  0  0  0  0  0
   31.9070   28.9080   44.5390 O   0  0  0  0  0  1  0  0  0  0  0  0
   33.6950   27.5260   45.4270 O   0  0  0  0  0  1  0  0  0  0  0  0
   31.3670   27.1070   46.3970 O   0  0  0  0  0  0  0  0  0  0  0  0
   30.4440   27.4710   46.3250 H   0  0  0  0  0  0  0  0  0  0  0  0
  2  7  1  0  0  0  0
  2  1  1  0  0  0  0
  3  2  2  0  0  0  0
  4  5  2  0  0  0  0
  4  3  1  0  0  0  0
  5  6  1  0  0  0  0
  6  9  1  0  0  0  0
  6  7  2  0  0  0  0
  7 10  1  0  0  0  0
  8  4  1  0  0  0  0
 11 16  1  0  0  0  0
 11 17  1  0  0  0  0
 12 18  1  0  0  0  0
 12 11  2  0  0  0  0
 13 14  2  0  0  0  0
 13 12  1  0  0  0  0
 14 15  1  0  0  0  0
 15  3  1  0  0  0  0
 15 16  2  0  0  0  0
 19 13  1  0  0  0  0
 20 21  1  0  0  0  0
 20  5  1  0  0  0  0
 22 25  1  0  0  0  0
 22 20  1  0  0  0  0
 23 22  1  0  0  0  0
 24 22  1  0  0  0  0
 26 25  1  0  0  0  0
M  END
>  <minimizedAffinity>
-5.34503078

>  <minimizedRMSD>
0.569098055

$$$$
