
 OpenBabel03262521513D

 20 20  0  0  0  0  0  0  0  0999 V2000
   37.3340   29.4570   50.6570 S   0  0  0  0  0  0  0  0  0  0  0  0
   37.8770   30.7650   49.5770 C   0  0  0  0  0  0  0  0  0  0  0  0
   37.7470   30.3930   48.2360 C   0  0  0  0  0  0  0  0  0  0  0  0
   38.1400   31.3320   47.2600 C   0  0  0  0  0  0  0  0  0  0  0  0
   38.6260   32.5500   47.6700 N   0  0  0  0  0  0  0  0  0  0  0  0
   38.7220   32.8380   48.9890 C   0  0  0  0  0  0  0  0  0  0  0  0
   38.3500   31.9520   49.9200 N   0  0  0  0  0  0  0  0  0  0  0  0
   37.3700   29.4460   47.8390 H   0  0  0  0  0  0  0  0  0  0  0  0
   38.0700   31.1190   46.1960 H   0  0  0  0  0  0  0  0  0  0  0  0
   39.1100   33.8120   49.2420 H   0  0  0  0  0  0  0  0  0  0  0  0
   35.5290   29.4040   50.5650 C   0  0  0  0  0  0  0  0  0  0  0  0
   35.0650   30.3460   50.2830 H   0  0  0  0  0  0  0  0  0  0  0  0
   35.1860   29.1660   51.6050 H   0  0  0  0  0  0  0  0  0  0  0  0
   35.1430   28.2940   49.7170 N   0  0  0  0  0  0  0  0  0  0  0  0
   34.7020   27.5300   50.2800 H   0  0  0  0  0  0  0  0  0  0  0  0
   33.9630   28.7670   48.5490 S   0  0  0  0  0  0  0  0  0  0  0  0
   34.1160   27.8650   47.3500 O   0  0  0  0  0  0  0  0  0  0  0  0
   34.2420   30.1940   48.1690 O   0  0  0  0  0  0  0  0  0  0  0  0
   32.4390   28.5920   49.2390 O   0  0  0  0  0  0  0  0  0  0  0  0
   31.9410   29.4600   49.2780 H   0  0  0  0  0  0  0  0  0  0  0  0
  2  7  1  0  0  0  0
  2  1  1  0  0  0  0
  3  2  2  0  0  0  0
  4  5  2  0  0  0  0
  4  3  1  0  0  0  0
  5  6  1  0  0  0  0
  6 10  1  0  0  0  0
  6  7  2  0  0  0  0
  8  3  1  0  0  0  0
  9  4  1  0  0  0  0
 11  1  1  0  0  0  0
 11 13  1  0  0  0  0
 12 11  1  0  0  0  0
 14 15  1  0  0  0  0
 14 11  1  0  0  0  0
 16 19  1  0  0  0  0
 16 14  1  0  0  0  0
 17 16  1  0  0  0  0
 18 16  1  0  0  0  0
 19 20  1  0  0  0  0
M  END
>  <minimizedAffinity>
-3.95567846

>  <minimizedRMSD>
2.40261555

$$$$
