
 OpenBabel03272510153D

 26 27  0  0  0  0  0  0  0  0999 V2000
   37.3950   30.0930   51.3280 Br  0  0  0  0  0  0  0  0  0  0  0  0
   36.0210   29.7420   50.0610 C   0  0  0  0  0  0  0  0  0  0  0  0
   36.0860   30.2500   48.7810 C   0  0  0  0  0  0  0  0  0  0  0  0
   35.0480   29.9490   47.9200 C   0  0  0  0  0  0  0  0  0  0  0  0
   33.9620   29.1690   48.2820 C   0  0  0  0  0  0  0  0  0  0  0  0
   33.9260   28.6780   49.5600 C   0  0  0  0  0  0  0  0  0  0  0  0
   34.9600   28.9680   50.4450 C   0  0  0  0  0  0  0  0  0  0  0  0
   35.1080   30.3580   46.9040 H   0  0  0  0  0  0  0  0  0  0  0  0
   33.0730   28.0700   49.8320 H   0  0  0  0  0  0  0  0  0  0  0  0
   34.8450   28.5350   51.4370 H   0  0  0  0  0  0  0  0  0  0  0  0
   38.4200   33.0480   48.6600 C   0  0  0  0  0  0  0  0  0  0  0  0
   39.3270   32.6930   47.6270 C   0  0  0  0  0  0  0  0  0  0  0  0
   39.1070   31.4820   46.9910 C   0  0  0  0  0  0  0  0  0  0  0  0
   38.0510   30.6890   47.3700 N   0  0  0  0  0  0  0  0  0  0  0  0
   37.2130   31.0750   48.3640 C   0  0  0  0  0  0  0  0  0  0  0  0
   37.4000   32.2580   49.0090 N   0  0  0  0  0  0  0  0  0  0  0  0
   38.5170   33.9800   49.2110 H   0  0  0  0  0  0  0  0  0  0  0  0
   40.1250   33.3760   47.3970 H   0  0  0  0  0  0  0  0  0  0  0  0
   39.7840   31.1990   46.2070 H   0  0  0  0  0  0  0  0  0  0  0  0
   32.9690   28.9480   47.2730 N   0  0  0  0  0  0  0  0  0  0  0  0
   32.4340   28.1030   47.4850 H   0  0  0  0  0  0  0  0  0  0  0  0
   32.7310   29.9760   45.9070 S   0  0  0  0  0  0  0  0  0  0  0  0
   32.5590   31.3840   46.3540 O   0  0  0  0  0  1  0  0  0  0  0  0
   33.9920   29.9130   45.0590 O   0  0  0  0  0  1  0  0  0  0  0  0
   31.4830   29.4440   44.9170 O   0  0  0  0  0  0  0  0  0  0  0  0
   30.6300   29.7780   45.3070 H   0  0  0  0  0  0  0  0  0  0  0  0
  2  7  1  0  0  0  0
  2  1  1  0  0  0  0
  3  2  2  0  0  0  0
  4  5  2  0  0  0  0
  4  3  1  0  0  0  0
  5  6  1  0  0  0  0
  6  9  1  0  0  0  0
  6  7  2  0  0  0  0
  7 10  1  0  0  0  0
  8  4  1  0  0  0  0
 11 16  1  0  0  0  0
 11 17  1  0  0  0  0
 12 11  2  0  0  0  0
 13 14  2  0  0  0  0
 13 12  1  0  0  0  0
 14 15  1  0  0  0  0
 15  3  1  0  0  0  0
 15 16  2  0  0  0  0
 18 12  1  0  0  0  0
 19 13  1  0  0  0  0
 20 21  1  0  0  0  0
 20  5  1  0  0  0  0
 22 23  1  0  0  0  0
 22 20  1  0  0  0  0
 24 22  1  0  0  0  0
 25 26  1  0  0  0  0
 25 22  1  0  0  0  0
M  END
>  <minimizedAffinity>
-5.31010389

>  <minimizedRMSD>
0.963243723

$$$$
