
 OpenBabel03272510153D

 26 27  0  0  0  0  0  0  0  0999 V2000
   36.9580   29.5920   51.2300 Br  0  0  0  0  0  0  0  0  0  0  0  0
   35.9010   29.3230   49.6720 C   0  0  0  0  0  0  0  0  0  0  0  0
   36.0860   30.0920   48.5440 C   0  0  0  0  0  0  0  0  0  0  0  0
   35.2780   29.8350   47.4530 C   0  0  0  0  0  0  0  0  0  0  0  0
   34.3050   28.8500   47.4440 C   0  0  0  0  0  0  0  0  0  0  0  0
   34.1450   28.1000   48.5800 C   0  0  0  0  0  0  0  0  0  0  0  0
   34.9460   28.3420   49.6900 C   0  0  0  0  0  0  0  0  0  0  0  0
   35.4320   30.4530   46.5600 H   0  0  0  0  0  0  0  0  0  0  0  0
   33.3810   27.3330   48.5620 H   0  0  0  0  0  0  0  0  0  0  0  0
   34.7470   27.6980   50.5440 H   0  0  0  0  0  0  0  0  0  0  0  0
   37.9000   33.1260   49.4370 C   0  0  0  0  0  0  0  0  0  0  0  0
   38.9850   33.1590   48.5220 C   0  0  0  0  0  0  0  0  0  0  0  0
   39.0630   32.1200   47.6080 C   0  0  0  0  0  0  0  0  0  0  0  0
   38.1180   31.1240   47.6190 N   0  0  0  0  0  0  0  0  0  0  0  0
   37.1000   31.1400   48.5150 C   0  0  0  0  0  0  0  0  0  0  0  0
   36.9940   32.1440   49.4260 N   0  0  0  0  0  0  0  0  0  0  0  0
   37.7610   33.9000   50.1880 H   0  0  0  0  0  0  0  0  0  0  0  0
   39.6770   33.9790   48.5860 H   0  0  0  0  0  0  0  0  0  0  0  0
   39.8780   32.1310   46.9080 H   0  0  0  0  0  0  0  0  0  0  0  0
   33.5500   28.7070   46.2340 N   0  0  0  0  0  0  0  0  0  0  0  0
   34.0050   28.0330   45.6130 H   0  0  0  0  0  0  0  0  0  0  0  0
   32.0880   29.5600   45.8980 S   0  0  0  0  0  0  0  0  0  0  0  0
   31.0050   29.0900   46.8030 O   0  0  0  0  0  1  0  0  0  0  0  0
   32.3340   31.0310   46.2020 O   0  0  0  0  0  1  0  0  0  0  0  0
   31.6660   29.4900   44.2750 O   0  0  0  0  0  0  0  0  0  0  0  0
   31.1870   28.6300   44.1280 H   0  0  0  0  0  0  0  0  0  0  0  0
  2  7  1  0  0  0  0
  2  1  1  0  0  0  0
  3  2  2  0  0  0  0
  4  3  1  0  0  0  0
  5  4  2  0  0  0  0
  5  6  1  0  0  0  0
  6  7  2  0  0  0  0
  7 10  1  0  0  0  0
  8  4  1  0  0  0  0
  9  6  1  0  0  0  0
 11 17  1  0  0  0  0
 12 18  1  0  0  0  0
 12 11  2  0  0  0  0
 13 14  2  0  0  0  0
 13 12  1  0  0  0  0
 14 15  1  0  0  0  0
 15  3  1  0  0  0  0
 15 16  2  0  0  0  0
 16 11  1  0  0  0  0
 19 13  1  0  0  0  0
 20  5  1  0  0  0  0
 21 20  1  0  0  0  0
 22 24  1  0  0  0  0
 22 20  1  0  0  0  0
 22 23  1  0  0  0  0
 25 22  1  0  0  0  0
 26 25  1  0  0  0  0
M  END
>  <minimizedAffinity>
-5.52865553

>  <minimizedRMSD>
0.715471387

$$$$
