
 OpenBabel03272510153D

 26 27  0  0  0  0  0  0  0  0999 V2000
   37.3790   29.3970   51.1080 Br  0  0  0  0  0  0  0  0  0  0  0  0
   35.9700   29.4180   49.8310 C   0  0  0  0  0  0  0  0  0  0  0  0
   35.9660   30.3210   48.7900 C   0  0  0  0  0  0  0  0  0  0  0  0
   34.9070   30.2720   47.9040 C   0  0  0  0  0  0  0  0  0  0  0  0
   33.8650   29.3680   48.0150 C   0  0  0  0  0  0  0  0  0  0  0  0
   33.8960   28.4820   49.0600 C   0  0  0  0  0  0  0  0  0  0  0  0
   34.9520   28.5130   49.9640 C   0  0  0  0  0  0  0  0  0  0  0  0
   34.9120   30.9960   47.0790 H   0  0  0  0  0  0  0  0  0  0  0  0
   33.0770   27.7790   49.1360 H   0  0  0  0  0  0  0  0  0  0  0  0
   34.8920   27.7730   50.7600 H   0  0  0  0  0  0  0  0  0  0  0  0
   38.0500   33.2480   49.4110 C   0  0  0  0  0  0  0  0  0  0  0  0
   39.0620   33.1650   48.4180 C   0  0  0  0  0  0  0  0  0  0  0  0
   38.9980   32.0890   47.5490 C   0  0  0  0  0  0  0  0  0  0  0  0
   37.9890   31.1650   47.6730 N   0  0  0  0  0  0  0  0  0  0  0  0
   37.0460   31.2900   48.6400 C   0  0  0  0  0  0  0  0  0  0  0  0
   37.0790   32.3350   49.5100 N   0  0  0  0  0  0  0  0  0  0  0  0
   38.0230   34.0590   50.1350 H   0  0  0  0  0  0  0  0  0  0  0  0
   39.8130   33.9340   48.3950 H   0  0  0  0  0  0  0  0  0  0  0  0
   39.7550   32.0130   46.7920 H   0  0  0  0  0  0  0  0  0  0  0  0
   32.8410   29.4450   47.0140 N   0  0  0  0  0  0  0  0  0  0  0  0
   32.1810   30.1910   47.2440 H   0  0  0  0  0  0  0  0  0  0  0  0
   32.7580   28.4140   45.6320 S   0  0  0  0  0  0  0  0  0  0  0  0
   32.7970   29.2290   44.3880 O   0  0  0  0  0  1  0  0  0  0  0  0
   33.9970   27.5320   45.6410 O   0  0  0  0  0  1  0  0  0  0  0  0
   31.4460   27.3680   45.6920 O   0  0  0  0  0  0  0  0  0  0  0  0
   30.6520   27.8670   45.3580 H   0  0  0  0  0  0  0  0  0  0  0  0
  2  7  1  0  0  0  0
  2  1  1  0  0  0  0
  3  2  2  0  0  0  0
  4  5  2  0  0  0  0
  4  3  1  0  0  0  0
  5  6  1  0  0  0  0
  6  9  1  0  0  0  0
  6  7  2  0  0  0  0
  7 10  1  0  0  0  0
  8  4  1  0  0  0  0
 11 16  1  0  0  0  0
 11 17  1  0  0  0  0
 12 11  2  0  0  0  0
 13 14  2  0  0  0  0
 13 12  1  0  0  0  0
 14 15  1  0  0  0  0
 15  3  1  0  0  0  0
 15 16  2  0  0  0  0
 18 12  1  0  0  0  0
 19 13  1  0  0  0  0
 20 21  1  0  0  0  0
 20  5  1  0  0  0  0
 22 24  1  0  0  0  0
 22 25  1  0  0  0  0
 22 20  1  0  0  0  0
 23 22  1  0  0  0  0
 26 25  1  0  0  0  0
M  END
>  <minimizedAffinity>
-5.33739948

>  <minimizedRMSD>
0.421285123

$$$$
