
 OpenBabel03272510153D

 26 27  0  0  0  0  0  0  0  0999 V2000
   37.0620   29.6430   51.2080 Br  0  0  0  0  0  0  0  0  0  0  0  0
   35.9820   29.3840   49.6640 C   0  0  0  0  0  0  0  0  0  0  0  0
   36.1480   30.1630   48.5390 C   0  0  0  0  0  0  0  0  0  0  0  0
   35.3240   29.9120   47.4590 C   0  0  0  0  0  0  0  0  0  0  0  0
   34.3530   28.9260   47.4570 C   0  0  0  0  0  0  0  0  0  0  0  0
   34.2110   28.1670   48.5890 C   0  0  0  0  0  0  0  0  0  0  0  0
   35.0290   28.4010   49.6890 C   0  0  0  0  0  0  0  0  0  0  0  0
   35.4640   30.5380   46.5690 H   0  0  0  0  0  0  0  0  0  0  0  0
   33.4480   27.3990   48.5770 H   0  0  0  0  0  0  0  0  0  0  0  0
   34.8430   27.7500   50.5410 H   0  0  0  0  0  0  0  0  0  0  0  0
   37.9780   33.1860   49.4360 C   0  0  0  0  0  0  0  0  0  0  0  0
   39.0430   33.2340   48.4980 C   0  0  0  0  0  0  0  0  0  0  0  0
   39.1020   32.2080   47.5680 C   0  0  0  0  0  0  0  0  0  0  0  0
   38.1590   31.2100   47.5850 N   0  0  0  0  0  0  0  0  0  0  0  0
   37.1610   31.2120   48.5040 C   0  0  0  0  0  0  0  0  0  0  0  0
   37.0730   32.2030   49.4300 N   0  0  0  0  0  0  0  0  0  0  0  0
   37.8540   33.9500   50.2000 H   0  0  0  0  0  0  0  0  0  0  0  0
   39.7350   34.0530   48.5590 H   0  0  0  0  0  0  0  0  0  0  0  0
   39.9020   32.2300   46.8510 H   0  0  0  0  0  0  0  0  0  0  0  0
   33.5800   28.7910   46.2580 N   0  0  0  0  0  0  0  0  0  0  0  0
   33.4270   27.8030   46.0470 H   0  0  0  0  0  0  0  0  0  0  0  0
   33.0030   30.1220   45.3220 S   0  0  0  0  0  0  0  0  0  0  0  0
   31.9180   29.6700   44.4110 O   0  0  0  0  0  1  0  0  0  0  0  0
   32.4010   31.1330   46.2860 O   0  0  0  0  0  1  0  0  0  0  0  0
   34.2410   30.9270   44.5230 O   0  0  0  0  0  0  0  0  0  0  0  0
   34.4270   30.4280   43.6830 H   0  0  0  0  0  0  0  0  0  0  0  0
  2  7  1  0  0  0  0
  2  1  1  0  0  0  0
  3  2  2  0  0  0  0
  4  3  1  0  0  0  0
  5  4  2  0  0  0  0
  5  6  1  0  0  0  0
  6  7  2  0  0  0  0
  7 10  1  0  0  0  0
  8  4  1  0  0  0  0
  9  6  1  0  0  0  0
 11 17  1  0  0  0  0
 12 18  1  0  0  0  0
 12 11  2  0  0  0  0
 13 14  2  0  0  0  0
 13 12  1  0  0  0  0
 14 15  1  0  0  0  0
 15  3  1  0  0  0  0
 15 16  2  0  0  0  0
 16 11  1  0  0  0  0
 19 13  1  0  0  0  0
 20  5  1  0  0  0  0
 21 20  1  0  0  0  0
 22 20  1  0  0  0  0
 22 24  1  0  0  0  0
 23 22  1  0  0  0  0
 25 22  1  0  0  0  0
 26 25  1  0  0  0  0
M  END
>  <minimizedAffinity>
-5.67628193

>  <minimizedRMSD>
0.7493276

$$$$
