
 OpenBabel03272510143D

 26 27  0  0  0  0  0  0  0  0999 V2000
   37.4590   29.2130   50.9110 Br  0  0  0  0  0  0  0  0  0  0  0  0
   36.0210   29.2940   49.6690 C   0  0  0  0  0  0  0  0  0  0  0  0
   35.9820   30.2590   48.6860 C   0  0  0  0  0  0  0  0  0  0  0  0
   34.9030   30.2510   47.8230 C   0  0  0  0  0  0  0  0  0  0  0  0
   33.8750   29.3270   47.9010 C   0  0  0  0  0  0  0  0  0  0  0  0
   33.9410   28.3790   48.8890 C   0  0  0  0  0  0  0  0  0  0  0  0
   35.0180   28.3680   49.7690 C   0  0  0  0  0  0  0  0  0  0  0  0
   34.8810   31.0230   47.0450 H   0  0  0  0  0  0  0  0  0  0  0  0
   33.1320   27.6630   48.9400 H   0  0  0  0  0  0  0  0  0  0  0  0
   34.9840   27.5800   50.5190 H   0  0  0  0  0  0  0  0  0  0  0  0
   38.0180   33.1950   49.4130 C   0  0  0  0  0  0  0  0  0  0  0  0
   39.0330   33.1630   48.4200 C   0  0  0  0  0  0  0  0  0  0  0  0
   38.9880   32.1160   47.5140 C   0  0  0  0  0  0  0  0  0  0  0  0
   37.9930   31.1720   47.6040 N   0  0  0  0  0  0  0  0  0  0  0  0
   37.0470   31.2490   48.5730 C   0  0  0  0  0  0  0  0  0  0  0  0
   37.0620   32.2640   49.4780 N   0  0  0  0  0  0  0  0  0  0  0  0
   37.9770   33.9810   50.1640 H   0  0  0  0  0  0  0  0  0  0  0  0
   39.7720   33.9440   48.4250 H   0  0  0  0  0  0  0  0  0  0  0  0
   39.7480   32.0780   46.7570 H   0  0  0  0  0  0  0  0  0  0  0  0
   32.8280   29.4530   46.9310 N   0  0  0  0  0  0  0  0  0  0  0  0
   33.0320   30.2220   46.2890 H   0  0  0  0  0  0  0  0  0  0  0  0
   31.4310   28.4380   46.8760 S   0  0  0  0  0  0  0  0  0  0  0  0
   30.5520   28.8450   45.7490 O   0  0  0  0  0  1  0  0  0  0  0  0
   31.9050   27.0200   46.6010 O   0  0  0  0  0  1  0  0  0  0  0  0
   30.6280   28.3780   48.3500 O   0  0  0  0  0  0  0  0  0  0  0  0
   30.0350   29.1760   48.3990 H   0  0  0  0  0  0  0  0  0  0  0  0
  2  7  1  0  0  0  0
  2  1  1  0  0  0  0
  3  2  2  0  0  0  0
  4  5  2  0  0  0  0
  4  3  1  0  0  0  0
  5  6  1  0  0  0  0
  6  9  1  0  0  0  0
  6  7  2  0  0  0  0
  7 10  1  0  0  0  0
  8  4  1  0  0  0  0
 11 16  1  0  0  0  0
 11 17  1  0  0  0  0
 12 18  1  0  0  0  0
 12 11  2  0  0  0  0
 13 14  2  0  0  0  0
 13 12  1  0  0  0  0
 14 15  1  0  0  0  0
 15  3  1  0  0  0  0
 15 16  2  0  0  0  0
 19 13  1  0  0  0  0
 20  5  1  0  0  0  0
 21 20  1  0  0  0  0
 22 20  1  0  0  0  0
 22 25  1  0  0  0  0
 23 22  1  0  0  0  0
 24 22  1  0  0  0  0
 25 26  1  0  0  0  0
M  END
>  <minimizedAffinity>
-5.72189808

>  <minimizedRMSD>
0.808565915

$$$$
