
 OpenBabel03272509563D

 44 46  0  0  0  0  0  0  0  0999 V2000
   34.3320   28.7720   48.1180 C   0  0  0  0  0  0  0  0  0  0  0  0
   35.1260   29.0600   47.3860 H   0  0  0  0  0  0  0  0  0  0  0  0
   33.7480   29.7100   48.3360 H   0  0  0  0  0  0  0  0  0  0  0  0
   33.4610   27.6820   47.5930 C   0  0  0  0  0  0  0  0  0  0  0  0
   33.7310   26.6720   47.9510 H   0  0  0  0  0  0  0  0  0  0  0  0
   33.6120   27.6330   46.4770 H   0  0  0  0  0  0  0  0  0  0  0  0
   32.0110   27.9310   47.8090 C   0  0  0  0  0  0  0  0  0  0  0  0
   31.4640   27.5570   49.0230 C   0  0  0  0  0  0  0  0  0  0  0  0
   30.1380   27.7450   49.3160 C   0  0  0  0  0  0  0  0  0  0  0  0
   29.3430   28.3120   48.3930 N   0  0  0  0  0  0  0  0  0  0  0  0
   29.8960   28.6690   47.2130 C   0  0  0  0  0  0  0  0  0  0  0  0
   31.1850   28.5020   46.8930 N   0  0  0  0  0  0  0  0  0  0  0  0
   32.0580   27.0980   49.7990 H   0  0  0  0  0  0  0  0  0  0  0  0
   29.7100   27.4570   50.2550 H   0  0  0  0  0  0  0  0  0  0  0  0
   28.9750   29.3020   46.2040 C   0  0  0  0  0  0  0  0  0  0  0  0
   27.9850   29.5340   46.6200 H   0  0  0  0  0  0  0  0  0  0  0  0
   29.4100   30.2530   45.8590 H   0  0  0  0  0  0  0  0  0  0  0  0
   28.9070   28.3610   45.1040 N   0  0  0  0  0  0  0  0  0  0  0  0
   29.7670   27.7940   45.0070 H   0  0  0  0  0  0  0  0  0  0  0  0
   27.5720   27.2810   45.2730 S   0  0  0  0  0  0  0  0  0  0  0  0
   26.5730   27.9230   46.1680 O   0  0  0  0  0  1  0  0  0  0  0  0
   28.1300   25.9940   45.8270 O   0  0  0  0  0  1  0  0  0  0  0  0
   26.8690   26.9290   43.8070 O   0  0  0  0  0  0  0  0  0  0  0  0
   26.2600   27.6550   43.4680 H   0  0  0  0  0  0  0  0  0  0  0  0
   34.9540   28.3840   49.3380 O   0  0  0  0  0  0  0  0  0  0  0  0
   37.2960   30.1530   51.4530 C   0  0  0  0  0  0  0  0  0  0  0  0
   38.0410   30.8380   50.4720 C   0  0  0  0  0  0  0  0  0  0  0  0
   37.6950   30.6520   49.1470 C   0  0  0  0  0  0  0  0  0  0  0  0
   36.6460   29.8070   48.9020 N   0  0  0  0  0  0  0  0  0  0  0  0
   35.9470   29.1620   49.8470 C   0  0  0  0  0  0  0  0  0  0  0  0
   36.2830   29.3430   51.1380 N   0  0  0  0  0  0  0  0  0  0  0  0
   37.5770   30.3070   52.4890 H   0  0  0  0  0  0  0  0  0  0  0  0
   38.8550   31.4920   50.6850 H   0  0  0  0  0  0  0  0  0  0  0  0
   38.9210   33.2660   48.9850 F   0  0  0  0  0  0  0  0  0  0  0  0
   38.9220   32.4810   47.9210 C   0  0  0  0  0  0  0  0  0  0  0  0
   38.3490   31.2730   48.0150 C   0  0  0  0  0  0  0  0  0  0  0  0
   38.4060   30.5260   46.8340 C   0  0  0  0  0  0  0  0  0  0  0  0
   38.9940   30.9940   45.6900 C   0  0  0  0  0  0  0  0  0  0  0  0
   39.5690   32.2340   45.6350 C   0  0  0  0  0  0  0  0  0  0  0  0
   39.5220   32.9760   46.7780 C   0  0  0  0  0  0  0  0  0  0  0  0
   37.9650   29.5180   46.8000 H   0  0  0  0  0  0  0  0  0  0  0  0
   39.0120   30.3740   44.7980 H   0  0  0  0  0  0  0  0  0  0  0  0
   40.0190   32.5550   44.7100 H   0  0  0  0  0  0  0  0  0  0  0  0
   39.9690   33.9680   46.7700 H   0  0  0  0  0  0  0  0  0  0  0  0
  1  3  1  0  0  0  0
  1 25  1  0  0  0  0
  2  1  1  0  0  0  0
  4  7  1  0  0  0  0
  4  5  1  0  0  0  0
  4  1  1  0  0  0  0
  6  4  1  0  0  0  0
  7  8  1  0  0  0  0
  8  9  2  0  0  0  0
  8 13  1  0  0  0  0
  9 14  1  0  0  0  0
 10  9  1  0  0  0  0
 11 10  2  0  0  0  0
 12 11  1  0  0  0  0
 12  7  2  0  0  0  0
 15 16  1  0  0  0  0
 15 11  1  0  0  0  0
 17 15  1  0  0  0  0
 18 20  1  0  0  0  0
 18 15  1  0  0  0  0
 19 18  1  0  0  0  0
 20 22  1  0  0  0  0
 20 21  1  0  0  0  0
 23 20  1  0  0  0  0
 24 23  1  0  0  0  0
 25 30  1  0  0  0  0
 26 32  1  0  0  0  0
 27 33  1  0  0  0  0
 27 26  2  0  0  0  0
 28 27  1  0  0  0  0
 29 28  2  0  0  0  0
 29 30  1  0  0  0  0
 30 31  2  0  0  0  0
 31 26  1  0  0  0  0
 35 36  1  0  0  0  0
 35 34  1  0  0  0  0
 36 28  1  0  0  0  0
 37 36  2  0  0  0  0
 38 37  1  0  0  0  0
 39 38  2  0  0  0  0
 39 40  1  0  0  0  0
 40 35  2  0  0  0  0
 41 37  1  0  0  0  0
 42 38  1  0  0  0  0
 43 39  1  0  0  0  0
 44 40  1  0  0  0  0
M  END
>  <minimizedAffinity>
-6.20580292

>  <minimizedRMSD>
0.627697587

$$$$
