
 OpenBabel03272501073D

 38 40  0  0  1  0  0  0  0  0999 V2000
   38.7640   32.2720   47.8470 C   0  0  2  0  0  0  0  0  0  0  0  0
   37.8920   32.6900   49.0680 C   0  0  2  0  0  0  0  0  0  0  0  0
   38.8550   33.4550   49.8460 C   0  0  0  0  0  0  0  0  0  0  0  0
   39.6840   34.1380   48.9590 O   0  0  0  0  0  0  0  0  0  0  0  0
   39.4830   33.6430   47.7130 C   0  0  0  0  0  0  0  0  0  0  0  0
   39.4800   31.5040   48.1270 H   0  0  0  0  0  0  0  0  0  0  0  0
   37.1010   33.3500   48.6310 H   0  0  0  0  0  0  0  0  0  0  0  0
   39.4550   32.9320   50.5960 H   0  0  0  0  0  0  0  0  0  0  0  0
   38.3110   34.2600   50.4220 H   0  0  0  0  0  0  0  0  0  0  0  0
   40.4860   33.3670   47.2760 H   0  0  0  0  0  0  0  0  0  0  0  0
   38.9870   34.2860   46.9820 H   0  0  0  0  0  0  0  0  0  0  0  0
   37.2190   29.7080   51.2660 C   0  0  0  0  0  0  0  0  0  0  0  0
   37.9130   30.8170   50.7090 C   0  0  0  0  0  0  0  0  0  0  0  0
   37.2500   31.5570   49.6890 C   0  0  0  0  0  0  0  0  0  0  0  0
   35.9860   31.1700   49.2940 N   0  0  0  0  0  0  0  0  0  0  0  0
   35.3800   30.1180   49.8510 C   0  0  0  0  0  0  0  0  0  0  0  0
   35.9690   29.3830   50.8260 N   0  0  0  0  0  0  0  0  0  0  0  0
   37.6880   29.1190   52.0440 H   0  0  0  0  0  0  0  0  0  0  0  0
   38.9010   31.0730   51.0570 H   0  0  0  0  0  0  0  0  0  0  0  0
   34.3930   29.9210   49.4530 H   0  0  0  0  0  0  0  0  0  0  0  0
   38.0220   32.0620   46.7330 O   0  0  0  0  0  0  0  0  0  0  0  0
   40.5730   30.8490   45.5010 Cl  0  0  0  0  0  0  0  0  0  0  0  0
   38.9210   30.4790   45.0250 C   0  0  0  0  0  0  0  0  0  0  0  0
   37.9660   31.1540   45.7320 C   0  0  0  0  0  0  0  0  0  0  0  0
   36.6620   30.8640   45.3650 C   0  0  0  0  0  0  0  0  0  0  0  0
   36.3630   29.9620   44.3600 C   0  0  0  0  0  0  0  0  0  0  0  0
   37.3700   29.3210   43.6910 C   0  0  0  0  0  0  0  0  0  0  0  0
   38.6680   29.5770   44.0210 C   0  0  0  0  0  0  0  0  0  0  0  0
   35.7800   31.3000   45.8130 H   0  0  0  0  0  0  0  0  0  0  0  0
   35.3320   29.7260   44.0620 H   0  0  0  0  0  0  0  0  0  0  0  0
   37.1270   28.6230   42.9130 H   0  0  0  0  0  0  0  0  0  0  0  0
   39.7770   28.9850   43.4100 N   0  0  0  0  0  0  0  0  0  0  0  0
   40.2770   28.1580   43.8000 H   0  0  0  0  0  0  0  0  0  0  0  0
   40.6470   29.3310   41.9690 S   0  0  0  0  0  0  0  0  0  0  0  0
   40.6390   30.8020   41.6720 O   0  0  0  0  0  0  0  0  0  0  0  0
   40.0520   28.5810   40.7970 O   0  0  0  0  0  0  0  0  0  0  0  0
   42.2420   28.8100   42.2340 O   0  0  0  0  0  0  0  0  0  0  0  0
   42.8770   29.3880   41.7040 H   0  0  0  0  0  0  0  0  0  0  0  0
  1  6  1  1  0  0  0
  1  2  1  0  0  0  0
  2  7  1  6  0  0  0
  2 14  1  0  0  0  0
  2  3  1  0  0  0  0
  3  9  1  0  0  0  0
  3  8  1  0  0  0  0
  4  3  1  0  0  0  0
  5  1  1  0  0  0  0
  5  4  1  0  0  0  0
 10  5  1  0  0  0  0
 11  5  1  0  0  0  0
 12 18  1  0  0  0  0
 13 19  1  0  0  0  0
 13 12  2  0  0  0  0
 14 13  1  0  0  0  0
 15 14  2  0  0  0  0
 15 16  1  0  0  0  0
 16 17  2  0  0  0  0
 17 12  1  0  0  0  0
 20 16  1  0  0  0  0
 21  1  1  0  0  0  0
 23 22  1  0  0  0  0
 23 24  1  0  0  0  0
 24 21  1  0  0  0  0
 25 24  2  0  0  0  0
 25 29  1  0  0  0  0
 26 25  1  0  0  0  0
 27 28  1  0  0  0  0
 27 26  2  0  0  0  0
 28 23  2  0  0  0  0
 30 26  1  0  0  0  0
 31 27  1  0  0  0  0
 32 33  1  0  0  0  0
 32 28  1  0  0  0  0
 34 37  1  0  0  0  0
 34 32  1  0  0  0  0
 35 34  1  0  0  0  0
 36 34  1  0  0  0  0
 38 37  1  0  0  0  0
M  END
>  <minimizedAffinity>
-6.39720631

>  <minimizedRMSD>
0.957061946

$$$$
