
 OpenBabel03272502063D

 42 45  0  0  1  0  0  0  0  0999 V2000
   34.3450   30.4250   47.6250 F   0  0  0  0  0  0  0  0  0  0  0  0
   34.6530   29.9010   46.3940 C   0  0  0  0  0  0  0  0  0  0  0  0
   33.7140   29.2340   45.6220 C   0  0  0  0  0  0  0  0  0  0  0  0
   34.0920   28.7530   44.3870 C   0  0  0  0  0  0  0  0  0  0  0  0
   35.3990   28.9310   43.9200 C   0  0  0  0  0  0  0  0  0  0  0  0
   36.2830   29.6030   44.7390 C   0  0  0  0  0  0  0  0  0  0  0  0
   35.9610   30.0900   45.9500 C   0  0  0  0  0  0  0  0  0  0  0  0
   33.3330   28.2470   43.8310 H   0  0  0  0  0  0  0  0  0  0  0  0
   35.6580   28.5440   42.9550 H   0  0  0  0  0  0  0  0  0  0  0  0
   37.2700   29.7000   44.3080 H   0  0  0  0  0  0  0  0  0  0  0  0
   37.7320   32.2740   44.5740 Br  0  0  0  0  0  0  0  0  0  0  0  0
   37.8040   31.7800   46.4130 C   0  0  0  0  0  0  0  0  0  0  0  0
   36.9420   30.7740   46.7680 C   0  0  0  0  0  0  0  0  0  0  0  0
   36.9670   30.3290   48.1030 C   0  0  0  0  0  0  0  0  0  0  0  0
   37.8170   30.8820   49.0060 C   0  0  0  0  0  0  0  0  0  0  0  0
   38.6600   31.8940   48.5900 C   0  0  0  0  0  0  0  0  0  0  0  0
   38.6650   32.3630   47.2700 C   0  0  0  0  0  0  0  0  0  0  0  0
   36.3240   29.5390   48.4680 H   0  0  0  0  0  0  0  0  0  0  0  0
   37.8730   30.5730   50.0420 H   0  0  0  0  0  0  0  0  0  0  0  0
   39.3540   32.3650   49.2730 H   0  0  0  0  0  0  0  0  0  0  0  0
   39.4540   33.3530   46.7750 O   0  0  0  0  0  0  0  0  0  0  0  0
   40.3410   33.6580   47.1510 H   0  0  0  0  0  0  0  0  0  0  0  0
   32.2510   28.1990   47.2270 C   0  0  0  0  0  0  0  0  0  0  0  0
   32.4110   29.1190   46.2140 C   0  0  0  0  0  0  0  0  0  0  0  0
   31.3040   29.8880   45.8420 C   0  0  0  0  0  0  0  0  0  0  0  0
   30.1200   29.7050   46.4850 N   0  0  0  0  0  0  0  0  0  0  0  0
   30.0060   28.8070   47.4580 C   0  0  0  0  0  0  0  0  0  0  0  0
   31.0370   28.0650   47.8290 N   0  0  0  0  0  0  0  0  0  0  0  0
   33.0450   27.5490   47.5940 H   0  0  0  0  0  0  0  0  0  0  0  0
   31.4540   30.5950   45.0530 H   0  0  0  0  0  0  0  0  0  0  0  0
   28.0550   27.2790   47.8240 C   0  0  1  0  0  3  0  0  0  0  0  0
   28.7200   28.5940   48.1730 C   0  0  1  0  0  3  0  0  0  0  0  0
   28.9080   28.5820   49.6740 C   0  0  0  0  0  3  0  0  0  0  0  0
   29.8100   28.0230   49.9960 H   0  0  0  0  0  0  0  0  0  0  0  0
   27.7680   28.0220   50.2130 O   0  0  0  0  0  0  0  0  0  0  0  0
   26.6130   28.2600   49.4860 C   0  0  0  0  0  3  0  0  0  0  0  0
   25.7750   27.8540   50.0960 H   0  0  0  0  0  0  0  0  0  0  0  0
   26.5740   27.4380   48.1920 C   0  0  1  0  0  3  0  0  0  0  0  0
   28.2530   27.0150   46.4920 O   0  0  0  0  0  0  0  0  0  0  0  0
   29.0380   26.4020   46.3490 H   0  0  0  0  0  0  0  0  0  0  0  0
   26.0120   28.1680   47.1420 O   0  0  0  0  0  0  0  0  0  0  0  0
   26.5590   28.1160   46.3100 H   0  0  0  0  0  0  0  0  0  0  0  0
  2  1  1  0  0  0  0
  3 24  1  0  0  0  0
  3  2  2  0  0  0  0
  4  3  1  0  0  0  0
  5  4  2  0  0  0  0
  5  6  1  0  0  0  0
  6  7  2  0  0  0  0
  7  2  1  0  0  0  0
  7 13  1  0  0  0  0
  8  4  1  0  0  0  0
  9  5  1  0  0  0  0
 10  6  1  0  0  0  0
 11 12  1  0  0  0  0
 12 13  2  0  0  0  0
 12 17  1  0  0  0  0
 13 14  1  0  0  0  0
 14 18  1  0  0  0  0
 14 15  2  0  0  0  0
 15 19  1  0  0  0  0
 16 15  1  0  0  0  0
 16 20  1  0  0  0  0
 17 16  2  0  0  0  0
 21 22  1  0  0  0  0
 21 17  1  0  0  0  0
 23 29  1  0  0  0  0
 23 28  1  0  0  0  0
 24 23  2  0  0  0  0
 25 24  1  0  0  0  0
 25 26  2  0  0  0  0
 26 27  1  0  0  0  0
 27 28  2  0  0  0  0
 30 25  1  0  0  0  0
 31 39  1  6  0  0  0
 31 32  1  0  0  0  0
 31 38  1  0  0  0  0
 32 27  1  6  0  0  0
 32 33  1  0  0  0  0
 33 34  1  0  0  0  0
 33 35  1  0  0  0  0
 36 37  1  0  0  0  0
 36 35  1  0  0  0  0
 38 41  1  6  0  0  0
 38 36  1  0  0  0  0
 40 39  1  0  0  0  0
 42 41  1  0  0  0  0
M  END
>  <minimizedAffinity>
-7.10370684

>  <minimizedRMSD>
0.551313818

$$$$
