
 OpenBabel03272502303D

 27 28  0  0  1  0  0  0  0  0999 V2000
   39.4680   32.3630   46.3270 C   0  0  0  0  0  0  0  0  0  0  0  0
   40.2330   31.5790   46.0980 H   0  0  0  0  0  0  0  0  0  0  0  0
   39.9120   33.3620   46.4640 H   0  0  0  0  0  0  0  0  0  0  0  0
   38.1340   30.7730   47.6520 C   0  0  0  0  0  3  0  0  0  0  0  0
   38.8290   31.9010   47.5890 C   0  0  0  0  0  3  0  0  0  0  0  0
   37.4370   30.2840   51.2640 C   0  0  0  0  0  0  0  0  0  0  0  0
   38.0480   30.7270   50.0790 C   0  0  0  0  0  0  0  0  0  0  0  0
   37.5220   30.3320   48.8690 C   0  0  0  0  0  0  0  0  0  0  0  0
   36.4270   29.5270   48.8460 N   0  0  0  0  0  0  0  0  0  0  0  0
   35.8590   29.1160   49.9960 C   0  0  0  0  0  0  0  0  0  0  0  0
   36.3500   29.4840   51.2010 N   0  0  0  0  0  0  0  0  0  0  0  0
   37.8020   30.5580   52.2390 H   0  0  0  0  0  0  0  0  0  0  0  0
   38.9150   31.3630   50.1710 H   0  0  0  0  0  0  0  0  0  0  0  0
   34.9880   28.4750   49.8880 H   0  0  0  0  0  0  0  0  0  0  0  0
   38.2490   32.3350   44.9790 S   0  0  0  0  0  0  0  0  0  0  0  0
   40.0740   30.5310   43.9580 C   0  0  2  0  0  3  0  0  0  0  0  0
   38.9820   31.5050   43.5600 C   0  0  1  0  0  3  0  0  0  0  0  0
   37.9430   30.6720   42.8260 C   0  0  0  0  0  3  0  0  0  0  0  0
   37.4920   30.0090   43.6220 H   0  0  0  0  0  0  0  0  0  0  0  0
   38.5100   29.8340   41.8930 O   0  0  0  0  0  0  0  0  0  0  0  0
   39.7830   30.1980   41.5100 C   0  0  0  0  0  3  0  0  0  0  0  0
   40.1310   29.3970   40.7960 H   0  0  0  0  0  0  0  0  0  0  0  0
   40.7880   30.1860   42.6490 C   0  0  2  0  0  3  0  0  0  0  0  0
   39.4760   29.3430   44.4020 O   0  0  0  0  0  0  0  0  0  0  0  0
   39.8950   29.0470   45.2530 H   0  0  0  0  0  0  0  0  0  0  0  0
   41.4330   28.9570   42.7740 O   0  0  0  0  0  0  0  0  0  0  0  0
   40.9160   28.2310   42.3430 H   0  0  0  0  0  0  0  0  0  0  0  0
  1  3  1  0  0  0  0
  1  5  1  0  0  0  0
  2  1  1  0  0  0  0
  4  8  1  0  0  0  0
  5  4  2  0  0  0  0
  6 12  1  0  0  0  0
  7 13  1  0  0  0  0
  7  6  2  0  0  0  0
  8  7  1  0  0  0  0
  9  8  2  0  0  0  0
  9 10  1  0  0  0  0
 10 11  2  0  0  0  0
 11  6  1  0  0  0  0
 14 10  1  0  0  0  0
 15  1  1  0  0  0  0
 16 24  1  6  0  0  0
 17 16  1  0  0  0  0
 17 15  1  1  0  0  0
 18 17  1  0  0  0  0
 18 19  1  0  0  0  0
 20 18  1  0  0  0  0
 21 20  1  0  0  0  0
 21 23  1  0  0  0  0
 22 21  1  0  0  0  0
 23 26  1  1  0  0  0
 23 16  1  0  0  0  0
 24 25  1  0  0  0  0
 27 26  1  0  0  0  0
M  END
>  <minimizedAffinity>
-5.58799314

>  <minimizedRMSD>
2.87111592

$$$$
