
 OpenBabel03262521233D

 50 53  0  0  1  0  0  0  0  0999 V2000
   40.1400   25.0590   53.5400 C   0  0  0  0  0  0  0  0  0  0  0  0
   39.7940   25.9900   52.5600 C   0  0  0  0  0  0  0  0  0  0  0  0
   40.4780   25.8680   51.3410 C   0  0  0  0  0  0  0  0  0  0  0  0
   41.4180   24.9220   51.0950 C   0  0  0  0  0  0  0  0  0  0  0  0
   42.1950   24.5750   50.0940 N   0  0  0  0  0  0  0  0  0  0  0  0
   42.9900   23.5050   50.3840 C   0  0  0  0  0  0  0  0  0  0  0  0
   42.6790   23.1550   51.6820 C   0  0  0  0  0  0  0  0  0  0  0  0
   41.7150   24.0360   52.0980 C   0  0  0  0  0  0  0  0  0  0  0  0
   41.0950   24.0800   53.3250 C   0  0  0  0  0  0  0  0  0  0  0  0
   39.5990   25.1820   54.4560 H   0  0  0  0  0  0  0  0  0  0  0  0
   40.2670   26.5560   50.5220 H   0  0  0  0  0  0  0  0  0  0  0  0
   42.2330   25.0460   49.1480 H   0  0  0  0  0  0  0  0  0  0  0  0
   43.7050   23.0540   49.7020 H   0  0  0  0  0  0  0  0  0  0  0  0
   43.1390   22.3340   52.2200 H   0  0  0  0  0  0  0  0  0  0  0  0
   42.5460   23.7510   55.2220 C   0  0  2  0  0  3  0  0  0  0  0  0
   41.4160   23.1240   54.4020 C   0  0  2  0  0  3  0  0  0  0  0  0
   41.8390   21.7730   53.9660 C   0  0  0  0  0  3  0  0  0  0  0  0
   42.6960   21.7730   53.2620 H   0  0  0  0  0  0  0  0  0  0  0  0
   42.2330   21.0470   55.0560 O   0  0  0  0  0  0  0  0  0  0  0  0
   42.0030   21.6010   56.2850 C   0  0  0  0  0  3  0  0  0  0  0  0
   40.9240   21.5400   56.6110 H   0  0  0  0  0  0  0  0  0  0  0  0
   42.5660   22.9650   56.5110 C   0  0  1  0  0  3  0  0  0  0  0  0
   42.3290   25.0990   55.3930 O   0  0  0  0  0  0  0  0  0  0  0  0
   42.5220   25.3560   56.3290 H   0  0  0  0  0  0  0  0  0  0  0  0
   43.8440   22.9900   57.0130 O   0  0  0  0  0  0  0  0  0  0  0  0
   44.2100   23.8920   56.8150 H   0  0  0  0  0  0  0  0  0  0  0  0
   38.6040   27.2940   52.6720 S   0  0  0  0  0  0  0  0  0  0  0  0
   38.2750   28.1190   51.1250 C   0  0  0  0  0  0  0  0  0  0  0  0
   39.2090   28.6220   50.7960 H   0  0  0  0  0  0  0  0  0  0  0  0
   38.0800   27.3300   50.3410 H   0  0  0  0  0  0  0  0  0  0  0  0
   37.1760   29.1490   51.1880 C   0  0  0  0  0  0  0  0  0  0  0  0
   36.8690   29.1670   52.2780 H   0  0  0  0  0  0  0  0  0  0  0  0
   36.2890   28.6900   50.7000 H   0  0  0  0  0  0  0  0  0  0  0  0
   37.5380   30.3770   50.7330 C   0  0  0  0  0  0  0  0  0  0  0  0
   38.5410   30.7420   51.0790 H   0  0  0  0  0  0  0  0  0  0  0  0
   36.8270   31.2080   50.9340 H   0  0  0  0  0  0  0  0  0  0  0  0
   37.5940   30.0840   49.3980 O   0  0  0  0  0  0  0  0  0  0  0  0
   38.1690   31.0000   48.5510 C   0  0  0  0  0  0  0  0  0  0  0  0
   38.4380   32.1990   49.1630 C   0  0  0  0  0  0  0  0  0  0  0  0
   39.0280   33.2260   48.4080 C   0  0  0  0  0  0  0  0  0  0  0  0
   39.3010   32.9690   47.1000 N   0  0  0  0  0  0  0  0  0  0  0  0
   39.0200   31.7600   46.5170 C   0  0  0  0  0  0  0  0  0  0  0  0
   38.4590   30.8090   47.2680 N   0  0  0  0  0  0  0  0  0  0  0  0
   39.8910   32.7530   44.5190 C   0  0  0  0  0  0  0  0  0  0  0  0
   40.0980   33.8720   45.0800 O   0  0  0  0  0  0  0  0  0  0  0  0
   39.3470   31.5990   45.1420 N   0  0  0  0  0  0  0  0  0  0  0  0
   38.2730   32.5360   50.1890 H   0  0  0  0  0  0  0  0  0  0  0  0
   39.2780   34.1940   48.7870 H   0  0  0  0  0  0  0  0  0  0  0  0
   40.1560   32.6720   43.4640 H   0  0  0  0  0  0  0  0  0  0  0  0
   39.1710   30.6740   44.6930 H   0  0  0  0  0  0  0  0  0  0  0  0
  1 10  1  0  0  0  0
  2 27  1  0  0  0  0
  2  1  2  0  0  0  0
  3  2  1  0  0  0  0
  4  3  2  0  0  0  0
  4  8  1  0  0  0  0
  5  6  1  0  0  0  0
  5  4  1  0  0  0  0
  6  7  2  0  0  0  0
  7  8  1  0  0  0  0
  7 14  1  0  0  0  0
  8  9  2  0  0  0  0
  9  1  1  0  0  0  0
 11  3  1  0  0  0  0
 12  5  1  0  0  0  0
 13  6  1  0  0  0  0
 15 23  1  1  0  0  0
 15 22  1  0  0  0  0
 16  9  1  6  0  0  0
 16 15  1  0  0  0  0
 17 16  1  0  0  0  0
 17 19  1  0  0  0  0
 18 17  1  0  0  0  0
 19 20  1  0  0  0  0
 20 22  1  0  0  0  0
 20 21  1  0  0  0  0
 22 25  1  6  0  0  0
 23 24  1  0  0  0  0
 26 25  1  0  0  0  0
 28 31  1  0  0  0  0
 28 27  1  0  0  0  0
 29 28  1  0  0  0  0
 30 28  1  0  0  0  0
 31 32  1  0  0  0  0
 33 31  1  0  0  0  0
 34 36  1  0  0  0  0
 34 35  1  0  0  0  0
 34 31  1  0  0  0  0
 37 34  1  0  0  0  0
 38 39  1  0  0  0  0
 38 37  1  0  0  0  0
 39 47  1  0  0  0  0
 40 48  1  0  0  0  0
 40 39  2  0  0  0  0
 41 40  1  0  0  0  0
 42 41  2  0  0  0  0
 42 43  1  0  0  0  0
 43 38  2  0  0  0  0
 44 45  2  0  0  0  0
 44 46  1  0  0  0  0
 46 42  1  0  0  0  0
 49 44  1  0  0  0  0
 50 46  1  0  0  0  0
M  END
>  <minimizedAffinity>
-4.54446411

>  <minimizedRMSD>
0.515337646

$$$$
