
 OpenBabel03272502083D

 42 45  0  0  1  0  0  0  0  0999 V2000
   36.5850   28.5190   35.6390 F   0  0  0  0  0  0  0  0  0  0  0  0
   36.3860   28.7370   34.2990 C   0  0  0  0  0  0  0  0  0  0  0  0
   36.9240   27.9030   33.3310 C   0  0  0  0  0  0  0  0  0  0  0  0
   36.6640   28.1740   32.0040 C   0  0  0  0  0  0  0  0  0  0  0  0
   35.8750   29.2690   31.6390 C   0  0  0  0  0  0  0  0  0  0  0  0
   35.3730   30.0590   32.6530 C   0  0  0  0  0  0  0  0  0  0  0  0
   35.5980   29.8350   33.9600 C   0  0  0  0  0  0  0  0  0  0  0  0
   37.1000   27.5030   31.2970 H   0  0  0  0  0  0  0  0  0  0  0  0
   35.6940   29.4500   30.5990 H   0  0  0  0  0  0  0  0  0  0  0  0
   34.7740   30.8840   32.2910 H   0  0  0  0  0  0  0  0  0  0  0  0
   32.6740   29.2880   34.9340 Br  0  0  0  0  0  0  0  0  0  0  0  0
   33.8240   30.6610   35.5840 C   0  0  0  0  0  0  0  0  0  0  0  0
   35.0520   30.7130   34.9760 C   0  0  0  0  0  0  0  0  0  0  0  0
   35.9420   31.7270   35.3770 C   0  0  0  0  0  0  0  0  0  0  0  0
   35.5910   32.6210   36.3370 C   0  0  0  0  0  0  0  0  0  0  0  0
   34.3410   32.5180   36.9150 C   0  0  0  0  0  0  0  0  0  0  0  0
   33.4290   31.5230   36.5410 C   0  0  0  0  0  0  0  0  0  0  0  0
   36.9280   31.8420   34.9490 H   0  0  0  0  0  0  0  0  0  0  0  0
   36.2400   33.4180   36.6770 H   0  0  0  0  0  0  0  0  0  0  0  0
   34.0170   33.2070   37.6830 H   0  0  0  0  0  0  0  0  0  0  0  0
   32.1830   31.3440   37.0570 O   0  0  0  0  0  0  0  0  0  0  0  0
   31.6150   32.0460   37.5100 H   0  0  0  0  0  0  0  0  0  0  0  0
   38.7530   27.1220   34.6850 C   0  0  0  0  0  0  0  0  0  0  0  0
   37.7130   26.8150   33.8350 C   0  0  0  0  0  0  0  0  0  0  0  0
   37.4860   25.4690   33.5340 C   0  0  0  0  0  0  0  0  0  0  0  0
   38.2880   24.5180   34.0840 N   0  0  0  0  0  0  0  0  0  0  0  0
   39.2810   24.8560   34.9000 C   0  0  0  0  0  0  0  0  0  0  0  0
   39.5190   26.1230   35.2010 N   0  0  0  0  0  0  0  0  0  0  0  0
   39.0180   28.1370   34.9850 H   0  0  0  0  0  0  0  0  0  0  0  0
   36.6720   25.2550   32.8710 H   0  0  0  0  0  0  0  0  0  0  0  0
   39.4390   22.5570   35.8850 C   0  0  1  0  0  3  0  0  0  0  0  0
   40.1670   23.8310   35.5120 C   0  0  1  0  0  3  0  0  0  0  0  0
   41.2800   23.4180   34.5720 C   0  0  0  0  0  3  0  0  0  0  0  0
   40.9390   23.2890   33.5240 H   0  0  0  0  0  0  0  0  0  0  0  0
   41.8000   22.2390   35.0660 O   0  0  0  0  0  0  0  0  0  0  0  0
   41.7410   22.1190   36.4440 C   0  0  0  0  0  3  0  0  0  0  0  0
   42.2950   21.1870   36.6970 H   0  0  0  0  0  0  0  0  0  0  0  0
   40.3110   21.8580   36.9340 C   0  0  1  0  0  3  0  0  0  0  0  0
   38.1870   22.8750   36.3490 O   0  0  0  0  0  0  0  0  0  0  0  0
   37.4940   22.7980   35.6240 H   0  0  0  0  0  0  0  0  0  0  0  0
   40.0520   22.5270   38.1310 O   0  0  0  0  0  0  0  0  0  0  0  0
   39.1860   23.0200   38.1080 H   0  0  0  0  0  0  0  0  0  0  0  0
  2  1  1  0  0  0  0
  3 24  1  0  0  0  0
  3  2  2  0  0  0  0
  4  3  1  0  0  0  0
  5  4  2  0  0  0  0
  5  6  1  0  0  0  0
  6  7  2  0  0  0  0
  7  2  1  0  0  0  0
  7 13  1  0  0  0  0
  8  4  1  0  0  0  0
  9  5  1  0  0  0  0
 10  6  1  0  0  0  0
 11 12  1  0  0  0  0
 12 17  1  0  0  0  0
 13 14  1  0  0  0  0
 13 12  2  0  0  0  0
 14 15  2  0  0  0  0
 15 19  1  0  0  0  0
 15 16  1  0  0  0  0
 16 20  1  0  0  0  0
 17 16  2  0  0  0  0
 17 21  1  0  0  0  0
 18 14  1  0  0  0  0
 21 22  1  0  0  0  0
 23 29  1  0  0  0  0
 23 28  1  0  0  0  0
 24 23  2  0  0  0  0
 25 24  1  0  0  0  0
 25 26  2  0  0  0  0
 26 27  1  0  0  0  0
 27 28  2  0  0  0  0
 30 25  1  0  0  0  0
 31 39  1  1  0  0  0
 31 38  1  0  0  0  0
 32 27  1  6  0  0  0
 32 31  1  0  0  0  0
 33 35  1  0  0  0  0
 33 32  1  0  0  0  0
 34 33  1  0  0  0  0
 35 36  1  0  0  0  0
 36 37  1  0  0  0  0
 36 38  1  0  0  0  0
 38 41  1  1  0  0  0
 40 39  1  0  0  0  0
 42 41  1  0  0  0  0
M  END
>  <minimizedAffinity>
-7.06412554

$$$$

 OpenBabel03272502083D

 42 45  0  0  1  0  0  0  0  0999 V2000
   35.8480   27.8430   35.1520 F   0  0  0  0  0  0  0  0  0  0  0  0
   36.1010   28.3590   33.9060 C   0  0  0  0  0  0  0  0  0  0  0  0
   37.1160   27.8690   33.0990 C   0  0  0  0  0  0  0  0  0  0  0  0
   37.2980   28.4250   31.8500 C   0  0  0  0  0  0  0  0  0  0  0  0
   36.4750   29.4640   31.4040 C   0  0  0  0  0  0  0  0  0  0  0  0
   35.4850   29.9050   32.2590 C   0  0  0  0  0  0  0  0  0  0  0  0
   35.2700   29.3950   33.4840 C   0  0  0  0  0  0  0  0  0  0  0  0
   38.0920   28.0130   31.2680 H   0  0  0  0  0  0  0  0  0  0  0  0
   36.6440   29.8720   30.4290 H   0  0  0  0  0  0  0  0  0  0  0  0
   34.8920   30.7090   31.8420 H   0  0  0  0  0  0  0  0  0  0  0  0
   36.0820   31.4580   35.6940 Br  0  0  0  0  0  0  0  0  0  0  0  0
   34.3130   30.8410   35.3450 C   0  0  0  0  0  0  0  0  0  0  0  0
   34.2200   29.9130   34.3380 C   0  0  0  0  0  0  0  0  0  0  0  0
   32.9490   29.3830   34.0490 C   0  0  0  0  0  0  0  0  0  0  0  0
   31.8540   29.7810   34.7460 C   0  0  0  0  0  0  0  0  0  0  0  0
   32.0090   30.7200   35.7470 C   0  0  0  0  0  0  0  0  0  0  0  0
   33.2580   31.2700   36.0640 C   0  0  0  0  0  0  0  0  0  0  0  0
   32.7850   28.6460   33.2750 H   0  0  0  0  0  0  0  0  0  0  0  0
   30.8570   29.4010   34.5610 H   0  0  0  0  0  0  0  0  0  0  0  0
   31.1660   31.0680   36.3280 H   0  0  0  0  0  0  0  0  0  0  0  0
   33.5040   32.1990   37.0260 O   0  0  0  0  0  0  0  0  0  0  0  0
   32.9370   32.3800   37.8430 H   0  0  0  0  0  0  0  0  0  0  0  0
   38.8300   27.1350   34.6200 C   0  0  0  0  0  0  0  0  0  0  0  0
   37.8870   26.8020   33.6720 C   0  0  0  0  0  0  0  0  0  0  0  0
   37.7340   25.4520   33.3440 C   0  0  0  0  0  0  0  0  0  0  0  0
   38.5090   24.5230   33.9630 N   0  0  0  0  0  0  0  0  0  0  0  0
   39.4070   24.8840   34.8730 C   0  0  0  0  0  0  0  0  0  0  0  0
   39.5750   26.1560   35.2030 N   0  0  0  0  0  0  0  0  0  0  0  0
   39.0330   28.1550   34.9490 H   0  0  0  0  0  0  0  0  0  0  0  0
   36.9950   25.2180   32.6040 H   0  0  0  0  0  0  0  0  0  0  0  0
   39.5450   22.5810   35.8530 C   0  0  1  0  0  3  0  0  0  0  0  0
   40.2630   23.8830   35.5630 C   0  0  1  0  0  3  0  0  0  0  0  0
   41.4760   23.5170   34.7350 C   0  0  0  0  0  3  0  0  0  0  0  0
   41.2460   23.3880   33.6580 H   0  0  0  0  0  0  0  0  0  0  0  0
   41.9840   22.3510   35.2700 O   0  0  0  0  0  0  0  0  0  0  0  0
   41.7930   22.2140   36.6340 C   0  0  0  0  0  3  0  0  0  0  0  0
   42.3510   21.2990   36.9350 H   0  0  0  0  0  0  0  0  0  0  0  0
   40.3320   21.9000   36.9780 C   0  0  1  0  0  3  0  0  0  0  0  0
   38.2430   22.8530   36.1920 O   0  0  0  0  0  0  0  0  0  0  0  0
   37.6280   22.7610   35.4020 H   0  0  0  0  0  0  0  0  0  0  0  0
   39.9330   22.5490   38.1480 O   0  0  0  0  0  0  0  0  0  0  0  0
   39.0570   23.0130   38.0430 H   0  0  0  0  0  0  0  0  0  0  0  0
  2  1  1  0  0  0  0
  3 24  1  0  0  0  0
  3  2  2  0  0  0  0
  4  3  1  0  0  0  0
  5  4  2  0  0  0  0
  5  6  1  0  0  0  0
  6  7  2  0  0  0  0
  7  2  1  0  0  0  0
  7 13  1  0  0  0  0
  8  4  1  0  0  0  0
  9  5  1  0  0  0  0
 10  6  1  0  0  0  0
 12 11  1  0  0  0  0
 12 17  1  0  0  0  0
 13 12  2  0  0  0  0
 14 13  1  0  0  0  0
 14 15  2  0  0  0  0
 15 16  1  0  0  0  0
 16 17  2  0  0  0  0
 16 20  1  0  0  0  0
 17 21  1  0  0  0  0
 18 14  1  0  0  0  0
 19 15  1  0  0  0  0
 21 22  1  0  0  0  0
 23 29  1  0  0  0  0
 23 28  1  0  0  0  0
 24 23  2  0  0  0  0
 25 24  1  0  0  0  0
 25 26  2  0  0  0  0
 26 27  1  0  0  0  0
 27 28  2  0  0  0  0
 30 25  1  0  0  0  0
 31 39  1  1  0  0  0
 31 38  1  0  0  0  0
 32 27  1  6  0  0  0
 32 31  1  0  0  0  0
 33 35  1  0  0  0  0
 33 32  1  0  0  0  0
 34 33  1  0  0  0  0
 35 36  1  0  0  0  0
 36 37  1  0  0  0  0
 36 38  1  0  0  0  0
 38 41  1  1  0  0  0
 40 39  1  0  0  0  0
 42 41  1  0  0  0  0
M  END
>  <minimizedAffinity>
-6.79879332

$$$$

 OpenBabel03272502083D

 42 45  0  0  1  0  0  0  0  0999 V2000
   36.3000   27.9330   35.2950 F   0  0  0  0  0  0  0  0  0  0  0  0
   36.4960   28.2590   33.9760 C   0  0  0  0  0  0  0  0  0  0  0  0
   37.3120   27.5070   33.1460 C   0  0  0  0  0  0  0  0  0  0  0  0
   37.4440   27.8860   31.8260 C   0  0  0  0  0  0  0  0  0  0  0  0
   36.7690   29.0070   31.3330 C   0  0  0  0  0  0  0  0  0  0  0  0
   35.9730   29.7110   32.2150 C   0  0  0  0  0  0  0  0  0  0  0  0
   35.8140   29.3810   33.5080 C   0  0  0  0  0  0  0  0  0  0  0  0
   38.0840   27.2750   31.2280 H   0  0  0  0  0  0  0  0  0  0  0  0
   36.8940   29.2720   30.3030 H   0  0  0  0  0  0  0  0  0  0  0  0
   35.4860   30.5620   31.7590 H   0  0  0  0  0  0  0  0  0  0  0  0
   32.7120   29.1370   33.1600 Br  0  0  0  0  0  0  0  0  0  0  0  0
   33.6040   30.2150   34.4530 C   0  0  0  0  0  0  0  0  0  0  0  0
   34.9740   30.1720   34.3850 C   0  0  0  0  0  0  0  0  0  0  0  0
   35.7020   30.9730   35.2850 C   0  0  0  0  0  0  0  0  0  0  0  0
   35.0630   31.7600   36.1890 C   0  0  0  0  0  0  0  0  0  0  0  0
   33.6830   31.7600   36.2110 C   0  0  0  0  0  0  0  0  0  0  0  0
   32.9240   30.9770   35.3320 C   0  0  0  0  0  0  0  0  0  0  0  0
   36.7830   31.0030   35.2990 H   0  0  0  0  0  0  0  0  0  0  0  0
   35.5800   32.3940   36.8990 H   0  0  0  0  0  0  0  0  0  0  0  0
   33.1310   32.3700   36.9140 H   0  0  0  0  0  0  0  0  0  0  0  0
   31.5670   30.9100   35.2840 O   0  0  0  0  0  0  0  0  0  0  0  0
   30.9210   31.6160   35.6110 H   0  0  0  0  0  0  0  0  0  0  0  0
   38.9650   26.6400   34.6640 C   0  0  0  0  0  0  0  0  0  0  0  0
   37.9470   26.3820   33.7720 C   0  0  0  0  0  0  0  0  0  0  0  0
   37.5900   25.0490   33.5500 C   0  0  0  0  0  0  0  0  0  0  0  0
   38.2490   24.0630   34.2130 N   0  0  0  0  0  0  0  0  0  0  0  0
   39.2260   24.3530   35.0660 C   0  0  0  0  0  0  0  0  0  0  0  0
   39.5850   25.6060   35.2950 N   0  0  0  0  0  0  0  0  0  0  0  0
   39.3230   27.6400   34.9110 H   0  0  0  0  0  0  0  0  0  0  0  0
   36.7960   24.8750   32.8520 H   0  0  0  0  0  0  0  0  0  0  0  0
   41.4530   23.5230   35.8620 C   0  0  1  0  0  3  0  0  0  0  0  0
   39.9580   23.2880   35.8010 C   0  0  1  0  0  3  0  0  0  0  0  0
   39.4930   23.1770   37.2370 C   0  0  0  0  0  3  0  0  0  0  0  0
   39.3330   24.1620   37.7210 H   0  0  0  0  0  0  0  0  0  0  0  0
   40.4550   22.4520   37.9120 O   0  0  0  0  0  0  0  0  0  0  0  0
   41.1100   21.5090   37.1370 C   0  0  0  0  0  3  0  0  0  0  0  0
   41.7600   20.9340   37.8350 H   0  0  0  0  0  0  0  0  0  0  0  0
   42.0900   22.1590   36.1520 C   0  0  1  0  0  3  0  0  0  0  0  0
   41.8690   24.0720   34.6750 O   0  0  0  0  0  0  0  0  0  0  0  0
   41.9320   25.0740   34.7320 H   0  0  0  0  0  0  0  0  0  0  0  0
   42.0980   21.4920   34.9260 O   0  0  0  0  0  0  0  0  0  0  0  0
   42.0270   22.1180   34.1550 H   0  0  0  0  0  0  0  0  0  0  0  0
  2  1  1  0  0  0  0
  3 24  1  0  0  0  0
  3  2  2  0  0  0  0
  4  3  1  0  0  0  0
  5  4  2  0  0  0  0
  5  6  1  0  0  0  0
  6  7  2  0  0  0  0
  7  2  1  0  0  0  0
  7 13  1  0  0  0  0
  8  4  1  0  0  0  0
  9  5  1  0  0  0  0
 10  6  1  0  0  0  0
 11 12  1  0  0  0  0
 12 17  1  0  0  0  0
 13 12  2  0  0  0  0
 13 14  1  0  0  0  0
 14 18  1  0  0  0  0
 14 15  2  0  0  0  0
 15 16  1  0  0  0  0
 15 19  1  0  0  0  0
 16 20  1  0  0  0  0
 17 16  2  0  0  0  0
 21 17  1  0  0  0  0
 21 22  1  0  0  0  0
 23 29  1  0  0  0  0
 23 28  1  0  0  0  0
 24 23  2  0  0  0  0
 25 24  1  0  0  0  0
 25 26  2  0  0  0  0
 26 27  1  0  0  0  0
 27 28  2  0  0  0  0
 30 25  1  0  0  0  0
 31 39  1  6  0  0  0
 31 38  1  0  0  0  0
 32 27  1  1  0  0  0
 32 31  1  0  0  0  0
 32 33  1  0  0  0  0
 33 34  1  0  0  0  0
 33 35  1  0  0  0  0
 36 37  1  0  0  0  0
 36 35  1  0  0  0  0
 38 41  1  6  0  0  0
 38 36  1  0  0  0  0
 39 40  1  0  0  0  0
 42 41  1  0  0  0  0
M  END
>  <minimizedAffinity>
-6.66162062

$$$$

 OpenBabel03272502083D

 42 45  0  0  1  0  0  0  0  0999 V2000
   35.7470   28.9110   34.9400 F   0  0  0  0  0  0  0  0  0  0  0  0
   35.9800   28.9710   33.5890 C   0  0  0  0  0  0  0  0  0  0  0  0
   36.8610   28.1070   32.9560 C   0  0  0  0  0  0  0  0  0  0  0  0
   37.0290   28.2130   31.5920 C   0  0  0  0  0  0  0  0  0  0  0  0
   36.3260   29.1750   30.8580 C   0  0  0  0  0  0  0  0  0  0  0  0
   35.4670   30.0040   31.5510 C   0  0  0  0  0  0  0  0  0  0  0  0
   35.2700   29.9370   32.8790 C   0  0  0  0  0  0  0  0  0  0  0  0
   37.7170   27.5260   31.1520 H   0  0  0  0  0  0  0  0  0  0  0  0
   36.4810   29.2300   29.8000 H   0  0  0  0  0  0  0  0  0  0  0  0
   34.9620   30.7180   30.9150 H   0  0  0  0  0  0  0  0  0  0  0  0
   32.2660   29.0880   33.1110 Br  0  0  0  0  0  0  0  0  0  0  0  0
   33.0240   30.6920   33.8050 C   0  0  0  0  0  0  0  0  0  0  0  0
   34.3630   30.8480   33.5490 C   0  0  0  0  0  0  0  0  0  0  0  0
   34.9850   32.0290   33.9980 C   0  0  0  0  0  0  0  0  0  0  0  0
   34.2770   32.9780   34.6630 C   0  0  0  0  0  0  0  0  0  0  0  0
   32.9330   32.7630   34.8930 C   0  0  0  0  0  0  0  0  0  0  0  0
   32.2790   31.6020   34.4620 C   0  0  0  0  0  0  0  0  0  0  0  0
   36.0340   32.2340   33.8370 H   0  0  0  0  0  0  0  0  0  0  0  0
   34.7110   33.9010   35.0260 H   0  0  0  0  0  0  0  0  0  0  0  0
   32.3290   33.4910   35.4200 H   0  0  0  0  0  0  0  0  0  0  0  0
   30.9650   31.3060   34.6470 O   0  0  0  0  0  0  0  0  0  0  0  0
   30.2180   31.9680   34.8050 H   0  0  0  0  0  0  0  0  0  0  0  0
   37.3870   25.8280   33.5200 C   0  0  0  0  0  0  0  0  0  0  0  0
   37.5170   27.1670   33.8200 C   0  0  0  0  0  0  0  0  0  0  0  0
   38.2890   27.5190   34.9300 C   0  0  0  0  0  0  0  0  0  0  0  0
   38.8800   26.5430   35.6690 N   0  0  0  0  0  0  0  0  0  0  0  0
   38.7310   25.2620   35.3470 C   0  0  0  0  0  0  0  0  0  0  0  0
   38.0050   24.9000   34.3010 N   0  0  0  0  0  0  0  0  0  0  0  0
   36.8100   25.4430   32.6790 H   0  0  0  0  0  0  0  0  0  0  0  0
   38.3740   28.5660   35.1430 H   0  0  0  0  0  0  0  0  0  0  0  0
   38.3720   23.2870   36.8470 C   0  0  1  0  0  3  0  0  0  0  0  0
   39.3700   24.1810   36.1410 C   0  0  1  0  0  3  0  0  0  0  0  0
   40.2090   23.2680   35.2730 C   0  0  0  0  0  3  0  0  0  0  0  0
   39.7250   23.0210   34.3060 H   0  0  0  0  0  0  0  0  0  0  0  0
   40.4420   22.1240   36.0090 O   0  0  0  0  0  0  0  0  0  0  0  0
   40.5160   22.3270   37.3770 C   0  0  0  0  0  3  0  0  0  0  0  0
   40.8210   21.3510   37.8180 H   0  0  0  0  0  0  0  0  0  0  0  0
   39.1370   22.6070   37.9880 C   0  0  1  0  0  3  0  0  0  0  0  0
   37.3180   24.0500   37.2830 O   0  0  0  0  0  0  0  0  0  0  0  0
   36.5490   24.0250   36.6350 H   0  0  0  0  0  0  0  0  0  0  0  0
   39.2130   23.5660   39.0000 O   0  0  0  0  0  0  0  0  0  0  0  0
   38.5180   24.2730   38.9030 H   0  0  0  0  0  0  0  0  0  0  0  0
  2  1  1  0  0  0  0
  3  2  1  0  0  0  0
  3 24  1  0  0  0  0
  4  3  2  0  0  0  0
  5  6  2  0  0  0  0
  5  4  1  0  0  0  0
  6  7  1  0  0  0  0
  7 13  1  0  0  0  0
  7  2  2  0  0  0  0
  8  4  1  0  0  0  0
  9  5  1  0  0  0  0
 10  6  1  0  0  0  0
 11 12  1  0  0  0  0
 12 17  1  0  0  0  0
 13 12  2  0  0  0  0
 13 14  1  0  0  0  0
 14 15  2  0  0  0  0
 15 16  1  0  0  0  0
 15 19  1  0  0  0  0
 16 20  1  0  0  0  0
 17 21  1  0  0  0  0
 17 16  2  0  0  0  0
 18 14  1  0  0  0  0
 21 22  1  0  0  0  0
 23 24  2  0  0  0  0
 23 28  1  0  0  0  0
 24 25  1  0  0  0  0
 25 30  1  0  0  0  0
 25 26  2  0  0  0  0
 27 26  1  0  0  0  0
 28 27  2  0  0  0  0
 29 23  1  0  0  0  0
 31 39  1  1  0  0  0
 31 38  1  0  0  0  0
 32 27  1  6  0  0  0
 32 31  1  0  0  0  0
 33 35  1  0  0  0  0
 33 32  1  0  0  0  0
 34 33  1  0  0  0  0
 35 36  1  0  0  0  0
 36 37  1  0  0  0  0
 36 38  1  0  0  0  0
 38 41  1  1  0  0  0
 40 39  1  0  0  0  0
 42 41  1  0  0  0  0
M  END
>  <minimizedAffinity>
-6.45298767

$$$$

 OpenBabel03272502083D

 42 45  0  0  1  0  0  0  0  0999 V2000
   35.2290   28.7240   34.3900 F   0  0  0  0  0  0  0  0  0  0  0  0
   35.5760   29.6400   33.4280 C   0  0  0  0  0  0  0  0  0  0  0  0
   36.2640   29.2770   32.2810 C   0  0  0  0  0  0  0  0  0  0  0  0
   36.5610   30.2500   31.3500 C   0  0  0  0  0  0  0  0  0  0  0  0
   36.1760   31.5790   31.5570 C   0  0  0  0  0  0  0  0  0  0  0  0
   35.4950   31.8710   32.7220 C   0  0  0  0  0  0  0  0  0  0  0  0
   35.1840   30.9570   33.6580 C   0  0  0  0  0  0  0  0  0  0  0  0
   37.0910   29.9200   30.4840 H   0  0  0  0  0  0  0  0  0  0  0  0
   36.4230   32.3080   30.8130 H   0  0  0  0  0  0  0  0  0  0  0  0
   35.2330   32.9170   32.8080 H   0  0  0  0  0  0  0  0  0  0  0  0
   32.0710   30.6240   33.6880 Br  0  0  0  0  0  0  0  0  0  0  0  0
   33.1360   31.2510   35.1380 C   0  0  0  0  0  0  0  0  0  0  0  0
   34.4790   31.3340   34.8670 C   0  0  0  0  0  0  0  0  0  0  0  0
   35.3240   31.8260   35.8780 C   0  0  0  0  0  0  0  0  0  0  0  0
   34.8220   32.2030   37.0830 C   0  0  0  0  0  0  0  0  0  0  0  0
   33.4630   32.0940   37.2980 C   0  0  0  0  0  0  0  0  0  0  0  0
   32.5900   31.6100   36.3160 C   0  0  0  0  0  0  0  0  0  0  0  0
   36.3930   31.9270   35.7490 H   0  0  0  0  0  0  0  0  0  0  0  0
   35.4320   32.5880   37.8900 H   0  0  0  0  0  0  0  0  0  0  0  0
   33.0170   32.3830   38.2410 H   0  0  0  0  0  0  0  0  0  0  0  0
   31.2430   31.4660   36.4410 O   0  0  0  0  0  0  0  0  0  0  0  0
   30.6440   31.9660   37.0820 H   0  0  0  0  0  0  0  0  0  0  0  0
   36.1120   27.1840   31.1050 C   0  0  0  0  0  0  0  0  0  0  0  0
   36.5990   27.8840   32.1870 C   0  0  0  0  0  0  0  0  0  0  0  0
   37.3960   27.1990   33.1090 C   0  0  0  0  0  0  0  0  0  0  0  0
   37.6620   25.8810   32.9100 N   0  0  0  0  0  0  0  0  0  0  0  0
   37.1750   25.2410   31.8530 C   0  0  0  0  0  0  0  0  0  0  0  0
   36.4170   25.8650   30.9640 N   0  0  0  0  0  0  0  0  0  0  0  0
   35.4820   27.6180   30.3270 H   0  0  0  0  0  0  0  0  0  0  0  0
   37.7610   27.7650   33.9420 H   0  0  0  0  0  0  0  0  0  0  0  0
   36.2450   23.0230   31.1460 C   0  0  1  0  0  3  0  0  0  0  0  0
   37.4560   23.8000   31.6170 C   0  0  1  0  0  3  0  0  0  0  0  0
   38.5190   23.6020   30.5580 C   0  0  0  0  0  3  0  0  0  0  0  0
   38.4020   24.2830   29.6910 H   0  0  0  0  0  0  0  0  0  0  0  0
   38.4400   22.2830   30.1580 O   0  0  0  0  0  0  0  0  0  0  0  0
   38.0300   21.4070   31.1490 C   0  0  0  0  0  3  0  0  0  0  0  0
   38.1270   20.3860   30.7170 H   0  0  0  0  0  0  0  0  0  0  0  0
   36.5340   21.5500   31.4550 C   0  0  1  0  0  3  0  0  0  0  0  0
   35.1290   23.5010   31.7870 O   0  0  0  0  0  0  0  0  0  0  0  0
   34.6390   24.1760   31.2260 H   0  0  0  0  0  0  0  0  0  0  0  0
   36.2770   21.4050   32.8190 O   0  0  0  0  0  0  0  0  0  0  0  0
   35.6840   22.1250   33.1700 H   0  0  0  0  0  0  0  0  0  0  0  0
  2  7  1  0  0  0  0
  2  1  1  0  0  0  0
  3  2  2  0  0  0  0
  4  5  2  0  0  0  0
  4  3  1  0  0  0  0
  5  6  1  0  0  0  0
  6 10  1  0  0  0  0
  6  7  2  0  0  0  0
  7 13  1  0  0  0  0
  8  4  1  0  0  0  0
  9  5  1  0  0  0  0
 11 12  1  0  0  0  0
 12 17  1  0  0  0  0
 13 12  2  0  0  0  0
 13 14  1  0  0  0  0
 14 15  2  0  0  0  0
 15 16  1  0  0  0  0
 15 19  1  0  0  0  0
 16 20  1  0  0  0  0
 17 21  1  0  0  0  0
 17 16  2  0  0  0  0
 18 14  1  0  0  0  0
 21 22  1  0  0  0  0
 23 24  1  0  0  0  0
 24  3  1  0  0  0  0
 24 25  2  0  0  0  0
 25 30  1  0  0  0  0
 26 25  1  0  0  0  0
 27 26  2  0  0  0  0
 28 23  2  0  0  0  0
 28 27  1  0  0  0  0
 29 23  1  0  0  0  0
 31 38  1  0  0  0  0
 31 32  1  0  0  0  0
 31 39  1  1  0  0  0
 32 27  1  6  0  0  0
 33 32  1  0  0  0  0
 34 33  1  0  0  0  0
 35 33  1  0  0  0  0
 35 36  1  0  0  0  0
 36 38  1  0  0  0  0
 37 36  1  0  0  0  0
 38 41  1  1  0  0  0
 40 39  1  0  0  0  0
 41 42  1  0  0  0  0
M  END
>  <minimizedAffinity>
-6.44089222

$$$$

 OpenBabel03272502083D

 42 45  0  0  1  0  0  0  0  0999 V2000
   36.6780   29.6360   35.6910 F   0  0  0  0  0  0  0  0  0  0  0  0
   35.9770   29.5970   34.5120 C   0  0  0  0  0  0  0  0  0  0  0  0
   36.1560   28.5830   33.5840 C   0  0  0  0  0  0  0  0  0  0  0  0
   35.4010   28.5990   32.4300 C   0  0  0  0  0  0  0  0  0  0  0  0
   34.4730   29.6200   32.1980 C   0  0  0  0  0  0  0  0  0  0  0  0
   34.3470   30.5990   33.1630 C   0  0  0  0  0  0  0  0  0  0  0  0
   35.0600   30.6250   34.3020 C   0  0  0  0  0  0  0  0  0  0  0  0
   35.5750   27.7970   31.7480 H   0  0  0  0  0  0  0  0  0  0  0  0
   33.9030   29.6020   31.2910 H   0  0  0  0  0  0  0  0  0  0  0  0
   33.6110   31.3500   32.9100 H   0  0  0  0  0  0  0  0  0  0  0  0
   36.7270   33.2430   33.8880 Br  0  0  0  0  0  0  0  0  0  0  0  0
   35.4720   32.9330   35.2880 C   0  0  0  0  0  0  0  0  0  0  0  0
   34.8890   31.6910   35.2680 C   0  0  0  0  0  0  0  0  0  0  0  0
   33.9800   31.3760   36.2950 C   0  0  0  0  0  0  0  0  0  0  0  0
   33.6920   32.2760   37.2710 C   0  0  0  0  0  0  0  0  0  0  0  0
   34.3090   33.5110   37.2370 C   0  0  0  0  0  0  0  0  0  0  0  0
   35.2200   33.8610   36.2320 C   0  0  0  0  0  0  0  0  0  0  0  0
   33.4770   30.4210   36.3580 H   0  0  0  0  0  0  0  0  0  0  0  0
   33.0020   32.0790   38.0810 H   0  0  0  0  0  0  0  0  0  0  0  0
   34.1110   34.2600   37.9920 H   0  0  0  0  0  0  0  0  0  0  0  0
   35.8690   35.0500   36.1170 O   0  0  0  0  0  0  0  0  0  0  0  0
   36.0590   35.7040   36.8640 H   0  0  0  0  0  0  0  0  0  0  0  0
   36.8780   26.8140   35.0460 C   0  0  0  0  0  0  0  0  0  0  0  0
   37.1350   27.5960   33.9410 C   0  0  0  0  0  0  0  0  0  0  0  0
   38.3200   27.3680   33.2360 C   0  0  0  0  0  0  0  0  0  0  0  0
   39.1690   26.3930   33.6560 N   0  0  0  0  0  0  0  0  0  0  0  0
   38.8850   25.6590   34.7270 C   0  0  0  0  0  0  0  0  0  0  0  0
   37.7700   25.8540   35.4140 N   0  0  0  0  0  0  0  0  0  0  0  0
   35.9860   26.9070   35.6670 H   0  0  0  0  0  0  0  0  0  0  0  0
   38.4980   27.9890   32.3820 H   0  0  0  0  0  0  0  0  0  0  0  0
   39.4830   23.2280   34.6150 C   0  0  1  0  0  3  0  0  0  0  0  0
   39.7990   24.5880   35.2010 C   0  0  1  0  0  3  0  0  0  0  0  0
   41.2390   24.8770   34.8360 C   0  0  0  0  0  3  0  0  0  0  0  0
   41.3550   25.2770   33.8080 H   0  0  0  0  0  0  0  0  0  0  0  0
   41.9310   23.6910   34.9790 O   0  0  0  0  0  0  0  0  0  0  0  0
   41.4400   22.8570   35.9690 C   0  0  0  0  0  3  0  0  0  0  0  0
   42.1590   22.0100   36.0450 H   0  0  0  0  0  0  0  0  0  0  0  0
   40.1170   22.1970   35.5560 C   0  0  1  0  0  3  0  0  0  0  0  0
   38.1210   23.0930   34.5070 O   0  0  0  0  0  0  0  0  0  0  0  0
   37.7990   23.3220   33.5820 H   0  0  0  0  0  0  0  0  0  0  0  0
   39.2390   22.0970   36.6360 O   0  0  0  0  0  0  0  0  0  0  0  0
   38.3220   22.4140   36.4070 H   0  0  0  0  0  0  0  0  0  0  0  0
  2  1  1  0  0  0  0
  3 24  1  0  0  0  0
  3  2  2  0  0  0  0
  4  3  1  0  0  0  0
  5  4  2  0  0  0  0
  5  6  1  0  0  0  0
  6  7  2  0  0  0  0
  7  2  1  0  0  0  0
  7 13  1  0  0  0  0
  8  4  1  0  0  0  0
  9  5  1  0  0  0  0
 10  6  1  0  0  0  0
 11 12  1  0  0  0  0
 12 17  1  0  0  0  0
 13 12  2  0  0  0  0
 13 14  1  0  0  0  0
 14 18  1  0  0  0  0
 14 15  2  0  0  0  0
 15 19  1  0  0  0  0
 16 15  1  0  0  0  0
 16 20  1  0  0  0  0
 17 16  2  0  0  0  0
 21 17  1  0  0  0  0
 21 22  1  0  0  0  0
 23 28  1  0  0  0  0
 23 29  1  0  0  0  0
 24 23  2  0  0  0  0
 25 26  2  0  0  0  0
 25 24  1  0  0  0  0
 26 27  1  0  0  0  0
 27 28  2  0  0  0  0
 30 25  1  0  0  0  0
 31 39  1  1  0  0  0
 31 32  1  0  0  0  0
 31 38  1  0  0  0  0
 32 27  1  6  0  0  0
 33 35  1  0  0  0  0
 33 32  1  0  0  0  0
 34 33  1  0  0  0  0
 35 36  1  0  0  0  0
 36 37  1  0  0  0  0
 38 36  1  0  0  0  0
 38 41  1  1  0  0  0
 40 39  1  0  0  0  0
 42 41  1  0  0  0  0
M  END
>  <minimizedAffinity>
-6.40051889

$$$$

 OpenBabel03272502083D

 42 45  0  0  1  0  0  0  0  0999 V2000
   36.2810   28.2690   34.8540 F   0  0  0  0  0  0  0  0  0  0  0  0
   36.1670   28.8220   33.6030 C   0  0  0  0  0  0  0  0  0  0  0  0
   36.7250   28.2270   32.4820 C   0  0  0  0  0  0  0  0  0  0  0  0
   36.5510   28.8310   31.2550 C   0  0  0  0  0  0  0  0  0  0  0  0
   35.8260   30.0220   31.1410 C   0  0  0  0  0  0  0  0  0  0  0  0
   35.2990   30.5610   32.2970 C   0  0  0  0  0  0  0  0  0  0  0  0
   35.4420   30.0090   33.5140 C   0  0  0  0  0  0  0  0  0  0  0  0
   37.0000   28.3340   30.4240 H   0  0  0  0  0  0  0  0  0  0  0  0
   35.7110   30.4640   30.1720 H   0  0  0  0  0  0  0  0  0  0  0  0
   34.7540   31.4800   32.1260 H   0  0  0  0  0  0  0  0  0  0  0  0
   32.4540   29.3740   34.2000 Br  0  0  0  0  0  0  0  0  0  0  0  0
   33.6140   30.4910   35.2170 C   0  0  0  0  0  0  0  0  0  0  0  0
   34.8740   30.6350   34.6920 C   0  0  0  0  0  0  0  0  0  0  0  0
   35.7750   31.4780   35.3680 C   0  0  0  0  0  0  0  0  0  0  0  0
   35.4050   32.1240   36.5040 C   0  0  0  0  0  0  0  0  0  0  0  0
   34.1240   31.9390   36.9850 C   0  0  0  0  0  0  0  0  0  0  0  0
   33.1990   31.1090   36.3400 C   0  0  0  0  0  0  0  0  0  0  0  0
   36.7860   31.6490   35.0240 H   0  0  0  0  0  0  0  0  0  0  0  0
   36.0620   32.7830   37.0570 H   0  0  0  0  0  0  0  0  0  0  0  0
   33.7850   32.4330   37.8860 H   0  0  0  0  0  0  0  0  0  0  0  0
   31.9230   30.8650   36.7420 O   0  0  0  0  0  0  0  0  0  0  0  0
   31.3560   31.4610   37.3300 H   0  0  0  0  0  0  0  0  0  0  0  0
   38.7870   27.1080   33.0160 C   0  0  0  0  0  0  0  0  0  0  0  0
   37.4420   27.0090   32.7330 C   0  0  0  0  0  0  0  0  0  0  0  0
   36.8640   25.7370   32.7260 C   0  0  0  0  0  0  0  0  0  0  0  0
   37.6370   24.6520   32.9950 N   0  0  0  0  0  0  0  0  0  0  0  0
   38.9320   24.7890   33.2640 C   0  0  0  0  0  0  0  0  0  0  0  0
   39.5050   25.9820   33.2760 N   0  0  0  0  0  0  0  0  0  0  0  0
   39.3380   28.0490   33.0470 H   0  0  0  0  0  0  0  0  0  0  0  0
   35.8180   25.6860   32.5030 H   0  0  0  0  0  0  0  0  0  0  0  0
   39.5420   23.0220   34.9320 C   0  0  1  0  0  3  0  0  0  0  0  0
   39.7930   23.6150   33.5620 C   0  0  1  0  0  3  0  0  0  0  0  0
   39.5730   22.4910   32.5720 C   0  0  0  0  0  3  0  0  0  0  0  0
   38.5040   22.3330   32.3240 H   0  0  0  0  0  0  0  0  0  0  0  0
   40.1170   21.3540   33.1340 O   0  0  0  0  0  0  0  0  0  0  0  0
   41.2100   21.5860   33.9530 C   0  0  0  0  0  3  0  0  0  0  0  0
   41.6040   20.5830   34.2320 H   0  0  0  0  0  0  0  0  0  0  0  0
   40.7990   22.2190   35.2880 C   0  0  1  0  0  3  0  0  0  0  0  0
   39.2810   24.0360   35.8190 O   0  0  0  0  0  0  0  0  0  0  0  0
   38.2920   24.1760   35.9410 H   0  0  0  0  0  0  0  0  0  0  0  0
   41.7320   23.1680   35.7100 O   0  0  0  0  0  0  0  0  0  0  0  0
   41.3010   24.0200   35.9960 H   0  0  0  0  0  0  0  0  0  0  0  0
  2  1  1  0  0  0  0
  3 24  1  0  0  0  0
  3  2  2  0  0  0  0
  4  3  1  0  0  0  0
  5  4  2  0  0  0  0
  5  6  1  0  0  0  0
  6  7  2  0  0  0  0
  7  2  1  0  0  0  0
  7 13  1  0  0  0  0
  8  4  1  0  0  0  0
  9  5  1  0  0  0  0
 10  6  1  0  0  0  0
 11 12  1  0  0  0  0
 12 17  1  0  0  0  0
 13 12  2  0  0  0  0
 13 14  1  0  0  0  0
 14 15  2  0  0  0  0
 15 16  1  0  0  0  0
 15 19  1  0  0  0  0
 16 20  1  0  0  0  0
 17 21  1  0  0  0  0
 17 16  2  0  0  0  0
 18 14  1  0  0  0  0
 21 22  1  0  0  0  0
 23 29  1  0  0  0  0
 23 28  1  0  0  0  0
 24 23  2  0  0  0  0
 25 24  1  0  0  0  0
 25 26  2  0  0  0  0
 26 27  1  0  0  0  0
 27 28  2  0  0  0  0
 30 25  1  0  0  0  0
 31 38  1  0  0  0  0
 31 39  1  1  0  0  0
 32 27  1  6  0  0  0
 32 31  1  0  0  0  0
 33 35  1  0  0  0  0
 33 32  1  0  0  0  0
 34 33  1  0  0  0  0
 35 36  1  0  0  0  0
 36 37  1  0  0  0  0
 36 38  1  0  0  0  0
 38 41  1  6  0  0  0
 39 40  1  0  0  0  0
 41 42  1  0  0  0  0
M  END
>  <minimizedAffinity>
-6.3968873

$$$$

 OpenBabel03272502083D

 42 45  0  0  1  0  0  0  0  0999 V2000
   35.7980   28.4910   34.5160 F   0  0  0  0  0  0  0  0  0  0  0  0
   35.7240   29.2630   33.3840 C   0  0  0  0  0  0  0  0  0  0  0  0
   36.2200   28.8290   32.1640 C   0  0  0  0  0  0  0  0  0  0  0  0
   36.0920   29.6530   31.0660 C   0  0  0  0  0  0  0  0  0  0  0  0
   35.4750   30.9030   31.1780 C   0  0  0  0  0  0  0  0  0  0  0  0
   35.0050   31.2730   32.4220 C   0  0  0  0  0  0  0  0  0  0  0  0
   35.1070   30.5050   33.5200 C   0  0  0  0  0  0  0  0  0  0  0  0
   36.4890   29.2730   30.1500 H   0  0  0  0  0  0  0  0  0  0  0  0
   35.3930   31.5170   30.3040 H   0  0  0  0  0  0  0  0  0  0  0  0
   34.5420   32.2510   32.4260 H   0  0  0  0  0  0  0  0  0  0  0  0
   32.2720   29.5140   34.4060 Br  0  0  0  0  0  0  0  0  0  0  0  0
   33.4220   30.6440   35.4210 C   0  0  0  0  0  0  0  0  0  0  0  0
   34.6040   30.9600   34.8020 C   0  0  0  0  0  0  0  0  0  0  0  0
   35.4880   31.8230   35.4750 C   0  0  0  0  0  0  0  0  0  0  0  0
   35.1760   32.3230   36.6990 C   0  0  0  0  0  0  0  0  0  0  0  0
   33.9720   31.9670   37.2730 C   0  0  0  0  0  0  0  0  0  0  0  0
   33.0660   31.1110   36.6330 C   0  0  0  0  0  0  0  0  0  0  0  0
   36.4400   32.1260   35.0600 H   0  0  0  0  0  0  0  0  0  0  0  0
   35.8230   32.9900   37.2550 H   0  0  0  0  0  0  0  0  0  0  0  0
   33.6800   32.3390   38.2470 H   0  0  0  0  0  0  0  0  0  0  0  0
   31.8640   30.7050   37.1230 O   0  0  0  0  0  0  0  0  0  0  0  0
   31.3070   31.1840   37.8170 H   0  0  0  0  0  0  0  0  0  0  0  0
   36.0400   26.4530   31.8360 C   0  0  0  0  0  0  0  0  0  0  0  0
   36.8280   27.5290   32.1820 C   0  0  0  0  0  0  0  0  0  0  0  0
   38.1640   27.2860   32.5110 C   0  0  0  0  0  0  0  0  0  0  0  0
   38.6380   26.0120   32.4780 N   0  0  0  0  0  0  0  0  0  0  0  0
   37.8460   25.0010   32.1380 C   0  0  0  0  0  0  0  0  0  0  0  0
   36.5760   25.2020   31.8230 N   0  0  0  0  0  0  0  0  0  0  0  0
   34.9860   26.5280   31.5640 H   0  0  0  0  0  0  0  0  0  0  0  0
   38.7560   28.1380   32.7770 H   0  0  0  0  0  0  0  0  0  0  0  0
   37.9490   22.7870   33.3090 C   0  0  1  0  0  3  0  0  0  0  0  0
   38.3460   23.6020   32.0950 C   0  0  1  0  0  3  0  0  0  0  0  0
   37.8110   22.8510   30.8940 C   0  0  0  0  0  3  0  0  0  0  0  0
   36.7390   23.0530   30.6970 H   0  0  0  0  0  0  0  0  0  0  0  0
   38.0190   21.5090   31.1400 O   0  0  0  0  0  0  0  0  0  0  0  0
   39.1390   21.2330   31.9050 C   0  0  0  0  0  3  0  0  0  0  0  0
   39.2380   20.1240   31.9180 H   0  0  0  0  0  0  0  0  0  0  0  0
   38.9330   21.6140   33.3770 C   0  0  1  0  0  3  0  0  0  0  0  0
   37.9900   23.5910   34.4210 O   0  0  0  0  0  0  0  0  0  0  0  0
   37.0810   23.9590   34.6450 H   0  0  0  0  0  0  0  0  0  0  0  0
   40.0980   22.1440   33.9340 O   0  0  0  0  0  0  0  0  0  0  0  0
   39.9260   22.9860   34.4380 H   0  0  0  0  0  0  0  0  0  0  0  0
  2  7  1  0  0  0  0
  2  1  1  0  0  0  0
  3 24  1  0  0  0  0
  3  2  2  0  0  0  0
  4  5  2  0  0  0  0
  4  3  1  0  0  0  0
  5  6  1  0  0  0  0
  6 10  1  0  0  0  0
  6  7  2  0  0  0  0
  7 13  1  0  0  0  0
  8  4  1  0  0  0  0
  9  5  1  0  0  0  0
 11 12  1  0  0  0  0
 12 17  1  0  0  0  0
 13 12  2  0  0  0  0
 13 14  1  0  0  0  0
 14 15  2  0  0  0  0
 15 19  1  0  0  0  0
 15 16  1  0  0  0  0
 16 20  1  0  0  0  0
 17 21  1  0  0  0  0
 17 16  2  0  0  0  0
 18 14  1  0  0  0  0
 21 22  1  0  0  0  0
 23 24  1  0  0  0  0
 24 25  2  0  0  0  0
 25 30  1  0  0  0  0
 26 25  1  0  0  0  0
 27 26  2  0  0  0  0
 28 23  2  0  0  0  0
 28 27  1  0  0  0  0
 29 23  1  0  0  0  0
 31 38  1  0  0  0  0
 31 39  1  1  0  0  0
 32 27  1  1  0  0  0
 32 31  1  0  0  0  0
 33 35  1  0  0  0  0
 33 32  1  0  0  0  0
 34 33  1  0  0  0  0
 35 36  1  0  0  0  0
 36 37  1  0  0  0  0
 36 38  1  0  0  0  0
 38 41  1  6  0  0  0
 39 40  1  0  0  0  0
 41 42  1  0  0  0  0
M  END
>  <minimizedAffinity>
-6.3229146

$$$$

 OpenBabel03272502083D

 42 45  0  0  1  0  0  0  0  0999 V2000
   35.5420   28.3830   34.5350 F   0  0  0  0  0  0  0  0  0  0  0  0
   35.4150   29.2070   33.4440 C   0  0  0  0  0  0  0  0  0  0  0  0
   35.9560   28.8820   32.2100 C   0  0  0  0  0  0  0  0  0  0  0  0
   35.7690   29.7500   31.1550 C   0  0  0  0  0  0  0  0  0  0  0  0
   35.0490   30.9370   31.3250 C   0  0  0  0  0  0  0  0  0  0  0  0
   34.5390   31.2000   32.5810 C   0  0  0  0  0  0  0  0  0  0  0  0
   34.6950   30.3840   33.6380 C   0  0  0  0  0  0  0  0  0  0  0  0
   36.2050   29.4550   30.2260 H   0  0  0  0  0  0  0  0  0  0  0  0
   34.9240   31.5890   30.4850 H   0  0  0  0  0  0  0  0  0  0  0  0
   33.9970   32.1340   32.6310 H   0  0  0  0  0  0  0  0  0  0  0  0
   36.3300   32.3590   35.4360 Br  0  0  0  0  0  0  0  0  0  0  0  0
   34.6480   31.5840   35.8810 C   0  0  0  0  0  0  0  0  0  0  0  0
   34.1460   30.7260   34.9350 C   0  0  0  0  0  0  0  0  0  0  0  0
   32.9230   30.0860   35.2120 C   0  0  0  0  0  0  0  0  0  0  0  0
   32.2660   30.3140   36.3790 C   0  0  0  0  0  0  0  0  0  0  0  0
   32.8200   31.1900   37.2910 C   0  0  0  0  0  0  0  0  0  0  0  0
   34.0340   31.8450   37.0520 C   0  0  0  0  0  0  0  0  0  0  0  0
   32.4570   29.3930   34.5250 H   0  0  0  0  0  0  0  0  0  0  0  0
   31.3260   29.8440   36.6360 H   0  0  0  0  0  0  0  0  0  0  0  0
   32.3330   31.4040   38.2340 H   0  0  0  0  0  0  0  0  0  0  0  0
   34.6500   32.7240   37.8880 O   0  0  0  0  0  0  0  0  0  0  0  0
   34.5270   32.7840   38.8890 H   0  0  0  0  0  0  0  0  0  0  0  0
   35.9860   26.5270   31.7210 C   0  0  0  0  0  0  0  0  0  0  0  0
   36.6690   27.6370   32.1660 C   0  0  0  0  0  0  0  0  0  0  0  0
   38.0100   27.4820   32.5300 C   0  0  0  0  0  0  0  0  0  0  0  0
   38.5900   26.2570   32.4320 N   0  0  0  0  0  0  0  0  0  0  0  0
   37.8970   25.2090   31.9970 C   0  0  0  0  0  0  0  0  0  0  0  0
   36.6250   25.3270   31.6470 N   0  0  0  0  0  0  0  0  0  0  0  0
   34.9400   26.5350   31.4130 H   0  0  0  0  0  0  0  0  0  0  0  0
   38.5190   28.3600   32.8740 H   0  0  0  0  0  0  0  0  0  0  0  0
   38.0610   22.9030   32.9640 C   0  0  1  0  0  3  0  0  0  0  0  0
   38.5130   23.8620   31.8820 C   0  0  1  0  0  3  0  0  0  0  0  0
   38.1720   23.1990   30.5650 C   0  0  0  0  0  3  0  0  0  0  0  0
   37.1130   23.3410   30.2680 H   0  0  0  0  0  0  0  0  0  0  0  0
   38.4630   21.8570   30.7080 O   0  0  0  0  0  0  0  0  0  0  0  0
   39.5160   21.5880   31.5660 C   0  0  0  0  0  3  0  0  0  0  0  0
   39.7060   20.4940   31.4880 H   0  0  0  0  0  0  0  0  0  0  0  0
   39.1270   21.8030   33.0340 C   0  0  1  0  0  3  0  0  0  0  0  0
   37.9180   23.5920   34.1420 O   0  0  0  0  0  0  0  0  0  0  0  0
   36.9630   23.8680   34.2950 H   0  0  0  0  0  0  0  0  0  0  0  0
   40.1780   22.3590   33.7640 O   0  0  0  0  0  0  0  0  0  0  0  0
   39.8850   23.1320   34.3210 H   0  0  0  0  0  0  0  0  0  0  0  0
  2  7  1  0  0  0  0
  2  1  1  0  0  0  0
  3  2  2  0  0  0  0
  4  5  2  0  0  0  0
  4  3  1  0  0  0  0
  5  6  1  0  0  0  0
  6 10  1  0  0  0  0
  6  7  2  0  0  0  0
  7 13  1  0  0  0  0
  8  4  1  0  0  0  0
  9  5  1  0  0  0  0
 11 12  1  0  0  0  0
 12 17  1  0  0  0  0
 13 14  1  0  0  0  0
 13 12  2  0  0  0  0
 14 15  2  0  0  0  0
 15 19  1  0  0  0  0
 15 16  1  0  0  0  0
 16 20  1  0  0  0  0
 17 16  2  0  0  0  0
 17 21  1  0  0  0  0
 18 14  1  0  0  0  0
 21 22  1  0  0  0  0
 23 24  1  0  0  0  0
 24  3  1  0  0  0  0
 24 25  2  0  0  0  0
 25 30  1  0  0  0  0
 26 25  1  0  0  0  0
 27 26  2  0  0  0  0
 28 23  2  0  0  0  0
 28 27  1  0  0  0  0
 29 23  1  0  0  0  0
 31 38  1  0  0  0  0
 31 39  1  1  0  0  0
 32 27  1  1  0  0  0
 32 31  1  0  0  0  0
 33 35  1  0  0  0  0
 33 32  1  0  0  0  0
 34 33  1  0  0  0  0
 35 36  1  0  0  0  0
 36 38  1  0  0  0  0
 37 36  1  0  0  0  0
 38 41  1  1  0  0  0
 39 40  1  0  0  0  0
 41 42  1  0  0  0  0
M  END
>  <minimizedAffinity>
-6.31144094

$$$$
