
 OpenBabel03272500073D

 42 45  0  0  1  0  0  0  0  0999 V2000
   30.2490   27.5150   48.0800 C   0  0  0  0  0  0  0  0  0  0  0  0
   30.4460   27.3250   49.4330 C   0  0  0  0  0  0  0  0  0  0  0  0
   29.4250   27.5400   50.3360 C   0  0  0  0  0  0  0  0  0  0  0  0
   28.1860   27.9540   49.8730 C   0  0  0  0  0  0  0  0  0  0  0  0
   28.0050   28.1390   48.5250 C   0  0  0  0  0  0  0  0  0  0  0  0
   29.0150   27.9250   47.6380 C   0  0  0  0  0  0  0  0  0  0  0  0
   31.4040   26.9990   49.8530 H   0  0  0  0  0  0  0  0  0  0  0  0
   29.6060   27.3830   51.3970 H   0  0  0  0  0  0  0  0  0  0  0  0
   27.4150   28.1130   50.6040 H   0  0  0  0  0  0  0  0  0  0  0  0
   27.0180   28.4630   48.2250 H   0  0  0  0  0  0  0  0  0  0  0  0
   27.5200   27.4270   45.7190 C   0  0  2  0  0  3  0  0  0  0  0  0
   28.7820   28.1090   46.2100 C   0  0  1  0  0  3  0  0  0  0  0  0
   28.7310   29.5350   45.7300 C   0  0  0  0  0  3  0  0  0  0  0  0
   29.7780   29.9000   45.5810 H   0  0  0  0  0  0  0  0  0  0  0  0
   28.1700   29.5450   44.4510 O   0  0  0  0  0  0  0  0  0  0  0  0
   28.4670   28.4410   43.6990 C   0  0  0  0  0  3  0  0  0  0  0  0
   28.1600   28.6960   42.6490 H   0  0  0  0  0  0  0  0  0  0  0  0
   27.6810   27.2390   44.2240 C   0  0  2  0  0  3  0  0  0  0  0  0
   26.4590   28.2960   45.9680 O   0  0  0  0  0  0  0  0  0  0  0  0
   25.6490   27.7660   46.1970 H   0  0  0  0  0  0  0  0  0  0  0  0
   26.4760   27.0710   43.5860 O   0  0  0  0  0  0  0  0  0  0  0  0
   26.5000   26.2130   43.0920 H   0  0  0  0  0  0  0  0  0  0  0  0
   31.3710   27.2600   47.2970 O   0  0  0  0  0  0  0  0  0  0  0  0
   34.5100   28.4860   48.5570 C   0  0  0  0  0  0  0  0  0  0  0  0
   34.6240   29.7520   47.9830 C   0  0  0  0  0  0  0  0  0  0  0  0
   33.5770   30.1730   47.1410 C   0  0  0  0  0  0  0  0  0  0  0  0
   32.5330   29.3270   46.9450 N   0  0  0  0  0  0  0  0  0  0  0  0
   32.4530   28.1220   47.5100 C   0  0  0  0  0  0  0  0  0  0  0  0
   33.4540   27.6870   48.3300 N   0  0  0  0  0  0  0  0  0  0  0  0
   35.2780   28.0720   49.2280 H   0  0  0  0  0  0  0  0  0  0  0  0
   33.6580   31.1440   46.6980 H   0  0  0  0  0  0  0  0  0  0  0  0
   35.7660   30.5310   48.2710 N   0  0  0  0  0  0  0  0  0  0  0  0
   36.0120   31.0090   49.4860 C   0  0  0  0  0  0  0  0  0  0  0  0
   37.1540   31.7750   49.7080 C   0  0  0  0  0  0  0  0  0  0  0  0
   37.9500   31.9720   48.6080 C   0  0  0  0  0  0  0  0  0  0  0  0
   38.9840   32.6660   48.8030 O   0  0  0  0  0  0  0  0  0  0  0  0
   37.7350   31.5100   47.3840 N   0  0  0  0  0  0  0  0  0  0  0  0
   36.6080   30.7670   47.2110 C   0  0  0  0  0  0  0  0  0  0  0  0
   36.3890   30.3170   46.0400 O   0  0  0  0  0  0  0  0  0  0  0  0
   35.3520   30.8240   50.3180 H   0  0  0  0  0  0  0  0  0  0  0  0
   37.3600   32.1670   50.6950 H   0  0  0  0  0  0  0  0  0  0  0  0
   38.3760   31.6930   46.5910 H   0  0  0  0  0  0  0  0  0  0  0  0
  1  2  1  0  0  0  0
  2  7  1  0  0  0  0
  2  3  2  0  0  0  0
  3  8  1  0  0  0  0
  4  3  1  0  0  0  0
  4  9  1  0  0  0  0
  5  4  2  0  0  0  0
  6  1  2  0  0  0  0
  6  5  1  0  0  0  0
 10  5  1  0  0  0  0
 11 19  1  6  0  0  0
 11 12  1  0  0  0  0
 12  6  1  1  0  0  0
 13 12  1  0  0  0  0
 14 13  1  0  0  0  0
 15 13  1  0  0  0  0
 16 18  1  0  0  0  0
 16 15  1  0  0  0  0
 17 16  1  0  0  0  0
 18 21  1  6  0  0  0
 18 11  1  0  0  0  0
 19 20  1  0  0  0  0
 22 21  1  0  0  0  0
 23 28  1  0  0  0  0
 23  1  1  0  0  0  0
 24 30  1  0  0  0  0
 25 32  1  0  0  0  0
 25 24  2  0  0  0  0
 26 25  1  0  0  0  0
 27 26  2  0  0  0  0
 27 28  1  0  0  0  0
 28 29  2  0  0  0  0
 29 24  1  0  0  0  0
 31 26  1  0  0  0  0
 32 33  1  0  0  0  0
 33 34  2  0  0  0  0
 33 40  1  0  0  0  0
 34 41  1  0  0  0  0
 35 36  2  0  0  0  0
 35 34  1  0  0  0  0
 37 35  1  0  0  0  0
 38 37  1  0  0  0  0
 38 32  1  0  0  0  0
 39 38  2  0  0  0  0
 42 37  1  0  0  0  0
M  END
>  <minimizedAffinity>
-6.12405634

>  <minimizedRMSD>
2.17187595

$$$$
