
 OpenBabel03272500073D

 42 45  0  0  1  0  0  0  0  0999 V2000
   31.0630   27.4430   48.3070 C   0  0  0  0  0  0  0  0  0  0  0  0
   30.7520   27.7490   49.6150 C   0  0  0  0  0  0  0  0  0  0  0  0
   29.4890   28.1840   49.9620 C   0  0  0  0  0  0  0  0  0  0  0  0
   28.5230   28.3160   48.9770 C   0  0  0  0  0  0  0  0  0  0  0  0
   28.8470   28.0080   47.6790 C   0  0  0  0  0  0  0  0  0  0  0  0
   30.0950   27.5780   47.3420 C   0  0  0  0  0  0  0  0  0  0  0  0
   31.4760   27.6630   50.4330 H   0  0  0  0  0  0  0  0  0  0  0  0
   29.2690   28.4190   51.0010 H   0  0  0  0  0  0  0  0  0  0  0  0
   27.5510   28.6580   49.2820 H   0  0  0  0  0  0  0  0  0  0  0  0
   28.0530   28.1310   46.9560 H   0  0  0  0  0  0  0  0  0  0  0  0
   30.2600   25.7580   45.6610 C   0  0  2  0  0  3  0  0  0  0  0  0
   30.3990   27.2390   45.9570 C   0  0  1  0  0  3  0  0  0  0  0  0
   29.6090   27.9770   44.9100 C   0  0  0  0  0  3  0  0  0  0  0  0
   30.0830   28.9760   44.7440 H   0  0  0  0  0  0  0  0  0  0  0  0
   29.7640   27.3070   43.6940 O   0  0  0  0  0  0  0  0  0  0  0  0
   30.9890   26.7200   43.5280 C   0  0  0  0  0  3  0  0  0  0  0  0
   31.0490   26.4390   42.4430 H   0  0  0  0  0  0  0  0  0  0  0  0
   31.0860   25.4830   44.4210 C   0  0  2  0  0  3  0  0  0  0  0  0
   28.9150   25.5180   45.3870 O   0  0  0  0  0  0  0  0  0  0  0  0
   28.6680   24.6160   45.7240 H   0  0  0  0  0  0  0  0  0  0  0  0
   30.7000   24.3320   43.7820 O   0  0  0  0  0  0  0  0  0  0  0  0
   31.4850   23.7330   43.7080 H   0  0  0  0  0  0  0  0  0  0  0  0
   32.3760   27.0200   48.1140 O   0  0  0  0  0  0  0  0  0  0  0  0
   35.3490   28.7880   49.1030 C   0  0  0  0  0  0  0  0  0  0  0  0
   35.2930   29.9680   48.3600 C   0  0  0  0  0  0  0  0  0  0  0  0
   34.1900   30.1360   47.5020 C   0  0  0  0  0  0  0  0  0  0  0  0
   33.2600   29.1470   47.4530 N   0  0  0  0  0  0  0  0  0  0  0  0
   33.3410   28.0300   48.1760 C   0  0  0  0  0  0  0  0  0  0  0  0
   34.4000   27.8410   49.0170 N   0  0  0  0  0  0  0  0  0  0  0  0
   36.1720   28.5690   49.8000 H   0  0  0  0  0  0  0  0  0  0  0  0
   34.1420   31.0390   46.9290 H   0  0  0  0  0  0  0  0  0  0  0  0
   36.3310   30.9150   48.5060 N   0  0  0  0  0  0  0  0  0  0  0  0
   36.5400   31.5700   49.6430 C   0  0  0  0  0  0  0  0  0  0  0  0
   37.5760   32.4960   49.7250 C   0  0  0  0  0  0  0  0  0  0  0  0
   38.3150   32.6500   48.5790 C   0  0  0  0  0  0  0  0  0  0  0  0
   39.2550   33.4880   48.6480 O   0  0  0  0  0  0  0  0  0  0  0  0
   38.1350   32.0140   47.4310 N   0  0  0  0  0  0  0  0  0  0  0  0
   37.1110   31.1190   47.3930 C   0  0  0  0  0  0  0  0  0  0  0  0
   36.9260   30.5000   46.2960 O   0  0  0  0  0  0  0  0  0  0  0  0
   35.9280   31.4100   50.5160 H   0  0  0  0  0  0  0  0  0  0  0  0
   37.7520   33.0320   50.6480 H   0  0  0  0  0  0  0  0  0  0  0  0
   38.7290   32.1750   46.5970 H   0  0  0  0  0  0  0  0  0  0  0  0
  1  2  1  0  0  0  0
  2  3  2  0  0  0  0
  2  7  1  0  0  0  0
  3  8  1  0  0  0  0
  4  9  1  0  0  0  0
  4  3  1  0  0  0  0
  5  4  2  0  0  0  0
  6  5  1  0  0  0  0
  6  1  2  0  0  0  0
 10  5  1  0  0  0  0
 11 19  1  6  0  0  0
 11 12  1  0  0  0  0
 12  6  1  1  0  0  0
 13 12  1  0  0  0  0
 14 13  1  0  0  0  0
 15 13  1  0  0  0  0
 16 15  1  0  0  0  0
 16 18  1  0  0  0  0
 17 16  1  0  0  0  0
 18 21  1  6  0  0  0
 18 11  1  0  0  0  0
 19 20  1  0  0  0  0
 22 21  1  0  0  0  0
 23 28  1  0  0  0  0
 23  1  1  0  0  0  0
 24 30  1  0  0  0  0
 25 32  1  0  0  0  0
 25 24  2  0  0  0  0
 26 25  1  0  0  0  0
 27 26  2  0  0  0  0
 27 28  1  0  0  0  0
 28 29  2  0  0  0  0
 29 24  1  0  0  0  0
 31 26  1  0  0  0  0
 32 33  1  0  0  0  0
 33 34  2  0  0  0  0
 33 40  1  0  0  0  0
 34 41  1  0  0  0  0
 35 36  2  0  0  0  0
 35 34  1  0  0  0  0
 37 35  1  0  0  0  0
 38 37  1  0  0  0  0
 38 32  1  0  0  0  0
 39 38  2  0  0  0  0
 42 37  1  0  0  0  0
M  END
>  <minimizedAffinity>
-5.89004612

>  <minimizedRMSD>
1.10807467

$$$$
