
 OpenBabel03272502063D

 42 45  0  0  1  0  0  0  0  0999 V2000
   34.6500   30.2310   48.0280 F   0  0  0  0  0  0  0  0  0  0  0  0
   35.0120   29.9140   46.7420 C   0  0  0  0  0  0  0  0  0  0  0  0
   34.1680   29.2180   45.8910 C   0  0  0  0  0  0  0  0  0  0  0  0
   34.5930   28.9540   44.6060 C   0  0  0  0  0  0  0  0  0  0  0  0
   35.8520   29.3790   44.1680 C   0  0  0  0  0  0  0  0  0  0  0  0
   36.6420   30.0660   45.0680 C   0  0  0  0  0  0  0  0  0  0  0  0
   36.2710   30.3460   46.3290 C   0  0  0  0  0  0  0  0  0  0  0  0
   33.9070   28.4160   43.9900 H   0  0  0  0  0  0  0  0  0  0  0  0
   36.1500   29.1560   43.1640 H   0  0  0  0  0  0  0  0  0  0  0  0
   37.5970   30.3590   44.6550 H   0  0  0  0  0  0  0  0  0  0  0  0
   38.2080   32.4680   45.0840 Br  0  0  0  0  0  0  0  0  0  0  0  0
   38.0610   32.0490   46.9370 C   0  0  0  0  0  0  0  0  0  0  0  0
   37.1550   31.0600   47.2290 C   0  0  0  0  0  0  0  0  0  0  0  0
   37.0200   30.6690   48.5740 C   0  0  0  0  0  0  0  0  0  0  0  0
   37.7630   31.2570   49.5470 C   0  0  0  0  0  0  0  0  0  0  0  0
   38.6560   32.2480   49.1930 C   0  0  0  0  0  0  0  0  0  0  0  0
   38.8190   32.6630   47.8650 C   0  0  0  0  0  0  0  0  0  0  0  0
   36.3330   29.8970   48.8920 H   0  0  0  0  0  0  0  0  0  0  0  0
   37.6940   30.9890   50.5940 H   0  0  0  0  0  0  0  0  0  0  0  0
   39.2690   32.7450   49.9340 H   0  0  0  0  0  0  0  0  0  0  0  0
   39.6690   33.6300   47.4260 O   0  0  0  0  0  0  0  0  0  0  0  0
   40.5080   33.9470   47.8920 H   0  0  0  0  0  0  0  0  0  0  0  0
   32.8940   27.7750   47.3340 C   0  0  0  0  0  0  0  0  0  0  0  0
   32.9060   28.8410   46.4600 C   0  0  0  0  0  0  0  0  0  0  0  0
   31.6960   29.4910   46.2010 C   0  0  0  0  0  0  0  0  0  0  0  0
   30.5610   29.0570   46.8110 N   0  0  0  0  0  0  0  0  0  0  0  0
   30.5910   28.0250   47.6480 C   0  0  0  0  0  0  0  0  0  0  0  0
   31.7230   27.3910   47.9110 N   0  0  0  0  0  0  0  0  0  0  0  0
   33.7780   27.1970   47.6060 H   0  0  0  0  0  0  0  0  0  0  0  0
   31.7310   30.3160   45.5180 H   0  0  0  0  0  0  0  0  0  0  0  0
   28.9400   28.4020   49.4950 C   0  0  1  0  0  0  0  0  0  0  0  0
   29.3620   27.5370   48.3250 C   0  0  1  0  0  0  0  0  0  0  0  0
   28.1780   27.5020   47.3830 C   0  0  0  0  0  0  0  0  0  0  0  0
   28.1200   28.3910   46.7230 H   0  0  0  0  0  0  0  0  0  0  0  0
   27.0470   27.4020   48.1690 O   0  0  0  0  0  0  0  0  0  0  0  0
   27.2320   26.7100   49.3540 C   0  0  0  0  0  0  0  0  0  0  0  0
   26.2240   26.6120   49.8150 H   0  0  0  0  0  0  0  0  0  0  0  0
   28.0380   27.5260   50.3720 C   0  0  1  0  0  0  0  0  0  0  0  0
   30.0610   28.8480   50.1500 O   0  0  0  0  0  0  0  0  0  0  0  0
   30.3240   29.7700   49.8470 H   0  0  0  0  0  0  0  0  0  0  0  0
   28.9110   26.7150   51.0990 O   0  0  0  0  0  0  0  0  0  0  0  0
   29.8310   27.0960   51.1440 H   0  0  0  0  0  0  0  0  0  0  0  0
  2  1  1  0  0  0  0
  3 24  1  0  0  0  0
  3  2  2  0  0  0  0
  4  3  1  0  0  0  0
  5  4  2  0  0  0  0
  5  6  1  0  0  0  0
  6  7  2  0  0  0  0
  7  2  1  0  0  0  0
  7 13  1  0  0  0  0
  8  4  1  0  0  0  0
  9  5  1  0  0  0  0
 10  6  1  0  0  0  0
 11 12  1  0  0  0  0
 12 13  2  0  0  0  0
 12 17  1  0  0  0  0
 13 14  1  0  0  0  0
 14 18  1  0  0  0  0
 14 15  2  0  0  0  0
 15 19  1  0  0  0  0
 16 15  1  0  0  0  0
 16 20  1  0  0  0  0
 17 16  2  0  0  0  0
 21 17  1  0  0  0  0
 21 22  1  0  0  0  0
 23 29  1  0  0  0  0
 23 28  1  0  0  0  0
 24 23  2  0  0  0  0
 25 24  1  0  0  0  0
 25 26  2  0  0  0  0
 26 27  1  0  0  0  0
 27 28  2  0  0  0  0
 30 25  1  0  0  0  0
 31 39  1  1  0  0  0
 31 38  1  0  0  0  0
 32 27  1  6  0  0  0
 32 31  1  0  0  0  0
 33 35  1  0  0  0  0
 33 32  1  0  0  0  0
 34 33  1  0  0  0  0
 35 36  1  0  0  0  0
 36 37  1  0  0  0  0
 36 38  1  0  0  0  0
 38 41  1  1  0  0  0
 40 39  1  0  0  0  0
 41 42  1  0  0  0  0
M  END
>  <minimizedAffinity>
-7.74348688

>  <minimizedRMSD>
1.39078879

$$$$
