
 OpenBabel03272506093D

 47 50  0  0  1  0  0  0  0  0999 V2000
   34.7820   28.5900   48.8730 C   0  0  0  0  0  0  0  0  0  0  0  0
   35.6460   28.4540   48.1910 H   0  0  0  0  0  0  0  0  0  0  0  0
   34.8780   27.7570   49.6130 H   0  0  0  0  0  0  0  0  0  0  0  0
   33.4910   28.4440   48.1040 C   0  0  0  0  0  0  0  0  0  0  0  0
   33.4590   28.7630   46.7000 C   0  0  0  0  0  0  0  0  0  0  0  0
   31.7670   28.4290   46.3120 S   0  0  0  0  0  0  0  0  0  0  0  0
   31.3150   27.9060   48.0710 C   0  0  0  0  0  0  0  0  0  0  0  0
   32.3670   28.0450   48.6080 N   0  0  0  0  0  0  0  0  0  0  0  0
   30.0570   27.4600   48.6340 N   0  0  0  0  0  0  0  0  0  0  0  0
   29.1760   26.7600   47.7530 C   0  0  0  0  0  0  0  0  0  0  0  0
   27.7650   26.6780   48.2290 C   0  0  0  0  0  0  0  0  0  0  0  0
   27.5070   27.4850   49.4270 N   0  0  0  0  0  0  0  0  0  0  0  0
   28.4970   27.0610   50.4010 C   0  0  0  0  0  0  0  0  0  0  0  0
   29.7810   27.7440   50.0190 C   0  0  0  0  0  0  0  0  0  0  0  0
   34.2600   29.1010   46.1090 H   0  0  0  0  0  0  0  0  0  0  0  0
   29.5680   25.7270   47.5240 H   0  0  0  0  0  0  0  0  0  0  0  0
   29.1720   27.2880   46.7760 H   0  0  0  0  0  0  0  0  0  0  0  0
   27.5120   25.6200   48.5260 H   0  0  0  0  0  0  0  0  0  0  0  0
   27.0040   26.9530   47.4690 H   0  0  0  0  0  0  0  0  0  0  0  0
   26.5810   27.1260   49.7900 H   0  0  0  0  0  0  0  0  0  0  0  0
   28.2260   27.4290   51.4200 H   0  0  0  0  0  0  0  0  0  0  0  0
   28.6590   25.9610   50.4020 H   0  0  0  0  0  0  0  0  0  0  0  0
   30.5900   27.3150   50.6460 H   0  0  0  0  0  0  0  0  0  0  0  0
   29.6570   28.8280   50.2180 H   0  0  0  0  0  0  0  0  0  0  0  0
   34.8310   29.8720   49.6060 C   0  0  0  0  0  0  0  0  0  0  0  0
   33.9270   30.4840   49.3300 H   0  0  0  0  0  0  0  0  0  0  0  0
   34.8520   29.7360   50.7020 H   0  0  0  0  0  0  0  0  0  0  0  0
   37.6950   32.2260   49.5380 C   0  0  0  0  0  0  0  0  0  0  0  0
   38.1450   32.1400   48.2300 C   0  0  0  0  0  0  0  0  0  0  0  0
   37.4560   31.2710   47.3830 C   0  0  0  0  0  0  0  0  0  0  0  0
   36.4050   30.5610   47.8440 N   0  0  0  0  0  0  0  0  0  0  0  0
   36.0130   30.6930   49.1470 C   0  0  0  0  0  0  0  0  0  0  0  0
   36.6570   31.5180   49.9770 N   0  0  0  0  0  0  0  0  0  0  0  0
   38.2400   32.9100   50.1970 H   0  0  0  0  0  0  0  0  0  0  0  0
   38.9670   32.6700   47.7960 H   0  0  0  0  0  0  0  0  0  0  0  0
   36.7610   30.3710   45.1600 C   0  0  2  0  0  3  0  0  0  0  0  0
   37.8280   31.0800   45.9570 C   0  0  1  0  0  3  0  0  0  0  0  0
   38.1480   32.3790   45.2500 C   0  0  0  0  0  3  0  0  0  0  0  0
   37.5160   33.2010   45.5840 H   0  0  0  0  0  0  0  0  0  0  0  0
   38.0860   32.1740   43.8780 O   0  0  0  0  0  0  0  0  0  0  0  0
   38.4850   30.8950   43.5160 C   0  0  0  0  0  3  0  0  0  0  0  0
   38.6140   30.8600   42.4270 H   0  0  0  0  0  0  0  0  0  0  0  0
   37.4250   29.8630   43.8780 C   0  0  2  0  0  3  0  0  0  0  0  0
   35.7240   31.1930   44.7980 O   0  0  0  0  0  0  0  0  0  0  0  0
   35.8620   32.0920   45.1370 H   0  0  0  0  0  0  0  0  0  0  0  0
   36.4530   29.8580   42.8810 O   0  0  0  0  0  0  0  0  0  0  0  0
   35.5650   29.7390   43.3090 H   0  0  0  0  0  0  0  0  0  0  0  0
  1 25  1  0  0  0  0
  1  3  1  0  0  0  0
  2  1  1  0  0  0  0
  4  8  1  0  0  0  0
  4  1  1  0  0  0  0
  5  4  2  0  0  0  0
  6  5  1  0  0  0  0
  6  7  1  0  0  0  0
  7  8  2  0  0  0  0
  7  9  1  0  0  0  0
  9 14  1  0  0  0  0
 10 11  1  0  0  0  0
 10  9  1  0  0  0  0
 11 18  1  0  0  0  0
 11 12  1  0  0  0  0
 12 20  1  0  0  0  0
 12 13  1  0  0  0  0
 13 22  1  0  0  0  0
 13 21  1  0  0  0  0
 14 24  1  0  0  0  0
 14 13  1  0  0  0  0
 14 23  1  0  0  0  0
 15  5  1  0  0  0  0
 16 10  1  0  0  0  0
 17 10  1  0  0  0  0
 19 11  1  0  0  0  0
 25 27  1  0  0  0  0
 26 25  1  0  0  0  0
 28 33  1  0  0  0  0
 28 34  1  0  0  0  0
 29 28  2  0  0  0  0
 30 31  2  0  0  0  0
 30 29  1  0  0  0  0
 31 32  1  0  0  0  0
 32 25  1  0  0  0  0
 32 33  2  0  0  0  0
 35 29  1  0  0  0  0
 36 44  1  6  0  0  0
 36 37  1  0  0  0  0
 37 30  1  1  0  0  0
 38 39  1  0  0  0  0
 38 37  1  0  0  0  0
 40 38  1  0  0  0  0
 41 43  1  0  0  0  0
 41 40  1  0  0  0  0
 42 41  1  0  0  0  0
 43 46  1  6  0  0  0
 43 36  1  0  0  0  0
 44 45  1  0  0  0  0
 46 47  1  0  0  0  0
M  END
>  <minimizedAffinity>
-6.6298852

>  <minimizedRMSD>
1.47498894

$$$$
