
 OpenBabel03272510263D

 48 52  0  0  1  0  0  0  0  0999 V2000
   39.3610   31.6420   41.8570 N   0  0  0  0  0  0  0  0  0  0  0  0
   39.2400   33.0700   41.8550 C   0  0  1  0  0  0  0  0  0  0  0  0
   37.9530   33.4900   41.3200 C   0  0  0  0  0  0  0  0  0  0  0  0
   37.8670   33.0720   39.9820 O   0  0  0  0  0  0  0  0  0  0  0  0
   38.0850   31.7370   39.7740 C   0  0  0  0  0  0  0  0  0  0  0  0
   39.2740   31.1900   40.4880 C   0  0  1  0  0  0  0  0  0  0  0  0
   38.7970   31.0800   42.4500 H   0  0  0  0  0  0  0  0  0  0  0  0
   40.0550   33.4940   41.2480 H   0  0  0  0  0  0  0  0  0  0  0  0
   37.9930   34.6180   41.2280 H   0  0  0  0  0  0  0  0  0  0  0  0
   37.0070   33.2580   41.7270 H   0  0  0  0  0  0  0  0  0  0  0  0
   38.0990   31.5560   38.7080 H   0  0  0  0  0  0  0  0  0  0  0  0
   37.1810   31.2070   40.1980 H   0  0  0  0  0  0  0  0  0  0  0  0
   39.0970   30.0740   40.5510 H   0  0  0  0  0  0  0  0  0  0  0  0
   41.4360   30.1120   40.0820 C   0  0  2  0  0  3  0  0  0  0  0  0
   40.5820   31.3180   39.7680 C   0  0  1  0  0  3  0  0  0  0  0  0
   40.4180   31.4070   38.2940 C   0  0  0  0  0  3  0  0  0  0  0  0
   41.4620   31.5000   37.8680 H   0  0  0  0  0  0  0  0  0  0  0  0
   39.9110   30.2460   37.7170 O   0  0  0  0  0  0  0  0  0  0  0  0
   40.9670   29.3100   37.8150 C   0  0  0  0  0  3  0  0  0  0  0  0
   41.9070   29.8560   37.5780 H   0  0  0  0  0  0  0  0  0  0  0  0
   41.0330   28.9040   39.2610 C   0  0  1  0  0  3  0  0  0  0  0  0
   41.3970   29.7470   41.4050 O   0  0  0  0  0  0  0  0  0  0  0  0
   41.6350   28.8180   41.5510 H   0  0  0  0  0  0  0  0  0  0  0  0
   42.0060   27.9310   39.4860 O   0  0  0  0  0  0  0  0  0  0  0  0
   42.8570   28.3080   39.8330 H   0  0  0  0  0  0  0  0  0  0  0  0
   39.3860   33.4960   43.2050 O   0  0  0  0  0  0  0  0  0  0  0  0
   36.1630   30.2110   46.8980 C   0  0  0  0  0  0  0  0  0  0  0  0
   37.0510   30.7370   47.8260 C   0  0  0  0  0  0  0  0  0  0  0  0
   38.0650   31.6200   47.4320 C   0  0  0  0  0  0  0  0  0  0  0  0
   38.1270   31.9310   46.0780 C   0  0  0  0  0  0  0  0  0  0  0  0
   39.0180   32.7630   45.4560 N   0  0  0  0  0  0  0  0  0  0  0  0
   38.6860   32.7520   44.1550 C   0  0  0  0  0  0  0  0  0  0  0  0
   37.6480   31.9620   43.9560 N   0  0  0  0  0  0  0  0  0  0  0  0
   37.2600   31.4240   45.1260 C   0  0  0  0  0  0  0  0  0  0  0  0
   36.2590   30.5450   45.5510 C   0  0  0  0  0  0  0  0  0  0  0  0
   35.3700   29.5300   47.1550 H   0  0  0  0  0  0  0  0  0  0  0  0
   38.7660   32.0420   48.1390 H   0  0  0  0  0  0  0  0  0  0  0  0
   39.8030   33.2960   45.9350 H   0  0  0  0  0  0  0  0  0  0  0  0
   35.5820   30.1490   44.8120 H   0  0  0  0  0  0  0  0  0  0  0  0
   37.5130   30.1670   51.5080 C   0  0  0  0  0  0  0  0  0  0  0  0
   37.8130   30.6020   50.2240 C   0  0  0  0  0  0  0  0  0  0  0  0
   36.9100   30.3600   49.2170 C   0  0  0  0  0  0  0  0  0  0  0  0
   35.7510   29.6920   49.5560 N   0  0  0  0  0  0  0  0  0  0  0  0
   35.4700   29.2740   50.8050 C   0  0  0  0  0  0  0  0  0  0  0  0
   36.3430   29.5110   51.7630 N   0  0  0  0  0  0  0  0  0  0  0  0
   38.2620   30.3840   52.2660 H   0  0  0  0  0  0  0  0  0  0  0  0
   38.7180   31.1270   49.9490 H   0  0  0  0  0  0  0  0  0  0  0  0
   34.5360   28.7590   50.9720 H   0  0  0  0  0  0  0  0  0  0  0  0
  1  7  1  0  0  0  0
  2  8  1  6  0  0  0
  2  1  1  0  0  0  0
  2 26  1  0  0  0  0
  3 10  1  0  0  0  0
  3  2  1  0  0  0  0
  4  3  1  0  0  0  0
  5  4  1  0  0  0  0
  5 12  1  0  0  0  0
  5  6  1  0  0  0  0
  6 13  1  1  0  0  0
  6  1  1  0  0  0  0
  9  3  1  0  0  0  0
 11  5  1  0  0  0  0
 14 22  1  1  0  0  0
 15 16  1  6  0  0  0
 15 14  1  0  0  0  0
 15  6  1  0  0  0  0
 17 16  1  0  0  0  0
 18 19  1  0  0  0  0
 18 16  1  0  0  0  0
 19 21  1  0  0  0  0
 20 19  1  0  0  0  0
 21 24  1  6  0  0  0
 21 14  1  0  0  0  0
 22 23  1  0  0  0  0
 24 25  1  0  0  0  0
 26 32  1  0  0  0  0
 27 36  1  0  0  0  0
 27 28  1  0  0  0  0
 28 42  1  0  0  0  0
 29 28  2  0  0  0  0
 29 37  1  0  0  0  0
 30 29  1  0  0  0  0
 31 38  1  0  0  0  0
 31 30  1  0  0  0  0
 32 31  1  0  0  0  0
 33 32  2  0  0  0  0
 33 34  1  0  0  0  0
 34 35  1  0  0  0  0
 34 30  2  0  0  0  0
 35 27  2  0  0  0  0
 39 35  1  0  0  0  0
 40 45  1  0  0  0  0
 40 46  1  0  0  0  0
 41 40  2  0  0  0  0
 42 43  2  0  0  0  0
 42 41  1  0  0  0  0
 43 44  1  0  0  0  0
 44 48  1  0  0  0  0
 44 45  2  0  0  0  0
 47 41  1  0  0  0  0
M  END
>  <minimizedAffinity>
-6.03756857

>  <minimizedRMSD>
1.04388595

$$$$
