
 OpenBabel03272510263D

 48 52  0  0  1  0  0  0  0  0999 V2000
   39.4600   30.2180   42.0060 N   0  0  0  0  0  0  0  0  0  0  0  0
   39.9790   31.5440   41.8470 C   0  0  1  0  0  0  0  0  0  0  0  0
   39.0460   32.3930   41.1190 C   0  0  0  0  0  0  0  0  0  0  0  0
   38.8750   31.8660   39.8290 O   0  0  0  0  0  0  0  0  0  0  0  0
   38.4980   30.5510   39.7820 C   0  0  0  0  0  0  0  0  0  0  0  0
   39.2750   29.6570   40.6870 C   0  0  1  0  0  0  0  0  0  0  0  0
   38.6680   30.0420   42.5780 H   0  0  0  0  0  0  0  0  0  0  0  0
   40.9360   31.4880   41.3050 H   0  0  0  0  0  0  0  0  0  0  0  0
   39.5840   33.3700   40.9220 H   0  0  0  0  0  0  0  0  0  0  0  0
   38.0700   32.6480   41.4290 H   0  0  0  0  0  0  0  0  0  0  0  0
   38.5030   30.2320   38.7490 H   0  0  0  0  0  0  0  0  0  0  0  0
   37.4270   30.5250   40.1430 H   0  0  0  0  0  0  0  0  0  0  0  0
   38.6210   28.7450   40.8380 H   0  0  0  0  0  0  0  0  0  0  0  0
   40.7620   27.7100   40.6560 C   0  0  2  0  0  0  0  0  0  0  0  0
   40.5510   29.1090   40.1240 C   0  0  1  0  0  0  0  0  0  0  0  0
   40.5450   29.0530   38.6400 C   0  0  0  0  0  0  0  0  0  0  0  0
   41.5490   28.6280   38.3380 H   0  0  0  0  0  0  0  0  0  0  0  0
   39.6190   28.1530   38.1200 O   0  0  0  0  0  0  0  0  0  0  0  0
   40.1440   26.8790   38.4350 C   0  0  0  0  0  0  0  0  0  0  0  0
   41.2430   26.9290   38.2640 H   0  0  0  0  0  0  0  0  0  0  0  0
   39.9250   26.6910   39.9110 C   0  0  1  0  0  0  0  0  0  0  0  0
   40.4760   27.5870   41.9920 O   0  0  0  0  0  0  0  0  0  0  0  0
   40.2690   26.6770   42.2550 H   0  0  0  0  0  0  0  0  0  0  0  0
   40.3520   25.4360   40.3460 O   0  0  0  0  0  0  0  0  0  0  0  0
   41.2550   25.4570   40.7580 H   0  0  0  0  0  0  0  0  0  0  0  0
   40.2060   32.0540   43.1560 O   0  0  0  0  0  0  0  0  0  0  0  0
   36.0530   30.3150   46.9690 C   0  0  0  0  0  0  0  0  0  0  0  0
   37.1080   30.4270   47.8640 C   0  0  0  0  0  0  0  0  0  0  0  0
   38.3790   30.8290   47.4330 C   0  0  0  0  0  0  0  0  0  0  0  0
   38.5170   31.1020   46.0760 C   0  0  0  0  0  0  0  0  0  0  0  0
   39.6470   31.5090   45.4210 N   0  0  0  0  0  0  0  0  0  0  0  0
   39.2960   31.6470   44.1320 C   0  0  0  0  0  0  0  0  0  0  0  0
   38.0210   31.3470   43.9720 N   0  0  0  0  0  0  0  0  0  0  0  0
   37.4880   31.0000   45.1570 C   0  0  0  0  0  0  0  0  0  0  0  0
   36.2310   30.5970   45.6190 C   0  0  0  0  0  0  0  0  0  0  0  0
   35.0610   30.0110   47.2560 H   0  0  0  0  0  0  0  0  0  0  0  0
   39.2140   30.9230   48.1140 H   0  0  0  0  0  0  0  0  0  0  0  0
   40.5960   31.6730   45.8710 H   0  0  0  0  0  0  0  0  0  0  0  0
   35.4280   30.5170   44.9060 H   0  0  0  0  0  0  0  0  0  0  0  0
   37.3360   30.0190   51.5900 C   0  0  0  0  0  0  0  0  0  0  0  0
   37.7270   30.3780   50.3060 C   0  0  0  0  0  0  0  0  0  0  0  0
   36.8720   30.1240   49.2610 C   0  0  0  0  0  0  0  0  0  0  0  0
   35.6680   29.5220   49.5620 N   0  0  0  0  0  0  0  0  0  0  0  0
   35.2990   29.1770   50.8110 C   0  0  0  0  0  0  0  0  0  0  0  0
   36.1260   29.4250   51.8060 N   0  0  0  0  0  0  0  0  0  0  0  0
   38.0500   30.2410   52.3790 H   0  0  0  0  0  0  0  0  0  0  0  0
   38.6680   30.8510   50.0610 H   0  0  0  0  0  0  0  0  0  0  0  0
   34.3360   28.7090   50.9470 H   0  0  0  0  0  0  0  0  0  0  0  0
  1  7  1  0  0  0  0
  2  8  1  6  0  0  0
  2  1  1  0  0  0  0
  2 26  1  0  0  0  0
  3 10  1  0  0  0  0
  3  2  1  0  0  0  0
  4  3  1  0  0  0  0
  5  4  1  0  0  0  0
  5 12  1  0  0  0  0
  5  6  1  0  0  0  0
  6 13  1  1  0  0  0
  6  1  1  0  0  0  0
  9  3  1  0  0  0  0
 11  5  1  0  0  0  0
 14 22  1  1  0  0  0
 15 16  1  6  0  0  0
 15 14  1  0  0  0  0
 15  6  1  0  0  0  0
 17 16  1  0  0  0  0
 18 19  1  0  0  0  0
 18 16  1  0  0  0  0
 19 21  1  0  0  0  0
 20 19  1  0  0  0  0
 21 24  1  1  0  0  0
 21 14  1  0  0  0  0
 22 23  1  0  0  0  0
 24 25  1  0  0  0  0
 26 32  1  0  0  0  0
 27 36  1  0  0  0  0
 27 28  1  0  0  0  0
 28 42  1  0  0  0  0
 29 28  2  0  0  0  0
 29 37  1  0  0  0  0
 30 29  1  0  0  0  0
 31 38  1  0  0  0  0
 31 30  1  0  0  0  0
 32 31  1  0  0  0  0
 33 32  2  0  0  0  0
 33 34  1  0  0  0  0
 34 35  1  0  0  0  0
 34 30  2  0  0  0  0
 35 27  2  0  0  0  0
 39 35  1  0  0  0  0
 40 45  1  0  0  0  0
 40 46  1  0  0  0  0
 41 40  2  0  0  0  0
 42 43  2  0  0  0  0
 42 41  1  0  0  0  0
 43 44  1  0  0  0  0
 44 48  1  0  0  0  0
 44 45  2  0  0  0  0
 47 41  1  0  0  0  0
M  END
>  <minimizedAffinity>
-6.07576799

>  <minimizedRMSD>
3.55986953

$$$$
