
 OpenBabel03272506083D

 47 50  0  0  1  0  0  0  0  0999 V2000
   34.4810   28.3280   48.9160 C   0  0  0  0  0  0  0  0  0  0  0  0
   35.3150   28.2070   48.1950 H   0  0  0  0  0  0  0  0  0  0  0  0
   34.5680   27.4430   49.5940 H   0  0  0  0  0  0  0  0  0  0  0  0
   33.1590   28.2850   48.1880 C   0  0  0  0  0  0  0  0  0  0  0  0
   33.0880   28.7240   46.8180 C   0  0  0  0  0  0  0  0  0  0  0  0
   31.3740   28.4710   46.4670 S   0  0  0  0  0  0  0  0  0  0  0  0
   30.9680   27.8130   48.1920 C   0  0  0  0  0  0  0  0  0  0  0  0
   32.0420   27.8760   48.6990 N   0  0  0  0  0  0  0  0  0  0  0  0
   29.7180   27.3560   48.7630 N   0  0  0  0  0  0  0  0  0  0  0  0
   28.7850   26.7590   47.8600 C   0  0  0  0  0  0  0  0  0  0  0  0
   27.3900   26.6770   48.3800 C   0  0  0  0  0  0  0  0  0  0  0  0
   27.2000   27.3840   49.6510 N   0  0  0  0  0  0  0  0  0  0  0  0
   28.2100   26.8510   50.5480 C   0  0  0  0  0  0  0  0  0  0  0  0
   29.5000   27.5280   50.1760 C   0  0  0  0  0  0  0  0  0  0  0  0
   33.8770   29.0880   46.2270 H   0  0  0  0  0  0  0  0  0  0  0  0
   29.1360   25.7390   47.5300 H   0  0  0  0  0  0  0  0  0  0  0  0
   28.7620   27.3680   46.9320 H   0  0  0  0  0  0  0  0  0  0  0  0
   27.1140   25.6040   48.5970 H   0  0  0  0  0  0  0  0  0  0  0  0
   26.6110   27.0360   47.6760 H   0  0  0  0  0  0  0  0  0  0  0  0
   26.2760   27.0220   50.0180 H   0  0  0  0  0  0  0  0  0  0  0  0
   27.9860   27.1380   51.6040 H   0  0  0  0  0  0  0  0  0  0  0  0
   28.3370   25.7510   50.4500 H   0  0  0  0  0  0  0  0  0  0  0  0
   30.3170   27.0240   50.7340 H   0  0  0  0  0  0  0  0  0  0  0  0
   29.4170   28.5940   50.4710 H   0  0  0  0  0  0  0  0  0  0  0  0
   34.6070   29.5530   49.7320 C   0  0  0  0  0  0  0  0  0  0  0  0
   33.7890   30.2700   49.4410 H   0  0  0  0  0  0  0  0  0  0  0  0
   34.5400   29.3520   50.8160 H   0  0  0  0  0  0  0  0  0  0  0  0
   37.6220   31.7000   49.9550 C   0  0  0  0  0  0  0  0  0  0  0  0
   38.2200   31.5360   48.7160 C   0  0  0  0  0  0  0  0  0  0  0  0
   37.5780   30.6850   47.8150 C   0  0  0  0  0  0  0  0  0  0  0  0
   36.4300   30.0670   48.1600 N   0  0  0  0  0  0  0  0  0  0  0  0
   35.8930   30.2740   49.4010 C   0  0  0  0  0  0  0  0  0  0  0  0
   36.4890   31.0820   50.2810 N   0  0  0  0  0  0  0  0  0  0  0  0
   38.1310   32.3680   50.6570 H   0  0  0  0  0  0  0  0  0  0  0  0
   39.1260   31.9920   48.3720 H   0  0  0  0  0  0  0  0  0  0  0  0
   37.1860   30.9010   45.3580 C   0  0  2  0  0  3  0  0  0  0  0  0
   38.1060   30.4170   46.4510 C   0  0  1  0  0  3  0  0  0  0  0  0
   39.4690   31.0300   46.2140 C   0  0  0  0  0  3  0  0  0  0  0  0
   39.5820   31.9950   46.7040 H   0  0  0  0  0  0  0  0  0  0  0  0
   39.7060   31.0890   44.8460 O   0  0  0  0  0  0  0  0  0  0  0  0
   39.1260   30.0290   44.1640 C   0  0  0  0  0  3  0  0  0  0  0  0
   39.5160   30.0150   43.1380 H   0  0  0  0  0  0  0  0  0  0  0  0
   37.6140   30.1960   44.0680 C   0  0  2  0  0  3  0  0  0  0  0  0
   37.2690   32.2530   45.1440 O   0  0  0  0  0  0  0  0  0  0  0  0
   37.9060   32.6610   45.7540 H   0  0  0  0  0  0  0  0  0  0  0  0
   37.3290   31.0540   43.0110 O   0  0  0  0  0  0  0  0  0  0  0  0
   36.5690   31.6370   43.2770 H   0  0  0  0  0  0  0  0  0  0  0  0
  1  3  1  0  0  0  0
  1 25  1  0  0  0  0
  2  1  1  0  0  0  0
  4  8  1  0  0  0  0
  4  1  1  0  0  0  0
  5  4  2  0  0  0  0
  6  5  1  0  0  0  0
  6  7  1  0  0  0  0
  7  8  2  0  0  0  0
  7  9  1  0  0  0  0
  9 14  1  0  0  0  0
 10 11  1  0  0  0  0
 10  9  1  0  0  0  0
 11 18  1  0  0  0  0
 11 12  1  0  0  0  0
 12 20  1  0  0  0  0
 12 13  1  0  0  0  0
 13 21  1  0  0  0  0
 14 24  1  0  0  0  0
 14 13  1  0  0  0  0
 14 23  1  0  0  0  0
 15  5  1  0  0  0  0
 16 10  1  0  0  0  0
 17 10  1  0  0  0  0
 19 11  1  0  0  0  0
 22 13  1  0  0  0  0
 25 27  1  0  0  0  0
 26 25  1  0  0  0  0
 28 33  1  0  0  0  0
 28 34  1  0  0  0  0
 29 28  2  0  0  0  0
 30 31  2  0  0  0  0
 30 29  1  0  0  0  0
 31 32  1  0  0  0  0
 32 25  1  0  0  0  0
 32 33  2  0  0  0  0
 35 29  1  0  0  0  0
 36 44  1  6  0  0  0
 36 37  1  0  0  0  0
 37 30  1  1  0  0  0
 38 37  1  0  0  0  0
 38 39  1  0  0  0  0
 40 38  1  0  0  0  0
 41 40  1  0  0  0  0
 42 41  1  0  0  0  0
 43 46  1  6  0  0  0
 43 41  1  0  0  0  0
 43 36  1  0  0  0  0
 44 45  1  0  0  0  0
 46 47  1  0  0  0  0
M  END
>  <minimizedAffinity>
-6.93941545

>  <minimizedRMSD>
1.64054382

$$$$
