
 OpenBabel03272500073D

 42 45  0  0  1  0  0  0  0  0999 V2000
   30.8600   27.0820   48.3390 C   0  0  0  0  0  0  0  0  0  0  0  0
   30.7550   27.7220   49.5570 C   0  0  0  0  0  0  0  0  0  0  0  0
   29.5320   28.1480   50.0320 C   0  0  0  0  0  0  0  0  0  0  0  0
   28.3940   27.9300   49.2690 C   0  0  0  0  0  0  0  0  0  0  0  0
   28.5150   27.2920   48.0590 C   0  0  0  0  0  0  0  0  0  0  0  0
   29.7250   26.8720   47.5960 C   0  0  0  0  0  0  0  0  0  0  0  0
   31.6200   27.9200   50.2000 H   0  0  0  0  0  0  0  0  0  0  0  0
   29.4750   28.6510   50.9950 H   0  0  0  0  0  0  0  0  0  0  0  0
   27.4590   28.2760   49.6680 H   0  0  0  0  0  0  0  0  0  0  0  0
   27.5940   27.1510   47.5110 H   0  0  0  0  0  0  0  0  0  0  0  0
   28.5130   25.5170   45.9060 C   0  0  2  0  0  3  0  0  0  0  0  0
   29.8140   26.1780   46.3170 C   0  0  1  0  0  3  0  0  0  0  0  0
   30.2780   27.0070   45.1490 C   0  0  0  0  0  3  0  0  0  0  0  0
   31.3960   27.0590   45.1710 H   0  0  0  0  0  0  0  0  0  0  0  0
   29.9810   26.3110   43.9750 O   0  0  0  0  0  0  0  0  0  0  0  0
   30.0610   24.9490   44.0930 C   0  0  0  0  0  3  0  0  0  0  0  0
   30.0360   24.5500   43.0440 H   0  0  0  0  0  0  0  0  0  0  0  0
   28.8710   24.4380   44.9040 C   0  0  2  0  0  3  0  0  0  0  0  0
   27.7340   26.4910   45.2820 O   0  0  0  0  0  0  0  0  0  0  0  0
   26.7760   26.3250   45.4890 H   0  0  0  0  0  0  0  0  0  0  0  0
   27.8040   24.0800   44.1180 O   0  0  0  0  0  0  0  0  0  0  0  0
   27.6570   23.1060   44.2110 H   0  0  0  0  0  0  0  0  0  0  0  0
   32.1590   26.7140   47.9970 O   0  0  0  0  0  0  0  0  0  0  0  0
   35.1000   28.5060   49.0360 C   0  0  0  0  0  0  0  0  0  0  0  0
   35.0310   29.6980   48.3140 C   0  0  0  0  0  0  0  0  0  0  0  0
   33.9320   29.8660   47.4520 C   0  0  0  0  0  0  0  0  0  0  0  0
   33.0160   28.8650   47.3800 N   0  0  0  0  0  0  0  0  0  0  0  0
   33.1090   27.7360   48.0830 C   0  0  0  0  0  0  0  0  0  0  0  0
   34.1650   27.5470   48.9280 N   0  0  0  0  0  0  0  0  0  0  0  0
   35.9210   28.2860   49.7350 H   0  0  0  0  0  0  0  0  0  0  0  0
   33.8740   30.7780   46.8960 H   0  0  0  0  0  0  0  0  0  0  0  0
   36.0540   30.6570   48.4840 N   0  0  0  0  0  0  0  0  0  0  0  0
   36.2630   31.2760   49.6420 C   0  0  0  0  0  0  0  0  0  0  0  0
   37.2850   32.2150   49.7470 C   0  0  0  0  0  0  0  0  0  0  0  0
   38.0100   32.4230   48.6000 C   0  0  0  0  0  0  0  0  0  0  0  0
   38.9360   33.2740   48.6900 O   0  0  0  0  0  0  0  0  0  0  0  0
   37.8290   31.8240   47.4320 N   0  0  0  0  0  0  0  0  0  0  0  0
   36.8200   30.9130   47.3730 C   0  0  0  0  0  0  0  0  0  0  0  0
   36.6350   30.3300   46.2560 O   0  0  0  0  0  0  0  0  0  0  0  0
   35.6630   31.0740   50.5140 H   0  0  0  0  0  0  0  0  0  0  0  0
   37.4610   32.7220   50.6870 H   0  0  0  0  0  0  0  0  0  0  0  0
   38.4120   32.0240   46.5990 H   0  0  0  0  0  0  0  0  0  0  0  0
  1  2  1  0  0  0  0
  2  3  2  0  0  0  0
  2  7  1  0  0  0  0
  3  8  1  0  0  0  0
  4  9  1  0  0  0  0
  4  3  1  0  0  0  0
  5  4  2  0  0  0  0
  6  5  1  0  0  0  0
  6  1  2  0  0  0  0
 10  5  1  0  0  0  0
 11 19  1  6  0  0  0
 11 12  1  0  0  0  0
 12  6  1  1  0  0  0
 13 14  1  0  0  0  0
 13 12  1  0  0  0  0
 15 16  1  0  0  0  0
 15 13  1  0  0  0  0
 16 18  1  0  0  0  0
 17 16  1  0  0  0  0
 18 21  1  6  0  0  0
 18 11  1  0  0  0  0
 19 20  1  0  0  0  0
 21 22  1  0  0  0  0
 23 28  1  0  0  0  0
 23  1  1  0  0  0  0
 24 30  1  0  0  0  0
 25 32  1  0  0  0  0
 25 24  2  0  0  0  0
 26 25  1  0  0  0  0
 27 26  2  0  0  0  0
 27 28  1  0  0  0  0
 28 29  2  0  0  0  0
 29 24  1  0  0  0  0
 31 26  1  0  0  0  0
 32 33  1  0  0  0  0
 33 34  2  0  0  0  0
 33 40  1  0  0  0  0
 34 41  1  0  0  0  0
 35 36  2  0  0  0  0
 35 34  1  0  0  0  0
 37 35  1  0  0  0  0
 38 37  1  0  0  0  0
 38 32  1  0  0  0  0
 39 38  2  0  0  0  0
 42 37  1  0  0  0  0
M  END
>  <minimizedAffinity>
-6.08954382

>  <minimizedRMSD>
1.8712002

$$$$
