
 OpenBabel03272502303D

 27 28  0  0  1  0  0  0  0  0999 V2000
   37.2260   27.6660   34.6740 C   0  0  0  0  0  0  0  0  0  0  0  0
   37.5530   28.6740   35.0340 H   0  0  0  0  0  0  0  0  0  0  0  0
   36.1490   27.4910   34.8250 H   0  0  0  0  0  0  0  0  0  0  0  0
   37.6180   25.4610   35.6970 C   0  0  0  0  0  3  0  0  0  0  0  0
   38.0260   26.7050   35.4800 C   0  0  0  0  0  3  0  0  0  0  0  0
   38.7910   23.3480   38.5140 C   0  0  0  0  0  0  0  0  0  0  0  0
   38.0200   24.2550   37.7670 C   0  0  0  0  0  0  0  0  0  0  0  0
   38.3920   24.5390   36.4710 C   0  0  0  0  0  0  0  0  0  0  0  0
   39.4910   23.9370   35.9440 N   0  0  0  0  0  0  0  0  0  0  0  0
   40.2130   23.0720   36.6800 C   0  0  0  0  0  0  0  0  0  0  0  0
   39.8770   22.7710   37.9550 N   0  0  0  0  0  0  0  0  0  0  0  0
   38.5520   23.0880   39.5300 H   0  0  0  0  0  0  0  0  0  0  0  0
   37.1600   24.6960   38.2480 H   0  0  0  0  0  0  0  0  0  0  0  0
   41.0760   22.6360   36.1820 H   0  0  0  0  0  0  0  0  0  0  0  0
   37.7020   27.5410   32.9240 S   0  0  0  0  0  0  0  0  0  0  0  0
   35.7120   26.5440   31.2880 C   0  0  2  0  0  3  0  0  0  0  0  0
   36.8520   26.1290   32.1990 C   0  0  1  0  0  3  0  0  0  0  0  0
   37.7970   25.3210   31.3240 C   0  0  0  0  0  3  0  0  0  0  0  0
   38.2340   26.0730   30.6020 H   0  0  0  0  0  0  0  0  0  0  0  0
   37.1330   24.3880   30.5610 O   0  0  0  0  0  0  0  0  0  0  0  0
   35.8730   24.0750   31.0250 C   0  0  0  0  0  3  0  0  0  0  0  0
   35.4400   23.3510   30.2770 H   0  0  0  0  0  0  0  0  0  0  0  0
   34.9200   25.2570   31.0410 C   0  0  2  0  0  3  0  0  0  0  0  0
   36.2440   26.9200   30.0460 O   0  0  0  0  0  0  0  0  0  0  0  0
   35.8420   27.7780   29.7490 H   0  0  0  0  0  0  0  0  0  0  0  0
   34.1960   25.3710   29.8560 O   0  0  0  0  0  0  0  0  0  0  0  0
   34.6420   24.8920   29.1120 H   0  0  0  0  0  0  0  0  0  0  0  0
  1  3  1  0  0  0  0
  1  2  1  0  0  0  0
  1  5  1  0  0  0  0
  4  8  1  0  0  0  0
  5  4  2  0  0  0  0
  6 12  1  0  0  0  0
  7 13  1  0  0  0  0
  7  6  2  0  0  0  0
  8  7  1  0  0  0  0
  9  8  2  0  0  0  0
  9 10  1  0  0  0  0
 10 11  2  0  0  0  0
 11  6  1  0  0  0  0
 14 10  1  0  0  0  0
 15  1  1  0  0  0  0
 16 24  1  6  0  0  0
 16 17  1  0  0  0  0
 17 15  1  6  0  0  0
 18 17  1  0  0  0  0
 19 18  1  0  0  0  0
 20 21  1  0  0  0  0
 20 18  1  0  0  0  0
 21 23  1  0  0  0  0
 22 21  1  0  0  0  0
 23 26  1  6  0  0  0
 23 16  1  0  0  0  0
 25 24  1  0  0  0  0
 27 26  1  0  0  0  0
M  END
>  <minimizedAffinity>
-5.31861639

$$$$

 OpenBabel03272502303D

 27 28  0  0  1  0  0  0  0  0999 V2000
   37.3460   27.8090   34.8340 C   0  0  0  0  0  0  0  0  0  0  0  0
   38.1170   28.5840   34.5960 H   0  0  0  0  0  0  0  0  0  0  0  0
   36.4800   28.2240   35.3750 H   0  0  0  0  0  0  0  0  0  0  0  0
   37.7710   25.5260   35.6500 C   0  0  0  0  0  3  0  0  0  0  0  0
   38.0620   26.8200   35.6830 C   0  0  0  0  0  3  0  0  0  0  0  0
   38.7220   23.4040   38.5430 C   0  0  0  0  0  0  0  0  0  0  0  0
   38.0310   24.3380   37.7530 C   0  0  0  0  0  0  0  0  0  0  0  0
   38.4640   24.5760   36.4670 C   0  0  0  0  0  0  0  0  0  0  0  0
   39.5470   23.9060   35.9910 N   0  0  0  0  0  0  0  0  0  0  0  0
   40.1930   23.0160   36.7680 C   0  0  0  0  0  0  0  0  0  0  0  0
   39.7950   22.7580   38.0350 N   0  0  0  0  0  0  0  0  0  0  0  0
   38.4330   23.1750   39.5540 H   0  0  0  0  0  0  0  0  0  0  0  0
   37.1800   24.8340   38.1950 H   0  0  0  0  0  0  0  0  0  0  0  0
   41.0470   22.5240   36.3100 H   0  0  0  0  0  0  0  0  0  0  0  0
   36.8630   27.0310   33.2640 S   0  0  0  0  0  0  0  0  0  0  0  0
   37.3060   27.6010   30.5970 C   0  0  2  0  0  3  0  0  0  0  0  0
   37.0400   28.2440   31.9450 C   0  0  1  0  0  3  0  0  0  0  0  0
   35.7570   29.0410   31.7690 C   0  0  0  0  0  3  0  0  0  0  0  0
   34.9510   28.2600   31.6320 H   0  0  0  0  0  0  0  0  0  0  0  0
   35.7660   29.7980   30.6190 O   0  0  0  0  0  0  0  0  0  0  0  0
   37.0250   30.0230   30.1050 C   0  0  0  0  0  3  0  0  0  0  0  0
   36.8680   30.6000   29.1490 H   0  0  0  0  0  0  0  0  0  0  0  0
   37.7520   28.7540   29.6950 C   0  0  2  0  0  3  0  0  0  0  0  0
   36.0910   27.1400   30.0730 O   0  0  0  0  0  0  0  0  0  0  0  0
   36.1960   26.2130   29.7310 H   0  0  0  0  0  0  0  0  0  0  0  0
   37.5250   28.4210   28.3600 O   0  0  0  0  0  0  0  0  0  0  0  0
   36.7040   28.8530   28.0140 H   0  0  0  0  0  0  0  0  0  0  0  0
  1  3  1  0  0  0  0
  1  5  1  0  0  0  0
  2  1  1  0  0  0  0
  4  5  2  0  0  0  0
  4  8  1  0  0  0  0
  6 12  1  0  0  0  0
  7 13  1  0  0  0  0
  7  6  2  0  0  0  0
  8  7  1  0  0  0  0
  9  8  2  0  0  0  0
  9 10  1  0  0  0  0
 10 11  2  0  0  0  0
 11  6  1  0  0  0  0
 14 10  1  0  0  0  0
 15  1  1  0  0  0  0
 16 24  1  6  0  0  0
 16 17  1  0  0  0  0
 17 15  1  1  0  0  0
 18 17  1  0  0  0  0
 19 18  1  0  0  0  0
 20 18  1  0  0  0  0
 21 20  1  0  0  0  0
 22 21  1  0  0  0  0
 23 26  1  6  0  0  0
 23 21  1  0  0  0  0
 23 16  1  0  0  0  0
 25 24  1  0  0  0  0
 27 26  1  0  0  0  0
M  END
>  <minimizedAffinity>
-5.16756535

$$$$

 OpenBabel03272502303D

 27 28  0  0  1  0  0  0  0  0999 V2000
   37.4220   26.2990   35.2130 C   0  0  0  0  0  0  0  0  0  0  0  0
   36.4020   26.0230   35.5800 H   0  0  0  0  0  0  0  0  0  0  0  0
   38.0320   26.7920   35.9850 H   0  0  0  0  0  0  0  0  0  0  0  0
   37.6690   27.0060   32.8670 C   0  0  0  0  0  3  0  0  0  0  0  0
   37.1720   27.2270   34.0770 C   0  0  0  0  0  3  0  0  0  0  0  0
   36.2770   29.7890   30.8440 C   0  0  0  0  0  0  0  0  0  0  0  0
   36.5070   28.9200   31.9230 C   0  0  0  0  0  0  0  0  0  0  0  0
   37.4240   27.9010   31.7770 C   0  0  0  0  0  0  0  0  0  0  0  0
   38.0840   27.7600   30.5970 N   0  0  0  0  0  0  0  0  0  0  0  0
   37.8460   28.6060   29.5780 C   0  0  0  0  0  0  0  0  0  0  0  0
   36.9520   29.6160   29.6860 N   0  0  0  0  0  0  0  0  0  0  0  0
   35.5740   30.6010   30.8970 H   0  0  0  0  0  0  0  0  0  0  0  0
   35.9480   29.0900   32.8310 H   0  0  0  0  0  0  0  0  0  0  0  0
   38.4160   28.4230   28.6700 H   0  0  0  0  0  0  0  0  0  0  0  0
   38.2000   24.7750   34.5960 S   0  0  0  0  0  0  0  0  0  0  0  0
   38.1040   23.6300   37.1080 C   0  0  2  0  0  3  0  0  0  0  0  0
   39.0430   23.9670   35.9660 C   0  0  1  0  0  3  0  0  0  0  0  0
   39.6400   22.6400   35.5250 C   0  0  0  0  0  3  0  0  0  0  0  0
   38.7770   22.0770   35.0600 H   0  0  0  0  0  0  0  0  0  0  0  0
   40.0730   21.8830   36.5900 O   0  0  0  0  0  0  0  0  0  0  0  0
   40.2780   22.6040   37.7470 C   0  0  0  0  0  3  0  0  0  0  0  0
   40.5710   21.8500   38.5320 H   0  0  0  0  0  0  0  0  0  0  0  0
   39.0220   23.2720   38.2780 C   0  0  2  0  0  3  0  0  0  0  0  0
   37.4080   22.4560   36.7830 O   0  0  0  0  0  0  0  0  0  0  0  0
   36.4390   22.5710   36.9700 H   0  0  0  0  0  0  0  0  0  0  0  0
   38.3360   22.4650   39.1850 O   0  0  0  0  0  0  0  0  0  0  0  0
   38.5830   21.5120   39.0800 H   0  0  0  0  0  0  0  0  0  0  0  0
  1  2  1  0  0  0  0
  1  3  1  0  0  0  0
  4  5  2  0  0  0  0
  5  1  1  0  0  0  0
  6 12  1  0  0  0  0
  6  7  1  0  0  0  0
  7 13  1  0  0  0  0
  8  7  2  0  0  0  0
  8  4  1  0  0  0  0
  9  8  1  0  0  0  0
 10 11  1  0  0  0  0
 10  9  2  0  0  0  0
 11  6  2  0  0  0  0
 14 10  1  0  0  0  0
 15  1  1  0  0  0  0
 16 24  1  6  0  0  0
 16 23  1  0  0  0  0
 17 15  1  6  0  0  0
 17 16  1  0  0  0  0
 18 17  1  0  0  0  0
 18 20  1  0  0  0  0
 19 18  1  0  0  0  0
 20 21  1  0  0  0  0
 21 23  1  0  0  0  0
 21 22  1  0  0  0  0
 23 26  1  1  0  0  0
 24 25  1  0  0  0  0
 27 26  1  0  0  0  0
M  END
>  <minimizedAffinity>
-5.02003717

$$$$

 OpenBabel03272502303D

 27 28  0  0  1  0  0  0  0  0999 V2000
   37.5830   26.2900   35.2380 C   0  0  0  0  0  0  0  0  0  0  0  0
   36.6320   25.9690   35.7320 H   0  0  0  0  0  0  0  0  0  0  0  0
   38.2390   26.8640   35.9110 H   0  0  0  0  0  0  0  0  0  0  0  0
   36.3860   28.2130   34.2720 C   0  0  0  0  0  3  0  0  0  0  0  0
   37.1420   27.1370   34.0960 C   0  0  0  0  0  3  0  0  0  0  0  0
   34.6290   30.8070   32.2820 C   0  0  0  0  0  0  0  0  0  0  0  0
   35.0320   30.0190   33.3730 C   0  0  0  0  0  0  0  0  0  0  0  0
   35.9650   29.0250   33.1700 C   0  0  0  0  0  0  0  0  0  0  0  0
   36.4750   28.8310   31.9250 N   0  0  0  0  0  0  0  0  0  0  0  0
   36.0730   29.5990   30.8960 C   0  0  0  0  0  0  0  0  0  0  0  0
   35.1580   30.5820   31.0590 N   0  0  0  0  0  0  0  0  0  0  0  0
   33.9030   31.5960   32.3770 H   0  0  0  0  0  0  0  0  0  0  0  0
   34.5850   30.2280   34.3330 H   0  0  0  0  0  0  0  0  0  0  0  0
   36.5310   29.3770   29.9350 H   0  0  0  0  0  0  0  0  0  0  0  0
   38.3930   24.7900   34.6070 S   0  0  0  0  0  0  0  0  0  0  0  0
   38.2250   23.6380   37.1130 C   0  0  2  0  0  3  0  0  0  0  0  0
   39.1900   23.9470   35.9840 C   0  0  1  0  0  3  0  0  0  0  0  0
   39.7450   22.6010   35.5450 C   0  0  0  0  0  3  0  0  0  0  0  0
   38.8690   22.0710   35.0670 H   0  0  0  0  0  0  0  0  0  0  0  0
   40.1370   21.8250   36.6120 O   0  0  0  0  0  0  0  0  0  0  0  0
   40.3530   22.5340   37.7740 C   0  0  0  0  0  3  0  0  0  0  0  0
   40.6100   21.7670   38.5600 H   0  0  0  0  0  0  0  0  0  0  0  0
   39.1150   23.2440   38.2930 C   0  0  2  0  0  3  0  0  0  0  0  0
   37.4920   22.4920   36.7740 O   0  0  0  0  0  0  0  0  0  0  0  0
   36.5260   22.6400   36.9500 H   0  0  0  0  0  0  0  0  0  0  0  0
   38.3900   22.4590   39.1880 O   0  0  0  0  0  0  0  0  0  0  0  0
   38.6050   21.4980   39.0820 H   0  0  0  0  0  0  0  0  0  0  0  0
  1  2  1  0  0  0  0
  1  3  1  0  0  0  0
  5  4  2  0  0  0  0
  5  1  1  0  0  0  0
  6 12  1  0  0  0  0
  6  7  1  0  0  0  0
  7 13  1  0  0  0  0
  8  7  2  0  0  0  0
  8  4  1  0  0  0  0
  9  8  1  0  0  0  0
 10 11  1  0  0  0  0
 10  9  2  0  0  0  0
 11  6  2  0  0  0  0
 14 10  1  0  0  0  0
 15  1  1  0  0  0  0
 16 24  1  6  0  0  0
 16 23  1  0  0  0  0
 17 15  1  6  0  0  0
 17 16  1  0  0  0  0
 18 17  1  0  0  0  0
 18 20  1  0  0  0  0
 19 18  1  0  0  0  0
 20 21  1  0  0  0  0
 21 23  1  0  0  0  0
 21 22  1  0  0  0  0
 23 26  1  1  0  0  0
 24 25  1  0  0  0  0
 27 26  1  0  0  0  0
M  END
>  <minimizedAffinity>
-5.00781488

$$$$

 OpenBabel03272502303D

 27 28  0  0  1  0  0  0  0  0999 V2000
   37.1990   27.1350   33.0720 C   0  0  0  0  0  0  0  0  0  0  0  0
   37.5580   27.8160   32.2600 H   0  0  0  0  0  0  0  0  0  0  0  0
   36.4790   26.3840   32.7090 H   0  0  0  0  0  0  0  0  0  0  0  0
   35.8600   29.1080   33.6850 C   0  0  0  0  0  3  0  0  0  0  0  0
   36.5520   28.0400   34.0600 C   0  0  0  0  0  3  0  0  0  0  0  0
   35.3810   31.7080   36.2900 C   0  0  0  0  0  0  0  0  0  0  0  0
   36.0070   30.8640   35.3570 C   0  0  0  0  0  0  0  0  0  0  0  0
   35.2370   29.9750   34.6380 C   0  0  0  0  0  0  0  0  0  0  0  0
   33.8940   29.9340   34.8450 N   0  0  0  0  0  0  0  0  0  0  0  0
   33.3180   30.7530   35.7450 C   0  0  0  0  0  0  0  0  0  0  0  0
   34.0430   31.6370   36.4680 N   0  0  0  0  0  0  0  0  0  0  0  0
   35.9280   32.4210   36.8820 H   0  0  0  0  0  0  0  0  0  0  0  0
   37.0770   30.9500   35.2450 H   0  0  0  0  0  0  0  0  0  0  0  0
   32.2400   30.6560   35.8480 H   0  0  0  0  0  0  0  0  0  0  0  0
   38.6690   26.3680   33.8190 S   0  0  0  0  0  0  0  0  0  0  0  0
   38.9950   23.8990   35.0130 C   0  0  2  0  0  3  0  0  0  0  0  0
   38.1280   25.1430   35.0220 C   0  0  1  0  0  3  0  0  0  0  0  0
   38.2250   25.6960   36.4350 C   0  0  0  0  0  3  0  0  0  0  0  0
   39.2910   26.0590   36.5290 H   0  0  0  0  0  0  0  0  0  0  0  0
   38.0600   24.7180   37.3900 O   0  0  0  0  0  0  0  0  0  0  0  0
   37.4390   23.5780   36.9270 C   0  0  0  0  0  3  0  0  0  0  0  0
   37.4260   22.8590   37.7960 H   0  0  0  0  0  0  0  0  0  0  0  0
   38.2100   22.8680   35.8280 C   0  0  2  0  0  3  0  0  0  0  0  0
   40.1660   24.1630   35.7390 O   0  0  0  0  0  0  0  0  0  0  0  0
   40.9600   23.8480   35.2320 H   0  0  0  0  0  0  0  0  0  0  0  0
   39.0810   21.9030   36.3300 O   0  0  0  0  0  0  0  0  0  0  0  0
   39.2900   22.0660   37.2840 H   0  0  0  0  0  0  0  0  0  0  0  0
  1 15  1  0  0  0  0
  1  5  1  0  0  0  0
  2  1  1  0  0  0  0
  3  1  1  0  0  0  0
  4  5  2  0  0  0  0
  4  8  1  0  0  0  0
  6 11  1  0  0  0  0
  6 12  1  0  0  0  0
  7  6  2  0  0  0  0
  8  9  2  0  0  0  0
  8  7  1  0  0  0  0
  9 10  1  0  0  0  0
 10 14  1  0  0  0  0
 10 11  2  0  0  0  0
 13  7  1  0  0  0  0
 16 17  1  0  0  0  0
 16 24  1  1  0  0  0
 16 23  1  0  0  0  0
 17 15  1  6  0  0  0
 17 18  1  0  0  0  0
 18 19  1  0  0  0  0
 18 20  1  0  0  0  0
 21 20  1  0  0  0  0
 21 22  1  0  0  0  0
 23 26  1  1  0  0  0
 23 21  1  0  0  0  0
 25 24  1  0  0  0  0
 26 27  1  0  0  0  0
M  END
>  <minimizedAffinity>
-4.59523249

$$$$

 OpenBabel03272502303D

 27 28  0  0  1  0  0  0  0  0999 V2000
   37.6350   23.0880   31.7970 C   0  0  0  0  0  0  0  0  0  0  0  0
   38.4990   23.4670   31.1960 H   0  0  0  0  0  0  0  0  0  0  0  0
   36.9360   22.4820   31.2010 H   0  0  0  0  0  0  0  0  0  0  0  0
   37.4530   25.5280   32.0720 C   0  0  0  0  0  3  0  0  0  0  0  0
   36.9610   24.3170   32.2970 C   0  0  0  0  0  3  0  0  0  0  0  0
   36.3670   28.2870   34.3050 C   0  0  0  0  0  0  0  0  0  0  0  0
   37.0160   27.1280   33.8470 C   0  0  0  0  0  0  0  0  0  0  0  0
   36.8000   26.7080   32.5530 C   0  0  0  0  0  0  0  0  0  0  0  0
   35.9680   27.4220   31.7480 N   0  0  0  0  0  0  0  0  0  0  0  0
   35.3580   28.5290   32.2100 C   0  0  0  0  0  0  0  0  0  0  0  0
   35.5470   28.9690   33.4750 N   0  0  0  0  0  0  0  0  0  0  0  0
   36.4950   28.6640   35.3050 H   0  0  0  0  0  0  0  0  0  0  0  0
   37.6620   26.6100   34.5400 H   0  0  0  0  0  0  0  0  0  0  0  0
   34.7110   29.0400   31.5020 H   0  0  0  0  0  0  0  0  0  0  0  0
   38.3240   22.1570   33.1990 S   0  0  0  0  0  0  0  0  0  0  0  0
   37.9110   22.2770   35.9270 C   0  0  2  0  0  3  0  0  0  0  0  0
   38.1170   23.1360   34.6950 C   0  0  1  0  0  3  0  0  0  0  0  0
   39.3640   23.9600   34.9780 C   0  0  0  0  0  3  0  0  0  0  0  0
   40.2090   23.2100   34.9790 H   0  0  0  0  0  0  0  0  0  0  0  0
   39.3420   24.5250   36.2330 O   0  0  0  0  0  0  0  0  0  0  0  0
   38.0850   24.6020   36.7940 C   0  0  0  0  0  3  0  0  0  0  0  0
   38.2340   25.0290   37.8270 H   0  0  0  0  0  0  0  0  0  0  0  0
   37.4300   23.2490   37.0070 C   0  0  2  0  0  3  0  0  0  0  0  0
   39.1580   21.8010   36.3560 O   0  0  0  0  0  0  0  0  0  0  0  0
   39.1050   20.8280   36.5480 H   0  0  0  0  0  0  0  0  0  0  0  0
   37.7010   22.7220   38.2690 O   0  0  0  0  0  0  0  0  0  0  0  0
   38.5070   23.1350   38.6680 H   0  0  0  0  0  0  0  0  0  0  0  0
  1  5  1  0  0  0  0
  1 15  1  0  0  0  0
  2  1  1  0  0  0  0
  3  1  1  0  0  0  0
  4  5  2  0  0  0  0
  4  8  1  0  0  0  0
  6 12  1  0  0  0  0
  7  6  1  0  0  0  0
  7 13  1  0  0  0  0
  8  7  2  0  0  0  0
  9 10  2  0  0  0  0
  9  8  1  0  0  0  0
 10 11  1  0  0  0  0
 11  6  2  0  0  0  0
 14 10  1  0  0  0  0
 16 24  1  1  0  0  0
 16 23  1  0  0  0  0
 17 15  1  6  0  0  0
 17 18  1  0  0  0  0
 17 16  1  0  0  0  0
 18 19  1  0  0  0  0
 18 20  1  0  0  0  0
 20 21  1  0  0  0  0
 21 23  1  0  0  0  0
 21 22  1  0  0  0  0
 23 26  1  1  0  0  0
 24 25  1  0  0  0  0
 26 27  1  0  0  0  0
M  END
>  <minimizedAffinity>
-4.4272089

$$$$

 OpenBabel03272502303D

 27 28  0  0  1  0  0  0  0  0999 V2000
   38.5390   26.8850   36.0490 C   0  0  0  0  0  0  0  0  0  0  0  0
   37.6070   27.5040   36.0380 H   0  0  0  0  0  0  0  0  0  0  0  0
   39.2110   27.1440   36.8820 H   0  0  0  0  0  0  0  0  0  0  0  0
   38.6170   26.8730   33.5880 C   0  0  0  0  0  3  0  0  0  0  0  0
   39.1940   27.1740   34.7440 C   0  0  0  0  0  3  0  0  0  0  0  0
   41.2300   27.5050   31.0280 C   0  0  0  0  0  0  0  0  0  0  0  0
   40.6240   27.2260   32.2650 C   0  0  0  0  0  0  0  0  0  0  0  0
   39.2500   27.1550   32.3350 C   0  0  0  0  0  0  0  0  0  0  0  0
   38.5120   27.3540   31.2100 N   0  0  0  0  0  0  0  0  0  0  0  0
   39.1160   27.6200   30.0370 C   0  0  0  0  0  0  0  0  0  0  0  0
   40.4630   27.6980   29.9330 N   0  0  0  0  0  0  0  0  0  0  0  0
   42.2970   27.5740   30.9110 H   0  0  0  0  0  0  0  0  0  0  0  0
   41.2710   27.0800   33.1170 H   0  0  0  0  0  0  0  0  0  0  0  0
   38.4530   27.7650   29.1880 H   0  0  0  0  0  0  0  0  0  0  0  0
   38.0260   25.1420   36.1010 S   0  0  0  0  0  0  0  0  0  0  0  0
   39.4510   23.0750   37.2540 C   0  0  2  0  0  3  0  0  0  0  0  0
   39.5010   24.1110   36.1470 C   0  0  1  0  0  3  0  0  0  0  0  0
   39.6470   23.3190   34.8570 C   0  0  0  0  0  3  0  0  0  0  0  0
   38.6600   22.7830   34.7360 H   0  0  0  0  0  0  0  0  0  0  0  0
   40.6130   22.3440   34.9500 O   0  0  0  0  0  0  0  0  0  0  0  0
   41.5150   22.5410   35.9740 C   0  0  0  0  0  3  0  0  0  0  0  0
   42.2000   21.6450   35.9570 H   0  0  0  0  0  0  0  0  0  0  0  0
   40.8810   22.5380   37.3530 C   0  0  2  0  0  3  0  0  0  0  0  0
   38.6570   22.0010   36.8280 O   0  0  0  0  0  0  0  0  0  0  0  0
   38.0150   21.7470   37.5410 H   0  0  0  0  0  0  0  0  0  0  0  0
   40.8670   21.2680   37.9280 O   0  0  0  0  0  0  0  0  0  0  0  0
   40.9600   20.5600   37.2430 H   0  0  0  0  0  0  0  0  0  0  0  0
  1 15  1  0  0  0  0
  1  3  1  0  0  0  0
  2  1  1  0  0  0  0
  4  5  2  0  0  0  0
  5  1  1  0  0  0  0
  6  7  1  0  0  0  0
  7  8  2  0  0  0  0
  7 13  1  0  0  0  0
  8  4  1  0  0  0  0
  9  8  1  0  0  0  0
 10  9  2  0  0  0  0
 11 10  1  0  0  0  0
 11  6  2  0  0  0  0
 12  6  1  0  0  0  0
 14 10  1  0  0  0  0
 16 24  1  6  0  0  0
 16 23  1  0  0  0  0
 17 15  1  6  0  0  0
 17 16  1  0  0  0  0
 18 20  1  0  0  0  0
 18 17  1  0  0  0  0
 19 18  1  0  0  0  0
 20 21  1  0  0  0  0
 21 23  1  0  0  0  0
 22 21  1  0  0  0  0
 23 26  1  6  0  0  0
 24 25  1  0  0  0  0
 27 26  1  0  0  0  0
M  END
>  <minimizedAffinity>
-4.42113113

$$$$

 OpenBabel03272502303D

 27 28  0  0  1  0  0  0  0  0999 V2000
   36.0990   29.0950   34.6740 C   0  0  0  0  0  0  0  0  0  0  0  0
   36.7570   29.9990   34.6500 H   0  0  0  0  0  0  0  0  0  0  0  0
   35.5090   29.0230   35.6010 H   0  0  0  0  0  0  0  0  0  0  0  0
   37.8740   27.6290   35.5460 C   0  0  0  0  0  3  0  0  0  0  0  0
   37.0380   27.9460   34.5660 C   0  0  0  0  0  3  0  0  0  0  0  0
   40.8950   25.6110   34.7860 C   0  0  0  0  0  0  0  0  0  0  0  0
   40.0230   26.7080   34.8850 C   0  0  0  0  0  0  0  0  0  0  0  0
   38.7750   26.5220   35.4390 C   0  0  0  0  0  0  0  0  0  0  0  0
   38.4160   25.2860   35.8780 N   0  0  0  0  0  0  0  0  0  0  0  0
   39.2700   24.2510   35.7720 C   0  0  0  0  0  0  0  0  0  0  0  0
   40.5020   24.3980   35.2320 N   0  0  0  0  0  0  0  0  0  0  0  0
   41.8810   25.6940   34.3620 H   0  0  0  0  0  0  0  0  0  0  0  0
   40.3730   27.6610   34.5160 H   0  0  0  0  0  0  0  0  0  0  0  0
   38.9050   23.2980   36.1470 H   0  0  0  0  0  0  0  0  0  0  0  0
   35.0430   29.1600   33.1950 S   0  0  0  0  0  0  0  0  0  0  0  0
   32.4310   29.8040   32.5680 C   0  0  2  0  0  3  0  0  0  0  0  0
   33.5010   29.9820   33.6280 C   0  0  1  0  0  3  0  0  0  0  0  0
   32.9140   29.3930   34.9010 C   0  0  0  0  0  3  0  0  0  0  0  0
   32.8560   28.2820   34.7020 H   0  0  0  0  0  0  0  0  0  0  0  0
   31.6250   29.8170   35.1260 O   0  0  0  0  0  0  0  0  0  0  0  0
   31.2830   30.9660   34.4440 C   0  0  0  0  0  3  0  0  0  0  0  0
   30.1970   31.1540   34.6830 H   0  0  0  0  0  0  0  0  0  0  0  0
   31.3440   30.8170   32.9340 C   0  0  2  0  0  3  0  0  0  0  0  0
   31.8530   28.5360   32.7230 O   0  0  0  0  0  0  0  0  0  0  0  0
   31.7870   28.0800   31.8440 H   0  0  0  0  0  0  0  0  0  0  0  0
   30.1250   30.4150   32.3910 O   0  0  0  0  0  0  0  0  0  0  0  0
   29.5470   29.9890   33.0740 H   0  0  0  0  0  0  0  0  0  0  0  0
  1  3  1  0  0  0  0
  2  1  1  0  0  0  0
  5  1  1  0  0  0  0
  5  4  2  0  0  0  0
  6  7  2  0  0  0  0
  6 11  1  0  0  0  0
  7  8  1  0  0  0  0
  8  4  1  0  0  0  0
  8  9  2  0  0  0  0
 10  9  1  0  0  0  0
 10 14  1  0  0  0  0
 11 10  2  0  0  0  0
 12  6  1  0  0  0  0
 13  7  1  0  0  0  0
 15  1  1  0  0  0  0
 16 24  1  1  0  0  0
 16 23  1  0  0  0  0
 16 17  1  0  0  0  0
 17 15  1  6  0  0  0
 17 18  1  0  0  0  0
 18 20  1  0  0  0  0
 19 18  1  0  0  0  0
 21 22  1  0  0  0  0
 21 20  1  0  0  0  0
 23 26  1  1  0  0  0
 23 21  1  0  0  0  0
 25 24  1  0  0  0  0
 26 27  1  0  0  0  0
M  END
>  <minimizedAffinity>
-4.2763114

$$$$

 OpenBabel03272502303D

 27 28  0  0  1  0  0  0  0  0999 V2000
   37.7040   25.7040   35.7680 C   0  0  0  0  0  0  0  0  0  0  0  0
   37.8120   26.4340   36.6090 H   0  0  0  0  0  0  0  0  0  0  0  0
   36.6670   25.3580   35.6370 H   0  0  0  0  0  0  0  0  0  0  0  0
   39.6550   24.2410   35.4300 C   0  0  0  0  0  3  0  0  0  0  0  0
   38.5870   24.5680   36.1450 C   0  0  0  0  0  3  0  0  0  0  0  0
   41.2870   21.5710   37.4240 C   0  0  0  0  0  0  0  0  0  0  0  0
   40.4480   22.6430   37.0790 C   0  0  0  0  0  0  0  0  0  0  0  0
   40.5030   23.1480   35.7980 C   0  0  0  0  0  0  0  0  0  0  0  0
   41.3640   22.6000   34.8990 N   0  0  0  0  0  0  0  0  0  0  0  0
   42.1580   21.5730   35.2550 C   0  0  0  0  0  0  0  0  0  0  0  0
   42.1300   21.0530   36.5040 N   0  0  0  0  0  0  0  0  0  0  0  0
   41.2900   21.1340   38.4080 H   0  0  0  0  0  0  0  0  0  0  0  0
   39.7890   23.0290   37.8420 H   0  0  0  0  0  0  0  0  0  0  0  0
   42.8160   21.1940   34.4770 H   0  0  0  0  0  0  0  0  0  0  0  0
   38.3510   26.5100   34.2720 S   0  0  0  0  0  0  0  0  0  0  0  0
   37.4180   27.2690   31.7850 C   0  0  2  0  0  3  0  0  0  0  0  0
   37.1210   26.3640   32.9650 C   0  0  1  0  0  3  0  0  0  0  0  0
   37.0980   24.9530   32.4000 C   0  0  0  0  0  3  0  0  0  0  0  0
   38.1700   24.7430   32.1100 H   0  0  0  0  0  0  0  0  0  0  0  0
   36.3560   24.8660   31.2440 O   0  0  0  0  0  0  0  0  0  0  0  0
   35.4670   25.9040   31.0670 C   0  0  0  0  0  3  0  0  0  0  0  0
   34.9800   25.7250   30.0650 H   0  0  0  0  0  0  0  0  0  0  0  0
   36.1330   27.2640   30.9540 C   0  0  2  0  0  3  0  0  0  0  0  0
   38.4010   26.6610   30.9910 O   0  0  0  0  0  0  0  0  0  0  0  0
   39.1050   27.3210   30.7550 H   0  0  0  0  0  0  0  0  0  0  0  0
   36.4250   27.6030   29.6340 O   0  0  0  0  0  0  0  0  0  0  0  0
   36.4570   26.8020   29.0530 H   0  0  0  0  0  0  0  0  0  0  0  0
  1  5  1  0  0  0  0
  1  2  1  0  0  0  0
  3  1  1  0  0  0  0
  4  8  1  0  0  0  0
  4  5  2  0  0  0  0
  6 12  1  0  0  0  0
  7  6  1  0  0  0  0
  7 13  1  0  0  0  0
  8  7  2  0  0  0  0
  9 10  2  0  0  0  0
  9  8  1  0  0  0  0
 10 11  1  0  0  0  0
 11  6  2  0  0  0  0
 14 10  1  0  0  0  0
 15  1  1  0  0  0  0
 16 24  1  6  0  0  0
 16 17  1  0  0  0  0
 17 15  1  1  0  0  0
 18 17  1  0  0  0  0
 19 18  1  0  0  0  0
 20 18  1  0  0  0  0
 21 20  1  0  0  0  0
 22 21  1  0  0  0  0
 23 26  1  6  0  0  0
 23 21  1  0  0  0  0
 23 16  1  0  0  0  0
 25 24  1  0  0  0  0
 27 26  1  0  0  0  0
M  END
>  <minimizedAffinity>
-4.25819731

$$$$
