
 OpenBabel03272507503D

 31 33  0  0  1  0  0  0  0  0999 V2000
   35.1580   29.1990   47.8880 C   0  0  0  0  0  0  0  0  0  0  0  0
   35.8300   30.2340   47.2130 C   0  0  0  0  0  0  0  0  0  0  0  0
   35.5970   30.3670   45.8370 C   0  0  0  0  0  0  0  0  0  0  0  0
   34.7420   29.4980   45.2390 N   0  0  0  0  0  0  0  0  0  0  0  0
   34.1100   28.5130   45.9230 C   0  0  0  0  0  0  0  0  0  0  0  0
   34.3140   28.3550   47.2560 N   0  0  0  0  0  0  0  0  0  0  0  0
   36.1110   31.1600   45.3150 H   0  0  0  0  0  0  0  0  0  0  0  0
   33.4730   27.9310   45.2650 H   0  0  0  0  0  0  0  0  0  0  0  0
   36.6890   31.0730   47.9600 N   0  0  0  0  0  0  0  0  0  0  0  0
   36.2290   31.9290   48.8800 C   0  0  0  0  0  0  0  0  0  0  0  0
   37.1010   32.7470   49.5990 C   0  0  0  0  0  0  0  0  0  0  0  0
   38.4280   32.5670   49.2550 C   0  0  0  0  0  0  0  0  0  0  0  0
   39.2630   33.2960   49.8870 O   0  0  0  0  0  0  0  0  0  0  0  0
   38.9260   31.7260   48.3450 N   0  0  0  0  0  0  0  0  0  0  0  0
   38.0120   30.9740   47.6970 C   0  0  0  0  0  0  0  0  0  0  0  0
   38.4680   30.1700   46.8300 O   0  0  0  0  0  0  0  0  0  0  0  0
   35.1760   32.0310   49.1020 H   0  0  0  0  0  0  0  0  0  0  0  0
   36.7930   33.4570   50.3530 H   0  0  0  0  0  0  0  0  0  0  0  0
   39.9540   31.6780   48.1700 H   0  0  0  0  0  0  0  0  0  0  0  0
   36.6770   28.8700   49.8520 C   0  0  2  0  0  3  0  0  0  0  0  0
   35.2720   28.8910   49.3350 C   0  0  1  0  0  3  0  0  0  0  0  0
   34.4910   29.8640   50.1890 C   0  0  0  0  0  3  0  0  0  0  0  0
   33.4850   29.9730   49.7360 H   0  0  0  0  0  0  0  0  0  0  0  0
   35.0510   31.1130   50.2830 O   0  0  0  0  0  0  0  0  0  0  0  0
   36.3250   31.1340   50.7930 C   0  0  0  0  0  3  0  0  0  0  0  0
   37.0310   31.7040   50.1480 H   0  0  0  0  0  0  0  0  0  0  0  0
   36.8470   29.7600   51.0770 C   0  0  2  0  0  3  0  0  0  0  0  0
   37.4980   29.3730   48.8460 O   0  0  0  0  0  0  0  0  0  0  0  0
   38.4450   29.1180   48.9620 H   0  0  0  0  0  0  0  0  0  0  0  0
   38.2080   29.8710   51.3450 O   0  0  0  0  0  0  0  0  0  0  0  0
   38.4110   30.6430   51.9390 H   0  0  0  0  0  0  0  0  0  0  0  0
  2  1  2  0  0  0  0
  2  9  1  0  0  0  0
  3  2  1  0  0  0  0
  4  3  2  0  0  0  0
  4  5  1  0  0  0  0
  5  6  2  0  0  0  0
  6  1  1  0  0  0  0
  7  3  1  0  0  0  0
  8  5  1  0  0  0  0
  9 10  1  0  0  0  0
 10 17  1  0  0  0  0
 10 11  2  0  0  0  0
 11 18  1  0  0  0  0
 12 11  1  0  0  0  0
 12 13  2  0  0  0  0
 14 12  1  0  0  0  0
 15  9  1  0  0  0  0
 15 14  1  0  0  0  0
 16 15  2  0  0  0  0
 19 14  1  0  0  0  0
 20 28  1  6  0  0  0
 20 27  1  0  0  0  0
 21  1  1  6  0  0  0
 21 20  1  0  0  0  0
 21 22  1  0  0  0  0
 22 24  1  0  0  0  0
 23 22  1  0  0  0  0
 24 25  1  0  0  0  0
 25 27  1  0  0  0  0
 26 25  1  0  0  0  0
 27 30  1  6  0  0  0
 28 29  1  0  0  0  0
 30 31  1  0  0  0  0
M  END
>  <minimizedAffinity>
-4.0798831

>  <minimizedRMSD>
1.93231368

$$$$
