
 OpenBabel03272500073D

 42 45  0  0  1  0  0  0  0  0999 V2000
   31.1410   27.5020   48.2800 C   0  0  0  0  0  0  0  0  0  0  0  0
   30.7990   27.7720   49.5890 C   0  0  0  0  0  0  0  0  0  0  0  0
   29.5290   28.1990   49.9180 C   0  0  0  0  0  0  0  0  0  0  0  0
   28.5860   28.3600   48.9140 C   0  0  0  0  0  0  0  0  0  0  0  0
   28.9410   28.0880   47.6160 C   0  0  0  0  0  0  0  0  0  0  0  0
   30.1960   27.6660   47.2970 C   0  0  0  0  0  0  0  0  0  0  0  0
   31.5040   27.6620   50.4210 H   0  0  0  0  0  0  0  0  0  0  0  0
   29.2840   28.4050   50.9580 H   0  0  0  0  0  0  0  0  0  0  0  0
   27.6080   28.6950   49.2060 H   0  0  0  0  0  0  0  0  0  0  0  0
   28.1640   28.2330   46.8780 H   0  0  0  0  0  0  0  0  0  0  0  0
   30.3820   25.8970   45.5650 C   0  0  2  0  0  3  0  0  0  0  0  0
   30.5320   27.3650   45.9100 C   0  0  1  0  0  3  0  0  0  0  0  0
   29.7790   28.1450   44.8670 C   0  0  0  0  0  3  0  0  0  0  0  0
   30.2700   29.1430   44.7430 H   0  0  0  0  0  0  0  0  0  0  0  0
   29.9580   27.5110   43.6350 O   0  0  0  0  0  0  0  0  0  0  0  0
   31.1790   26.9130   43.4830 C   0  0  0  0  0  3  0  0  0  0  0  0
   31.2630   26.6650   42.3920 H   0  0  0  0  0  0  0  0  0  0  0  0
   31.2370   25.6470   44.3390 C   0  0  2  0  0  3  0  0  0  0  0  0
   29.0410   25.6820   45.2480 O   0  0  0  0  0  0  0  0  0  0  0  0
   28.7740   24.7740   45.5510 H   0  0  0  0  0  0  0  0  0  0  0  0
   30.8530   24.5220   43.6540 O   0  0  0  0  0  0  0  0  0  0  0  0
   31.6320   23.9160   43.5830 H   0  0  0  0  0  0  0  0  0  0  0  0
   32.4570   27.0820   48.1070 O   0  0  0  0  0  0  0  0  0  0  0  0
   35.4170   28.8590   49.1200 C   0  0  0  0  0  0  0  0  0  0  0  0
   35.3620   30.0400   48.3790 C   0  0  0  0  0  0  0  0  0  0  0  0
   34.2640   30.2060   47.5130 C   0  0  0  0  0  0  0  0  0  0  0  0
   33.3380   29.2140   47.4560 N   0  0  0  0  0  0  0  0  0  0  0  0
   33.4180   28.0960   48.1770 C   0  0  0  0  0  0  0  0  0  0  0  0
   34.4710   27.9080   49.0250 N   0  0  0  0  0  0  0  0  0  0  0  0
   36.2350   28.6410   49.8220 H   0  0  0  0  0  0  0  0  0  0  0  0
   34.2170   31.1100   46.9420 H   0  0  0  0  0  0  0  0  0  0  0  0
   36.3950   30.9900   48.5340 N   0  0  0  0  0  0  0  0  0  0  0  0
   36.5700   31.6710   49.6620 C   0  0  0  0  0  0  0  0  0  0  0  0
   37.6050   32.5990   49.7530 C   0  0  0  0  0  0  0  0  0  0  0  0
   38.3770   32.7270   48.6260 C   0  0  0  0  0  0  0  0  0  0  0  0
   39.3150   33.5670   48.7030 O   0  0  0  0  0  0  0  0  0  0  0  0
   38.2310   32.0650   47.4880 N   0  0  0  0  0  0  0  0  0  0  0  0
   37.2080   31.1690   47.4400 C   0  0  0  0  0  0  0  0  0  0  0  0
   37.0550   30.5260   46.3520 O   0  0  0  0  0  0  0  0  0  0  0  0
   35.9330   31.5310   50.5190 H   0  0  0  0  0  0  0  0  0  0  0  0
   37.7540   33.1560   50.6690 H   0  0  0  0  0  0  0  0  0  0  0  0
   38.8490   32.2070   46.6680 H   0  0  0  0  0  0  0  0  0  0  0  0
  1  2  1  0  0  0  0
  2  3  2  0  0  0  0
  2  7  1  0  0  0  0
  3  8  1  0  0  0  0
  4  9  1  0  0  0  0
  4  3  1  0  0  0  0
  5  4  2  0  0  0  0
  6  5  1  0  0  0  0
  6  1  2  0  0  0  0
 10  5  1  0  0  0  0
 11 19  1  6  0  0  0
 11 12  1  0  0  0  0
 12  6  1  1  0  0  0
 13 12  1  0  0  0  0
 14 13  1  0  0  0  0
 15 13  1  0  0  0  0
 16 15  1  0  0  0  0
 16 18  1  0  0  0  0
 17 16  1  0  0  0  0
 18 21  1  6  0  0  0
 18 11  1  0  0  0  0
 19 20  1  0  0  0  0
 22 21  1  0  0  0  0
 23 28  1  0  0  0  0
 23  1  1  0  0  0  0
 24 30  1  0  0  0  0
 25 32  1  0  0  0  0
 25 24  2  0  0  0  0
 26 25  1  0  0  0  0
 27 26  2  0  0  0  0
 27 28  1  0  0  0  0
 28 29  2  0  0  0  0
 29 24  1  0  0  0  0
 31 26  1  0  0  0  0
 32 33  1  0  0  0  0
 33 34  2  0  0  0  0
 33 40  1  0  0  0  0
 34 41  1  0  0  0  0
 35 36  2  0  0  0  0
 35 34  1  0  0  0  0
 37 35  1  0  0  0  0
 38 37  1  0  0  0  0
 38 32  1  0  0  0  0
 39 38  2  0  0  0  0
 42 37  1  0  0  0  0
M  END
>  <minimizedAffinity>
-5.88994646

>  <minimizedRMSD>
0.650494456

$$$$
