
 OpenBabel03272506143D

 27 28  0  0  1  0  0  0  0  0999 V2000
   35.7400   30.4630   49.4550 C   0  0  0  0  0  0  0  0  0  0  0  0
   36.7480   29.9870   48.6050 C   0  0  0  0  0  0  0  0  0  0  0  0
   37.8010   30.8340   48.3020 C   0  0  0  0  0  0  0  0  0  0  0  0
   37.8330   32.0830   48.8240 N   0  0  0  0  0  0  0  0  0  0  0  0
   36.8330   32.5230   49.6530 C   0  0  0  0  0  0  0  0  0  0  0  0
   35.7910   31.7070   49.9630 N   0  0  0  0  0  0  0  0  0  0  0  0
   36.6350   28.9790   48.2400 H   0  0  0  0  0  0  0  0  0  0  0  0
   36.8540   33.5250   50.0750 H   0  0  0  0  0  0  0  0  0  0  0  0
   38.7390   30.9470   46.0080 C   0  0  2  0  0  3  0  0  0  0  0  0
   38.8620   30.3600   47.4190 C   0  0  1  0  0  3  0  0  0  0  0  0
   40.2580   30.6210   47.8790 C   0  0  0  0  0  3  0  0  0  0  0  0
   40.2900   31.1630   48.8510 H   0  0  0  0  0  0  0  0  0  0  0  0
   41.0070   31.3950   46.9930 O   0  0  0  0  0  0  0  0  0  0  0  0
   41.1360   30.8390   45.7340 C   0  0  0  0  0  3  0  0  0  0  0  0
   41.3920   31.6710   45.0410 H   0  0  0  0  0  0  0  0  0  0  0  0
   39.8410   30.2570   45.2270 C   0  0  2  0  0  3  0  0  0  0  0  0
   39.0610   32.3030   46.0580 O   0  0  0  0  0  0  0  0  0  0  0  0
   38.3290   32.8940   45.7480 H   0  0  0  0  0  0  0  0  0  0  0  0
   39.6660   30.3410   43.8660 O   0  0  0  0  0  0  0  0  0  0  0  0
   39.0670   29.5690   43.6160 H   0  0  0  0  0  0  0  0  0  0  0  0
   34.6250   29.7420   49.8530 O   0  0  0  0  0  0  0  0  0  0  0  0
   32.8710   31.3760   48.6230 O   0  0  0  0  0  0  0  0  0  0  0  0
   33.0910   29.9450   49.0970 P   0  0  0  0  0  0  0  0  0  0  0  0
   33.0410   28.8610   47.7980 O   0  0  0  0  0  0  0  0  0  0  0  0
   33.4500   29.3680   47.0270 H   0  0  0  0  0  0  0  0  0  0  0  0
   31.8610   29.6290   50.2130 O   0  0  0  0  0  0  0  0  0  0  0  0
   31.0210   30.0850   49.9390 H   0  0  0  0  0  0  0  0  0  0  0  0
  1 21  1  0  0  0  0
  1  6  1  0  0  0  0
  2  1  2  0  0  0  0
  3  2  1  0  0  0  0
  3  4  2  0  0  0  0
  4  5  1  0  0  0  0
  5  6  2  0  0  0  0
  5  8  1  0  0  0  0
  7  2  1  0  0  0  0
  9 17  1  1  0  0  0
  9 10  1  0  0  0  0
 10 11  1  0  0  0  0
 10  3  1  1  0  0  0
 11 12  1  0  0  0  0
 13 11  1  0  0  0  0
 14 13  1  0  0  0  0
 15 14  1  0  0  0  0
 16 19  1  6  0  0  0
 16 14  1  0  0  0  0
 16  9  1  0  0  0  0
 18 17  1  0  0  0  0
 20 19  1  0  0  0  0
 22 23  2  0  0  0  0
 23 21  1  0  0  0  0
 23 26  1  0  0  0  0
 24 23  1  0  0  0  0
 25 24  1  0  0  0  0
 27 26  1  0  0  0  0
M  END
>  <minimizedAffinity>
7.12659931

>  <minimizedRMSD>
5.24318457

$$$$
