
 OpenBabel03272510263D

 48 52  0  0  1  0  0  0  0  0999 V2000
   39.3630   31.6400   41.8600 N   0  0  0  0  0  0  0  0  0  0  0  0
   39.2400   33.0670   41.8590 C   0  0  1  0  0  0  0  0  0  0  0  0
   37.9520   33.4860   41.3250 C   0  0  0  0  0  0  0  0  0  0  0  0
   37.8660   33.0690   39.9870 O   0  0  0  0  0  0  0  0  0  0  0  0
   38.0850   31.7340   39.7780 C   0  0  0  0  0  0  0  0  0  0  0  0
   39.2750   31.1880   40.4900 C   0  0  1  0  0  0  0  0  0  0  0  0
   38.8000   31.0760   42.4530 H   0  0  0  0  0  0  0  0  0  0  0  0
   40.0550   33.4930   41.2520 H   0  0  0  0  0  0  0  0  0  0  0  0
   37.9910   34.6140   41.2340 H   0  0  0  0  0  0  0  0  0  0  0  0
   37.0070   33.2530   41.7330 H   0  0  0  0  0  0  0  0  0  0  0  0
   38.0990   31.5550   38.7110 H   0  0  0  0  0  0  0  0  0  0  0  0
   37.1820   31.2030   40.2020 H   0  0  0  0  0  0  0  0  0  0  0  0
   39.1000   30.0720   40.5530 H   0  0  0  0  0  0  0  0  0  0  0  0
   41.4370   30.1120   40.0820 C   0  0  2  0  0  3  0  0  0  0  0  0
   40.5830   31.3180   39.7700 C   0  0  1  0  0  3  0  0  0  0  0  0
   40.4180   31.4090   38.2960 C   0  0  0  0  0  3  0  0  0  0  0  0
   41.4610   31.5030   37.8690 H   0  0  0  0  0  0  0  0  0  0  0  0
   39.9120   30.2480   37.7180 O   0  0  0  0  0  0  0  0  0  0  0  0
   40.9700   29.3140   37.8140 C   0  0  0  0  0  3  0  0  0  0  0  0
   41.9080   29.8600   37.5770 H   0  0  0  0  0  0  0  0  0  0  0  0
   41.0350   28.9060   39.2600 C   0  0  1  0  0  3  0  0  0  0  0  0
   41.4010   29.7460   41.4040 O   0  0  0  0  0  0  0  0  0  0  0  0
   41.6390   28.8180   41.5500 H   0  0  0  0  0  0  0  0  0  0  0  0
   42.0100   27.9330   39.4830 O   0  0  0  0  0  0  0  0  0  0  0  0
   42.8600   28.3110   39.8310 H   0  0  0  0  0  0  0  0  0  0  0  0
   39.3870   33.4920   43.2100 O   0  0  0  0  0  0  0  0  0  0  0  0
   36.1620   30.2080   46.9000 C   0  0  0  0  0  0  0  0  0  0  0  0
   37.0480   30.7350   47.8290 C   0  0  0  0  0  0  0  0  0  0  0  0
   38.0620   31.6180   47.4360 C   0  0  0  0  0  0  0  0  0  0  0  0
   38.1260   31.9280   46.0810 C   0  0  0  0  0  0  0  0  0  0  0  0
   39.0170   32.7600   45.4600 N   0  0  0  0  0  0  0  0  0  0  0  0
   38.6860   32.7480   44.1590 C   0  0  0  0  0  0  0  0  0  0  0  0
   37.6480   31.9580   43.9600 N   0  0  0  0  0  0  0  0  0  0  0  0
   37.2600   31.4210   45.1290 C   0  0  0  0  0  0  0  0  0  0  0  0
   36.2580   30.5410   45.5530 C   0  0  0  0  0  0  0  0  0  0  0  0
   35.3690   29.5270   47.1570 H   0  0  0  0  0  0  0  0  0  0  0  0
   38.7630   32.0400   48.1440 H   0  0  0  0  0  0  0  0  0  0  0  0
   39.8010   33.2930   45.9400 H   0  0  0  0  0  0  0  0  0  0  0  0
   35.5830   30.1450   44.8140 H   0  0  0  0  0  0  0  0  0  0  0  0
   37.5100   30.1620   51.5110 C   0  0  0  0  0  0  0  0  0  0  0  0
   37.8110   30.5960   50.2260 C   0  0  0  0  0  0  0  0  0  0  0  0
   36.9060   30.3580   49.2200 C   0  0  0  0  0  0  0  0  0  0  0  0
   35.7440   29.6960   49.5590 N   0  0  0  0  0  0  0  0  0  0  0  0
   35.4620   29.2780   50.8090 C   0  0  0  0  0  0  0  0  0  0  0  0
   36.3370   29.5120   51.7670 N   0  0  0  0  0  0  0  0  0  0  0  0
   38.2590   30.3750   52.2690 H   0  0  0  0  0  0  0  0  0  0  0  0
   38.7180   31.1160   49.9510 H   0  0  0  0  0  0  0  0  0  0  0  0
   34.5260   28.7680   50.9760 H   0  0  0  0  0  0  0  0  0  0  0  0
  1  7  1  0  0  0  0
  2  8  1  6  0  0  0
  2  1  1  0  0  0  0
  2 26  1  0  0  0  0
  3 10  1  0  0  0  0
  3  2  1  0  0  0  0
  4  3  1  0  0  0  0
  5  4  1  0  0  0  0
  5 12  1  0  0  0  0
  5  6  1  0  0  0  0
  6 13  1  1  0  0  0
  6  1  1  0  0  0  0
  9  3  1  0  0  0  0
 11  5  1  0  0  0  0
 14 22  1  1  0  0  0
 15 16  1  6  0  0  0
 15 14  1  0  0  0  0
 15  6  1  0  0  0  0
 17 16  1  0  0  0  0
 18 19  1  0  0  0  0
 18 16  1  0  0  0  0
 19 21  1  0  0  0  0
 20 19  1  0  0  0  0
 21 24  1  6  0  0  0
 21 14  1  0  0  0  0
 22 23  1  0  0  0  0
 24 25  1  0  0  0  0
 26 32  1  0  0  0  0
 27 36  1  0  0  0  0
 27 28  1  0  0  0  0
 28 42  1  0  0  0  0
 29 28  2  0  0  0  0
 29 37  1  0  0  0  0
 30 29  1  0  0  0  0
 31 38  1  0  0  0  0
 31 30  1  0  0  0  0
 32 31  1  0  0  0  0
 33 32  2  0  0  0  0
 33 34  1  0  0  0  0
 34 35  1  0  0  0  0
 34 30  2  0  0  0  0
 35 27  2  0  0  0  0
 39 35  1  0  0  0  0
 40 45  1  0  0  0  0
 40 46  1  0  0  0  0
 41 40  2  0  0  0  0
 42 43  2  0  0  0  0
 42 41  1  0  0  0  0
 43 44  1  0  0  0  0
 44 48  1  0  0  0  0
 44 45  2  0  0  0  0
 47 41  1  0  0  0  0
M  END
>  <minimizedAffinity>
-6.03969908

>  <minimizedRMSD>
1.1345197

$$$$
