
 OpenBabel03272510263D

 48 52  0  0  1  0  0  0  0  0999 V2000
   39.3600   31.6380   41.8630 N   0  0  0  0  0  0  0  0  0  0  0  0
   39.2370   33.0650   41.8640 C   0  0  1  0  0  0  0  0  0  0  0  0
   37.9490   33.4850   41.3320 C   0  0  0  0  0  0  0  0  0  0  0  0
   37.8600   33.0690   39.9940 O   0  0  0  0  0  0  0  0  0  0  0  0
   38.0800   31.7350   39.7820 C   0  0  0  0  0  0  0  0  0  0  0  0
   39.2700   31.1880   40.4930 C   0  0  1  0  0  0  0  0  0  0  0  0
   38.7980   31.0740   42.4560 H   0  0  0  0  0  0  0  0  0  0  0  0
   40.0510   33.4920   41.2560 H   0  0  0  0  0  0  0  0  0  0  0  0
   37.9870   34.6130   41.2420 H   0  0  0  0  0  0  0  0  0  0  0  0
   37.0040   33.2520   41.7410 H   0  0  0  0  0  0  0  0  0  0  0  0
   38.0920   31.5570   38.7160 H   0  0  0  0  0  0  0  0  0  0  0  0
   37.1770   31.2040   40.2070 H   0  0  0  0  0  0  0  0  0  0  0  0
   39.0950   30.0720   40.5540 H   0  0  0  0  0  0  0  0  0  0  0  0
   41.4330   30.1130   40.0820 C   0  0  2  0  0  3  0  0  0  0  0  0
   40.5770   31.3180   39.7710 C   0  0  1  0  0  3  0  0  0  0  0  0
   40.4110   31.4100   38.2980 C   0  0  0  0  0  3  0  0  0  0  0  0
   41.4530   31.5040   37.8690 H   0  0  0  0  0  0  0  0  0  0  0  0
   39.9050   30.2490   37.7200 O   0  0  0  0  0  0  0  0  0  0  0  0
   40.9630   29.3150   37.8140 C   0  0  0  0  0  3  0  0  0  0  0  0
   41.9010   29.8610   37.5770 H   0  0  0  0  0  0  0  0  0  0  0  0
   41.0310   28.9070   39.2600 C   0  0  1  0  0  3  0  0  0  0  0  0
   41.3970   29.7470   41.4050 O   0  0  0  0  0  0  0  0  0  0  0  0
   41.6370   28.8190   41.5490 H   0  0  0  0  0  0  0  0  0  0  0  0
   42.0050   27.9340   39.4830 O   0  0  0  0  0  0  0  0  0  0  0  0
   42.8560   28.3120   39.8290 H   0  0  0  0  0  0  0  0  0  0  0  0
   39.3860   33.4890   43.2150 O   0  0  0  0  0  0  0  0  0  0  0  0
   36.1560   30.2070   46.9040 C   0  0  0  0  0  0  0  0  0  0  0  0
   37.0420   30.7330   47.8330 C   0  0  0  0  0  0  0  0  0  0  0  0
   38.0570   31.6160   47.4410 C   0  0  0  0  0  0  0  0  0  0  0  0
   38.1220   31.9260   46.0860 C   0  0  0  0  0  0  0  0  0  0  0  0
   39.0140   32.7570   45.4650 N   0  0  0  0  0  0  0  0  0  0  0  0
   38.6830   32.7450   44.1640 C   0  0  0  0  0  0  0  0  0  0  0  0
   37.6450   31.9550   43.9640 N   0  0  0  0  0  0  0  0  0  0  0  0
   37.2560   31.4190   45.1330 C   0  0  0  0  0  0  0  0  0  0  0  0
   36.2540   30.5400   45.5570 C   0  0  0  0  0  0  0  0  0  0  0  0
   35.3630   29.5260   47.1600 H   0  0  0  0  0  0  0  0  0  0  0  0
   38.7580   32.0380   48.1480 H   0  0  0  0  0  0  0  0  0  0  0  0
   39.7980   33.2900   45.9450 H   0  0  0  0  0  0  0  0  0  0  0  0
   35.5780   30.1440   44.8180 H   0  0  0  0  0  0  0  0  0  0  0  0
   37.4990   30.1640   51.5160 C   0  0  0  0  0  0  0  0  0  0  0  0
   37.8010   30.5980   50.2320 C   0  0  0  0  0  0  0  0  0  0  0  0
   36.8990   30.3560   49.2240 C   0  0  0  0  0  0  0  0  0  0  0  0
   35.7390   29.6900   49.5620 N   0  0  0  0  0  0  0  0  0  0  0  0
   35.4560   29.2720   50.8110 C   0  0  0  0  0  0  0  0  0  0  0  0
   36.3280   29.5090   51.7700 N   0  0  0  0  0  0  0  0  0  0  0  0
   38.2470   30.3810   52.2750 H   0  0  0  0  0  0  0  0  0  0  0  0
   38.7070   31.1220   49.9580 H   0  0  0  0  0  0  0  0  0  0  0  0
   34.5220   28.7580   50.9770 H   0  0  0  0  0  0  0  0  0  0  0  0
  1  2  1  0  0  0  0
  1  7  1  0  0  0  0
  2  8  1  6  0  0  0
  2 26  1  0  0  0  0
  3 10  1  0  0  0  0
  3  2  1  0  0  0  0
  4  3  1  0  0  0  0
  5  4  1  0  0  0  0
  5 12  1  0  0  0  0
  5  6  1  0  0  0  0
  6 13  1  1  0  0  0
  6  1  1  0  0  0  0
  9  3  1  0  0  0  0
 11  5  1  0  0  0  0
 14 22  1  1  0  0  0
 15 16  1  6  0  0  0
 15 14  1  0  0  0  0
 15  6  1  0  0  0  0
 17 16  1  0  0  0  0
 18 19  1  0  0  0  0
 18 16  1  0  0  0  0
 19 21  1  0  0  0  0
 20 19  1  0  0  0  0
 21 24  1  6  0  0  0
 21 14  1  0  0  0  0
 22 23  1  0  0  0  0
 24 25  1  0  0  0  0
 26 32  1  0  0  0  0
 27 36  1  0  0  0  0
 27 28  1  0  0  0  0
 28 42  1  0  0  0  0
 29 28  2  0  0  0  0
 29 37  1  0  0  0  0
 30 29  1  0  0  0  0
 31 38  1  0  0  0  0
 31 30  1  0  0  0  0
 32 31  1  0  0  0  0
 33 32  2  0  0  0  0
 33 34  1  0  0  0  0
 34 35  1  0  0  0  0
 34 30  2  0  0  0  0
 35 27  2  0  0  0  0
 39 35  1  0  0  0  0
 40 45  1  0  0  0  0
 40 46  1  0  0  0  0
 41 40  2  0  0  0  0
 42 43  2  0  0  0  0
 42 41  1  0  0  0  0
 43 44  1  0  0  0  0
 44 48  1  0  0  0  0
 44 45  2  0  0  0  0
 47 41  1  0  0  0  0
M  END
>  <minimizedAffinity>
-6.03967237

>  <minimizedRMSD>
0.506142914

$$$$
