
 OpenBabel03272502063D

 42 45  0  0  1  0  0  0  0  0999 V2000
   34.3940   30.4180   47.5000 F   0  0  0  0  0  0  0  0  0  0  0  0
   34.6820   29.8860   46.2670 C   0  0  0  0  0  0  0  0  0  0  0  0
   33.7350   29.2000   45.5230 C   0  0  0  0  0  0  0  0  0  0  0  0
   34.0920   28.7110   44.2840 C   0  0  0  0  0  0  0  0  0  0  0  0
   35.3860   28.9010   43.7870 C   0  0  0  0  0  0  0  0  0  0  0  0
   36.2790   29.5910   44.5810 C   0  0  0  0  0  0  0  0  0  0  0  0
   35.9770   30.0860   45.7930 C   0  0  0  0  0  0  0  0  0  0  0  0
   33.3280   28.1900   43.7510 H   0  0  0  0  0  0  0  0  0  0  0  0
   35.6290   28.5080   42.8210 H   0  0  0  0  0  0  0  0  0  0  0  0
   37.2550   29.6970   44.1270 H   0  0  0  0  0  0  0  0  0  0  0  0
   37.6880   32.2820   44.3590 Br  0  0  0  0  0  0  0  0  0  0  0  0
   37.8070   31.8050   46.2000 C   0  0  0  0  0  0  0  0  0  0  0  0
   36.9670   30.7900   46.5830 C   0  0  0  0  0  0  0  0  0  0  0  0
   37.0280   30.3580   47.9210 C   0  0  0  0  0  0  0  0  0  0  0  0
   37.8910   30.9310   48.8000 C   0  0  0  0  0  0  0  0  0  0  0  0
   38.7100   31.9500   48.3560 C   0  0  0  0  0  0  0  0  0  0  0  0
   38.6790   32.4070   47.0330 C   0  0  0  0  0  0  0  0  0  0  0  0
   36.4040   29.5630   48.3080 H   0  0  0  0  0  0  0  0  0  0  0  0
   37.9730   30.6310   49.8370 H   0  0  0  0  0  0  0  0  0  0  0  0
   39.4130   32.4360   49.0200 H   0  0  0  0  0  0  0  0  0  0  0  0
   39.4430   33.4030   46.5110 O   0  0  0  0  0  0  0  0  0  0  0  0
   40.3350   33.7220   46.8640 H   0  0  0  0  0  0  0  0  0  0  0  0
   32.3170   28.1550   47.1620 C   0  0  0  0  0  0  0  0  0  0  0  0
   32.4470   29.0750   46.1440 C   0  0  0  0  0  0  0  0  0  0  0  0
   31.3250   29.8320   45.7960 C   0  0  0  0  0  0  0  0  0  0  0  0
   30.1570   29.6410   46.4650 N   0  0  0  0  0  0  0  0  0  0  0  0
   30.0730   28.7440   47.4420 C   0  0  0  0  0  0  0  0  0  0  0  0
   31.1190   28.0120   47.7920 N   0  0  0  0  0  0  0  0  0  0  0  0
   33.1260   27.5120   47.5130 H   0  0  0  0  0  0  0  0  0  0  0  0
   31.4500   30.5400   45.0020 H   0  0  0  0  0  0  0  0  0  0  0  0
   28.1000   27.2390   47.7930 C   0  0  1  0  0  3  0  0  0  0  0  0
   28.8050   28.5210   48.1870 C   0  0  1  0  0  3  0  0  0  0  0  0
   29.0390   28.4290   49.6790 C   0  0  0  0  0  3  0  0  0  0  0  0
   29.9380   27.8350   49.9440 H   0  0  0  0  0  0  0  0  0  0  0  0
   27.9040   27.8650   50.2250 O   0  0  0  0  0  0  0  0  0  0  0  0
   26.7330   28.1630   49.5480 C   0  0  0  0  0  3  0  0  0  0  0  0
   25.9050   27.7440   50.1640 H   0  0  0  0  0  0  0  0  0  0  0  0
   26.6370   27.4090   48.2160 C   0  0  1  0  0  3  0  0  0  0  0  0
   28.2520   27.0390   46.4440 O   0  0  0  0  0  0  0  0  0  0  0  0
   29.0190   26.4190   46.2460 H   0  0  0  0  0  0  0  0  0  0  0  0
   26.0580   28.2020   47.2230 O   0  0  0  0  0  0  0  0  0  0  0  0
   26.5790   28.1820   46.3730 H   0  0  0  0  0  0  0  0  0  0  0  0
  2  1  1  0  0  0  0
  3 24  1  0  0  0  0
  3  2  2  0  0  0  0
  4  3  1  0  0  0  0
  5  4  2  0  0  0  0
  5  6  1  0  0  0  0
  6  7  2  0  0  0  0
  7  2  1  0  0  0  0
  7 13  1  0  0  0  0
  8  4  1  0  0  0  0
  9  5  1  0  0  0  0
 10  6  1  0  0  0  0
 11 12  1  0  0  0  0
 12 13  2  0  0  0  0
 12 17  1  0  0  0  0
 13 14  1  0  0  0  0
 14 18  1  0  0  0  0
 14 15  2  0  0  0  0
 15 19  1  0  0  0  0
 16 15  1  0  0  0  0
 16 20  1  0  0  0  0
 17 16  2  0  0  0  0
 21 22  1  0  0  0  0
 21 17  1  0  0  0  0
 23 29  1  0  0  0  0
 23 28  1  0  0  0  0
 24 23  2  0  0  0  0
 25 24  1  0  0  0  0
 25 26  2  0  0  0  0
 26 27  1  0  0  0  0
 27 28  2  0  0  0  0
 30 25  1  0  0  0  0
 31 39  1  6  0  0  0
 31 32  1  0  0  0  0
 31 38  1  0  0  0  0
 32 27  1  6  0  0  0
 32 33  1  0  0  0  0
 33 34  1  0  0  0  0
 33 35  1  0  0  0  0
 36 37  1  0  0  0  0
 36 35  1  0  0  0  0
 38 41  1  6  0  0  0
 38 36  1  0  0  0  0
 40 39  1  0  0  0  0
 42 41  1  0  0  0  0
M  END
>  <minimizedAffinity>
-7.09130335

>  <minimizedRMSD>
0.587758541

$$$$
