
 OpenBabel03262521233D

 50 53  0  0  1  0  0  0  0  0999 V2000
   40.3770   25.2900   53.3670 C   0  0  0  0  0  0  0  0  0  0  0  0
   39.7490   26.1070   52.4250 C   0  0  0  0  0  0  0  0  0  0  0  0
   40.0130   25.7950   51.0820 C   0  0  0  0  0  0  0  0  0  0  0  0
   40.8170   24.7770   50.6890 C   0  0  0  0  0  0  0  0  0  0  0  0
   41.2350   24.2640   49.5530 N   0  0  0  0  0  0  0  0  0  0  0  0
   42.0690   23.1980   49.7260 C   0  0  0  0  0  0  0  0  0  0  0  0
   42.1800   23.0330   51.0910 C   0  0  0  0  0  0  0  0  0  0  0  0
   41.4060   24.0100   51.6620 C   0  0  0  0  0  0  0  0  0  0  0  0
   41.2040   24.2430   53.0020 C   0  0  0  0  0  0  0  0  0  0  0  0
   40.1540   25.5570   54.3790 H   0  0  0  0  0  0  0  0  0  0  0  0
   39.5620   26.3830   50.2840 H   0  0  0  0  0  0  0  0  0  0  0  0
   40.9780   24.6090   48.5870 H   0  0  0  0  0  0  0  0  0  0  0  0
   42.5290   22.6270   48.9240 H   0  0  0  0  0  0  0  0  0  0  0  0
   42.7770   22.2640   51.5670 H   0  0  0  0  0  0  0  0  0  0  0  0
   40.8670   23.3790   55.2270 C   0  0  2  0  0  3  0  0  0  0  0  0
   41.8390   23.4150   54.0460 C   0  0  2  0  0  3  0  0  0  0  0  0
   43.1590   23.8810   54.5310 C   0  0  0  0  0  3  0  0  0  0  0  0
   43.1620   24.9280   54.8970 H   0  0  0  0  0  0  0  0  0  0  0  0
   43.5580   23.1010   55.5820 O   0  0  0  0  0  0  0  0  0  0  0  0
   42.8010   21.9940   55.8520 C   0  0  0  0  0  3  0  0  0  0  0  0
   42.9770   21.1440   55.1320 H   0  0  0  0  0  0  0  0  0  0  0  0
   41.3460   22.2280   56.0810 C   0  0  1  0  0  3  0  0  0  0  0  0
   39.5720   23.2460   54.7840 O   0  0  0  0  0  0  0  0  0  0  0  0
   39.0920   22.5800   55.3400 H   0  0  0  0  0  0  0  0  0  0  0  0
   40.9960   22.4820   57.3840 O   0  0  0  0  0  0  0  0  0  0  0  0
   40.1080   22.9260   57.3600 H   0  0  0  0  0  0  0  0  0  0  0  0
   38.6690   27.4760   52.7220 S   0  0  0  0  0  0  0  0  0  0  0  0
   38.0660   28.2650   51.2400 C   0  0  0  0  0  0  0  0  0  0  0  0
   38.9360   28.6810   50.6900 H   0  0  0  0  0  0  0  0  0  0  0  0
   37.6500   27.4650   50.5610 H   0  0  0  0  0  0  0  0  0  0  0  0
   37.0810   29.3800   51.4840 C   0  0  0  0  0  0  0  0  0  0  0  0
   36.9870   29.4320   52.6110 H   0  0  0  0  0  0  0  0  0  0  0  0
   36.0850   28.9890   51.1810 H   0  0  0  0  0  0  0  0  0  0  0  0
   37.4440   30.5720   50.9410 C   0  0  0  0  0  0  0  0  0  0  0  0
   38.4480   30.9590   51.2580 H   0  0  0  0  0  0  0  0  0  0  0  0
   36.7350   31.4160   51.0830 H   0  0  0  0  0  0  0  0  0  0  0  0
   37.4970   30.1830   49.6300 O   0  0  0  0  0  0  0  0  0  0  0  0
   38.1010   31.0210   48.7240 C   0  0  0  0  0  0  0  0  0  0  0  0
   38.3860   32.2570   49.2470 C   0  0  0  0  0  0  0  0  0  0  0  0
   39.0050   33.2130   48.4240 C   0  0  0  0  0  0  0  0  0  0  0  0
   39.2890   32.8510   47.1430 N   0  0  0  0  0  0  0  0  0  0  0  0
   38.9910   31.6060   46.6500 C   0  0  0  0  0  0  0  0  0  0  0  0
   38.4020   30.7260   47.4630 N   0  0  0  0  0  0  0  0  0  0  0  0
   39.9060   32.4280   44.5950 C   0  0  0  0  0  0  0  0  0  0  0  0
   40.1290   33.5810   45.0710 O   0  0  0  0  0  0  0  0  0  0  0  0
   39.3320   31.3350   45.2960 N   0  0  0  0  0  0  0  0  0  0  0  0
   38.2150   32.6740   50.2410 H   0  0  0  0  0  0  0  0  0  0  0  0
   39.2700   34.2020   48.7310 H   0  0  0  0  0  0  0  0  0  0  0  0
   40.1820   32.2610   43.5530 H   0  0  0  0  0  0  0  0  0  0  0  0
   39.1430   30.3810   44.9160 H   0  0  0  0  0  0  0  0  0  0  0  0
  1 10  1  0  0  0  0
  2 27  1  0  0  0  0
  2  1  2  0  0  0  0
  3  2  1  0  0  0  0
  4  3  2  0  0  0  0
  4  8  1  0  0  0  0
  5  6  1  0  0  0  0
  5  4  1  0  0  0  0
  6  7  2  0  0  0  0
  7 14  1  0  0  0  0
  7  8  1  0  0  0  0
  8  9  2  0  0  0  0
  9  1  1  0  0  0  0
 11  3  1  0  0  0  0
 12  5  1  0  0  0  0
 13  6  1  0  0  0  0
 15 23  1  6  0  0  0
 15 22  1  0  0  0  0
 16  9  1  6  0  0  0
 16 17  1  0  0  0  0
 16 15  1  0  0  0  0
 17 18  1  0  0  0  0
 17 19  1  0  0  0  0
 19 20  1  0  0  0  0
 20 22  1  0  0  0  0
 21 20  1  0  0  0  0
 22 25  1  1  0  0  0
 23 24  1  0  0  0  0
 26 25  1  0  0  0  0
 28 31  1  0  0  0  0
 28 27  1  0  0  0  0
 29 28  1  0  0  0  0
 30 28  1  0  0  0  0
 31 32  1  0  0  0  0
 33 31  1  0  0  0  0
 34 36  1  0  0  0  0
 34 35  1  0  0  0  0
 34 31  1  0  0  0  0
 37 34  1  0  0  0  0
 38 39  1  0  0  0  0
 38 37  1  0  0  0  0
 39 47  1  0  0  0  0
 40 48  1  0  0  0  0
 40 39  2  0  0  0  0
 41 40  1  0  0  0  0
 42 41  2  0  0  0  0
 42 43  1  0  0  0  0
 43 38  2  0  0  0  0
 44 45  2  0  0  0  0
 44 46  1  0  0  0  0
 46 42  1  0  0  0  0
 49 44  1  0  0  0  0
 50 46  1  0  0  0  0
M  END
>  <minimizedAffinity>
-4.69513512

>  <minimizedRMSD>
0.359659046

$$$$
