
 OpenBabel03272500073D

 42 45  0  0  1  0  0  0  0  0999 V2000
   31.1450   27.4230   48.3410 C   0  0  0  0  0  0  0  0  0  0  0  0
   30.7730   27.7650   49.6250 C   0  0  0  0  0  0  0  0  0  0  0  0
   29.4910   28.1940   49.9020 C   0  0  0  0  0  0  0  0  0  0  0  0
   28.5680   28.2840   48.8720 C   0  0  0  0  0  0  0  0  0  0  0  0
   28.9520   27.9420   47.6000 C   0  0  0  0  0  0  0  0  0  0  0  0
   30.2180   27.5170   47.3310 C   0  0  0  0  0  0  0  0  0  0  0  0
   31.4610   27.7120   50.4750 H   0  0  0  0  0  0  0  0  0  0  0  0
   29.2230   28.4570   50.9230 H   0  0  0  0  0  0  0  0  0  0  0  0
   27.5800   28.6240   49.1240 H   0  0  0  0  0  0  0  0  0  0  0  0
   28.1900   28.0330   46.8390 H   0  0  0  0  0  0  0  0  0  0  0  0
   30.5630   25.6410   45.7410 C   0  0  2  0  0  3  0  0  0  0  0  0
   30.5870   27.1400   45.9720 C   0  0  1  0  0  3  0  0  0  0  0  0
   29.7760   27.7710   44.8720 C   0  0  0  0  0  3  0  0  0  0  0  0
   30.1820   28.7950   44.6720 H   0  0  0  0  0  0  0  0  0  0  0  0
   30.0160   27.0610   43.6920 O   0  0  0  0  0  0  0  0  0  0  0  0
   31.2840   26.5580   43.5860 C   0  0  0  0  0  3  0  0  0  0  0  0
   31.3960   26.2350   42.5170 H   0  0  0  0  0  0  0  0  0  0  0  0
   31.4440   25.3730   44.5380 C   0  0  2  0  0  3  0  0  0  0  0  0
   29.2470   25.2910   45.4420 O   0  0  0  0  0  0  0  0  0  0  0  0
   29.0570   24.3900   45.8140 H   0  0  0  0  0  0  0  0  0  0  0  0
   31.1600   24.1690   43.9410 O   0  0  0  0  0  0  0  0  0  0  0  0
   31.9890   23.6270   43.9170 H   0  0  0  0  0  0  0  0  0  0  0  0
   32.4690   27.0100   48.2190 O   0  0  0  0  0  0  0  0  0  0  0  0
   35.4130   28.8270   49.2050 C   0  0  0  0  0  0  0  0  0  0  0  0
   35.3400   30.0030   48.4580 C   0  0  0  0  0  0  0  0  0  0  0  0
   34.2370   30.1510   47.5970 C   0  0  0  0  0  0  0  0  0  0  0  0
   33.3210   29.1480   47.5510 N   0  0  0  0  0  0  0  0  0  0  0  0
   33.4190   28.0350   48.2780 C   0  0  0  0  0  0  0  0  0  0  0  0
   34.4790   27.8650   49.1220 N   0  0  0  0  0  0  0  0  0  0  0  0
   36.2380   28.6230   49.9050 H   0  0  0  0  0  0  0  0  0  0  0  0
   34.1760   31.0510   47.0210 H   0  0  0  0  0  0  0  0  0  0  0  0
   36.3640   30.9660   48.6010 N   0  0  0  0  0  0  0  0  0  0  0  0
   36.5420   31.6510   49.7270 C   0  0  0  0  0  0  0  0  0  0  0  0
   37.5650   32.5910   49.8070 C   0  0  0  0  0  0  0  0  0  0  0  0
   38.3250   32.7280   48.6720 C   0  0  0  0  0  0  0  0  0  0  0  0
   39.2530   33.5790   48.7390 O   0  0  0  0  0  0  0  0  0  0  0  0
   38.1760   32.0620   47.5360 N   0  0  0  0  0  0  0  0  0  0  0  0
   37.1630   31.1530   47.5000 C   0  0  0  0  0  0  0  0  0  0  0  0
   37.0080   30.5070   46.4140 O   0  0  0  0  0  0  0  0  0  0  0  0
   35.9140   31.5040   50.5900 H   0  0  0  0  0  0  0  0  0  0  0  0
   37.7160   33.1510   50.7200 H   0  0  0  0  0  0  0  0  0  0  0  0
   38.7840   32.2100   46.7110 H   0  0  0  0  0  0  0  0  0  0  0  0
  1  2  1  0  0  0  0
  2  3  2  0  0  0  0
  2  7  1  0  0  0  0
  3  8  1  0  0  0  0
  4  9  1  0  0  0  0
  4  3  1  0  0  0  0
  5  4  2  0  0  0  0
  6  5  1  0  0  0  0
  6  1  2  0  0  0  0
 10  5  1  0  0  0  0
 11 19  1  6  0  0  0
 11 12  1  0  0  0  0
 12  6  1  1  0  0  0
 13 12  1  0  0  0  0
 14 13  1  0  0  0  0
 15 13  1  0  0  0  0
 16 15  1  0  0  0  0
 16 18  1  0  0  0  0
 17 16  1  0  0  0  0
 18 21  1  6  0  0  0
 18 11  1  0  0  0  0
 19 20  1  0  0  0  0
 22 21  1  0  0  0  0
 23 28  1  0  0  0  0
 23  1  1  0  0  0  0
 24 30  1  0  0  0  0
 25 32  1  0  0  0  0
 25 24  2  0  0  0  0
 26 25  1  0  0  0  0
 27 26  2  0  0  0  0
 27 28  1  0  0  0  0
 28 29  2  0  0  0  0
 29 24  1  0  0  0  0
 31 26  1  0  0  0  0
 32 33  1  0  0  0  0
 33 34  2  0  0  0  0
 33 40  1  0  0  0  0
 34 41  1  0  0  0  0
 35 36  2  0  0  0  0
 35 34  1  0  0  0  0
 37 35  1  0  0  0  0
 38 37  1  0  0  0  0
 38 32  1  0  0  0  0
 39 38  2  0  0  0  0
 42 37  1  0  0  0  0
M  END
>  <minimizedAffinity>
-5.85617304

>  <minimizedRMSD>
0.750838101

$$$$
