
 OpenBabel03262521233D

 50 53  0  0  1  0  0  0  0  0999 V2000
   40.3900   25.3050   53.3520 C   0  0  0  0  0  0  0  0  0  0  0  0
   39.7130   26.0800   52.4090 C   0  0  0  0  0  0  0  0  0  0  0  0
   39.8220   25.6460   51.0780 C   0  0  0  0  0  0  0  0  0  0  0  0
   40.5280   24.5530   50.6980 C   0  0  0  0  0  0  0  0  0  0  0  0
   40.8010   23.9270   49.5750 N   0  0  0  0  0  0  0  0  0  0  0  0
   41.5920   22.8290   49.7560 C   0  0  0  0  0  0  0  0  0  0  0  0
   41.8320   22.7680   51.1140 C   0  0  0  0  0  0  0  0  0  0  0  0
   41.1720   23.8320   51.6710 C   0  0  0  0  0  0  0  0  0  0  0  0
   41.1200   24.1840   53.0000 C   0  0  0  0  0  0  0  0  0  0  0  0
   40.2850   25.6650   54.3540 H   0  0  0  0  0  0  0  0  0  0  0  0
   39.3240   26.1950   50.2800 H   0  0  0  0  0  0  0  0  0  0  0  0
   40.4650   24.2080   48.6120 H   0  0  0  0  0  0  0  0  0  0  0  0
   41.9370   22.1690   48.9660 H   0  0  0  0  0  0  0  0  0  0  0  0
   42.4330   22.0050   51.5940 H   0  0  0  0  0  0  0  0  0  0  0  0
   40.8880   23.3850   55.2620 C   0  0  2  0  0  3  0  0  0  0  0  0
   41.8140   23.4050   54.0450 C   0  0  2  0  0  3  0  0  0  0  0  0
   43.1400   23.9170   54.4630 C   0  0  0  0  0  3  0  0  0  0  0  0
   43.1300   24.9750   54.7950 H   0  0  0  0  0  0  0  0  0  0  0  0
   43.5960   23.1810   55.5230 O   0  0  0  0  0  0  0  0  0  0  0  0
   42.8780   22.0670   55.8570 C   0  0  0  0  0  3  0  0  0  0  0  0
   43.0460   21.1970   55.1570 H   0  0  0  0  0  0  0  0  0  0  0  0
   41.4250   22.2740   56.1340 C   0  0  1  0  0  3  0  0  0  0  0  0
   39.5800   23.2080   54.8740 O   0  0  0  0  0  0  0  0  0  0  0  0
   39.1380   22.5500   55.4690 H   0  0  0  0  0  0  0  0  0  0  0  0
   41.1190   22.5630   57.4410 O   0  0  0  0  0  0  0  0  0  0  0  0
   40.2200   22.9840   57.4350 H   0  0  0  0  0  0  0  0  0  0  0  0
   38.7420   27.5320   52.6900 S   0  0  0  0  0  0  0  0  0  0  0  0
   38.0460   28.2440   51.2100 C   0  0  0  0  0  0  0  0  0  0  0  0
   38.8800   28.6300   50.5870 H   0  0  0  0  0  0  0  0  0  0  0  0
   37.5910   27.4090   50.5990 H   0  0  0  0  0  0  0  0  0  0  0  0
   37.0760   29.3700   51.4560 C   0  0  0  0  0  0  0  0  0  0  0  0
   36.9740   29.4140   52.5830 H   0  0  0  0  0  0  0  0  0  0  0  0
   36.0760   28.9960   51.1440 H   0  0  0  0  0  0  0  0  0  0  0  0
   37.4590   30.5610   50.9260 C   0  0  0  0  0  0  0  0  0  0  0  0
   38.4770   30.9190   51.2330 H   0  0  0  0  0  0  0  0  0  0  0  0
   36.7730   31.4200   51.0930 H   0  0  0  0  0  0  0  0  0  0  0  0
   37.4810   30.1920   49.6090 O   0  0  0  0  0  0  0  0  0  0  0  0
   38.0930   31.0270   48.7060 C   0  0  0  0  0  0  0  0  0  0  0  0
   38.3790   32.2640   49.2300 C   0  0  0  0  0  0  0  0  0  0  0  0
   39.0070   33.2170   48.4110 C   0  0  0  0  0  0  0  0  0  0  0  0
   39.2980   32.8540   47.1330 N   0  0  0  0  0  0  0  0  0  0  0  0
   39.0000   31.6090   46.6380 C   0  0  0  0  0  0  0  0  0  0  0  0
   38.4030   30.7310   47.4480 N   0  0  0  0  0  0  0  0  0  0  0  0
   39.9310   32.4270   44.5890 C   0  0  0  0  0  0  0  0  0  0  0  0
   40.1550   33.5800   45.0660 O   0  0  0  0  0  0  0  0  0  0  0  0
   39.3490   31.3360   45.2860 N   0  0  0  0  0  0  0  0  0  0  0  0
   38.2020   32.6810   50.2230 H   0  0  0  0  0  0  0  0  0  0  0  0
   39.2720   34.2050   48.7200 H   0  0  0  0  0  0  0  0  0  0  0  0
   40.2140   32.2580   43.5490 H   0  0  0  0  0  0  0  0  0  0  0  0
   39.1590   30.3830   44.9060 H   0  0  0  0  0  0  0  0  0  0  0  0
  1 10  1  0  0  0  0
  2 27  1  0  0  0  0
  2  1  2  0  0  0  0
  3  2  1  0  0  0  0
  4  3  2  0  0  0  0
  4  8  1  0  0  0  0
  5  6  1  0  0  0  0
  5  4  1  0  0  0  0
  6  7  2  0  0  0  0
  7 14  1  0  0  0  0
  7  8  1  0  0  0  0
  8  9  2  0  0  0  0
  9  1  1  0  0  0  0
 11  3  1  0  0  0  0
 12  5  1  0  0  0  0
 13  6  1  0  0  0  0
 15 23  1  6  0  0  0
 15 22  1  0  0  0  0
 16  9  1  6  0  0  0
 16 17  1  0  0  0  0
 16 15  1  0  0  0  0
 17 18  1  0  0  0  0
 17 19  1  0  0  0  0
 19 20  1  0  0  0  0
 20 22  1  0  0  0  0
 21 20  1  0  0  0  0
 22 25  1  1  0  0  0
 23 24  1  0  0  0  0
 26 25  1  0  0  0  0
 28 31  1  0  0  0  0
 28 27  1  0  0  0  0
 29 28  1  0  0  0  0
 30 28  1  0  0  0  0
 31 32  1  0  0  0  0
 33 31  1  0  0  0  0
 34 36  1  0  0  0  0
 34 35  1  0  0  0  0
 34 31  1  0  0  0  0
 37 34  1  0  0  0  0
 38 39  1  0  0  0  0
 38 37  1  0  0  0  0
 39 47  1  0  0  0  0
 40 48  1  0  0  0  0
 40 39  2  0  0  0  0
 41 40  1  0  0  0  0
 42 41  2  0  0  0  0
 42 43  1  0  0  0  0
 43 38  2  0  0  0  0
 44 45  2  0  0  0  0
 44 46  1  0  0  0  0
 46 42  1  0  0  0  0
 49 44  1  0  0  0  0
 50 46  1  0  0  0  0
M  END
>  <minimizedAffinity>
-4.59686279

>  <minimizedRMSD>
0.592236161

$$$$
