
 OpenBabel03272502073D

 42 45  0  0  1  0  0  0  0  0999 V2000
   34.1140   30.3700   47.8920 F   0  0  0  0  0  0  0  0  0  0  0  0
   34.5260   29.9340   46.6570 C   0  0  0  0  0  0  0  0  0  0  0  0
   33.6590   29.3170   45.7680 C   0  0  0  0  0  0  0  0  0  0  0  0
   34.1410   28.9250   44.5370 C   0  0  0  0  0  0  0  0  0  0  0  0
   35.4780   29.1430   44.1900 C   0  0  0  0  0  0  0  0  0  0  0  0
   36.2860   29.7610   45.1220 C   0  0  0  0  0  0  0  0  0  0  0  0
   35.8630   30.1610   46.3340 C   0  0  0  0  0  0  0  0  0  0  0  0
   33.4340   28.4540   43.8890 H   0  0  0  0  0  0  0  0  0  0  0  0
   35.8180   28.8250   43.2250 H   0  0  0  0  0  0  0  0  0  0  0  0
   37.3040   29.8940   44.7800 H   0  0  0  0  0  0  0  0  0  0  0  0
   37.8940   32.2610   45.2080 Br  0  0  0  0  0  0  0  0  0  0  0  0
   37.7150   31.7570   47.0370 C   0  0  0  0  0  0  0  0  0  0  0  0
   36.7680   30.7930   47.2730 C   0  0  0  0  0  0  0  0  0  0  0  0
   36.6060   30.3420   48.5970 C   0  0  0  0  0  0  0  0  0  0  0  0
   37.3640   30.8490   49.6030 C   0  0  0  0  0  0  0  0  0  0  0  0
   38.2990   31.8200   49.3030 C   0  0  0  0  0  0  0  0  0  0  0  0
   38.4900   32.2930   47.9990 C   0  0  0  0  0  0  0  0  0  0  0  0
   35.8850   29.5840   48.8720 H   0  0  0  0  0  0  0  0  0  0  0  0
   37.2760   30.5330   50.6340 H   0  0  0  0  0  0  0  0  0  0  0  0
   38.9260   32.2540   50.0720 H   0  0  0  0  0  0  0  0  0  0  0  0
   39.3810   33.2450   47.6140 O   0  0  0  0  0  0  0  0  0  0  0  0
   40.2290   33.5040   48.1000 H   0  0  0  0  0  0  0  0  0  0  0  0
   32.0750   28.1350   47.1400 C   0  0  0  0  0  0  0  0  0  0  0  0
   32.3150   29.1540   46.2430 C   0  0  0  0  0  0  0  0  0  0  0  0
   31.2410   29.9670   45.8710 C   0  0  0  0  0  0  0  0  0  0  0  0
   30.0110   29.7300   46.3990 N   0  0  0  0  0  0  0  0  0  0  0  0
   29.8200   28.7370   47.2610 C   0  0  0  0  0  0  0  0  0  0  0  0
   30.8200   27.9510   47.6310 N   0  0  0  0  0  0  0  0  0  0  0  0
   32.8390   27.4420   47.4970 H   0  0  0  0  0  0  0  0  0  0  0  0
   31.4520   30.7520   45.1730 H   0  0  0  0  0  0  0  0  0  0  0  0
   28.3030   29.0680   49.2270 C   0  0  1  0  0  3  0  0  0  0  0  0
   28.4840   28.4630   47.8500 C   0  0  1  0  0  3  0  0  0  0  0  0
   27.3680   29.0250   46.9960 C   0  0  0  0  0  3  0  0  0  0  0  0
   27.5900   30.0360   46.5980 H   0  0  0  0  0  0  0  0  0  0  0  0
   26.2360   29.0500   47.7870 O   0  0  0  0  0  0  0  0  0  0  0  0
   26.1780   28.0430   48.7360 C   0  0  0  0  0  3  0  0  0  0  0  0
   25.1730   28.1220   49.2080 H   0  0  0  0  0  0  0  0  0  0  0  0
   27.1590   28.2890   49.8890 C   0  0  1  0  0  3  0  0  0  0  0  0
   29.4860   28.9780   49.9170 O   0  0  0  0  0  0  0  0  0  0  0  0
   30.0160   29.8300   49.8530 H   0  0  0  0  0  0  0  0  0  0  0  0
   27.7360   27.0960   50.3300 O   0  0  0  0  0  0  0  0  0  0  0  0
   28.7260   27.1680   50.4240 H   0  0  0  0  0  0  0  0  0  0  0  0
  2  1  1  0  0  0  0
  3 24  1  0  0  0  0
  3  2  2  0  0  0  0
  4  3  1  0  0  0  0
  5  4  2  0  0  0  0
  5  6  1  0  0  0  0
  6  7  2  0  0  0  0
  7  2  1  0  0  0  0
  7 13  1  0  0  0  0
  8  4  1  0  0  0  0
  9  5  1  0  0  0  0
 10  6  1  0  0  0  0
 11 12  1  0  0  0  0
 12 13  2  0  0  0  0
 12 17  1  0  0  0  0
 13 14  1  0  0  0  0
 14 18  1  0  0  0  0
 14 15  2  0  0  0  0
 15 19  1  0  0  0  0
 16 15  1  0  0  0  0
 16 20  1  0  0  0  0
 17 16  2  0  0  0  0
 21 17  1  0  0  0  0
 21 22  1  0  0  0  0
 23 29  1  0  0  0  0
 23 28  1  0  0  0  0
 24 23  2  0  0  0  0
 25 24  1  0  0  0  0
 25 26  2  0  0  0  0
 26 27  1  0  0  0  0
 27 28  2  0  0  0  0
 30 25  1  0  0  0  0
 31 38  1  0  0  0  0
 31 39  1  1  0  0  0
 32 27  1  6  0  0  0
 32 31  1  0  0  0  0
 33 35  1  0  0  0  0
 33 32  1  0  0  0  0
 34 33  1  0  0  0  0
 35 36  1  0  0  0  0
 36 37  1  0  0  0  0
 36 38  1  0  0  0  0
 38 41  1  6  0  0  0
 40 39  1  0  0  0  0
 41 42  1  0  0  0  0
M  END
>  <minimizedAffinity>
-7.68140554

>  <minimizedRMSD>
0.452173114

$$$$
