
 OpenBabel03272506083D

 47 50  0  0  1  0  0  0  0  0999 V2000
   34.8570   28.3850   49.1040 C   0  0  0  0  0  0  0  0  0  0  0  0
   35.7430   28.2940   48.4420 H   0  0  0  0  0  0  0  0  0  0  0  0
   34.9280   27.5010   49.7860 H   0  0  0  0  0  0  0  0  0  0  0  0
   33.5910   28.2990   48.2870 C   0  0  0  0  0  0  0  0  0  0  0  0
   33.6240   28.6360   46.8870 C   0  0  0  0  0  0  0  0  0  0  0  0
   31.9360   28.3730   46.4330 S   0  0  0  0  0  0  0  0  0  0  0  0
   31.3980   27.8480   48.1670 C   0  0  0  0  0  0  0  0  0  0  0  0
   32.4340   27.9390   48.7440 N   0  0  0  0  0  0  0  0  0  0  0  0
   30.1050   27.4450   48.6780 N   0  0  0  0  0  0  0  0  0  0  0  0
   29.2300   26.7910   47.7560 C   0  0  0  0  0  0  0  0  0  0  0  0
   27.8000   26.7600   48.1790 C   0  0  0  0  0  0  0  0  0  0  0  0
   27.5300   27.5620   49.3770 N   0  0  0  0  0  0  0  0  0  0  0  0
   28.4650   27.0880   50.3810 C   0  0  0  0  0  0  0  0  0  0  0  0
   29.7880   27.7240   50.0560 C   0  0  0  0  0  0  0  0  0  0  0  0
   34.4580   28.9490   46.3300 H   0  0  0  0  0  0  0  0  0  0  0  0
   29.5900   25.7470   47.5280 H   0  0  0  0  0  0  0  0  0  0  0  0
   29.2830   27.3300   46.7860 H   0  0  0  0  0  0  0  0  0  0  0  0
   27.4940   25.7090   48.4530 H   0  0  0  0  0  0  0  0  0  0  0  0
   27.0790   27.0740   47.3960 H   0  0  0  0  0  0  0  0  0  0  0  0
   26.5770   27.2360   49.7020 H   0  0  0  0  0  0  0  0  0  0  0  0
   28.1710   27.4540   51.3940 H   0  0  0  0  0  0  0  0  0  0  0  0
   28.5840   25.9820   50.3730 H   0  0  0  0  0  0  0  0  0  0  0  0
   30.5560   27.2560   50.7060 H   0  0  0  0  0  0  0  0  0  0  0  0
   29.6990   28.8090   50.2640 H   0  0  0  0  0  0  0  0  0  0  0  0
   34.8860   29.6110   49.9280 C   0  0  0  0  0  0  0  0  0  0  0  0
   33.9380   30.1920   49.7480 H   0  0  0  0  0  0  0  0  0  0  0  0
   34.9780   29.3970   51.0070 H   0  0  0  0  0  0  0  0  0  0  0  0
   37.3610   32.3660   49.7540 C   0  0  0  0  0  0  0  0  0  0  0  0
   38.0190   32.1260   48.5580 C   0  0  0  0  0  0  0  0  0  0  0  0
   37.6020   31.0160   47.8220 C   0  0  0  0  0  0  0  0  0  0  0  0
   36.6030   30.2320   48.2780 N   0  0  0  0  0  0  0  0  0  0  0  0
   35.9970   30.5260   49.4680 C   0  0  0  0  0  0  0  0  0  0  0  0
   36.3780   31.5820   50.1910 N   0  0  0  0  0  0  0  0  0  0  0  0
   37.6930   33.2380   50.3260 H   0  0  0  0  0  0  0  0  0  0  0  0
   38.8150   32.7030   48.1340 H   0  0  0  0  0  0  0  0  0  0  0  0
   37.3330   30.9500   45.3400 C   0  0  2  0  0  3  0  0  0  0  0  0
   38.2170   30.6400   46.5220 C   0  0  1  0  0  3  0  0  0  0  0  0
   39.5560   31.3070   46.2870 C   0  0  0  0  0  3  0  0  0  0  0  0
   39.5880   32.3230   46.6770 H   0  0  0  0  0  0  0  0  0  0  0  0
   39.8640   31.2370   44.9360 O   0  0  0  0  0  0  0  0  0  0  0  0
   39.3810   30.0790   44.3410 C   0  0  0  0  0  3  0  0  0  0  0  0
   39.8270   29.9810   43.3430 H   0  0  0  0  0  0  0  0  0  0  0  0
   37.8700   30.1420   44.1560 C   0  0  2  0  0  3  0  0  0  0  0  0
   37.3530   32.2760   44.9860 O   0  0  0  0  0  0  0  0  0  0  0  0
   37.9310   32.7820   45.5790 H   0  0  0  0  0  0  0  0  0  0  0  0
   37.5960   30.8670   43.0010 O   0  0  0  0  0  0  0  0  0  0  0  0
   36.7920   31.4270   43.1640 H   0  0  0  0  0  0  0  0  0  0  0  0
  1  3  1  0  0  0  0
  1 25  1  0  0  0  0
  2  1  1  0  0  0  0
  4  8  1  0  0  0  0
  4  1  1  0  0  0  0
  5  4  2  0  0  0  0
  6  5  1  0  0  0  0
  6  7  1  0  0  0  0
  7  9  1  0  0  0  0
  7  8  2  0  0  0  0
  9 14  1  0  0  0  0
 10 11  1  0  0  0  0
 10  9  1  0  0  0  0
 11 18  1  0  0  0  0
 11 12  1  0  0  0  0
 12 20  1  0  0  0  0
 12 13  1  0  0  0  0
 13 21  1  0  0  0  0
 14 24  1  0  0  0  0
 14 13  1  0  0  0  0
 14 23  1  0  0  0  0
 15  5  1  0  0  0  0
 16 10  1  0  0  0  0
 17 10  1  0  0  0  0
 19 11  1  0  0  0  0
 22 13  1  0  0  0  0
 25 27  1  0  0  0  0
 26 25  1  0  0  0  0
 28 33  1  0  0  0  0
 28 34  1  0  0  0  0
 29 28  2  0  0  0  0
 30 31  2  0  0  0  0
 30 29  1  0  0  0  0
 31 32  1  0  0  0  0
 32 25  1  0  0  0  0
 32 33  2  0  0  0  0
 35 29  1  0  0  0  0
 36 44  1  6  0  0  0
 36 37  1  0  0  0  0
 37 30  1  1  0  0  0
 38 37  1  0  0  0  0
 38 39  1  0  0  0  0
 40 38  1  0  0  0  0
 41 40  1  0  0  0  0
 42 41  1  0  0  0  0
 43 46  1  6  0  0  0
 43 41  1  0  0  0  0
 43 36  1  0  0  0  0
 44 45  1  0  0  0  0
 46 47  1  0  0  0  0
M  END
>  <minimizedAffinity>
-7.02925158

>  <minimizedRMSD>
0.901583314

$$$$
