
 OpenBabel03272506093D

 47 50  0  0  1  0  0  0  0  0999 V2000
   34.9810   28.5300   49.1580 C   0  0  0  0  0  0  0  0  0  0  0  0
   35.8890   28.3170   48.5560 H   0  0  0  0  0  0  0  0  0  0  0  0
   34.9890   27.7470   49.9570 H   0  0  0  0  0  0  0  0  0  0  0  0
   33.7470   28.3740   48.3030 C   0  0  0  0  0  0  0  0  0  0  0  0
   33.8240   28.6360   46.8890 C   0  0  0  0  0  0  0  0  0  0  0  0
   32.1580   28.3150   46.3920 S   0  0  0  0  0  0  0  0  0  0  0  0
   31.5690   27.8730   48.1320 C   0  0  0  0  0  0  0  0  0  0  0  0
   32.5810   28.0160   48.7390 N   0  0  0  0  0  0  0  0  0  0  0  0
   30.2650   27.4730   48.6190 N   0  0  0  0  0  0  0  0  0  0  0  0
   29.4360   26.7520   47.7040 C   0  0  0  0  0  0  0  0  0  0  0  0
   27.9930   26.7150   48.0780 C   0  0  0  0  0  0  0  0  0  0  0  0
   27.6650   27.5740   49.2210 N   0  0  0  0  0  0  0  0  0  0  0  0
   28.5730   27.1730   50.2810 C   0  0  0  0  0  0  0  0  0  0  0  0
   29.8950   27.8180   49.9680 C   0  0  0  0  0  0  0  0  0  0  0  0
   34.6720   28.9360   46.3450 H   0  0  0  0  0  0  0  0  0  0  0  0
   29.8230   25.7050   47.5460 H   0  0  0  0  0  0  0  0  0  0  0  0
   29.5130   27.2400   46.7090 H   0  0  0  0  0  0  0  0  0  0  0  0
   27.6970   25.6740   48.3980 H   0  0  0  0  0  0  0  0  0  0  0  0
   27.2950   26.9710   47.2550 H   0  0  0  0  0  0  0  0  0  0  0  0
   26.7080   27.2460   49.5300 H   0  0  0  0  0  0  0  0  0  0  0  0
   28.2360   27.5870   51.2620 H   0  0  0  0  0  0  0  0  0  0  0  0
   28.7120   26.0720   50.3380 H   0  0  0  0  0  0  0  0  0  0  0  0
   30.6480   27.4010   50.6690 H   0  0  0  0  0  0  0  0  0  0  0  0
   29.7780   28.9110   50.1140 H   0  0  0  0  0  0  0  0  0  0  0  0
   35.0260   29.8570   49.8060 C   0  0  0  0  0  0  0  0  0  0  0  0
   34.1830   30.4860   49.4050 H   0  0  0  0  0  0  0  0  0  0  0  0
   34.9400   29.7980   50.9050 H   0  0  0  0  0  0  0  0  0  0  0  0
   38.0130   32.0530   49.8630 C   0  0  0  0  0  0  0  0  0  0  0  0
   38.5570   31.8820   48.6010 C   0  0  0  0  0  0  0  0  0  0  0  0
   37.8890   31.0100   47.7410 C   0  0  0  0  0  0  0  0  0  0  0  0
   36.7670   30.3780   48.1460 N   0  0  0  0  0  0  0  0  0  0  0  0
   36.2840   30.5930   49.4070 C   0  0  0  0  0  0  0  0  0  0  0  0
   36.9060   31.4220   50.2490 N   0  0  0  0  0  0  0  0  0  0  0  0
   38.5420   32.7380   50.5340 H   0  0  0  0  0  0  0  0  0  0  0  0
   39.4390   32.3470   48.2110 H   0  0  0  0  0  0  0  0  0  0  0  0
   37.4950   31.3720   45.3020 C   0  0  2  0  0  3  0  0  0  0  0  0
   38.3590   30.7310   46.3580 C   0  0  1  0  0  3  0  0  0  0  0  0
   39.7870   31.1730   46.1200 C   0  0  0  0  0  3  0  0  0  0  0  0
   40.0300   32.0950   46.6460 H   0  0  0  0  0  0  0  0  0  0  0  0
   40.0120   31.2560   44.7530 O   0  0  0  0  0  0  0  0  0  0  0  0
   39.2900   30.3080   44.0400 C   0  0  0  0  0  3  0  0  0  0  0  0
   39.6610   30.2850   43.0070 H   0  0  0  0  0  0  0  0  0  0  0  0
   37.8120   30.6720   43.9780 C   0  0  2  0  0  3  0  0  0  0  0  0
   37.7490   32.7110   45.1390 O   0  0  0  0  0  0  0  0  0  0  0  0
   38.4410   33.0080   45.7510 H   0  0  0  0  0  0  0  0  0  0  0  0
   37.6260   31.6020   42.9600 O   0  0  0  0  0  0  0  0  0  0  0  0
   36.9520   32.2660   43.2610 H   0  0  0  0  0  0  0  0  0  0  0  0
  1 25  1  0  0  0  0
  1  3  1  0  0  0  0
  2  1  1  0  0  0  0
  4  8  1  0  0  0  0
  4  1  1  0  0  0  0
  5  4  2  0  0  0  0
  6  5  1  0  0  0  0
  6  7  1  0  0  0  0
  7  9  1  0  0  0  0
  7  8  2  0  0  0  0
  9 14  1  0  0  0  0
 10 11  1  0  0  0  0
 10  9  1  0  0  0  0
 11 18  1  0  0  0  0
 11 12  1  0  0  0  0
 12 20  1  0  0  0  0
 12 13  1  0  0  0  0
 13 22  1  0  0  0  0
 13 21  1  0  0  0  0
 14 24  1  0  0  0  0
 14 13  1  0  0  0  0
 14 23  1  0  0  0  0
 15  5  1  0  0  0  0
 16 10  1  0  0  0  0
 17 10  1  0  0  0  0
 19 11  1  0  0  0  0
 25 27  1  0  0  0  0
 26 25  1  0  0  0  0
 28 33  1  0  0  0  0
 28 34  1  0  0  0  0
 29 28  2  0  0  0  0
 30 31  2  0  0  0  0
 30 29  1  0  0  0  0
 31 32  1  0  0  0  0
 32 25  1  0  0  0  0
 32 33  2  0  0  0  0
 35 29  1  0  0  0  0
 36 44  1  6  0  0  0
 36 37  1  0  0  0  0
 37 30  1  1  0  0  0
 38 37  1  0  0  0  0
 38 39  1  0  0  0  0
 40 38  1  0  0  0  0
 41 40  1  0  0  0  0
 42 41  1  0  0  0  0
 43 46  1  6  0  0  0
 43 41  1  0  0  0  0
 43 36  1  0  0  0  0
 44 45  1  0  0  0  0
 46 47  1  0  0  0  0
M  END
>  <minimizedAffinity>
-7.06208515

>  <minimizedRMSD>
1.09483409

$$$$
