
 OpenBabel03272509423D

 41 43  0  0  1  0  0  0  0  0999 V2000
   37.1080   30.9090   49.0880 C   0  0  0  0  0  0  0  0  0  0  0  0
   36.8330   31.8570   50.0770 C   0  0  0  0  0  0  0  0  0  0  0  0
   37.3980   33.1210   50.0530 C   0  0  0  0  0  0  0  0  0  0  0  0
   38.2670   33.4680   49.0140 C   0  0  0  0  0  0  0  0  0  0  0  0
   38.5280   32.5330   48.0530 C   0  0  0  0  0  0  0  0  0  0  0  0
   37.9450   31.2750   48.1100 C   0  0  0  0  0  0  0  0  0  0  0  0
   36.1580   31.5910   50.8860 H   0  0  0  0  0  0  0  0  0  0  0  0
   37.1350   33.7830   50.8460 H   0  0  0  0  0  0  0  0  0  0  0  0
   38.6570   34.4660   49.0760 H   0  0  0  0  0  0  0  0  0  0  0  0
   39.2190   32.9450   47.3180 H   0  0  0  0  0  0  0  0  0  0  0  0
   36.5470   29.5770   49.1290 C   0  0  2  0  0  0  0  0  0  0  0  0
   37.0280   29.0160   48.2380 H   0  0  0  0  0  0  0  0  0  0  0  0
   33.6360   29.7590   46.9620 C   0  0  0  0  0  0  0  0  0  0  0  0
   32.8980   28.6400   47.2970 C   0  0  0  0  0  0  0  0  0  0  0  0
   33.3630   27.8360   48.3220 C   0  0  0  0  0  0  0  0  0  0  0  0
   34.5330   28.1740   48.9650 N   0  0  0  0  0  0  0  0  0  0  0  0
   35.1920   29.2520   48.5980 C   0  0  0  0  0  0  0  0  0  0  0  0
   34.7520   30.0530   47.6000 N   0  0  0  0  0  0  0  0  0  0  0  0
   33.2370   30.3640   46.1550 H   0  0  0  0  0  0  0  0  0  0  0  0
   31.9760   28.3360   46.8200 H   0  0  0  0  0  0  0  0  0  0  0  0
   32.8890   26.9270   48.6930 H   0  0  0  0  0  0  0  0  0  0  0  0
   37.0620   28.8530   50.0600 O   0  0  0  0  0  0  0  0  0  0  0  0
   36.5950   28.6260   50.8790 H   0  0  0  0  0  0  0  0  0  0  0  0
   38.3280   30.3750   47.0470 C   0  0  0  0  0  3  0  0  0  0  0  0
   38.6850   30.7770   45.8220 C   0  0  0  0  0  3  0  0  0  0  0  0
   39.1360   29.9530   44.6770 C   0  0  0  0  0  0  0  0  0  0  0  0
   38.2360   29.6260   44.1080 H   0  0  0  0  0  0  0  0  0  0  0  0
   39.6800   29.0790   45.0720 H   0  0  0  0  0  0  0  0  0  0  0  0
   40.2790   30.8970   43.6640 S   0  0  0  0  0  0  0  0  0  0  0  0
   40.4230   31.1450   40.9100 C   0  0  1  0  0  3  0  0  0  0  0  0
   40.3550   30.1140   42.0240 C   0  0  1  0  0  3  0  0  0  0  0  0
   41.5630   29.2040   42.0250 C   0  0  0  0  0  3  0  0  0  0  0  0
   42.4640   29.7840   42.2630 H   0  0  0  0  0  0  0  0  0  0  0  0
   41.6500   28.4510   40.8590 O   0  0  0  0  0  0  0  0  0  0  0  0
   40.9320   29.0250   39.8130 C   0  0  0  0  0  3  0  0  0  0  0  0
   41.2820   28.5830   38.8600 H   0  0  0  0  0  0  0  0  0  0  0  0
   41.2430   30.5010   39.8070 C   0  0  1  0  0  3  0  0  0  0  0  0
   39.1560   31.5130   40.5170 O   0  0  0  0  0  0  0  0  0  0  0  0
   39.0440   31.5120   39.5320 H   0  0  0  0  0  0  0  0  0  0  0  0
   40.9610   31.0760   38.5770 O   0  0  0  0  0  0  0  0  0  0  0  0
   41.8180   31.3490   38.1600 H   0  0  0  0  0  0  0  0  0  0  0  0
  1 11  1  0  0  0  0
  1  2  1  0  0  0  0
  2  7  1  0  0  0  0
  3  2  2  0  0  0  0
  3  8  1  0  0  0  0
  4  9  1  0  0  0  0
  4  3  1  0  0  0  0
  5  6  1  0  0  0  0
  5  4  2  0  0  0  0
  6  1  2  0  0  0  0
 10  5  1  0  0  0  0
 11 12  1  6  0  0  0
 11 22  1  0  0  0  0
 13 14  2  0  0  0  0
 13 18  1  0  0  0  0
 14 15  1  0  0  0  0
 15 21  1  0  0  0  0
 15 16  2  0  0  0  0
 17 16  1  0  0  0  0
 17 11  1  0  0  0  0
 18 17  2  0  0  0  0
 19 13  1  0  0  0  0
 20 14  1  0  0  0  0
 22 23  1  0  0  0  0
 24  6  1  0  0  0  0
 25 24  2  0  0  0  0
 26 28  1  0  0  0  0
 26 25  1  0  0  0  0
 27 26  1  0  0  0  0
 29 26  1  0  0  0  0
 30 38  1  6  0  0  0
 30 31  1  0  0  0  0
 31 32  1  0  0  0  0
 31 29  1  1  0  0  0
 32 33  1  0  0  0  0
 34 32  1  0  0  0  0
 35 34  1  0  0  0  0
 36 35  1  0  0  0  0
 37 40  1  6  0  0  0
 37 35  1  0  0  0  0
 37 30  1  0  0  0  0
 39 38  1  0  0  0  0
 41 40  1  0  0  0  0
M  END
>  <minimizedAffinity>
-6.1354537

>  <minimizedRMSD>
0.846458077

$$$$
