
 OpenBabel03272509423D

 41 43  0  0  1  0  0  0  0  0999 V2000
   37.0310   31.0030   49.0740 C   0  0  0  0  0  0  0  0  0  0  0  0
   36.6500   31.8460   50.1210 C   0  0  0  0  0  0  0  0  0  0  0  0
   37.1820   33.1170   50.2660 C   0  0  0  0  0  0  0  0  0  0  0  0
   38.1280   33.5770   49.3440 C   0  0  0  0  0  0  0  0  0  0  0  0
   38.4920   32.7430   48.3250 C   0  0  0  0  0  0  0  0  0  0  0  0
   37.9380   31.4760   48.2120 C   0  0  0  0  0  0  0  0  0  0  0  0
   35.9150   31.4920   50.8400 H   0  0  0  0  0  0  0  0  0  0  0  0
   36.8370   33.6940   51.0930 H   0  0  0  0  0  0  0  0  0  0  0  0
   38.4850   34.5700   49.5340 H   0  0  0  0  0  0  0  0  0  0  0  0
   39.2320   33.2360   47.6950 H   0  0  0  0  0  0  0  0  0  0  0  0
   36.5010   29.6640   48.9410 C   0  0  2  0  0  0  0  0  0  0  0  0
   37.0110   29.2280   47.9970 H   0  0  0  0  0  0  0  0  0  0  0  0
   33.6680   29.9820   46.6890 C   0  0  0  0  0  0  0  0  0  0  0  0
   32.9140   28.8510   46.9360 C   0  0  0  0  0  0  0  0  0  0  0  0
   33.3400   27.9890   47.9310 C   0  0  0  0  0  0  0  0  0  0  0  0
   34.4880   28.2850   48.6310 N   0  0  0  0  0  0  0  0  0  0  0  0
   35.1650   29.3770   48.3470 C   0  0  0  0  0  0  0  0  0  0  0  0
   34.7630   30.2340   47.3800 N   0  0  0  0  0  0  0  0  0  0  0  0
   33.2990   30.6320   45.9020 H   0  0  0  0  0  0  0  0  0  0  0  0
   32.0080   28.5790   46.4120 H   0  0  0  0  0  0  0  0  0  0  0  0
   32.8500   27.0640   48.2350 H   0  0  0  0  0  0  0  0  0  0  0  0
   37.0190   28.8420   49.7860 O   0  0  0  0  0  0  0  0  0  0  0  0
   36.5430   28.5060   50.5610 H   0  0  0  0  0  0  0  0  0  0  0  0
   38.4320   30.6890   47.1060 C   0  0  0  0  0  3  0  0  0  0  0  0
   39.2660   31.1590   46.1700 C   0  0  0  0  0  3  0  0  0  0  0  0
   39.8680   30.4360   45.0260 C   0  0  0  0  0  0  0  0  0  0  0  0
   40.5740   29.6750   45.4280 H   0  0  0  0  0  0  0  0  0  0  0  0
   40.4050   31.1680   44.4000 H   0  0  0  0  0  0  0  0  0  0  0  0
   38.5720   29.7040   44.0230 S   0  0  0  0  0  0  0  0  0  0  0  0
   40.6510   29.7690   42.1950 C   0  0  1  0  0  3  0  0  0  0  0  0
   39.3330   29.0730   42.4960 C   0  0  1  0  0  3  0  0  0  0  0  0
   39.5120   27.5810   42.6740 C   0  0  0  0  0  3  0  0  0  0  0  0
   40.1180   27.3840   43.5660 H   0  0  0  0  0  0  0  0  0  0  0  0
   39.9720   26.9700   41.5130 O   0  0  0  0  0  0  0  0  0  0  0  0
   40.5960   27.8740   40.6590 C   0  0  0  0  0  3  0  0  0  0  0  0
   41.2080   27.3070   39.9300 H   0  0  0  0  0  0  0  0  0  0  0  0
   41.5120   28.7320   41.4960 C   0  0  1  0  0  3  0  0  0  0  0  0
   40.4360   30.9050   41.4490 O   0  0  0  0  0  0  0  0  0  0  0  0
   41.0490   30.9760   40.6720 H   0  0  0  0  0  0  0  0  0  0  0  0
   42.4910   29.3360   40.7250 O   0  0  0  0  0  0  0  0  0  0  0  0
   43.3670   28.9430   40.9740 H   0  0  0  0  0  0  0  0  0  0  0  0
  1  2  1  0  0  0  0
  2  3  2  0  0  0  0
  2  7  1  0  0  0  0
  3  8  1  0  0  0  0
  4  9  1  0  0  0  0
  4  3  1  0  0  0  0
  5  4  2  0  0  0  0
  6  5  1  0  0  0  0
  6  1  2  0  0  0  0
 10  5  1  0  0  0  0
 11 12  1  6  0  0  0
 11  1  1  0  0  0  0
 11 22  1  0  0  0  0
 13 14  2  0  0  0  0
 13 18  1  0  0  0  0
 14 15  1  0  0  0  0
 15 21  1  0  0  0  0
 15 16  2  0  0  0  0
 17 16  1  0  0  0  0
 17 11  1  0  0  0  0
 18 17  2  0  0  0  0
 19 13  1  0  0  0  0
 20 14  1  0  0  0  0
 22 23  1  0  0  0  0
 24  6  1  0  0  0  0
 25 24  2  0  0  0  0
 26 27  1  0  0  0  0
 26 25  1  0  0  0  0
 28 26  1  0  0  0  0
 29 26  1  0  0  0  0
 30 38  1  6  0  0  0
 30 31  1  0  0  0  0
 31 32  1  0  0  0  0
 31 29  1  1  0  0  0
 32 33  1  0  0  0  0
 34 32  1  0  0  0  0
 35 37  1  0  0  0  0
 35 34  1  0  0  0  0
 36 35  1  0  0  0  0
 37 40  1  6  0  0  0
 37 30  1  0  0  0  0
 39 38  1  0  0  0  0
 40 41  1  0  0  0  0
M  END
>  <minimizedAffinity>
-6.32347012

>  <minimizedRMSD>
0.669130027

$$$$
