
 OpenBabel03272509413D

 41 43  0  0  1  0  0  0  0  0999 V2000
   37.1010   30.9420   49.0420 C   0  0  0  0  0  0  0  0  0  0  0  0
   36.8270   31.8640   50.0550 C   0  0  0  0  0  0  0  0  0  0  0  0
   37.4160   33.1170   50.0810 C   0  0  0  0  0  0  0  0  0  0  0  0
   38.3110   33.4780   49.0690 C   0  0  0  0  0  0  0  0  0  0  0  0
   38.5710   32.5680   48.0840 C   0  0  0  0  0  0  0  0  0  0  0  0
   37.9630   31.3210   48.0920 C   0  0  0  0  0  0  0  0  0  0  0  0
   36.1310   31.5860   50.8440 H   0  0  0  0  0  0  0  0  0  0  0  0
   37.1510   33.7590   50.8900 H   0  0  0  0  0  0  0  0  0  0  0  0
   38.7180   34.4660   49.1690 H   0  0  0  0  0  0  0  0  0  0  0  0
   39.2830   32.9900   47.3750 H   0  0  0  0  0  0  0  0  0  0  0  0
   36.5140   29.6200   49.0320 C   0  0  2  0  0  0  0  0  0  0  0  0
   37.0070   29.0750   48.1380 H   0  0  0  0  0  0  0  0  0  0  0  0
   33.6270   29.9790   46.8540 C   0  0  0  0  0  0  0  0  0  0  0  0
   32.8930   28.8310   47.0800 C   0  0  0  0  0  0  0  0  0  0  0  0
   33.3500   27.9420   48.0350 C   0  0  0  0  0  0  0  0  0  0  0  0
   34.5100   28.2280   48.7200 N   0  0  0  0  0  0  0  0  0  0  0  0
   35.1670   29.3370   48.4580 C   0  0  0  0  0  0  0  0  0  0  0  0
   34.7340   30.2200   47.5290 N   0  0  0  0  0  0  0  0  0  0  0  0
   33.2340   30.6510   46.0980 H   0  0  0  0  0  0  0  0  0  0  0  0
   31.9780   28.5660   46.5660 H   0  0  0  0  0  0  0  0  0  0  0  0
   32.8770   27.0010   48.3190 H   0  0  0  0  0  0  0  0  0  0  0  0
   36.9910   28.8610   49.9550 O   0  0  0  0  0  0  0  0  0  0  0  0
   36.4990   28.6210   50.7550 H   0  0  0  0  0  0  0  0  0  0  0  0
   38.3480   30.4470   47.0080 C   0  0  0  0  0  3  0  0  0  0  0  0
   38.8440   30.8780   45.8430 C   0  0  0  0  0  3  0  0  0  0  0  0
   39.3110   30.0770   44.6870 C   0  0  0  0  0  0  0  0  0  0  0  0
   38.7520   29.1140   44.6830 H   0  0  0  0  0  0  0  0  0  0  0  0
   40.3920   29.8940   44.8080 H   0  0  0  0  0  0  0  0  0  0  0  0
   39.0790   31.0090   43.1710 S   0  0  0  0  0  0  0  0  0  0  0  0
   40.2250   31.0290   40.6500 C   0  0  1  0  0  3  0  0  0  0  0  0
   39.9260   30.1190   41.8290 C   0  0  1  0  0  3  0  0  0  0  0  0
   41.1880   29.5280   42.4190 C   0  0  0  0  0  3  0  0  0  0  0  0
   41.8010   30.3250   42.8570 H   0  0  0  0  0  0  0  0  0  0  0  0
   41.8550   28.7130   41.5120 O   0  0  0  0  0  0  0  0  0  0  0  0
   41.5030   29.0000   40.1950 C   0  0  0  0  0  3  0  0  0  0  0  0
   42.2690   28.5690   39.5220 H   0  0  0  0  0  0  0  0  0  0  0  0
   41.5120   30.5010   40.0410 C   0  0  1  0  0  3  0  0  0  0  0  0
   39.1630   31.0470   39.7740 O   0  0  0  0  0  0  0  0  0  0  0  0
   39.4430   30.9290   38.8300 H   0  0  0  0  0  0  0  0  0  0  0  0
   41.6240   30.8770   38.7110 O   0  0  0  0  0  0  0  0  0  0  0  0
   42.5080   31.3070   38.5860 H   0  0  0  0  0  0  0  0  0  0  0  0
  1  2  1  0  0  0  0
  2  3  2  0  0  0  0
  2  7  1  0  0  0  0
  3  8  1  0  0  0  0
  4  9  1  0  0  0  0
  4  3  1  0  0  0  0
  5  6  1  0  0  0  0
  5  4  2  0  0  0  0
  6  1  2  0  0  0  0
 10  5  1  0  0  0  0
 11 12  1  6  0  0  0
 11  1  1  0  0  0  0
 11 22  1  0  0  0  0
 13 14  2  0  0  0  0
 13 18  1  0  0  0  0
 14 15  1  0  0  0  0
 15 21  1  0  0  0  0
 15 16  2  0  0  0  0
 17 16  1  0  0  0  0
 17 11  1  0  0  0  0
 18 17  2  0  0  0  0
 19 13  1  0  0  0  0
 20 14  1  0  0  0  0
 22 23  1  0  0  0  0
 24  6  1  0  0  0  0
 25 24  2  0  0  0  0
 26 28  1  0  0  0  0
 26 25  1  0  0  0  0
 27 26  1  0  0  0  0
 29 26  1  0  0  0  0
 30 38  1  6  0  0  0
 30 31  1  0  0  0  0
 31 32  1  0  0  0  0
 31 29  1  1  0  0  0
 32 33  1  0  0  0  0
 34 32  1  0  0  0  0
 35 34  1  0  0  0  0
 36 35  1  0  0  0  0
 37 40  1  6  0  0  0
 37 35  1  0  0  0  0
 37 30  1  0  0  0  0
 39 38  1  0  0  0  0
 41 40  1  0  0  0  0
M  END
>  <minimizedAffinity>
-6.07681084

>  <minimizedRMSD>
0.415295452

$$$$
