
 OpenBabel03272509413D

 41 43  0  0  1  0  0  0  0  0999 V2000
   37.0030   30.9120   49.0570 C   0  0  0  0  0  0  0  0  0  0  0  0
   36.6970   31.8110   50.0810 C   0  0  0  0  0  0  0  0  0  0  0  0
   37.2870   33.0630   50.1550 C   0  0  0  0  0  0  0  0  0  0  0  0
   38.2150   33.4450   49.1820 C   0  0  0  0  0  0  0  0  0  0  0  0
   38.5070   32.5570   48.1850 C   0  0  0  0  0  0  0  0  0  0  0  0
   37.8960   31.3110   48.1440 C   0  0  0  0  0  0  0  0  0  0  0  0
   35.9760   31.5180   50.8390 H   0  0  0  0  0  0  0  0  0  0  0  0
   36.9970   33.6860   50.9690 H   0  0  0  0  0  0  0  0  0  0  0  0
   38.6210   34.4290   49.3180 H   0  0  0  0  0  0  0  0  0  0  0  0
   39.2420   32.9930   47.5090 H   0  0  0  0  0  0  0  0  0  0  0  0
   36.4140   29.5930   48.9970 C   0  0  2  0  0  0  0  0  0  0  0  0
   36.9580   29.0560   48.1280 H   0  0  0  0  0  0  0  0  0  0  0  0
   33.5740   30.0960   46.7880 C   0  0  0  0  0  0  0  0  0  0  0  0
   32.9030   28.8890   46.8250 C   0  0  0  0  0  0  0  0  0  0  0  0
   33.3850   27.9010   47.6620 C   0  0  0  0  0  0  0  0  0  0  0  0
   34.5070   28.1500   48.4220 N   0  0  0  0  0  0  0  0  0  0  0  0
   35.1040   29.3200   48.3410 C   0  0  0  0  0  0  0  0  0  0  0  0
   34.6450   30.3010   47.5300 N   0  0  0  0  0  0  0  0  0  0  0  0
   33.1620   30.8460   46.1200 H   0  0  0  0  0  0  0  0  0  0  0  0
   32.0200   28.6500   46.2470 H   0  0  0  0  0  0  0  0  0  0  0  0
   32.9620   26.9050   47.7950 H   0  0  0  0  0  0  0  0  0  0  0  0
   36.8340   28.8210   49.9380 O   0  0  0  0  0  0  0  0  0  0  0  0
   36.2950   28.5740   50.7040 H   0  0  0  0  0  0  0  0  0  0  0  0
   38.3160   30.4610   47.0540 C   0  0  0  0  0  3  0  0  0  0  0  0
   38.9230   30.9100   45.9490 C   0  0  0  0  0  3  0  0  0  0  0  0
   39.4330   30.1310   44.7970 C   0  0  0  0  0  0  0  0  0  0  0  0
   39.0980   29.0760   44.9150 H   0  0  0  0  0  0  0  0  0  0  0  0
   40.5340   30.1890   44.8020 H   0  0  0  0  0  0  0  0  0  0  0  0
   38.8530   30.8660   43.2650 S   0  0  0  0  0  0  0  0  0  0  0  0
   38.5700   29.3360   40.9740 C   0  0  1  0  0  3  0  0  0  0  0  0
   39.6150   29.9590   41.8840 C   0  0  1  0  0  3  0  0  0  0  0  0
   40.4950   30.9400   41.1430 C   0  0  0  0  0  3  0  0  0  0  0  0
   39.8970   31.7980   40.8120 H   0  0  0  0  0  0  0  0  0  0  0  0
   41.2310   30.3240   40.1380 O   0  0  0  0  0  0  0  0  0  0  0  0
   40.6630   29.1170   39.7390 C   0  0  0  0  0  3  0  0  0  0  0  0
   41.0850   28.8350   38.7560 H   0  0  0  0  0  0  0  0  0  0  0  0
   39.1800   29.3440   39.5840 C   0  0  1  0  0  3  0  0  0  0  0  0
   38.2270   28.0800   41.4220 O   0  0  0  0  0  0  0  0  0  0  0  0
   38.2190   27.4020   40.6980 H   0  0  0  0  0  0  0  0  0  0  0  0
   38.5970   28.3770   38.7790 O   0  0  0  0  0  0  0  0  0  0  0  0
   38.2980   28.8140   37.9400 H   0  0  0  0  0  0  0  0  0  0  0  0
  1  2  1  0  0  0  0
  2  3  2  0  0  0  0
  2  7  1  0  0  0  0
  3  8  1  0  0  0  0
  4  9  1  0  0  0  0
  4  3  1  0  0  0  0
  5  4  2  0  0  0  0
  6  5  1  0  0  0  0
  6  1  2  0  0  0  0
 10  5  1  0  0  0  0
 11 12  1  6  0  0  0
 11  1  1  0  0  0  0
 11 22  1  0  0  0  0
 13 14  2  0  0  0  0
 13 18  1  0  0  0  0
 14 15  1  0  0  0  0
 15 21  1  0  0  0  0
 15 16  2  0  0  0  0
 17 16  1  0  0  0  0
 17 11  1  0  0  0  0
 18 17  2  0  0  0  0
 19 13  1  0  0  0  0
 20 14  1  0  0  0  0
 22 23  1  0  0  0  0
 24  6  1  0  0  0  0
 25 24  2  0  0  0  0
 26 28  1  0  0  0  0
 26 27  1  0  0  0  0
 26 25  1  0  0  0  0
 29 26  1  0  0  0  0
 30 38  1  1  0  0  0
 30 31  1  0  0  0  0
 31 29  1  1  0  0  0
 32 31  1  0  0  0  0
 33 32  1  0  0  0  0
 34 32  1  0  0  0  0
 35 34  1  0  0  0  0
 36 35  1  0  0  0  0
 37 40  1  6  0  0  0
 37 35  1  0  0  0  0
 37 30  1  0  0  0  0
 39 38  1  0  0  0  0
 41 40  1  0  0  0  0
M  END
>  <minimizedAffinity>
-5.5914793

>  <minimizedRMSD>
0.315641314

$$$$
