
 OpenBabel03272509423D

 41 43  0  0  1  0  0  0  0  0999 V2000
   37.0860   30.9410   49.0480 C   0  0  0  0  0  0  0  0  0  0  0  0
   36.8120   31.8860   50.0400 C   0  0  0  0  0  0  0  0  0  0  0  0
   37.4090   33.1360   50.0420 C   0  0  0  0  0  0  0  0  0  0  0  0
   38.3130   33.4690   49.0280 C   0  0  0  0  0  0  0  0  0  0  0  0
   38.5740   32.5360   48.0650 C   0  0  0  0  0  0  0  0  0  0  0  0
   37.9560   31.2930   48.0950 C   0  0  0  0  0  0  0  0  0  0  0  0
   36.1090   31.6300   50.8290 H   0  0  0  0  0  0  0  0  0  0  0  0
   37.1430   33.7970   50.8350 H   0  0  0  0  0  0  0  0  0  0  0  0
   38.7260   34.4560   49.1100 H   0  0  0  0  0  0  0  0  0  0  0  0
   39.2930   32.9370   47.3510 H   0  0  0  0  0  0  0  0  0  0  0  0
   36.4900   29.6230   49.0630 C   0  0  2  0  0  0  0  0  0  0  0  0
   36.9880   29.0540   48.1870 H   0  0  0  0  0  0  0  0  0  0  0  0
   33.6220   29.9600   46.8580 C   0  0  0  0  0  0  0  0  0  0  0  0
   32.8820   28.8170   47.0920 C   0  0  0  0  0  0  0  0  0  0  0  0
   33.3290   27.9400   48.0630 C   0  0  0  0  0  0  0  0  0  0  0  0
   34.4850   28.2310   48.7540 N   0  0  0  0  0  0  0  0  0  0  0  0
   35.1470   29.3360   48.4820 C   0  0  0  0  0  0  0  0  0  0  0  0
   34.7240   30.2080   47.5380 N   0  0  0  0  0  0  0  0  0  0  0  0
   33.2360   30.6220   46.0890 H   0  0  0  0  0  0  0  0  0  0  0  0
   31.9710   28.5470   46.5750 H   0  0  0  0  0  0  0  0  0  0  0  0
   32.8520   27.0040   48.3560 H   0  0  0  0  0  0  0  0  0  0  0  0
   36.9530   28.8820   50.0080 O   0  0  0  0  0  0  0  0  0  0  0  0
   36.4510   28.6640   50.8080 H   0  0  0  0  0  0  0  0  0  0  0  0
   38.3430   30.3930   47.0340 C   0  0  0  0  0  3  0  0  0  0  0  0
   38.8150   30.7970   45.8480 C   0  0  0  0  0  3  0  0  0  0  0  0
   39.2800   29.9690   44.7110 C   0  0  0  0  0  0  0  0  0  0  0  0
   38.6930   29.0240   44.7070 H   0  0  0  0  0  0  0  0  0  0  0  0
   40.3530   29.7570   44.8550 H   0  0  0  0  0  0  0  0  0  0  0  0
   39.1050   30.8900   43.1800 S   0  0  0  0  0  0  0  0  0  0  0  0
   40.1290   28.8150   41.6600 C   0  0  1  0  0  3  0  0  0  0  0  0
   40.3550   30.2770   42.0100 C   0  0  1  0  0  3  0  0  0  0  0  0
   40.2910   31.1650   40.7880 C   0  0  0  0  0  3  0  0  0  0  0  0
   39.2760   31.1530   40.3740 H   0  0  0  0  0  0  0  0  0  0  0  0
   41.2960   30.8680   39.8750 O   0  0  0  0  0  0  0  0  0  0  0  0
   41.7950   29.5800   40.0490 C   0  0  0  0  0  3  0  0  0  0  0  0
   42.3400   29.2850   39.1310 H   0  0  0  0  0  0  0  0  0  0  0  0
   40.6150   28.6570   40.2310 C   0  0  1  0  0  3  0  0  0  0  0  0
   40.7780   27.9990   42.5590 O   0  0  0  0  0  0  0  0  0  0  0  0
   41.2970   27.2780   42.1180 H   0  0  0  0  0  0  0  0  0  0  0  0
   40.9520   27.3400   39.9610 O   0  0  0  0  0  0  0  0  0  0  0  0
   40.4740   27.0610   39.1400 H   0  0  0  0  0  0  0  0  0  0  0  0
  1 11  1  0  0  0  0
  1  2  1  0  0  0  0
  2  3  2  0  0  0  0
  2  7  1  0  0  0  0
  3  8  1  0  0  0  0
  4  9  1  0  0  0  0
  4  3  1  0  0  0  0
  5  6  1  0  0  0  0
  5  4  2  0  0  0  0
  6  1  2  0  0  0  0
 10  5  1  0  0  0  0
 11 12  1  6  0  0  0
 11 22  1  0  0  0  0
 13 14  2  0  0  0  0
 13 18  1  0  0  0  0
 14 15  1  0  0  0  0
 15 21  1  0  0  0  0
 15 16  2  0  0  0  0
 17 16  1  0  0  0  0
 17 11  1  0  0  0  0
 18 17  2  0  0  0  0
 19 13  1  0  0  0  0
 20 14  1  0  0  0  0
 22 23  1  0  0  0  0
 24  6  1  0  0  0  0
 25 24  2  0  0  0  0
 26 28  1  0  0  0  0
 26 25  1  0  0  0  0
 27 26  1  0  0  0  0
 29 26  1  0  0  0  0
 30 31  1  0  0  0  0
 30 38  1  1  0  0  0
 31 29  1  1  0  0  0
 32 31  1  0  0  0  0
 33 32  1  0  0  0  0
 34 35  1  0  0  0  0
 34 32  1  0  0  0  0
 35 37  1  0  0  0  0
 36 35  1  0  0  0  0
 37 40  1  1  0  0  0
 37 30  1  0  0  0  0
 39 38  1  0  0  0  0
 41 40  1  0  0  0  0
M  END
>  <minimizedAffinity>
-6.25482607

>  <minimizedRMSD>
0.884146273

$$$$
