
 OpenBabel03272509443D

 41 43  0  0  1  0  0  0  0  0999 V2000
   37.0050   24.1810   31.4650 C   0  0  0  0  0  0  0  0  0  0  0  0
   35.7640   23.6420   31.1180 C   0  0  0  0  0  0  0  0  0  0  0  0
   35.5060   22.2840   31.2110 C   0  0  0  0  0  0  0  0  0  0  0  0
   36.5090   21.4220   31.6660 C   0  0  0  0  0  0  0  0  0  0  0  0
   37.7180   21.9610   32.0030 C   0  0  0  0  0  0  0  0  0  0  0  0
   37.9400   23.3270   31.8950 C   0  0  0  0  0  0  0  0  0  0  0  0
   34.9820   24.3090   30.7640 H   0  0  0  0  0  0  0  0  0  0  0  0
   34.5320   21.9560   30.9260 H   0  0  0  0  0  0  0  0  0  0  0  0
   36.2210   20.3890   31.7070 H   0  0  0  0  0  0  0  0  0  0  0  0
   38.3920   21.1720   32.3340 H   0  0  0  0  0  0  0  0  0  0  0  0
   37.2870   25.5940   31.3360 C   0  0  2  0  0  0  0  0  0  0  0  0
   38.3230   25.7430   31.8300 H   0  0  0  0  0  0  0  0  0  0  0  0
   36.8440   27.5670   34.3540 C   0  0  0  0  0  0  0  0  0  0  0  0
   36.0120   28.5970   33.9620 C   0  0  0  0  0  0  0  0  0  0  0  0
   35.5380   28.5940   32.6630 C   0  0  0  0  0  0  0  0  0  0  0  0
   35.9100   27.5750   31.8130 N   0  0  0  0  0  0  0  0  0  0  0  0
   36.7080   26.6220   32.2460 C   0  0  0  0  0  0  0  0  0  0  0  0
   37.1790   26.6070   33.5140 N   0  0  0  0  0  0  0  0  0  0  0  0
   37.1920   27.6060   35.3810 H   0  0  0  0  0  0  0  0  0  0  0  0
   35.6950   29.4170   34.5930 H   0  0  0  0  0  0  0  0  0  0  0  0
   34.8780   29.3360   32.2150 H   0  0  0  0  0  0  0  0  0  0  0  0
   37.6410   25.9190   30.1420 O   0  0  0  0  0  0  0  0  0  0  0  0
   37.0650   26.4010   29.5290 H   0  0  0  0  0  0  0  0  0  0  0  0
   39.2700   23.7600   32.2570 C   0  0  0  0  0  3  0  0  0  0  0  0
   40.0820   23.0750   33.0710 C   0  0  0  0  0  3  0  0  0  0  0  0
   41.4710   23.3970   33.4730 C   0  0  0  0  0  0  0  0  0  0  0  0
   41.8500   24.1970   32.7980 H   0  0  0  0  0  0  0  0  0  0  0  0
   42.0810   22.4850   33.3700 H   0  0  0  0  0  0  0  0  0  0  0  0
   41.5030   23.8860   35.2000 S   0  0  0  0  0  0  0  0  0  0  0  0
   40.0330   22.9030   37.3300 C   0  0  1  0  0  3  0  0  0  0  0  0
   39.8880   23.4760   35.9300 C   0  0  1  0  0  3  0  0  0  0  0  0
   39.0650   24.7450   35.9230 C   0  0  0  0  0  3  0  0  0  0  0  0
   39.5930   25.5330   36.4720 H   0  0  0  0  0  0  0  0  0  0  0  0
   37.7580   24.5210   36.3430 O   0  0  0  0  0  0  0  0  0  0  0  0
   37.6460   23.3560   37.0990 C   0  0  0  0  0  3  0  0  0  0  0  0
   36.6930   23.3910   37.6610 H   0  0  0  0  0  0  0  0  0  0  0  0
   38.7900   23.3430   38.0830 C   0  0  1  0  0  3  0  0  0  0  0  0
   40.1950   21.5370   37.2770 O   0  0  0  0  0  0  0  0  0  0  0  0
   39.6120   21.0560   37.9180 H   0  0  0  0  0  0  0  0  0  0  0  0
   38.5320   22.4990   39.1520 O   0  0  0  0  0  0  0  0  0  0  0  0
   38.4260   23.0570   39.9650 H   0  0  0  0  0  0  0  0  0  0  0  0
  1  6  1  0  0  0  0
  2  3  1  0  0  0  0
  2  1  2  0  0  0  0
  3  4  2  0  0  0  0
  4  9  1  0  0  0  0
  4  5  1  0  0  0  0
  5 10  1  0  0  0  0
  6  5  2  0  0  0  0
  6 24  1  0  0  0  0
  7  2  1  0  0  0  0
  8  3  1  0  0  0  0
 11  1  1  0  0  0  0
 11 12  1  1  0  0  0
 11 17  1  0  0  0  0
 13 19  1  0  0  0  0
 14 13  1  0  0  0  0
 14 20  1  0  0  0  0
 15 14  2  0  0  0  0
 16 17  2  0  0  0  0
 16 15  1  0  0  0  0
 17 18  1  0  0  0  0
 18 13  2  0  0  0  0
 21 15  1  0  0  0  0
 22 11  1  0  0  0  0
 23 22  1  0  0  0  0
 24 25  2  0  0  0  0
 25 26  1  0  0  0  0
 26 29  1  0  0  0  0
 27 26  1  0  0  0  0
 28 26  1  0  0  0  0
 30 38  1  6  0  0  0
 30 37  1  0  0  0  0
 31 29  1  1  0  0  0
 31 30  1  0  0  0  0
 32 31  1  0  0  0  0
 32 34  1  0  0  0  0
 32 33  1  0  0  0  0
 34 35  1  0  0  0  0
 35 36  1  0  0  0  0
 35 37  1  0  0  0  0
 37 40  1  1  0  0  0
 38 39  1  0  0  0  0
 40 41  1  0  0  0  0
M  END
>  <minimizedAffinity>
-6.03649807

$$$$

 OpenBabel03272509443D

 41 43  0  0  1  0  0  0  0  0999 V2000
   35.6370   29.8690   33.5320 C   0  0  0  0  0  0  0  0  0  0  0  0
   35.3280   30.4760   32.3130 C   0  0  0  0  0  0  0  0  0  0  0  0
   35.6610   29.8920   31.1010 C   0  0  0  0  0  0  0  0  0  0  0  0
   36.3240   28.6610   31.0890 C   0  0  0  0  0  0  0  0  0  0  0  0
   36.6220   28.0780   32.2880 C   0  0  0  0  0  0  0  0  0  0  0  0
   36.2730   28.6930   33.4820 C   0  0  0  0  0  0  0  0  0  0  0  0
   34.8120   31.4320   32.3180 H   0  0  0  0  0  0  0  0  0  0  0  0
   35.3870   30.4220   30.2180 H   0  0  0  0  0  0  0  0  0  0  0  0
   36.5420   28.2840   30.1090 H   0  0  0  0  0  0  0  0  0  0  0  0
   37.1360   27.1320   32.1180 H   0  0  0  0  0  0  0  0  0  0  0  0
   35.3210   30.4930   34.7980 C   0  0  2  0  0  0  0  0  0  0  0  0
   35.7240   29.7660   35.6040 H   0  0  0  0  0  0  0  0  0  0  0  0
   32.0370   29.1630   35.6010 C   0  0  0  0  0  0  0  0  0  0  0  0
   31.6020   29.9520   36.6480 C   0  0  0  0  0  0  0  0  0  0  0  0
   32.4100   30.9990   37.0540 C   0  0  0  0  0  0  0  0  0  0  0  0
   33.6080   31.2140   36.4080 N   0  0  0  0  0  0  0  0  0  0  0  0
   33.9680   30.4250   35.4190 C   0  0  0  0  0  0  0  0  0  0  0  0
   33.1900   29.3980   35.0050 N   0  0  0  0  0  0  0  0  0  0  0  0
   31.3730   28.3540   35.3120 H   0  0  0  0  0  0  0  0  0  0  0  0
   30.6710   29.8200   37.1830 H   0  0  0  0  0  0  0  0  0  0  0  0
   32.1980   31.7010   37.8600 H   0  0  0  0  0  0  0  0  0  0  0  0
   36.1060   31.4750   35.0740 O   0  0  0  0  0  0  0  0  0  0  0  0
   35.8350   32.4040   35.0210 H   0  0  0  0  0  0  0  0  0  0  0  0
   36.6720   27.9820   34.6750 C   0  0  0  0  0  3  0  0  0  0  0  0
   37.2530   26.7760   34.6650 C   0  0  0  0  0  3  0  0  0  0  0  0
   37.7410   25.9790   35.8150 C   0  0  0  0  0  0  0  0  0  0  0  0
   36.9450   25.9680   36.5930 H   0  0  0  0  0  0  0  0  0  0  0  0
   38.6550   26.4580   36.2040 H   0  0  0  0  0  0  0  0  0  0  0  0
   38.1800   24.3280   35.2630 S   0  0  0  0  0  0  0  0  0  0  0  0
   39.5950   22.6010   36.9020 C   0  0  1  0  0  3  0  0  0  0  0  0
   39.7440   23.8640   36.0690 C   0  0  1  0  0  3  0  0  0  0  0  0
   40.7740   23.6990   34.9750 C   0  0  0  0  0  3  0  0  0  0  0  0
   40.4300   22.9510   34.2510 H   0  0  0  0  0  0  0  0  0  0  0  0
   42.0460   23.4680   35.4870 O   0  0  0  0  0  0  0  0  0  0  0  0
   42.0030   22.9790   36.7900 C   0  0  0  0  0  3  0  0  0  0  0  0
   42.9830   22.5210   37.0280 H   0  0  0  0  0  0  0  0  0  0  0  0
   40.9430   21.9060   36.8360 C   0  0  1  0  0  3  0  0  0  0  0  0
   39.1920   22.9130   38.1810 O   0  0  0  0  0  0  0  0  0  0  0  0
   39.7240   22.4450   38.8750 H   0  0  0  0  0  0  0  0  0  0  0  0
   41.1200   21.0610   37.9210 O   0  0  0  0  0  0  0  0  0  0  0  0
   41.3750   20.1670   37.5760 H   0  0  0  0  0  0  0  0  0  0  0  0
  1 11  1  0  0  0  0
  2  7  1  0  0  0  0
  2  1  2  0  0  0  0
  3  2  1  0  0  0  0
  4  3  2  0  0  0  0
  4  5  1  0  0  0  0
  5  6  2  0  0  0  0
  6  1  1  0  0  0  0
  6 24  1  0  0  0  0
  8  3  1  0  0  0  0
  9  4  1  0  0  0  0
 10  5  1  0  0  0  0
 11 22  1  0  0  0  0
 11 17  1  0  0  0  0
 11 12  1  1  0  0  0
 13 14  1  0  0  0  0
 14 15  2  0  0  0  0
 14 20  1  0  0  0  0
 15 21  1  0  0  0  0
 16 15  1  0  0  0  0
 17 16  2  0  0  0  0
 18 17  1  0  0  0  0
 18 13  2  0  0  0  0
 19 13  1  0  0  0  0
 23 22  1  0  0  0  0
 25 24  2  0  0  0  0
 25 26  1  0  0  0  0
 26 28  1  0  0  0  0
 26 27  1  0  0  0  0
 29 26  1  0  0  0  0
 30 38  1  1  0  0  0
 31 29  1  6  0  0  0
 31 30  1  0  0  0  0
 32 34  1  0  0  0  0
 32 31  1  0  0  0  0
 33 32  1  0  0  0  0
 34 35  1  0  0  0  0
 35 37  1  0  0  0  0
 35 36  1  0  0  0  0
 37 30  1  0  0  0  0
 37 40  1  1  0  0  0
 38 39  1  0  0  0  0
 41 40  1  0  0  0  0
M  END
>  <minimizedAffinity>
-5.9951396

$$$$

 OpenBabel03272509443D

 41 43  0  0  1  0  0  0  0  0999 V2000
   36.9540   27.9340   32.2480 C   0  0  0  0  0  0  0  0  0  0  0  0
   36.5160   29.0670   31.5580 C   0  0  0  0  0  0  0  0  0  0  0  0
   35.8330   30.0900   32.1940 C   0  0  0  0  0  0  0  0  0  0  0  0
   35.5700   29.9950   33.5650 C   0  0  0  0  0  0  0  0  0  0  0  0
   36.0030   28.8810   34.2280 C   0  0  0  0  0  0  0  0  0  0  0  0
   36.6840   27.8760   33.5570 C   0  0  0  0  0  0  0  0  0  0  0  0
   36.7200   29.1450   30.4930 H   0  0  0  0  0  0  0  0  0  0  0  0
   35.5350   30.9190   31.5940 H   0  0  0  0  0  0  0  0  0  0  0  0
   35.0370   30.8310   33.9730 H   0  0  0  0  0  0  0  0  0  0  0  0
   35.7240   28.9490   35.2790 H   0  0  0  0  0  0  0  0  0  0  0  0
   37.6380   26.8490   31.5790 C   0  0  2  0  0  0  0  0  0  0  0  0
   37.5300   27.0720   30.4480 H   0  0  0  0  0  0  0  0  0  0  0  0
   37.3530   23.2270   31.5620 C   0  0  0  0  0  0  0  0  0  0  0  0
   36.0080   22.9970   31.3410 C   0  0  0  0  0  0  0  0  0  0  0  0
   35.1870   24.0900   31.1310 C   0  0  0  0  0  0  0  0  0  0  0  0
   35.7310   25.3550   31.1510 N   0  0  0  0  0  0  0  0  0  0  0  0
   37.0200   25.5090   31.3690 C   0  0  0  0  0  0  0  0  0  0  0  0
   37.8400   24.4520   31.5740 N   0  0  0  0  0  0  0  0  0  0  0  0
   37.9630   22.3430   31.7200 H   0  0  0  0  0  0  0  0  0  0  0  0
   35.5380   22.0230   31.3170 H   0  0  0  0  0  0  0  0  0  0  0  0
   34.1130   24.0620   30.9450 H   0  0  0  0  0  0  0  0  0  0  0  0
   38.9190   26.9640   31.6340 O   0  0  0  0  0  0  0  0  0  0  0  0
   39.4780   26.4140   32.2040 H   0  0  0  0  0  0  0  0  0  0  0  0
   37.0590   26.7430   34.3710 C   0  0  0  0  0  3  0  0  0  0  0  0
   37.8120   26.8340   35.4740 C   0  0  0  0  0  3  0  0  0  0  0  0
   38.2190   25.7550   36.4040 C   0  0  0  0  0  0  0  0  0  0  0  0
   37.3730   25.5600   37.1000 H   0  0  0  0  0  0  0  0  0  0  0  0
   39.1070   26.0970   36.9620 H   0  0  0  0  0  0  0  0  0  0  0  0
   38.6870   24.2960   35.4700 S   0  0  0  0  0  0  0  0  0  0  0  0
   40.1260   22.3680   36.8410 C   0  0  1  0  0  3  0  0  0  0  0  0
   40.2770   23.6980   36.1220 C   0  0  1  0  0  3  0  0  0  0  0  0
   41.2270   23.6000   34.9490 C   0  0  0  0  0  3  0  0  0  0  0  0
   40.8050   22.9390   34.1840 H   0  0  0  0  0  0  0  0  0  0  0  0
   42.5180   23.2730   35.3500 O   0  0  0  0  0  0  0  0  0  0  0  0
   42.5360   22.6630   36.6030 C   0  0  0  0  0  3  0  0  0  0  0  0
   43.5090   22.1480   36.7300 H   0  0  0  0  0  0  0  0  0  0  0  0
   41.4350   21.6320   36.6200 C   0  0  1  0  0  3  0  0  0  0  0  0
   39.8200   22.5700   38.1680 O   0  0  0  0  0  0  0  0  0  0  0  0
   40.3740   22.0180   38.7780 H   0  0  0  0  0  0  0  0  0  0  0  0
   41.6440   20.6810   37.6060 O   0  0  0  0  0  0  0  0  0  0  0  0
   41.8370   19.8150   37.1630 H   0  0  0  0  0  0  0  0  0  0  0  0
  1  6  1  0  0  0  0
  2  3  1  0  0  0  0
  2  1  2  0  0  0  0
  3  4  2  0  0  0  0
  4  9  1  0  0  0  0
  4  5  1  0  0  0  0
  5 10  1  0  0  0  0
  6  5  2  0  0  0  0
  6 24  1  0  0  0  0
  7  2  1  0  0  0  0
  8  3  1  0  0  0  0
 11 12  1  6  0  0  0
 11 22  1  0  0  0  0
 11  1  1  0  0  0  0
 13 18  1  0  0  0  0
 13 19  1  0  0  0  0
 14 13  2  0  0  0  0
 15 16  2  0  0  0  0
 15 14  1  0  0  0  0
 16 17  1  0  0  0  0
 17 18  2  0  0  0  0
 17 11  1  0  0  0  0
 20 14  1  0  0  0  0
 21 15  1  0  0  0  0
 22 23  1  0  0  0  0
 24 25  2  0  0  0  0
 25 26  1  0  0  0  0
 26 28  1  0  0  0  0
 26 27  1  0  0  0  0
 29 26  1  0  0  0  0
 30 38  1  1  0  0  0
 31 29  1  6  0  0  0
 31 30  1  0  0  0  0
 32 34  1  0  0  0  0
 32 31  1  0  0  0  0
 33 32  1  0  0  0  0
 34 35  1  0  0  0  0
 35 37  1  0  0  0  0
 35 36  1  0  0  0  0
 37 30  1  0  0  0  0
 37 40  1  1  0  0  0
 38 39  1  0  0  0  0
 41 40  1  0  0  0  0
M  END
>  <minimizedAffinity>
-5.98398781

$$$$

 OpenBabel03272509443D

 41 43  0  0  1  0  0  0  0  0999 V2000
   36.2720   28.4480   31.8040 C   0  0  0  0  0  0  0  0  0  0  0  0
   35.3060   29.4570   31.8060 C   0  0  0  0  0  0  0  0  0  0  0  0
   34.8450   30.0240   32.9830 C   0  0  0  0  0  0  0  0  0  0  0  0
   35.3560   29.5810   34.2070 C   0  0  0  0  0  0  0  0  0  0  0  0
   36.3000   28.5930   34.1920 C   0  0  0  0  0  0  0  0  0  0  0  0
   36.7370   28.0480   32.9930 C   0  0  0  0  0  0  0  0  0  0  0  0
   34.9070   29.8040   30.8560 H   0  0  0  0  0  0  0  0  0  0  0  0
   34.1070   30.7880   32.8940 H   0  0  0  0  0  0  0  0  0  0  0  0
   34.9420   30.0750   35.0650 H   0  0  0  0  0  0  0  0  0  0  0  0
   36.5970   28.3550   35.2130 H   0  0  0  0  0  0  0  0  0  0  0  0
   36.7300   27.8300   30.5790 C   0  0  2  0  0  0  0  0  0  0  0  0
   37.6180   27.1570   30.8910 H   0  0  0  0  0  0  0  0  0  0  0  0
   39.4880   28.3190   28.2640 C   0  0  0  0  0  0  0  0  0  0  0  0
   39.1700   29.4920   27.6070 C   0  0  0  0  0  0  0  0  0  0  0  0
   38.0280   30.1680   27.9960 C   0  0  0  0  0  0  0  0  0  0  0  0
   37.2550   29.6540   29.0130 N   0  0  0  0  0  0  0  0  0  0  0  0
   37.6090   28.5300   29.5990 C   0  0  0  0  0  0  0  0  0  0  0  0
   38.7240   27.8560   29.2340 N   0  0  0  0  0  0  0  0  0  0  0  0
   40.3920   27.8200   27.9300 H   0  0  0  0  0  0  0  0  0  0  0  0
   39.7460   29.9320   26.8040 H   0  0  0  0  0  0  0  0  0  0  0  0
   37.6550   31.1000   27.5710 H   0  0  0  0  0  0  0  0  0  0  0  0
   35.9530   26.8840   30.1830 O   0  0  0  0  0  0  0  0  0  0  0  0
   35.3520   26.9690   29.4270 H   0  0  0  0  0  0  0  0  0  0  0  0
   37.7160   26.9940   33.1230 C   0  0  0  0  0  3  0  0  0  0  0  0
   37.4940   25.8470   33.7750 C   0  0  0  0  0  3  0  0  0  0  0  0
   38.4020   24.6860   33.9320 C   0  0  0  0  0  0  0  0  0  0  0  0
   39.4420   25.0290   33.7360 H   0  0  0  0  0  0  0  0  0  0  0  0
   38.1060   23.9140   33.2020 H   0  0  0  0  0  0  0  0  0  0  0  0
   38.2110   23.9870   35.5750 S   0  0  0  0  0  0  0  0  0  0  0  0
   39.8660   22.3620   37.0870 C   0  0  1  0  0  3  0  0  0  0  0  0
   39.8700   23.6110   36.2210 C   0  0  1  0  0  3  0  0  0  0  0  0
   40.7860   23.4670   35.0270 C   0  0  0  0  0  3  0  0  0  0  0  0
   40.4040   22.6880   34.3570 H   0  0  0  0  0  0  0  0  0  0  0  0
   42.1150   23.3030   35.4070 O   0  0  0  0  0  0  0  0  0  0  0  0
   42.2300   22.8420   36.7160 C   0  0  0  0  0  3  0  0  0  0  0  0
   43.2490   22.4330   36.8580 H   0  0  0  0  0  0  0  0  0  0  0  0
   41.2300   21.7250   36.8920 C   0  0  1  0  0  3  0  0  0  0  0  0
   39.5850   22.6840   38.3950 O   0  0  0  0  0  0  0  0  0  0  0  0
   40.2070   22.2550   39.0380 H   0  0  0  0  0  0  0  0  0  0  0  0
   41.5580   20.9130   37.9670 O   0  0  0  0  0  0  0  0  0  0  0  0
   41.8170   20.0240   37.6130 H   0  0  0  0  0  0  0  0  0  0  0  0
  1  2  2  0  0  0  0
  1  6  1  0  0  0  0
  2  3  1  0  0  0  0
  3  4  2  0  0  0  0
  4  9  1  0  0  0  0
  5  4  1  0  0  0  0
  5 10  1  0  0  0  0
  6 24  1  0  0  0  0
  6  5  2  0  0  0  0
  7  2  1  0  0  0  0
  8  3  1  0  0  0  0
 11 12  1  1  0  0  0
 11  1  1  0  0  0  0
 13 18  1  0  0  0  0
 14 15  1  0  0  0  0
 14 13  2  0  0  0  0
 15 16  2  0  0  0  0
 16 17  1  0  0  0  0
 17 11  1  0  0  0  0
 18 17  2  0  0  0  0
 19 13  1  0  0  0  0
 20 14  1  0  0  0  0
 21 15  1  0  0  0  0
 22 11  1  0  0  0  0
 23 22  1  0  0  0  0
 24 25  2  0  0  0  0
 25 26  1  0  0  0  0
 26 29  1  0  0  0  0
 27 26  1  0  0  0  0
 28 26  1  0  0  0  0
 30 38  1  1  0  0  0
 31 29  1  6  0  0  0
 31 30  1  0  0  0  0
 32 34  1  0  0  0  0
 32 31  1  0  0  0  0
 33 32  1  0  0  0  0
 34 35  1  0  0  0  0
 35 36  1  0  0  0  0
 35 37  1  0  0  0  0
 37 30  1  0  0  0  0
 37 40  1  1  0  0  0
 38 39  1  0  0  0  0
 41 40  1  0  0  0  0
M  END
>  <minimizedAffinity>
-5.98331022

$$$$

 OpenBabel03272509443D

 41 43  0  0  1  0  0  0  0  0999 V2000
   39.9940   26.9910   34.1980 C   0  0  0  0  0  0  0  0  0  0  0  0
   41.3890   27.0390   34.1400 C   0  0  0  0  0  0  0  0  0  0  0  0
   42.0630   27.2610   32.9500 C   0  0  0  0  0  0  0  0  0  0  0  0
   41.3360   27.4450   31.7700 C   0  0  0  0  0  0  0  0  0  0  0  0
   39.9720   27.3960   31.8400 C   0  0  0  0  0  0  0  0  0  0  0  0
   39.3310   27.1700   33.0490 C   0  0  0  0  0  0  0  0  0  0  0  0
   41.9580   26.8970   35.0550 H   0  0  0  0  0  0  0  0  0  0  0  0
   43.1280   27.2830   32.9950 H   0  0  0  0  0  0  0  0  0  0  0  0
   41.9390   27.6110   30.8990 H   0  0  0  0  0  0  0  0  0  0  0  0
   39.5490   27.5530   30.8480 H   0  0  0  0  0  0  0  0  0  0  0  0
   39.2890   26.7250   35.4320 C   0  0  2  0  0  0  0  0  0  0  0  0
   40.1130   26.6410   36.2410 H   0  0  0  0  0  0  0  0  0  0  0  0
   39.2090   23.0990   35.6530 C   0  0  0  0  0  0  0  0  0  0  0  0
   38.2370   22.8420   36.6000 C   0  0  0  0  0  0  0  0  0  0  0  0
   37.5470   23.9150   37.1330 C   0  0  0  0  0  0  0  0  0  0  0  0
   37.8510   25.1900   36.7080 N   0  0  0  0  0  0  0  0  0  0  0  0
   38.7910   25.3700   35.8040 C   0  0  0  0  0  0  0  0  0  0  0  0
   39.4740   24.3320   35.2690 N   0  0  0  0  0  0  0  0  0  0  0  0
   39.7260   22.2300   35.2590 H   0  0  0  0  0  0  0  0  0  0  0  0
   37.9650   21.8600   36.9640 H   0  0  0  0  0  0  0  0  0  0  0  0
   36.7580   23.8660   37.8840 H   0  0  0  0  0  0  0  0  0  0  0  0
   38.7150   27.7730   35.9080 O   0  0  0  0  0  0  0  0  0  0  0  0
   37.7570   27.9170   35.8760 H   0  0  0  0  0  0  0  0  0  0  0  0
   37.8890   27.1140   32.9760 C   0  0  0  0  0  3  0  0  0  0  0  0
   37.1480   27.9480   32.2380 C   0  0  0  0  0  3  0  0  0  0  0  0
   35.6780   27.9560   32.0530 C   0  0  0  0  0  0  0  0  0  0  0  0
   35.2240   27.3240   32.8500 H   0  0  0  0  0  0  0  0  0  0  0  0
   35.4530   27.5410   31.0570 H   0  0  0  0  0  0  0  0  0  0  0  0
   35.0720   29.6450   32.0910 S   0  0  0  0  0  0  0  0  0  0  0  0
   35.5420   30.6380   34.6330 C   0  0  1  0  0  3  0  0  0  0  0  0
   34.4700   29.9880   33.7740 C   0  0  1  0  0  3  0  0  0  0  0  0
   33.2480   30.8670   33.6360 C   0  0  0  0  0  3  0  0  0  0  0  0
   33.5060   31.7780   33.0830 H   0  0  0  0  0  0  0  0  0  0  0  0
   32.6250   31.0890   34.8600 O   0  0  0  0  0  0  0  0  0  0  0  0
   33.4900   30.8770   35.9310 C   0  0  0  0  0  3  0  0  0  0  0  0
   33.0630   31.3620   36.8310 H   0  0  0  0  0  0  0  0  0  0  0  0
   34.8000   31.5480   35.5950 C   0  0  1  0  0  3  0  0  0  0  0  0
   36.3080   29.6790   35.2550 O   0  0  0  0  0  0  0  0  0  0  0  0
   36.4410   29.8600   36.2210 H   0  0  0  0  0  0  0  0  0  0  0  0
   35.5540   31.7910   36.7330 O   0  0  0  0  0  0  0  0  0  0  0  0
   35.6000   32.7720   36.8680 H   0  0  0  0  0  0  0  0  0  0  0  0
  1 11  1  0  0  0  0
  2  1  1  0  0  0  0
  2  7  1  0  0  0  0
  3  8  1  0  0  0  0
  3  2  2  0  0  0  0
  4  5  2  0  0  0  0
  4  3  1  0  0  0  0
  5  6  1  0  0  0  0
  6  1  2  0  0  0  0
  9  4  1  0  0  0  0
 10  5  1  0  0  0  0
 11 17  1  0  0  0  0
 11 22  1  0  0  0  0
 11 12  1  1  0  0  0
 13 14  1  0  0  0  0
 14 20  1  0  0  0  0
 14 15  2  0  0  0  0
 15 21  1  0  0  0  0
 16 15  1  0  0  0  0
 17 16  2  0  0  0  0
 18 13  2  0  0  0  0
 18 17  1  0  0  0  0
 19 13  1  0  0  0  0
 23 22  1  0  0  0  0
 24  6  1  0  0  0  0
 25 24  2  0  0  0  0
 26 29  1  0  0  0  0
 26 25  1  0  0  0  0
 26 27  1  0  0  0  0
 28 26  1  0  0  0  0
 30 38  1  1  0  0  0
 30 37  1  0  0  0  0
 31 29  1  6  0  0  0
 31 30  1  0  0  0  0
 32 31  1  0  0  0  0
 32 34  1  0  0  0  0
 33 32  1  0  0  0  0
 34 35  1  0  0  0  0
 35 36  1  0  0  0  0
 37 35  1  0  0  0  0
 37 40  1  1  0  0  0
 38 39  1  0  0  0  0
 40 41  1  0  0  0  0
M  END
>  <minimizedAffinity>
-5.75304079

$$$$

 OpenBabel03272509443D

 41 43  0  0  1  0  0  0  0  0999 V2000
   36.0870   28.7230   32.2890 C   0  0  0  0  0  0  0  0  0  0  0  0
   35.2340   29.6830   31.7390 C   0  0  0  0  0  0  0  0  0  0  0  0
   34.4440   30.4980   32.5330 C   0  0  0  0  0  0  0  0  0  0  0  0
   34.4960   30.3640   33.9240 C   0  0  0  0  0  0  0  0  0  0  0  0
   35.3340   29.4220   34.4500 C   0  0  0  0  0  0  0  0  0  0  0  0
   36.1100   28.6220   33.6220 C   0  0  0  0  0  0  0  0  0  0  0  0
   35.1910   29.7900   30.6580 H   0  0  0  0  0  0  0  0  0  0  0  0
   33.8210   31.2040   32.0320 H   0  0  0  0  0  0  0  0  0  0  0  0
   33.8520   31.0350   34.4590 H   0  0  0  0  0  0  0  0  0  0  0  0
   35.2640   29.4340   35.5370 H   0  0  0  0  0  0  0  0  0  0  0  0
   36.8870   27.8480   31.4600 C   0  0  2  0  0  0  0  0  0  0  0  0
   36.5450   28.0600   30.3750 H   0  0  0  0  0  0  0  0  0  0  0  0
   37.3620   24.2470   31.5760 C   0  0  0  0  0  0  0  0  0  0  0  0
   36.1110   23.7350   31.2910 C   0  0  0  0  0  0  0  0  0  0  0  0
   35.0950   24.6240   30.9920 C   0  0  0  0  0  0  0  0  0  0  0  0
   35.3620   25.9760   30.9900 N   0  0  0  0  0  0  0  0  0  0  0  0
   36.5750   26.4020   31.2730 C   0  0  0  0  0  0  0  0  0  0  0  0
   37.5820   25.5480   31.5650 N   0  0  0  0  0  0  0  0  0  0  0  0
   38.1310   23.5170   31.8040 H   0  0  0  0  0  0  0  0  0  0  0  0
   35.8560   22.6840   31.2820 H   0  0  0  0  0  0  0  0  0  0  0  0
   34.0640   24.3670   30.7480 H   0  0  0  0  0  0  0  0  0  0  0  0
   38.0960   28.2670   31.3240 O   0  0  0  0  0  0  0  0  0  0  0  0
   38.8550   27.8580   31.7670 H   0  0  0  0  0  0  0  0  0  0  0  0
   36.9290   27.6490   34.3070 C   0  0  0  0  0  3  0  0  0  0  0  0
   37.7460   27.9450   35.3240 C   0  0  0  0  0  3  0  0  0  0  0  0
   38.5930   27.0290   36.1240 C   0  0  0  0  0  0  0  0  0  0  0  0
   37.9230   26.3820   36.7340 H   0  0  0  0  0  0  0  0  0  0  0  0
   39.2400   27.6380   36.7770 H   0  0  0  0  0  0  0  0  0  0  0  0
   39.6550   26.0790   35.0320 S   0  0  0  0  0  0  0  0  0  0  0  0
   40.3840   23.5830   35.9850 C   0  0  1  0  0  3  0  0  0  0  0  0
   39.2650   24.3170   35.2640 C   0  0  1  0  0  3  0  0  0  0  0  0
   37.9620   24.2500   36.0290 C   0  0  0  0  0  3  0  0  0  0  0  0
   38.0590   24.7920   36.9760 H   0  0  0  0  0  0  0  0  0  0  0  0
   37.4980   22.9440   36.1530 O   0  0  0  0  0  0  0  0  0  0  0  0
   38.5180   22.0100   35.9900 C   0  0  0  0  0  3  0  0  0  0  0  0
   38.1790   21.0410   36.4040 H   0  0  0  0  0  0  0  0  0  0  0  0
   39.7040   22.4900   36.7900 C   0  0  1  0  0  3  0  0  0  0  0  0
   41.3110   23.1130   35.0830 O   0  0  0  0  0  0  0  0  0  0  0  0
   41.5590   22.1670   35.2460 H   0  0  0  0  0  0  0  0  0  0  0  0
   40.5840   21.4560   37.0670 O   0  0  0  0  0  0  0  0  0  0  0  0
   40.5610   21.2850   38.0440 H   0  0  0  0  0  0  0  0  0  0  0  0
  1  6  1  0  0  0  0
  2  1  2  0  0  0  0
  2  3  1  0  0  0  0
  3  4  2  0  0  0  0
  4  5  1  0  0  0  0
  4  9  1  0  0  0  0
  5 10  1  0  0  0  0
  6 24  1  0  0  0  0
  6  5  2  0  0  0  0
  7  2  1  0  0  0  0
  8  3  1  0  0  0  0
 11 12  1  6  0  0  0
 11  1  1  0  0  0  0
 13 19  1  0  0  0  0
 14 13  2  0  0  0  0
 15 14  1  0  0  0  0
 16 15  2  0  0  0  0
 16 17  1  0  0  0  0
 17 11  1  0  0  0  0
 17 18  2  0  0  0  0
 18 13  1  0  0  0  0
 20 14  1  0  0  0  0
 21 15  1  0  0  0  0
 22 11  1  0  0  0  0
 22 23  1  0  0  0  0
 24 25  2  0  0  0  0
 25 26  1  0  0  0  0
 26 27  1  0  0  0  0
 26 28  1  0  0  0  0
 29 26  1  0  0  0  0
 30 38  1  6  0  0  0
 30 37  1  0  0  0  0
 31 29  1  1  0  0  0
 31 30  1  0  0  0  0
 31 32  1  0  0  0  0
 32 34  1  0  0  0  0
 32 33  1  0  0  0  0
 35 34  1  0  0  0  0
 35 36  1  0  0  0  0
 35 37  1  0  0  0  0
 37 40  1  6  0  0  0
 38 39  1  0  0  0  0
 40 41  1  0  0  0  0
M  END
>  <minimizedAffinity>
-5.75295734

$$$$

 OpenBabel03272509443D

 41 43  0  0  1  0  0  0  0  0999 V2000
   35.8090   29.8110   32.7280 C   0  0  0  0  0  0  0  0  0  0  0  0
   35.7390   30.9000   31.8560 C   0  0  0  0  0  0  0  0  0  0  0  0
   36.4040   30.9070   30.6410 C   0  0  0  0  0  0  0  0  0  0  0  0
   37.1690   29.7960   30.2690 C   0  0  0  0  0  0  0  0  0  0  0  0
   37.2300   28.7380   31.1300 C   0  0  0  0  0  0  0  0  0  0  0  0
   36.5500   28.7670   32.3400 C   0  0  0  0  0  0  0  0  0  0  0  0
   35.1450   31.7640   32.1430 H   0  0  0  0  0  0  0  0  0  0  0  0
   36.2970   31.7780   30.0360 H   0  0  0  0  0  0  0  0  0  0  0  0
   37.6480   29.8890   29.3130 H   0  0  0  0  0  0  0  0  0  0  0  0
   37.8600   27.9560   30.7060 H   0  0  0  0  0  0  0  0  0  0  0  0
   35.1430   29.8160   34.0120 C   0  0  2  0  0  0  0  0  0  0  0  0
   35.3810   28.7850   34.4820 H   0  0  0  0  0  0  0  0  0  0  0  0
   31.8500   29.8460   35.5470 C   0  0  0  0  0  0  0  0  0  0  0  0
   31.0050   29.4270   34.5370 C   0  0  0  0  0  0  0  0  0  0  0  0
   31.5670   29.0670   33.3260 C   0  0  0  0  0  0  0  0  0  0  0  0
   32.9340   29.1380   33.1700 N   0  0  0  0  0  0  0  0  0  0  0  0
   33.6850   29.5480   34.1690 C   0  0  0  0  0  0  0  0  0  0  0  0
   33.1550   29.9020   35.3620 N   0  0  0  0  0  0  0  0  0  0  0  0
   31.3700   30.1180   36.4820 H   0  0  0  0  0  0  0  0  0  0  0  0
   29.9290   29.3560   34.6150 H   0  0  0  0  0  0  0  0  0  0  0  0
   31.0290   28.7180   32.4440 H   0  0  0  0  0  0  0  0  0  0  0  0
   35.7630   30.5280   34.8870 O   0  0  0  0  0  0  0  0  0  0  0  0
   35.4500   31.3940   35.1870 H   0  0  0  0  0  0  0  0  0  0  0  0
   36.7230   27.5950   33.1660 C   0  0  0  0  0  3  0  0  0  0  0  0
   37.3470   26.4820   32.7610 C   0  0  0  0  0  3  0  0  0  0  0  0
   37.6200   25.2460   33.5310 C   0  0  0  0  0  0  0  0  0  0  0  0
   38.0480   24.4910   32.8350 H   0  0  0  0  0  0  0  0  0  0  0  0
   36.6670   24.8850   33.9530 H   0  0  0  0  0  0  0  0  0  0  0  0
   38.7200   25.6170   34.9010 S   0  0  0  0  0  0  0  0  0  0  0  0
   39.5640   23.4200   36.3600 C   0  0  1  0  0  3  0  0  0  0  0  0
   38.4090   24.3980   36.2150 C   0  0  1  0  0  3  0  0  0  0  0  0
   38.1660   25.1750   37.4890 C   0  0  0  0  0  3  0  0  0  0  0  0
   39.0260   25.8200   37.7010 H   0  0  0  0  0  0  0  0  0  0  0  0
   37.7890   24.3460   38.5410 O   0  0  0  0  0  0  0  0  0  0  0  0
   38.1780   23.0260   38.3290 C   0  0  0  0  0  3  0  0  0  0  0  0
   38.1480   22.4890   39.2980 H   0  0  0  0  0  0  0  0  0  0  0  0
   39.6020   23.0470   37.8310 C   0  0  1  0  0  3  0  0  0  0  0  0
   39.3920   22.3440   35.5190 O   0  0  0  0  0  0  0  0  0  0  0  0
   39.5430   21.4750   35.9720 H   0  0  0  0  0  0  0  0  0  0  0  0
   40.2250   21.8230   38.0180 O   0  0  0  0  0  0  0  0  0  0  0  0
   40.9340   21.9400   38.7010 H   0  0  0  0  0  0  0  0  0  0  0  0
  1 11  1  0  0  0  0
  2  7  1  0  0  0  0
  2  1  2  0  0  0  0
  3  2  1  0  0  0  0
  4  3  2  0  0  0  0
  4  5  1  0  0  0  0
  5  6  2  0  0  0  0
  6  1  1  0  0  0  0
  6 24  1  0  0  0  0
  8  3  1  0  0  0  0
  9  4  1  0  0  0  0
 10  5  1  0  0  0  0
 11 17  1  0  0  0  0
 11 12  1  1  0  0  0
 11 22  1  0  0  0  0
 13 19  1  0  0  0  0
 14 20  1  0  0  0  0
 14 13  2  0  0  0  0
 15 14  1  0  0  0  0
 16 15  2  0  0  0  0
 16 17  1  0  0  0  0
 17 18  2  0  0  0  0
 18 13  1  0  0  0  0
 21 15  1  0  0  0  0
 22 23  1  0  0  0  0
 25 24  2  0  0  0  0
 25 26  1  0  0  0  0
 26 28  1  0  0  0  0
 26 29  1  0  0  0  0
 27 26  1  0  0  0  0
 30 38  1  6  0  0  0
 30 37  1  0  0  0  0
 31 29  1  6  0  0  0
 31 30  1  0  0  0  0
 31 32  1  0  0  0  0
 32 33  1  0  0  0  0
 32 34  1  0  0  0  0
 35 34  1  0  0  0  0
 35 36  1  0  0  0  0
 37 40  1  6  0  0  0
 37 35  1  0  0  0  0
 38 39  1  0  0  0  0
 40 41  1  0  0  0  0
M  END
>  <minimizedAffinity>
-5.70922995

$$$$

 OpenBabel03272509443D

 41 43  0  0  1  0  0  0  0  0999 V2000
   36.0570   29.8530   31.3780 C   0  0  0  0  0  0  0  0  0  0  0  0
   36.4330   30.5650   30.2370 C   0  0  0  0  0  0  0  0  0  0  0  0
   37.3820   30.0780   29.3520 C   0  0  0  0  0  0  0  0  0  0  0  0
   37.9840   28.8410   29.6010 C   0  0  0  0  0  0  0  0  0  0  0  0
   37.6080   28.1540   30.7210 C   0  0  0  0  0  0  0  0  0  0  0  0
   36.6540   28.6740   31.5840 C   0  0  0  0  0  0  0  0  0  0  0  0
   35.9670   31.5270   30.0400 H   0  0  0  0  0  0  0  0  0  0  0  0
   37.6100   30.6850   28.5060 H   0  0  0  0  0  0  0  0  0  0  0  0
   38.7050   28.5430   28.8640 H   0  0  0  0  0  0  0  0  0  0  0  0
   38.1600   27.2170   30.7790 H   0  0  0  0  0  0  0  0  0  0  0  0
   35.0920   30.3750   32.3210 C   0  0  2  0  0  0  0  0  0  0  0  0
   34.6190   31.2920   31.7960 H   0  0  0  0  0  0  0  0  0  0  0  0
   35.9070   31.2620   35.7490 C   0  0  0  0  0  0  0  0  0  0  0  0
   36.4230   32.5400   35.6510 C   0  0  0  0  0  0  0  0  0  0  0  0
   36.4400   33.1420   34.4070 C   0  0  0  0  0  0  0  0  0  0  0  0
   35.9490   32.4540   33.3190 N   0  0  0  0  0  0  0  0  0  0  0  0
   35.4730   31.2370   33.4760 C   0  0  0  0  0  0  0  0  0  0  0  0
   35.4450   30.6330   34.6860 N   0  0  0  0  0  0  0  0  0  0  0  0
   35.9100   30.8260   36.7430 H   0  0  0  0  0  0  0  0  0  0  0  0
   36.8190   33.1160   36.4760 H   0  0  0  0  0  0  0  0  0  0  0  0
   36.8140   34.1400   34.1780 H   0  0  0  0  0  0  0  0  0  0  0  0
   34.0210   29.6630   32.3760 O   0  0  0  0  0  0  0  0  0  0  0  0
   33.8090   29.0770   33.1180 H   0  0  0  0  0  0  0  0  0  0  0  0
   36.3710   27.8590   32.7430 C   0  0  0  0  0  3  0  0  0  0  0  0
   37.2660   27.5830   33.6980 C   0  0  0  0  0  3  0  0  0  0  0  0
   37.0760   26.8030   34.9430 C   0  0  0  0  0  0  0  0  0  0  0  0
   36.6170   25.8250   34.6720 H   0  0  0  0  0  0  0  0  0  0  0  0
   36.4060   27.3710   35.6080 H   0  0  0  0  0  0  0  0  0  0  0  0
   38.6510   26.6100   35.7830 S   0  0  0  0  0  0  0  0  0  0  0  0
   37.7060   24.1580   36.6540 C   0  0  1  0  0  3  0  0  0  0  0  0
   38.9290   24.8330   36.0550 C   0  0  1  0  0  3  0  0  0  0  0  0
   39.3030   24.2350   34.7170 C   0  0  0  0  0  3  0  0  0  0  0  0
   38.5120   24.4360   33.9860 H   0  0  0  0  0  0  0  0  0  0  0  0
   39.6650   22.8960   34.8280 O   0  0  0  0  0  0  0  0  0  0  0  0
   39.1570   22.3130   35.9870 C   0  0  0  0  0  3  0  0  0  0  0  0
   39.1940   21.2120   35.8720 H   0  0  0  0  0  0  0  0  0  0  0  0
   37.7150   22.7390   36.1130 C   0  0  1  0  0  3  0  0  0  0  0  0
   37.7420   24.2280   38.0290 O   0  0  0  0  0  0  0  0  0  0  0  0
   37.5440   23.3590   38.4630 H   0  0  0  0  0  0  0  0  0  0  0  0
   37.0030   21.8860   36.9420 O   0  0  0  0  0  0  0  0  0  0  0  0
   36.3430   21.3970   36.3860 H   0  0  0  0  0  0  0  0  0  0  0  0
  1  6  1  0  0  0  0
  1 11  1  0  0  0  0
  2  1  2  0  0  0  0
  3  4  2  0  0  0  0
  3  2  1  0  0  0  0
  4  5  1  0  0  0  0
  5 10  1  0  0  0  0
  5  6  2  0  0  0  0
  6 24  1  0  0  0  0
  7  2  1  0  0  0  0
  8  3  1  0  0  0  0
  9  4  1  0  0  0  0
 11 12  1  6  0  0  0
 11 22  1  0  0  0  0
 11 17  1  0  0  0  0
 13 19  1  0  0  0  0
 14 13  1  0  0  0  0
 14 20  1  0  0  0  0
 15 14  2  0  0  0  0
 16 17  2  0  0  0  0
 16 15  1  0  0  0  0
 17 18  1  0  0  0  0
 18 13  2  0  0  0  0
 21 15  1  0  0  0  0
 22 23  1  0  0  0  0
 24 25  2  0  0  0  0
 25 26  1  0  0  0  0
 26 28  1  0  0  0  0
 26 29  1  0  0  0  0
 27 26  1  0  0  0  0
 30 38  1  1  0  0  0
 31 29  1  6  0  0  0
 31 30  1  0  0  0  0
 32 34  1  0  0  0  0
 32 31  1  0  0  0  0
 33 32  1  0  0  0  0
 34 35  1  0  0  0  0
 35 37  1  0  0  0  0
 36 35  1  0  0  0  0
 37 30  1  0  0  0  0
 37 40  1  1  0  0  0
 38 39  1  0  0  0  0
 41 40  1  0  0  0  0
M  END
>  <minimizedAffinity>
-5.68546343

$$$$

 OpenBabel03272509443D

 41 43  0  0  1  0  0  0  0  0999 V2000
   39.2630   25.9150   34.6300 C   0  0  0  0  0  0  0  0  0  0  0  0
   39.0820   26.9660   35.5330 C   0  0  0  0  0  0  0  0  0  0  0  0
   37.9650   27.7850   35.4860 C   0  0  0  0  0  0  0  0  0  0  0  0
   36.9870   27.5600   34.5130 C   0  0  0  0  0  0  0  0  0  0  0  0
   37.1750   26.5300   33.6350 C   0  0  0  0  0  0  0  0  0  0  0  0
   38.3070   25.7310   33.7120 C   0  0  0  0  0  0  0  0  0  0  0  0
   39.8400   27.1430   36.2910 H   0  0  0  0  0  0  0  0  0  0  0  0
   37.9060   28.5630   36.2120 H   0  0  0  0  0  0  0  0  0  0  0  0
   36.1590   28.2410   34.5510 H   0  0  0  0  0  0  0  0  0  0  0  0
   36.3370   26.4820   32.9400 H   0  0  0  0  0  0  0  0  0  0  0  0
   40.4440   25.0810   34.6550 C   0  0  2  0  0  0  0  0  0  0  0  0
   40.3350   24.3730   33.7460 H   0  0  0  0  0  0  0  0  0  0  0  0
   42.0700   22.3580   36.4270 C   0  0  0  0  0  0  0  0  0  0  0  0
   41.1240   21.9410   37.3430 C   0  0  0  0  0  0  0  0  0  0  0  0
   39.8830   22.5520   37.3210 C   0  0  0  0  0  0  0  0  0  0  0  0
   39.6380   23.5460   36.3990 N   0  0  0  0  0  0  0  0  0  0  0  0
   40.5820   23.9010   35.5540 C   0  0  0  0  0  0  0  0  0  0  0  0
   41.8010   23.3130   35.5580 N   0  0  0  0  0  0  0  0  0  0  0  0
   43.0300   21.8530   36.4760 H   0  0  0  0  0  0  0  0  0  0  0  0
   41.2720   21.1670   38.0840 H   0  0  0  0  0  0  0  0  0  0  0  0
   39.0430   22.3280   37.9790 H   0  0  0  0  0  0  0  0  0  0  0  0
   41.4940   25.7000   34.2400 O   0  0  0  0  0  0  0  0  0  0  0  0
   42.2010   26.0020   34.8300 H   0  0  0  0  0  0  0  0  0  0  0  0
   38.3940   24.6970   32.7060 C   0  0  0  0  0  3  0  0  0  0  0  0
   38.0140   24.8600   31.4340 C   0  0  0  0  0  3  0  0  0  0  0  0
   38.0980   23.8920   30.3160 C   0  0  0  0  0  0  0  0  0  0  0  0
   38.9200   24.2160   29.6380 H   0  0  0  0  0  0  0  0  0  0  0  0
   37.1340   23.8970   29.7810 H   0  0  0  0  0  0  0  0  0  0  0  0
   38.3570   22.2390   30.9640 S   0  0  0  0  0  0  0  0  0  0  0  0
   36.7640   19.9740   30.9660 C   0  0  1  0  0  3  0  0  0  0  0  0
   36.7260   21.4730   31.2160 C   0  0  1  0  0  3  0  0  0  0  0  0
   36.2980   21.7980   32.6290 C   0  0  0  0  0  3  0  0  0  0  0  0
   37.0520   21.4370   33.3380 H   0  0  0  0  0  0  0  0  0  0  0  0
   35.0010   21.3690   32.8930 O   0  0  0  0  0  0  0  0  0  0  0  0
   34.5970   20.3640   32.0170 C   0  0  0  0  0  3  0  0  0  0  0  0
   33.7190   19.8490   32.4540 H   0  0  0  0  0  0  0  0  0  0  0  0
   35.7320   19.3760   31.9060 C   0  0  1  0  0  3  0  0  0  0  0  0
   36.5290   19.7010   29.6380 O   0  0  0  0  0  0  0  0  0  0  0  0
   35.8620   18.9790   29.5070 H   0  0  0  0  0  0  0  0  0  0  0  0
   35.2930   18.1450   31.4450 O   0  0  0  0  0  0  0  0  0  0  0  0
   35.3870   17.4890   32.1820 H   0  0  0  0  0  0  0  0  0  0  0  0
  1 11  1  0  0  0  0
  1  2  1  0  0  0  0
  2  7  1  0  0  0  0
  3  2  2  0  0  0  0
  3  8  1  0  0  0  0
  4  9  1  0  0  0  0
  4  3  1  0  0  0  0
  5  6  1  0  0  0  0
  5  4  2  0  0  0  0
  6  1  2  0  0  0  0
 10  5  1  0  0  0  0
 11 12  1  6  0  0  0
 11 17  1  0  0  0  0
 13 19  1  0  0  0  0
 13 14  1  0  0  0  0
 14 20  1  0  0  0  0
 15 14  2  0  0  0  0
 15 21  1  0  0  0  0
 16 15  1  0  0  0  0
 17 18  1  0  0  0  0
 17 16  2  0  0  0  0
 18 13  2  0  0  0  0
 22 11  1  0  0  0  0
 22 23  1  0  0  0  0
 24  6  1  0  0  0  0
 25 24  2  0  0  0  0
 26 29  1  0  0  0  0
 26 25  1  0  0  0  0
 27 26  1  0  0  0  0
 28 26  1  0  0  0  0
 30 38  1  6  0  0  0
 30 31  1  0  0  0  0
 30 37  1  0  0  0  0
 31 29  1  1  0  0  0
 31 32  1  0  0  0  0
 32 34  1  0  0  0  0
 32 33  1  0  0  0  0
 35 36  1  0  0  0  0
 35 34  1  0  0  0  0
 37 40  1  6  0  0  0
 37 35  1  0  0  0  0
 39 38  1  0  0  0  0
 40 41  1  0  0  0  0
M  END
>  <minimizedAffinity>
-5.61112213

$$$$
