
 OpenBabel03272505243D

 31 33  0  0  1  0  0  0  0  0999 V2000
   32.8590   27.8420   48.9240 C   0  0  0  0  0  0  0  0  0  0  0  0
   33.8790   28.4360   48.1490 C   0  0  0  0  0  0  0  0  0  0  0  0
   33.6680   28.7040   46.8110 C   0  0  0  0  0  0  0  0  0  0  0  0
   32.4570   28.3740   46.2890 N   0  0  0  0  0  0  0  0  0  0  0  0
   31.4660   27.8000   47.0260 C   0  0  0  0  0  0  0  0  0  0  0  0
   31.6740   27.5390   48.3400 N   0  0  0  0  0  0  0  0  0  0  0  0
   34.6630   29.3050   46.0100 N   0  0  0  0  0  0  0  0  0  0  0  0
   34.7710   29.0180   44.7010 C   0  0  0  0  0  0  0  0  0  0  0  0
   35.7480   29.6210   43.9070 C   0  0  0  0  0  0  0  0  0  0  0  0
   36.6060   30.5210   44.4970 C   0  0  0  0  0  0  0  0  0  0  0  0
   37.4920   31.0780   43.8180 O   0  0  0  0  0  0  0  0  0  0  0  0
   36.4860   30.7970   45.8060 N   0  0  0  0  0  0  0  0  0  0  0  0
   35.5220   30.1820   46.5130 C   0  0  0  0  0  0  0  0  0  0  0  0
   35.4230   30.4530   47.7430 O   0  0  0  0  0  0  0  0  0  0  0  0
   32.9320   27.6020   49.9540 H   0  0  0  0  0  0  0  0  0  0  0  0
   34.7570   28.6040   48.7380 H   0  0  0  0  0  0  0  0  0  0  0  0
   30.5230   27.5720   46.5080 H   0  0  0  0  0  0  0  0  0  0  0  0
   34.0550   28.2900   44.2890 H   0  0  0  0  0  0  0  0  0  0  0  0
   35.8000   29.3610   42.8610 H   0  0  0  0  0  0  0  0  0  0  0  0
   37.2890   31.7870   47.9480 C   0  0  1  0  0  3  0  0  0  0  0  0
   37.3640   31.7370   46.4700 C   0  0  1  0  0  3  0  0  0  0  0  0
   38.8150   31.5870   45.9930 C   0  0  0  0  0  3  0  0  0  0  0  0
   38.7470   31.7570   44.8830 H   0  0  0  0  0  0  0  0  0  0  0  0
   39.5640   32.6180   46.4890 O   0  0  0  0  0  0  0  0  0  0  0  0
   39.4850   32.8030   47.8630 C   0  0  0  0  0  3  0  0  0  0  0  0
   38.9760   33.7450   48.1550 H   0  0  0  0  0  0  0  0  0  0  0  0
   38.7110   31.6350   48.4860 C   0  0  1  0  0  3  0  0  0  0  0  0
   36.9140   33.0700   48.4250 O   0  0  0  0  0  0  0  0  0  0  0  0
   36.9840   33.7360   47.7160 H   0  0  0  0  0  0  0  0  0  0  0  0
   38.7800   31.6950   49.8550 O   0  0  0  0  0  0  0  0  0  0  0  0
   39.6150   31.2590   50.1440 H   0  0  0  0  0  0  0  0  0  0  0  0
  1 15  1  0  0  0  0
  2 16  1  0  0  0  0
  2  1  2  0  0  0  0
  3  2  1  0  0  0  0
  4  3  2  0  0  0  0
  4  5  1  0  0  0  0
  5  6  2  0  0  0  0
  6  1  1  0  0  0  0
  7 13  1  0  0  0  0
  7  3  1  0  0  0  0
  8  7  1  0  0  0  0
  9 10  1  0  0  0  0
  9  8  2  0  0  0  0
 10 12  1  0  0  0  0
 11 10  2  0  0  0  0
 12 13  1  0  0  0  0
 13 14  2  0  0  0  0
 17  5  1  0  0  0  0
 18  8  1  0  0  0  0
 19  9  1  0  0  0  0
 20 28  1  6  0  0  0
 20 27  1  0  0  0  0
 21 12  1  1  0  0  0
 21 20  1  0  0  0  0
 22 21  1  0  0  0  0
 22 24  1  0  0  0  0
 23 22  1  0  0  0  0
 24 25  1  0  0  0  0
 25 26  1  0  0  0  0
 25 27  1  0  0  0  0
 27 30  1  1  0  0  0
 29 28  1  0  0  0  0
 30 31  1  0  0  0  0
M  END
>  <minimizedAffinity>
-3.07792735

>  <minimizedRMSD>
4.72165775

$$$$
