
 OpenBabel03272505243D

 31 33  0  0  1  0  0  0  0  0999 V2000
   36.4510   29.1900   50.7410 C   0  0  0  0  0  0  0  0  0  0  0  0
   36.6180   29.3900   49.3530 C   0  0  0  0  0  0  0  0  0  0  0  0
   35.5330   29.7070   48.5610 C   0  0  0  0  0  0  0  0  0  0  0  0
   34.3220   29.8130   49.1700 N   0  0  0  0  0  0  0  0  0  0  0  0
   34.1490   29.6220   50.5070 C   0  0  0  0  0  0  0  0  0  0  0  0
   35.2160   29.3120   51.2840 N   0  0  0  0  0  0  0  0  0  0  0  0
   35.6660   29.9220   47.1730 N   0  0  0  0  0  0  0  0  0  0  0  0
   34.6740   29.6090   46.3200 C   0  0  0  0  0  0  0  0  0  0  0  0
   34.8030   29.8320   44.9480 C   0  0  0  0  0  0  0  0  0  0  0  0
   35.9760   30.3840   44.4820 C   0  0  0  0  0  0  0  0  0  0  0  0
   36.1250   30.5960   43.2620 O   0  0  0  0  0  0  0  0  0  0  0  0
   36.9570   30.6910   45.3460 N   0  0  0  0  0  0  0  0  0  0  0  0
   36.7680   30.4510   46.6560 C   0  0  0  0  0  0  0  0  0  0  0  0
   37.7010   30.7460   47.4540 O   0  0  0  0  0  0  0  0  0  0  0  0
   37.2250   28.9460   51.4230 H   0  0  0  0  0  0  0  0  0  0  0  0
   37.6400   29.2470   49.0680 H   0  0  0  0  0  0  0  0  0  0  0  0
   33.1280   29.7310   50.9020 H   0  0  0  0  0  0  0  0  0  0  0  0
   33.7630   29.1700   46.7550 H   0  0  0  0  0  0  0  0  0  0  0  0
   33.9830   29.5650   44.3000 H   0  0  0  0  0  0  0  0  0  0  0  0
   38.4550   32.6830   45.2800 C   0  0  1  0  0  3  0  0  0  0  0  0
   38.2060   31.2720   44.9040 C   0  0  1  0  0  3  0  0  0  0  0  0
   39.4030   30.3830   45.2680 C   0  0  0  0  0  3  0  0  0  0  0  0
   39.1690   29.4060   44.7630 H   0  0  0  0  0  0  0  0  0  0  0  0
   40.5290   30.8640   44.6590 O   0  0  0  0  0  0  0  0  0  0  0  0
   40.7940   32.2100   44.8790 C   0  0  0  0  0  3  0  0  0  0  0  0
   40.6860   32.8380   43.9710 H   0  0  0  0  0  0  0  0  0  0  0  0
   39.8290   32.7470   45.9430 C   0  0  1  0  0  3  0  0  0  0  0  0
   38.6180   33.5220   44.1470 O   0  0  0  0  0  0  0  0  0  0  0  0
   38.7520   32.9900   43.3410 H   0  0  0  0  0  0  0  0  0  0  0  0
   40.1900   34.0170   46.3150 O   0  0  0  0  0  0  0  0  0  0  0  0
   40.8800   33.9530   47.0150 H   0  0  0  0  0  0  0  0  0  0  0  0
  1  6  1  0  0  0  0
  1 15  1  0  0  0  0
  2  1  2  0  0  0  0
  3  4  2  0  0  0  0
  3  2  1  0  0  0  0
  4  5  1  0  0  0  0
  5 17  1  0  0  0  0
  5  6  2  0  0  0  0
  7  3  1  0  0  0  0
  8 18  1  0  0  0  0
  8  7  1  0  0  0  0
  9  8  2  0  0  0  0
 10  9  1  0  0  0  0
 10 12  1  0  0  0  0
 11 10  2  0  0  0  0
 12 13  1  0  0  0  0
 13  7  1  0  0  0  0
 13 14  2  0  0  0  0
 16  2  1  0  0  0  0
 19  9  1  0  0  0  0
 20 28  1  6  0  0  0
 20 27  1  0  0  0  0
 21 22  1  0  0  0  0
 21 20  1  0  0  0  0
 21 12  1  1  0  0  0
 23 22  1  0  0  0  0
 24 25  1  0  0  0  0
 24 22  1  0  0  0  0
 25 27  1  0  0  0  0
 26 25  1  0  0  0  0
 27 30  1  6  0  0  0
 29 28  1  0  0  0  0
 30 31  1  0  0  0  0
M  END
>  <minimizedAffinity>
-5.95205975

>  <minimizedRMSD>
4.18645954

$$$$
