
 OpenBabel03272508273D

 41 44  0  0  1  0  0  0  0  0999 V2000
   34.0190   29.0360   47.3720 C   0  0  2  0  0  0  0  0  0  0  0  0
   34.7740   28.2700   48.4500 C   0  0  2  0  0  0  0  0  0  0  0  0
   33.8890   28.0810   49.4650 O   0  0  0  0  0  0  0  0  0  0  0  0
   32.6090   28.1310   48.9990 C   0  0  0  0  0  0  0  0  0  0  0  0
   32.6580   28.3390   47.4960 C   0  0  1  0  0  0  0  0  0  0  0  0
   33.8580   30.0840   47.6750 H   0  0  0  0  0  0  0  0  0  0  0  0
   35.0680   27.2870   48.0420 H   0  0  0  0  0  0  0  0  0  0  0  0
   32.0620   27.1760   49.1840 H   0  0  0  0  0  0  0  0  0  0  0  0
   32.0010   28.9430   49.4690 H   0  0  0  0  0  0  0  0  0  0  0  0
   32.8050   27.3590   47.0210 H   0  0  0  0  0  0  0  0  0  0  0  0
   35.8430   30.5410   49.0770 C   0  0  1  0  0  0  0  0  0  0  0  0
   35.9350   29.1170   48.8640 C   0  0  1  0  0  0  0  0  0  0  0  0
   36.0880   29.6050   50.2660 C   0  0  0  0  0  0  0  0  0  0  0  0
   34.9380   31.1460   49.2600 H   0  0  0  0  0  0  0  0  0  0  0  0
   36.8990   28.7560   48.4030 H   0  0  0  0  0  0  0  0  0  0  0  0
   37.0980   29.6110   50.7440 H   0  0  0  0  0  0  0  0  0  0  0  0
   35.2950   29.4570   51.0100 H   0  0  0  0  0  0  0  0  0  0  0  0
   37.0330   31.4520   48.8190 C   0  0  0  0  0  0  0  0  0  0  0  0
   37.2150   32.5220   49.6950 C   0  0  0  0  0  0  0  0  0  0  0  0
   38.3010   33.3410   49.3910 C   0  0  0  0  0  0  0  0  0  0  0  0
   39.0990   33.0890   48.3160 N   0  0  0  0  0  0  0  0  0  0  0  0
   38.8810   32.0340   47.4950 C   0  0  0  0  0  0  0  0  0  0  0  0
   37.8350   31.2090   47.7510 N   0  0  0  0  0  0  0  0  0  0  0  0
   36.5540   32.6750   50.5290 H   0  0  0  0  0  0  0  0  0  0  0  0
   38.5050   34.1870   50.0220 H   0  0  0  0  0  0  0  0  0  0  0  0
   39.4950   31.8070   46.6350 H   0  0  0  0  0  0  0  0  0  0  0  0
   34.5430   28.8750   46.1040 O   0  0  0  0  0  0  0  0  0  0  0  0
   34.3290   29.7040   45.6070 H   0  0  0  0  0  0  0  0  0  0  0  0
   31.6460   29.1080   47.0100 O   0  0  0  0  0  0  0  0  0  0  0  0
   29.7790   27.5880   46.8060 C   0  0  2  0  0  3  0  0  0  0  0  0
   30.7780   28.5120   46.1460 C   0  0  1  0  0  3  0  0  0  0  0  0
   29.9880   29.4580   45.2870 C   0  0  0  0  0  3  0  0  0  0  0  0
   29.3770   30.1700   45.8700 H   0  0  0  0  0  0  0  0  0  0  0  0
   29.1220   28.7400   44.4940 O   0  0  0  0  0  0  0  0  0  0  0  0
   29.4000   27.3940   44.4100 C   0  0  0  0  0  3  0  0  0  0  0  0
   30.3460   27.1500   43.8780 H   0  0  0  0  0  0  0  0  0  0  0  0
   29.2770   26.6520   45.7250 C   0  0  2  0  0  3  0  0  0  0  0  0
   28.6680   28.3720   47.1740 O   0  0  0  0  0  0  0  0  0  0  0  0
   27.9470   28.3400   46.4980 H   0  0  0  0  0  0  0  0  0  0  0  0
   27.9630   26.2580   45.9720 O   0  0  0  0  0  0  0  0  0  0  0  0
   27.8610   26.0560   46.9370 H   0  0  0  0  0  0  0  0  0  0  0  0
  1  5  1  0  0  0  0
  1  6  1  1  0  0  0
  1  2  1  0  0  0  0
  2  7  1  6  0  0  0
  2 12  1  0  0  0  0
  2  3  1  0  0  0  0
  4  8  1  0  0  0  0
  4  3  1  0  0  0  0
  4  9  1  0  0  0  0
  5 10  1  6  0  0  0
  5  4  1  0  0  0  0
 11 14  1  6  0  0  0
 11 13  1  0  0  0  0
 12 15  1  6  0  0  0
 12 11  1  0  0  0  0
 12 13  1  0  0  0  0
 13 16  1  0  0  0  0
 13 17  1  0  0  0  0
 18 11  1  0  0  0  0
 18 19  1  0  0  0  0
 19 24  1  0  0  0  0
 20 19  2  0  0  0  0
 20 25  1  0  0  0  0
 21 20  1  0  0  0  0
 22 23  1  0  0  0  0
 22 21  2  0  0  0  0
 23 18  2  0  0  0  0
 26 22  1  0  0  0  0
 27  1  1  0  0  0  0
 28 27  1  0  0  0  0
 29  5  1  0  0  0  0
 30 38  1  6  0  0  0
 31 30  1  0  0  0  0
 31 29  1  1  0  0  0
 32 33  1  0  0  0  0
 32 31  1  0  0  0  0
 34 32  1  0  0  0  0
 35 34  1  0  0  0  0
 35 37  1  0  0  0  0
 36 35  1  0  0  0  0
 37 40  1  1  0  0  0
 37 30  1  0  0  0  0
 39 38  1  0  0  0  0
 40 41  1  0  0  0  0
M  END
>  <minimizedAffinity>
-5.1523819

>  <minimizedRMSD>
0.308709979

$$$$
