
 OpenBabel03272503493D

 40 42  0  0  1  0  0  0  0  0999 V2000
   33.2110   27.2740   45.8560 C   0  0  1  0  0  0  0  0  0  0  0  0
   33.9100   27.4470   47.2230 C   0  0  2  0  0  0  0  0  0  0  0  0
   33.7460   26.2310   47.8090 O   0  0  0  0  0  0  0  0  0  0  0  0
   34.0620   25.3190   46.8200 C   0  0  0  0  0  0  0  0  0  0  0  0
   33.6080   25.8820   45.4930 C   0  0  2  0  0  0  0  0  0  0  0  0
   33.6030   28.0150   45.1250 H   0  0  0  0  0  0  0  0  0  0  0  0
   34.9580   27.7220   46.9660 H   0  0  0  0  0  0  0  0  0  0  0  0
   35.1460   25.1220   46.8560 H   0  0  0  0  0  0  0  0  0  0  0  0
   33.4300   24.4270   47.0180 H   0  0  0  0  0  0  0  0  0  0  0  0
   32.7560   25.3450   45.0650 H   0  0  0  0  0  0  0  0  0  0  0  0
   31.8530   27.4870   45.9780 O   0  0  0  0  0  0  0  0  0  0  0  0
   31.4740   26.9870   46.7520 H   0  0  0  0  0  0  0  0  0  0  0  0
   33.2790   28.5060   47.8030 O   0  0  0  0  0  0  0  0  0  0  0  0
   35.3440   29.7900   46.7770 O   0  0  0  0  0  0  0  0  0  0  0  0
   34.0820   29.9720   47.6060 P   0  0  1  0  0  0  0  0  0  0  0  0
   33.1230   31.0460   46.7120 O   0  0  0  0  0  0  0  0  0  0  0  0
   32.3460   31.3100   47.2950 H   0  0  0  0  0  0  0  0  0  0  0  0
   34.3790   30.5840   49.1710 O   0  0  0  0  0  0  0  0  0  0  0  0
   35.6170   30.4790   49.7770 C   0  0  0  0  0  0  0  0  0  0  0  0
   35.9700   29.4610   50.6880 C   0  0  0  0  0  0  0  0  0  0  0  0
   37.2540   29.4810   51.2200 C   0  0  0  0  0  0  0  0  0  0  0  0
   38.1040   30.4780   50.8400 N   0  0  0  0  0  0  0  0  0  0  0  0
   37.7370   31.4470   49.9600 C   0  0  0  0  0  0  0  0  0  0  0  0
   36.4840   31.4500   49.4220 N   0  0  0  0  0  0  0  0  0  0  0  0
   35.2180   28.7210   50.9190 H   0  0  0  0  0  0  0  0  0  0  0  0
   37.5350   28.7050   51.9190 H   0  0  0  0  0  0  0  0  0  0  0  0
   38.4630   32.2050   49.7040 H   0  0  0  0  0  0  0  0  0  0  0  0
   34.6480   25.8830   44.5840 O   0  0  0  0  0  0  0  0  0  0  0  0
   36.4480   24.3690   44.1420 C   0  0  2  0  0  0  0  0  0  0  0  0
   34.9670   24.6120   44.1100 C   0  0  2  0  0  0  0  0  0  0  0  0
   34.3400   24.4910   42.7630 C   0  0  0  0  0  0  0  0  0  0  0  0
   33.2890   24.1400   42.8720 H   0  0  0  0  0  0  0  0  0  0  0  0
   34.9550   23.5920   41.9100 O   0  0  0  0  0  0  0  0  0  0  0  0
   36.2740   23.9840   41.7240 C   0  0  0  0  0  0  0  0  0  0  0  0
   36.7400   23.4720   40.8440 H   0  0  0  0  0  0  0  0  0  0  0  0
   36.9950   23.5880   42.9950 C   0  0  1  0  0  0  0  0  0  0  0  0
   36.8690   23.7130   45.3020 O   0  0  0  0  0  0  0  0  0  0  0  0
   36.9940   24.4250   46.0010 H   0  0  0  0  0  0  0  0  0  0  0  0
   38.3430   23.9120   42.8150 O   0  0  0  0  0  0  0  0  0  0  0  0
   38.5020   24.8030   43.2410 H   0  0  0  0  0  0  0  0  0  0  0  0
  1  6  1  6  0  0  0
  1 11  1  0  0  0  0
  1  2  1  0  0  0  0
  2  7  1  6  0  0  0
  2 13  1  0  0  0  0
  2  3  1  0  0  0  0
  4  8  1  0  0  0  0
  4  9  1  0  0  0  0
  4  3  1  0  0  0  0
  5 10  1  6  0  0  0
  5  1  1  0  0  0  0
  5  4  1  0  0  0  0
 11 12  1  0  0  0  0
 15 14  2  6  0  0  0
 15 13  1  0  0  0  0
 15 18  1  0  0  0  0
 16 17  1  0  0  0  0
 16 15  1  0  0  0  0
 18 19  1  0  0  0  0
 19 20  1  0  0  0  0
 20 25  1  0  0  0  0
 20 21  2  0  0  0  0
 21 26  1  0  0  0  0
 22 21  1  0  0  0  0
 23 22  2  0  0  0  0
 24 19  2  0  0  0  0
 24 23  1  0  0  0  0
 27 23  1  0  0  0  0
 28  5  1  0  0  0  0
 29 37  1  1  0  0  0
 30 29  1  0  0  0  0
 30 28  1  6  0  0  0
 31 32  1  0  0  0  0
 31 30  1  0  0  0  0
 33 31  1  0  0  0  0
 34 33  1  0  0  0  0
 34 36  1  0  0  0  0
 35 34  1  0  0  0  0
 36 39  1  6  0  0  0
 36 29  1  0  0  0  0
 37 38  1  0  0  0  0
 39 40  1  0  0  0  0
M  END
>  <minimizedAffinity>
-4.25029993

>  <minimizedRMSD>
1.30924416

$$$$
