
 OpenBabel03272508273D

 41 44  0  0  1  0  0  0  0  0999 V2000
   33.8910   28.9950   47.3030 C   0  0  2  0  0  0  0  0  0  0  0  0
   34.6450   28.2000   48.3600 C   0  0  2  0  0  0  0  0  0  0  0  0
   33.7590   27.9850   49.3700 O   0  0  0  0  0  0  0  0  0  0  0  0
   32.4800   28.0490   48.9060 C   0  0  0  0  0  0  0  0  0  0  0  0
   32.5290   28.2960   47.4090 C   0  0  1  0  0  0  0  0  0  0  0  0
   33.7310   30.0340   47.6330 H   0  0  0  0  0  0  0  0  0  0  0  0
   34.9380   27.2270   47.9270 H   0  0  0  0  0  0  0  0  0  0  0  0
   31.9310   27.0890   49.0660 H   0  0  0  0  0  0  0  0  0  0  0  0
   31.8730   28.8490   49.3970 H   0  0  0  0  0  0  0  0  0  0  0  0
   32.6740   27.3280   46.9090 H   0  0  0  0  0  0  0  0  0  0  0  0
   35.7220   30.4560   49.0240 C   0  0  1  0  0  0  0  0  0  0  0  0
   35.8070   29.0340   48.7960 C   0  0  1  0  0  0  0  0  0  0  0  0
   35.9480   29.5040   50.2050 C   0  0  0  0  0  0  0  0  0  0  0  0
   34.8190   31.0650   49.2050 H   0  0  0  0  0  0  0  0  0  0  0  0
   36.7730   28.6720   48.3410 H   0  0  0  0  0  0  0  0  0  0  0  0
   36.9530   29.4980   50.6940 H   0  0  0  0  0  0  0  0  0  0  0  0
   35.1470   29.3530   50.9390 H   0  0  0  0  0  0  0  0  0  0  0  0
   36.9210   31.3620   48.7890 C   0  0  0  0  0  0  0  0  0  0  0  0
   37.1170   32.4040   49.6960 C   0  0  0  0  0  0  0  0  0  0  0  0
   38.2100   33.2200   49.4130 C   0  0  0  0  0  0  0  0  0  0  0  0
   39.0020   32.9910   48.3280 N   0  0  0  0  0  0  0  0  0  0  0  0
   38.7700   31.9640   47.4770 C   0  0  0  0  0  0  0  0  0  0  0  0
   37.7170   31.1430   47.7110 N   0  0  0  0  0  0  0  0  0  0  0  0
   36.4600   32.5380   50.5370 H   0  0  0  0  0  0  0  0  0  0  0  0
   38.4250   34.0440   50.0680 H   0  0  0  0  0  0  0  0  0  0  0  0
   39.3790   31.7560   46.6080 H   0  0  0  0  0  0  0  0  0  0  0  0
   34.4150   28.8660   46.0310 O   0  0  0  0  0  0  0  0  0  0  0  0
   34.2010   29.7080   45.5550 H   0  0  0  0  0  0  0  0  0  0  0  0
   31.5180   29.0790   46.9440 O   0  0  0  0  0  0  0  0  0  0  0  0
   31.1250   29.5570   44.6080 C   0  0  2  0  0  3  0  0  0  0  0  0
   30.8900   28.6660   45.8070 C   0  0  1  0  0  3  0  0  0  0  0  0
   31.2220   27.2660   45.3740 C   0  0  0  0  0  3  0  0  0  0  0  0
   32.3010   27.1090   45.1880 H   0  0  0  0  0  0  0  0  0  0  0  0
   30.5650   26.9840   44.1980 O   0  0  0  0  0  0  0  0  0  0  0  0
   29.5440   27.8540   43.8860 C   0  0  0  0  0  3  0  0  0  0  0  0
   28.6710   27.8070   44.5730 H   0  0  0  0  0  0  0  0  0  0  0  0
   29.9970   29.2770   43.6350 C   0  0  2  0  0  3  0  0  0  0  0  0
   32.2960   29.0990   43.9730 O   0  0  0  0  0  0  0  0  0  0  0  0
   32.1010   28.4850   43.2230 H   0  0  0  0  0  0  0  0  0  0  0  0
   30.4150   29.4590   42.3160 O   0  0  0  0  0  0  0  0  0  0  0  0
   30.9710   30.2780   42.2630 H   0  0  0  0  0  0  0  0  0  0  0  0
  1  5  1  0  0  0  0
  1  6  1  1  0  0  0
  1  2  1  0  0  0  0
  2  7  1  6  0  0  0
  2 12  1  0  0  0  0
  2  3  1  0  0  0  0
  4  8  1  0  0  0  0
  4  3  1  0  0  0  0
  4  9  1  0  0  0  0
  5 10  1  6  0  0  0
  5  4  1  0  0  0  0
 11 14  1  6  0  0  0
 11 13  1  0  0  0  0
 12 15  1  6  0  0  0
 12 11  1  0  0  0  0
 12 13  1  0  0  0  0
 13 16  1  0  0  0  0
 13 17  1  0  0  0  0
 18 11  1  0  0  0  0
 18 19  1  0  0  0  0
 19 24  1  0  0  0  0
 20 19  2  0  0  0  0
 20 25  1  0  0  0  0
 21 20  1  0  0  0  0
 22 23  1  0  0  0  0
 22 21  2  0  0  0  0
 23 18  2  0  0  0  0
 26 22  1  0  0  0  0
 27  1  1  0  0  0  0
 28 27  1  0  0  0  0
 29  5  1  0  0  0  0
 30 38  1  6  0  0  0
 30 31  1  0  0  0  0
 31 29  1  1  0  0  0
 32 31  1  0  0  0  0
 33 32  1  0  0  0  0
 34 32  1  0  0  0  0
 35 34  1  0  0  0  0
 35 36  1  0  0  0  0
 37 40  1  6  0  0  0
 37 35  1  0  0  0  0
 37 30  1  0  0  0  0
 39 38  1  0  0  0  0
 41 40  1  0  0  0  0
M  END
>  <minimizedAffinity>
-4.82489634

>  <minimizedRMSD>
0.812909305

$$$$
