
 OpenBabel03272508273D

 41 44  0  0  1  0  0  0  0  0999 V2000
   33.7900   29.0020   47.3010 C   0  0  2  0  0  0  0  0  0  0  0  0
   34.5870   28.1720   48.2970 C   0  0  2  0  0  0  0  0  0  0  0  0
   33.7420   27.9150   49.3310 O   0  0  0  0  0  0  0  0  0  0  0  0
   32.4460   27.9900   48.9200 C   0  0  0  0  0  0  0  0  0  0  0  0
   32.4360   28.2930   47.4330 C   0  0  1  0  0  0  0  0  0  0  0  0
   33.6390   30.0280   47.6760 H   0  0  0  0  0  0  0  0  0  0  0  0
   34.8670   27.2180   47.8160 H   0  0  0  0  0  0  0  0  0  0  0  0
   31.9070   27.0220   49.0640 H   0  0  0  0  0  0  0  0  0  0  0  0
   31.8550   28.7670   49.4640 H   0  0  0  0  0  0  0  0  0  0  0  0
   32.5660   27.3460   46.8900 H   0  0  0  0  0  0  0  0  0  0  0  0
   35.6790   30.4040   49.0180 C   0  0  1  0  0  0  0  0  0  0  0  0
   35.7620   28.9940   48.7190 C   0  0  1  0  0  0  0  0  0  0  0  0
   35.9640   29.4000   50.1420 C   0  0  0  0  0  0  0  0  0  0  0  0
   34.7810   30.9960   49.2670 H   0  0  0  0  0  0  0  0  0  0  0  0
   36.7100   28.6620   48.2060 H   0  0  0  0  0  0  0  0  0  0  0  0
   36.9900   29.3800   50.5840 H   0  0  0  0  0  0  0  0  0  0  0  0
   35.1970   29.2080   50.9020 H   0  0  0  0  0  0  0  0  0  0  0  0
   36.8600   31.3300   48.7720 C   0  0  0  0  0  0  0  0  0  0  0  0
   37.1000   32.3200   49.7250 C   0  0  0  0  0  0  0  0  0  0  0  0
   38.1730   33.1580   49.4330 C   0  0  0  0  0  0  0  0  0  0  0  0
   38.9080   32.9970   48.2970 N   0  0  0  0  0  0  0  0  0  0  0  0
   38.6350   32.0180   47.4010 C   0  0  0  0  0  0  0  0  0  0  0  0
   37.5990   31.1770   47.6440 N   0  0  0  0  0  0  0  0  0  0  0  0
   36.4870   32.4020   50.6060 H   0  0  0  0  0  0  0  0  0  0  0  0
   38.4190   33.9460   50.1220 H   0  0  0  0  0  0  0  0  0  0  0  0
   39.1980   31.8640   46.4910 H   0  0  0  0  0  0  0  0  0  0  0  0
   34.2650   28.9250   46.0060 O   0  0  0  0  0  0  0  0  0  0  0  0
   34.0310   29.7830   45.5710 H   0  0  0  0  0  0  0  0  0  0  0  0
   31.4050   29.0880   47.0360 O   0  0  0  0  0  0  0  0  0  0  0  0
   29.3990   28.2960   48.1230 C   0  0  2  0  0  0  0  0  0  0  0  0
   30.1960   28.4860   46.8530 C   0  0  1  0  0  0  0  0  0  0  0  0
   29.2890   29.1720   45.8720 C   0  0  0  0  0  0  0  0  0  0  0  0
   29.0550   30.2160   46.1480 H   0  0  0  0  0  0  0  0  0  0  0  0
   28.0920   28.4960   45.8090 O   0  0  0  0  0  0  0  0  0  0  0  0
   28.1160   27.2300   46.3510 C   0  0  0  0  0  0  0  0  0  0  0  0
   28.7420   26.5000   45.7930 H   0  0  0  0  0  0  0  0  0  0  0  0
   28.3910   27.1980   47.8410 C   0  0  2  0  0  0  0  0  0  0  0  0
   28.6380   29.4660   48.3160 O   0  0  0  0  0  0  0  0  0  0  0  0
   27.7180   29.3770   47.9640 H   0  0  0  0  0  0  0  0  0  0  0  0
   27.2270   27.3810   48.5840 O   0  0  0  0  0  0  0  0  0  0  0  0
   27.4710   27.6510   49.5050 H   0  0  0  0  0  0  0  0  0  0  0  0
  1  5  1  0  0  0  0
  1  6  1  1  0  0  0
  1  2  1  0  0  0  0
  2  7  1  6  0  0  0
  2 12  1  0  0  0  0
  2  3  1  0  0  0  0
  4  8  1  0  0  0  0
  4  3  1  0  0  0  0
  4  9  1  0  0  0  0
  5 10  1  6  0  0  0
  5  4  1  0  0  0  0
 11 14  1  6  0  0  0
 11 13  1  0  0  0  0
 12 15  1  6  0  0  0
 12 11  1  0  0  0  0
 12 13  1  0  0  0  0
 13 16  1  0  0  0  0
 13 17  1  0  0  0  0
 18 11  1  0  0  0  0
 18 19  1  0  0  0  0
 19 24  1  0  0  0  0
 20 19  2  0  0  0  0
 20 25  1  0  0  0  0
 21 20  1  0  0  0  0
 22 23  1  0  0  0  0
 22 21  2  0  0  0  0
 23 18  2  0  0  0  0
 26 22  1  0  0  0  0
 27  1  1  0  0  0  0
 28 27  1  0  0  0  0
 29  5  1  0  0  0  0
 30 38  1  6  0  0  0
 31 29  1  1  0  0  0
 31 30  1  0  0  0  0
 32 33  1  0  0  0  0
 32 31  1  0  0  0  0
 34 32  1  0  0  0  0
 34 35  1  0  0  0  0
 35 37  1  0  0  0  0
 36 35  1  0  0  0  0
 37 30  1  0  0  0  0
 37 40  1  1  0  0  0
 39 38  1  0  0  0  0
 40 41  1  0  0  0  0
M  END
>  <minimizedAffinity>
-5.81792164

>  <minimizedRMSD>
1.71943462

$$$$
