
 OpenBabel03262522203D

 22 23  0  0  1  0  0  0  0  0999 V2000
   38.4550   31.3920   49.0650 C   0  0  1  0  0  0  0  0  0  0  0  0
   37.6950   30.5390   48.0730 C   0  0  2  0  0  0  0  0  0  0  0  0
   38.3130   30.8130   46.7030 C   0  0  0  0  0  0  0  0  0  0  0  0
   37.5380   31.2380   46.0240 H   0  0  0  0  0  0  0  0  0  0  0  0
   39.4630   31.5660   46.7630 O   0  0  0  0  0  0  0  0  0  0  0  0
   39.3400   32.8020   47.3380 C   0  0  0  0  0  0  0  0  0  0  0  0
   40.3620   33.0780   47.7210 H   0  0  0  0  0  0  0  0  0  0  0  0
   38.4430   32.8020   48.5670 C   0  0  2  0  0  0  0  0  0  0  0  0
   37.9970   31.2240   50.3610 O   0  0  0  0  0  0  0  0  0  0  0  0
   37.0900   31.5740   50.5220 H   0  0  0  0  0  0  0  0  0  0  0  0
   38.9740   33.6640   49.5440 O   0  0  0  0  0  0  0  0  0  0  0  0
   39.3690   33.1120   50.2580 H   0  0  0  0  0  0  0  0  0  0  0  0
   36.3230   30.8360   48.0780 O   0  0  0  0  0  0  0  0  0  0  0  0
   35.4860   28.9640   49.1560 C   0  0  0  0  0  0  0  0  0  0  0  0
   35.2920   29.9280   48.1440 C   0  0  0  0  0  0  0  0  0  0  0  0
   34.1410   29.8490   47.3750 C   0  0  0  0  0  0  0  0  0  0  0  0
   33.2660   28.8560   47.6340 N   0  0  0  0  0  0  0  0  0  0  0  0
   33.4610   27.9490   48.5950 C   0  0  0  0  0  0  0  0  0  0  0  0
   34.5760   27.9820   49.3770 N   0  0  0  0  0  0  0  0  0  0  0  0
   36.3170   28.9090   49.8130 H   0  0  0  0  0  0  0  0  0  0  0  0
   34.0670   30.6230   46.6240 H   0  0  0  0  0  0  0  0  0  0  0  0
   32.6370   27.2420   48.6310 H   0  0  0  0  0  0  0  0  0  0  0  0
  1  9  1  1  0  0  0
  2 13  1  6  0  0  0
  2  1  1  0  0  0  0
  3  5  1  0  0  0  0
  3  2  1  0  0  0  0
  4  3  1  0  0  0  0
  5  6  1  0  0  0  0
  6  7  1  0  0  0  0
  6  8  1  0  0  0  0
  8  1  1  0  0  0  0
  8 11  1  1  0  0  0
  9 10  1  0  0  0  0
 11 12  1  0  0  0  0
 13 15  1  0  0  0  0
 14 19  1  0  0  0  0
 14 20  1  0  0  0  0
 15 14  2  0  0  0  0
 16 17  2  0  0  0  0
 16 15  1  0  0  0  0
 17 18  1  0  0  0  0
 18 22  1  0  0  0  0
 18 19  2  0  0  0  0
 21 16  1  0  0  0  0
M  END
>  <minimizedAffinity>
-4.68362999

>  <minimizedRMSD>
2.47029471

$$$$
