
 OpenBabel03272508293D

 41 44  0  0  1  0  0  0  0  0999 V2000
   37.2840   25.9120   33.0470 C   0  0  2  0  0  0  0  0  0  0  0  0
   37.3570   27.4200   33.2390 C   0  0  2  0  0  0  0  0  0  0  0  0
   37.2270   27.6350   34.5750 O   0  0  0  0  0  0  0  0  0  0  0  0
   37.6040   26.5290   35.2760 C   0  0  0  0  0  0  0  0  0  0  0  0
   38.0750   25.4780   34.2880 C   0  0  1  0  0  0  0  0  0  0  0  0
   36.2540   25.5470   33.1940 H   0  0  0  0  0  0  0  0  0  0  0  0
   38.3540   27.7690   32.9150 H   0  0  0  0  0  0  0  0  0  0  0  0
   38.4580   26.7440   35.9640 H   0  0  0  0  0  0  0  0  0  0  0  0
   36.7850   26.1080   35.9090 H   0  0  0  0  0  0  0  0  0  0  0  0
   39.1240   25.6910   34.0370 H   0  0  0  0  0  0  0  0  0  0  0  0
   35.9920   29.4420   32.3770 C   0  0  1  0  0  0  0  0  0  0  0  0
   36.2320   28.0210   32.4590 C   0  0  1  0  0  0  0  0  0  0  0  0
   36.4570   28.6720   31.1340 C   0  0  0  0  0  0  0  0  0  0  0  0
   36.6950   30.2660   32.5890 H   0  0  0  0  0  0  0  0  0  0  0  0
   35.3090   27.3740   32.4930 H   0  0  0  0  0  0  0  0  0  0  0  0
   35.7230   28.5130   30.3070 H   0  0  0  0  0  0  0  0  0  0  0  0
   37.4690   28.8360   30.7450 H   0  0  0  0  0  0  0  0  0  0  0  0
   34.5830   29.9920   32.2090 C   0  0  0  0  0  0  0  0  0  0  0  0
   33.5790   29.4150   32.9870 C   0  0  0  0  0  0  0  0  0  0  0  0
   32.3060   29.9360   32.7680 C   0  0  0  0  0  0  0  0  0  0  0  0
   32.0930   30.9270   31.8580 N   0  0  0  0  0  0  0  0  0  0  0  0
   33.1040   31.4550   31.1260 C   0  0  0  0  0  0  0  0  0  0  0  0
   34.3610   30.9800   31.3050 N   0  0  0  0  0  0  0  0  0  0  0  0
   33.8030   28.6340   33.6910 H   0  0  0  0  0  0  0  0  0  0  0  0
   31.4800   29.5410   33.3310 H   0  0  0  0  0  0  0  0  0  0  0  0
   32.9690   32.2420   30.3970 H   0  0  0  0  0  0  0  0  0  0  0  0
   37.8950   25.4680   31.8910 O   0  0  0  0  0  0  0  0  0  0  0  0
   37.4200   24.6410   31.6230 H   0  0  0  0  0  0  0  0  0  0  0  0
   37.7820   24.2000   34.6560 O   0  0  0  0  0  0  0  0  0  0  0  0
   37.7740   23.4320   36.9460 C   0  0  2  0  0  3  0  0  0  0  0  0
   38.5310   23.6600   35.6580 C   0  0  1  0  0  3  0  0  0  0  0  0
   39.2030   22.3610   35.3160 C   0  0  0  0  0  3  0  0  0  0  0  0
   38.4950   21.5660   35.0210 H   0  0  0  0  0  0  0  0  0  0  0  0
   39.8900   21.8990   36.4160 O   0  0  0  0  0  0  0  0  0  0  0  0
   40.0880   22.8360   37.4060 C   0  0  0  0  0  3  0  0  0  0  0  0
   40.7740   23.6660   37.1260 H   0  0  0  0  0  0  0  0  0  0  0  0
   38.8120   23.3410   38.0480 C   0  0  2  0  0  3  0  0  0  0  0  0
   37.1950   22.1500   36.8660 O   0  0  0  0  0  0  0  0  0  0  0  0
   37.7510   21.4590   37.3070 H   0  0  0  0  0  0  0  0  0  0  0  0
   38.3850   22.5010   39.0740 O   0  0  0  0  0  0  0  0  0  0  0  0
   37.4290   22.6800   39.2610 H   0  0  0  0  0  0  0  0  0  0  0  0
  1  6  1  1  0  0  0
  1  2  1  0  0  0  0
  1  5  1  0  0  0  0
  2  7  1  6  0  0  0
  2  3  1  0  0  0  0
  3  4  1  0  0  0  0
  4  9  1  0  0  0  0
  4  8  1  0  0  0  0
  5 10  1  6  0  0  0
  5 29  1  0  0  0  0
  5  4  1  0  0  0  0
 11 12  1  0  0  0  0
 11 14  1  1  0  0  0
 12 15  1  1  0  0  0
 12  2  1  0  0  0  0
 13 11  1  0  0  0  0
 13 12  1  0  0  0  0
 16 13  1  0  0  0  0
 17 13  1  0  0  0  0
 18 11  1  0  0  0  0
 18 19  1  0  0  0  0
 19 24  1  0  0  0  0
 20 19  2  0  0  0  0
 20 25  1  0  0  0  0
 21 20  1  0  0  0  0
 22 23  1  0  0  0  0
 22 21  2  0  0  0  0
 23 18  2  0  0  0  0
 26 22  1  0  0  0  0
 27  1  1  0  0  0  0
 28 27  1  0  0  0  0
 30 38  1  6  0  0  0
 30 37  1  0  0  0  0
 31 29  1  6  0  0  0
 31 30  1  0  0  0  0
 32 31  1  0  0  0  0
 32 34  1  0  0  0  0
 33 32  1  0  0  0  0
 34 35  1  0  0  0  0
 35 37  1  0  0  0  0
 36 35  1  0  0  0  0
 37 40  1  1  0  0  0
 38 39  1  0  0  0  0
 40 41  1  0  0  0  0
M  END
>  <minimizedAffinity>
-6.03516436

$$$$

 OpenBabel03272508293D

 41 44  0  0  1  0  0  0  0  0999 V2000
   37.2980   26.2880   33.9650 C   0  0  2  0  0  0  0  0  0  0  0  0
   37.4230   27.7550   34.3490 C   0  0  2  0  0  0  0  0  0  0  0  0
   37.7900   27.7700   35.6580 O   0  0  0  0  0  0  0  0  0  0  0  0
   38.4080   26.6030   35.9950 C   0  0  0  0  0  0  0  0  0  0  0  0
   38.4930   25.7350   34.7530 C   0  0  1  0  0  0  0  0  0  0  0  0
   36.3980   25.8390   34.4140 H   0  0  0  0  0  0  0  0  0  0  0  0
   38.2290   28.2100   33.7460 H   0  0  0  0  0  0  0  0  0  0  0  0
   39.4520   26.7740   36.3530 H   0  0  0  0  0  0  0  0  0  0  0  0
   37.8810   26.0440   36.8070 H   0  0  0  0  0  0  0  0  0  0  0  0
   39.3750   26.0490   34.1770 H   0  0  0  0  0  0  0  0  0  0  0  0
   35.8050   29.7730   34.4100 C   0  0  1  0  0  0  0  0  0  0  0  0
   36.0850   28.3850   34.1310 C   0  0  1  0  0  0  0  0  0  0  0  0
   35.8190   29.2730   32.9600 C   0  0  0  0  0  0  0  0  0  0  0  0
   36.5230   30.6040   34.5240 H   0  0  0  0  0  0  0  0  0  0  0  0
   35.2450   27.6660   34.3530 H   0  0  0  0  0  0  0  0  0  0  0  0
   34.8440   29.1990   32.4190 H   0  0  0  0  0  0  0  0  0  0  0  0
   36.6260   29.5860   32.2880 H   0  0  0  0  0  0  0  0  0  0  0  0
   34.4180   30.2230   34.8420 C   0  0  0  0  0  0  0  0  0  0  0  0
   34.2680   31.5630   35.2010 C   0  0  0  0  0  0  0  0  0  0  0  0
   32.9850   31.9110   35.6180 C   0  0  0  0  0  0  0  0  0  0  0  0
   31.9810   30.9910   35.6610 N   0  0  0  0  0  0  0  0  0  0  0  0
   32.1770   29.7000   35.3010 C   0  0  0  0  0  0  0  0  0  0  0  0
   33.4100   29.3150   34.8870 N   0  0  0  0  0  0  0  0  0  0  0  0
   35.0960   32.2470   35.1480 H   0  0  0  0  0  0  0  0  0  0  0  0
   32.7930   32.9270   35.9110 H   0  0  0  0  0  0  0  0  0  0  0  0
   31.4020   28.9470   35.3230 H   0  0  0  0  0  0  0  0  0  0  0  0
   37.4480   26.0520   32.6120 O   0  0  0  0  0  0  0  0  0  0  0  0
   36.9150   25.2420   32.4090 H   0  0  0  0  0  0  0  0  0  0  0  0
   38.3670   24.4020   34.9990 O   0  0  0  0  0  0  0  0  0  0  0  0
   37.3780   23.2540   36.8800 C   0  0  2  0  0  3  0  0  0  0  0  0
   38.5550   23.9920   36.2850 C   0  0  1  0  0  3  0  0  0  0  0  0
   39.7630   23.1250   36.5030 C   0  0  0  0  0  3  0  0  0  0  0  0
   39.7520   22.1990   35.9010 H   0  0  0  0  0  0  0  0  0  0  0  0
   39.8180   22.7440   37.8250 O   0  0  0  0  0  0  0  0  0  0  0  0
   39.0130   23.4760   38.6690 C   0  0  0  0  0  3  0  0  0  0  0  0
   39.3200   24.5370   38.7960 H   0  0  0  0  0  0  0  0  0  0  0  0
   37.5300   23.3390   38.3870 C   0  0  2  0  0  3  0  0  0  0  0  0
   37.5370   21.8910   36.5610 O   0  0  0  0  0  0  0  0  0  0  0  0
   37.9670   21.3820   37.2930 H   0  0  0  0  0  0  0  0  0  0  0  0
   36.9880   22.2180   39.0120 O   0  0  0  0  0  0  0  0  0  0  0  0
   36.1260   21.9930   38.5790 H   0  0  0  0  0  0  0  0  0  0  0  0
  1  2  1  0  0  0  0
  1  6  1  1  0  0  0
  1  5  1  0  0  0  0
  2  7  1  6  0  0  0
  2  3  1  0  0  0  0
  3  4  1  0  0  0  0
  4  8  1  0  0  0  0
  4  9  1  0  0  0  0
  5 10  1  6  0  0  0
  5 29  1  0  0  0  0
  5  4  1  0  0  0  0
 11 14  1  1  0  0  0
 11 18  1  0  0  0  0
 12  2  1  0  0  0  0
 12 15  1  1  0  0  0
 12 11  1  0  0  0  0
 13 12  1  0  0  0  0
 13 11  1  0  0  0  0
 16 13  1  0  0  0  0
 17 13  1  0  0  0  0
 18 23  2  0  0  0  0
 18 19  1  0  0  0  0
 19 20  2  0  0  0  0
 20 21  1  0  0  0  0
 20 25  1  0  0  0  0
 22 26  1  0  0  0  0
 22 21  2  0  0  0  0
 23 22  1  0  0  0  0
 24 19  1  0  0  0  0
 27  1  1  0  0  0  0
 28 27  1  0  0  0  0
 30 38  1  6  0  0  0
 30 37  1  0  0  0  0
 31 29  1  6  0  0  0
 31 32  1  0  0  0  0
 31 30  1  0  0  0  0
 32 34  1  0  0  0  0
 33 32  1  0  0  0  0
 34 35  1  0  0  0  0
 35 36  1  0  0  0  0
 37 35  1  0  0  0  0
 37 40  1  1  0  0  0
 38 39  1  0  0  0  0
 41 40  1  0  0  0  0
M  END
>  <minimizedAffinity>
-5.92400837

$$$$

 OpenBabel03272508293D

 41 44  0  0  1  0  0  0  0  0999 V2000
   37.1330   26.3340   34.2950 C   0  0  2  0  0  0  0  0  0  0  0  0
   37.3320   27.8420   34.3560 C   0  0  2  0  0  0  0  0  0  0  0  0
   37.7990   28.1090   35.6050 O   0  0  0  0  0  0  0  0  0  0  0  0
   38.4050   27.0090   36.1340 C   0  0  0  0  0  0  0  0  0  0  0  0
   38.3680   25.9010   35.0970 C   0  0  1  0  0  0  0  0  0  0  0  0
   36.2560   26.0290   34.8890 H   0  0  0  0  0  0  0  0  0  0  0  0
   38.1020   28.1260   33.6170 H   0  0  0  0  0  0  0  0  0  0  0  0
   39.4790   27.2020   36.3750 H   0  0  0  0  0  0  0  0  0  0  0  0
   37.9260   26.6530   37.0790 H   0  0  0  0  0  0  0  0  0  0  0  0
   39.2110   26.0490   34.4090 H   0  0  0  0  0  0  0  0  0  0  0  0
   35.6920   29.8410   34.4510 C   0  0  1  0  0  0  0  0  0  0  0  0
   36.0010   28.4750   34.1040 C   0  0  1  0  0  0  0  0  0  0  0  0
   35.7880   29.4300   32.9770 C   0  0  0  0  0  0  0  0  0  0  0  0
   36.3950   30.6690   34.6530 H   0  0  0  0  0  0  0  0  0  0  0  0
   35.1580   27.7380   34.2370 H   0  0  0  0  0  0  0  0  0  0  0  0
   34.8450   29.3820   32.3800 H   0  0  0  0  0  0  0  0  0  0  0  0
   36.6270   29.7890   32.3690 H   0  0  0  0  0  0  0  0  0  0  0  0
   34.2800   30.2540   34.8340 C   0  0  0  0  0  0  0  0  0  0  0  0
   34.0630   31.6070   35.0990 C   0  0  0  0  0  0  0  0  0  0  0  0
   32.7590   31.9220   35.4750 C   0  0  0  0  0  0  0  0  0  0  0  0
   31.7970   30.9610   35.5680 N   0  0  0  0  0  0  0  0  0  0  0  0
   32.0580   29.6600   35.2990 C   0  0  0  0  0  0  0  0  0  0  0  0
   33.3130   29.3050   34.9280 N   0  0  0  0  0  0  0  0  0  0  0  0
   34.8600   32.3240   35.0110 H   0  0  0  0  0  0  0  0  0  0  0  0
   32.5160   32.9450   35.6960 H   0  0  0  0  0  0  0  0  0  0  0  0
   31.3180   28.8740   35.3620 H   0  0  0  0  0  0  0  0  0  0  0  0
   37.1700   25.8190   33.0140 O   0  0  0  0  0  0  0  0  0  0  0  0
   36.5990   25.0100   33.0220 H   0  0  0  0  0  0  0  0  0  0  0  0
   38.2200   24.6540   35.6240 O   0  0  0  0  0  0  0  0  0  0  0  0
   39.2630   22.9670   37.0020 C   0  0  2  0  0  3  0  0  0  0  0  0
   39.3590   23.9420   35.8510 C   0  0  1  0  0  3  0  0  0  0  0  0
   39.8680   23.1670   34.6690 C   0  0  0  0  0  3  0  0  0  0  0  0
   39.1380   22.4330   34.2800 H   0  0  0  0  0  0  0  0  0  0  0  0
   40.9900   22.4600   35.0360 O   0  0  0  0  0  0  0  0  0  0  0  0
   41.5650   22.8660   36.2200 C   0  0  0  0  0  3  0  0  0  0  0  0
   42.0180   23.8820   36.1890 H   0  0  0  0  0  0  0  0  0  0  0  0
   40.6850   22.6690   37.4370 C   0  0  2  0  0  3  0  0  0  0  0  0
   38.7670   21.7560   36.4800 O   0  0  0  0  0  0  0  0  0  0  0  0
   39.4900   21.1160   36.2630 H   0  0  0  0  0  0  0  0  0  0  0  0
   40.7940   21.3780   37.9490 O   0  0  0  0  0  0  0  0  0  0  0  0
   40.0140   21.1930   38.5290 H   0  0  0  0  0  0  0  0  0  0  0  0
  1  2  1  0  0  0  0
  1  6  1  1  0  0  0
  1  5  1  0  0  0  0
  2  7  1  6  0  0  0
  2  3  1  0  0  0  0
  3  4  1  0  0  0  0
  4  8  1  0  0  0  0
  4  9  1  0  0  0  0
  5 10  1  6  0  0  0
  5 29  1  0  0  0  0
  5  4  1  0  0  0  0
 11 14  1  1  0  0  0
 11 18  1  0  0  0  0
 12 15  1  1  0  0  0
 12  2  1  0  0  0  0
 12 11  1  0  0  0  0
 13 12  1  0  0  0  0
 13 11  1  0  0  0  0
 16 13  1  0  0  0  0
 17 13  1  0  0  0  0
 18 23  2  0  0  0  0
 18 19  1  0  0  0  0
 19 20  2  0  0  0  0
 20 21  1  0  0  0  0
 20 25  1  0  0  0  0
 22 26  1  0  0  0  0
 22 21  2  0  0  0  0
 23 22  1  0  0  0  0
 24 19  1  0  0  0  0
 27 28  1  0  0  0  0
 27  1  1  0  0  0  0
 30 38  1  6  0  0  0
 30 37  1  0  0  0  0
 31 29  1  6  0  0  0
 31 30  1  0  0  0  0
 32 34  1  0  0  0  0
 32 31  1  0  0  0  0
 33 32  1  0  0  0  0
 34 35  1  0  0  0  0
 35 37  1  0  0  0  0
 36 35  1  0  0  0  0
 37 40  1  6  0  0  0
 39 38  1  0  0  0  0
 40 41  1  0  0  0  0
M  END
>  <minimizedAffinity>
-5.86380005

$$$$

 OpenBabel03272508293D

 41 44  0  0  1  0  0  0  0  0999 V2000
   35.5110   29.1690   34.2900 C   0  0  2  0  0  0  0  0  0  0  0  0
   36.6330   28.3140   33.7180 C   0  0  2  0  0  0  0  0  0  0  0  0
   36.1260   27.7310   32.5980 O   0  0  0  0  0  0  0  0  0  0  0  0
   35.0920   28.4670   32.1020 C   0  0  0  0  0  0  0  0  0  0  0  0
   34.9230   29.6970   32.9750 C   0  0  1  0  0  0  0  0  0  0  0  0
   34.7300   28.5390   34.7460 H   0  0  0  0  0  0  0  0  0  0  0  0
   37.4690   28.9750   33.4310 H   0  0  0  0  0  0  0  0  0  0  0  0
   35.2950   28.8220   31.0630 H   0  0  0  0  0  0  0  0  0  0  0  0
   34.1280   27.9020   32.0630 H   0  0  0  0  0  0  0  0  0  0  0  0
   35.6410   30.4570   32.6350 H   0  0  0  0  0  0  0  0  0  0  0  0
   38.1020   26.3880   34.6260 C   0  0  1  0  0  0  0  0  0  0  0  0
   36.9980   27.3080   34.7620 C   0  0  1  0  0  0  0  0  0  0  0  0
   38.1650   27.5090   35.6700 C   0  0  0  0  0  0  0  0  0  0  0  0
   38.9710   26.4600   33.9490 H   0  0  0  0  0  0  0  0  0  0  0  0
   36.0860   26.8980   35.2830 H   0  0  0  0  0  0  0  0  0  0  0  0
   38.0820   27.2320   36.7490 H   0  0  0  0  0  0  0  0  0  0  0  0
   38.8620   28.3440   35.5250 H   0  0  0  0  0  0  0  0  0  0  0  0
   38.0620   25.0120   35.2740 C   0  0  0  0  0  0  0  0  0  0  0  0
   38.2280   23.9100   34.4360 C   0  0  0  0  0  0  0  0  0  0  0  0
   38.1510   22.6760   35.0780 C   0  0  0  0  0  0  0  0  0  0  0  0
   37.9270   22.5890   36.4190 N   0  0  0  0  0  0  0  0  0  0  0  0
   37.7720   23.6910   37.1910 C   0  0  0  0  0  0  0  0  0  0  0  0
   37.8400   24.9140   36.6100 N   0  0  0  0  0  0  0  0  0  0  0  0
   38.4020   24.0360   33.3820 H   0  0  0  0  0  0  0  0  0  0  0  0
   38.2700   21.7800   34.4970 H   0  0  0  0  0  0  0  0  0  0  0  0
   37.5940   23.6570   38.2570 H   0  0  0  0  0  0  0  0  0  0  0  0
   35.9540   30.2080   35.0860 O   0  0  0  0  0  0  0  0  0  0  0  0
   35.2340   30.3830   35.7430 H   0  0  0  0  0  0  0  0  0  0  0  0
   33.6310   30.1000   33.1200 O   0  0  0  0  0  0  0  0  0  0  0  0
   32.4330   30.4790   35.1830 C   0  0  2  0  0  3  0  0  0  0  0  0
   32.9120   29.5170   34.1210 C   0  0  1  0  0  3  0  0  0  0  0  0
   31.7090   28.7410   33.6660 C   0  0  0  0  0  3  0  0  0  0  0  0
   30.9810   29.3520   33.1030 H   0  0  0  0  0  0  0  0  0  0  0  0
   31.0480   28.2410   34.7650 O   0  0  0  0  0  0  0  0  0  0  0  0
   31.7760   28.2590   35.9340 C   0  0  0  0  0  3  0  0  0  0  0  0
   32.6490   27.5710   35.9450 H   0  0  0  0  0  0  0  0  0  0  0  0
   32.1380   29.6490   36.4170 C   0  0  2  0  0  3  0  0  0  0  0  0
   31.1870   30.9810   34.7590 O   0  0  0  0  0  0  0  0  0  0  0  0
   30.4280   30.4820   35.1530 H   0  0  0  0  0  0  0  0  0  0  0  0
   31.1120   30.2150   37.1710 O   0  0  0  0  0  0  0  0  0  0  0  0
   31.2450   31.1960   37.2130 H   0  0  0  0  0  0  0  0  0  0  0  0
  1  6  1  1  0  0  0
  1 27  1  0  0  0  0
  2  7  1  6  0  0  0
  2  1  1  0  0  0  0
  2 12  1  0  0  0  0
  3  2  1  0  0  0  0
  4  3  1  0  0  0  0
  4  5  1  0  0  0  0
  5 10  1  6  0  0  0
  5 29  1  0  0  0  0
  5  1  1  0  0  0  0
  8  4  1  0  0  0  0
  9  4  1  0  0  0  0
 11 14  1  6  0  0  0
 11 12  1  0  0  0  0
 11 18  1  0  0  0  0
 11 13  1  0  0  0  0
 12 15  1  1  0  0  0
 12 13  1  0  0  0  0
 13 16  1  0  0  0  0
 17 13  1  0  0  0  0
 18 23  1  0  0  0  0
 19 20  1  0  0  0  0
 19 18  2  0  0  0  0
 20 21  2  0  0  0  0
 21 22  1  0  0  0  0
 22 26  1  0  0  0  0
 23 22  2  0  0  0  0
 24 19  1  0  0  0  0
 25 20  1  0  0  0  0
 27 28  1  0  0  0  0
 30 38  1  6  0  0  0
 30 37  1  0  0  0  0
 31 29  1  6  0  0  0
 31 30  1  0  0  0  0
 32 31  1  0  0  0  0
 32 34  1  0  0  0  0
 33 32  1  0  0  0  0
 34 35  1  0  0  0  0
 35 36  1  0  0  0  0
 35 37  1  0  0  0  0
 37 40  1  6  0  0  0
 38 39  1  0  0  0  0
 40 41  1  0  0  0  0
M  END
>  <minimizedAffinity>
-5.47392082

$$$$

 OpenBabel03272508293D

 41 44  0  0  1  0  0  0  0  0999 V2000
   39.4800   26.0390   34.9420 C   0  0  2  0  0  0  0  0  0  0  0  0
   39.0140   26.9320   33.8010 C   0  0  2  0  0  0  0  0  0  0  0  0
   37.6600   26.8160   33.7630 O   0  0  0  0  0  0  0  0  0  0  0  0
   37.1790   26.4340   34.9790 C   0  0  0  0  0  0  0  0  0  0  0  0
   38.3490   26.3220   35.9390 C   0  0  1  0  0  0  0  0  0  0  0  0
   39.3920   24.9740   34.6690 H   0  0  0  0  0  0  0  0  0  0  0  0
   39.2790   27.9770   34.0400 H   0  0  0  0  0  0  0  0  0  0  0  0
   36.4730   27.1880   35.4030 H   0  0  0  0  0  0  0  0  0  0  0  0
   36.6260   25.4630   34.9480 H   0  0  0  0  0  0  0  0  0  0  0  0
   38.5680   27.3260   36.3290 H   0  0  0  0  0  0  0  0  0  0  0  0
   39.3170   26.9000   31.2310 C   0  0  1  0  0  0  0  0  0  0  0  0
   39.6580   26.4240   32.5500 C   0  0  1  0  0  0  0  0  0  0  0  0
   40.6950   27.2170   31.8250 C   0  0  0  0  0  0  0  0  0  0  0  0
   38.8060   27.8390   30.9560 H   0  0  0  0  0  0  0  0  0  0  0  0
   39.8990   25.3250   32.6220 H   0  0  0  0  0  0  0  0  0  0  0  0
   41.5870   26.7000   31.3950 H   0  0  0  0  0  0  0  0  0  0  0  0
   40.9320   28.2460   32.1190 H   0  0  0  0  0  0  0  0  0  0  0  0
   39.4190   25.9890   30.0170 C   0  0  0  0  0  0  0  0  0  0  0  0
   39.0730   24.6500   30.1960 C   0  0  0  0  0  0  0  0  0  0  0  0
   39.2170   23.8570   29.0600 C   0  0  0  0  0  0  0  0  0  0  0  0
   39.6640   24.3800   27.8840 N   0  0  0  0  0  0  0  0  0  0  0  0
   39.9860   25.6900   27.7600 C   0  0  0  0  0  0  0  0  0  0  0  0
   39.8620   26.5010   28.8400 N   0  0  0  0  0  0  0  0  0  0  0  0
   38.7260   24.2890   31.1490 H   0  0  0  0  0  0  0  0  0  0  0  0
   38.9690   22.8130   29.1210 H   0  0  0  0  0  0  0  0  0  0  0  0
   40.3430   26.1360   26.8420 H   0  0  0  0  0  0  0  0  0  0  0  0
   40.7050   26.4010   35.4680 O   0  0  0  0  0  0  0  0  0  0  0  0
   41.1150   25.5710   35.8190 H   0  0  0  0  0  0  0  0  0  0  0  0
   38.2190   25.3250   36.8570 O   0  0  0  0  0  0  0  0  0  0  0  0
   39.5790   23.5050   37.6770 C   0  0  2  0  0  3  0  0  0  0  0  0
   38.7860   24.1250   36.5490 C   0  0  1  0  0  3  0  0  0  0  0  0
   37.8250   23.0750   36.0690 C   0  0  0  0  0  3  0  0  0  0  0  0
   37.0300   22.8420   36.8000 H   0  0  0  0  0  0  0  0  0  0  0  0
   38.5100   21.9040   35.8340 O   0  0  0  0  0  0  0  0  0  0  0  0
   39.8780   22.0420   35.7550 C   0  0  0  0  0  3  0  0  0  0  0  0
   40.2340   22.6160   34.8710 H   0  0  0  0  0  0  0  0  0  0  0  0
   40.5290   22.5080   37.0410 C   0  0  2  0  0  3  0  0  0  0  0  0
   38.6820   22.7350   38.4420 O   0  0  0  0  0  0  0  0  0  0  0  0
   38.6900   21.7800   38.1810 H   0  0  0  0  0  0  0  0  0  0  0  0
   40.7920   21.4440   37.9010 O   0  0  0  0  0  0  0  0  0  0  0  0
   40.9290   21.7950   38.8170 H   0  0  0  0  0  0  0  0  0  0  0  0
  1  6  1  6  0  0  0
  1 27  1  0  0  0  0
  1  5  1  0  0  0  0
  2  7  1  1  0  0  0
  2  1  1  0  0  0  0
  3  2  1  0  0  0  0
  3  4  1  0  0  0  0
  4  8  1  0  0  0  0
  4  5  1  0  0  0  0
  5 10  1  1  0  0  0
  5 29  1  0  0  0  0
  9  4  1  0  0  0  0
 11 14  1  6  0  0  0
 11 13  1  0  0  0  0
 11 12  1  0  0  0  0
 12 15  1  1  0  0  0
 12  2  1  0  0  0  0
 13 17  1  0  0  0  0
 13 12  1  0  0  0  0
 16 13  1  0  0  0  0
 18 19  1  0  0  0  0
 18 11  1  0  0  0  0
 19 24  1  0  0  0  0
 20 25  1  0  0  0  0
 20 19  2  0  0  0  0
 21 20  1  0  0  0  0
 22 21  2  0  0  0  0
 22 23  1  0  0  0  0
 23 18  2  0  0  0  0
 26 22  1  0  0  0  0
 27 28  1  0  0  0  0
 30 38  1  1  0  0  0
 31 29  1  1  0  0  0
 31 30  1  0  0  0  0
 32 31  1  0  0  0  0
 32 33  1  0  0  0  0
 34 32  1  0  0  0  0
 35 34  1  0  0  0  0
 35 37  1  0  0  0  0
 36 35  1  0  0  0  0
 37 30  1  0  0  0  0
 37 40  1  1  0  0  0
 39 38  1  0  0  0  0
 40 41  1  0  0  0  0
M  END
>  <minimizedAffinity>
-5.42836761

$$$$

 OpenBabel03272508293D

 41 44  0  0  1  0  0  0  0  0999 V2000
   36.0160   26.6170   31.3500 C   0  0  2  0  0  0  0  0  0  0  0  0
   36.7050   27.5440   32.3420 C   0  0  2  0  0  0  0  0  0  0  0  0
   37.0690   26.7630   33.3940 O   0  0  0  0  0  0  0  0  0  0  0  0
   37.1920   25.4630   33.0050 C   0  0  0  0  0  0  0  0  0  0  0  0
   36.9150   25.3850   31.5150 C   0  0  1  0  0  0  0  0  0  0  0  0
   35.0180   26.3220   31.7160 H   0  0  0  0  0  0  0  0  0  0  0  0
   37.6150   27.9530   31.8680 H   0  0  0  0  0  0  0  0  0  0  0  0
   38.2260   25.0750   33.1710 H   0  0  0  0  0  0  0  0  0  0  0  0
   36.5020   24.7730   33.5510 H   0  0  0  0  0  0  0  0  0  0  0  0
   37.8410   25.6440   30.9820 H   0  0  0  0  0  0  0  0  0  0  0  0
   35.9050   29.4940   33.8420 C   0  0  1  0  0  0  0  0  0  0  0  0
   35.7120   28.5910   32.7330 C   0  0  1  0  0  0  0  0  0  0  0  0
   35.9240   30.0320   32.4060 C   0  0  0  0  0  0  0  0  0  0  0  0
   36.8490   29.7570   34.3500 H   0  0  0  0  0  0  0  0  0  0  0  0
   34.6520   28.2420   32.5700 H   0  0  0  0  0  0  0  0  0  0  0  0
   35.0620   30.6550   32.0650 H   0  0  0  0  0  0  0  0  0  0  0  0
   36.8680   30.3850   31.9740 H   0  0  0  0  0  0  0  0  0  0  0  0
   34.7220   30.0300   34.6330 C   0  0  0  0  0  0  0  0  0  0  0  0
   34.9550   31.1340   35.4530 C   0  0  0  0  0  0  0  0  0  0  0  0
   33.8450   31.5620   36.1780 C   0  0  0  0  0  0  0  0  0  0  0  0
   32.6430   30.9290   36.0710 N   0  0  0  0  0  0  0  0  0  0  0  0
   32.4680   29.8600   35.2590 C   0  0  0  0  0  0  0  0  0  0  0  0
   33.5200   29.4070   34.5330 N   0  0  0  0  0  0  0  0  0  0  0  0
   35.9250   31.5960   35.5000 H   0  0  0  0  0  0  0  0  0  0  0  0
   33.9470   32.4090   36.8320 H   0  0  0  0  0  0  0  0  0  0  0  0
   31.5280   29.3360   35.1510 H   0  0  0  0  0  0  0  0  0  0  0  0
   36.0410   27.0770   30.0480 O   0  0  0  0  0  0  0  0  0  0  0  0
   35.2340   26.7110   29.6070 H   0  0  0  0  0  0  0  0  0  0  0  0
   36.2860   24.2410   31.1280 O   0  0  0  0  0  0  0  0  0  0  0  0
   35.5520   22.1470   32.0820 C   0  0  2  0  0  3  0  0  0  0  0  0
   36.6840   23.0840   31.7290 C   0  0  1  0  0  3  0  0  0  0  0  0
   37.6860   22.2790   30.9520 C   0  0  0  0  0  3  0  0  0  0  0  0
   37.3240   21.9780   29.9520 H   0  0  0  0  0  0  0  0  0  0  0  0
   37.9720   21.1220   31.6400 O   0  0  0  0  0  0  0  0  0  0  0  0
   37.5780   21.1230   32.9600 C   0  0  0  0  0  3  0  0  0  0  0  0
   38.1340   21.8370   33.6070 H   0  0  0  0  0  0  0  0  0  0  0  0
   36.0790   21.2190   33.1590 C   0  0  2  0  0  3  0  0  0  0  0  0
   35.3230   21.3290   30.9580 O   0  0  0  0  0  0  0  0  0  0  0  0
   35.7940   20.4610   31.0240 H   0  0  0  0  0  0  0  0  0  0  0  0
   35.4700   19.9680   33.0880 O   0  0  0  0  0  0  0  0  0  0  0  0
   34.5010   20.0890   32.9220 H   0  0  0  0  0  0  0  0  0  0  0  0
  1  5  1  0  0  0  0
  1  6  1  1  0  0  0
  1  2  1  0  0  0  0
  2  7  1  6  0  0  0
  2 12  1  0  0  0  0
  2  3  1  0  0  0  0
  4  8  1  0  0  0  0
  4  3  1  0  0  0  0
  4  9  1  0  0  0  0
  5 10  1  6  0  0  0
  5  4  1  0  0  0  0
 11 14  1  1  0  0  0
 11 18  1  0  0  0  0
 12 15  1  6  0  0  0
 12 11  1  0  0  0  0
 13 12  1  0  0  0  0
 13 11  1  0  0  0  0
 16 13  1  0  0  0  0
 17 13  1  0  0  0  0
 18 19  1  0  0  0  0
 19 24  1  0  0  0  0
 19 20  2  0  0  0  0
 20 25  1  0  0  0  0
 21 20  1  0  0  0  0
 22 21  2  0  0  0  0
 23 18  2  0  0  0  0
 23 22  1  0  0  0  0
 26 22  1  0  0  0  0
 27  1  1  0  0  0  0
 28 27  1  0  0  0  0
 29  5  1  0  0  0  0
 30 38  1  6  0  0  0
 30 37  1  0  0  0  0
 31 29  1  6  0  0  0
 31 30  1  0  0  0  0
 32 34  1  0  0  0  0
 32 31  1  0  0  0  0
 33 32  1  0  0  0  0
 34 35  1  0  0  0  0
 35 37  1  0  0  0  0
 35 36  1  0  0  0  0
 37 40  1  6  0  0  0
 38 39  1  0  0  0  0
 41 40  1  0  0  0  0
M  END
>  <minimizedAffinity>
-5.37093639

$$$$

 OpenBabel03272508293D

 41 44  0  0  1  0  0  0  0  0999 V2000
   37.0570   26.1110   32.7110 C   0  0  2  0  0  0  0  0  0  0  0  0
   37.8150   26.8950   31.6490 C   0  0  2  0  0  0  0  0  0  0  0  0
   38.8380   27.5130   32.2990 O   0  0  0  0  0  0  0  0  0  0  0  0
   39.1480   26.8460   33.4460 C   0  0  0  0  0  0  0  0  0  0  0  0
   38.2510   25.6250   33.5430 C   0  0  1  0  0  0  0  0  0  0  0  0
   36.4810   26.7870   33.3630 H   0  0  0  0  0  0  0  0  0  0  0  0
   38.2340   26.1830   30.9160 H   0  0  0  0  0  0  0  0  0  0  0  0
   40.2040   26.4820   33.4430 H   0  0  0  0  0  0  0  0  0  0  0  0
   39.0290   27.4710   34.3650 H   0  0  0  0  0  0  0  0  0  0  0  0
   38.7010   24.8230   32.9410 H   0  0  0  0  0  0  0  0  0  0  0  0
   37.1130   29.2900   30.9690 C   0  0  1  0  0  0  0  0  0  0  0  0
   36.8550   27.8730   31.0510 C   0  0  1  0  0  0  0  0  0  0  0  0
   37.0670   28.4460   29.6890 C   0  0  0  0  0  0  0  0  0  0  0  0
   38.0830   29.8120   31.0360 H   0  0  0  0  0  0  0  0  0  0  0  0
   35.7840   27.5850   31.2580 H   0  0  0  0  0  0  0  0  0  0  0  0
   36.1970   28.5770   29.0010 H   0  0  0  0  0  0  0  0  0  0  0  0
   37.9930   28.2600   29.1320 H   0  0  0  0  0  0  0  0  0  0  0  0
   35.9760   30.3000   31.0220 C   0  0  0  0  0  0  0  0  0  0  0  0
   36.2060   31.5470   30.4420 C   0  0  0  0  0  0  0  0  0  0  0  0
   35.1430   32.4410   30.5490 C   0  0  0  0  0  0  0  0  0  0  0  0
   33.9860   32.0930   31.1780 N   0  0  0  0  0  0  0  0  0  0  0  0
   33.8110   30.8670   31.7260 C   0  0  0  0  0  0  0  0  0  0  0  0
   34.8180   29.9620   31.6470 N   0  0  0  0  0  0  0  0  0  0  0  0
   37.1400   31.7690   29.9560 H   0  0  0  0  0  0  0  0  0  0  0  0
   35.2460   33.4230   30.1240 H   0  0  0  0  0  0  0  0  0  0  0  0
   32.9060   30.5590   32.2320 H   0  0  0  0  0  0  0  0  0  0  0  0
   36.3390   25.0430   32.2070 O   0  0  0  0  0  0  0  0  0  0  0  0
   35.5700   24.9120   32.8160 H   0  0  0  0  0  0  0  0  0  0  0  0
   37.8870   25.3050   34.8150 O   0  0  0  0  0  0  0  0  0  0  0  0
   38.3830   24.1470   36.8760 C   0  0  2  0  0  3  0  0  0  0  0  0
   38.4800   24.2100   35.3690 C   0  0  1  0  0  3  0  0  0  0  0  0
   37.9850   22.8910   34.8490 C   0  0  0  0  0  3  0  0  0  0  0  0
   36.9000   22.7410   34.9980 H   0  0  0  0  0  0  0  0  0  0  0  0
   38.6250   21.8700   35.5130 O   0  0  0  0  0  0  0  0  0  0  0  0
   39.7530   22.2510   36.2060 C   0  0  0  0  0  3  0  0  0  0  0  0
   40.5990   22.5810   35.5640 H   0  0  0  0  0  0  0  0  0  0  0  0
   39.4860   23.2170   37.3420 C   0  0  2  0  0  3  0  0  0  0  0  0
   37.1780   23.4890   37.1890 O   0  0  0  0  0  0  0  0  0  0  0  0
   37.3100   22.5230   37.3590 H   0  0  0  0  0  0  0  0  0  0  0  0
   39.1220   22.5500   38.5100 O   0  0  0  0  0  0  0  0  0  0  0  0
   38.6760   23.1890   39.1210 H   0  0  0  0  0  0  0  0  0  0  0  0
  1  6  1  1  0  0  0
  1  5  1  0  0  0  0
  2  7  1  6  0  0  0
  2  3  1  0  0  0  0
  2  1  1  0  0  0  0
  3  4  1  0  0  0  0
  4  5  1  0  0  0  0
  4  9  1  0  0  0  0
  5 10  1  6  0  0  0
  5 29  1  0  0  0  0
  8  4  1  0  0  0  0
 11 18  1  0  0  0  0
 11 14  1  1  0  0  0
 11 12  1  0  0  0  0
 12 15  1  1  0  0  0
 12  2  1  0  0  0  0
 13 11  1  0  0  0  0
 13 12  1  0  0  0  0
 16 13  1  0  0  0  0
 17 13  1  0  0  0  0
 18 23  1  0  0  0  0
 19 20  1  0  0  0  0
 19 18  2  0  0  0  0
 20 21  2  0  0  0  0
 21 22  1  0  0  0  0
 22 26  1  0  0  0  0
 23 22  2  0  0  0  0
 24 19  1  0  0  0  0
 25 20  1  0  0  0  0
 27  1  1  0  0  0  0
 27 28  1  0  0  0  0
 30 38  1  6  0  0  0
 30 37  1  0  0  0  0
 31 29  1  6  0  0  0
 31 30  1  0  0  0  0
 32 33  1  0  0  0  0
 32 31  1  0  0  0  0
 32 34  1  0  0  0  0
 34 35  1  0  0  0  0
 35 37  1  0  0  0  0
 36 35  1  0  0  0  0
 37 40  1  1  0  0  0
 38 39  1  0  0  0  0
 40 41  1  0  0  0  0
M  END
>  <minimizedAffinity>
-5.35093546

$$$$

 OpenBabel03272508293D

 41 44  0  0  1  0  0  0  0  0999 V2000
   37.2080   25.2790   31.3440 C   0  0  2  0  0  0  0  0  0  0  0  0
   36.5400   26.6340   31.5350 C   0  0  2  0  0  0  0  0  0  0  0  0
   35.3180   26.5350   30.9460 O   0  0  0  0  0  0  0  0  0  0  0  0
   34.9180   25.2340   30.8900 C   0  0  0  0  0  0  0  0  0  0  0  0
   35.9830   24.3810   31.5550 C   0  0  1  0  0  0  0  0  0  0  0  0
   37.5180   25.1370   30.2960 H   0  0  0  0  0  0  0  0  0  0  0  0
   36.4050   26.8110   32.6160 H   0  0  0  0  0  0  0  0  0  0  0  0
   33.9640   25.0680   31.4480 H   0  0  0  0  0  0  0  0  0  0  0  0
   34.7440   24.8700   29.8480 H   0  0  0  0  0  0  0  0  0  0  0  0
   35.8080   24.4000   32.6400 H   0  0  0  0  0  0  0  0  0  0  0  0
   36.9660   28.4690   29.7610 C   0  0  1  0  0  0  0  0  0  0  0  0
   37.4070   27.6520   30.8670 C   0  0  1  0  0  0  0  0  0  0  0  0
   37.2420   29.1130   31.1260 C   0  0  0  0  0  0  0  0  0  0  0  0
   35.9310   28.6900   29.4480 H   0  0  0  0  0  0  0  0  0  0  0  0
   38.4840   27.3200   30.8250 H   0  0  0  0  0  0  0  0  0  0  0  0
   38.1450   29.7630   31.2300 H   0  0  0  0  0  0  0  0  0  0  0  0
   36.4040   29.4940   31.7220 H   0  0  0  0  0  0  0  0  0  0  0  0
   37.9450   28.9490   28.7000 C   0  0  0  0  0  0  0  0  0  0  0  0
   37.7570   30.2370   28.1990 C   0  0  0  0  0  0  0  0  0  0  0  0
   38.6610   30.6110   27.2080 C   0  0  0  0  0  0  0  0  0  0  0  0
   39.6380   29.7620   26.7840 N   0  0  0  0  0  0  0  0  0  0  0  0
   39.7800   28.5190   27.3030 C   0  0  0  0  0  0  0  0  0  0  0  0
   38.9220   28.1100   28.2710 N   0  0  0  0  0  0  0  0  0  0  0  0
   36.9680   30.8670   28.5710 H   0  0  0  0  0  0  0  0  0  0  0  0
   38.5790   31.5910   26.7740 H   0  0  0  0  0  0  0  0  0  0  0  0
   40.5440   27.8210   26.9890 H   0  0  0  0  0  0  0  0  0  0  0  0
   38.1880   25.0060   32.2790 O   0  0  0  0  0  0  0  0  0  0  0  0
   38.8370   24.4040   31.8350 H   0  0  0  0  0  0  0  0  0  0  0  0
   36.1460   23.1550   30.9840 O   0  0  0  0  0  0  0  0  0  0  0  0
   35.2040   20.9350   31.1130 C   0  0  2  0  0  3  0  0  0  0  0  0
   35.9430   22.0700   31.7830 C   0  0  1  0  0  3  0  0  0  0  0  0
   37.1890   21.4810   32.3800 C   0  0  0  0  0  3  0  0  0  0  0  0
   37.9240   21.1520   31.6230 H   0  0  0  0  0  0  0  0  0  0  0  0
   36.8570   20.3730   33.1260 O   0  0  0  0  0  0  0  0  0  0  0  0
   35.5190   20.2630   33.4310 C   0  0  0  0  0  3  0  0  0  0  0  0
   35.1370   21.0440   34.1250 H   0  0  0  0  0  0  0  0  0  0  0  0
   34.6210   20.0830   32.2240 C   0  0  2  0  0  3  0  0  0  0  0  0
   36.1690   20.1250   30.4830 O   0  0  0  0  0  0  0  0  0  0  0  0
   36.4350   19.3540   31.0430 H   0  0  0  0  0  0  0  0  0  0  0  0
   34.5360   18.7460   31.8400 O   0  0  0  0  0  0  0  0  0  0  0  0
   34.2060   18.6980   30.9080 H   0  0  0  0  0  0  0  0  0  0  0  0
  1  6  1  6  0  0  0
  1  2  1  0  0  0  0
  1  5  1  0  0  0  0
  1 27  1  0  0  0  0
  2  7  1  1  0  0  0
  3  2  1  0  0  0  0
  4  3  1  0  0  0  0
  4  8  1  0  0  0  0
  4  5  1  0  0  0  0
  5 10  1  1  0  0  0
  9  4  1  0  0  0  0
 11 14  1  6  0  0  0
 11 12  1  0  0  0  0
 11 13  1  0  0  0  0
 12 15  1  6  0  0  0
 12 13  1  0  0  0  0
 12  2  1  0  0  0  0
 13 16  1  0  0  0  0
 13 17  1  0  0  0  0
 18 11  1  0  0  0  0
 19 24  1  0  0  0  0
 19 18  2  0  0  0  0
 20 19  1  0  0  0  0
 21 20  2  0  0  0  0
 21 22  1  0  0  0  0
 22 23  2  0  0  0  0
 23 18  1  0  0  0  0
 25 20  1  0  0  0  0
 26 22  1  0  0  0  0
 28 27  1  0  0  0  0
 29  5  1  0  0  0  0
 30 38  1  1  0  0  0
 30 31  1  0  0  0  0
 30 37  1  0  0  0  0
 31 29  1  6  0  0  0
 31 32  1  0  0  0  0
 32 34  1  0  0  0  0
 33 32  1  0  0  0  0
 34 35  1  0  0  0  0
 35 36  1  0  0  0  0
 37 40  1  6  0  0  0
 37 35  1  0  0  0  0
 38 39  1  0  0  0  0
 41 40  1  0  0  0  0
M  END
>  <minimizedAffinity>
-5.28609324

$$$$

 OpenBabel03272508293D

 41 44  0  0  1  0  0  0  0  0999 V2000
   37.7610   25.4430   33.4170 C   0  0  2  0  0  0  0  0  0  0  0  0
   38.0770   26.5740   32.4480 C   0  0  2  0  0  0  0  0  0  0  0  0
   38.8830   27.4340   33.1260 O   0  0  0  0  0  0  0  0  0  0  0  0
   39.5290   26.7890   34.1360 C   0  0  0  0  0  0  0  0  0  0  0  0
   39.1330   25.3240   34.0950 C   0  0  1  0  0  0  0  0  0  0  0  0
   37.0590   25.7780   34.1980 H   0  0  0  0  0  0  0  0  0  0  0  0
   38.6350   26.1580   31.5910 H   0  0  0  0  0  0  0  0  0  0  0  0
   40.6390   26.8360   34.0170 H   0  0  0  0  0  0  0  0  0  0  0  0
   39.3000   27.2100   35.1460 H   0  0  0  0  0  0  0  0  0  0  0  0
   39.7670   24.8200   33.3520 H   0  0  0  0  0  0  0  0  0  0  0  0
   36.6620   28.5530   31.5660 C   0  0  1  0  0  0  0  0  0  0  0  0
   36.7760   27.2030   32.0650 C   0  0  1  0  0  0  0  0  0  0  0  0
   36.3770   27.3680   30.6350 C   0  0  0  0  0  0  0  0  0  0  0  0
   37.4530   29.1870   31.1290 H   0  0  0  0  0  0  0  0  0  0  0  0
   35.9340   26.8600   32.7320 H   0  0  0  0  0  0  0  0  0  0  0  0
   35.3180   27.1800   30.3300 H   0  0  0  0  0  0  0  0  0  0  0  0
   37.0740   27.1410   29.8200 H   0  0  0  0  0  0  0  0  0  0  0  0
   35.4150   29.3840   31.8260 C   0  0  0  0  0  0  0  0  0  0  0  0
   35.2980   30.5870   31.1300 C   0  0  0  0  0  0  0  0  0  0  0  0
   34.1520   31.3210   31.4300 C   0  0  0  0  0  0  0  0  0  0  0  0
   33.2410   30.8700   32.3380 N   0  0  0  0  0  0  0  0  0  0  0  0
   33.4000   29.6930   32.9870 C   0  0  0  0  0  0  0  0  0  0  0  0
   34.5000   28.9430   32.7270 N   0  0  0  0  0  0  0  0  0  0  0  0
   36.0480   30.8950   30.4240 H   0  0  0  0  0  0  0  0  0  0  0  0
   33.9930   32.2600   30.9330 H   0  0  0  0  0  0  0  0  0  0  0  0
   32.6960   29.3070   33.7120 H   0  0  0  0  0  0  0  0  0  0  0  0
   37.4130   24.2590   32.7970 O   0  0  0  0  0  0  0  0  0  0  0  0
   36.8090   23.7840   33.4210 H   0  0  0  0  0  0  0  0  0  0  0  0
   39.0460   24.7390   35.3210 O   0  0  0  0  0  0  0  0  0  0  0  0
   39.7160   23.0310   36.8910 C   0  0  2  0  0  3  0  0  0  0  0  0
   40.0050   23.8250   35.6380 C   0  0  1  0  0  3  0  0  0  0  0  0
   40.3130   22.8290   34.5570 C   0  0  0  0  0  3  0  0  0  0  0  0
   39.4350   22.2340   34.2470 H   0  0  0  0  0  0  0  0  0  0  0  0
   41.2600   21.9410   35.0130 O   0  0  0  0  0  0  0  0  0  0  0  0
   41.9280   22.3420   36.1480 C   0  0  0  0  0  3  0  0  0  0  0  0
   42.5910   23.2240   36.0070 H   0  0  0  0  0  0  0  0  0  0  0  0
   41.0450   22.4810   37.3710 C   0  0  2  0  0  3  0  0  0  0  0  0
   38.9590   21.9070   36.5060 O   0  0  0  0  0  0  0  0  0  0  0  0
   39.5230   21.1040   36.3690 H   0  0  0  0  0  0  0  0  0  0  0  0
   40.8780   21.2630   38.0270 O   0  0  0  0  0  0  0  0  0  0  0  0
   40.0850   21.3200   38.6170 H   0  0  0  0  0  0  0  0  0  0  0  0
  1  5  1  0  0  0  0
  1  6  1  1  0  0  0
  2  7  1  6  0  0  0
  2  3  1  0  0  0  0
  2  1  1  0  0  0  0
  3  4  1  0  0  0  0
  4  9  1  0  0  0  0
  5 10  1  6  0  0  0
  5  4  1  0  0  0  0
  5 29  1  0  0  0  0
  8  4  1  0  0  0  0
 11 14  1  6  0  0  0
 11 18  1  0  0  0  0
 11 12  1  0  0  0  0
 12  2  1  0  0  0  0
 12 15  1  1  0  0  0
 13 11  1  0  0  0  0
 13 12  1  0  0  0  0
 16 13  1  0  0  0  0
 17 13  1  0  0  0  0
 18 23  1  0  0  0  0
 19 20  1  0  0  0  0
 19 18  2  0  0  0  0
 20 21  2  0  0  0  0
 21 22  1  0  0  0  0
 22 26  1  0  0  0  0
 23 22  2  0  0  0  0
 24 19  1  0  0  0  0
 25 20  1  0  0  0  0
 27  1  1  0  0  0  0
 27 28  1  0  0  0  0
 30 38  1  6  0  0  0
 30 37  1  0  0  0  0
 31 29  1  6  0  0  0
 31 30  1  0  0  0  0
 32 34  1  0  0  0  0
 32 31  1  0  0  0  0
 33 32  1  0  0  0  0
 34 35  1  0  0  0  0
 35 37  1  0  0  0  0
 36 35  1  0  0  0  0
 37 40  1  6  0  0  0
 39 38  1  0  0  0  0
 40 41  1  0  0  0  0
M  END
>  <minimizedAffinity>
-5.27269173

$$$$
