
 OpenBabel03272508273D

 41 44  0  0  1  0  0  0  0  0999 V2000
   33.8780   28.9560   47.2960 C   0  0  2  0  0  0  0  0  0  0  0  0
   34.6080   28.1800   48.3830 C   0  0  2  0  0  0  0  0  0  0  0  0
   33.7130   28.0200   49.3950 O   0  0  0  0  0  0  0  0  0  0  0  0
   32.4380   28.0970   48.9220 C   0  0  0  0  0  0  0  0  0  0  0  0
   32.5000   28.2920   47.4180 C   0  0  1  0  0  0  0  0  0  0  0  0
   33.7400   30.0090   47.5900 H   0  0  0  0  0  0  0  0  0  0  0  0
   34.8810   27.1870   47.9850 H   0  0  0  0  0  0  0  0  0  0  0  0
   31.8660   27.1560   49.1110 H   0  0  0  0  0  0  0  0  0  0  0  0
   31.8460   28.9260   49.3820 H   0  0  0  0  0  0  0  0  0  0  0  0
   32.6260   27.3050   46.9510 H   0  0  0  0  0  0  0  0  0  0  0  0
   35.7110   30.4170   49.0700 C   0  0  1  0  0  0  0  0  0  0  0  0
   35.7860   29.0020   48.7980 C   0  0  1  0  0  0  0  0  0  0  0  0
   35.9820   29.4330   50.2140 C   0  0  0  0  0  0  0  0  0  0  0  0
   34.8170   31.0200   49.3020 H   0  0  0  0  0  0  0  0  0  0  0  0
   36.7350   28.6540   48.2970 H   0  0  0  0  0  0  0  0  0  0  0  0
   37.0050   29.4130   50.6630 H   0  0  0  0  0  0  0  0  0  0  0  0
   35.2090   29.2600   50.9730 H   0  0  0  0  0  0  0  0  0  0  0  0
   36.9010   31.3300   48.8140 C   0  0  0  0  0  0  0  0  0  0  0  0
   37.0940   32.3860   49.7050 C   0  0  0  0  0  0  0  0  0  0  0  0
   38.1780   33.2070   49.4040 C   0  0  0  0  0  0  0  0  0  0  0  0
   38.9660   32.9710   48.3180 N   0  0  0  0  0  0  0  0  0  0  0  0
   38.7370   31.9290   47.4830 C   0  0  0  0  0  0  0  0  0  0  0  0
   37.6930   31.1020   47.7350 N   0  0  0  0  0  0  0  0  0  0  0  0
   36.4400   32.5270   50.5480 H   0  0  0  0  0  0  0  0  0  0  0  0
   38.3900   34.0430   50.0460 H   0  0  0  0  0  0  0  0  0  0  0  0
   39.3430   31.7140   46.6130 H   0  0  0  0  0  0  0  0  0  0  0  0
   34.4050   28.7730   46.0330 O   0  0  0  0  0  0  0  0  0  0  0  0
   34.2130   29.6030   45.5270 H   0  0  0  0  0  0  0  0  0  0  0  0
   31.5090   29.0810   46.9200 O   0  0  0  0  0  0  0  0  0  0  0  0
   29.9520   27.2460   46.7060 C   0  0  2  0  0  3  0  0  0  0  0  0
   30.5890   28.4820   46.1130 C   0  0  1  0  0  3  0  0  0  0  0  0
   29.4670   29.3730   45.6620 C   0  0  0  0  0  3  0  0  0  0  0  0
   28.8860   29.8000   46.4980 H   0  0  0  0  0  0  0  0  0  0  0  0
   28.5880   28.6440   44.8920 O   0  0  0  0  0  0  0  0  0  0  0  0
   29.0780   27.4380   44.4430 C   0  0  0  0  0  3  0  0  0  0  0  0
   29.9060   27.5230   43.7050 H   0  0  0  0  0  0  0  0  0  0  0  0
   29.3950   26.4480   45.5440 C   0  0  2  0  0  3  0  0  0  0  0  0
   28.8310   27.6710   47.4460 O   0  0  0  0  0  0  0  0  0  0  0  0
   27.9930   27.6070   46.9260 H   0  0  0  0  0  0  0  0  0  0  0  0
   28.2650   25.7260   45.9270 O   0  0  0  0  0  0  0  0  0  0  0  0
   28.4250   25.3230   46.8180 H   0  0  0  0  0  0  0  0  0  0  0  0
  1  5  1  0  0  0  0
  1  6  1  1  0  0  0
  1  2  1  0  0  0  0
  2  7  1  6  0  0  0
  2 12  1  0  0  0  0
  2  3  1  0  0  0  0
  4  8  1  0  0  0  0
  4  9  1  0  0  0  0
  4  3  1  0  0  0  0
  5 10  1  6  0  0  0
  5  4  1  0  0  0  0
 11 14  1  6  0  0  0
 11 13  1  0  0  0  0
 12 15  1  6  0  0  0
 12 11  1  0  0  0  0
 12 13  1  0  0  0  0
 13 16  1  0  0  0  0
 13 17  1  0  0  0  0
 18 11  1  0  0  0  0
 18 19  1  0  0  0  0
 19 24  1  0  0  0  0
 20 19  2  0  0  0  0
 20 25  1  0  0  0  0
 21 20  1  0  0  0  0
 22 23  1  0  0  0  0
 22 21  2  0  0  0  0
 23 18  2  0  0  0  0
 26 22  1  0  0  0  0
 27  1  1  0  0  0  0
 28 27  1  0  0  0  0
 29  5  1  0  0  0  0
 30 38  1  1  0  0  0
 31 30  1  0  0  0  0
 31 29  1  1  0  0  0
 32 31  1  0  0  0  0
 32 33  1  0  0  0  0
 34 32  1  0  0  0  0
 35 34  1  0  0  0  0
 35 37  1  0  0  0  0
 36 35  1  0  0  0  0
 37 40  1  1  0  0  0
 37 30  1  0  0  0  0
 39 38  1  0  0  0  0
 40 41  1  0  0  0  0
M  END
>  <minimizedAffinity>
-5.18775463

>  <minimizedRMSD>
0.414824009

$$$$
