
 OpenBabel03272508263D

 41 44  0  0  1  0  0  0  0  0999 V2000
   33.7600   28.8690   47.2180 C   0  0  2  0  0  0  0  0  0  0  0  0
   34.4720   28.0950   48.3180 C   0  0  2  0  0  0  0  0  0  0  0  0
   33.5490   27.9010   49.2980 O   0  0  0  0  0  0  0  0  0  0  0  0
   32.2880   27.9570   48.7850 C   0  0  0  0  0  0  0  0  0  0  0  0
   32.3940   28.1730   47.2860 C   0  0  1  0  0  0  0  0  0  0  0  0
   33.5880   29.9150   47.5200 H   0  0  0  0  0  0  0  0  0  0  0  0
   34.7800   27.1140   47.9160 H   0  0  0  0  0  0  0  0  0  0  0  0
   31.7320   27.0010   48.9440 H   0  0  0  0  0  0  0  0  0  0  0  0
   31.6630   28.7660   49.2370 H   0  0  0  0  0  0  0  0  0  0  0  0
   32.5570   27.1950   46.8110 H   0  0  0  0  0  0  0  0  0  0  0  0
   35.5350   30.3680   48.9470 C   0  0  1  0  0  0  0  0  0  0  0  0
   35.6170   28.9370   48.7810 C   0  0  1  0  0  0  0  0  0  0  0  0
   35.6900   29.4630   50.1760 C   0  0  0  0  0  0  0  0  0  0  0  0
   34.6300   30.9910   49.0560 H   0  0  0  0  0  0  0  0  0  0  0  0
   36.6030   28.5500   48.3930 H   0  0  0  0  0  0  0  0  0  0  0  0
   36.6680   29.4690   50.7160 H   0  0  0  0  0  0  0  0  0  0  0  0
   34.8500   29.3480   50.8710 H   0  0  0  0  0  0  0  0  0  0  0  0
   36.7530   31.2550   48.7400 C   0  0  0  0  0  0  0  0  0  0  0  0
   37.0050   32.2260   49.7080 C   0  0  0  0  0  0  0  0  0  0  0  0
   38.1130   33.0290   49.4500 C   0  0  0  0  0  0  0  0  0  0  0  0
   38.8690   32.8530   48.3300 N   0  0  0  0  0  0  0  0  0  0  0  0
   38.5840   31.8930   47.4180 C   0  0  0  0  0  0  0  0  0  0  0  0
   37.5140   31.0870   47.6270 N   0  0  0  0  0  0  0  0  0  0  0  0
   36.3740   32.3220   50.5750 H   0  0  0  0  0  0  0  0  0  0  0  0
   38.3700   33.8010   50.1530 H   0  0  0  0  0  0  0  0  0  0  0  0
   39.1630   31.7280   46.5200 H   0  0  0  0  0  0  0  0  0  0  0  0
   34.3310   28.7150   45.9700 O   0  0  0  0  0  0  0  0  0  0  0  0
   34.1370   29.5470   45.4690 H   0  0  0  0  0  0  0  0  0  0  0  0
   31.4020   28.9470   46.7670 O   0  0  0  0  0  0  0  0  0  0  0  0
   29.0330   29.2670   47.1220 C   0  0  2  0  0  3  0  0  0  0  0  0
   30.1670   28.3800   46.6620 C   0  0  1  0  0  3  0  0  0  0  0  0
   29.8080   27.8990   45.2840 C   0  0  0  0  0  3  0  0  0  0  0  0
   29.8270   28.7000   44.5230 H   0  0  0  0  0  0  0  0  0  0  0  0
   28.5290   27.3900   45.2990 O   0  0  0  0  0  0  0  0  0  0  0  0
   28.0290   27.1240   46.5540 C   0  0  0  0  0  3  0  0  0  0  0  0
   28.5400   26.2930   47.0890 H   0  0  0  0  0  0  0  0  0  0  0  0
   27.8650   28.3500   47.4290 C   0  0  2  0  0  3  0  0  0  0  0  0
   28.6290   30.0360   46.0140 O   0  0  0  0  0  0  0  0  0  0  0  0
   27.8570   29.6370   45.5410 H   0  0  0  0  0  0  0  0  0  0  0  0
   26.6490   28.9900   47.1940 O   0  0  0  0  0  0  0  0  0  0  0  0
   26.6990   29.9170   47.5400 H   0  0  0  0  0  0  0  0  0  0  0  0
  1  5  1  0  0  0  0
  1  6  1  1  0  0  0
  1  2  1  0  0  0  0
  2  7  1  6  0  0  0
  2 12  1  0  0  0  0
  2  3  1  0  0  0  0
  4  8  1  0  0  0  0
  4  9  1  0  0  0  0
  4  3  1  0  0  0  0
  5 10  1  6  0  0  0
  5  4  1  0  0  0  0
 11 14  1  6  0  0  0
 11 13  1  0  0  0  0
 12 15  1  6  0  0  0
 12 11  1  0  0  0  0
 12 13  1  0  0  0  0
 13 16  1  0  0  0  0
 13 17  1  0  0  0  0
 18 11  1  0  0  0  0
 18 19  1  0  0  0  0
 19 24  1  0  0  0  0
 20 19  2  0  0  0  0
 20 25  1  0  0  0  0
 21 20  1  0  0  0  0
 22 23  1  0  0  0  0
 22 21  2  0  0  0  0
 23 18  2  0  0  0  0
 26 22  1  0  0  0  0
 27  1  1  0  0  0  0
 28 27  1  0  0  0  0
 29  5  1  0  0  0  0
 30 38  1  6  0  0  0
 30 37  1  0  0  0  0
 31 29  1  6  0  0  0
 31 30  1  0  0  0  0
 32 34  1  0  0  0  0
 32 31  1  0  0  0  0
 33 32  1  0  0  0  0
 34 35  1  0  0  0  0
 35 36  1  0  0  0  0
 35 37  1  0  0  0  0
 37 40  1  6  0  0  0
 39 38  1  0  0  0  0
 40 41  1  0  0  0  0
M  END
>  <minimizedAffinity>
-5.62719536

>  <minimizedRMSD>
1.33300984

$$$$
