
 OpenBabel03272508263D

 41 44  0  0  1  0  0  0  0  0999 V2000
   33.6090   28.8240   47.1660 C   0  0  2  0  0  0  0  0  0  0  0  0
   34.3460   28.0130   48.2220 C   0  0  2  0  0  0  0  0  0  0  0  0
   33.4460   27.7880   49.2170 O   0  0  0  0  0  0  0  0  0  0  0  0
   32.1740   27.8620   48.7370 C   0  0  0  0  0  0  0  0  0  0  0  0
   32.2440   28.1270   47.2440 C   0  0  1  0  0  0  0  0  0  0  0  0
   33.4470   29.8590   47.5070 H   0  0  0  0  0  0  0  0  0  0  0  0
   34.6420   27.0450   47.7800 H   0  0  0  0  0  0  0  0  0  0  0  0
   31.6200   26.9020   48.8770 H   0  0  0  0  0  0  0  0  0  0  0  0
   31.5620   28.6570   49.2300 H   0  0  0  0  0  0  0  0  0  0  0  0
   32.3930   27.1660   46.7330 H   0  0  0  0  0  0  0  0  0  0  0  0
   35.4160   30.2550   48.9460 C   0  0  1  0  0  0  0  0  0  0  0  0
   35.5040   28.8380   48.6840 C   0  0  1  0  0  0  0  0  0  0  0  0
   35.6360   29.2750   50.1060 C   0  0  0  0  0  0  0  0  0  0  0  0
   34.5110   30.8580   49.1360 H   0  0  0  0  0  0  0  0  0  0  0  0
   36.4740   28.4880   48.2270 H   0  0  0  0  0  0  0  0  0  0  0  0
   36.6390   29.2590   50.6000 H   0  0  0  0  0  0  0  0  0  0  0  0
   34.8310   29.1060   50.8300 H   0  0  0  0  0  0  0  0  0  0  0  0
   36.6150   31.1670   48.7400 C   0  0  0  0  0  0  0  0  0  0  0  0
   36.8910   32.0910   49.7480 C   0  0  0  0  0  0  0  0  0  0  0  0
   37.9790   32.9220   49.4900 C   0  0  0  0  0  0  0  0  0  0  0  0
   38.6940   32.8140   48.3360 N   0  0  0  0  0  0  0  0  0  0  0  0
   38.3860   31.8990   47.3860 C   0  0  0  0  0  0  0  0  0  0  0  0
   37.3350   31.0680   47.5930 N   0  0  0  0  0  0  0  0  0  0  0  0
   36.2920   32.1330   50.6410 H   0  0  0  0  0  0  0  0  0  0  0  0
   38.2530   33.6600   50.2220 H   0  0  0  0  0  0  0  0  0  0  0  0
   38.9330   31.7880   46.4600 H   0  0  0  0  0  0  0  0  0  0  0  0
   34.1490   28.7100   45.9000 O   0  0  0  0  0  0  0  0  0  0  0  0
   33.9450   29.5590   45.4320 H   0  0  0  0  0  0  0  0  0  0  0  0
   31.2410   28.9200   46.7750 O   0  0  0  0  0  0  0  0  0  0  0  0
   28.8980   29.0820   47.3430 C   0  0  2  0  0  3  0  0  0  0  0  0
   30.0130   28.3440   46.6380 C   0  0  1  0  0  3  0  0  0  0  0  0
   29.5650   28.1400   45.2190 C   0  0  0  0  0  3  0  0  0  0  0  0
   29.5150   29.0790   44.6370 H   0  0  0  0  0  0  0  0  0  0  0  0
   28.3000   27.5950   45.2130 O   0  0  0  0  0  0  0  0  0  0  0  0
   27.8970   27.0660   46.4180 C   0  0  0  0  0  3  0  0  0  0  0  0
   28.4610   26.1610   46.7380 H   0  0  0  0  0  0  0  0  0  0  0  0
   27.7730   28.0840   47.5330 C   0  0  2  0  0  3  0  0  0  0  0  0
   28.4020   30.0450   46.4430 O   0  0  0  0  0  0  0  0  0  0  0  0
   27.6050   29.7240   45.9520 H   0  0  0  0  0  0  0  0  0  0  0  0
   26.5310   28.7170   47.5150 O   0  0  0  0  0  0  0  0  0  0  0  0
   26.5890   29.5570   48.0380 H   0  0  0  0  0  0  0  0  0  0  0  0
  1  5  1  0  0  0  0
  1  6  1  1  0  0  0
  1  2  1  0  0  0  0
  2  7  1  6  0  0  0
  2 12  1  0  0  0  0
  2  3  1  0  0  0  0
  4  8  1  0  0  0  0
  4  3  1  0  0  0  0
  4  9  1  0  0  0  0
  5 10  1  6  0  0  0
  5  4  1  0  0  0  0
 11 14  1  6  0  0  0
 11 13  1  0  0  0  0
 12 15  1  6  0  0  0
 12 11  1  0  0  0  0
 12 13  1  0  0  0  0
 13 16  1  0  0  0  0
 13 17  1  0  0  0  0
 18 11  1  0  0  0  0
 18 19  1  0  0  0  0
 19 24  1  0  0  0  0
 20 19  2  0  0  0  0
 20 25  1  0  0  0  0
 21 20  1  0  0  0  0
 22 23  1  0  0  0  0
 22 21  2  0  0  0  0
 23 18  2  0  0  0  0
 26 22  1  0  0  0  0
 27  1  1  0  0  0  0
 28 27  1  0  0  0  0
 29  5  1  0  0  0  0
 30 38  1  6  0  0  0
 30 37  1  0  0  0  0
 31 29  1  6  0  0  0
 31 30  1  0  0  0  0
 32 31  1  0  0  0  0
 33 32  1  0  0  0  0
 34 32  1  0  0  0  0
 34 35  1  0  0  0  0
 35 36  1  0  0  0  0
 35 37  1  0  0  0  0
 37 40  1  6  0  0  0
 39 38  1  0  0  0  0
 40 41  1  0  0  0  0
M  END
>  <minimizedAffinity>
-5.64960623

>  <minimizedRMSD>
1.37326634

$$$$
