
 OpenBabel03262522203D

 22 23  0  0  1  0  0  0  0  0999 V2000
   39.3770   22.7620   36.6850 C   0  0  1  0  0  3  0  0  0  0  0  0
   38.8060   22.8730   35.2880 C   0  0  2  0  0  3  0  0  0  0  0  0
   38.1610   24.2540   35.1920 C   0  0  0  0  0  3  0  0  0  0  0  0
   37.0710   24.1410   34.9830 H   0  0  0  0  0  0  0  0  0  0  0  0
   38.4320   25.0600   36.2720 O   0  0  0  0  0  0  0  0  0  0  0  0
   38.0370   24.5810   37.4920 C   0  0  0  0  0  3  0  0  0  0  0  0
   38.6990   25.0750   38.2570 H   0  0  0  0  0  0  0  0  0  0  0  0
   38.2890   23.0890   37.6560 C   0  0  2  0  0  3  0  0  0  0  0  0
   40.0090   21.5490   36.8980 O   0  0  0  0  0  0  0  0  0  0  0  0
   39.4040   20.7720   36.9180 H   0  0  0  0  0  0  0  0  0  0  0  0
   38.7160   22.8200   38.9690 O   0  0  0  0  0  0  0  0  0  0  0  0
   39.6820   22.6290   38.9440 H   0  0  0  0  0  0  0  0  0  0  0  0
   37.8720   21.8590   35.0270 O   0  0  0  0  0  0  0  0  0  0  0  0
   35.9940   21.0040   33.9720 C   0  0  0  0  0  0  0  0  0  0  0  0
   37.2670   21.5960   33.8200 C   0  0  0  0  0  0  0  0  0  0  0  0
   37.7310   21.8330   32.5350 C   0  0  0  0  0  0  0  0  0  0  0  0
   36.9450   21.4840   31.4970 N   0  0  0  0  0  0  0  0  0  0  0  0
   35.7420   20.9240   31.6520 C   0  0  0  0  0  0  0  0  0  0  0  0
   35.2400   20.6710   32.8940 N   0  0  0  0  0  0  0  0  0  0  0  0
   35.5210   20.7710   34.8920 H   0  0  0  0  0  0  0  0  0  0  0  0
   38.7110   22.2880   32.5050 H   0  0  0  0  0  0  0  0  0  0  0  0
   35.2810   20.7250   30.6890 H   0  0  0  0  0  0  0  0  0  0  0  0
  1  9  1  1  0  0  0
  1  8  1  0  0  0  0
  2 13  1  1  0  0  0
  2  1  1  0  0  0  0
  3  2  1  0  0  0  0
  3  5  1  0  0  0  0
  4  3  1  0  0  0  0
  5  6  1  0  0  0  0
  6  8  1  0  0  0  0
  6  7  1  0  0  0  0
  8 11  1  1  0  0  0
  9 10  1  0  0  0  0
 12 11  1  0  0  0  0
 14 20  1  0  0  0  0
 15 14  1  0  0  0  0
 15 13  1  0  0  0  0
 16 15  2  0  0  0  0
 17 18  2  0  0  0  0
 17 16  1  0  0  0  0
 18 19  1  0  0  0  0
 19 14  2  0  0  0  0
 21 16  1  0  0  0  0
 22 18  1  0  0  0  0
M  END
>  <minimizedAffinity>
-4.47771358

$$$$

 OpenBabel03262522203D

 22 23  0  0  1  0  0  0  0  0999 V2000
   38.4930   23.0010   36.6940 C   0  0  1  0  0  3  0  0  0  0  0  0
   39.1340   23.7480   35.5440 C   0  0  2  0  0  3  0  0  0  0  0  0
   40.5440   23.1810   35.3910 C   0  0  0  0  0  3  0  0  0  0  0  0
   41.2900   23.9930   35.5520 H   0  0  0  0  0  0  0  0  0  0  0  0
   40.7710   22.0660   36.1630 O   0  0  0  0  0  0  0  0  0  0  0  0
   40.6110   22.2290   37.5120 C   0  0  0  0  0  3  0  0  0  0  0  0
   40.3760   21.2090   37.9300 H   0  0  0  0  0  0  0  0  0  0  0  0
   39.4090   23.0900   37.8710 C   0  0  2  0  0  3  0  0  0  0  0  0
   37.1930   23.4150   36.9290 O   0  0  0  0  0  0  0  0  0  0  0  0
   37.1140   24.3320   37.2810 H   0  0  0  0  0  0  0  0  0  0  0  0
   38.7770   22.5720   39.0160 O   0  0  0  0  0  0  0  0  0  0  0  0
   37.9410   22.1330   38.7330 H   0  0  0  0  0  0  0  0  0  0  0  0
   39.1670   25.1310   35.7800 O   0  0  0  0  0  0  0  0  0  0  0  0
   37.7990   25.6370   33.9800 C   0  0  0  0  0  0  0  0  0  0  0  0
   38.3570   26.0790   35.1990 C   0  0  0  0  0  0  0  0  0  0  0  0
   38.0360   27.3520   35.6440 C   0  0  0  0  0  0  0  0  0  0  0  0
   37.2080   28.1030   34.8890 N   0  0  0  0  0  0  0  0  0  0  0  0
   36.6870   27.6750   33.7370 C   0  0  0  0  0  0  0  0  0  0  0  0
   36.9710   26.4310   33.2560 N   0  0  0  0  0  0  0  0  0  0  0  0
   37.9600   24.6910   33.5280 H   0  0  0  0  0  0  0  0  0  0  0  0
   38.5020   27.6140   36.5830 H   0  0  0  0  0  0  0  0  0  0  0  0
   36.0500   28.4360   33.2940 H   0  0  0  0  0  0  0  0  0  0  0  0
  1  9  1  1  0  0  0
  1  8  1  0  0  0  0
  2 13  1  1  0  0  0
  2  1  1  0  0  0  0
  3  2  1  0  0  0  0
  3  4  1  0  0  0  0
  3  5  1  0  0  0  0
  5  6  1  0  0  0  0
  6  8  1  0  0  0  0
  6  7  1  0  0  0  0
  8 11  1  1  0  0  0
  9 10  1  0  0  0  0
 12 11  1  0  0  0  0
 14 15  1  0  0  0  0
 15 16  2  0  0  0  0
 15 13  1  0  0  0  0
 16 21  1  0  0  0  0
 17 16  1  0  0  0  0
 18 17  2  0  0  0  0
 19 18  1  0  0  0  0
 19 14  2  0  0  0  0
 20 14  1  0  0  0  0
 22 18  1  0  0  0  0
M  END
>  <minimizedAffinity>
-4.4458046

$$$$

 OpenBabel03262522203D

 22 23  0  0  1  0  0  0  0  0999 V2000
   38.1380   27.4920   34.7980 C   0  0  1  0  0  3  0  0  0  0  0  0
   38.4490   26.0370   34.5250 C   0  0  2  0  0  3  0  0  0  0  0  0
   37.9910   25.7560   33.0950 C   0  0  0  0  0  3  0  0  0  0  0  0
   37.2030   24.9670   33.1050 H   0  0  0  0  0  0  0  0  0  0  0  0
   37.6250   26.8890   32.4060 O   0  0  0  0  0  0  0  0  0  0  0  0
   36.6070   27.6210   32.9550 C   0  0  0  0  0  3  0  0  0  0  0  0
   36.7350   28.6750   32.5800 H   0  0  0  0  0  0  0  0  0  0  0  0
   36.6980   27.7270   34.4700 C   0  0  2  0  0  3  0  0  0  0  0  0
   38.5220   27.8820   36.0690 O   0  0  0  0  0  0  0  0  0  0  0  0
   37.9960   27.4740   36.7970 H   0  0  0  0  0  0  0  0  0  0  0  0
   36.3130   29.0160   34.8820 O   0  0  0  0  0  0  0  0  0  0  0  0
   37.1240   29.5090   35.1440 H   0  0  0  0  0  0  0  0  0  0  0  0
   37.8030   25.1890   35.4380 O   0  0  0  0  0  0  0  0  0  0  0  0
   39.5600   23.7480   35.8920 C   0  0  0  0  0  0  0  0  0  0  0  0
   38.4090   24.3970   36.3870 C   0  0  0  0  0  0  0  0  0  0  0  0
   38.0440   24.1710   37.7050 C   0  0  0  0  0  0  0  0  0  0  0  0
   38.8080   23.3430   38.4470 N   0  0  0  0  0  0  0  0  0  0  0  0
   39.8950   22.7340   37.9670 C   0  0  0  0  0  0  0  0  0  0  0  0
   40.2960   22.9220   36.6780 N   0  0  0  0  0  0  0  0  0  0  0  0
   39.9490   23.8330   34.9080 H   0  0  0  0  0  0  0  0  0  0  0  0
   37.1540   24.7050   38.0060 H   0  0  0  0  0  0  0  0  0  0  0  0
   40.3590   22.1140   38.7300 H   0  0  0  0  0  0  0  0  0  0  0  0
  1  9  1  1  0  0  0
  2  1  1  0  0  0  0
  2 13  1  1  0  0  0
  3  4  1  0  0  0  0
  3  2  1  0  0  0  0
  5  6  1  0  0  0  0
  5  3  1  0  0  0  0
  6  8  1  0  0  0  0
  7  6  1  0  0  0  0
  8  1  1  0  0  0  0
  8 11  1  6  0  0  0
  9 10  1  0  0  0  0
 11 12  1  0  0  0  0
 13 15  1  0  0  0  0
 14 15  2  0  0  0  0
 14 19  1  0  0  0  0
 15 16  1  0  0  0  0
 16 21  1  0  0  0  0
 16 17  2  0  0  0  0
 18 17  1  0  0  0  0
 18 22  1  0  0  0  0
 19 18  2  0  0  0  0
 20 14  1  0  0  0  0
M  END
>  <minimizedAffinity>
-4.31358814

$$$$

 OpenBabel03262522203D

 22 23  0  0  1  0  0  0  0  0999 V2000
   39.0620   22.4090   35.9370 C   0  0  1  0  0  3  0  0  0  0  0  0
   38.9200   23.4340   34.8330 C   0  0  2  0  0  3  0  0  0  0  0  0
   40.3380   23.8040   34.4010 C   0  0  0  0  0  3  0  0  0  0  0  0
   40.5060   24.8930   34.5740 H   0  0  0  0  0  0  0  0  0  0  0  0
   41.3060   23.0030   34.9600 O   0  0  0  0  0  0  0  0  0  0  0  0
   41.3560   22.9900   36.3270 C   0  0  0  0  0  3  0  0  0  0  0  0
   41.8300   22.0100   36.6190 H   0  0  0  0  0  0  0  0  0  0  0  0
   39.9790   22.9710   36.9740 C   0  0  2  0  0  3  0  0  0  0  0  0
   37.8360   21.9750   36.4110 O   0  0  0  0  0  0  0  0  0  0  0  0
   37.3230   22.6590   36.9020 H   0  0  0  0  0  0  0  0  0  0  0  0
   39.9970   22.1380   38.1080 O   0  0  0  0  0  0  0  0  0  0  0  0
   39.5220   21.3040   37.8830 H   0  0  0  0  0  0  0  0  0  0  0  0
   38.2100   24.5650   35.2640 O   0  0  0  0  0  0  0  0  0  0  0  0
   37.4460   26.7510   35.1630 C   0  0  0  0  0  0  0  0  0  0  0  0
   37.6750   25.5470   34.4620 C   0  0  0  0  0  0  0  0  0  0  0  0
   37.3490   25.5010   33.1150 C   0  0  0  0  0  0  0  0  0  0  0  0
   36.8310   26.6070   32.5440 N   0  0  0  0  0  0  0  0  0  0  0  0
   36.6190   27.7410   33.2180 C   0  0  0  0  0  0  0  0  0  0  0  0
   36.9210   27.8370   34.5440 N   0  0  0  0  0  0  0  0  0  0  0  0
   37.6490   26.9220   36.1900 H   0  0  0  0  0  0  0  0  0  0  0  0
   37.5550   24.5460   32.6520 H   0  0  0  0  0  0  0  0  0  0  0  0
   36.1970   28.5030   32.5690 H   0  0  0  0  0  0  0  0  0  0  0  0
  1  9  1  1  0  0  0
  1  8  1  0  0  0  0
  2 13  1  1  0  0  0
  2  1  1  0  0  0  0
  3  4  1  0  0  0  0
  3  2  1  0  0  0  0
  3  5  1  0  0  0  0
  5  6  1  0  0  0  0
  6  7  1  0  0  0  0
  6  8  1  0  0  0  0
  8 11  1  1  0  0  0
  9 10  1  0  0  0  0
 12 11  1  0  0  0  0
 14 20  1  0  0  0  0
 15 14  2  0  0  0  0
 15 13  1  0  0  0  0
 16 15  1  0  0  0  0
 17 16  2  0  0  0  0
 17 18  1  0  0  0  0
 18 19  2  0  0  0  0
 19 14  1  0  0  0  0
 21 16  1  0  0  0  0
 22 18  1  0  0  0  0
M  END
>  <minimizedAffinity>
-4.18077755

$$$$

 OpenBabel03262522203D

 22 23  0  0  1  0  0  0  0  0999 V2000
   36.0900   27.4910   30.8930 C   0  0  1  0  0  3  0  0  0  0  0  0
   36.2340   27.7630   32.3740 C   0  0  2  0  0  3  0  0  0  0  0  0
   35.9760   29.2560   32.5680 C   0  0  0  0  0  3  0  0  0  0  0  0
   36.8840   29.7360   33.0000 H   0  0  0  0  0  0  0  0  0  0  0  0
   35.5090   29.8810   31.4360 O   0  0  0  0  0  0  0  0  0  0  0  0
   36.3200   29.8130   30.3370 C   0  0  0  0  0  3  0  0  0  0  0  0
   35.6510   29.9370   29.4390 H   0  0  0  0  0  0  0  0  0  0  0  0
   36.9720   28.4500   30.1600 C   0  0  2  0  0  3  0  0  0  0  0  0
   36.2870   26.1570   30.5820 O   0  0  0  0  0  0  0  0  0  0  0  0
   37.2130   25.8420   30.7060 H   0  0  0  0  0  0  0  0  0  0  0  0
   37.0170   28.1170   28.7930 O   0  0  0  0  0  0  0  0  0  0  0  0
   36.3340   27.4290   28.6230 H   0  0  0  0  0  0  0  0  0  0  0  0
   37.5060   27.4030   32.8460 O   0  0  0  0  0  0  0  0  0  0  0  0
   37.8020   25.4130   33.9950 C   0  0  0  0  0  0  0  0  0  0  0  0
   37.7920   26.8230   34.0600 C   0  0  0  0  0  0  0  0  0  0  0  0
   38.0610   27.4250   35.2800 C   0  0  0  0  0  0  0  0  0  0  0  0
   38.3170   26.6340   36.3410 N   0  0  0  0  0  0  0  0  0  0  0  0
   38.3220   25.3000   36.2680 C   0  0  0  0  0  0  0  0  0  0  0  0
   38.0640   24.6590   35.0930 N   0  0  0  0  0  0  0  0  0  0  0  0
   37.6140   24.8270   33.1300 H   0  0  0  0  0  0  0  0  0  0  0  0
   38.0360   28.5050   35.2440 H   0  0  0  0  0  0  0  0  0  0  0  0
   38.5500   24.8610   37.2350 H   0  0  0  0  0  0  0  0  0  0  0  0
  1  9  1  1  0  0  0
  1  2  1  0  0  0  0
  2  3  1  0  0  0  0
  2 13  1  6  0  0  0
  3  4  1  0  0  0  0
  5  3  1  0  0  0  0
  6  5  1  0  0  0  0
  7  6  1  0  0  0  0
  8 11  1  6  0  0  0
  8  6  1  0  0  0  0
  8  1  1  0  0  0  0
  9 10  1  0  0  0  0
 12 11  1  0  0  0  0
 13 15  1  0  0  0  0
 14 15  2  0  0  0  0
 14 19  1  0  0  0  0
 15 16  1  0  0  0  0
 16 17  2  0  0  0  0
 18 17  1  0  0  0  0
 18 22  1  0  0  0  0
 19 18  2  0  0  0  0
 20 14  1  0  0  0  0
 21 16  1  0  0  0  0
M  END
>  <minimizedAffinity>
-4.17906141

$$$$

 OpenBabel03262522203D

 22 23  0  0  1  0  0  0  0  0999 V2000
   35.8290   26.3120   31.1450 C   0  0  1  0  0  3  0  0  0  0  0  0
   36.4140   25.2470   32.0460 C   0  0  2  0  0  3  0  0  0  0  0  0
   37.1950   25.9810   33.1340 C   0  0  0  0  0  3  0  0  0  0  0  0
   38.2680   25.6830   33.0860 H   0  0  0  0  0  0  0  0  0  0  0  0
   37.0010   27.3420   33.1220 O   0  0  0  0  0  0  0  0  0  0  0  0
   37.3410   27.9850   31.9620 C   0  0  0  0  0  3  0  0  0  0  0  0
   36.7290   28.9300   31.9310 H   0  0  0  0  0  0  0  0  0  0  0  0
   36.9400   27.2130   30.7130 C   0  0  2  0  0  3  0  0  0  0  0  0
   35.0770   25.7730   30.1150 O   0  0  0  0  0  0  0  0  0  0  0  0
   35.6010   25.2760   29.4440 H   0  0  0  0  0  0  0  0  0  0  0  0
   36.4830   28.1070   29.7280 O   0  0  0  0  0  0  0  0  0  0  0  0
   35.5020   28.0270   29.6720 H   0  0  0  0  0  0  0  0  0  0  0  0
   37.2420   24.3640   31.3360 O   0  0  0  0  0  0  0  0  0  0  0  0
   35.7300   22.6170   31.5010 C   0  0  0  0  0  0  0  0  0  0  0  0
   37.0420   23.0130   31.1670 C   0  0  0  0  0  0  0  0  0  0  0  0
   37.9300   22.0420   30.7310 C   0  0  0  0  0  0  0  0  0  0  0  0
   37.4950   20.7690   30.6470 N   0  0  0  0  0  0  0  0  0  0  0  0
   36.2500   20.4050   30.9650 C   0  0  0  0  0  0  0  0  0  0  0  0
   35.3390   21.3210   31.4000 N   0  0  0  0  0  0  0  0  0  0  0  0
   34.9550   23.2540   31.8460 H   0  0  0  0  0  0  0  0  0  0  0  0
   38.9130   22.4270   30.4950 H   0  0  0  0  0  0  0  0  0  0  0  0
   36.1120   19.3360   30.8260 H   0  0  0  0  0  0  0  0  0  0  0  0
  1  9  1  6  0  0  0
  1  2  1  0  0  0  0
  2 13  1  6  0  0  0
  2  3  1  0  0  0  0
  4  3  1  0  0  0  0
  5  3  1  0  0  0  0
  6  5  1  0  0  0  0
  7  6  1  0  0  0  0
  8 11  1  6  0  0  0
  8  1  1  0  0  0  0
  8  6  1  0  0  0  0
 10  9  1  0  0  0  0
 12 11  1  0  0  0  0
 14 20  1  0  0  0  0
 15 13  1  0  0  0  0
 15 14  2  0  0  0  0
 16 15  1  0  0  0  0
 17 16  2  0  0  0  0
 17 18  1  0  0  0  0
 18 19  2  0  0  0  0
 19 14  1  0  0  0  0
 21 16  1  0  0  0  0
 22 18  1  0  0  0  0
M  END
>  <minimizedAffinity>
-4.13115311

$$$$

 OpenBabel03262522203D

 22 23  0  0  1  0  0  0  0  0999 V2000
   40.0920   23.5270   36.2870 C   0  0  1  0  0  3  0  0  0  0  0  0
   39.0060   24.1120   35.4110 C   0  0  2  0  0  3  0  0  0  0  0  0
   37.9030   24.5940   36.3500 C   0  0  0  0  0  3  0  0  0  0  0  0
   36.9580   24.0450   36.1260 H   0  0  0  0  0  0  0  0  0  0  0  0
   38.2600   24.5530   37.6780 O   0  0  0  0  0  0  0  0  0  0  0  0
   38.6130   23.3240   38.1660 C   0  0  0  0  0  3  0  0  0  0  0  0
   39.2840   23.5140   39.0500 H   0  0  0  0  0  0  0  0  0  0  0  0
   39.4610   22.5180   37.1920 C   0  0  2  0  0  3  0  0  0  0  0  0
   41.1680   23.0620   35.5510 O   0  0  0  0  0  0  0  0  0  0  0  0
   40.9730   22.2690   34.9990 H   0  0  0  0  0  0  0  0  0  0  0  0
   40.4540   21.8130   37.8970 O   0  0  0  0  0  0  0  0  0  0  0  0
   41.3170   22.2600   37.7400 H   0  0  0  0  0  0  0  0  0  0  0  0
   38.5150   23.1690   34.4940 O   0  0  0  0  0  0  0  0  0  0  0  0
   37.0640   22.2720   32.9260 C   0  0  0  0  0  0  0  0  0  0  0  0
   37.7160   23.4280   33.4050 C   0  0  0  0  0  0  0  0  0  0  0  0
   37.4840   24.6300   32.7520 C   0  0  0  0  0  0  0  0  0  0  0  0
   36.6480   24.6310   31.6940 N   0  0  0  0  0  0  0  0  0  0  0  0
   36.0370   23.5300   31.2500 C   0  0  0  0  0  0  0  0  0  0  0  0
   36.2320   22.3240   31.8560 N   0  0  0  0  0  0  0  0  0  0  0  0
   37.1520   21.2950   33.3300 H   0  0  0  0  0  0  0  0  0  0  0  0
   38.0190   25.4660   33.1800 H   0  0  0  0  0  0  0  0  0  0  0  0
   35.4110   23.7550   30.3910 H   0  0  0  0  0  0  0  0  0  0  0  0
  1  9  1  6  0  0  0
  1  8  1  0  0  0  0
  2 13  1  6  0  0  0
  2  1  1  0  0  0  0
  2  3  1  0  0  0  0
  3  5  1  0  0  0  0
  4  3  1  0  0  0  0
  5  6  1  0  0  0  0
  6  7  1  0  0  0  0
  8 11  1  1  0  0  0
  8  6  1  0  0  0  0
 10  9  1  0  0  0  0
 12 11  1  0  0  0  0
 14 20  1  0  0  0  0
 14 15  1  0  0  0  0
 15 13  1  0  0  0  0
 16 21  1  0  0  0  0
 16 15  2  0  0  0  0
 17 16  1  0  0  0  0
 18 17  2  0  0  0  0
 18 19  1  0  0  0  0
 19 14  2  0  0  0  0
 22 18  1  0  0  0  0
M  END
>  <minimizedAffinity>
-4.08086395

$$$$

 OpenBabel03262522203D

 22 23  0  0  1  0  0  0  0  0999 V2000
   39.6660   25.6500   33.6710 C   0  0  1  0  0  3  0  0  0  0  0  0
   38.3480   24.9330   33.8690 C   0  0  2  0  0  3  0  0  0  0  0  0
   37.4180   25.9220   34.5680 C   0  0  0  0  0  3  0  0  0  0  0  0
   37.1080   25.5070   35.5550 H   0  0  0  0  0  0  0  0  0  0  0  0
   37.9310   27.1960   34.6430 O   0  0  0  0  0  0  0  0  0  0  0  0
   39.1240   27.3220   35.3020 C   0  0  0  0  0  3  0  0  0  0  0  0
   39.6130   28.2530   34.8980 H   0  0  0  0  0  0  0  0  0  0  0  0
   40.0990   26.1960   34.9930 C   0  0  2  0  0  3  0  0  0  0  0  0
   40.6030   24.8590   33.0270 O   0  0  0  0  0  0  0  0  0  0  0  0
   40.9240   24.0930   33.5590 H   0  0  0  0  0  0  0  0  0  0  0  0
   41.4050   26.7100   34.9000 O   0  0  0  0  0  0  0  0  0  0  0  0
   41.6610   26.7270   33.9480 H   0  0  0  0  0  0  0  0  0  0  0  0
   38.5050   23.7620   34.6280 O   0  0  0  0  0  0  0  0  0  0  0  0
   39.6570   23.0160   36.4950 C   0  0  0  0  0  0  0  0  0  0  0  0
   38.5100   23.6740   36.0010 C   0  0  0  0  0  0  0  0  0  0  0  0
   37.5730   24.1330   36.9140 C   0  0  0  0  0  0  0  0  0  0  0  0
   37.8040   23.9250   38.2260 N   0  0  0  0  0  0  0  0  0  0  0  0
   38.8930   23.3000   38.6820 C   0  0  0  0  0  0  0  0  0  0  0  0
   39.8440   22.8310   37.8260 N   0  0  0  0  0  0  0  0  0  0  0  0
   40.4480   22.6190   35.9100 H   0  0  0  0  0  0  0  0  0  0  0  0
   36.7270   24.6250   36.4560 H   0  0  0  0  0  0  0  0  0  0  0  0
   38.8790   23.2410   39.7670 H   0  0  0  0  0  0  0  0  0  0  0  0
  1  9  1  1  0  0  0
  1  2  1  0  0  0  0
  1  8  1  0  0  0  0
  2  3  1  0  0  0  0
  2 13  1  1  0  0  0
  3  5  1  0  0  0  0
  3  4  1  0  0  0  0
  5  6  1  0  0  0  0
  7  6  1  0  0  0  0
  8 11  1  6  0  0  0
  8  6  1  0  0  0  0
  9 10  1  0  0  0  0
 12 11  1  0  0  0  0
 13 15  1  0  0  0  0
 14 19  1  0  0  0  0
 15 14  2  0  0  0  0
 15 16  1  0  0  0  0
 16 17  2  0  0  0  0
 17 18  1  0  0  0  0
 18 22  1  0  0  0  0
 19 18  2  0  0  0  0
 20 14  1  0  0  0  0
 21 16  1  0  0  0  0
M  END
>  <minimizedAffinity>
-4.0358839

$$$$

 OpenBabel03262522203D

 22 23  0  0  1  0  0  0  0  0999 V2000
   35.5170   20.5440   33.4570 C   0  0  1  0  0  3  0  0  0  0  0  0
   36.5380   21.6010   33.0990 C   0  0  2  0  0  3  0  0  0  0  0  0
   36.5620   21.6830   31.5740 C   0  0  0  0  0  3  0  0  0  0  0  0
   37.5810   21.4250   31.2040 H   0  0  0  0  0  0  0  0  0  0  0  0
   35.5590   20.9590   30.9730 O   0  0  0  0  0  0  0  0  0  0  0  0
   35.5440   19.6180   31.2440 C   0  0  0  0  0  3  0  0  0  0  0  0
   34.4820   19.2740   31.0900 H   0  0  0  0  0  0  0  0  0  0  0  0
   35.8550   19.3000   32.6990 C   0  0  2  0  0  3  0  0  0  0  0  0
   35.3880   20.3800   34.8250 O   0  0  0  0  0  0  0  0  0  0  0  0
   36.1770   19.9850   35.2660 H   0  0  0  0  0  0  0  0  0  0  0  0
   35.0480   18.2330   33.1370 O   0  0  0  0  0  0  0  0  0  0  0  0
   34.3490   18.5990   33.7260 H   0  0  0  0  0  0  0  0  0  0  0  0
   37.8080   21.2880   33.6090 O   0  0  0  0  0  0  0  0  0  0  0  0
   39.4550   22.9180   33.6500 C   0  0  0  0  0  0  0  0  0  0  0  0
   38.5910   22.0950   34.4030 C   0  0  0  0  0  0  0  0  0  0  0  0
   38.6310   22.1930   35.7850 C   0  0  0  0  0  0  0  0  0  0  0  0
   39.4930   23.0690   36.3390 N   0  0  0  0  0  0  0  0  0  0  0  0
   40.3080   23.8430   35.6160 C   0  0  0  0  0  0  0  0  0  0  0  0
   40.3070   23.7840   34.2540 N   0  0  0  0  0  0  0  0  0  0  0  0
   39.5260   22.9440   32.5910 H   0  0  0  0  0  0  0  0  0  0  0  0
   37.9390   21.5310   36.2870 H   0  0  0  0  0  0  0  0  0  0  0  0
   40.9160   24.4710   36.2600 H   0  0  0  0  0  0  0  0  0  0  0  0
  1  9  1  1  0  0  0
  2  1  1  0  0  0  0
  2 13  1  6  0  0  0
  3  2  1  0  0  0  0
  4  3  1  0  0  0  0
  5  6  1  0  0  0  0
  5  3  1  0  0  0  0
  6  8  1  0  0  0  0
  7  6  1  0  0  0  0
  8 11  1  1  0  0  0
  8  1  1  0  0  0  0
  9 10  1  0  0  0  0
 11 12  1  0  0  0  0
 13 15  1  0  0  0  0
 14 19  2  0  0  0  0
 14 15  1  0  0  0  0
 15 16  2  0  0  0  0
 16 21  1  0  0  0  0
 16 17  1  0  0  0  0
 18 22  1  0  0  0  0
 18 17  2  0  0  0  0
 19 18  1  0  0  0  0
 20 14  1  0  0  0  0
M  END
>  <minimizedAffinity>
-3.98290396

$$$$
