
 OpenBabel03272508273D

 41 44  0  0  1  0  0  0  0  0999 V2000
   33.8430   29.0280   47.3380 C   0  0  2  0  0  0  0  0  0  0  0  0
   34.6540   28.1980   48.3230 C   0  0  2  0  0  0  0  0  0  0  0  0
   33.8160   27.9190   49.3580 O   0  0  0  0  0  0  0  0  0  0  0  0
   32.5180   27.9800   48.9510 C   0  0  0  0  0  0  0  0  0  0  0  0
   32.4990   28.2980   47.4670 C   0  0  1  0  0  0  0  0  0  0  0  0
   33.6790   30.0470   47.7240 H   0  0  0  0  0  0  0  0  0  0  0  0
   34.9450   27.2530   47.8320 H   0  0  0  0  0  0  0  0  0  0  0  0
   31.9930   27.0040   49.0880 H   0  0  0  0  0  0  0  0  0  0  0  0
   31.9180   28.7440   49.5050 H   0  0  0  0  0  0  0  0  0  0  0  0
   32.6390   27.3590   46.9150 H   0  0  0  0  0  0  0  0  0  0  0  0
   35.7300   30.4510   49.0010 C   0  0  1  0  0  0  0  0  0  0  0  0
   35.8190   29.0330   48.7500 C   0  0  1  0  0  0  0  0  0  0  0  0
   35.9840   29.4830   50.1640 C   0  0  0  0  0  0  0  0  0  0  0  0
   34.8270   31.0520   49.2080 H   0  0  0  0  0  0  0  0  0  0  0  0
   36.7790   28.6840   48.2720 H   0  0  0  0  0  0  0  0  0  0  0  0
   36.9980   29.4760   50.6330 H   0  0  0  0  0  0  0  0  0  0  0  0
   35.1970   29.3160   50.9090 H   0  0  0  0  0  0  0  0  0  0  0  0
   36.9190   31.3680   48.7580 C   0  0  0  0  0  0  0  0  0  0  0  0
   37.1350   32.3870   49.6850 C   0  0  0  0  0  0  0  0  0  0  0  0
   38.2170   33.2150   49.3950 C   0  0  0  0  0  0  0  0  0  0  0  0
   38.9820   33.0170   48.2840 N   0  0  0  0  0  0  0  0  0  0  0  0
   38.7310   32.0110   47.4130 C   0  0  0  0  0  0  0  0  0  0  0  0
   37.6880   31.1790   47.6550 N   0  0  0  0  0  0  0  0  0  0  0  0
   36.5000   32.4980   50.5460 H   0  0  0  0  0  0  0  0  0  0  0  0
   38.4460   34.0240   50.0640 H   0  0  0  0  0  0  0  0  0  0  0  0
   39.3180   31.8270   46.5240 H   0  0  0  0  0  0  0  0  0  0  0  0
   34.3140   28.9700   46.0410 O   0  0  0  0  0  0  0  0  0  0  0  0
   34.0660   29.8290   45.6150 H   0  0  0  0  0  0  0  0  0  0  0  0
   31.4550   29.0830   47.0820 O   0  0  0  0  0  0  0  0  0  0  0  0
   29.4350   28.2940   48.1460 C   0  0  2  0  0  3  0  0  0  0  0  0
   30.2570   28.4650   46.8880 C   0  0  1  0  0  3  0  0  0  0  0  0
   29.3630   29.1200   45.8750 C   0  0  0  0  0  3  0  0  0  0  0  0
   29.1140   30.1680   46.1220 H   0  0  0  0  0  0  0  0  0  0  0  0
   28.1740   28.4310   45.8020 O   0  0  0  0  0  0  0  0  0  0  0  0
   28.1990   27.1790   46.3720 C   0  0  0  0  0  3  0  0  0  0  0  0
   28.8420   26.4420   45.8430 H   0  0  0  0  0  0  0  0  0  0  0  0
   28.4440   27.1810   47.8670 C   0  0  2  0  0  3  0  0  0  0  0  0
   28.6600   29.4610   48.2970 O   0  0  0  0  0  0  0  0  0  0  0  0
   27.7480   29.3560   47.9290 H   0  0  0  0  0  0  0  0  0  0  0  0
   27.2630   27.3690   48.5830 O   0  0  0  0  0  0  0  0  0  0  0  0
   27.4850   27.6620   49.5030 H   0  0  0  0  0  0  0  0  0  0  0  0
  1  5  1  0  0  0  0
  1  6  1  1  0  0  0
  1  2  1  0  0  0  0
  2  7  1  6  0  0  0
  2 12  1  0  0  0  0
  2  3  1  0  0  0  0
  4  8  1  0  0  0  0
  4  3  1  0  0  0  0
  4  9  1  0  0  0  0
  5 10  1  6  0  0  0
  5  4  1  0  0  0  0
 11 14  1  6  0  0  0
 11 13  1  0  0  0  0
 12 15  1  6  0  0  0
 12 11  1  0  0  0  0
 12 13  1  0  0  0  0
 13 16  1  0  0  0  0
 13 17  1  0  0  0  0
 18 11  1  0  0  0  0
 18 19  1  0  0  0  0
 19 24  1  0  0  0  0
 20 19  2  0  0  0  0
 20 25  1  0  0  0  0
 21 20  1  0  0  0  0
 22 23  1  0  0  0  0
 22 21  2  0  0  0  0
 23 18  2  0  0  0  0
 26 22  1  0  0  0  0
 27  1  1  0  0  0  0
 28 27  1  0  0  0  0
 29  5  1  0  0  0  0
 30 38  1  6  0  0  0
 31 29  1  1  0  0  0
 31 30  1  0  0  0  0
 32 33  1  0  0  0  0
 32 31  1  0  0  0  0
 34 32  1  0  0  0  0
 34 35  1  0  0  0  0
 35 37  1  0  0  0  0
 36 35  1  0  0  0  0
 37 30  1  0  0  0  0
 37 40  1  1  0  0  0
 39 38  1  0  0  0  0
 40 41  1  0  0  0  0
M  END
>  <minimizedAffinity>
-5.80041838

>  <minimizedRMSD>
2.31604433

$$$$
