
 OpenBabel03272508263D

 41 44  0  0  1  0  0  0  0  0999 V2000
   33.8900   28.9930   47.3020 C   0  0  2  0  0  0  0  0  0  0  0  0
   34.6430   28.1980   48.3590 C   0  0  2  0  0  0  0  0  0  0  0  0
   33.7570   27.9850   49.3690 O   0  0  0  0  0  0  0  0  0  0  0  0
   32.4780   28.0500   48.9060 C   0  0  0  0  0  0  0  0  0  0  0  0
   32.5280   28.2950   47.4090 C   0  0  1  0  0  0  0  0  0  0  0  0
   33.7300   30.0330   47.6320 H   0  0  0  0  0  0  0  0  0  0  0  0
   34.9350   27.2250   47.9270 H   0  0  0  0  0  0  0  0  0  0  0  0
   31.9280   27.0910   49.0660 H   0  0  0  0  0  0  0  0  0  0  0  0
   31.8710   28.8500   49.3960 H   0  0  0  0  0  0  0  0  0  0  0  0
   32.6720   27.3280   46.9090 H   0  0  0  0  0  0  0  0  0  0  0  0
   35.7210   30.4540   49.0260 C   0  0  1  0  0  0  0  0  0  0  0  0
   35.8050   29.0310   48.7950 C   0  0  1  0  0  0  0  0  0  0  0  0
   35.9490   29.5000   50.2050 C   0  0  0  0  0  0  0  0  0  0  0  0
   34.8180   31.0620   49.2100 H   0  0  0  0  0  0  0  0  0  0  0  0
   36.7710   28.6710   48.3380 H   0  0  0  0  0  0  0  0  0  0  0  0
   36.9550   29.4930   50.6920 H   0  0  0  0  0  0  0  0  0  0  0  0
   35.1490   29.3470   50.9390 H   0  0  0  0  0  0  0  0  0  0  0  0
   36.9190   31.3600   48.7910 C   0  0  0  0  0  0  0  0  0  0  0  0
   37.1150   32.4030   49.6970 C   0  0  0  0  0  0  0  0  0  0  0  0
   38.2080   33.2190   49.4140 C   0  0  0  0  0  0  0  0  0  0  0  0
   39.0000   32.9900   48.3290 N   0  0  0  0  0  0  0  0  0  0  0  0
   38.7690   31.9620   47.4790 C   0  0  0  0  0  0  0  0  0  0  0  0
   37.7160   31.1400   47.7140 N   0  0  0  0  0  0  0  0  0  0  0  0
   36.4570   32.5380   50.5370 H   0  0  0  0  0  0  0  0  0  0  0  0
   38.4220   34.0440   50.0680 H   0  0  0  0  0  0  0  0  0  0  0  0
   39.3780   31.7530   46.6100 H   0  0  0  0  0  0  0  0  0  0  0  0
   34.4130   28.8640   46.0310 O   0  0  0  0  0  0  0  0  0  0  0  0
   34.2010   29.7060   45.5540 H   0  0  0  0  0  0  0  0  0  0  0  0
   31.5160   29.0790   46.9430 O   0  0  0  0  0  0  0  0  0  0  0  0
   31.1240   29.5570   44.6070 C   0  0  2  0  0  3  0  0  0  0  0  0
   30.8890   28.6660   45.8060 C   0  0  1  0  0  3  0  0  0  0  0  0
   31.2210   27.2660   45.3740 C   0  0  0  0  0  3  0  0  0  0  0  0
   32.2990   27.1090   45.1870 H   0  0  0  0  0  0  0  0  0  0  0  0
   30.5630   26.9840   44.1980 O   0  0  0  0  0  0  0  0  0  0  0  0
   29.5430   27.8540   43.8850 C   0  0  0  0  0  3  0  0  0  0  0  0
   28.6700   27.8080   44.5730 H   0  0  0  0  0  0  0  0  0  0  0  0
   29.9970   29.2770   43.6330 C   0  0  2  0  0  3  0  0  0  0  0  0
   32.2950   29.1000   43.9720 O   0  0  0  0  0  0  0  0  0  0  0  0
   32.0990   28.4850   43.2220 H   0  0  0  0  0  0  0  0  0  0  0  0
   30.4140   29.4580   42.3150 O   0  0  0  0  0  0  0  0  0  0  0  0
   30.9690   30.2770   42.2620 H   0  0  0  0  0  0  0  0  0  0  0  0
  1  5  1  0  0  0  0
  1  6  1  1  0  0  0
  1  2  1  0  0  0  0
  2  7  1  6  0  0  0
  2 12  1  0  0  0  0
  2  3  1  0  0  0  0
  4  8  1  0  0  0  0
  4  3  1  0  0  0  0
  4  9  1  0  0  0  0
  5 10  1  6  0  0  0
  5  4  1  0  0  0  0
 11 14  1  6  0  0  0
 11 13  1  0  0  0  0
 12 15  1  6  0  0  0
 12 11  1  0  0  0  0
 12 13  1  0  0  0  0
 13 16  1  0  0  0  0
 13 17  1  0  0  0  0
 18 11  1  0  0  0  0
 18 19  1  0  0  0  0
 19 24  1  0  0  0  0
 20 19  2  0  0  0  0
 20 25  1  0  0  0  0
 21 20  1  0  0  0  0
 22 23  1  0  0  0  0
 22 21  2  0  0  0  0
 23 18  2  0  0  0  0
 26 22  1  0  0  0  0
 27  1  1  0  0  0  0
 28 27  1  0  0  0  0
 29  5  1  0  0  0  0
 30 38  1  6  0  0  0
 30 31  1  0  0  0  0
 31 29  1  1  0  0  0
 32 31  1  0  0  0  0
 33 32  1  0  0  0  0
 34 32  1  0  0  0  0
 35 34  1  0  0  0  0
 35 36  1  0  0  0  0
 37 40  1  6  0  0  0
 37 35  1  0  0  0  0
 37 30  1  0  0  0  0
 39 38  1  0  0  0  0
 41 40  1  0  0  0  0
M  END
>  <minimizedAffinity>
-4.82146692

>  <minimizedRMSD>
0.277054459

$$$$
