
 OpenBabel03262521443D

 49 52  0  0  1  0  0  0  0  0999 V2000
   37.9800   30.5380   45.1240 C   0  0  2  0  0  0  0  0  0  0  0  0
   38.5370   31.2020   46.3680 C   0  0  2  0  0  0  0  0  0  0  0  0
   40.0230   31.2180   46.2440 C   0  0  0  0  0  0  0  0  0  0  0  0
   40.4180   31.3790   44.9480 O   0  0  0  0  0  0  0  0  0  0  0  0
   39.5780   32.2650   44.3010 C   0  0  0  0  0  0  0  0  0  0  0  0
   38.2930   31.5400   43.9800 C   0  0  2  0  0  0  0  0  0  0  0  0
   38.5110   29.6000   44.9010 H   0  0  0  0  0  0  0  0  0  0  0  0
   38.2170   32.2300   46.1320 H   0  0  0  0  0  0  0  0  0  0  0  0
   40.5050   31.9530   46.9280 H   0  0  0  0  0  0  0  0  0  0  0  0
   40.3930   30.2090   46.5810 H   0  0  0  0  0  0  0  0  0  0  0  0
   39.4290   33.2300   44.8200 H   0  0  0  0  0  0  0  0  0  0  0  0
   40.0800   32.5450   43.3490 H   0  0  0  0  0  0  0  0  0  0  0  0
   38.4670   30.9960   43.0530 H   0  0  0  0  0  0  0  0  0  0  0  0
   36.6400   30.3500   45.0730 O   0  0  0  0  0  0  0  0  0  0  0  0
   36.3450   29.4010   45.1820 H   0  0  0  0  0  0  0  0  0  0  0  0
   38.0940   30.7230   47.5620 O   0  0  0  0  0  0  0  0  0  0  0  0
   37.4090   31.6400   48.2490 C   0  0  1  0  0  0  0  0  0  0  0  0
   36.5610   31.0930   49.3690 C   0  0  2  0  0  0  0  0  0  0  0  0
   37.6980   30.4750   50.2010 C   0  0  0  0  0  0  0  0  0  0  0  0
   38.7220   31.3900   50.1960 O   0  0  0  0  0  0  0  0  0  0  0  0
   38.4770   32.2610   49.2100 C   0  0  0  0  0  0  0  0  0  0  0  0
   37.1500   32.6020   47.7450 H   0  0  0  0  0  0  0  0  0  0  0  0
   36.1240   31.9060   49.9580 H   0  0  0  0  0  0  0  0  0  0  0  0
   37.3550   30.1780   51.1950 H   0  0  0  0  0  0  0  0  0  0  0  0
   37.9960   29.5370   49.6620 H   0  0  0  0  0  0  0  0  0  0  0  0
   37.7160   32.9370   49.7760 H   0  0  0  0  0  0  0  0  0  0  0  0
   39.0870   33.0300   48.8930 H   0  0  0  0  0  0  0  0  0  0  0  0
   35.6170   30.0690   48.9000 C   0  0  0  0  0  0  0  0  0  0  0  0
   34.7350   30.4170   47.8750 C   0  0  0  0  0  0  0  0  0  0  0  0
   33.8240   29.4100   47.4550 C   0  0  0  0  0  0  0  0  0  0  0  0
   33.8620   28.1840   48.0660 N   0  0  0  0  0  0  0  0  0  0  0  0
   34.7370   27.8980   49.0550 C   0  0  0  0  0  0  0  0  0  0  0  0
   35.6070   28.8420   49.4640 N   0  0  0  0  0  0  0  0  0  0  0  0
   34.6990   31.3710   47.3950 H   0  0  0  0  0  0  0  0  0  0  0  0
   33.1050   29.5620   46.6820 H   0  0  0  0  0  0  0  0  0  0  0  0
   34.7470   26.9220   49.5210 H   0  0  0  0  0  0  0  0  0  0  0  0
   37.3050   32.5180   43.9370 O   0  0  0  0  0  0  0  0  0  0  0  0
   37.3520   32.2080   41.5180 C   0  0  1  0  0  0  0  0  0  0  0  0
   36.7950   32.8520   42.7320 C   0  0  1  0  0  0  0  0  0  0  0  0
   35.2960   32.5400   42.7870 C   0  0  0  0  0  0  0  0  0  0  0  0
   34.6960   33.1960   42.1600 H   0  0  0  0  0  0  0  0  0  0  0  0
   35.0930   31.2130   42.4790 O   0  0  0  0  0  0  0  0  0  0  0  0
   35.2550   30.9430   41.1150 C   0  0  0  0  0  0  0  0  0  0  0  0
   35.6500   29.8990   41.0780 H   0  0  0  0  0  0  0  0  0  0  0  0
   36.2510   31.9090   40.5180 C   0  0  1  0  0  0  0  0  0  0  0  0
   38.2190   33.0890   40.8820 O   0  0  0  0  0  0  0  0  0  0  0  0
   38.6160   32.7070   40.0590 H   0  0  0  0  0  0  0  0  0  0  0  0
   35.6540   33.0530   40.0200 O   0  0  0  0  0  0  0  0  0  0  0  0
   34.7230   32.9550   39.7680 H   0  0  0  0  0  0  0  0  0  0  0  0
  1  7  1  6  0  0  0
  1  2  1  0  0  0  0
  2  8  1  6  0  0  0
  2 16  1  0  0  0  0
  3  2  1  0  0  0  0
  3 10  1  0  0  0  0
  3  9  1  0  0  0  0
  4  3  1  0  0  0  0
  5 11  1  0  0  0  0
  5  4  1  0  0  0  0
  6 13  1  6  0  0  0
  6  5  1  0  0  0  0
  6  1  1  0  0  0  0
 12  5  1  0  0  0  0
 14  1  1  0  0  0  0
 14 15  1  0  0  0  0
 16 17  1  0  0  0  0
 17 22  1  6  0  0  0
 17 21  1  0  0  0  0
 17 18  1  0  0  0  0
 18 23  1  1  0  0  0
 18 19  1  0  0  0  0
 19 24  1  0  0  0  0
 20 19  1  0  0  0  0
 21 26  1  0  0  0  0
 21 20  1  0  0  0  0
 25 19  1  0  0  0  0
 27 21  1  0  0  0  0
 28 18  1  0  0  0  0
 28 33  1  0  0  0  0
 29 28  2  0  0  0  0
 30 29  1  0  0  0  0
 30 31  2  0  0  0  0
 31 32  1  0  0  0  0
 32 33  2  0  0  0  0
 32 36  1  0  0  0  0
 34 29  1  0  0  0  0
 35 30  1  0  0  0  0
 37  6  1  0  0  0  0
 38 46  1  6  0  0  0
 38 39  1  0  0  0  0
 39 40  1  0  0  0  0
 39 37  1  1  0  0  0
 41 40  1  0  0  0  0
 42 40  1  0  0  0  0
 43 42  1  0  0  0  0
 44 43  1  0  0  0  0
 45 48  1  1  0  0  0
 45 43  1  0  0  0  0
 45 38  1  0  0  0  0
 47 46  1  0  0  0  0
 49 48  1  0  0  0  0
M  END
>  <minimizedAffinity>
-5.56795835

>  <minimizedRMSD>
3.12611413

$$$$
