
 OpenBabel03272500043D

 32 34  0  0  1  0  0  0  0  0999 V2000
   36.4160   29.7040   49.3060 C   0  0  0  0  0  0  0  0  0  0  0  0
   36.4980   30.6460   48.2370 C   0  0  0  0  0  0  0  0  0  0  0  0
   35.6540   30.4480   47.1660 C   0  0  0  0  0  0  0  0  0  0  0  0
   34.7990   29.3900   47.1730 N   0  0  0  0  0  0  0  0  0  0  0  0
   34.7370   28.5220   48.1800 C   0  0  0  0  0  0  0  0  0  0  0  0
   35.5490   28.6700   49.2670 N   0  0  0  0  0  0  0  0  0  0  0  0
   37.0640   29.8270   50.1690 H   0  0  0  0  0  0  0  0  0  0  0  0
   35.7190   31.1580   46.3620 H   0  0  0  0  0  0  0  0  0  0  0  0
   37.4340   31.7010   48.3600 N   0  0  0  0  0  0  0  0  0  0  0  0
   37.5170   32.4690   49.4480 C   0  0  0  0  0  0  0  0  0  0  0  0
   38.4650   33.4950   49.5010 C   0  0  0  0  0  0  0  0  0  0  0  0
   39.2450   33.6120   48.3830 C   0  0  0  0  0  0  0  0  0  0  0  0
   40.1110   34.5390   48.4130 O   0  0  0  0  0  0  0  0  0  0  0  0
   39.1900   32.8690   47.2850 N   0  0  0  0  0  0  0  0  0  0  0  0
   38.2540   31.8860   47.2830 C   0  0  0  0  0  0  0  0  0  0  0  0
   38.1880   31.1600   46.2330 O   0  0  0  0  0  0  0  0  0  0  0  0
   36.8460   32.2880   50.2820 H   0  0  0  0  0  0  0  0  0  0  0  0
   38.5590   34.1350   50.3690 H   0  0  0  0  0  0  0  0  0  0  0  0
   39.8270   33.0260   46.4720 H   0  0  0  0  0  0  0  0  0  0  0  0
   33.8730   27.4450   48.1990 O   0  0  0  0  0  0  0  0  0  0  0  0
   31.5620   26.7360   48.4440 C   0  0  1  0  0  0  0  0  0  0  0  0
   32.6240   27.3790   47.5990 C   0  0  1  0  0  0  0  0  0  0  0  0
   32.1030   28.7590   47.1980 C   0  0  0  0  0  0  0  0  0  0  0  0
   31.9000   29.3620   48.1090 H   0  0  0  0  0  0  0  0  0  0  0  0
   31.0090   28.6300   46.3660 O   0  0  0  0  0  0  0  0  0  0  0  0
   29.9570   27.9560   46.9290 C   0  0  0  0  0  0  0  0  0  0  0  0
   29.5620   27.1350   46.2890 H   0  0  0  0  0  0  0  0  0  0  0  0
   30.2110   27.4040   48.2920 C   0  0  2  0  0  0  0  0  0  0  0  0
   31.4000   25.3950   48.0680 O   0  0  0  0  0  0  0  0  0  0  0  0
   31.6840   25.2630   47.1200 H   0  0  0  0  0  0  0  0  0  0  0  0
   30.0240   28.3670   49.3020 O   0  0  0  0  0  0  0  0  0  0  0  0
   30.5440   28.1680   50.1160 H   0  0  0  0  0  0  0  0  0  0  0  0
  1  7  1  0  0  0  0
  2  9  1  0  0  0  0
  2  1  2  0  0  0  0
  3  4  2  0  0  0  0
  3  2  1  0  0  0  0
  4  5  1  0  0  0  0
  5 20  1  0  0  0  0
  5  6  2  0  0  0  0
  6  1  1  0  0  0  0
  8  3  1  0  0  0  0
  9 10  1  0  0  0  0
 10 11  2  0  0  0  0
 10 17  1  0  0  0  0
 11 18  1  0  0  0  0
 12 13  2  0  0  0  0
 12 11  1  0  0  0  0
 14 12  1  0  0  0  0
 15 14  1  0  0  0  0
 15  9  1  0  0  0  0
 16 15  2  0  0  0  0
 19 14  1  0  0  0  0
 21 29  1  6  0  0  0
 22 20  1  1  0  0  0
 22 21  1  0  0  0  0
 23 22  1  0  0  0  0
 23 24  1  0  0  0  0
 25 26  1  0  0  0  0
 25 23  1  0  0  0  0
 26 28  1  0  0  0  0
 27 26  1  0  0  0  0
 28 21  1  0  0  0  0
 28 31  1  1  0  0  0
 30 29  1  0  0  0  0
 31 32  1  0  0  0  0
M  END
>  <minimizedAffinity>
-5.73272562

>  <minimizedRMSD>
0.626225054

$$$$
