
 OpenBabel03272500043D

 32 34  0  0  1  0  0  0  0  0999 V2000
   35.8870   29.3200   49.2960 C   0  0  0  0  0  0  0  0  0  0  0  0
   35.8200   30.4500   48.4280 C   0  0  0  0  0  0  0  0  0  0  0  0
   34.7180   30.5370   47.6030 C   0  0  0  0  0  0  0  0  0  0  0  0
   33.7670   29.5660   47.6510 N   0  0  0  0  0  0  0  0  0  0  0  0
   33.8480   28.5190   48.4680 C   0  0  0  0  0  0  0  0  0  0  0  0
   34.9160   28.3820   49.3070 N   0  0  0  0  0  0  0  0  0  0  0  0
   36.7390   29.2160   49.9620 H   0  0  0  0  0  0  0  0  0  0  0  0
   34.6710   31.3890   46.9500 H   0  0  0  0  0  0  0  0  0  0  0  0
   36.8810   31.3860   48.4810 N   0  0  0  0  0  0  0  0  0  0  0  0
   37.2010   32.0500   49.5930 C   0  0  0  0  0  0  0  0  0  0  0  0
   38.2610   32.9620   49.5740 C   0  0  0  0  0  0  0  0  0  0  0  0
   38.8890   33.0840   48.3640 C   0  0  0  0  0  0  0  0  0  0  0  0
   39.8540   33.9070   48.3280 O   0  0  0  0  0  0  0  0  0  0  0  0
   38.5980   32.4420   47.2400 N   0  0  0  0  0  0  0  0  0  0  0  0
   37.5610   31.5680   47.3100 C   0  0  0  0  0  0  0  0  0  0  0  0
   37.2670   30.9400   46.2370 O   0  0  0  0  0  0  0  0  0  0  0  0
   36.6340   31.8760   50.5020 H   0  0  0  0  0  0  0  0  0  0  0  0
   38.5470   33.5160   50.4580 H   0  0  0  0  0  0  0  0  0  0  0  0
   39.1310   32.5950   46.3550 H   0  0  0  0  0  0  0  0  0  0  0  0
   32.8890   27.5280   48.5260 O   0  0  0  0  0  0  0  0  0  0  0  0
   30.9620   27.9270   47.0980 C   0  0  1  0  0  3  0  0  0  0  0  0
   31.5140   27.7070   48.4770 C   0  0  1  0  0  3  0  0  0  0  0  0
   30.7570   26.5230   49.0800 C   0  0  0  0  0  3  0  0  0  0  0  0
   30.9020   25.6240   48.4450 H   0  0  0  0  0  0  0  0  0  0  0  0
   29.4300   26.8550   49.2710 O   0  0  0  0  0  0  0  0  0  0  0  0
   28.7720   27.2060   48.1200 C   0  0  0  0  0  3  0  0  0  0  0  0
   28.2170   28.1680   48.2010 H   0  0  0  0  0  0  0  0  0  0  0  0
   29.6200   27.2560   46.8930 C   0  0  2  0  0  3  0  0  0  0  0  0
   30.7730   29.2970   46.8730 O   0  0  0  0  0  0  0  0  0  0  0  0
   30.6440   29.7770   47.7390 H   0  0  0  0  0  0  0  0  0  0  0  0
   29.7910   25.9860   46.3090 O   0  0  0  0  0  0  0  0  0  0  0  0
   30.6180   25.9230   45.7770 H   0  0  0  0  0  0  0  0  0  0  0  0
  1  6  1  0  0  0  0
  1  7  1  0  0  0  0
  2  9  1  0  0  0  0
  2  1  2  0  0  0  0
  3  4  2  0  0  0  0
  3  2  1  0  0  0  0
  4  5  1  0  0  0  0
  5 20  1  0  0  0  0
  5  6  2  0  0  0  0
  8  3  1  0  0  0  0
  9 10  1  0  0  0  0
 10 17  1  0  0  0  0
 11 10  2  0  0  0  0
 11 18  1  0  0  0  0
 12 11  1  0  0  0  0
 13 12  2  0  0  0  0
 14 15  1  0  0  0  0
 14 12  1  0  0  0  0
 15  9  1  0  0  0  0
 16 15  2  0  0  0  0
 19 14  1  0  0  0  0
 21 29  1  1  0  0  0
 21 22  1  0  0  0  0
 22 20  1  6  0  0  0
 22 23  1  0  0  0  0
 23 25  1  0  0  0  0
 24 23  1  0  0  0  0
 26 27  1  0  0  0  0
 26 25  1  0  0  0  0
 28 31  1  1  0  0  0
 28 21  1  0  0  0  0
 28 26  1  0  0  0  0
 29 30  1  0  0  0  0
 32 31  1  0  0  0  0
M  END
>  <minimizedAffinity>
-5.71195269

>  <minimizedRMSD>
1.52903354

$$$$
