
 OpenBabel03262521423D

 33 35  0  0  1  0  0  0  0  0999 V2000
   37.5400   31.9360   47.9160 C   0  0  1  0  0  0  0  0  0  0  0  0
   36.8100   31.3830   49.1440 C   0  0  2  0  0  0  0  0  0  0  0  0
   38.0360   30.9070   49.8960 C   0  0  0  0  0  0  0  0  0  0  0  0
   38.9510   31.9370   49.7860 O   0  0  0  0  0  0  0  0  0  0  0  0
   38.6530   32.6880   48.6880 C   0  0  0  0  0  0  0  0  0  0  0  0
   36.9390   32.6510   47.3430 H   0  0  0  0  0  0  0  0  0  0  0  0
   36.3580   32.2530   49.6400 H   0  0  0  0  0  0  0  0  0  0  0  0
   37.7810   30.7560   50.9740 H   0  0  0  0  0  0  0  0  0  0  0  0
   38.4250   29.9840   49.4470 H   0  0  0  0  0  0  0  0  0  0  0  0
   39.5600   32.7570   48.0510 H   0  0  0  0  0  0  0  0  0  0  0  0
   38.3230   33.7240   48.9240 H   0  0  0  0  0  0  0  0  0  0  0  0
   35.8820   30.3030   48.7860 C   0  0  0  0  0  0  0  0  0  0  0  0
   35.1100   30.4120   47.6200 C   0  0  0  0  0  0  0  0  0  0  0  0
   34.2150   29.3510   47.3400 C   0  0  0  0  0  0  0  0  0  0  0  0
   34.1620   28.2980   48.2130 N   0  0  0  0  0  0  0  0  0  0  0  0
   34.9290   28.2340   49.3320 C   0  0  0  0  0  0  0  0  0  0  0  0
   35.7860   29.2420   49.6100 N   0  0  0  0  0  0  0  0  0  0  0  0
   35.2150   31.2800   46.9850 H   0  0  0  0  0  0  0  0  0  0  0  0
   33.6140   29.4060   46.4580 H   0  0  0  0  0  0  0  0  0  0  0  0
   34.8220   27.3660   49.9660 H   0  0  0  0  0  0  0  0  0  0  0  0
   38.1940   30.9710   47.2110 O   0  0  0  0  0  0  0  0  0  0  0  0
   38.6070   32.0500   45.0610 C   0  0  2  0  0  0  0  0  0  0  0  0
   39.1080   31.5870   46.3750 C   0  0  2  0  0  0  0  0  0  0  0  0
   40.3010   30.6670   46.1050 C   0  0  0  0  0  0  0  0  0  0  0  0
   40.9480   30.7210   46.9910 H   0  0  0  0  0  0  0  0  0  0  0  0
   40.9920   31.0910   44.9940 O   0  0  0  0  0  0  0  0  0  0  0  0
   41.0430   32.4700   44.9690 C   0  0  0  0  0  0  0  0  0  0  0  0
   41.8520   32.7620   44.2700 H   0  0  0  0  0  0  0  0  0  0  0  0
   39.6970   32.9710   44.4940 C   0  0  2  0  0  0  0  0  0  0  0  0
   37.4500   32.7780   45.0520 O   0  0  0  0  0  0  0  0  0  0  0  0
   36.7100   32.2090   44.7250 H   0  0  0  0  0  0  0  0  0  0  0  0
   39.5390   34.2550   45.0500 O   0  0  0  0  0  0  0  0  0  0  0  0
   39.7040   34.8920   44.3120 H   0  0  0  0  0  0  0  0  0  0  0  0
  1  6  1  6  0  0  0
  1  5  1  0  0  0  0
  1  2  1  0  0  0  0
  2  7  1  1  0  0  0
  2  3  1  0  0  0  0
  3  8  1  0  0  0  0
  4  3  1  0  0  0  0
  5 11  1  0  0  0  0
  5  4  1  0  0  0  0
  9  3  1  0  0  0  0
 10  5  1  0  0  0  0
 12  2  1  0  0  0  0
 12 17  1  0  0  0  0
 13 12  2  0  0  0  0
 14 13  1  0  0  0  0
 14 15  2  0  0  0  0
 15 16  1  0  0  0  0
 16 17  2  0  0  0  0
 16 20  1  0  0  0  0
 18 13  1  0  0  0  0
 19 14  1  0  0  0  0
 21  1  1  0  0  0  0
 22 30  1  1  0  0  0
 22 23  1  0  0  0  0
 23 21  1  6  0  0  0
 24 23  1  0  0  0  0
 24 25  1  0  0  0  0
 26 24  1  0  0  0  0
 27 26  1  0  0  0  0
 28 27  1  0  0  0  0
 29 27  1  0  0  0  0
 29 32  1  1  0  0  0
 29 22  1  0  0  0  0
 31 30  1  0  0  0  0
 33 32  1  0  0  0  0
M  END
>  <minimizedAffinity>
-5.48087454

>  <minimizedRMSD>
4.57547379

$$$$
