
 OpenBabel03272500043D

 32 34  0  0  1  0  0  0  0  0999 V2000
   35.9030   29.2870   49.2320 C   0  0  0  0  0  0  0  0  0  0  0  0
   35.8170   30.4430   48.4010 C   0  0  0  0  0  0  0  0  0  0  0  0
   34.6980   30.5560   47.6030 C   0  0  0  0  0  0  0  0  0  0  0  0
   33.7480   29.5820   47.6410 N   0  0  0  0  0  0  0  0  0  0  0  0
   33.8470   28.5100   48.4230 C   0  0  0  0  0  0  0  0  0  0  0  0
   34.9330   28.3480   49.2340 N   0  0  0  0  0  0  0  0  0  0  0  0
   36.7690   29.1630   49.8760 H   0  0  0  0  0  0  0  0  0  0  0  0
   34.6360   31.4270   46.9780 H   0  0  0  0  0  0  0  0  0  0  0  0
   36.8780   31.3790   48.4620 N   0  0  0  0  0  0  0  0  0  0  0  0
   37.1990   32.0350   49.5780 C   0  0  0  0  0  0  0  0  0  0  0  0
   38.2590   32.9460   49.5650 C   0  0  0  0  0  0  0  0  0  0  0  0
   38.8880   33.0760   48.3570 C   0  0  0  0  0  0  0  0  0  0  0  0
   39.8530   33.8990   48.3270 O   0  0  0  0  0  0  0  0  0  0  0  0
   38.5970   32.4410   47.2290 N   0  0  0  0  0  0  0  0  0  0  0  0
   37.5590   31.5680   47.2920 C   0  0  0  0  0  0  0  0  0  0  0  0
   37.2660   30.9470   46.2150 O   0  0  0  0  0  0  0  0  0  0  0  0
   36.6310   31.8550   50.4850 H   0  0  0  0  0  0  0  0  0  0  0  0
   38.5450   33.4940   50.4540 H   0  0  0  0  0  0  0  0  0  0  0  0
   39.1310   32.6000   46.3450 H   0  0  0  0  0  0  0  0  0  0  0  0
   32.8900   27.5170   48.4700 O   0  0  0  0  0  0  0  0  0  0  0  0
   30.9370   27.9290   47.0810 C   0  0  1  0  0  3  0  0  0  0  0  0
   31.5140   27.6950   48.4470 C   0  0  1  0  0  3  0  0  0  0  0  0
   30.7690   26.5050   49.0520 C   0  0  0  0  0  3  0  0  0  0  0  0
   30.9030   25.6110   48.4050 H   0  0  0  0  0  0  0  0  0  0  0  0
   29.4450   26.8330   49.2700 O   0  0  0  0  0  0  0  0  0  0  0  0
   28.7670   27.1950   48.1350 C   0  0  0  0  0  3  0  0  0  0  0  0
   28.2130   28.1550   48.2360 H   0  0  0  0  0  0  0  0  0  0  0  0
   29.5920   27.2590   46.8940 C   0  0  2  0  0  3  0  0  0  0  0  0
   30.7430   29.3010   46.8730 O   0  0  0  0  0  0  0  0  0  0  0  0
   30.6290   29.7720   47.7470 H   0  0  0  0  0  0  0  0  0  0  0  0
   29.7530   25.9950   46.2930 O   0  0  0  0  0  0  0  0  0  0  0  0
   30.5710   25.9380   45.7450 H   0  0  0  0  0  0  0  0  0  0  0  0
  1  6  1  0  0  0  0
  1  7  1  0  0  0  0
  2  9  1  0  0  0  0
  2  1  2  0  0  0  0
  3  4  2  0  0  0  0
  3  2  1  0  0  0  0
  4  5  1  0  0  0  0
  5 20  1  0  0  0  0
  5  6  2  0  0  0  0
  8  3  1  0  0  0  0
  9 10  1  0  0  0  0
 10 17  1  0  0  0  0
 11 10  2  0  0  0  0
 11 18  1  0  0  0  0
 12 11  1  0  0  0  0
 13 12  2  0  0  0  0
 14 15  1  0  0  0  0
 14 12  1  0  0  0  0
 15  9  1  0  0  0  0
 16 15  2  0  0  0  0
 19 14  1  0  0  0  0
 21 29  1  1  0  0  0
 21 22  1  0  0  0  0
 22 20  1  6  0  0  0
 22 23  1  0  0  0  0
 23 25  1  0  0  0  0
 24 23  1  0  0  0  0
 26 27  1  0  0  0  0
 26 25  1  0  0  0  0
 28 31  1  1  0  0  0
 28 21  1  0  0  0  0
 28 26  1  0  0  0  0
 29 30  1  0  0  0  0
 32 31  1  0  0  0  0
M  END
>  <minimizedAffinity>
-5.67996979

>  <minimizedRMSD>
1.40181482

$$$$
