
 OpenBabel03272500043D

 32 34  0  0  1  0  0  0  0  0999 V2000
   36.1160   29.3250   49.3250 C   0  0  0  0  0  0  0  0  0  0  0  0
   36.0040   30.4540   48.4600 C   0  0  0  0  0  0  0  0  0  0  0  0
   34.9190   30.4830   47.6100 C   0  0  0  0  0  0  0  0  0  0  0  0
   34.0240   29.4580   47.6310 N   0  0  0  0  0  0  0  0  0  0  0  0
   34.1460   28.4130   48.4460 C   0  0  0  0  0  0  0  0  0  0  0  0
   35.2000   28.3330   49.3090 N   0  0  0  0  0  0  0  0  0  0  0  0
   36.9570   29.2660   50.0100 H   0  0  0  0  0  0  0  0  0  0  0  0
   34.8370   31.3340   46.9600 H   0  0  0  0  0  0  0  0  0  0  0  0
   37.0080   31.4490   48.5420 N   0  0  0  0  0  0  0  0  0  0  0  0
   37.2060   32.1850   49.6370 C   0  0  0  0  0  0  0  0  0  0  0  0
   38.2160   33.1520   49.6480 C   0  0  0  0  0  0  0  0  0  0  0  0
   38.9290   33.2480   48.4850 C   0  0  0  0  0  0  0  0  0  0  0  0
   39.8510   34.1200   48.4770 O   0  0  0  0  0  0  0  0  0  0  0  0
   38.7610   32.5340   47.3790 N   0  0  0  0  0  0  0  0  0  0  0  0
   37.7680   31.6090   47.4180 C   0  0  0  0  0  0  0  0  0  0  0  0
   37.5920   30.9120   46.3620 O   0  0  0  0  0  0  0  0  0  0  0  0
   36.5790   32.0260   50.5090 H   0  0  0  0  0  0  0  0  0  0  0  0
   38.4020   33.7650   50.5200 H   0  0  0  0  0  0  0  0  0  0  0  0
   39.3540   32.6720   46.5300 H   0  0  0  0  0  0  0  0  0  0  0  0
   33.2440   27.3680   48.4770 O   0  0  0  0  0  0  0  0  0  0  0  0
   32.0250   26.7540   46.4650 C   0  0  1  0  0  3  0  0  0  0  0  0
   32.0060   27.3290   47.8530 C   0  0  1  0  0  3  0  0  0  0  0  0
   30.9820   26.5270   48.6570 C   0  0  0  0  0  3  0  0  0  0  0  0
   31.2750   25.4550   48.6740 H   0  0  0  0  0  0  0  0  0  0  0  0
   29.7130   26.7430   48.1590 O   0  0  0  0  0  0  0  0  0  0  0  0
   29.5600   26.3810   46.8450 C   0  0  0  0  0  3  0  0  0  0  0  0
   29.0980   27.1770   46.2160 H   0  0  0  0  0  0  0  0  0  0  0  0
   30.8020   25.9110   46.1660 C   0  0  2  0  0  3  0  0  0  0  0  0
   32.0490   27.7880   45.5210 O   0  0  0  0  0  0  0  0  0  0  0  0
   31.6490   28.6200   45.9050 H   0  0  0  0  0  0  0  0  0  0  0  0
   31.0700   24.5520   46.4210 O   0  0  0  0  0  0  0  0  0  0  0  0
   32.0260   24.3320   46.3360 H   0  0  0  0  0  0  0  0  0  0  0  0
  1  7  1  0  0  0  0
  2  9  1  0  0  0  0
  2  1  2  0  0  0  0
  3  4  2  0  0  0  0
  3  2  1  0  0  0  0
  4  5  1  0  0  0  0
  5 20  1  0  0  0  0
  5  6  2  0  0  0  0
  6  1  1  0  0  0  0
  8  3  1  0  0  0  0
  9 10  1  0  0  0  0
 10 11  2  0  0  0  0
 10 17  1  0  0  0  0
 11 18  1  0  0  0  0
 12 11  1  0  0  0  0
 13 12  2  0  0  0  0
 14 15  1  0  0  0  0
 14 12  1  0  0  0  0
 15  9  1  0  0  0  0
 16 15  2  0  0  0  0
 19 14  1  0  0  0  0
 21 29  1  6  0  0  0
 21 22  1  0  0  0  0
 22 20  1  1  0  0  0
 22 23  1  0  0  0  0
 23 24  1  0  0  0  0
 25 23  1  0  0  0  0
 26 25  1  0  0  0  0
 27 26  1  0  0  0  0
 28 31  1  1  0  0  0
 28 21  1  0  0  0  0
 28 26  1  0  0  0  0
 29 30  1  0  0  0  0
 32 31  1  0  0  0  0
M  END
>  <minimizedAffinity>
-5.5311079

>  <minimizedRMSD>
0.327666253

$$$$
