
 OpenBabel03272500043D

 32 34  0  0  1  0  0  0  0  0999 V2000
   36.0050   29.3150   49.4430 C   0  0  0  0  0  0  0  0  0  0  0  0
   35.9320   30.4170   48.5400 C   0  0  0  0  0  0  0  0  0  0  0  0
   34.8680   30.4340   47.6620 C   0  0  0  0  0  0  0  0  0  0  0  0
   33.9570   29.4250   47.6950 N   0  0  0  0  0  0  0  0  0  0  0  0
   34.0430   28.4050   48.5460 C   0  0  0  0  0  0  0  0  0  0  0  0
   35.0750   28.3380   49.4370 N   0  0  0  0  0  0  0  0  0  0  0  0
   36.8290   29.2670   50.1500 H   0  0  0  0  0  0  0  0  0  0  0  0
   34.8160   31.2650   46.9830 H   0  0  0  0  0  0  0  0  0  0  0  0
   36.9490   31.3990   48.6140 N   0  0  0  0  0  0  0  0  0  0  0  0
   37.0630   32.2440   49.6400 C   0  0  0  0  0  0  0  0  0  0  0  0
   38.0920   33.1900   49.6480 C   0  0  0  0  0  0  0  0  0  0  0  0
   38.9130   33.1520   48.5550 C   0  0  0  0  0  0  0  0  0  0  0  0
   39.8530   34.0030   48.5450 O   0  0  0  0  0  0  0  0  0  0  0  0
   38.8300   32.3280   47.5180 N   0  0  0  0  0  0  0  0  0  0  0  0
   37.8150   31.4280   47.5570 C   0  0  0  0  0  0  0  0  0  0  0  0
   37.7200   30.6260   46.5670 O   0  0  0  0  0  0  0  0  0  0  0  0
   36.3530   32.1880   50.4600 H   0  0  0  0  0  0  0  0  0  0  0  0
   38.2120   33.8890   50.4660 H   0  0  0  0  0  0  0  0  0  0  0  0
   39.5040   32.3660   46.7200 H   0  0  0  0  0  0  0  0  0  0  0  0
   33.1250   27.3750   48.5890 O   0  0  0  0  0  0  0  0  0  0  0  0
   32.0200   26.6910   46.5340 C   0  0  1  0  0  3  0  0  0  0  0  0
   31.9230   27.3130   47.8980 C   0  0  1  0  0  3  0  0  0  0  0  0
   30.8550   26.5360   48.6690 C   0  0  0  0  0  3  0  0  0  0  0  0
   31.1470   25.4660   48.7390 H   0  0  0  0  0  0  0  0  0  0  0  0
   29.6150   26.7330   48.0930 O   0  0  0  0  0  0  0  0  0  0  0  0
   29.5380   26.3270   46.7860 C   0  0  0  0  0  3  0  0  0  0  0  0
   29.1120   27.1000   46.1060 H   0  0  0  0  0  0  0  0  0  0  0  0
   30.8170   25.8370   46.1940 C   0  0  2  0  0  3  0  0  0  0  0  0
   32.0980   27.6930   45.5580 O   0  0  0  0  0  0  0  0  0  0  0  0
   31.6780   28.5360   45.8910 H   0  0  0  0  0  0  0  0  0  0  0  0
   31.0690   24.4870   46.5120 O   0  0  0  0  0  0  0  0  0  0  0  0
   32.0300   24.2660   46.4860 H   0  0  0  0  0  0  0  0  0  0  0  0
  1  7  1  0  0  0  0
  2  9  1  0  0  0  0
  2  1  2  0  0  0  0
  3  4  2  0  0  0  0
  3  2  1  0  0  0  0
  4  5  1  0  0  0  0
  5 20  1  0  0  0  0
  5  6  2  0  0  0  0
  6  1  1  0  0  0  0
  8  3  1  0  0  0  0
  9 10  1  0  0  0  0
 10 11  2  0  0  0  0
 10 17  1  0  0  0  0
 11 18  1  0  0  0  0
 12 11  1  0  0  0  0
 13 12  2  0  0  0  0
 14 15  1  0  0  0  0
 14 12  1  0  0  0  0
 15  9  1  0  0  0  0
 16 15  2  0  0  0  0
 19 14  1  0  0  0  0
 21 29  1  6  0  0  0
 21 22  1  0  0  0  0
 22 20  1  1  0  0  0
 22 23  1  0  0  0  0
 23 24  1  0  0  0  0
 25 23  1  0  0  0  0
 26 25  1  0  0  0  0
 27 26  1  0  0  0  0
 28 31  1  1  0  0  0
 28 21  1  0  0  0  0
 28 26  1  0  0  0  0
 29 30  1  0  0  0  0
 32 31  1  0  0  0  0
M  END
>  <minimizedAffinity>
-5.45273161

>  <minimizedRMSD>
0.703367412

$$$$
