
 OpenBabel03262521063D

 35 37  0  0  0  0  0  0  0  0999 V2000
   38.3550   22.4630   33.4120 Br  0  0  0  0  0  0  0  0  0  0  0  0
   37.1140   23.5140   32.4740 C   0  0  0  0  0  0  0  0  0  0  0  0
   36.1700   22.8340   31.7700 C   0  0  0  0  0  0  0  0  0  0  0  0
   35.2060   23.5470   31.0430 C   0  0  0  0  0  0  0  0  0  0  0  0
   35.2290   24.9310   31.0510 C   0  0  0  0  0  0  0  0  0  0  0  0
   36.2030   25.5480   31.7770 C   0  0  0  0  0  0  0  0  0  0  0  0
   37.1540   24.8770   32.4960 C   0  0  0  0  0  0  0  0  0  0  0  0
   34.4270   23.0750   30.4610 H   0  0  0  0  0  0  0  0  0  0  0  0
   34.4880   25.4890   30.4930 H   0  0  0  0  0  0  0  0  0  0  0  0
   36.2260   26.6290   31.7890 H   0  0  0  0  0  0  0  0  0  0  0  0
   36.6040   20.5890   30.6830 C   0  0  0  0  0  0  0  0  0  0  0  0
   36.0070   21.3780   31.6570 C   0  0  0  0  0  0  0  0  0  0  0  0
   35.1860   20.7220   32.6000 C   0  0  0  0  0  0  0  0  0  0  0  0
   35.0360   19.3690   32.4920 N   0  0  0  0  0  0  0  0  0  0  0  0
   35.6430   18.6650   31.5240 C   0  0  0  0  0  0  0  0  0  0  0  0
   36.4310   19.2710   30.6140 N   0  0  0  0  0  0  0  0  0  0  0  0
   37.2350   21.1270   29.9670 H   0  0  0  0  0  0  0  0  0  0  0  0
   34.6780   21.2760   33.4010 H   0  0  0  0  0  0  0  0  0  0  0  0
   35.4740   17.5920   31.5080 H   0  0  0  0  0  0  0  0  0  0  0  0
   38.1800   25.5010   33.2600 N   0  0  0  0  0  0  0  0  0  0  0  0
   39.1070   25.2100   32.8530 H   0  0  0  0  0  0  0  0  0  0  0  0
   38.1520   26.5440   34.6020 S   0  0  0  0  0  0  0  0  0  0  0  0
   37.2950   27.7320   34.3540 O   0  0  0  0  0  0  0  0  0  0  0  0
   36.3540   27.7690   34.0410 H   0  0  0  0  0  0  0  0  0  0  0  0
   39.5520   27.0350   34.8850 O   0  0  0  0  0  0  0  0  0  0  0  0
   39.7060   27.9920   35.0920 H   0  0  0  0  0  0  0  0  0  0  0  0
   37.5750   25.6720   35.9350 O   0  0  0  0  0  0  0  0  0  0  0  0
   38.4170   24.7170   36.4820 C   0  0  0  0  0  0  0  0  0  0  0  0
   38.0130   24.3030   37.7180 C   0  0  0  0  0  0  0  0  0  0  0  0
   37.1380   24.6480   38.2620 H   0  0  0  0  0  0  0  0  0  0  0  0
   38.7120   23.3500   38.4490 C   0  0  0  0  0  0  0  0  0  0  0  0
   38.4270   22.9930   39.4310 H   0  0  0  0  0  0  0  0  0  0  0  0
   39.8710   22.7940   37.8950 C   0  0  0  0  0  3  0  0  0  0  0  0
   40.2300   23.2530   36.6390 C   0  0  0  0  0  3  0  0  0  0  0  0
   39.5440   24.1880   35.9240 N   0  0  0  0  0  0  0  0  0  0  0  0
  2  7  1  0  0  0  0
  2  1  1  0  0  0  0
  3  2  2  0  0  0  0
  4  5  2  0  0  0  0
  4  3  1  0  0  0  0
  5  6  1  0  0  0  0
  6 10  1  0  0  0  0
  6  7  2  0  0  0  0
  7 20  1  0  0  0  0
  8  4  1  0  0  0  0
  9  5  1  0  0  0  0
 11 12  1  0  0  0  0
 12  3  1  0  0  0  0
 12 13  2  0  0  0  0
 13 18  1  0  0  0  0
 14 13  1  0  0  0  0
 15 14  2  0  0  0  0
 16 11  2  0  0  0  0
 16 15  1  0  0  0  0
 17 11  1  0  0  0  0
 19 15  1  0  0  0  0
 20 22  1  0  0  0  0
 21 20  1  0  0  0  0
 22 25  1  0  0  0  0
 22 27  1  0  0  0  0
 23 22  1  0  0  0  0
 24 23  1  0  0  0  0
 25 26  1  0  0  0  0
 27 28  1  0  0  0  0
 28 29  1  0  0  0  0
 29 30  1  0  0  0  0
 29 31  2  0  0  0  0
 31 32  1  0  0  0  0
 33 31  1  0  0  0  0
 34 33  2  0  0  0  0
 35 28  2  0  0  0  0
 35 34  1  0  0  0  0
M  END
>  <minimizedAffinity>
-5.78478527

$$$$

 OpenBabel03262521063D

 35 37  0  0  0  0  0  0  0  0999 V2000
   36.9270   24.9230   32.3040 Br  0  0  0  0  0  0  0  0  0  0  0  0
   37.5190   25.7580   33.8790 C   0  0  0  0  0  0  0  0  0  0  0  0
   37.4150   27.1130   33.9080 C   0  0  0  0  0  0  0  0  0  0  0  0
   37.8350   27.8110   35.0500 C   0  0  0  0  0  0  0  0  0  0  0  0
   38.3510   27.1120   36.1280 C   0  0  0  0  0  0  0  0  0  0  0  0
   38.4270   25.7550   36.0300 C   0  0  0  0  0  0  0  0  0  0  0  0
   38.0230   25.0490   34.9300 C   0  0  0  0  0  0  0  0  0  0  0  0
   37.7830   28.8870   35.1450 H   0  0  0  0  0  0  0  0  0  0  0  0
   38.6770   27.6430   37.0120 H   0  0  0  0  0  0  0  0  0  0  0  0
   38.8280   25.2030   36.8690 H   0  0  0  0  0  0  0  0  0  0  0  0
   37.5510   28.2820   31.6680 C   0  0  0  0  0  0  0  0  0  0  0  0
   36.8950   27.9990   32.8580 C   0  0  0  0  0  0  0  0  0  0  0  0
   35.6400   28.6120   33.0610 C   0  0  0  0  0  0  0  0  0  0  0  0
   35.1590   29.4360   32.0830 N   0  0  0  0  0  0  0  0  0  0  0  0
   35.8460   29.6680   30.9540 C   0  0  0  0  0  0  0  0  0  0  0  0
   37.0460   29.0920   30.7390 N   0  0  0  0  0  0  0  0  0  0  0  0
   38.5220   27.7920   31.5390 H   0  0  0  0  0  0  0  0  0  0  0  0
   35.0590   28.4380   33.9770 H   0  0  0  0  0  0  0  0  0  0  0  0
   35.3950   30.3340   30.2250 H   0  0  0  0  0  0  0  0  0  0  0  0
   38.0940   23.6340   34.8060 N   0  0  0  0  0  0  0  0  0  0  0  0
   38.4050   23.4110   33.8250 H   0  0  0  0  0  0  0  0  0  0  0  0
   37.7870   22.3590   35.8890 S   0  0  0  0  0  0  0  0  0  0  0  0
   37.1900   22.8520   37.1580 O   0  0  0  0  0  0  0  0  0  0  0  0
   36.3980   23.4350   37.2910 H   0  0  0  0  0  0  0  0  0  0  0  0
   39.0830   21.6640   36.2270 O   0  0  0  0  0  0  0  0  0  0  0  0
   39.2790   21.4160   37.1660 H   0  0  0  0  0  0  0  0  0  0  0  0
   36.7360   21.2680   35.1310 O   0  0  0  0  0  0  0  0  0  0  0  0
   36.7580   21.2210   33.7460 C   0  0  0  0  0  0  0  0  0  0  0  0
   35.5140   21.0970   33.2020 C   0  0  0  0  0  0  0  0  0  0  0  0
   34.5730   21.0370   33.7440 H   0  0  0  0  0  0  0  0  0  0  0  0
   35.3040   21.0310   31.8300 C   0  0  0  0  0  0  0  0  0  0  0  0
   34.3350   20.9330   31.3570 H   0  0  0  0  0  0  0  0  0  0  0  0
   36.4120   21.0950   30.9770 C   0  0  0  0  0  3  0  0  0  0  0  0
   37.6490   21.2210   31.5870 C   0  0  0  0  0  3  0  0  0  0  0  0
   37.8510   21.2850   32.9330 N   0  0  0  0  0  0  0  0  0  0  0  0
  1  2  1  0  0  0  0
  2  3  2  0  0  0  0
  2  7  1  0  0  0  0
  3  4  1  0  0  0  0
  4  8  1  0  0  0  0
  4  5  2  0  0  0  0
  5  9  1  0  0  0  0
  6  5  1  0  0  0  0
  6 10  1  0  0  0  0
  7  6  2  0  0  0  0
 11 12  1  0  0  0  0
 12 13  2  0  0  0  0
 12  3  1  0  0  0  0
 13 18  1  0  0  0  0
 14 13  1  0  0  0  0
 15 14  2  0  0  0  0
 16 15  1  0  0  0  0
 16 11  2  0  0  0  0
 17 11  1  0  0  0  0
 19 15  1  0  0  0  0
 20  7  1  0  0  0  0
 20 22  1  0  0  0  0
 21 20  1  0  0  0  0
 22 25  1  0  0  0  0
 22 23  1  0  0  0  0
 23 24  1  0  0  0  0
 25 26  1  0  0  0  0
 27 22  1  0  0  0  0
 28 27  1  0  0  0  0
 29 30  1  0  0  0  0
 29 28  1  0  0  0  0
 31 29  2  0  0  0  0
 32 31  1  0  0  0  0
 33 34  2  0  0  0  0
 33 31  1  0  0  0  0
 34 35  1  0  0  0  0
 35 28  2  0  0  0  0
M  END
>  <minimizedAffinity>
-5.77440977

$$$$

 OpenBabel03262521063D

 35 37  0  0  0  0  0  0  0  0999 V2000
   38.2770   26.7110   33.3570 Br  0  0  0  0  0  0  0  0  0  0  0  0
   37.0950   25.6130   32.3950 C   0  0  0  0  0  0  0  0  0  0  0  0
   36.1420   26.2570   31.6720 C   0  0  0  0  0  0  0  0  0  0  0  0
   35.2200   25.5080   30.9250 C   0  0  0  0  0  0  0  0  0  0  0  0
   35.2950   24.1260   30.9360 C   0  0  0  0  0  0  0  0  0  0  0  0
   36.2760   23.5460   31.6830 C   0  0  0  0  0  0  0  0  0  0  0  0
   37.1870   24.2520   32.4190 C   0  0  0  0  0  0  0  0  0  0  0  0
   34.4360   25.9510   30.3270 H   0  0  0  0  0  0  0  0  0  0  0  0
   34.5880   23.5400   30.3620 H   0  0  0  0  0  0  0  0  0  0  0  0
   36.3400   22.4660   31.6950 H   0  0  0  0  0  0  0  0  0  0  0  0
   35.1540   28.4630   32.4230 C   0  0  0  0  0  0  0  0  0  0  0  0
   35.9260   27.7060   31.5540 C   0  0  0  0  0  0  0  0  0  0  0  0
   36.5430   28.3880   30.4830 C   0  0  0  0  0  0  0  0  0  0  0  0
   36.3410   29.7350   30.3750 N   0  0  0  0  0  0  0  0  0  0  0  0
   35.5810   30.4080   31.2520 C   0  0  0  0  0  0  0  0  0  0  0  0
   34.9820   29.7760   32.2820 N   0  0  0  0  0  0  0  0  0  0  0  0
   34.6880   27.9060   33.2440 H   0  0  0  0  0  0  0  0  0  0  0  0
   37.1700   27.8600   29.7520 H   0  0  0  0  0  0  0  0  0  0  0  0
   35.4700   31.4770   31.0980 H   0  0  0  0  0  0  0  0  0  0  0  0
   38.2180   23.6680   33.2060 N   0  0  0  0  0  0  0  0  0  0  0  0
   38.9660   24.3960   33.3510 H   0  0  0  0  0  0  0  0  0  0  0  0
   38.4190   22.1240   33.8910 S   0  0  0  0  0  0  0  0  0  0  0  0
   39.0410   21.1770   32.9290 O   0  0  0  0  0  0  0  0  0  0  0  0
   39.8740   21.2820   32.4000 H   0  0  0  0  0  0  0  0  0  0  0  0
   37.0710   21.5690   34.2810 O   0  0  0  0  0  0  0  0  0  0  0  0
   36.8490   20.6250   34.0760 H   0  0  0  0  0  0  0  0  0  0  0  0
   39.3900   22.2840   35.2700 O   0  0  0  0  0  0  0  0  0  0  0  0
   38.8900   23.0430   36.3150 C   0  0  0  0  0  0  0  0  0  0  0  0
   39.4790   22.7500   37.5110 C   0  0  0  0  0  0  0  0  0  0  0  0
   40.2600   22.0130   37.6840 H   0  0  0  0  0  0  0  0  0  0  0  0
   39.1280   23.3930   38.6910 C   0  0  0  0  0  0  0  0  0  0  0  0
   39.5700   23.1920   39.6590 H   0  0  0  0  0  0  0  0  0  0  0  0
   38.1330   24.3770   38.6520 C   0  0  0  0  0  3  0  0  0  0  0  0
   37.5720   24.6310   37.4110 C   0  0  0  0  0  3  0  0  0  0  0  0
   37.9180   23.9990   36.2550 N   0  0  0  0  0  0  0  0  0  0  0  0
  2  7  1  0  0  0  0
  2  1  1  0  0  0  0
  3  2  2  0  0  0  0
  4  5  2  0  0  0  0
  4  3  1  0  0  0  0
  5  6  1  0  0  0  0
  6 10  1  0  0  0  0
  6  7  2  0  0  0  0
  7 20  1  0  0  0  0
  8  4  1  0  0  0  0
  9  5  1  0  0  0  0
 11 17  1  0  0  0  0
 12  3  1  0  0  0  0
 12 11  2  0  0  0  0
 13 12  1  0  0  0  0
 14 13  2  0  0  0  0
 14 15  1  0  0  0  0
 15 16  2  0  0  0  0
 16 11  1  0  0  0  0
 18 13  1  0  0  0  0
 19 15  1  0  0  0  0
 20 21  1  0  0  0  0
 20 22  1  0  0  0  0
 22 25  1  0  0  0  0
 22 27  1  0  0  0  0
 23 22  1  0  0  0  0
 24 23  1  0  0  0  0
 26 25  1  0  0  0  0
 27 28  1  0  0  0  0
 28 29  1  0  0  0  0
 29 30  1  0  0  0  0
 29 31  2  0  0  0  0
 31 32  1  0  0  0  0
 33 31  1  0  0  0  0
 34 33  2  0  0  0  0
 35 28  2  0  0  0  0
 35 34  1  0  0  0  0
M  END
>  <minimizedAffinity>
-5.57122326

$$$$

 OpenBabel03262521063D

 35 37  0  0  0  0  0  0  0  0999 V2000
   38.0620   23.4280   33.3260 Br  0  0  0  0  0  0  0  0  0  0  0  0
   38.0200   25.0920   34.1950 C   0  0  0  0  0  0  0  0  0  0  0  0
   38.7690   25.1920   35.3250 C   0  0  0  0  0  0  0  0  0  0  0  0
   38.7910   26.4040   36.0320 C   0  0  0  0  0  0  0  0  0  0  0  0
   38.0510   27.4780   35.5690 C   0  0  0  0  0  0  0  0  0  0  0  0
   37.3230   27.3080   34.4300 C   0  0  0  0  0  0  0  0  0  0  0  0
   37.2840   26.1390   33.7210 C   0  0  0  0  0  0  0  0  0  0  0  0
   39.3620   26.5560   36.9370 H   0  0  0  0  0  0  0  0  0  0  0  0
   38.0630   28.4160   36.1090 H   0  0  0  0  0  0  0  0  0  0  0  0
   36.7430   28.1440   34.0630 H   0  0  0  0  0  0  0  0  0  0  0  0
   40.8820   23.8130   35.5250 C   0  0  0  0  0  0  0  0  0  0  0  0
   39.6040   24.1550   35.9460 C   0  0  0  0  0  0  0  0  0  0  0  0
   39.0820   23.4480   37.0500 C   0  0  0  0  0  0  0  0  0  0  0  0
   39.8600   22.4840   37.6260 N   0  0  0  0  0  0  0  0  0  0  0  0
   41.0900   22.2030   37.1680 C   0  0  0  0  0  0  0  0  0  0  0  0
   41.6080   22.8650   36.1150 N   0  0  0  0  0  0  0  0  0  0  0  0
   41.2600   24.3790   34.6660 H   0  0  0  0  0  0  0  0  0  0  0  0
   38.0780   23.6600   37.4440 H   0  0  0  0  0  0  0  0  0  0  0  0
   41.6460   21.4230   37.6810 H   0  0  0  0  0  0  0  0  0  0  0  0
   36.5310   25.9390   32.5310 N   0  0  0  0  0  0  0  0  0  0  0  0
   35.6690   25.3890   32.7830 H   0  0  0  0  0  0  0  0  0  0  0  0
   36.7770   26.4030   30.9130 S   0  0  0  0  0  0  0  0  0  0  0  0
   35.5350   26.2610   30.1090 O   0  0  0  0  0  0  0  0  0  0  0  0
   34.6280   26.6170   30.2940 H   0  0  0  0  0  0  0  0  0  0  0  0
   37.8330   25.5210   30.2930 O   0  0  0  0  0  0  0  0  0  0  0  0
   37.6980   25.1570   29.3820 H   0  0  0  0  0  0  0  0  0  0  0  0
   37.3020   28.0140   30.9030 O   0  0  0  0  0  0  0  0  0  0  0  0
   36.3870   28.9830   31.2810 C   0  0  0  0  0  0  0  0  0  0  0  0
   36.7340   30.2320   30.8550 C   0  0  0  0  0  0  0  0  0  0  0  0
   37.6180   30.4970   30.2790 H   0  0  0  0  0  0  0  0  0  0  0  0
   35.9590   31.3530   31.1240 C   0  0  0  0  0  0  0  0  0  0  0  0
   36.1960   32.3600   30.8050 H   0  0  0  0  0  0  0  0  0  0  0  0
   34.7780   31.1930   31.8580 C   0  0  0  0  0  3  0  0  0  0  0  0
   34.4780   29.9030   32.2630 C   0  0  0  0  0  3  0  0  0  0  0  0
   35.2400   28.8060   31.9980 N   0  0  0  0  0  0  0  0  0  0  0  0
  1  2  1  0  0  0  0
  2  3  1  0  0  0  0
  3 12  1  0  0  0  0
  3  4  2  0  0  0  0
  4  8  1  0  0  0  0
  5  4  1  0  0  0  0
  5  9  1  0  0  0  0
  6  5  2  0  0  0  0
  7  2  2  0  0  0  0
  7  6  1  0  0  0  0
 10  6  1  0  0  0  0
 11 12  2  0  0  0  0
 11 16  1  0  0  0  0
 12 13  1  0  0  0  0
 13 18  1  0  0  0  0
 13 14  2  0  0  0  0
 15 14  1  0  0  0  0
 15 19  1  0  0  0  0
 16 15  2  0  0  0  0
 17 11  1  0  0  0  0
 20 21  1  0  0  0  0
 20  7  1  0  0  0  0
 22 20  1  0  0  0  0
 23 24  1  0  0  0  0
 23 22  1  0  0  0  0
 25 22  1  0  0  0  0
 26 25  1  0  0  0  0
 27 22  1  0  0  0  0
 27 28  1  0  0  0  0
 28 35  1  0  0  0  0
 29 31  1  0  0  0  0
 29 28  2  0  0  0  0
 30 29  1  0  0  0  0
 31 33  2  0  0  0  0
 32 31  1  0  0  0  0
 33 34  1  0  0  0  0
 35 34  2  0  0  0  0
M  END
>  <minimizedAffinity>
-5.46355772

$$$$

 OpenBabel03262521063D

 35 37  0  0  0  0  0  0  0  0999 V2000
   36.5860   27.8900   34.5680 Br  0  0  0  0  0  0  0  0  0  0  0  0
   36.2800   28.9150   33.0250 C   0  0  0  0  0  0  0  0  0  0  0  0
   35.6270   30.0920   33.2130 C   0  0  0  0  0  0  0  0  0  0  0  0
   35.3600   30.9160   32.1100 C   0  0  0  0  0  0  0  0  0  0  0  0
   35.7640   30.5190   30.8470 C   0  0  0  0  0  0  0  0  0  0  0  0
   36.4140   29.3260   30.7300 C   0  0  0  0  0  0  0  0  0  0  0  0
   36.6870   28.5050   31.7890 C   0  0  0  0  0  0  0  0  0  0  0  0
   34.8460   31.8640   32.1830 H   0  0  0  0  0  0  0  0  0  0  0  0
   35.5620   31.1490   29.9900 H   0  0  0  0  0  0  0  0  0  0  0  0
   36.7330   29.0110   29.7460 H   0  0  0  0  0  0  0  0  0  0  0  0
   35.9020   31.3960   35.3650 C   0  0  0  0  0  0  0  0  0  0  0  0
   35.1340   30.6560   34.4770 C   0  0  0  0  0  0  0  0  0  0  0  0
   33.7840   30.4360   34.8260 C   0  0  0  0  0  0  0  0  0  0  0  0
   33.3280   30.9610   36.0020 N   0  0  0  0  0  0  0  0  0  0  0  0
   34.1260   31.6690   36.8160 C   0  0  0  0  0  0  0  0  0  0  0  0
   35.4180   31.8910   36.5030 N   0  0  0  0  0  0  0  0  0  0  0  0
   36.9450   31.5510   35.0660 H   0  0  0  0  0  0  0  0  0  0  0  0
   33.1110   29.8590   34.1770 H   0  0  0  0  0  0  0  0  0  0  0  0
   33.6880   32.0530   37.7320 H   0  0  0  0  0  0  0  0  0  0  0  0
   37.3630   27.2570   31.6910 N   0  0  0  0  0  0  0  0  0  0  0  0
   38.3380   27.3880   32.0670 H   0  0  0  0  0  0  0  0  0  0  0  0
   36.8920   25.7270   31.1170 S   0  0  0  0  0  0  0  0  0  0  0  0
   37.8410   25.2090   30.0980 O   0  0  0  0  0  0  0  0  0  0  0  0
   38.8280   25.1170   30.1540 H   0  0  0  0  0  0  0  0  0  0  0  0
   35.5320   25.8300   30.4710 O   0  0  0  0  0  0  0  0  0  0  0  0
   35.3600   25.3760   29.6080 H   0  0  0  0  0  0  0  0  0  0  0  0
   36.8150   24.6710   32.4390 O   0  0  0  0  0  0  0  0  0  0  0  0
   36.6060   23.3280   32.1690 C   0  0  0  0  0  0  0  0  0  0  0  0
   37.2680   22.5060   33.0330 C   0  0  0  0  0  0  0  0  0  0  0  0
   37.9030   22.8130   33.8610 H   0  0  0  0  0  0  0  0  0  0  0  0
   37.1990   21.1210   32.9440 C   0  0  0  0  0  0  0  0  0  0  0  0
   37.7070   20.4330   33.6080 H   0  0  0  0  0  0  0  0  0  0  0  0
   36.4220   20.5500   31.9310 C   0  0  0  0  0  3  0  0  0  0  0  0
   35.7730   21.4340   31.0840 C   0  0  0  0  0  3  0  0  0  0  0  0
   35.8430   22.7920   31.1740 N   0  0  0  0  0  0  0  0  0  0  0  0
  2  3  1  0  0  0  0
  2  1  1  0  0  0  0
  3 12  1  0  0  0  0
  4  8  1  0  0  0  0
  4  3  2  0  0  0  0
  5  4  1  0  0  0  0
  6  5  2  0  0  0  0
  6  7  1  0  0  0  0
  7  2  2  0  0  0  0
  9  5  1  0  0  0  0
 10  6  1  0  0  0  0
 11 16  1  0  0  0  0
 12 13  1  0  0  0  0
 12 11  2  0  0  0  0
 13 14  2  0  0  0  0
 14 15  1  0  0  0  0
 15 19  1  0  0  0  0
 16 15  2  0  0  0  0
 17 11  1  0  0  0  0
 18 13  1  0  0  0  0
 20  7  1  0  0  0  0
 20 21  1  0  0  0  0
 22 20  1  0  0  0  0
 22 27  1  0  0  0  0
 23 24  1  0  0  0  0
 23 22  1  0  0  0  0
 25 22  1  0  0  0  0
 26 25  1  0  0  0  0
 28 27  1  0  0  0  0
 28 29  1  0  0  0  0
 29 30  1  0  0  0  0
 31 29  2  0  0  0  0
 31 32  1  0  0  0  0
 33 31  1  0  0  0  0
 34 35  1  0  0  0  0
 34 33  2  0  0  0  0
 35 28  2  0  0  0  0
M  END
>  <minimizedAffinity>
-5.39990854

$$$$

 OpenBabel03262521063D

 35 37  0  0  0  0  0  0  0  0999 V2000
   38.4160   26.9880   35.2550 Br  0  0  0  0  0  0  0  0  0  0  0  0
   37.9920   25.6530   34.0050 C   0  0  0  0  0  0  0  0  0  0  0  0
   38.0890   24.3710   34.4480 C   0  0  0  0  0  0  0  0  0  0  0  0
   37.7890   23.3160   33.5740 C   0  0  0  0  0  0  0  0  0  0  0  0
   37.3990   23.5940   32.2750 C   0  0  0  0  0  0  0  0  0  0  0  0
   37.3230   24.9010   31.8980 C   0  0  0  0  0  0  0  0  0  0  0  0
   37.6090   25.9490   32.7300 C   0  0  0  0  0  0  0  0  0  0  0  0
   37.8440   22.2740   33.8560 H   0  0  0  0  0  0  0  0  0  0  0  0
   37.1660   22.7850   31.5950 H   0  0  0  0  0  0  0  0  0  0  0  0
   37.0180   25.1250   30.8850 H   0  0  0  0  0  0  0  0  0  0  0  0
   37.6540   23.9000   36.8960 C   0  0  0  0  0  0  0  0  0  0  0  0
   38.4850   23.9090   35.7850 C   0  0  0  0  0  0  0  0  0  0  0  0
   39.8030   23.4370   35.9660 C   0  0  0  0  0  0  0  0  0  0  0  0
   40.1690   23.0080   37.2100 N   0  0  0  0  0  0  0  0  0  0  0  0
   39.3140   23.0260   38.2440 C   0  0  0  0  0  0  0  0  0  0  0  0
   38.0510   23.4720   38.0940 N   0  0  0  0  0  0  0  0  0  0  0  0
   36.6380   24.2720   36.7250 H   0  0  0  0  0  0  0  0  0  0  0  0
   40.5220   23.4120   35.1360 H   0  0  0  0  0  0  0  0  0  0  0  0
   39.6820   22.6670   39.2010 H   0  0  0  0  0  0  0  0  0  0  0  0
   37.5370   27.3200   32.3570 N   0  0  0  0  0  0  0  0  0  0  0  0
   38.3320   27.8240   32.8300 H   0  0  0  0  0  0  0  0  0  0  0  0
   36.4720   28.1960   31.3620 S   0  0  0  0  0  0  0  0  0  0  0  0
   36.3150   27.5540   30.0310 O   0  0  0  0  0  0  0  0  0  0  0  0
   36.0790   26.6150   29.8150 H   0  0  0  0  0  0  0  0  0  0  0  0
   37.0180   29.5860   31.1430 O   0  0  0  0  0  0  0  0  0  0  0  0
   36.9990   29.9860   30.2370 H   0  0  0  0  0  0  0  0  0  0  0  0
   34.9750   28.2900   32.1490 O   0  0  0  0  0  0  0  0  0  0  0  0
   34.8740   29.1620   33.2210 C   0  0  0  0  0  0  0  0  0  0  0  0
   33.5850   29.5160   33.4950 C   0  0  0  0  0  0  0  0  0  0  0  0
   32.6950   29.1810   32.9650 H   0  0  0  0  0  0  0  0  0  0  0  0
   33.2540   30.3830   34.5290 C   0  0  0  0  0  0  0  0  0  0  0  0
   32.2460   30.6880   34.7800 H   0  0  0  0  0  0  0  0  0  0  0  0
   34.2810   30.9120   35.3170 C   0  0  0  0  0  3  0  0  0  0  0  0
   35.5690   30.5170   34.9920 C   0  0  0  0  0  3  0  0  0  0  0  0
   35.8900   29.6670   33.9780 N   0  0  0  0  0  0  0  0  0  0  0  0
  2  3  1  0  0  0  0
  2  1  1  0  0  0  0
  3 12  1  0  0  0  0
  4  8  1  0  0  0  0
  4  3  2  0  0  0  0
  5  4  1  0  0  0  0
  6  5  2  0  0  0  0
  6  7  1  0  0  0  0
  7  2  2  0  0  0  0
  9  5  1  0  0  0  0
 10  6  1  0  0  0  0
 11 16  1  0  0  0  0
 12 13  1  0  0  0  0
 12 11  2  0  0  0  0
 13 14  2  0  0  0  0
 14 15  1  0  0  0  0
 15 19  1  0  0  0  0
 16 15  2  0  0  0  0
 17 11  1  0  0  0  0
 18 13  1  0  0  0  0
 20  7  1  0  0  0  0
 20 21  1  0  0  0  0
 22 27  1  0  0  0  0
 22 20  1  0  0  0  0
 23 22  1  0  0  0  0
 24 23  1  0  0  0  0
 25 22  1  0  0  0  0
 26 25  1  0  0  0  0
 27 28  1  0  0  0  0
 28 29  2  0  0  0  0
 28 35  1  0  0  0  0
 29 31  1  0  0  0  0
 30 29  1  0  0  0  0
 31 32  1  0  0  0  0
 31 33  2  0  0  0  0
 34 33  1  0  0  0  0
 35 34  2  0  0  0  0
M  END
>  <minimizedAffinity>
-5.39112377

$$$$

 OpenBabel03262521063D

 35 37  0  0  0  0  0  0  0  0999 V2000
   34.1900   29.4510   33.6090 Br  0  0  0  0  0  0  0  0  0  0  0  0
   35.3320   30.6730   32.7560 C   0  0  0  0  0  0  0  0  0  0  0  0
   35.5220   31.8570   33.3970 C   0  0  0  0  0  0  0  0  0  0  0  0
   36.3620   32.8240   32.8250 C   0  0  0  0  0  0  0  0  0  0  0  0
   36.9840   32.5590   31.6170 C   0  0  0  0  0  0  0  0  0  0  0  0
   36.7490   31.3520   31.0290 C   0  0  0  0  0  0  0  0  0  0  0  0
   35.9360   30.3920   31.5660 C   0  0  0  0  0  0  0  0  0  0  0  0
   36.5600   33.7860   33.2760 H   0  0  0  0  0  0  0  0  0  0  0  0
   37.6340   33.2990   31.1680 H   0  0  0  0  0  0  0  0  0  0  0  0
   37.2330   31.1390   30.0850 H   0  0  0  0  0  0  0  0  0  0  0  0
   33.7760   33.0360   34.8000 C   0  0  0  0  0  0  0  0  0  0  0  0
   34.9410   32.2920   34.6750 C   0  0  0  0  0  0  0  0  0  0  0  0
   35.6060   31.9350   35.8680 C   0  0  0  0  0  0  0  0  0  0  0  0
   35.0640   32.3410   37.0540 N   0  0  0  0  0  0  0  0  0  0  0  0
   33.9320   33.0600   37.1040 C   0  0  0  0  0  0  0  0  0  0  0  0
   33.2810   33.4120   35.9780 N   0  0  0  0  0  0  0  0  0  0  0  0
   33.2830   33.2970   33.8570 H   0  0  0  0  0  0  0  0  0  0  0  0
   36.5340   31.3470   35.8530 H   0  0  0  0  0  0  0  0  0  0  0  0
   33.5650   33.3430   38.0870 H   0  0  0  0  0  0  0  0  0  0  0  0
   35.6760   29.1270   30.9700 N   0  0  0  0  0  0  0  0  0  0  0  0
   34.6330   28.9830   30.9610 H   0  0  0  0  0  0  0  0  0  0  0  0
   36.6870   27.9190   30.3270 S   0  0  0  0  0  0  0  0  0  0  0  0
   36.9600   28.1450   28.8840 O   0  0  0  0  0  0  0  0  0  0  0  0
   37.2970   28.9620   28.4330 H   0  0  0  0  0  0  0  0  0  0  0  0
   36.0140   26.5750   30.4660 O   0  0  0  0  0  0  0  0  0  0  0  0
   36.0280   25.9370   29.7090 H   0  0  0  0  0  0  0  0  0  0  0  0
   38.1350   27.9240   31.2070 O   0  0  0  0  0  0  0  0  0  0  0  0
   38.0800   27.4980   32.5240 C   0  0  0  0  0  0  0  0  0  0  0  0
   39.3130   27.2440   33.0500 C   0  0  0  0  0  0  0  0  0  0  0  0
   40.2680   27.3470   32.5390 H   0  0  0  0  0  0  0  0  0  0  0  0
   39.4910   26.8070   34.3560 C   0  0  0  0  0  0  0  0  0  0  0  0
   40.4500   26.5950   34.8120 H   0  0  0  0  0  0  0  0  0  0  0  0
   38.3620   26.6200   35.1620 C   0  0  0  0  0  3  0  0  0  0  0  0
   37.1380   26.8930   34.5740 C   0  0  0  0  0  3  0  0  0  0  0  0
   36.9670   27.3230   33.2920 N   0  0  0  0  0  0  0  0  0  0  0  0
  2  3  1  0  0  0  0
  2  1  1  0  0  0  0
  3 12  1  0  0  0  0
  4  8  1  0  0  0  0
  4  3  2  0  0  0  0
  5  4  1  0  0  0  0
  6  7  1  0  0  0  0
  6  5  2  0  0  0  0
  7  2  2  0  0  0  0
  9  5  1  0  0  0  0
 10  6  1  0  0  0  0
 11 16  1  0  0  0  0
 12 11  2  0  0  0  0
 12 13  1  0  0  0  0
 13 14  2  0  0  0  0
 14 15  1  0  0  0  0
 15 19  1  0  0  0  0
 16 15  2  0  0  0  0
 17 11  1  0  0  0  0
 18 13  1  0  0  0  0
 20  7  1  0  0  0  0
 21 20  1  0  0  0  0
 22 25  1  0  0  0  0
 22 20  1  0  0  0  0
 22 27  1  0  0  0  0
 23 22  1  0  0  0  0
 24 23  1  0  0  0  0
 26 25  1  0  0  0  0
 27 28  1  0  0  0  0
 28 29  2  0  0  0  0
 28 35  1  0  0  0  0
 29 31  1  0  0  0  0
 30 29  1  0  0  0  0
 31 32  1  0  0  0  0
 31 33  2  0  0  0  0
 34 33  1  0  0  0  0
 35 34  2  0  0  0  0
M  END
>  <minimizedAffinity>
-5.35419178

$$$$

 OpenBabel03262521063D

 35 37  0  0  0  0  0  0  0  0999 V2000
   38.8710   26.8200   34.9120 Br  0  0  0  0  0  0  0  0  0  0  0  0
   38.1890   25.3710   33.9320 C   0  0  0  0  0  0  0  0  0  0  0  0
   37.5030   25.6880   32.8020 C   0  0  0  0  0  0  0  0  0  0  0  0
   36.9620   24.6620   32.0130 C   0  0  0  0  0  0  0  0  0  0  0  0
   37.1340   23.3430   32.3970 C   0  0  0  0  0  0  0  0  0  0  0  0
   37.8310   23.0970   33.5420 C   0  0  0  0  0  0  0  0  0  0  0  0
   38.3690   24.0780   34.3270 C   0  0  0  0  0  0  0  0  0  0  0  0
   36.4060   24.8380   31.1030 H   0  0  0  0  0  0  0  0  0  0  0  0
   36.7190   22.5450   31.7940 H   0  0  0  0  0  0  0  0  0  0  0  0
   37.9690   22.0680   33.8460 H   0  0  0  0  0  0  0  0  0  0  0  0
   36.2030   27.8560   32.6770 C   0  0  0  0  0  0  0  0  0  0  0  0
   37.2340   27.0260   32.2580 C   0  0  0  0  0  0  0  0  0  0  0  0
   38.0750   27.5140   31.2350 C   0  0  0  0  0  0  0  0  0  0  0  0
   37.8220   28.7580   30.7310 N   0  0  0  0  0  0  0  0  0  0  0  0
   36.8070   29.5110   31.1820 C   0  0  0  0  0  0  0  0  0  0  0  0
   35.9910   29.0640   32.1580 N   0  0  0  0  0  0  0  0  0  0  0  0
   35.5680   27.4500   33.4720 H   0  0  0  0  0  0  0  0  0  0  0  0
   38.9120   26.9170   30.8480 H   0  0  0  0  0  0  0  0  0  0  0  0
   36.6730   30.4890   30.7300 H   0  0  0  0  0  0  0  0  0  0  0  0
   39.1000   23.8440   35.5260 N   0  0  0  0  0  0  0  0  0  0  0  0
   40.1200   24.0000   35.3170 H   0  0  0  0  0  0  0  0  0  0  0  0
   38.6330   23.3950   37.0980 S   0  0  0  0  0  0  0  0  0  0  0  0
   37.6680   22.2650   37.0800 O   0  0  0  0  0  0  0  0  0  0  0  0
   37.7440   21.3870   36.6260 H   0  0  0  0  0  0  0  0  0  0  0  0
   37.9620   24.5660   37.7760 O   0  0  0  0  0  0  0  0  0  0  0  0
   37.1320   24.4230   38.2970 H   0  0  0  0  0  0  0  0  0  0  0  0
   40.0280   22.9640   37.9580 O   0  0  0  0  0  0  0  0  0  0  0  0
   41.1400   22.5940   37.2190 C   0  0  0  0  0  0  0  0  0  0  0  0
   41.5040   21.2950   37.4260 C   0  0  0  0  0  0  0  0  0  0  0  0
   41.0120   20.5820   38.0840 H   0  0  0  0  0  0  0  0  0  0  0  0
   42.5920   20.7150   36.7860 C   0  0  0  0  0  0  0  0  0  0  0  0
   42.9140   19.6910   36.9210 H   0  0  0  0  0  0  0  0  0  0  0  0
   43.3430   21.4940   35.8980 C   0  0  0  0  0  3  0  0  0  0  0  0
   42.9260   22.8040   35.7280 C   0  0  0  0  0  3  0  0  0  0  0  0
   41.8580   23.3690   36.3570 N   0  0  0  0  0  0  0  0  0  0  0  0
  2  7  1  0  0  0  0
  2  1  1  0  0  0  0
  3  2  2  0  0  0  0
  4  5  2  0  0  0  0
  4  3  1  0  0  0  0
  5  6  1  0  0  0  0
  6 10  1  0  0  0  0
  6  7  2  0  0  0  0
  7 20  1  0  0  0  0
  8  4  1  0  0  0  0
  9  5  1  0  0  0  0
 11 17  1  0  0  0  0
 12 11  1  0  0  0  0
 12  3  1  0  0  0  0
 13 12  2  0  0  0  0
 14 15  2  0  0  0  0
 14 13  1  0  0  0  0
 15 16  1  0  0  0  0
 16 11  2  0  0  0  0
 18 13  1  0  0  0  0
 19 15  1  0  0  0  0
 20 22  1  0  0  0  0
 21 20  1  0  0  0  0
 22 25  1  0  0  0  0
 22 27  1  0  0  0  0
 23 22  1  0  0  0  0
 24 23  1  0  0  0  0
 25 26  1  0  0  0  0
 28 29  1  0  0  0  0
 28 27  1  0  0  0  0
 29 30  1  0  0  0  0
 31 32  1  0  0  0  0
 31 29  2  0  0  0  0
 33 31  1  0  0  0  0
 34 33  2  0  0  0  0
 34 35  1  0  0  0  0
 35 28  2  0  0  0  0
M  END
>  <minimizedAffinity>
-5.28816748

$$$$

 OpenBabel03262521063D

 35 37  0  0  0  0  0  0  0  0999 V2000
   37.9950   23.5610   33.4010 Br  0  0  0  0  0  0  0  0  0  0  0  0
   37.9180   25.2340   34.2510 C   0  0  0  0  0  0  0  0  0  0  0  0
   38.5640   25.3240   35.4430 C   0  0  0  0  0  0  0  0  0  0  0  0
   38.5540   26.5420   36.1410 C   0  0  0  0  0  0  0  0  0  0  0  0
   37.8860   27.6300   35.6070 C   0  0  0  0  0  0  0  0  0  0  0  0
   37.2590   27.4680   34.4080 C   0  0  0  0  0  0  0  0  0  0  0  0
   37.2550   26.2940   33.7060 C   0  0  0  0  0  0  0  0  0  0  0  0
   39.0450   26.6880   37.0930 H   0  0  0  0  0  0  0  0  0  0  0  0
   37.8740   28.5730   36.1390 H   0  0  0  0  0  0  0  0  0  0  0  0
   36.7370   28.3150   33.9850 H   0  0  0  0  0  0  0  0  0  0  0  0
   40.5670   23.8110   35.7660 C   0  0  0  0  0  0  0  0  0  0  0  0
   39.3140   24.2730   36.1440 C   0  0  0  0  0  0  0  0  0  0  0  0
   38.7280   23.6810   37.2840 C   0  0  0  0  0  0  0  0  0  0  0  0
   39.4270   22.7030   37.9330 N   0  0  0  0  0  0  0  0  0  0  0  0
   40.6370   22.3020   37.5140 C   0  0  0  0  0  0  0  0  0  0  0  0
   41.2150   22.8540   36.4280 N   0  0  0  0  0  0  0  0  0  0  0  0
   40.9950   24.2890   34.8780 H   0  0  0  0  0  0  0  0  0  0  0  0
   37.7390   23.9910   37.6460 H   0  0  0  0  0  0  0  0  0  0  0  0
   41.1280   21.5200   38.0850 H   0  0  0  0  0  0  0  0  0  0  0  0
   36.6070   26.1020   32.4540 N   0  0  0  0  0  0  0  0  0  0  0  0
   35.6340   25.7490   32.6460 H   0  0  0  0  0  0  0  0  0  0  0  0
   37.1060   26.3320   30.8450 S   0  0  0  0  0  0  0  0  0  0  0  0
   36.0930   27.0840   30.0600 O   0  0  0  0  0  0  0  0  0  0  0  0
   35.6580   27.9510   30.2700 H   0  0  0  0  0  0  0  0  0  0  0  0
   37.3000   24.9890   30.1830 O   0  0  0  0  0  0  0  0  0  0  0  0
   36.9580   24.8380   29.2650 H   0  0  0  0  0  0  0  0  0  0  0  0
   38.5760   27.1740   30.8650 O   0  0  0  0  0  0  0  0  0  0  0  0
   39.6820   26.5090   31.3710 C   0  0  0  0  0  0  0  0  0  0  0  0
   40.3170   27.2120   32.3530 C   0  0  0  0  0  0  0  0  0  0  0  0
   40.0330   28.1890   32.7370 H   0  0  0  0  0  0  0  0  0  0  0  0
   41.4500   26.7320   32.9980 C   0  0  0  0  0  0  0  0  0  0  0  0
   41.9840   27.2560   33.7810 H   0  0  0  0  0  0  0  0  0  0  0  0
   41.9570   25.4820   32.6270 C   0  0  0  0  0  3  0  0  0  0  0  0
   41.2700   24.8150   31.6250 C   0  0  0  0  0  3  0  0  0  0  0  0
   40.1590   25.2880   30.9940 N   0  0  0  0  0  0  0  0  0  0  0  0
  1  2  1  0  0  0  0
  2  3  1  0  0  0  0
  3  4  2  0  0  0  0
  3 12  1  0  0  0  0
  4  8  1  0  0  0  0
  5  9  1  0  0  0  0
  5  4  1  0  0  0  0
  6  5  2  0  0  0  0
  7  2  2  0  0  0  0
  7  6  1  0  0  0  0
 10  6  1  0  0  0  0
 11 12  2  0  0  0  0
 11 16  1  0  0  0  0
 12 13  1  0  0  0  0
 13 18  1  0  0  0  0
 13 14  2  0  0  0  0
 15 14  1  0  0  0  0
 15 19  1  0  0  0  0
 16 15  2  0  0  0  0
 17 11  1  0  0  0  0
 20 21  1  0  0  0  0
 20  7  1  0  0  0  0
 22 27  1  0  0  0  0
 22 20  1  0  0  0  0
 23 24  1  0  0  0  0
 23 22  1  0  0  0  0
 25 22  1  0  0  0  0
 26 25  1  0  0  0  0
 27 28  1  0  0  0  0
 28 29  1  0  0  0  0
 29 30  1  0  0  0  0
 29 31  2  0  0  0  0
 31 32  1  0  0  0  0
 33 31  1  0  0  0  0
 34 33  2  0  0  0  0
 35 28  2  0  0  0  0
 35 34  1  0  0  0  0
M  END
>  <minimizedAffinity>
-5.2802372

$$$$
