
 OpenBabel03272509573D

 45 48  0  0  0  0  0  0  0  0999 V2000
   34.3830   28.6740   48.1250 C   0  0  0  0  0  0  0  0  0  0  0  0
   33.8910   29.6650   48.1260 H   0  0  0  0  0  0  0  0  0  0  0  0
   35.2790   28.7830   47.4640 H   0  0  0  0  0  0  0  0  0  0  0  0
   33.4990   27.5930   47.6010 C   0  0  0  0  0  0  0  0  0  0  0  0
   33.6530   27.5100   46.4930 H   0  0  0  0  0  0  0  0  0  0  0  0
   33.7120   26.6220   48.0610 H   0  0  0  0  0  0  0  0  0  0  0  0
   32.0510   27.8950   47.7640 C   0  0  0  0  0  0  0  0  0  0  0  0
   31.4280   27.4530   48.9180 C   0  0  0  0  0  0  0  0  0  0  0  0
   30.1010   27.6800   49.1620 C   0  0  0  0  0  0  0  0  0  0  0  0
   29.3890   28.3440   48.2640 N   0  0  0  0  0  0  0  0  0  0  0  0
   29.9960   28.7820   47.1230 C   0  0  0  0  0  0  0  0  0  0  0  0
   31.3010   28.5710   46.8620 N   0  0  0  0  0  0  0  0  0  0  0  0
   31.9960   26.9060   49.6690 H   0  0  0  0  0  0  0  0  0  0  0  0
   29.5910   27.3520   50.0440 H   0  0  0  0  0  0  0  0  0  0  0  0
   29.1810   29.5260   46.1260 C   0  0  0  0  0  0  0  0  0  0  0  0
   29.8080   30.1980   45.5010 H   0  0  0  0  0  0  0  0  0  0  0  0
   28.5110   30.2050   46.6920 H   0  0  0  0  0  0  0  0  0  0  0  0
   28.3450   28.6200   45.3210 C   0  0  0  0  0  0  0  0  0  0  0  0
   26.9710   28.8330   45.4810 C   0  0  0  0  0  0  0  0  0  0  0  0
   26.5530   29.5780   46.1210 H   0  0  0  0  0  0  0  0  0  0  0  0
   26.1080   28.0130   44.7490 C   0  0  0  0  0  0  0  0  0  0  0  0
   25.0200   28.1370   44.8370 H   0  0  0  0  0  0  0  0  0  0  0  0
   26.5500   27.0230   43.8960 C   0  0  0  0  0  3  0  0  0  0  0  0
   27.9370   26.8710   43.7900 C   0  0  0  0  0  3  0  0  0  0  0  0
   28.7750   27.6590   44.4920 N   0  0  0  0  0  0  0  0  0  0  0  0
   34.9050   28.3430   49.3940 O   0  0  0  0  0  0  0  0  0  0  0  0
   37.1970   30.0720   51.5800 C   0  0  0  0  0  0  0  0  0  0  0  0
   37.9570   30.7930   50.6350 C   0  0  0  0  0  0  0  0  0  0  0  0
   37.6210   30.6300   49.2930 C   0  0  0  0  0  0  0  0  0  0  0  0
   36.5850   29.7850   49.0250 N   0  0  0  0  0  0  0  0  0  0  0  0
   35.8810   29.1150   49.9300 C   0  0  0  0  0  0  0  0  0  0  0  0
   36.2030   29.2700   51.2340 N   0  0  0  0  0  0  0  0  0  0  0  0
   37.4980   30.2330   52.6150 H   0  0  0  0  0  0  0  0  0  0  0  0
   38.7710   31.4570   50.8640 H   0  0  0  0  0  0  0  0  0  0  0  0
   38.8210   33.2710   49.2240 F   0  0  0  0  0  0  0  0  0  0  0  0
   38.8430   32.5000   48.1350 C   0  0  0  0  0  0  0  0  0  0  0  0
   38.2840   31.2850   48.1860 C   0  0  0  0  0  0  0  0  0  0  0  0
   38.3600   30.5600   46.9950 C   0  0  0  0  0  0  0  0  0  0  0  0
   38.9650   31.0660   45.8670 C   0  0  0  0  0  0  0  0  0  0  0  0
   39.5260   32.3250   45.8660 C   0  0  0  0  0  0  0  0  0  0  0  0
   39.4540   33.0340   47.0230 C   0  0  0  0  0  0  0  0  0  0  0  0
   37.9490   29.5600   46.8930 H   0  0  0  0  0  0  0  0  0  0  0  0
   39.0140   30.4900   44.9530 H   0  0  0  0  0  0  0  0  0  0  0  0
   39.9950   32.6940   44.9570 H   0  0  0  0  0  0  0  0  0  0  0  0
   39.8910   34.0240   47.0360 H   0  0  0  0  0  0  0  0  0  0  0  0
  1  2  1  0  0  0  0
  1 26  1  0  0  0  0
  3  1  1  0  0  0  0
  4  7  1  0  0  0  0
  4  6  1  0  0  0  0
  4  1  1  0  0  0  0
  5  4  1  0  0  0  0
  7  8  1  0  0  0  0
  8  9  2  0  0  0  0
  8 13  1  0  0  0  0
  9 14  1  0  0  0  0
 10  9  1  0  0  0  0
 11 10  2  0  0  0  0
 12 11  1  0  0  0  0
 12  7  2  0  0  0  0
 15 17  1  0  0  0  0
 15 11  1  0  0  0  0
 16 15  1  0  0  0  0
 18 19  1  0  0  0  0
 18 15  1  0  0  0  0
 19 20  1  0  0  0  0
 21 22  1  0  0  0  0
 21 19  2  0  0  0  0
 23 21  1  0  0  0  0
 24 23  2  0  0  0  0
 24 25  1  0  0  0  0
 25 18  2  0  0  0  0
 26 31  1  0  0  0  0
 27 33  1  0  0  0  0
 28 34  1  0  0  0  0
 28 27  2  0  0  0  0
 29 28  1  0  0  0  0
 30 29  2  0  0  0  0
 30 31  1  0  0  0  0
 31 32  2  0  0  0  0
 32 27  1  0  0  0  0
 36 37  1  0  0  0  0
 36 35  1  0  0  0  0
 37 29  1  0  0  0  0
 38 37  2  0  0  0  0
 39 38  1  0  0  0  0
 40 39  2  0  0  0  0
 40 41  1  0  0  0  0
 41 45  1  0  0  0  0
 41 36  2  0  0  0  0
 42 38  1  0  0  0  0
 43 39  1  0  0  0  0
 44 40  1  0  0  0  0
M  END
>  <minimizedAffinity>
-6.59431934

>  <minimizedRMSD>
0.56801337

$$$$
