
 OpenBabel03272509573D

 45 48  0  0  0  0  0  0  0  0999 V2000
   34.4420   28.6380   48.1880 C   0  0  0  0  0  0  0  0  0  0  0  0
   33.9410   29.6240   48.1620 H   0  0  0  0  0  0  0  0  0  0  0  0
   35.3220   28.7290   47.5030 H   0  0  0  0  0  0  0  0  0  0  0  0
   33.5560   27.5310   47.7230 C   0  0  0  0  0  0  0  0  0  0  0  0
   33.7660   27.3340   46.6390 H   0  0  0  0  0  0  0  0  0  0  0  0
   33.7150   26.6060   48.2880 H   0  0  0  0  0  0  0  0  0  0  0  0
   32.1110   27.8830   47.7730 C   0  0  0  0  0  0  0  0  0  0  0  0
   31.3880   27.4730   48.8810 C   0  0  0  0  0  0  0  0  0  0  0  0
   30.0540   27.7460   49.0210 C   0  0  0  0  0  0  0  0  0  0  0  0
   29.4350   28.4240   48.0660 N   0  0  0  0  0  0  0  0  0  0  0  0
   30.1410   28.8310   46.9720 C   0  0  0  0  0  0  0  0  0  0  0  0
   31.4540   28.5740   46.8120 N   0  0  0  0  0  0  0  0  0  0  0  0
   31.8780   26.9150   49.6760 H   0  0  0  0  0  0  0  0  0  0  0  0
   29.4680   27.4440   49.8640 H   0  0  0  0  0  0  0  0  0  0  0  0
   29.4290   29.5900   45.9100 C   0  0  0  0  0  0  0  0  0  0  0  0
   30.1340   30.0010   45.1560 H   0  0  0  0  0  0  0  0  0  0  0  0
   28.9760   30.4800   46.3930 H   0  0  0  0  0  0  0  0  0  0  0  0
   28.3490   28.7950   45.3020 C   0  0  0  0  0  0  0  0  0  0  0  0
   28.8090   27.7350   44.5140 C   0  0  0  0  0  0  0  0  0  0  0  0
   29.8410   27.5100   44.3580 H   0  0  0  0  0  0  0  0  0  0  0  0
   27.8460   26.9300   43.9000 C   0  0  0  0  0  0  0  0  0  0  0  0
   28.1510   26.0840   43.2710 H   0  0  0  0  0  0  0  0  0  0  0  0
   26.4870   27.1380   44.0400 C   0  0  0  0  0  3  0  0  0  0  0  0
   26.1080   28.2180   44.8440 C   0  0  0  0  0  3  0  0  0  0  0  0
   27.0310   28.9980   45.4390 N   0  0  0  0  0  0  0  0  0  0  0  0
   34.9940   28.3580   49.4560 O   0  0  0  0  0  0  0  0  0  0  0  0
   37.3310   30.1760   51.5190 C   0  0  0  0  0  0  0  0  0  0  0  0
   38.0630   30.8670   50.5290 C   0  0  0  0  0  0  0  0  0  0  0  0
   37.6930   30.6540   49.2030 C   0  0  0  0  0  0  0  0  0  0  0  0
   36.6560   29.7950   48.9920 N   0  0  0  0  0  0  0  0  0  0  0  0
   35.9790   29.1540   49.9390 C   0  0  0  0  0  0  0  0  0  0  0  0
   36.3340   29.3560   51.2270 N   0  0  0  0  0  0  0  0  0  0  0  0
   37.6580   30.3750   52.5390 H   0  0  0  0  0  0  0  0  0  0  0  0
   38.8790   31.5410   50.7130 H   0  0  0  0  0  0  0  0  0  0  0  0
   38.9460   33.2660   49.0300 F   0  0  0  0  0  0  0  0  0  0  0  0
   38.9060   32.4720   47.9580 C   0  0  0  0  0  0  0  0  0  0  0  0
   38.3230   31.2710   48.0570 C   0  0  0  0  0  0  0  0  0  0  0  0
   38.3350   30.5220   46.8780 C   0  0  0  0  0  0  0  0  0  0  0  0
   38.9030   30.9920   45.7160 C   0  0  0  0  0  0  0  0  0  0  0  0
   39.4910   32.2380   45.6660 C   0  0  0  0  0  0  0  0  0  0  0  0
   39.4820   32.9710   46.8110 C   0  0  0  0  0  0  0  0  0  0  0  0
   37.8990   29.5300   46.8140 H   0  0  0  0  0  0  0  0  0  0  0  0
   38.9020   30.3970   44.8130 H   0  0  0  0  0  0  0  0  0  0  0  0
   39.9290   32.5780   44.7320 H   0  0  0  0  0  0  0  0  0  0  0  0
   39.9400   33.9510   46.7860 H   0  0  0  0  0  0  0  0  0  0  0  0
  1 26  1  0  0  0  0
  2  1  1  0  0  0  0
  3  1  1  0  0  0  0
  4  7  1  0  0  0  0
  4  1  1  0  0  0  0
  4  6  1  0  0  0  0
  5  4  1  0  0  0  0
  7  8  1  0  0  0  0
  8  9  2  0  0  0  0
  8 13  1  0  0  0  0
  9 14  1  0  0  0  0
 10  9  1  0  0  0  0
 11 10  2  0  0  0  0
 12 11  1  0  0  0  0
 12  7  2  0  0  0  0
 15 17  1  0  0  0  0
 15 11  1  0  0  0  0
 16 15  1  0  0  0  0
 18 25  1  0  0  0  0
 18 15  1  0  0  0  0
 19 18  2  0  0  0  0
 20 19  1  0  0  0  0
 21 23  2  0  0  0  0
 21 19  1  0  0  0  0
 22 21  1  0  0  0  0
 23 24  1  0  0  0  0
 24 25  2  0  0  0  0
 26 31  1  0  0  0  0
 27 33  1  0  0  0  0
 28 34  1  0  0  0  0
 28 27  2  0  0  0  0
 29 28  1  0  0  0  0
 30 29  2  0  0  0  0
 30 31  1  0  0  0  0
 31 32  2  0  0  0  0
 32 27  1  0  0  0  0
 36 37  1  0  0  0  0
 36 35  1  0  0  0  0
 37 29  1  0  0  0  0
 38 37  2  0  0  0  0
 39 38  1  0  0  0  0
 40 39  2  0  0  0  0
 40 41  1  0  0  0  0
 41 36  2  0  0  0  0
 42 38  1  0  0  0  0
 43 39  1  0  0  0  0
 44 40  1  0  0  0  0
 45 41  1  0  0  0  0
M  END
>  <minimizedAffinity>
-6.57802343

>  <minimizedRMSD>
0.72532922

$$$$
