
 OpenBabel03272503493D

 36 38  0  0  1  0  0  0  0  0999 V2000
   33.1650   27.2740   45.8850 C   0  0  1  0  0  0  0  0  0  0  0  0
   33.8950   27.4550   47.2360 C   0  0  2  0  0  0  0  0  0  0  0  0
   33.7500   26.2430   47.8330 O   0  0  0  0  0  0  0  0  0  0  0  0
   34.0550   25.3270   46.8470 C   0  0  0  0  0  0  0  0  0  0  0  0
   33.5480   25.8690   45.5370 C   0  0  2  0  0  0  0  0  0  0  0  0
   33.5610   28.0200   45.1760 H   0  0  0  0  0  0  0  0  0  0  0  0
   34.9420   27.7310   46.9690 H   0  0  0  0  0  0  0  0  0  0  0  0
   33.4920   24.3950   47.0620 H   0  0  0  0  0  0  0  0  0  0  0  0
   35.1560   25.1910   46.8690 H   0  0  0  0  0  0  0  0  0  0  0  0
   32.6930   25.3040   45.1390 H   0  0  0  0  0  0  0  0  0  0  0  0
   31.8090   27.4860   46.0380 O   0  0  0  0  0  0  0  0  0  0  0  0
   31.4730   26.8780   46.7290 H   0  0  0  0  0  0  0  0  0  0  0  0
   33.2750   28.5180   47.8220 O   0  0  0  0  0  0  0  0  0  0  0  0
   35.3420   29.7910   46.7840 O   0  0  0  0  0  0  0  0  0  0  0  0
   34.0780   29.9830   47.6140 P   0  0  1  0  0  0  0  0  0  0  0  0
   33.1180   31.0510   46.7170 O   0  0  0  0  0  0  0  0  0  0  0  0
   33.4020   31.1650   45.7970 H   0  0  0  0  0  0  0  0  0  0  0  0
   34.3900   30.6230   49.1620 O   0  0  0  0  0  0  0  0  0  0  0  0
   35.6190   30.4900   49.7830 C   0  0  0  0  0  0  0  0  0  0  0  0
   35.9630   29.4740   50.6990 C   0  0  0  0  0  0  0  0  0  0  0  0
   37.2450   29.4870   51.2330 C   0  0  0  0  0  0  0  0  0  0  0  0
   38.1060   30.4810   50.8450 N   0  0  0  0  0  0  0  0  0  0  0  0
   37.7440   31.4460   49.9600 C   0  0  0  0  0  0  0  0  0  0  0  0
   36.4930   31.4510   49.4260 N   0  0  0  0  0  0  0  0  0  0  0  0
   35.1910   28.7720   50.9030 H   0  0  0  0  0  0  0  0  0  0  0  0
   37.4930   28.7180   51.9210 H   0  0  0  0  0  0  0  0  0  0  0  0
   38.4930   32.1870   49.7160 H   0  0  0  0  0  0  0  0  0  0  0  0
   34.5640   25.8740   44.5830 O   0  0  0  0  0  0  0  0  0  0  0  0
   35.0220   24.6610   44.0710 C   0  0  0  0  0  0  0  0  0  0  0  0
   36.3750   24.4140   44.0800 C   0  0  0  0  0  0  0  0  0  0  0  0
   37.0570   25.1720   44.4860 H   0  0  0  0  0  0  0  0  0  0  0  0
   36.8560   23.2150   43.5770 C   0  0  0  0  0  0  0  0  0  0  0  0
   37.9300   23.0140   43.5810 H   0  0  0  0  0  0  0  0  0  0  0  0
   35.9760   22.2760   43.0700 C   0  0  0  0  0  0  0  0  0  0  0  0
   34.6300   22.5680   43.0820 C   0  0  0  0  0  0  0  0  0  0  0  0
   34.1470   23.7420   43.5740 N   0  0  0  0  0  0  0  0  0  0  0  0
  1  6  1  6  0  0  0
  1 11  1  0  0  0  0
  1  2  1  0  0  0  0
  2  7  1  6  0  0  0
  2 13  1  0  0  0  0
  2  3  1  0  0  0  0
  4  9  1  0  0  0  0
  4  8  1  0  0  0  0
  4  3  1  0  0  0  0
  5 10  1  6  0  0  0
  5  1  1  0  0  0  0
  5  4  1  0  0  0  0
 11 12  1  0  0  0  0
 15 14  2  6  0  0  0
 15 13  1  0  0  0  0
 15 18  1  0  0  0  0
 16 15  1  0  0  0  0
 17 16  1  0  0  0  0
 18 19  1  0  0  0  0
 19 20  1  0  0  0  0
 20 25  1  0  0  0  0
 20 21  2  0  0  0  0
 21 26  1  0  0  0  0
 22 21  1  0  0  0  0
 23 22  2  0  0  0  0
 24 19  2  0  0  0  0
 24 23  1  0  0  0  0
 27 23  1  0  0  0  0
 28  5  1  0  0  0  0
 29 30  1  0  0  0  0
 29 28  1  0  0  0  0
 30 31  1  0  0  0  0
 32 33  1  0  0  0  0
 32 30  2  0  0  0  0
 34 35  2  0  0  0  0
 34 32  1  0  0  0  0
 35 36  1  0  0  0  0
 36 29  2  0  0  0  0
M  END
>  <minimizedAffinity>
-4.1182456

>  <minimizedRMSD>
1.4381665

$$$$
