
 OpenBabel03272501053D

 29 31  0  0  1  0  0  0  0  0999 V2000
   37.4700   31.0540   47.0170 C   0  0  2  0  0  0  0  0  0  0  0  0
   37.4050   31.7990   48.3750 C   0  0  2  0  0  0  0  0  0  0  0  0
   38.7970   32.2610   48.4750 C   0  0  0  0  0  0  0  0  0  0  0  0
   39.1840   32.6400   47.1940 O   0  0  0  0  0  0  0  0  0  0  0  0
   38.3410   32.0660   46.2770 C   0  0  0  0  0  0  0  0  0  0  0  0
   37.9760   30.0820   47.1500 H   0  0  0  0  0  0  0  0  0  0  0  0
   36.6980   32.6380   48.1910 H   0  0  0  0  0  0  0  0  0  0  0  0
   39.0060   33.0520   49.2280 H   0  0  0  0  0  0  0  0  0  0  0  0
   39.4440   31.3840   48.7700 H   0  0  0  0  0  0  0  0  0  0  0  0
   37.6370   32.8470   45.9170 H   0  0  0  0  0  0  0  0  0  0  0  0
   38.8400   31.6070   45.3990 H   0  0  0  0  0  0  0  0  0  0  0  0
   37.1640   29.8180   51.5820 C   0  0  0  0  0  0  0  0  0  0  0  0
   37.6970   30.6710   50.5780 C   0  0  0  0  0  0  0  0  0  0  0  0
   36.9140   30.9550   49.4360 C   0  0  0  0  0  0  0  0  0  0  0  0
   35.6620   30.3810   49.3640 N   0  0  0  0  0  0  0  0  0  0  0  0
   35.1940   29.5850   50.3260 C   0  0  0  0  0  0  0  0  0  0  0  0
   35.9280   29.2940   51.4410 N   0  0  0  0  0  0  0  0  0  0  0  0
   37.8490   29.6730   52.4050 H   0  0  0  0  0  0  0  0  0  0  0  0
   38.6990   31.1050   50.6770 H   0  0  0  0  0  0  0  0  0  0  0  0
   34.2070   29.1460   50.2450 H   0  0  0  0  0  0  0  0  0  0  0  0
   36.1980   30.9940   46.4460 O   0  0  0  0  0  0  0  0  0  0  0  0
   35.7890   30.0720   45.5280 C   0  0  0  0  0  0  0  0  0  0  0  0
   36.3070   29.7810   44.2840 C   0  0  0  0  0  0  0  0  0  0  0  0
   37.1540   30.3730   44.0120 H   0  0  0  0  0  0  0  0  0  0  0  0
   35.8050   28.8270   43.4530 C   0  0  0  0  0  0  0  0  0  0  0  0
   36.2980   28.6990   42.5160 H   0  0  0  0  0  0  0  0  0  0  0  0
   34.7210   28.1060   43.8630 C   0  0  0  0  0  0  0  0  0  0  0  0
   34.2000   28.3970   45.1120 C   0  0  0  0  0  0  0  0  0  0  0  0
   34.7050   29.3470   45.9320 N   0  0  0  0  0  0  0  0  0  0  0  0
  1  6  1  1  0  0  0
  1  2  1  0  0  0  0
  2  7  1  6  0  0  0
  2  3  1  0  0  0  0
  2 14  1  0  0  0  0
  3  9  1  0  0  0  0
  3  8  1  0  0  0  0
  4  3  1  0  0  0  0
  5  1  1  0  0  0  0
  5  4  1  0  0  0  0
 10  5  1  0  0  0  0
 11  5  1  0  0  0  0
 12 18  1  0  0  0  0
 13 19  1  0  0  0  0
 13 12  2  0  0  0  0
 14 13  1  0  0  0  0
 15 14  2  0  0  0  0
 15 16  1  0  0  0  0
 16 17  2  0  0  0  0
 17 12  1  0  0  0  0
 20 16  1  0  0  0  0
 21  1  1  0  0  0  0
 22 29  1  0  0  0  0
 22 21  1  0  0  0  0
 23 22  2  0  0  0  0
 24 23  1  0  0  0  0
 25 27  2  0  0  0  0
 25 23  1  0  0  0  0
 26 25  1  0  0  0  0
 27 28  1  0  0  0  0
 28 29  2  0  0  0  0
M  END
>  <minimizedAffinity>
-4.49157

>  <minimizedRMSD>
1.03299701

$$$$
