
 OpenBabel03272509573D

 45 48  0  0  0  0  0  0  0  0999 V2000
   34.4410   28.6430   48.1830 C   0  0  0  0  0  0  0  0  0  0  0  0
   33.9410   29.6300   48.1680 H   0  0  0  0  0  0  0  0  0  0  0  0
   35.3090   28.7350   47.4830 H   0  0  0  0  0  0  0  0  0  0  0  0
   33.5470   27.5370   47.7320 C   0  0  0  0  0  0  0  0  0  0  0  0
   33.7400   27.3410   46.6440 H   0  0  0  0  0  0  0  0  0  0  0  0
   33.7140   26.6120   48.2940 H   0  0  0  0  0  0  0  0  0  0  0  0
   32.1030   27.8910   47.8050 C   0  0  0  0  0  0  0  0  0  0  0  0
   31.3960   27.4760   48.9210 C   0  0  0  0  0  0  0  0  0  0  0  0
   30.0650   27.7500   49.0820 C   0  0  0  0  0  0  0  0  0  0  0  0
   29.4330   28.4330   48.1400 N   0  0  0  0  0  0  0  0  0  0  0  0
   30.1230   28.8450   47.0380 C   0  0  0  0  0  0  0  0  0  0  0  0
   31.4340   28.5870   46.8570 N   0  0  0  0  0  0  0  0  0  0  0  0
   31.8980   26.9130   49.7060 H   0  0  0  0  0  0  0  0  0  0  0  0
   29.4910   27.4440   49.9320 H   0  0  0  0  0  0  0  0  0  0  0  0
   29.3970   29.6110   45.9900 C   0  0  0  0  0  0  0  0  0  0  0  0
   30.0370   30.3990   45.5390 H   0  0  0  0  0  0  0  0  0  0  0  0
   28.5780   30.1620   46.4970 H   0  0  0  0  0  0  0  0  0  0  0  0
   28.7980   28.7210   44.9810 C   0  0  0  0  0  0  0  0  0  0  0  0
   29.3000   27.4160   45.0160 C   0  0  0  0  0  0  0  0  0  0  0  0
   30.0470   27.0810   45.7020 H   0  0  0  0  0  0  0  0  0  0  0  0
   28.7850   26.5070   44.0900 C   0  0  0  0  0  0  0  0  0  0  0  0
   29.1430   25.4690   44.0720 H   0  0  0  0  0  0  0  0  0  0  0  0
   27.8170   26.8420   43.1610 C   0  0  0  0  0  3  0  0  0  0  0  0
   27.3660   28.1650   43.1900 C   0  0  0  0  0  3  0  0  0  0  0  0
   27.8600   29.0470   44.0820 N   0  0  0  0  0  0  0  0  0  0  0  0
   35.0150   28.3610   49.4420 O   0  0  0  0  0  0  0  0  0  0  0  0
   37.3840   30.1780   51.4690 C   0  0  0  0  0  0  0  0  0  0  0  0
   38.1000   30.8690   50.4680 C   0  0  0  0  0  0  0  0  0  0  0  0
   37.7100   30.6570   49.1480 C   0  0  0  0  0  0  0  0  0  0  0  0
   36.6690   29.7980   48.9530 N   0  0  0  0  0  0  0  0  0  0  0  0
   36.0080   29.1570   49.9090 C   0  0  0  0  0  0  0  0  0  0  0  0
   36.3820   29.3580   51.1920 N   0  0  0  0  0  0  0  0  0  0  0  0
   37.7260   30.3760   52.4850 H   0  0  0  0  0  0  0  0  0  0  0  0
   38.9180   31.5440   50.6400 H   0  0  0  0  0  0  0  0  0  0  0  0
   38.9380   33.2790   48.9510 F   0  0  0  0  0  0  0  0  0  0  0  0
   38.8930   32.4810   47.8820 C   0  0  0  0  0  0  0  0  0  0  0  0
   38.3220   31.2760   47.9930 C   0  0  0  0  0  0  0  0  0  0  0  0
   38.3270   30.5220   46.8170 C   0  0  0  0  0  0  0  0  0  0  0  0
   38.8780   30.9920   45.6470 C   0  0  0  0  0  0  0  0  0  0  0  0
   39.4550   32.2430   45.5860 C   0  0  0  0  0  0  0  0  0  0  0  0
   39.4520   32.9800   46.7280 C   0  0  0  0  0  0  0  0  0  0  0  0
   37.8980   29.5260   46.7620 H   0  0  0  0  0  0  0  0  0  0  0  0
   38.8720   30.3940   44.7460 H   0  0  0  0  0  0  0  0  0  0  0  0
   39.8800   32.5830   44.6450 H   0  0  0  0  0  0  0  0  0  0  0  0
   39.9010   33.9640   46.6930 H   0  0  0  0  0  0  0  0  0  0  0  0
  1 26  1  0  0  0  0
  2  1  1  0  0  0  0
  3  1  1  0  0  0  0
  4  7  1  0  0  0  0
  4  1  1  0  0  0  0
  4  6  1  0  0  0  0
  5  4  1  0  0  0  0
  7  8  1  0  0  0  0
  8  9  2  0  0  0  0
  8 13  1  0  0  0  0
  9 14  1  0  0  0  0
 10  9  1  0  0  0  0
 11 10  2  0  0  0  0
 12 11  1  0  0  0  0
 12  7  2  0  0  0  0
 15 17  1  0  0  0  0
 15 11  1  0  0  0  0
 16 15  1  0  0  0  0
 18 19  1  0  0  0  0
 18 15  1  0  0  0  0
 19 20  1  0  0  0  0
 21 19  2  0  0  0  0
 22 21  1  0  0  0  0
 23 24  2  0  0  0  0
 23 21  1  0  0  0  0
 24 25  1  0  0  0  0
 25 18  2  0  0  0  0
 26 31  1  0  0  0  0
 27 33  1  0  0  0  0
 28 34  1  0  0  0  0
 28 27  2  0  0  0  0
 29 28  1  0  0  0  0
 30 29  2  0  0  0  0
 30 31  1  0  0  0  0
 31 32  2  0  0  0  0
 32 27  1  0  0  0  0
 36 37  1  0  0  0  0
 36 35  1  0  0  0  0
 37 29  1  0  0  0  0
 38 37  2  0  0  0  0
 39 38  1  0  0  0  0
 40 39  2  0  0  0  0
 40 41  1  0  0  0  0
 41 36  2  0  0  0  0
 42 38  1  0  0  0  0
 43 39  1  0  0  0  0
 44 40  1  0  0  0  0
 45 41  1  0  0  0  0
M  END
>  <minimizedAffinity>
-6.28770161

>  <minimizedRMSD>
0.122787818

$$$$
