
 OpenBabel03272502243D

 28 30  0  0  0  0  0  0  0  0999 V2000
   35.7060   28.0610   31.9310 C   0  0  0  0  0  0  0  0  0  0  0  0
   36.6160   27.0970   32.3940 C   0  0  0  0  0  0  0  0  0  0  0  0
   37.0110   27.1880   33.7140 C   0  0  0  0  0  0  0  0  0  0  0  0
   36.5050   28.1870   34.4720 N   0  0  0  0  0  0  0  0  0  0  0  0
   35.6300   29.1040   34.0030 C   0  0  0  0  0  0  0  0  0  0  0  0
   35.2340   29.0280   32.7150 N   0  0  0  0  0  0  0  0  0  0  0  0
   35.4470   27.9140   30.8750 H   0  0  0  0  0  0  0  0  0  0  0  0
   37.0180   26.3100   31.8090 H   0  0  0  0  0  0  0  0  0  0  0  0
   37.9560   26.2590   34.3530 C   0  0  0  0  0  0  0  0  0  0  0  0
   39.1680   25.9330   33.7860 C   0  0  0  0  0  0  0  0  0  0  0  0
   40.0610   25.0610   34.3830 C   0  0  0  0  0  0  0  0  0  0  0  0
   39.7350   24.5010   35.5740 N   0  0  0  0  0  0  0  0  0  0  0  0
   38.5600   24.8240   36.1100 C   0  0  0  0  0  0  0  0  0  0  0  0
   37.6920   25.6710   35.5320 N   0  0  0  0  0  0  0  0  0  0  0  0
   39.4160   26.3880   32.8340 H   0  0  0  0  0  0  0  0  0  0  0  0
   40.9830   24.8590   33.8770 H   0  0  0  0  0  0  0  0  0  0  0  0
   38.1680   24.2260   37.4210 C   0  0  0  0  0  0  0  0  0  0  0  0
   36.9740   23.5660   37.2550 F   0  0  0  0  0  0  0  0  0  0  0  0
   39.1550   23.3580   37.8850 F   0  0  0  0  0  0  0  0  0  0  0  0
   37.9890   25.1820   38.3720 F   0  0  0  0  0  0  0  0  0  0  0  0
   35.1520   30.1320   34.9040 C   0  0  0  0  0  0  0  0  0  0  0  0
   35.9730   31.0120   35.5400 C   0  0  0  0  0  0  0  0  0  0  0  0
   37.0430   30.9570   35.3770 H   0  0  0  0  0  0  0  0  0  0  0  0
   35.4370   31.9640   36.3840 C   0  0  0  0  0  0  0  0  0  0  0  0
   36.0910   32.6620   36.8880 H   0  0  0  0  0  0  0  0  0  0  0  0
   34.0730   32.0600   36.6130 C   0  0  0  0  0  3  0  0  0  0  0  0
   33.2940   31.1380   35.9390 C   0  0  0  0  0  3  0  0  0  0  0  0
   33.8220   30.2120   35.1170 N   0  0  0  0  0  0  0  0  0  0  0  0
  1  2  2  0  0  0  0
  1  6  1  0  0  0  0
  2  3  1  0  0  0  0
  3  9  1  0  0  0  0
  3  4  2  0  0  0  0
  5  4  1  0  0  0  0
  5 21  1  0  0  0  0
  6  5  2  0  0  0  0
  7  1  1  0  0  0  0
  8  2  1  0  0  0  0
  9 14  1  0  0  0  0
 10  9  2  0  0  0  0
 10 11  1  0  0  0  0
 11 12  2  0  0  0  0
 12 13  1  0  0  0  0
 13 17  1  0  0  0  0
 14 13  2  0  0  0  0
 15 10  1  0  0  0  0
 16 11  1  0  0  0  0
 17 19  1  0  0  0  0
 17 20  1  0  0  0  0
 18 17  1  0  0  0  0
 21 28  2  0  0  0  0
 21 22  1  0  0  0  0
 22 24  2  0  0  0  0
 23 22  1  0  0  0  0
 24 26  1  0  0  0  0
 24 25  1  0  0  0  0
 27 26  2  0  0  0  0
 28 27  1  0  0  0  0
M  END
>  <minimizedAffinity>
-5.87967634

$$$$

 OpenBabel03272502243D

 28 30  0  0  0  0  0  0  0  0999 V2000
   36.4960   23.0840   31.6360 C   0  0  0  0  0  0  0  0  0  0  0  0
   37.2370   22.6290   32.7380 C   0  0  0  0  0  0  0  0  0  0  0  0
   37.7700   23.5880   33.5770 C   0  0  0  0  0  0  0  0  0  0  0  0
   37.5490   24.8910   33.2910 N   0  0  0  0  0  0  0  0  0  0  0  0
   36.8310   25.3040   32.2220 C   0  0  0  0  0  0  0  0  0  0  0  0
   36.3040   24.3790   31.3940 N   0  0  0  0  0  0  0  0  0  0  0  0
   36.1110   22.2570   31.0250 H   0  0  0  0  0  0  0  0  0  0  0  0
   37.4170   21.6110   32.9720 H   0  0  0  0  0  0  0  0  0  0  0  0
   38.5700   23.2790   34.7730 C   0  0  0  0  0  0  0  0  0  0  0  0
   39.7840   22.6340   34.7010 C   0  0  0  0  0  0  0  0  0  0  0  0
   40.5400   22.3420   35.8230 C   0  0  0  0  0  0  0  0  0  0  0  0
   40.0720   22.7020   37.0430 N   0  0  0  0  0  0  0  0  0  0  0  0
   38.8960   23.3250   37.0970 C   0  0  0  0  0  0  0  0  0  0  0  0
   38.1610   23.6090   36.0090 N   0  0  0  0  0  0  0  0  0  0  0  0
   40.1470   22.3520   33.7200 H   0  0  0  0  0  0  0  0  0  0  0  0
   41.4740   21.8370   35.6830 H   0  0  0  0  0  0  0  0  0  0  0  0
   38.3500   23.7350   38.4240 C   0  0  0  0  0  0  0  0  0  0  0  0
   37.2940   22.9110   38.7310 F   0  0  0  0  0  0  0  0  0  0  0  0
   39.3350   23.6690   39.4080 F   0  0  0  0  0  0  0  0  0  0  0  0
   37.8880   25.0150   38.3990 F   0  0  0  0  0  0  0  0  0  0  0  0
   36.6570   26.7260   32.0120 C   0  0  0  0  0  0  0  0  0  0  0  0
   36.4630   27.6160   33.0230 C   0  0  0  0  0  0  0  0  0  0  0  0
   36.4330   27.2620   34.0460 H   0  0  0  0  0  0  0  0  0  0  0  0
   36.3060   28.9580   32.7370 C   0  0  0  0  0  0  0  0  0  0  0  0
   36.1520   29.6630   33.5420 H   0  0  0  0  0  0  0  0  0  0  0  0
   36.3400   29.4420   31.4380 C   0  0  0  0  0  3  0  0  0  0  0  0
   36.5400   28.4880   30.4570 C   0  0  0  0  0  3  0  0  0  0  0  0
   36.6920   27.1820   30.7410 N   0  0  0  0  0  0  0  0  0  0  0  0
  1  2  1  0  0  0  0
  2  8  1  0  0  0  0
  2  3  2  0  0  0  0
  3  9  1  0  0  0  0
  4  3  1  0  0  0  0
  5  4  2  0  0  0  0
  6  1  2  0  0  0  0
  6  5  1  0  0  0  0
  7  1  1  0  0  0  0
  9 14  1  0  0  0  0
 10  9  2  0  0  0  0
 10 11  1  0  0  0  0
 11 12  2  0  0  0  0
 12 13  1  0  0  0  0
 13 17  1  0  0  0  0
 14 13  2  0  0  0  0
 15 10  1  0  0  0  0
 16 11  1  0  0  0  0
 17 18  1  0  0  0  0
 17 19  1  0  0  0  0
 20 17  1  0  0  0  0
 21  5  1  0  0  0  0
 21 22  1  0  0  0  0
 22 23  1  0  0  0  0
 24 22  2  0  0  0  0
 24 25  1  0  0  0  0
 26 24  1  0  0  0  0
 27 28  1  0  0  0  0
 27 26  2  0  0  0  0
 28 21  2  0  0  0  0
M  END
>  <minimizedAffinity>
-5.81394434

$$$$

 OpenBabel03272502243D

 28 30  0  0  0  0  0  0  0  0999 V2000
   36.0540   29.6280   31.6100 C   0  0  0  0  0  0  0  0  0  0  0  0
   36.6070   28.3560   31.8240 C   0  0  0  0  0  0  0  0  0  0  0  0
   36.5830   27.8690   33.1160 C   0  0  0  0  0  0  0  0  0  0  0  0
   36.0360   28.6380   34.0860 N   0  0  0  0  0  0  0  0  0  0  0  0
   35.5090   29.8600   33.8540 C   0  0  0  0  0  0  0  0  0  0  0  0
   35.5250   30.3490   32.5970 N   0  0  0  0  0  0  0  0  0  0  0  0
   36.1150   29.9360   30.5580 H   0  0  0  0  0  0  0  0  0  0  0  0
   37.0390   27.7460   31.0730 H   0  0  0  0  0  0  0  0  0  0  0  0
   37.1210   26.5570   33.5090 C   0  0  0  0  0  0  0  0  0  0  0  0
   37.3850   25.5640   32.5920 C   0  0  0  0  0  0  0  0  0  0  0  0
   37.8910   24.3280   32.9570 C   0  0  0  0  0  0  0  0  0  0  0  0
   38.1380   24.0800   34.2670 N   0  0  0  0  0  0  0  0  0  0  0  0
   37.8770   25.0490   35.1410 C   0  0  0  0  0  0  0  0  0  0  0  0
   37.3860   26.2490   34.7890 N   0  0  0  0  0  0  0  0  0  0  0  0
   37.1830   25.7760   31.5490 H   0  0  0  0  0  0  0  0  0  0  0  0
   38.0690   23.6090   32.1830 H   0  0  0  0  0  0  0  0  0  0  0  0
   38.1360   24.8100   36.5920 C   0  0  0  0  0  0  0  0  0  0  0  0
   39.2880   24.0680   36.7090 F   0  0  0  0  0  0  0  0  0  0  0  0
   38.2490   26.0150   37.2820 F   0  0  0  0  0  0  0  0  0  0  0  0
   37.1250   24.1050   37.1700 F   0  0  0  0  0  0  0  0  0  0  0  0
   34.9480   30.5960   34.9680 C   0  0  0  0  0  0  0  0  0  0  0  0
   35.6800   31.4180   35.7680 C   0  0  0  0  0  0  0  0  0  0  0  0
   36.7400   31.5410   35.5800 H   0  0  0  0  0  0  0  0  0  0  0  0
   35.0690   32.0860   36.8110 C   0  0  0  0  0  0  0  0  0  0  0  0
   35.6520   32.7370   37.4450 H   0  0  0  0  0  0  0  0  0  0  0  0
   33.7150   31.9490   37.0780 C   0  0  0  0  0  3  0  0  0  0  0  0
   33.0270   31.1000   36.2300 C   0  0  0  0  0  3  0  0  0  0  0  0
   33.6290   30.4530   35.2150 N   0  0  0  0  0  0  0  0  0  0  0  0
  1  2  2  0  0  0  0
  1  6  1  0  0  0  0
  2  3  1  0  0  0  0
  3  9  1  0  0  0  0
  3  4  2  0  0  0  0
  5  4  1  0  0  0  0
  5 21  1  0  0  0  0
  6  5  2  0  0  0  0
  7  1  1  0  0  0  0
  8  2  1  0  0  0  0
  9 14  1  0  0  0  0
 10 11  1  0  0  0  0
 10  9  2  0  0  0  0
 11 12  2  0  0  0  0
 12 13  1  0  0  0  0
 13 17  1  0  0  0  0
 14 13  2  0  0  0  0
 15 10  1  0  0  0  0
 16 11  1  0  0  0  0
 17 18  1  0  0  0  0
 17 20  1  0  0  0  0
 17 19  1  0  0  0  0
 21 28  2  0  0  0  0
 21 22  1  0  0  0  0
 22 24  2  0  0  0  0
 23 22  1  0  0  0  0
 24 26  1  0  0  0  0
 24 25  1  0  0  0  0
 27 26  2  0  0  0  0
 28 27  1  0  0  0  0
M  END
>  <minimizedAffinity>
-5.79412508

$$$$

 OpenBabel03272502243D

 28 30  0  0  0  0  0  0  0  0999 V2000
   36.7320   24.7490   31.3090 C   0  0  0  0  0  0  0  0  0  0  0  0
   37.4450   23.9960   32.2560 C   0  0  0  0  0  0  0  0  0  0  0  0
   37.7420   24.6140   33.4550 C   0  0  0  0  0  0  0  0  0  0  0  0
   37.3350   25.8900   33.6430 N   0  0  0  0  0  0  0  0  0  0  0  0
   36.6490   26.5940   32.7150 C   0  0  0  0  0  0  0  0  0  0  0  0
   36.3510   26.0040   31.5380 N   0  0  0  0  0  0  0  0  0  0  0  0
   36.5390   24.1830   30.3880 H   0  0  0  0  0  0  0  0  0  0  0  0
   37.7690   22.9970   32.1190 H   0  0  0  0  0  0  0  0  0  0  0  0
   38.4810   23.9660   34.5500 C   0  0  0  0  0  0  0  0  0  0  0  0
   39.5680   23.1510   34.3260 C   0  0  0  0  0  0  0  0  0  0  0  0
   40.2660   22.5400   35.3520 C   0  0  0  0  0  0  0  0  0  0  0  0
   39.8690   22.7480   36.6320 N   0  0  0  0  0  0  0  0  0  0  0  0
   38.8160   23.5380   36.8340 C   0  0  0  0  0  0  0  0  0  0  0  0
   38.1370   24.1320   35.8380 N   0  0  0  0  0  0  0  0  0  0  0  0
   39.8750   22.9930   33.2980 H   0  0  0  0  0  0  0  0  0  0  0  0
   41.1010   21.9200   35.0950 H   0  0  0  0  0  0  0  0  0  0  0  0
   38.3510   23.7880   38.2300 C   0  0  0  0  0  0  0  0  0  0  0  0
   39.3610   23.4330   39.0920 F   0  0  0  0  0  0  0  0  0  0  0  0
   37.9980   25.1250   38.4030 F   0  0  0  0  0  0  0  0  0  0  0  0
   37.2580   23.0380   38.5340 F   0  0  0  0  0  0  0  0  0  0  0  0
   36.2630   27.9550   33.0230 C   0  0  0  0  0  0  0  0  0  0  0  0
   36.1900   28.4450   34.2900 C   0  0  0  0  0  0  0  0  0  0  0  0
   36.4280   27.7990   35.1270 H   0  0  0  0  0  0  0  0  0  0  0  0
   35.8120   29.7570   34.4990 C   0  0  0  0  0  0  0  0  0  0  0  0
   35.7550   30.1440   35.5060 H   0  0  0  0  0  0  0  0  0  0  0  0
   35.5010   30.6080   33.4490 C   0  0  0  0  0  3  0  0  0  0  0  0
   35.5950   30.0510   32.1870 C   0  0  0  0  0  3  0  0  0  0  0  0
   35.9630   28.7710   31.9900 N   0  0  0  0  0  0  0  0  0  0  0  0
  1  6  2  0  0  0  0
  1  2  1  0  0  0  0
  2  3  2  0  0  0  0
  3  4  1  0  0  0  0
  3  9  1  0  0  0  0
  5 21  1  0  0  0  0
  5  4  2  0  0  0  0
  6  5  1  0  0  0  0
  7  1  1  0  0  0  0
  8  2  1  0  0  0  0
  9 14  1  0  0  0  0
 10  9  2  0  0  0  0
 10 11  1  0  0  0  0
 11 12  2  0  0  0  0
 12 13  1  0  0  0  0
 13 17  1  0  0  0  0
 14 13  2  0  0  0  0
 15 10  1  0  0  0  0
 16 11  1  0  0  0  0
 17 19  1  0  0  0  0
 17 20  1  0  0  0  0
 17 18  1  0  0  0  0
 21 22  1  0  0  0  0
 22 24  2  0  0  0  0
 22 23  1  0  0  0  0
 24 25  1  0  0  0  0
 26 24  1  0  0  0  0
 27 26  2  0  0  0  0
 28 27  1  0  0  0  0
 28 21  2  0  0  0  0
M  END
>  <minimizedAffinity>
-5.72169065

$$$$

 OpenBabel03272502243D

 28 30  0  0  0  0  0  0  0  0999 V2000
   37.6100   24.5960   31.9830 C   0  0  0  0  0  0  0  0  0  0  0  0
   38.0810   23.9520   33.1370 C   0  0  0  0  0  0  0  0  0  0  0  0
   38.0170   24.6590   34.3220 C   0  0  0  0  0  0  0  0  0  0  0  0
   37.5110   25.9130   34.3000 N   0  0  0  0  0  0  0  0  0  0  0  0
   37.0630   26.5120   33.1740 C   0  0  0  0  0  0  0  0  0  0  0  0
   37.1190   25.8340   32.0090 N   0  0  0  0  0  0  0  0  0  0  0  0
   37.6970   23.9650   31.0890 H   0  0  0  0  0  0  0  0  0  0  0  0
   38.4790   22.9700   33.1660 H   0  0  0  0  0  0  0  0  0  0  0  0
   38.4690   24.1290   35.6180 C   0  0  0  0  0  0  0  0  0  0  0  0
   37.7610   24.3280   36.7830 C   0  0  0  0  0  0  0  0  0  0  0  0
   38.1820   23.8320   38.0050 C   0  0  0  0  0  0  0  0  0  0  0  0
   39.3350   23.1220   38.0640 N   0  0  0  0  0  0  0  0  0  0  0  0
   40.0090   22.9380   36.9300 C   0  0  0  0  0  0  0  0  0  0  0  0
   39.6020   23.4190   35.7430 N   0  0  0  0  0  0  0  0  0  0  0  0
   36.8410   24.8980   36.7220 H   0  0  0  0  0  0  0  0  0  0  0  0
   37.5750   24.0310   38.8650 H   0  0  0  0  0  0  0  0  0  0  0  0
   41.2830   22.1610   36.9580 C   0  0  0  0  0  0  0  0  0  0  0  0
   42.3310   23.0500   37.0000 F   0  0  0  0  0  0  0  0  0  0  0  0
   41.3170   21.3010   38.0540 F   0  0  0  0  0  0  0  0  0  0  0  0
   41.4270   21.3980   35.8400 F   0  0  0  0  0  0  0  0  0  0  0  0
   36.5410   27.8590   33.2660 C   0  0  0  0  0  0  0  0  0  0  0  0
   36.2220   28.4610   34.4440 C   0  0  0  0  0  0  0  0  0  0  0  0
   36.3570   27.9210   35.3730 H   0  0  0  0  0  0  0  0  0  0  0  0
   35.7290   29.7510   34.4460 C   0  0  0  0  0  0  0  0  0  0  0  0
   35.4760   30.2270   35.3820 H   0  0  0  0  0  0  0  0  0  0  0  0
   35.5440   30.4690   33.2740 C   0  0  0  0  0  3  0  0  0  0  0  0
   35.8860   29.8030   32.1120 C   0  0  0  0  0  3  0  0  0  0  0  0
   36.3660   28.5450   32.1160 N   0  0  0  0  0  0  0  0  0  0  0  0
  1  6  2  0  0  0  0
  1  2  1  0  0  0  0
  2  8  1  0  0  0  0
  2  3  2  0  0  0  0
  3  9  1  0  0  0  0
  4  3  1  0  0  0  0
  5 21  1  0  0  0  0
  5  4  2  0  0  0  0
  6  5  1  0  0  0  0
  7  1  1  0  0  0  0
  9 14  2  0  0  0  0
  9 10  1  0  0  0  0
 10 11  2  0  0  0  0
 11 12  1  0  0  0  0
 11 16  1  0  0  0  0
 13 17  1  0  0  0  0
 13 12  2  0  0  0  0
 14 13  1  0  0  0  0
 15 10  1  0  0  0  0
 17 18  1  0  0  0  0
 17 19  1  0  0  0  0
 20 17  1  0  0  0  0
 21 22  1  0  0  0  0
 22 24  2  0  0  0  0
 22 23  1  0  0  0  0
 24 25  1  0  0  0  0
 26 24  1  0  0  0  0
 27 28  1  0  0  0  0
 27 26  2  0  0  0  0
 28 21  2  0  0  0  0
M  END
>  <minimizedAffinity>
-5.66822338

$$$$

 OpenBabel03272502243D

 28 30  0  0  0  0  0  0  0  0999 V2000
   38.7170   27.1160   31.6240 C   0  0  0  0  0  0  0  0  0  0  0  0
   38.8990   25.9270   32.3470 C   0  0  0  0  0  0  0  0  0  0  0  0
   38.0260   25.6850   33.3890 C   0  0  0  0  0  0  0  0  0  0  0  0
   37.0610   26.5960   33.6480 N   0  0  0  0  0  0  0  0  0  0  0  0
   36.9060   27.7350   32.9370 C   0  0  0  0  0  0  0  0  0  0  0  0
   37.7510   27.9860   31.9150 N   0  0  0  0  0  0  0  0  0  0  0  0
   39.4520   27.2280   30.8160 H   0  0  0  0  0  0  0  0  0  0  0  0
   39.6510   25.2060   32.1530 H   0  0  0  0  0  0  0  0  0  0  0  0
   38.0800   24.4880   34.2430 C   0  0  0  0  0  0  0  0  0  0  0  0
   38.0690   23.2120   33.7270 C   0  0  0  0  0  0  0  0  0  0  0  0
   38.1200   22.0830   34.5260 C   0  0  0  0  0  0  0  0  0  0  0  0
   38.1840   22.2340   35.8720 N   0  0  0  0  0  0  0  0  0  0  0  0
   38.1940   23.4740   36.3580 C   0  0  0  0  0  0  0  0  0  0  0  0
   38.1440   24.5710   35.5830 N   0  0  0  0  0  0  0  0  0  0  0  0
   38.0180   23.1060   32.6490 H   0  0  0  0  0  0  0  0  0  0  0  0
   38.1060   21.1260   34.0470 H   0  0  0  0  0  0  0  0  0  0  0  0
   38.2630   23.6770   37.8350 C   0  0  0  0  0  0  0  0  0  0  0  0
   37.2680   22.9320   38.4210 F   0  0  0  0  0  0  0  0  0  0  0  0
   39.5140   23.3110   38.3280 F   0  0  0  0  0  0  0  0  0  0  0  0
   38.0610   24.9810   38.1690 F   0  0  0  0  0  0  0  0  0  0  0  0
   35.8370   28.6410   33.3020 C   0  0  0  0  0  0  0  0  0  0  0  0
   35.8630   29.4210   34.4170 C   0  0  0  0  0  0  0  0  0  0  0  0
   36.7190   29.3760   35.0790 H   0  0  0  0  0  0  0  0  0  0  0  0
   34.8020   30.2600   34.6940 C   0  0  0  0  0  0  0  0  0  0  0  0
   34.8250   30.8780   35.5800 H   0  0  0  0  0  0  0  0  0  0  0  0
   33.6930   30.3400   33.8660 C   0  0  0  0  0  3  0  0  0  0  0  0
   33.7260   29.5230   32.7510 C   0  0  0  0  0  3  0  0  0  0  0  0
   34.7640   28.7070   32.4860 N   0  0  0  0  0  0  0  0  0  0  0  0
  1  6  2  0  0  0  0
  1  2  1  0  0  0  0
  2  3  2  0  0  0  0
  3  4  1  0  0  0  0
  3  9  1  0  0  0  0
  5 21  1  0  0  0  0
  5  4  2  0  0  0  0
  6  5  1  0  0  0  0
  7  1  1  0  0  0  0
  8  2  1  0  0  0  0
  9 14  1  0  0  0  0
 10  9  2  0  0  0  0
 10 11  1  0  0  0  0
 11 12  2  0  0  0  0
 12 13  1  0  0  0  0
 13 17  1  0  0  0  0
 14 13  2  0  0  0  0
 15 10  1  0  0  0  0
 16 11  1  0  0  0  0
 17 20  1  0  0  0  0
 17 19  1  0  0  0  0
 17 18  1  0  0  0  0
 21 22  1  0  0  0  0
 22 24  2  0  0  0  0
 22 23  1  0  0  0  0
 24 25  1  0  0  0  0
 26 24  1  0  0  0  0
 27 26  2  0  0  0  0
 28 27  1  0  0  0  0
 28 21  2  0  0  0  0
M  END
>  <minimizedAffinity>
-5.66415977

$$$$

 OpenBabel03272502243D

 28 30  0  0  0  0  0  0  0  0999 V2000
   36.2560   29.6620   31.6690 C   0  0  0  0  0  0  0  0  0  0  0  0
   36.7910   28.3820   31.8840 C   0  0  0  0  0  0  0  0  0  0  0  0
   36.6570   27.8490   33.1500 C   0  0  0  0  0  0  0  0  0  0  0  0
   36.0260   28.5810   34.0970 N   0  0  0  0  0  0  0  0  0  0  0  0
   35.5190   29.8120   33.8650 C   0  0  0  0  0  0  0  0  0  0  0  0
   35.6420   30.3470   32.6320 N   0  0  0  0  0  0  0  0  0  0  0  0
   36.4060   30.0080   30.6380 H   0  0  0  0  0  0  0  0  0  0  0  0
   37.2870   27.8000   31.1500 H   0  0  0  0  0  0  0  0  0  0  0  0
   37.1610   26.5230   33.5400 C   0  0  0  0  0  0  0  0  0  0  0  0
   37.4060   25.5270   32.6200 C   0  0  0  0  0  0  0  0  0  0  0  0
   37.8810   24.2780   32.9810 C   0  0  0  0  0  0  0  0  0  0  0  0
   38.1160   24.0180   34.2910 N   0  0  0  0  0  0  0  0  0  0  0  0
   37.8740   24.9900   35.1690 C   0  0  0  0  0  0  0  0  0  0  0  0
   37.4130   26.2030   34.8200 N   0  0  0  0  0  0  0  0  0  0  0  0
   37.2140   25.7490   31.5760 H   0  0  0  0  0  0  0  0  0  0  0  0
   38.0450   23.5590   32.2050 H   0  0  0  0  0  0  0  0  0  0  0  0
   38.1220   24.7380   36.6190 C   0  0  0  0  0  0  0  0  0  0  0  0
   38.2300   25.9510   37.2560 F   0  0  0  0  0  0  0  0  0  0  0  0
   37.0940   23.9760   37.1730 F   0  0  0  0  0  0  0  0  0  0  0  0
   39.2830   24.0570   36.8160 F   0  0  0  0  0  0  0  0  0  0  0  0
   34.8620   30.5080   34.9530 C   0  0  0  0  0  0  0  0  0  0  0  0
   33.5380   30.3780   35.2340 C   0  0  0  0  0  0  0  0  0  0  0  0
   32.9230   29.7260   34.6240 H   0  0  0  0  0  0  0  0  0  0  0  0
   32.9880   31.0770   36.2910 C   0  0  0  0  0  0  0  0  0  0  0  0
   31.9350   30.9730   36.5130 H   0  0  0  0  0  0  0  0  0  0  0  0
   33.7470   31.9190   37.0900 C   0  0  0  0  0  3  0  0  0  0  0  0
   35.0850   32.0070   36.7520 C   0  0  0  0  0  3  0  0  0  0  0  0
   35.6150   31.3240   35.7210 N   0  0  0  0  0  0  0  0  0  0  0  0
  1  2  2  0  0  0  0
  1  6  1  0  0  0  0
  2  3  1  0  0  0  0
  3  9  1  0  0  0  0
  3  4  2  0  0  0  0
  5  4  1  0  0  0  0
  5 21  1  0  0  0  0
  6  5  2  0  0  0  0
  7  1  1  0  0  0  0
  8  2  1  0  0  0  0
  9 14  1  0  0  0  0
 10 11  1  0  0  0  0
 10  9  2  0  0  0  0
 11 12  2  0  0  0  0
 12 13  1  0  0  0  0
 13 17  1  0  0  0  0
 14 13  2  0  0  0  0
 15 10  1  0  0  0  0
 16 11  1  0  0  0  0
 17 20  1  0  0  0  0
 17 19  1  0  0  0  0
 17 18  1  0  0  0  0
 21 22  2  0  0  0  0
 21 28  1  0  0  0  0
 22 24  1  0  0  0  0
 23 22  1  0  0  0  0
 24 25  1  0  0  0  0
 24 26  2  0  0  0  0
 27 26  1  0  0  0  0
 28 27  2  0  0  0  0
M  END
>  <minimizedAffinity>
-5.65111399

$$$$

 OpenBabel03272502243D

 28 30  0  0  0  0  0  0  0  0999 V2000
   36.2930   28.3420   33.9640 C   0  0  0  0  0  0  0  0  0  0  0  0
   36.7010   27.2440   34.7380 C   0  0  0  0  0  0  0  0  0  0  0  0
   37.5530   26.3360   34.1410 C   0  0  0  0  0  0  0  0  0  0  0  0
   37.9390   26.5560   32.8630 N   0  0  0  0  0  0  0  0  0  0  0  0
   37.5330   27.6220   32.1390 C   0  0  0  0  0  0  0  0  0  0  0  0
   36.7000   28.5170   32.7080 N   0  0  0  0  0  0  0  0  0  0  0  0
   35.6190   29.0110   34.5140 H   0  0  0  0  0  0  0  0  0  0  0  0
   36.4050   27.0620   35.7390 H   0  0  0  0  0  0  0  0  0  0  0  0
   38.0720   25.1340   34.8120 C   0  0  0  0  0  0  0  0  0  0  0  0
   38.6690   24.1030   34.1220 C   0  0  0  0  0  0  0  0  0  0  0  0
   39.1590   22.9710   34.7490 C   0  0  0  0  0  0  0  0  0  0  0  0
   39.0480   22.8660   36.0960 N   0  0  0  0  0  0  0  0  0  0  0  0
   38.4680   23.8700   36.7500 C   0  0  0  0  0  0  0  0  0  0  0  0
   37.9920   24.9700   36.1430 N   0  0  0  0  0  0  0  0  0  0  0  0
   38.7510   24.2000   33.0450 H   0  0  0  0  0  0  0  0  0  0  0  0
   39.6090   22.2130   34.1400 H   0  0  0  0  0  0  0  0  0  0  0  0
   38.3290   23.7880   38.2340 C   0  0  0  0  0  0  0  0  0  0  0  0
   39.5150   23.3280   38.7550 F   0  0  0  0  0  0  0  0  0  0  0  0
   37.9990   25.0310   38.7720 F   0  0  0  0  0  0  0  0  0  0  0  0
   37.3480   22.9160   38.5960 F   0  0  0  0  0  0  0  0  0  0  0  0
   38.0100   27.7570   30.7780 C   0  0  0  0  0  0  0  0  0  0  0  0
   37.4990   28.6530   29.8900 C   0  0  0  0  0  0  0  0  0  0  0  0
   36.6920   29.3080   30.1980 H   0  0  0  0  0  0  0  0  0  0  0  0
   38.0100   28.7200   28.6100 C   0  0  0  0  0  0  0  0  0  0  0  0
   37.6030   29.4330   27.9060 H   0  0  0  0  0  0  0  0  0  0  0  0
   39.0420   27.8960   28.1860 C   0  0  0  0  0  3  0  0  0  0  0  0
   39.5170   27.0080   29.1340 C   0  0  0  0  0  3  0  0  0  0  0  0
   39.0140   26.9480   30.3810 N   0  0  0  0  0  0  0  0  0  0  0  0
  1  7  1  0  0  0  0
  1  2  1  0  0  0  0
  2  8  1  0  0  0  0
  3  2  2  0  0  0  0
  3  9  1  0  0  0  0
  4  3  1  0  0  0  0
  5  6  1  0  0  0  0
  5  4  2  0  0  0  0
  6  1  2  0  0  0  0
  9 14  1  0  0  0  0
 10 11  1  0  0  0  0
 10  9  2  0  0  0  0
 11 12  2  0  0  0  0
 12 13  1  0  0  0  0
 13 17  1  0  0  0  0
 14 13  2  0  0  0  0
 15 10  1  0  0  0  0
 16 11  1  0  0  0  0
 17 20  1  0  0  0  0
 17 18  1  0  0  0  0
 17 19  1  0  0  0  0
 21  5  1  0  0  0  0
 22 23  1  0  0  0  0
 22 21  2  0  0  0  0
 24 22  1  0  0  0  0
 25 24  1  0  0  0  0
 26 24  2  0  0  0  0
 26 27  1  0  0  0  0
 27 28  2  0  0  0  0
 28 21  1  0  0  0  0
M  END
>  <minimizedAffinity>
-5.61795139

$$$$

 OpenBabel03272502243D

 28 30  0  0  0  0  0  0  0  0999 V2000
   35.9280   30.2020   31.4910 C   0  0  0  0  0  0  0  0  0  0  0  0
   36.4180   28.8870   31.5320 C   0  0  0  0  0  0  0  0  0  0  0  0
   36.3550   28.2310   32.7460 C   0  0  0  0  0  0  0  0  0  0  0  0
   35.8330   28.8850   33.8080 N   0  0  0  0  0  0  0  0  0  0  0  0
   35.3670   30.1520   33.7420 C   0  0  0  0  0  0  0  0  0  0  0  0
   35.4220   30.8070   32.5640 N   0  0  0  0  0  0  0  0  0  0  0  0
   36.0160   30.6460   30.4910 H   0  0  0  0  0  0  0  0  0  0  0  0
   36.8290   28.3640   30.7070 H   0  0  0  0  0  0  0  0  0  0  0  0
   36.8250   26.8530   32.9590 C   0  0  0  0  0  0  0  0  0  0  0  0
   37.5150   26.4750   34.0890 C   0  0  0  0  0  0  0  0  0  0  0  0
   37.9590   25.1800   34.2940 C   0  0  0  0  0  0  0  0  0  0  0  0
   37.7080   24.2420   33.3480 N   0  0  0  0  0  0  0  0  0  0  0  0
   37.0400   24.6220   32.2600 C   0  0  0  0  0  0  0  0  0  0  0  0
   36.6090   25.8780   32.0600 N   0  0  0  0  0  0  0  0  0  0  0  0
   37.7090   27.2350   34.8370 H   0  0  0  0  0  0  0  0  0  0  0  0
   38.4890   24.9670   35.2000 H   0  0  0  0  0  0  0  0  0  0  0  0
   36.7460   23.6150   31.1980 C   0  0  0  0  0  0  0  0  0  0  0  0
   37.5400   23.8900   30.1100 F   0  0  0  0  0  0  0  0  0  0  0  0
   36.9730   22.3210   31.6640 F   0  0  0  0  0  0  0  0  0  0  0  0
   35.4480   23.6790   30.7950 F   0  0  0  0  0  0  0  0  0  0  0  0
   34.8280   30.7560   34.9430 C   0  0  0  0  0  0  0  0  0  0  0  0
   35.5540   31.5560   35.7710 C   0  0  0  0  0  0  0  0  0  0  0  0
   36.5920   31.7640   35.5380 H   0  0  0  0  0  0  0  0  0  0  0  0
   34.9650   32.0940   36.8980 C   0  0  0  0  0  0  0  0  0  0  0  0
   35.5430   32.7290   37.5540 H   0  0  0  0  0  0  0  0  0  0  0  0
   33.6400   31.8470   37.2240 C   0  0  0  0  0  3  0  0  0  0  0  0
   32.9570   31.0280   36.3440 C   0  0  0  0  0  3  0  0  0  0  0  0
   33.5370   30.5060   35.2470 N   0  0  0  0  0  0  0  0  0  0  0  0
  1  2  2  0  0  0  0
  1  6  1  0  0  0  0
  2  3  1  0  0  0  0
  3  9  1  0  0  0  0
  3  4  2  0  0  0  0
  5  4  1  0  0  0  0
  5 21  1  0  0  0  0
  6  5  2  0  0  0  0
  7  1  1  0  0  0  0
  8  2  1  0  0  0  0
  9 10  1  0  0  0  0
 10 11  2  0  0  0  0
 10 15  1  0  0  0  0
 11 16  1  0  0  0  0
 12 11  1  0  0  0  0
 13 12  2  0  0  0  0
 14 13  1  0  0  0  0
 14  9  2  0  0  0  0
 17 19  1  0  0  0  0
 17 13  1  0  0  0  0
 18 17  1  0  0  0  0
 20 17  1  0  0  0  0
 21 28  2  0  0  0  0
 21 22  1  0  0  0  0
 22 24  2  0  0  0  0
 23 22  1  0  0  0  0
 24 26  1  0  0  0  0
 24 25  1  0  0  0  0
 27 26  2  0  0  0  0
 28 27  1  0  0  0  0
M  END
>  <minimizedAffinity>
-5.49040461

$$$$
