
 OpenBabel03272509573D

 45 48  0  0  0  0  0  0  0  0999 V2000
   34.3880   28.6740   48.1230 C   0  0  0  0  0  0  0  0  0  0  0  0
   33.8930   29.6640   48.1330 H   0  0  0  0  0  0  0  0  0  0  0  0
   35.2780   28.7900   47.4550 H   0  0  0  0  0  0  0  0  0  0  0  0
   33.5040   27.5930   47.6000 C   0  0  0  0  0  0  0  0  0  0  0  0
   33.6560   27.5100   46.4920 H   0  0  0  0  0  0  0  0  0  0  0  0
   33.7160   26.6220   48.0600 H   0  0  0  0  0  0  0  0  0  0  0  0
   32.0550   27.8970   47.7630 C   0  0  0  0  0  0  0  0  0  0  0  0
   31.4330   27.4560   48.9190 C   0  0  0  0  0  0  0  0  0  0  0  0
   30.1060   27.6840   49.1640 C   0  0  0  0  0  0  0  0  0  0  0  0
   29.3940   28.3470   48.2650 N   0  0  0  0  0  0  0  0  0  0  0  0
   30.0000   28.7840   47.1230 C   0  0  0  0  0  0  0  0  0  0  0  0
   31.3050   28.5720   46.8610 N   0  0  0  0  0  0  0  0  0  0  0  0
   32.0010   26.9090   49.6700 H   0  0  0  0  0  0  0  0  0  0  0  0
   29.5970   27.3580   50.0460 H   0  0  0  0  0  0  0  0  0  0  0  0
   29.1850   29.5260   46.1260 C   0  0  0  0  0  0  0  0  0  0  0  0
   29.8120   30.1980   45.5000 H   0  0  0  0  0  0  0  0  0  0  0  0
   28.5150   30.2060   46.6910 H   0  0  0  0  0  0  0  0  0  0  0  0
   28.3490   28.6190   45.3210 C   0  0  0  0  0  0  0  0  0  0  0  0
   26.9760   28.8340   45.4800 C   0  0  0  0  0  0  0  0  0  0  0  0
   26.5570   29.5800   46.1190 H   0  0  0  0  0  0  0  0  0  0  0  0
   26.1110   28.0130   44.7510 C   0  0  0  0  0  0  0  0  0  0  0  0
   25.0240   28.1370   44.8370 H   0  0  0  0  0  0  0  0  0  0  0  0
   26.5540   27.0210   43.8970 C   0  0  0  0  0  3  0  0  0  0  0  0
   27.9400   26.8690   43.7930 C   0  0  0  0  0  3  0  0  0  0  0  0
   28.7790   27.6570   44.4950 N   0  0  0  0  0  0  0  0  0  0  0  0
   34.9220   28.3380   49.3860 O   0  0  0  0  0  0  0  0  0  0  0  0
   37.2040   30.0800   51.5710 C   0  0  0  0  0  0  0  0  0  0  0  0
   37.9630   30.8020   50.6260 C   0  0  0  0  0  0  0  0  0  0  0  0
   37.6290   30.6350   49.2840 C   0  0  0  0  0  0  0  0  0  0  0  0
   36.5970   29.7860   49.0160 N   0  0  0  0  0  0  0  0  0  0  0  0
   35.8940   29.1150   49.9220 C   0  0  0  0  0  0  0  0  0  0  0  0
   36.2140   29.2730   51.2250 N   0  0  0  0  0  0  0  0  0  0  0  0
   37.5030   30.2440   52.6060 H   0  0  0  0  0  0  0  0  0  0  0  0
   38.7740   31.4680   50.8540 H   0  0  0  0  0  0  0  0  0  0  0  0
   38.8260   33.2770   49.2120 F   0  0  0  0  0  0  0  0  0  0  0  0
   38.8490   32.5050   48.1240 C   0  0  0  0  0  0  0  0  0  0  0  0
   38.2910   31.2890   48.1760 C   0  0  0  0  0  0  0  0  0  0  0  0
   38.3680   30.5640   46.9850 C   0  0  0  0  0  0  0  0  0  0  0  0
   38.9720   31.0700   45.8570 C   0  0  0  0  0  0  0  0  0  0  0  0
   39.5320   32.3300   45.8550 C   0  0  0  0  0  0  0  0  0  0  0  0
   39.4590   33.0390   47.0120 C   0  0  0  0  0  0  0  0  0  0  0  0
   37.9580   29.5640   46.8840 H   0  0  0  0  0  0  0  0  0  0  0  0
   39.0220   30.4930   44.9430 H   0  0  0  0  0  0  0  0  0  0  0  0
   40.0010   32.6980   44.9460 H   0  0  0  0  0  0  0  0  0  0  0  0
   39.8950   34.0300   47.0240 H   0  0  0  0  0  0  0  0  0  0  0  0
  1  2  1  0  0  0  0
  1 26  1  0  0  0  0
  3  1  1  0  0  0  0
  4  7  1  0  0  0  0
  4  6  1  0  0  0  0
  4  1  1  0  0  0  0
  5  4  1  0  0  0  0
  7  8  1  0  0  0  0
  8  9  2  0  0  0  0
  8 13  1  0  0  0  0
  9 14  1  0  0  0  0
 10  9  1  0  0  0  0
 11 10  2  0  0  0  0
 12 11  1  0  0  0  0
 12  7  2  0  0  0  0
 15 17  1  0  0  0  0
 15 11  1  0  0  0  0
 16 15  1  0  0  0  0
 18 19  1  0  0  0  0
 18 15  1  0  0  0  0
 19 20  1  0  0  0  0
 21 22  1  0  0  0  0
 21 19  2  0  0  0  0
 23 21  1  0  0  0  0
 24 23  2  0  0  0  0
 24 25  1  0  0  0  0
 25 18  2  0  0  0  0
 26 31  1  0  0  0  0
 27 33  1  0  0  0  0
 28 34  1  0  0  0  0
 28 27  2  0  0  0  0
 29 28  1  0  0  0  0
 30 29  2  0  0  0  0
 30 31  1  0  0  0  0
 31 32  2  0  0  0  0
 32 27  1  0  0  0  0
 36 37  1  0  0  0  0
 36 35  1  0  0  0  0
 37 29  1  0  0  0  0
 38 37  2  0  0  0  0
 39 38  1  0  0  0  0
 40 39  2  0  0  0  0
 40 41  1  0  0  0  0
 41 45  1  0  0  0  0
 41 36  2  0  0  0  0
 42 38  1  0  0  0  0
 43 39  1  0  0  0  0
 44 40  1  0  0  0  0
M  END
>  <minimizedAffinity>
-6.59502506

>  <minimizedRMSD>
0.539963722

$$$$
