
 OpenBabel03262523413D

 37 39  0  0  1  0  0  0  0  0999 V2000
   38.5220   26.4860   35.9800 C   0  0  0  0  0  0  0  0  0  0  0  0
   38.0600   27.3060   34.9550 C   0  0  0  0  0  0  0  0  0  0  0  0
   37.6300   26.8030   33.7440 C   0  0  0  0  0  0  0  0  0  0  0  0
   37.7010   25.4600   33.6500 N   0  0  0  0  0  0  0  0  0  0  0  0
   38.1390   24.6330   34.6110 C   0  0  0  0  0  0  0  0  0  0  0  0
   38.5500   25.1680   35.7830 N   0  0  0  0  0  0  0  0  0  0  0  0
   37.1620   27.6280   32.7170 N   0  0  0  0  0  0  0  0  0  0  0  0
   38.0370   27.7980   31.5880 C   0  0  0  0  0  0  0  0  0  0  0  0
   37.5250   28.6880   30.5110 C   0  0  0  0  0  0  0  0  0  0  0  0
   36.1700   29.0210   30.5410 N   0  0  0  0  0  0  0  0  0  0  0  0
   35.5710   29.2630   31.8010 C   0  0  0  0  0  0  0  0  0  0  0  0
   35.8650   28.2300   32.8470 C   0  0  2  0  0  0  0  0  0  0  0  0
   38.8650   26.8270   36.9380 H   0  0  0  0  0  0  0  0  0  0  0  0
   38.0990   28.3420   35.2420 H   0  0  0  0  0  0  0  0  0  0  0  0
   38.1830   23.5690   34.5040 H   0  0  0  0  0  0  0  0  0  0  0  0
   39.0210   28.1710   32.0030 H   0  0  0  0  0  0  0  0  0  0  0  0
   38.2670   26.7820   31.2010 H   0  0  0  0  0  0  0  0  0  0  0  0
   38.1240   29.6300   30.5320 H   0  0  0  0  0  0  0  0  0  0  0  0
   37.7630   28.2120   29.5300 H   0  0  0  0  0  0  0  0  0  0  0  0
   35.9730   29.8130   29.9130 H   0  0  0  0  0  0  0  0  0  0  0  0
   34.4930   29.3520   31.6290 H   0  0  0  0  0  0  0  0  0  0  0  0
   36.0020   30.2530   32.1410 H   0  0  0  0  0  0  0  0  0  0  0  0
   35.1210   27.4090   32.7650 H   0  0  0  0  0  0  0  0  0  0  0  0
   35.6420   28.9050   34.1730 C   0  0  0  0  0  0  0  0  0  0  0  0
   36.5950   28.8070   34.7510 H   0  0  0  0  0  0  0  0  0  0  0  0
   34.7700   28.4660   34.6660 H   0  0  0  0  0  0  0  0  0  0  0  0
   35.4820   30.3920   33.8870 C   0  0  0  0  0  0  0  0  0  0  0  0
   34.7600   30.6160   33.0980 H   0  0  0  0  0  0  0  0  0  0  0  0
   36.4710   30.8670   33.7910 H   0  0  0  0  0  0  0  0  0  0  0  0
   34.9060   31.0800   35.1100 C   0  0  0  0  0  0  0  0  0  0  0  0
   35.5630   31.9660   35.9280 C   0  0  0  0  0  0  0  0  0  0  0  0
   36.5830   32.1770   35.6570 H   0  0  0  0  0  0  0  0  0  0  0  0
   34.8750   32.4960   37.0030 C   0  0  0  0  0  0  0  0  0  0  0  0
   35.4170   33.1950   37.6370 H   0  0  0  0  0  0  0  0  0  0  0  0
   33.5470   32.1260   37.2310 C   0  0  0  0  0  3  0  0  0  0  0  0
   32.9180   31.2280   36.3810 C   0  0  0  0  0  3  0  0  0  0  0  0
   33.6110   30.7390   35.3580 N   0  0  0  0  0  0  0  0  0  0  0  0
  1 13  1  0  0  0  0
  2 14  1  0  0  0  0
  2  1  2  0  0  0  0
  3  2  1  0  0  0  0
  4  3  2  0  0  0  0
  4  5  1  0  0  0  0
  5  6  2  0  0  0  0
  6  1  1  0  0  0  0
  7 12  1  0  0  0  0
  7  3  1  0  0  0  0
  8 16  1  0  0  0  0
  8  7  1  0  0  0  0
  9 18  1  0  0  0  0
  9 10  1  0  0  0  0
  9  8  1  0  0  0  0
 10 11  1  0  0  0  0
 11 22  1  0  0  0  0
 11 12  1  0  0  0  0
 12 23  1  6  0  0  0
 12 24  1  0  0  0  0
 15  5  1  0  0  0  0
 17  8  1  0  0  0  0
 19  9  1  0  0  0  0
 20 10  1  0  0  0  0
 21 11  1  0  0  0  0
 24 26  1  0  0  0  0
 24 25  1  0  0  0  0
 27 24  1  0  0  0  0
 27 30  1  0  0  0  0
 28 27  1  0  0  0  0
 29 27  1  0  0  0  0
 30 37  2  0  0  0  0
 30 31  1  0  0  0  0
 31 33  2  0  0  0  0
 32 31  1  0  0  0  0
 33 35  1  0  0  0  0
 33 34  1  0  0  0  0
 36 35  2  0  0  0  0
 37 36  1  0  0  0  0
M  END
>  <minimizedAffinity>
-5.22825146

$$$$

 OpenBabel03262523413D

 37 39  0  0  1  0  0  0  0  0999 V2000
   37.6040   22.9480   32.3350 C   0  0  0  0  0  0  0  0  0  0  0  0
   38.1800   23.1420   33.5870 C   0  0  0  0  0  0  0  0  0  0  0  0
   37.8260   22.3900   34.6880 C   0  0  0  0  0  0  0  0  0  0  0  0
   36.8800   21.4630   34.4390 N   0  0  0  0  0  0  0  0  0  0  0  0
   36.2980   21.2410   33.2500 C   0  0  0  0  0  0  0  0  0  0  0  0
   36.6760   22.0010   32.1970 N   0  0  0  0  0  0  0  0  0  0  0  0
   38.4090   22.5840   35.9440 N   0  0  0  0  0  0  0  0  0  0  0  0
   37.5870   23.2210   36.9360 C   0  0  0  0  0  0  0  0  0  0  0  0
   38.2300   23.4270   38.2630 C   0  0  0  0  0  0  0  0  0  0  0  0
   39.4160   22.7380   38.5160 N   0  0  0  0  0  0  0  0  0  0  0  0
   40.3460   22.5980   37.4570 C   0  0  0  0  0  0  0  0  0  0  0  0
   39.7570   22.1370   36.1590 C   0  0  2  0  0  0  0  0  0  0  0  0
   37.8450   23.5050   31.4500 H   0  0  0  0  0  0  0  0  0  0  0  0
   38.9020   23.9400   33.5590 H   0  0  0  0  0  0  0  0  0  0  0  0
   35.5490   20.4950   33.0860 H   0  0  0  0  0  0  0  0  0  0  0  0
   37.2430   24.1990   36.4840 H   0  0  0  0  0  0  0  0  0  0  0  0
   36.6590   22.6160   37.0250 H   0  0  0  0  0  0  0  0  0  0  0  0
   38.4190   24.5210   38.3830 H   0  0  0  0  0  0  0  0  0  0  0  0
   37.4820   23.1710   39.0510 H   0  0  0  0  0  0  0  0  0  0  0  0
   39.8950   23.1260   39.3420 H   0  0  0  0  0  0  0  0  0  0  0  0
   41.1220   21.9080   37.8050 H   0  0  0  0  0  0  0  0  0  0  0  0
   40.7740   23.6360   37.3110 H   0  0  0  0  0  0  0  0  0  0  0  0
   39.7320   21.0260   36.1480 H   0  0  0  0  0  0  0  0  0  0  0  0
   40.7170   22.5730   35.0870 C   0  0  0  0  0  0  0  0  0  0  0  0
   40.1010   22.9270   34.2240 H   0  0  0  0  0  0  0  0  0  0  0  0
   41.3980   21.7510   34.8460 H   0  0  0  0  0  0  0  0  0  0  0  0
   41.4350   23.8070   35.6180 C   0  0  0  0  0  0  0  0  0  0  0  0
   42.5170   23.7890   35.4680 H   0  0  0  0  0  0  0  0  0  0  0  0
   41.0900   24.0350   36.6390 H   0  0  0  0  0  0  0  0  0  0  0  0
   40.9820   25.0270   34.8390 C   0  0  0  0  0  0  0  0  0  0  0  0
   39.9990   25.9100   35.2130 C   0  0  0  0  0  0  0  0  0  0  0  0
   39.5180   25.6960   36.1520 H   0  0  0  0  0  0  0  0  0  0  0  0
   39.7190   26.9700   34.3720 C   0  0  0  0  0  0  0  0  0  0  0  0
   38.9350   27.6560   34.6890 H   0  0  0  0  0  0  0  0  0  0  0  0
   40.4300   27.1190   33.1780 C   0  0  0  0  0  3  0  0  0  0  0  0
   41.4170   26.2060   32.8360 C   0  0  0  0  0  3  0  0  0  0  0  0
   41.6580   25.1990   33.6690 N   0  0  0  0  0  0  0  0  0  0  0  0
  1  2  1  0  0  0  0
  2  3  2  0  0  0  0
  3  7  1  0  0  0  0
  4  3  1  0  0  0  0
  5  4  2  0  0  0  0
  6  1  2  0  0  0  0
  6  5  1  0  0  0  0
  7 12  1  0  0  0  0
  7  8  1  0  0  0  0
  8 17  1  0  0  0  0
  8  9  1  0  0  0  0
  9 18  1  0  0  0  0
  9 10  1  0  0  0  0
  9 19  1  0  0  0  0
 10 20  1  0  0  0  0
 11 21  1  0  0  0  0
 11 10  1  0  0  0  0
 12 23  1  1  0  0  0
 12 11  1  0  0  0  0
 13  1  1  0  0  0  0
 14  2  1  0  0  0  0
 15  5  1  0  0  0  0
 16  8  1  0  0  0  0
 22 11  1  0  0  0  0
 24 27  1  0  0  0  0
 24 12  1  0  0  0  0
 25 24  1  0  0  0  0
 26 24  1  0  0  0  0
 27 29  1  0  0  0  0
 28 27  1  0  0  0  0
 30 31  1  0  0  0  0
 30 27  1  0  0  0  0
 31 32  1  0  0  0  0
 33 34  1  0  0  0  0
 33 31  2  0  0  0  0
 35 33  1  0  0  0  0
 36 35  2  0  0  0  0
 36 37  1  0  0  0  0
 37 30  2  0  0  0  0
M  END
>  <minimizedAffinity>
-5.13771963

$$$$

 OpenBabel03262523413D

 37 39  0  0  1  0  0  0  0  0999 V2000
   37.7530   21.5460   30.9690 C   0  0  0  0  0  0  0  0  0  0  0  0
   37.7420   22.9060   31.2680 C   0  0  0  0  0  0  0  0  0  0  0  0
   36.6060   23.5580   31.7000 C   0  0  0  0  0  0  0  0  0  0  0  0
   35.5220   22.7640   31.8030 N   0  0  0  0  0  0  0  0  0  0  0  0
   35.4860   21.4520   31.5260 C   0  0  0  0  0  0  0  0  0  0  0  0
   36.6230   20.8520   31.1050 N   0  0  0  0  0  0  0  0  0  0  0  0
   36.5990   24.9230   32.0050 N   0  0  0  0  0  0  0  0  0  0  0  0
   35.9360   25.7820   31.0620 C   0  0  0  0  0  0  0  0  0  0  0  0
   35.9490   27.2320   31.3990 C   0  0  0  0  0  0  0  0  0  0  0  0
   36.3160   27.5870   32.6970 N   0  0  0  0  0  0  0  0  0  0  0  0
   37.3570   26.8560   33.3200 C   0  0  0  0  0  0  0  0  0  0  0  0
   37.2310   25.3670   33.2160 C   0  0  2  0  0  0  0  0  0  0  0  0
   38.6080   20.9940   30.6300 H   0  0  0  0  0  0  0  0  0  0  0  0
   38.7120   23.3440   31.1050 H   0  0  0  0  0  0  0  0  0  0  0  0
   34.6070   20.8490   31.6180 H   0  0  0  0  0  0  0  0  0  0  0  0
   36.4190   25.5840   30.0580 H   0  0  0  0  0  0  0  0  0  0  0  0
   34.8990   25.4000   30.9490 H   0  0  0  0  0  0  0  0  0  0  0  0
   36.6350   27.7430   30.6820 H   0  0  0  0  0  0  0  0  0  0  0  0
   34.9350   27.6440   31.1780 H   0  0  0  0  0  0  0  0  0  0  0  0
   36.5220   28.5940   32.7570 H   0  0  0  0  0  0  0  0  0  0  0  0
   37.3870   27.1770   34.3670 H   0  0  0  0  0  0  0  0  0  0  0  0
   38.2980   27.1780   32.7790 H   0  0  0  0  0  0  0  0  0  0  0  0
   36.6070   24.9970   34.0570 H   0  0  0  0  0  0  0  0  0  0  0  0
   38.6170   24.8160   33.4120 C   0  0  0  0  0  0  0  0  0  0  0  0
   39.2110   25.1070   32.5100 H   0  0  0  0  0  0  0  0  0  0  0  0
   38.5620   23.7380   33.5860 H   0  0  0  0  0  0  0  0  0  0  0  0
   39.2310   25.5790   34.5780 C   0  0  0  0  0  0  0  0  0  0  0  0
   38.7600   26.5460   34.7720 H   0  0  0  0  0  0  0  0  0  0  0  0
   40.3290   25.5810   34.4920 H   0  0  0  0  0  0  0  0  0  0  0  0
   39.0040   24.8030   35.8610 C   0  0  0  0  0  0  0  0  0  0  0  0
   38.0660   25.0820   36.8250 C   0  0  0  0  0  0  0  0  0  0  0  0
   37.4430   25.9380   36.6300 H   0  0  0  0  0  0  0  0  0  0  0  0
   38.0050   24.2600   37.9340 C   0  0  0  0  0  0  0  0  0  0  0  0
   37.2530   24.5020   38.6840 H   0  0  0  0  0  0  0  0  0  0  0  0
   38.8840   23.1800   38.0500 C   0  0  0  0  0  3  0  0  0  0  0  0
   39.8170   22.9310   37.0550 C   0  0  0  0  0  3  0  0  0  0  0  0
   39.8470   23.7420   36.0030 N   0  0  0  0  0  0  0  0  0  0  0  0
  1  6  2  0  0  0  0
  1  2  1  0  0  0  0
  2  3  2  0  0  0  0
  3  4  1  0  0  0  0
  3  7  1  0  0  0  0
  5 15  1  0  0  0  0
  5  4  2  0  0  0  0
  6  5  1  0  0  0  0
  7 12  1  0  0  0  0
  8  9  1  0  0  0  0
  8  7  1  0  0  0  0
  9 10  1  0  0  0  0
 10 20  1  0  0  0  0
 10 11  1  0  0  0  0
 11 21  1  0  0  0  0
 12 11  1  0  0  0  0
 12 24  1  0  0  0  0
 12 23  1  1  0  0  0
 13  1  1  0  0  0  0
 14  2  1  0  0  0  0
 16  8  1  0  0  0  0
 17  8  1  0  0  0  0
 18  9  1  0  0  0  0
 19  9  1  0  0  0  0
 22 11  1  0  0  0  0
 24 26  1  0  0  0  0
 24 27  1  0  0  0  0
 25 24  1  0  0  0  0
 27 28  1  0  0  0  0
 27 30  1  0  0  0  0
 29 27  1  0  0  0  0
 30 37  2  0  0  0  0
 30 31  1  0  0  0  0
 31 33  2  0  0  0  0
 32 31  1  0  0  0  0
 33 35  1  0  0  0  0
 33 34  1  0  0  0  0
 36 35  2  0  0  0  0
 37 36  1  0  0  0  0
M  END
>  <minimizedAffinity>
-5.06943226

$$$$

 OpenBabel03262523413D

 37 39  0  0  1  0  0  0  0  0999 V2000
   37.2360   27.1490   33.5130 C   0  0  0  0  0  0  0  0  0  0  0  0
   37.1130   25.7750   33.3270 C   0  0  0  0  0  0  0  0  0  0  0  0
   37.1090   25.1960   32.0750 C   0  0  0  0  0  0  0  0  0  0  0  0
   37.2320   26.0770   31.0620 N   0  0  0  0  0  0  0  0  0  0  0  0
   37.3530   27.4070   31.1940 C   0  0  0  0  0  0  0  0  0  0  0  0
   37.3530   27.9320   32.4400 N   0  0  0  0  0  0  0  0  0  0  0  0
   36.9900   23.8150   31.8910 N   0  0  0  0  0  0  0  0  0  0  0  0
   35.7270   23.3460   31.3890 C   0  0  0  0  0  0  0  0  0  0  0  0
   35.6180   21.8730   31.2090 C   0  0  0  0  0  0  0  0  0  0  0  0
   36.7990   21.1310   31.2470 N   0  0  0  0  0  0  0  0  0  0  0  0
   37.7960   21.5110   32.1780 C   0  0  0  0  0  0  0  0  0  0  0  0
   38.1140   22.9750   32.1980 C   0  0  2  0  0  0  0  0  0  0  0  0
   37.2450   27.6460   34.4640 H   0  0  0  0  0  0  0  0  0  0  0  0
   37.0170   25.2650   34.2710 H   0  0  0  0  0  0  0  0  0  0  0  0
   37.4490   28.0790   30.3680 H   0  0  0  0  0  0  0  0  0  0  0  0
   34.9380   23.7390   32.0970 H   0  0  0  0  0  0  0  0  0  0  0  0
   35.5360   23.8860   30.4360 H   0  0  0  0  0  0  0  0  0  0  0  0
   34.9260   21.4840   31.9960 H   0  0  0  0  0  0  0  0  0  0  0  0
   35.0960   21.6820   30.2410 H   0  0  0  0  0  0  0  0  0  0  0  0
   36.5970   20.1270   31.3540 H   0  0  0  0  0  0  0  0  0  0  0  0
   38.6870   20.9180   31.9490 H   0  0  0  0  0  0  0  0  0  0  0  0
   37.3740   21.2190   33.1880 H   0  0  0  0  0  0  0  0  0  0  0  0
   38.8910   23.1870   31.4340 H   0  0  0  0  0  0  0  0  0  0  0  0
   38.7240   23.2510   33.5450 C   0  0  0  0  0  0  0  0  0  0  0  0
   38.3600   24.2590   33.8660 H   0  0  0  0  0  0  0  0  0  0  0  0
   39.8120   23.1660   33.4800 H   0  0  0  0  0  0  0  0  0  0  0  0
   38.1040   22.2570   34.5190 C   0  0  0  0  0  0  0  0  0  0  0  0
   38.4340   21.2260   34.3690 H   0  0  0  0  0  0  0  0  0  0  0  0
   37.0150   22.4150   34.5790 H   0  0  0  0  0  0  0  0  0  0  0  0
   38.5600   22.5830   35.9280 C   0  0  0  0  0  0  0  0  0  0  0  0
   39.8170   22.3770   36.4430 C   0  0  0  0  0  0  0  0  0  0  0  0
   40.5300   21.9430   35.7640 H   0  0  0  0  0  0  0  0  0  0  0  0
   40.0510   22.7370   37.7570 C   0  0  0  0  0  0  0  0  0  0  0  0
   41.0540   22.5650   38.1420 H   0  0  0  0  0  0  0  0  0  0  0  0
   39.0210   23.2940   38.5210 C   0  0  0  0  0  3  0  0  0  0  0  0
   37.7660   23.4860   37.9640 C   0  0  0  0  0  3  0  0  0  0  0  0
   37.5770   23.1270   36.6980 N   0  0  0  0  0  0  0  0  0  0  0  0
  1 13  1  0  0  0  0
  2  1  1  0  0  0  0
  2 14  1  0  0  0  0
  3  2  2  0  0  0  0
  4  5  2  0  0  0  0
  4  3  1  0  0  0  0
  5  6  1  0  0  0  0
  6  1  2  0  0  0  0
  7  3  1  0  0  0  0
  7 12  1  0  0  0  0
  8  7  1  0  0  0  0
  8 16  1  0  0  0  0
  9 10  1  0  0  0  0
  9  8  1  0  0  0  0
  9 18  1  0  0  0  0
 10 20  1  0  0  0  0
 10 11  1  0  0  0  0
 11 12  1  0  0  0  0
 11 22  1  0  0  0  0
 12 23  1  6  0  0  0
 12 24  1  0  0  0  0
 15  5  1  0  0  0  0
 17  8  1  0  0  0  0
 19  9  1  0  0  0  0
 21 11  1  0  0  0  0
 24 25  1  0  0  0  0
 24 27  1  0  0  0  0
 26 24  1  0  0  0  0
 27 29  1  0  0  0  0
 27 30  1  0  0  0  0
 28 27  1  0  0  0  0
 30 31  2  0  0  0  0
 30 37  1  0  0  0  0
 31 33  1  0  0  0  0
 32 31  1  0  0  0  0
 33 34  1  0  0  0  0
 33 35  2  0  0  0  0
 36 35  1  0  0  0  0
 37 36  2  0  0  0  0
M  END
>  <minimizedAffinity>
-5.04051256

$$$$

 OpenBabel03262523413D

 37 39  0  0  1  0  0  0  0  0999 V2000
   37.2410   25.7880   33.0050 C   0  0  0  0  0  0  0  0  0  0  0  0
   37.1570   27.1070   32.5670 C   0  0  0  0  0  0  0  0  0  0  0  0
   36.4310   27.4690   31.4520 C   0  0  0  0  0  0  0  0  0  0  0  0
   35.8200   26.4380   30.8340 N   0  0  0  0  0  0  0  0  0  0  0  0
   35.8740   25.1550   31.2200 C   0  0  0  0  0  0  0  0  0  0  0  0
   36.5970   24.8440   32.3200 N   0  0  0  0  0  0  0  0  0  0  0  0
   36.3430   28.7950   31.0160 N   0  0  0  0  0  0  0  0  0  0  0  0
   37.0840   29.1250   29.8290 C   0  0  0  0  0  0  0  0  0  0  0  0
   36.9860   30.5440   29.3880 C   0  0  0  0  0  0  0  0  0  0  0  0
   35.9820   31.3270   29.9590 N   0  0  0  0  0  0  0  0  0  0  0  0
   35.6940   31.1450   31.3330 C   0  0  0  0  0  0  0  0  0  0  0  0
   35.5300   29.7170   31.7590 C   0  0  2  0  0  0  0  0  0  0  0  0
   37.7920   25.4560   33.8640 H   0  0  0  0  0  0  0  0  0  0  0  0
   37.7290   27.7610   33.2020 H   0  0  0  0  0  0  0  0  0  0  0  0
   35.3770   24.3590   30.7070 H   0  0  0  0  0  0  0  0  0  0  0  0
   38.1560   28.8260   30.0300 H   0  0  0  0  0  0  0  0  0  0  0  0
   36.7470   28.4280   29.0320 H   0  0  0  0  0  0  0  0  0  0  0  0
   37.9720   31.0300   29.5830 H   0  0  0  0  0  0  0  0  0  0  0  0
   36.8700   30.5510   28.2780 H   0  0  0  0  0  0  0  0  0  0  0  0
   36.1480   32.3260   29.7740 H   0  0  0  0  0  0  0  0  0  0  0  0
   34.7910   31.7260   31.5480 H   0  0  0  0  0  0  0  0  0  0  0  0
   36.5860   31.5830   31.8750 H   0  0  0  0  0  0  0  0  0  0  0  0
   34.4740   29.4120   31.6020 H   0  0  0  0  0  0  0  0  0  0  0  0
   35.7880   29.6920   33.2410 C   0  0  0  0  0  0  0  0  0  0  0  0
   36.1460   30.7120   33.5250 H   0  0  0  0  0  0  0  0  0  0  0  0
   36.4900   28.8870   33.4770 H   0  0  0  0  0  0  0  0  0  0  0  0
   34.4340   29.5220   33.9180 C   0  0  0  0  0  0  0  0  0  0  0  0
   34.2840   28.5380   34.3670 H   0  0  0  0  0  0  0  0  0  0  0  0
   33.6320   29.8820   33.2540 H   0  0  0  0  0  0  0  0  0  0  0  0
   34.3380   30.4760   35.0930 C   0  0  0  0  0  0  0  0  0  0  0  0
   35.3390   31.2890   35.5640 C   0  0  0  0  0  0  0  0  0  0  0  0
   36.2730   31.2280   35.0330 H   0  0  0  0  0  0  0  0  0  0  0  0
   35.0680   32.0960   36.6530 C   0  0  0  0  0  0  0  0  0  0  0  0
   35.8770   32.7320   37.0070 H   0  0  0  0  0  0  0  0  0  0  0  0
   33.8010   32.0690   37.2420 C   0  0  0  0  0  3  0  0  0  0  0  0
   32.8160   31.2330   36.7370 C   0  0  0  0  0  3  0  0  0  0  0  0
   33.1130   30.4710   35.6890 N   0  0  0  0  0  0  0  0  0  0  0  0
  1 13  1  0  0  0  0
  2  1  1  0  0  0  0
  2 14  1  0  0  0  0
  3  2  2  0  0  0  0
  4  5  2  0  0  0  0
  4  3  1  0  0  0  0
  5  6  1  0  0  0  0
  6  1  2  0  0  0  0
  7  3  1  0  0  0  0
  7 12  1  0  0  0  0
  8 16  1  0  0  0  0
  8  7  1  0  0  0  0
  9 18  1  0  0  0  0
  9  8  1  0  0  0  0
  9 10  1  0  0  0  0
 10 11  1  0  0  0  0
 11 21  1  0  0  0  0
 11 12  1  0  0  0  0
 11 22  1  0  0  0  0
 12 23  1  6  0  0  0
 12 24  1  0  0  0  0
 15  5  1  0  0  0  0
 17  8  1  0  0  0  0
 19  9  1  0  0  0  0
 20 10  1  0  0  0  0
 24 26  1  0  0  0  0
 24 25  1  0  0  0  0
 24 27  1  0  0  0  0
 27 28  1  0  0  0  0
 27 30  1  0  0  0  0
 29 27  1  0  0  0  0
 30 31  2  0  0  0  0
 30 37  1  0  0  0  0
 31 33  1  0  0  0  0
 32 31  1  0  0  0  0
 33 34  1  0  0  0  0
 33 35  2  0  0  0  0
 36 35  1  0  0  0  0
 37 36  2  0  0  0  0
M  END
>  <minimizedAffinity>
-5.02920151

$$$$

 OpenBabel03262523413D

 37 39  0  0  1  0  0  0  0  0999 V2000
   39.9900   22.6350   37.3600 C   0  0  0  0  0  0  0  0  0  0  0  0
   39.3610   22.3030   36.1630 C   0  0  0  0  0  0  0  0  0  0  0  0
   38.0290   22.5720   35.9290 C   0  0  0  0  0  0  0  0  0  0  0  0
   37.4020   23.1790   36.9570 N   0  0  0  0  0  0  0  0  0  0  0  0
   37.9670   23.5170   38.1260 C   0  0  0  0  0  0  0  0  0  0  0  0
   39.2770   23.2350   38.3120 N   0  0  0  0  0  0  0  0  0  0  0  0
   37.4000   22.2410   34.7250 N   0  0  0  0  0  0  0  0  0  0  0  0
   36.4890   21.1300   34.7670 C   0  0  0  0  0  0  0  0  0  0  0  0
   35.8380   20.7880   33.4720 C   0  0  0  0  0  0  0  0  0  0  0  0
   35.9260   21.7230   32.4410 N   0  0  0  0  0  0  0  0  0  0  0  0
   37.1400   22.4360   32.2880 C   0  0  0  0  0  0  0  0  0  0  0  0
   37.6910   23.0200   33.5540 C   0  0  2  0  0  0  0  0  0  0  0  0
   41.0210   22.4480   37.5890 H   0  0  0  0  0  0  0  0  0  0  0  0
   40.0470   21.8170   35.4890 H   0  0  0  0  0  0  0  0  0  0  0  0
   37.4410   23.9990   38.9230 H   0  0  0  0  0  0  0  0  0  0  0  0
   37.0730   20.2560   35.1820 H   0  0  0  0  0  0  0  0  0  0  0  0
   35.7360   21.3580   35.5520 H   0  0  0  0  0  0  0  0  0  0  0  0
   36.2740   19.8230   33.1170 H   0  0  0  0  0  0  0  0  0  0  0  0
   34.7630   20.5660   33.6760 H   0  0  0  0  0  0  0  0  0  0  0  0
   35.6620   21.3010   31.5400 H   0  0  0  0  0  0  0  0  0  0  0  0
   36.9580   23.2170   31.5420 H   0  0  0  0  0  0  0  0  0  0  0  0
   37.8750   21.6720   31.8930 H   0  0  0  0  0  0  0  0  0  0  0  0
   37.2410   24.0230   33.7160 H   0  0  0  0  0  0  0  0  0  0  0  0
   39.1620   23.2230   33.3130 C   0  0  0  0  0  0  0  0  0  0  0  0
   39.4530   22.5320   32.4840 H   0  0  0  0  0  0  0  0  0  0  0  0
   39.7120   23.0650   34.2450 H   0  0  0  0  0  0  0  0  0  0  0  0
   39.3240   24.6320   32.7560 C   0  0  0  0  0  0  0  0  0  0  0  0
   38.6920   24.8420   31.8910 H   0  0  0  0  0  0  0  0  0  0  0  0
   40.3930   24.8740   32.6480 H   0  0  0  0  0  0  0  0  0  0  0  0
   38.8640   25.6380   33.7940 C   0  0  0  0  0  0  0  0  0  0  0  0
   39.4480   25.8710   35.0150 C   0  0  0  0  0  0  0  0  0  0  0  0
   40.3140   25.2700   35.2360 H   0  0  0  0  0  0  0  0  0  0  0  0
   38.8880   26.8320   35.8350 C   0  0  0  0  0  0  0  0  0  0  0  0
   39.3680   26.9980   36.7970 H   0  0  0  0  0  0  0  0  0  0  0  0
   37.7570   27.5350   35.4110 C   0  0  0  0  0  3  0  0  0  0  0  0
   37.1970   27.2710   34.1700 C   0  0  0  0  0  3  0  0  0  0  0  0
   37.7620   26.3400   33.4090 N   0  0  0  0  0  0  0  0  0  0  0  0
  1 13  1  0  0  0  0
  1  6  1  0  0  0  0
  2  1  2  0  0  0  0
  3  2  1  0  0  0  0
  3  4  2  0  0  0  0
  4  5  1  0  0  0  0
  5  6  2  0  0  0  0
  5 15  1  0  0  0  0
  7  8  1  0  0  0  0
  7  3  1  0  0  0  0
  8 16  1  0  0  0  0
  8 17  1  0  0  0  0
  9 19  1  0  0  0  0
  9  8  1  0  0  0  0
 10  9  1  0  0  0  0
 11 10  1  0  0  0  0
 11 12  1  0  0  0  0
 12 23  1  1  0  0  0
 12  7  1  0  0  0  0
 14  2  1  0  0  0  0
 18  9  1  0  0  0  0
 20 10  1  0  0  0  0
 21 11  1  0  0  0  0
 22 11  1  0  0  0  0
 24 12  1  0  0  0  0
 24 26  1  0  0  0  0
 25 24  1  0  0  0  0
 27 24  1  0  0  0  0
 27 30  1  0  0  0  0
 28 27  1  0  0  0  0
 29 27  1  0  0  0  0
 30 31  1  0  0  0  0
 31 32  1  0  0  0  0
 31 33  2  0  0  0  0
 33 34  1  0  0  0  0
 35 33  1  0  0  0  0
 36 35  2  0  0  0  0
 37 30  2  0  0  0  0
 37 36  1  0  0  0  0
M  END
>  <minimizedAffinity>
-5.01041889

$$$$

 OpenBabel03262523413D

 37 39  0  0  1  0  0  0  0  0999 V2000
   40.2860   25.5720   32.2980 C   0  0  0  0  0  0  0  0  0  0  0  0
   40.1080   24.6590   33.3340 C   0  0  0  0  0  0  0  0  0  0  0  0
   40.4790   24.9340   34.6330 C   0  0  0  0  0  0  0  0  0  0  0  0
   41.0230   26.1560   34.8020 N   0  0  0  0  0  0  0  0  0  0  0  0
   41.2130   27.0670   33.8350 C   0  0  0  0  0  0  0  0  0  0  0  0
   40.8340   26.7550   32.5750 N   0  0  0  0  0  0  0  0  0  0  0  0
   40.2960   24.0180   35.6730 N   0  0  0  0  0  0  0  0  0  0  0  0
   41.4810   23.3720   36.1680 C   0  0  0  0  0  0  0  0  0  0  0  0
   41.2630   22.3920   37.2680 C   0  0  0  0  0  0  0  0  0  0  0  0
   40.0240   22.4080   37.9070 N   0  0  0  0  0  0  0  0  0  0  0  0
   38.8690   22.6340   37.1190 C   0  0  0  0  0  0  0  0  0  0  0  0
   38.9680   23.7920   36.1730 C   0  0  2  0  0  0  0  0  0  0  0  0
   40.0140   25.4050   31.2740 H   0  0  0  0  0  0  0  0  0  0  0  0
   39.6670   23.7460   32.9710 H   0  0  0  0  0  0  0  0  0  0  0  0
   41.6480   28.0290   34.0030 H   0  0  0  0  0  0  0  0  0  0  0  0
   41.9780   22.8900   35.2740 H   0  0  0  0  0  0  0  0  0  0  0  0
   42.1840   24.1760   36.4750 H   0  0  0  0  0  0  0  0  0  0  0  0
   41.4370   21.3700   36.8520 H   0  0  0  0  0  0  0  0  0  0  0  0
   42.0690   22.5410   38.0250 H   0  0  0  0  0  0  0  0  0  0  0  0
   39.8910   21.5560   38.4700 H   0  0  0  0  0  0  0  0  0  0  0  0
   38.0310   22.7640   37.8130 H   0  0  0  0  0  0  0  0  0  0  0  0
   38.7410   21.6850   36.5160 H   0  0  0  0  0  0  0  0  0  0  0  0
   38.6630   24.7200   36.7030 H   0  0  0  0  0  0  0  0  0  0  0  0
   37.9510   23.5380   35.0940 C   0  0  0  0  0  0  0  0  0  0  0  0
   38.3990   23.8960   34.1350 H   0  0  0  0  0  0  0  0  0  0  0  0
   37.0070   24.0220   35.3590 H   0  0  0  0  0  0  0  0  0  0  0  0
   37.8280   22.0260   34.9560 C   0  0  0  0  0  0  0  0  0  0  0  0
   37.3590   21.5390   35.8140 H   0  0  0  0  0  0  0  0  0  0  0  0
   38.7860   21.5980   34.6180 H   0  0  0  0  0  0  0  0  0  0  0  0
   36.8990   21.7010   33.8020 C   0  0  0  0  0  0  0  0  0  0  0  0
   35.9000   20.7590   33.8040 C   0  0  0  0  0  0  0  0  0  0  0  0
   35.7820   20.2110   34.7230 H   0  0  0  0  0  0  0  0  0  0  0  0
   35.1490   20.6000   32.6540 C   0  0  0  0  0  0  0  0  0  0  0  0
   34.3630   19.8470   32.6810 H   0  0  0  0  0  0  0  0  0  0  0  0
   35.4190   21.3870   31.5320 C   0  0  0  0  0  3  0  0  0  0  0  0
   36.4370   22.3280   31.5700 C   0  0  0  0  0  3  0  0  0  0  0  0
   37.1380   22.4540   32.6920 N   0  0  0  0  0  0  0  0  0  0  0  0
  1  6  2  0  0  0  0
  1  2  1  0  0  0  0
  2  3  2  0  0  0  0
  3  4  1  0  0  0  0
  3  7  1  0  0  0  0
  5 15  1  0  0  0  0
  5  4  2  0  0  0  0
  6  5  1  0  0  0  0
  7  8  1  0  0  0  0
  7 12  1  0  0  0  0
  8 17  1  0  0  0  0
  8  9  1  0  0  0  0
  9 10  1  0  0  0  0
  9 19  1  0  0  0  0
 10 20  1  0  0  0  0
 11 21  1  0  0  0  0
 11 10  1  0  0  0  0
 12 23  1  1  0  0  0
 12 11  1  0  0  0  0
 13  1  1  0  0  0  0
 14  2  1  0  0  0  0
 16  8  1  0  0  0  0
 18  9  1  0  0  0  0
 22 11  1  0  0  0  0
 24 26  1  0  0  0  0
 24 12  1  0  0  0  0
 25 24  1  0  0  0  0
 27 24  1  0  0  0  0
 27 28  1  0  0  0  0
 29 27  1  0  0  0  0
 30 31  1  0  0  0  0
 30 27  1  0  0  0  0
 31 32  1  0  0  0  0
 33 34  1  0  0  0  0
 33 31  2  0  0  0  0
 35 36  2  0  0  0  0
 35 33  1  0  0  0  0
 36 37  1  0  0  0  0
 37 30  2  0  0  0  0
M  END
>  <minimizedAffinity>
-4.91292191

$$$$

 OpenBabel03262523413D

 37 39  0  0  1  0  0  0  0  0999 V2000
   41.2150   25.3500   32.5120 C   0  0  0  0  0  0  0  0  0  0  0  0
   40.7290   24.5440   33.5370 C   0  0  0  0  0  0  0  0  0  0  0  0
   41.2560   24.5710   34.8110 C   0  0  0  0  0  0  0  0  0  0  0  0
   42.2740   25.4410   34.9660 N   0  0  0  0  0  0  0  0  0  0  0  0
   42.7740   26.2360   34.0080 C   0  0  0  0  0  0  0  0  0  0  0  0
   42.2270   26.1770   32.7730 N   0  0  0  0  0  0  0  0  0  0  0  0
   40.7630   23.7640   35.8410 N   0  0  0  0  0  0  0  0  0  0  0  0
   41.5910   22.6560   36.2330 C   0  0  0  0  0  0  0  0  0  0  0  0
   41.0440   21.8030   37.3240 C   0  0  0  0  0  0  0  0  0  0  0  0
   39.9660   22.3060   38.0540 N   0  0  0  0  0  0  0  0  0  0  0  0
   38.9720   23.0360   37.3590 C   0  0  0  0  0  0  0  0  0  0  0  0
   39.4960   24.0920   36.4340 C   0  0  2  0  0  0  0  0  0  0  0  0
   40.8390   25.3650   31.5070 H   0  0  0  0  0  0  0  0  0  0  0  0
   39.9230   23.9200   33.1880 H   0  0  0  0  0  0  0  0  0  0  0  0
   43.5850   26.9160   34.1640 H   0  0  0  0  0  0  0  0  0  0  0  0
   41.7840   22.0570   35.2940 H   0  0  0  0  0  0  0  0  0  0  0  0
   42.5840   23.0740   36.5040 H   0  0  0  0  0  0  0  0  0  0  0  0
   40.7450   20.8250   36.8740 H   0  0  0  0  0  0  0  0  0  0  0  0
   41.8800   21.5610   38.0230 H   0  0  0  0  0  0  0  0  0  0  0  0
   39.5190   21.5610   38.6070 H   0  0  0  0  0  0  0  0  0  0  0  0
   38.3090   23.4700   38.1160 H   0  0  0  0  0  0  0  0  0  0  0  0
   38.4200   22.2600   36.7460 H   0  0  0  0  0  0  0  0  0  0  0  0
   39.6430   25.0330   37.0050 H   0  0  0  0  0  0  0  0  0  0  0  0
   38.4060   24.3440   35.4280 C   0  0  0  0  0  0  0  0  0  0  0  0
   37.6430   23.5390   35.5680 H   0  0  0  0  0  0  0  0  0  0  0  0
   38.8360   24.3870   34.4230 H   0  0  0  0  0  0  0  0  0  0  0  0
   37.7220   25.6410   35.8400 C   0  0  0  0  0  0  0  0  0  0  0  0
   38.3810   26.3470   36.3510 H   0  0  0  0  0  0  0  0  0  0  0  0
   36.7650   25.4210   36.3400 H   0  0  0  0  0  0  0  0  0  0  0  0
   37.2780   26.3910   34.5990 C   0  0  0  0  0  0  0  0  0  0  0  0
   36.8370   27.6910   34.5500 C   0  0  0  0  0  0  0  0  0  0  0  0
   36.8120   28.2070   35.4940 H   0  0  0  0  0  0  0  0  0  0  0  0
   36.4710   28.2110   33.3230 C   0  0  0  0  0  0  0  0  0  0  0  0
   36.1250   29.2430   33.3100 H   0  0  0  0  0  0  0  0  0  0  0  0
   36.5580   27.4170   32.1760 C   0  0  0  0  0  3  0  0  0  0  0  0
   37.0090   26.1090   32.2670 C   0  0  0  0  0  3  0  0  0  0  0  0
   37.3510   25.6420   33.4640 N   0  0  0  0  0  0  0  0  0  0  0  0
  1  6  2  0  0  0  0
  1  2  1  0  0  0  0
  2  3  2  0  0  0  0
  3  4  1  0  0  0  0
  3  7  1  0  0  0  0
  5 15  1  0  0  0  0
  5  4  2  0  0  0  0
  6  5  1  0  0  0  0
  7  8  1  0  0  0  0
  7 12  1  0  0  0  0
  8 17  1  0  0  0  0
  8  9  1  0  0  0  0
  9 19  1  0  0  0  0
  9 10  1  0  0  0  0
 10 20  1  0  0  0  0
 11 10  1  0  0  0  0
 11 21  1  0  0  0  0
 12 23  1  1  0  0  0
 12 11  1  0  0  0  0
 13  1  1  0  0  0  0
 14  2  1  0  0  0  0
 16  8  1  0  0  0  0
 18  9  1  0  0  0  0
 22 11  1  0  0  0  0
 24 25  1  0  0  0  0
 24 27  1  0  0  0  0
 24 12  1  0  0  0  0
 26 24  1  0  0  0  0
 27 29  1  0  0  0  0
 27 28  1  0  0  0  0
 30 27  1  0  0  0  0
 31 30  1  0  0  0  0
 31 32  1  0  0  0  0
 33 31  2  0  0  0  0
 34 33  1  0  0  0  0
 35 36  2  0  0  0  0
 35 33  1  0  0  0  0
 36 37  1  0  0  0  0
 37 30  2  0  0  0  0
M  END
>  <minimizedAffinity>
-4.88518047

$$$$

 OpenBabel03262523413D

 37 39  0  0  1  0  0  0  0  0999 V2000
   38.4340   26.9020   36.0980 C   0  0  0  0  0  0  0  0  0  0  0  0
   38.0810   27.5480   34.9170 C   0  0  0  0  0  0  0  0  0  0  0  0
   37.6750   26.8610   33.7920 C   0  0  0  0  0  0  0  0  0  0  0  0
   37.6540   25.5220   33.9430 N   0  0  0  0  0  0  0  0  0  0  0  0
   37.9860   24.8570   35.0610 C   0  0  0  0  0  0  0  0  0  0  0  0
   38.3780   25.5710   36.1410 N   0  0  0  0  0  0  0  0  0  0  0  0
   37.3150   27.5120   32.6080 N   0  0  0  0  0  0  0  0  0  0  0  0
   38.2520   27.4200   31.5220 C   0  0  0  0  0  0  0  0  0  0  0  0
   37.8560   28.1290   30.2740 C   0  0  0  0  0  0  0  0  0  0  0  0
   36.5290   28.5450   30.1640 N   0  0  0  0  0  0  0  0  0  0  0  0
   35.8890   29.0480   31.3230 C   0  0  0  0  0  0  0  0  0  0  0  0
   36.0590   28.2070   32.5520 C   0  0  2  0  0  0  0  0  0  0  0  0
   38.7560   27.3900   36.9980 H   0  0  0  0  0  0  0  0  0  0  0  0
   38.1810   28.6160   35.0170 H   0  0  0  0  0  0  0  0  0  0  0  0
   37.9590   23.7920   35.1480 H   0  0  0  0  0  0  0  0  0  0  0  0
   39.2390   27.8010   31.9200 H   0  0  0  0  0  0  0  0  0  0  0  0
   38.4280   26.3390   31.3360 H   0  0  0  0  0  0  0  0  0  0  0  0
   38.5200   29.0210   30.1630 H   0  0  0  0  0  0  0  0  0  0  0  0
   38.1060   27.4690   29.4100 H   0  0  0  0  0  0  0  0  0  0  0  0
   36.4190   29.2190   29.3940 H   0  0  0  0  0  0  0  0  0  0  0  0
   34.8300   29.1700   31.0740 H   0  0  0  0  0  0  0  0  0  0  0  0
   36.3730   30.0550   31.5050 H   0  0  0  0  0  0  0  0  0  0  0  0
   35.2630   27.4320   32.5740 H   0  0  0  0  0  0  0  0  0  0  0  0
   35.8230   29.1240   33.7210 C   0  0  0  0  0  0  0  0  0  0  0  0
   36.7430   29.7490   33.8340 H   0  0  0  0  0  0  0  0  0  0  0  0
   35.5690   28.5330   34.6060 H   0  0  0  0  0  0  0  0  0  0  0  0
   34.7160   30.0840   33.3070 C   0  0  0  0  0  0  0  0  0  0  0  0
   34.5040   30.0810   32.2360 H   0  0  0  0  0  0  0  0  0  0  0  0
   34.8800   31.0720   33.7680 H   0  0  0  0  0  0  0  0  0  0  0  0
   33.4080   29.6440   33.9360 C   0  0  0  0  0  0  0  0  0  0  0  0
   33.0640   29.7590   35.2610 C   0  0  0  0  0  0  0  0  0  0  0  0
   33.8090   30.2080   35.8950 H   0  0  0  0  0  0  0  0  0  0  0  0
   31.8220   29.3000   35.6560 C   0  0  0  0  0  0  0  0  0  0  0  0
   31.5720   29.4020   36.7110 H   0  0  0  0  0  0  0  0  0  0  0  0
   30.9550   28.7370   34.7150 C   0  0  0  0  0  3  0  0  0  0  0  0
   31.3390   28.6390   33.3860 C   0  0  0  0  0  3  0  0  0  0  0  0
   32.5410   29.0910   33.0420 N   0  0  0  0  0  0  0  0  0  0  0  0
  1  6  1  0  0  0  0
  1 13  1  0  0  0  0
  2 14  1  0  0  0  0
  2  1  2  0  0  0  0
  3  4  2  0  0  0  0
  3  2  1  0  0  0  0
  4  5  1  0  0  0  0
  5 15  1  0  0  0  0
  5  6  2  0  0  0  0
  7  3  1  0  0  0  0
  8 16  1  0  0  0  0
  8  7  1  0  0  0  0
  9  8  1  0  0  0  0
 10  9  1  0  0  0  0
 10 11  1  0  0  0  0
 11 22  1  0  0  0  0
 11 12  1  0  0  0  0
 12 23  1  1  0  0  0
 12  7  1  0  0  0  0
 12 24  1  0  0  0  0
 17  8  1  0  0  0  0
 18  9  1  0  0  0  0
 19  9  1  0  0  0  0
 20 10  1  0  0  0  0
 21 11  1  0  0  0  0
 24 25  1  0  0  0  0
 24 26  1  0  0  0  0
 27 24  1  0  0  0  0
 27 29  1  0  0  0  0
 27 30  1  0  0  0  0
 28 27  1  0  0  0  0
 30 31  1  0  0  0  0
 31 33  2  0  0  0  0
 31 32  1  0  0  0  0
 33 34  1  0  0  0  0
 35 33  1  0  0  0  0
 36 35  2  0  0  0  0
 37 36  1  0  0  0  0
 37 30  2  0  0  0  0
M  END
>  <minimizedAffinity>
-4.86179972

$$$$
