
 OpenBabel03262522243D

 34 36  0  0  0  0  0  0  0  0999 V2000
   40.0540   31.5030   44.1950 C   0  0  0  0  0  0  0  0  0  0  0  0
   39.2370   31.8460   45.2720 C   0  0  0  0  0  0  0  0  0  0  0  0
   37.9510   32.3200   45.0000 C   0  0  0  0  0  0  0  0  0  0  0  0
   37.5760   32.4160   43.7040 N   0  0  0  0  0  0  0  0  0  0  0  0
   38.3780   32.0820   42.7170 C   0  0  0  0  0  0  0  0  0  0  0  0
   39.6670   31.6050   42.9200 N   0  0  0  0  0  0  0  0  0  0  0  0
   41.0680   31.1260   44.3020 H   0  0  0  0  0  0  0  0  0  0  0  0
   37.3420   32.5770   45.8300 H   0  0  0  0  0  0  0  0  0  0  0  0
   39.7850   31.6820   46.5110 O   0  0  0  0  0  0  0  0  0  0  0  0
   38.9420   31.8680   47.6270 C   0  0  0  0  0  0  0  0  0  0  0  0
   38.8090   32.9910   48.4150 C   0  0  0  0  0  0  0  0  0  0  0  0
   37.9450   32.9740   49.4450 C   0  0  0  0  0  0  0  0  0  0  0  0
   37.2140   31.8400   49.6910 C   0  0  0  0  0  0  0  0  0  0  0  0
   37.3520   30.7050   48.8900 C   0  0  0  0  0  0  0  0  0  0  0  0
   38.2300   30.7690   47.8700 N   0  0  0  0  0  0  0  0  0  0  0  0
   39.4570   33.8080   48.0930 H   0  0  0  0  0  0  0  0  0  0  0  0
   37.8750   33.8740   50.0330 H   0  0  0  0  0  0  0  0  0  0  0  0
   36.5210   31.8370   50.5220 H   0  0  0  0  0  0  0  0  0  0  0  0
   36.5410   29.4720   49.1780 C   0  0  0  0  0  0  0  0  0  0  0  0
   36.9950   28.6430   48.6220 H   0  0  0  0  0  0  0  0  0  0  0  0
   36.6260   29.3330   50.2790 H   0  0  0  0  0  0  0  0  0  0  0  0
   35.4700   29.6430   48.9610 H   0  0  0  0  0  0  0  0  0  0  0  0
   37.6010   32.3190   41.0960 S   0  0  0  0  0  0  0  0  0  0  0  0
   37.0060   34.0470   41.1260 C   0  0  0  0  0  0  0  0  0  0  0  0
   37.2550   34.4460   40.1050 H   0  0  0  0  0  0  0  0  0  0  0  0
   37.6000   34.6420   41.8420 H   0  0  0  0  0  0  0  0  0  0  0  0
   35.5480   34.1170   41.3230 C   0  0  0  0  0  0  0  0  0  0  0  0
   34.8270   35.2640   41.5270 C   0  0  0  0  0  0  0  0  0  0  0  0
   35.3650   36.2030   41.5480 H   0  0  0  0  0  0  0  0  0  0  0  0
   33.4810   35.0960   41.6870 C   0  0  0  0  0  0  0  0  0  0  0  0
   32.8740   35.9930   41.8530 H   0  0  0  0  0  0  0  0  0  0  0  0
   32.8420   33.8870   41.6540 C   0  0  0  0  0  0  0  0  0  0  0  0
   33.6260   32.7560   41.4420 C   0  0  0  0  0  0  0  0  0  0  0  0
   34.9620   32.9100   41.2830 N   0  0  0  0  0  0  0  0  0  0  0  0
  1  7  1  0  0  0  0
  1  2  1  0  0  0  0
  2  9  1  0  0  0  0
  3  2  2  0  0  0  0
  3  8  1  0  0  0  0
  4  3  1  0  0  0  0
  5  6  1  0  0  0  0
  5  4  2  0  0  0  0
  6  1  2  0  0  0  0
  9 10  1  0  0  0  0
 10 15  2  0  0  0  0
 10 11  1  0  0  0  0
 11 12  2  0  0  0  0
 12 13  1  0  0  0  0
 12 17  1  0  0  0  0
 13 18  1  0  0  0  0
 14 19  1  0  0  0  0
 14 13  2  0  0  0  0
 15 14  1  0  0  0  0
 16 11  1  0  0  0  0
 19 21  1  0  0  0  0
 20 19  1  0  0  0  0
 22 19  1  0  0  0  0
 23 24  1  0  0  0  0
 23  5  1  0  0  0  0
 24 27  1  0  0  0  0
 24 26  1  0  0  0  0
 25 24  1  0  0  0  0
 27 28  1  0  0  0  0
 28 29  1  0  0  0  0
 28 30  2  0  0  0  0
 30 31  1  0  0  0  0
 32 30  1  0  0  0  0
 33 32  2  0  0  0  0
 34 27  2  0  0  0  0
 34 33  1  0  0  0  0
M  END
>  <minimizedAffinity>
-5.21103954

>  <minimizedRMSD>
8.36472702

$$$$
