
 OpenBabel03272509573D

 45 48  0  0  0  0  0  0  0  0999 V2000
   34.2790   28.7240   48.0890 C   0  0  0  0  0  0  0  0  0  0  0  0
   33.7780   29.7060   48.1930 H   0  0  0  0  0  0  0  0  0  0  0  0
   35.1330   28.8960   47.3870 H   0  0  0  0  0  0  0  0  0  0  0  0
   33.3760   27.6740   47.5350 C   0  0  0  0  0  0  0  0  0  0  0  0
   33.4610   27.6810   46.4160 H   0  0  0  0  0  0  0  0  0  0  0  0
   33.6280   26.6730   47.9020 H   0  0  0  0  0  0  0  0  0  0  0  0
   31.9380   27.9390   47.8100 C   0  0  0  0  0  0  0  0  0  0  0  0
   31.4260   27.5130   49.0240 C   0  0  0  0  0  0  0  0  0  0  0  0
   30.1170   27.7090   49.3720 C   0  0  0  0  0  0  0  0  0  0  0  0
   29.3130   28.3250   48.5190 N   0  0  0  0  0  0  0  0  0  0  0  0
   29.8100   28.7480   47.3200 C   0  0  0  0  0  0  0  0  0  0  0  0
   31.0950   28.5670   46.9560 N   0  0  0  0  0  0  0  0  0  0  0  0
   32.0710   27.0040   49.7390 H   0  0  0  0  0  0  0  0  0  0  0  0
   29.6930   27.3920   50.3010 H   0  0  0  0  0  0  0  0  0  0  0  0
   28.8920   29.4380   46.3750 C   0  0  0  0  0  0  0  0  0  0  0  0
   29.2650   30.4500   46.1060 H   0  0  0  0  0  0  0  0  0  0  0  0
   27.9410   29.6180   46.9160 H   0  0  0  0  0  0  0  0  0  0  0  0
   28.6020   28.6090   45.1940 C   0  0  0  0  0  0  0  0  0  0  0  0
   27.6360   27.6240   45.4240 C   0  0  0  0  0  0  0  0  0  0  0  0
   27.1460   27.4740   46.3610 H   0  0  0  0  0  0  0  0  0  0  0  0
   27.3020   26.7910   44.3520 C   0  0  0  0  0  0  0  0  0  0  0  0
   26.5500   26.0020   44.4760 H   0  0  0  0  0  0  0  0  0  0  0  0
   27.8790   26.9040   43.1020 C   0  0  0  0  0  3  0  0  0  0  0  0
   28.8360   27.9130   42.9510 C   0  0  0  0  0  3  0  0  0  0  0  0
   29.1620   28.7190   43.9820 N   0  0  0  0  0  0  0  0  0  0  0  0
   34.8780   28.3060   49.2960 O   0  0  0  0  0  0  0  0  0  0  0  0
   37.1250   30.0160   51.5420 C   0  0  0  0  0  0  0  0  0  0  0  0
   37.8990   30.7510   50.6190 C   0  0  0  0  0  0  0  0  0  0  0  0
   37.5870   30.6030   49.2700 C   0  0  0  0  0  0  0  0  0  0  0  0
   36.5590   29.7580   48.9740 N   0  0  0  0  0  0  0  0  0  0  0  0
   35.8420   29.0750   49.8590 C   0  0  0  0  0  0  0  0  0  0  0  0
   36.1400   29.2150   51.1690 N   0  0  0  0  0  0  0  0  0  0  0  0
   37.4070   30.1660   52.5850 H   0  0  0  0  0  0  0  0  0  0  0  0
   38.7070   31.4140   50.8700 H   0  0  0  0  0  0  0  0  0  0  0  0
   38.8010   33.2380   49.2600 F   0  0  0  0  0  0  0  0  0  0  0  0
   38.8320   32.4850   48.1590 C   0  0  0  0  0  0  0  0  0  0  0  0
   38.2670   31.2720   48.1830 C   0  0  0  0  0  0  0  0  0  0  0  0
   38.3550   30.5670   46.9800 C   0  0  0  0  0  0  0  0  0  0  0  0
   38.9760   31.0890   45.8690 C   0  0  0  0  0  0  0  0  0  0  0  0
   39.5440   32.3450   45.8960 C   0  0  0  0  0  0  0  0  0  0  0  0
   39.4600   33.0350   47.0640 C   0  0  0  0  0  0  0  0  0  0  0  0
   37.9410   29.5710   46.8570 H   0  0  0  0  0  0  0  0  0  0  0  0
   39.0350   30.5280   44.9460 H   0  0  0  0  0  0  0  0  0  0  0  0
   40.0260   32.7260   44.9990 H   0  0  0  0  0  0  0  0  0  0  0  0
   39.9020   34.0220   47.0990 H   0  0  0  0  0  0  0  0  0  0  0  0
  1  2  1  0  0  0  0
  1 26  1  0  0  0  0
  3  1  1  0  0  0  0
  4  7  1  0  0  0  0
  4  6  1  0  0  0  0
  4  1  1  0  0  0  0
  5  4  1  0  0  0  0
  7  8  1  0  0  0  0
  8  9  2  0  0  0  0
  8 13  1  0  0  0  0
  9 14  1  0  0  0  0
 10  9  1  0  0  0  0
 11 10  2  0  0  0  0
 12 11  1  0  0  0  0
 12  7  2  0  0  0  0
 15 17  1  0  0  0  0
 15 11  1  0  0  0  0
 16 15  1  0  0  0  0
 18 19  1  0  0  0  0
 18 15  1  0  0  0  0
 19 20  1  0  0  0  0
 21 22  1  0  0  0  0
 21 19  2  0  0  0  0
 23 21  1  0  0  0  0
 24 23  2  0  0  0  0
 24 25  1  0  0  0  0
 25 18  2  0  0  0  0
 26 31  1  0  0  0  0
 27 33  1  0  0  0  0
 28 34  1  0  0  0  0
 28 27  2  0  0  0  0
 29 28  1  0  0  0  0
 30 29  2  0  0  0  0
 30 31  1  0  0  0  0
 31 32  2  0  0  0  0
 32 27  1  0  0  0  0
 36 37  1  0  0  0  0
 36 35  1  0  0  0  0
 37 29  1  0  0  0  0
 38 37  2  0  0  0  0
 39 40  2  0  0  0  0
 39 38  1  0  0  0  0
 40 41  1  0  0  0  0
 41 45  1  0  0  0  0
 41 36  2  0  0  0  0
 42 38  1  0  0  0  0
 43 39  1  0  0  0  0
 44 40  1  0  0  0  0
M  END
>  <minimizedAffinity>
-6.37665558

>  <minimizedRMSD>
0.331818372

$$$$
