
 OpenBabel03272508273D

 37 40  0  0  1  0  0  0  0  0999 V2000
   32.3940   28.8600   47.0460 C   0  0  2  0  0  0  0  0  0  0  0  0
   33.2990   27.7280   47.5050 C   0  0  2  0  0  0  0  0  0  0  0  0
   32.6050   27.0830   48.4890 O   0  0  0  0  0  0  0  0  0  0  0  0
   31.2690   27.2830   48.3460 C   0  0  0  0  0  0  0  0  0  0  0  0
   31.0440   28.1410   47.1230 C   0  0  1  0  0  0  0  0  0  0  0  0
   32.3690   29.6930   47.7570 H   0  0  0  0  0  0  0  0  0  0  0  0
   33.4570   27.0350   46.6620 H   0  0  0  0  0  0  0  0  0  0  0  0
   30.8060   26.2860   48.0850 H   0  0  0  0  0  0  0  0  0  0  0  0
   30.7300   27.6220   49.2410 H   0  0  0  0  0  0  0  0  0  0  0  0
   30.9600   27.5600   46.1860 H   0  0  0  0  0  0  0  0  0  0  0  0
   34.5920   29.6320   48.6880 C   0  0  1  0  0  0  0  0  0  0  0  0
   34.5550   28.3500   48.0260 C   0  0  1  0  0  0  0  0  0  0  0  0
   34.8850   28.3500   49.4830 C   0  0  0  0  0  0  0  0  0  0  0  0
   33.7530   30.2000   49.1250 H   0  0  0  0  0  0  0  0  0  0  0  0
   35.4380   28.1050   47.3680 H   0  0  0  0  0  0  0  0  0  0  0  0
   34.1290   28.0380   50.2240 H   0  0  0  0  0  0  0  0  0  0  0  0
   35.9260   28.1600   49.8170 H   0  0  0  0  0  0  0  0  0  0  0  0
   35.8160   30.5310   48.5970 C   0  0  0  0  0  0  0  0  0  0  0  0
   36.1640   31.2690   49.7270 C   0  0  0  0  0  0  0  0  0  0  0  0
   37.2690   32.0850   49.5820 C   0  0  0  0  0  0  0  0  0  0  0  0
   37.9550   32.1450   48.4000 N   0  0  0  0  0  0  0  0  0  0  0  0
   37.5810   31.4090   47.3210 C   0  0  0  0  0  0  0  0  0  0  0  0
   36.4970   30.5970   47.4390 N   0  0  0  0  0  0  0  0  0  0  0  0
   35.6270   31.2260   50.6630 H   0  0  0  0  0  0  0  0  0  0  0  0
   37.6180   32.7000   50.4130 H   0  0  0  0  0  0  0  0  0  0  0  0
   38.1530   31.4880   46.4070 H   0  0  0  0  0  0  0  0  0  0  0  0
   32.6610   29.3080   45.7670 O   0  0  0  0  0  0  0  0  0  0  0  0
   32.5060   28.5240   45.1580 H   0  0  0  0  0  0  0  0  0  0  0  0
   29.9990   29.0160   47.2220 O   0  0  0  0  0  0  0  0  0  0  0  0
   28.7910   28.8550   47.8630 C   0  0  0  0  0  0  0  0  0  0  0  0
   27.8910   28.0470   47.2240 C   0  0  0  0  0  0  0  0  0  0  0  0
   28.1120   27.5600   46.2650 H   0  0  0  0  0  0  0  0  0  0  0  0
   26.6280   27.7510   47.6860 C   0  0  0  0  0  0  0  0  0  0  0  0
   25.9220   27.1140   47.1780 H   0  0  0  0  0  0  0  0  0  0  0  0
   26.2450   28.3170   48.8930 C   0  0  0  0  0  0  0  0  0  0  0  0
   27.1620   29.1310   49.5290 C   0  0  0  0  0  0  0  0  0  0  0  0
   28.3940   29.3970   49.0410 N   0  0  0  0  0  0  0  0  0  0  0  0
  1  5  1  0  0  0  0
  1  2  1  0  0  0  0
  1  6  1  1  0  0  0
  2  7  1  6  0  0  0
  2 12  1  0  0  0  0
  2  3  1  0  0  0  0
  4  3  1  0  0  0  0
  4  9  1  0  0  0  0
  5 10  1  6  0  0  0
  5 29  1  0  0  0  0
  5  4  1  0  0  0  0
  8  4  1  0  0  0  0
 11 14  1  1  0  0  0
 11 13  1  0  0  0  0
 12 15  1  6  0  0  0
 12 11  1  0  0  0  0
 12 13  1  0  0  0  0
 13 17  1  0  0  0  0
 13 16  1  0  0  0  0
 18 11  1  0  0  0  0
 18 19  1  0  0  0  0
 19 24  1  0  0  0  0
 20 19  2  0  0  0  0
 20 25  1  0  0  0  0
 21 20  1  0  0  0  0
 22 23  1  0  0  0  0
 22 21  2  0  0  0  0
 23 18  2  0  0  0  0
 26 22  1  0  0  0  0
 27  1  1  0  0  0  0
 28 27  1  0  0  0  0
 29 30  1  0  0  0  0
 30 37  1  0  0  0  0
 31 33  1  0  0  0  0
 31 30  2  0  0  0  0
 32 31  1  0  0  0  0
 33 35  2  0  0  0  0
 34 33  1  0  0  0  0
 35 36  1  0  0  0  0
 37 36  2  0  0  0  0
M  END
>  <minimizedAffinity>
-5.77511072

>  <minimizedRMSD>
2.808357

$$$$
