
 OpenBabel03272508293D

 37 40  0  0  1  0  0  0  0  0999 V2000
   35.3000   25.4150   31.1090 C   0  0  2  0  0  0  0  0  0  0  0  0
   36.4610   26.3970   31.1120 C   0  0  2  0  0  0  0  0  0  0  0  0
   37.3550   25.9040   32.0190 O   0  0  0  0  0  0  0  0  0  0  0  0
   37.1950   24.5630   32.1710 C   0  0  0  0  0  0  0  0  0  0  0  0
   36.0850   24.1080   31.2530 C   0  0  1  0  0  0  0  0  0  0  0  0
   34.6610   25.5180   31.9930 H   0  0  0  0  0  0  0  0  0  0  0  0
   36.9270   26.4000   30.1120 H   0  0  0  0  0  0  0  0  0  0  0  0
   38.1250   24.0660   31.7650 H   0  0  0  0  0  0  0  0  0  0  0  0
   37.1050   24.1980   33.2030 H   0  0  0  0  0  0  0  0  0  0  0  0
   36.4330   23.8550   30.2330 H   0  0  0  0  0  0  0  0  0  0  0  0
   36.1900   28.3250   32.8160 C   0  0  1  0  0  0  0  0  0  0  0  0
   35.9160   27.7240   31.5320 C   0  0  1  0  0  0  0  0  0  0  0  0
   36.7640   28.9550   31.5380 C   0  0  0  0  0  0  0  0  0  0  0  0
   36.9860   28.0670   33.5360 H   0  0  0  0  0  0  0  0  0  0  0  0
   34.8830   27.8960   31.1140 H   0  0  0  0  0  0  0  0  0  0  0  0
   37.8550   28.8790   31.3890 H   0  0  0  0  0  0  0  0  0  0  0  0
   36.3440   29.9200   31.1870 H   0  0  0  0  0  0  0  0  0  0  0  0
   35.1780   29.2400   33.4890 C   0  0  0  0  0  0  0  0  0  0  0  0
   35.6190   30.0210   34.5560 C   0  0  0  0  0  0  0  0  0  0  0  0
   34.6550   30.8160   35.1450 C   0  0  0  0  0  0  0  0  0  0  0  0
   33.3640   30.8160   34.6920 N   0  0  0  0  0  0  0  0  0  0  0  0
   32.9750   30.0370   33.6480 C   0  0  0  0  0  0  0  0  0  0  0  0
   33.9060   29.2480   33.0510 N   0  0  0  0  0  0  0  0  0  0  0  0
   36.6360   30.0260   34.9190 H   0  0  0  0  0  0  0  0  0  0  0  0
   34.9060   31.4620   35.9870 H   0  0  0  0  0  0  0  0  0  0  0  0
   31.9440   30.0700   33.3240 H   0  0  0  0  0  0  0  0  0  0  0  0
   34.5510   25.4360   29.9500 O   0  0  0  0  0  0  0  0  0  0  0  0
   35.1760   25.1750   29.2080 H   0  0  0  0  0  0  0  0  0  0  0  0
   35.3130   23.0940   31.7460 O   0  0  0  0  0  0  0  0  0  0  0  0
   35.5530   21.7390   31.7360 C   0  0  0  0  0  0  0  0  0  0  0  0
   35.2970   21.0890   32.9110 C   0  0  0  0  0  0  0  0  0  0  0  0
   34.9240   21.6080   33.8040 H   0  0  0  0  0  0  0  0  0  0  0  0
   35.4680   19.7380   33.1210 C   0  0  0  0  0  0  0  0  0  0  0  0
   35.2640   19.2300   34.0500 H   0  0  0  0  0  0  0  0  0  0  0  0
   35.9360   18.9840   32.0560 C   0  0  0  0  0  3  0  0  0  0  0  0
   36.1930   19.6520   30.8730 C   0  0  0  0  0  3  0  0  0  0  0  0
   36.0110   20.9810   30.7080 N   0  0  0  0  0  0  0  0  0  0  0  0
  1  2  1  0  0  0  0
  1  5  1  0  0  0  0
  1  6  1  1  0  0  0
  2  7  1  6  0  0  0
  2 12  1  0  0  0  0
  2  3  1  0  0  0  0
  3  4  1  0  0  0  0
  4  9  1  0  0  0  0
  5 10  1  6  0  0  0
  5 29  1  0  0  0  0
  5  4  1  0  0  0  0
  8  4  1  0  0  0  0
 11 18  1  0  0  0  0
 11 14  1  1  0  0  0
 12 15  1  6  0  0  0
 12 13  1  0  0  0  0
 12 11  1  0  0  0  0
 13 11  1  0  0  0  0
 16 13  1  0  0  0  0
 17 13  1  0  0  0  0
 18 19  1  0  0  0  0
 19 24  1  0  0  0  0
 19 20  2  0  0  0  0
 20 25  1  0  0  0  0
 21 20  1  0  0  0  0
 22 21  2  0  0  0  0
 23 18  2  0  0  0  0
 23 22  1  0  0  0  0
 26 22  1  0  0  0  0
 27  1  1  0  0  0  0
 28 27  1  0  0  0  0
 30 29  1  0  0  0  0
 30 31  1  0  0  0  0
 31 33  2  0  0  0  0
 31 32  1  0  0  0  0
 33 34  1  0  0  0  0
 35 33  1  0  0  0  0
 36 35  2  0  0  0  0
 37 36  1  0  0  0  0
 37 30  2  0  0  0  0
M  END
>  <minimizedAffinity>
-5.57066393

$$$$

 OpenBabel03272508293D

 37 40  0  0  1  0  0  0  0  0999 V2000
   38.1180   23.8880   34.1840 C   0  0  2  0  0  0  0  0  0  0  0  0
   38.9570   24.7940   35.0700 C   0  0  2  0  0  0  0  0  0  0  0  0
   38.6080   24.4770   36.3520 O   0  0  0  0  0  0  0  0  0  0  0  0
   38.1170   23.2120   36.4170 C   0  0  0  0  0  0  0  0  0  0  0  0
   38.1580   22.6120   35.0300 C   0  0  1  0  0  0  0  0  0  0  0  0
   37.0730   24.2120   34.1200 H   0  0  0  0  0  0  0  0  0  0  0  0
   40.0230   24.5540   34.9170 H   0  0  0  0  0  0  0  0  0  0  0  0
   38.8510   22.5960   37.0160 H   0  0  0  0  0  0  0  0  0  0  0  0
   37.1550   23.0900   36.9320 H   0  0  0  0  0  0  0  0  0  0  0  0
   39.1210   22.1240   34.7900 H   0  0  0  0  0  0  0  0  0  0  0  0
   37.2790   26.7580   34.9290 C   0  0  1  0  0  0  0  0  0  0  0  0
   38.5960   26.2040   34.7280 C   0  0  1  0  0  0  0  0  0  0  0  0
   38.4570   27.2560   35.7800 C   0  0  0  0  0  0  0  0  0  0  0  0
   36.4600   26.3660   35.5560 H   0  0  0  0  0  0  0  0  0  0  0  0
   39.1500   26.5600   33.8120 H   0  0  0  0  0  0  0  0  0  0  0  0
   38.4550   26.9770   36.8480 H   0  0  0  0  0  0  0  0  0  0  0  0
   38.8480   28.2790   35.5980 H   0  0  0  0  0  0  0  0  0  0  0  0
   36.7370   27.8530   34.0220 C   0  0  0  0  0  0  0  0  0  0  0  0
   37.1080   27.8250   32.6780 C   0  0  0  0  0  0  0  0  0  0  0  0
   36.6070   28.8550   31.9050 C   0  0  0  0  0  0  0  0  0  0  0  0
   35.8050   29.8220   32.4480 N   0  0  0  0  0  0  0  0  0  0  0  0
   35.4680   29.8130   33.7640 C   0  0  0  0  0  0  0  0  0  0  0  0
   35.9480   28.8090   34.5450 N   0  0  0  0  0  0  0  0  0  0  0  0
   37.7390   27.0650   32.2440 H   0  0  0  0  0  0  0  0  0  0  0  0
   36.8410   28.9160   30.8420 H   0  0  0  0  0  0  0  0  0  0  0  0
   34.8320   30.5980   34.1490 H   0  0  0  0  0  0  0  0  0  0  0  0
   38.6510   23.6830   32.9270 O   0  0  0  0  0  0  0  0  0  0  0  0
   39.5400   23.2360   33.0690 H   0  0  0  0  0  0  0  0  0  0  0  0
   37.1230   21.7680   34.7400 O   0  0  0  0  0  0  0  0  0  0  0  0
   36.8290   21.1340   33.5540 C   0  0  0  0  0  0  0  0  0  0  0  0
   35.5240   20.7590   33.3970 C   0  0  0  0  0  0  0  0  0  0  0  0
   34.7590   20.9480   34.1620 H   0  0  0  0  0  0  0  0  0  0  0  0
   35.0150   20.1130   32.2920 C   0  0  0  0  0  0  0  0  0  0  0  0
   33.9840   19.8190   32.1730 H   0  0  0  0  0  0  0  0  0  0  0  0
   35.8970   19.8250   31.2620 C   0  0  0  0  0  3  0  0  0  0  0  0
   37.2140   20.2090   31.4320 C   0  0  0  0  0  3  0  0  0  0  0  0
   37.6740   20.8410   32.5340 N   0  0  0  0  0  0  0  0  0  0  0  0
  1  6  1  6  0  0  0
  1  5  1  0  0  0  0
  1  2  1  0  0  0  0
  2  7  1  6  0  0  0
  2  3  1  0  0  0  0
  3  4  1  0  0  0  0
  4  9  1  0  0  0  0
  4  8  1  0  0  0  0
  5 10  1  6  0  0  0
  5  4  1  0  0  0  0
 11 14  1  1  0  0  0
 11 13  1  0  0  0  0
 12 15  1  6  0  0  0
 12 11  1  0  0  0  0
 12  2  1  0  0  0  0
 12 13  1  0  0  0  0
 13 16  1  0  0  0  0
 17 13  1  0  0  0  0
 18 23  1  0  0  0  0
 18 11  1  0  0  0  0
 19 18  2  0  0  0  0
 20 21  2  0  0  0  0
 20 19  1  0  0  0  0
 21 22  1  0  0  0  0
 22 26  1  0  0  0  0
 22 23  2  0  0  0  0
 24 19  1  0  0  0  0
 25 20  1  0  0  0  0
 27 28  1  0  0  0  0
 27  1  1  0  0  0  0
 29  5  1  0  0  0  0
 30 29  1  0  0  0  0
 31 30  1  0  0  0  0
 31 32  1  0  0  0  0
 33 31  2  0  0  0  0
 34 33  1  0  0  0  0
 35 36  2  0  0  0  0
 35 33  1  0  0  0  0
 36 37  1  0  0  0  0
 37 30  2  0  0  0  0
M  END
>  <minimizedAffinity>
-5.37979317

$$$$

 OpenBabel03272508293D

 37 40  0  0  1  0  0  0  0  0999 V2000
   37.0260   25.6270   33.0890 C   0  0  2  0  0  0  0  0  0  0  0  0
   37.5710   27.0040   32.7440 C   0  0  2  0  0  0  0  0  0  0  0  0
   38.3220   27.3800   33.8220 O   0  0  0  0  0  0  0  0  0  0  0  0
   38.7530   26.2920   34.5120 C   0  0  0  0  0  0  0  0  0  0  0  0
   38.2500   25.0520   33.8090 C   0  0  1  0  0  0  0  0  0  0  0  0
   36.2050   25.6700   33.8130 H   0  0  0  0  0  0  0  0  0  0  0  0
   38.2270   26.9160   31.8620 H   0  0  0  0  0  0  0  0  0  0  0  0
   39.8760   26.2470   34.4010 H   0  0  0  0  0  0  0  0  0  0  0  0
   38.5720   26.3000   35.5950 H   0  0  0  0  0  0  0  0  0  0  0  0
   38.9260   24.6940   33.0090 H   0  0  0  0  0  0  0  0  0  0  0  0
   36.0660   28.9920   33.4320 C   0  0  1  0  0  0  0  0  0  0  0  0
   36.3970   27.9060   32.5410 C   0  0  1  0  0  0  0  0  0  0  0  0
   36.5550   29.2930   32.0070 C   0  0  0  0  0  0  0  0  0  0  0  0
   36.7050   29.4720   34.1930 H   0  0  0  0  0  0  0  0  0  0  0  0
   35.5250   27.3510   32.0900 H   0  0  0  0  0  0  0  0  0  0  0  0
   37.5600   29.7380   31.9080 H   0  0  0  0  0  0  0  0  0  0  0  0
   35.8280   29.6910   31.2700 H   0  0  0  0  0  0  0  0  0  0  0  0
   34.6240   29.4320   33.6370 C   0  0  0  0  0  0  0  0  0  0  0  0
   34.3510   30.2860   34.7040 C   0  0  0  0  0  0  0  0  0  0  0  0
   33.0230   30.6350   34.8570 C   0  0  0  0  0  0  0  0  0  0  0  0
   32.0630   30.1600   34.0060 N   0  0  0  0  0  0  0  0  0  0  0  0
   32.3720   29.3270   32.9770 C   0  0  0  0  0  0  0  0  0  0  0  0
   33.6720   28.9700   32.8050 N   0  0  0  0  0  0  0  0  0  0  0  0
   35.1030   30.6650   35.3790 H   0  0  0  0  0  0  0  0  0  0  0  0
   32.7130   31.3010   35.6640 H   0  0  0  0  0  0  0  0  0  0  0  0
   31.5800   28.9770   32.3290 H   0  0  0  0  0  0  0  0  0  0  0  0
   36.6780   24.8700   31.9890 O   0  0  0  0  0  0  0  0  0  0  0  0
   37.5220   24.7420   31.4590 H   0  0  0  0  0  0  0  0  0  0  0  0
   37.9220   24.0160   34.6370 O   0  0  0  0  0  0  0  0  0  0  0  0
   38.4020   23.7280   35.8950 C   0  0  0  0  0  0  0  0  0  0  0  0
   37.6230   24.1600   36.9330 C   0  0  0  0  0  0  0  0  0  0  0  0
   36.6800   24.6990   36.7790 H   0  0  0  0  0  0  0  0  0  0  0  0
   37.9140   23.9790   38.2670 C   0  0  0  0  0  0  0  0  0  0  0  0
   37.2970   24.3210   39.0820 H   0  0  0  0  0  0  0  0  0  0  0  0
   39.0870   23.3070   38.5760 C   0  0  0  0  0  3  0  0  0  0  0  0
   39.8670   22.8760   37.5180 C   0  0  0  0  0  3  0  0  0  0  0  0
   39.5450   23.0740   36.2210 N   0  0  0  0  0  0  0  0  0  0  0  0
  1  5  1  0  0  0  0
  1  6  1  1  0  0  0
  2  7  1  6  0  0  0
  2  1  1  0  0  0  0
  2  3  1  0  0  0  0
  3  4  1  0  0  0  0
  4  9  1  0  0  0  0
  5 10  1  6  0  0  0
  5  4  1  0  0  0  0
  5 29  1  0  0  0  0
  8  4  1  0  0  0  0
 11 18  1  0  0  0  0
 11 14  1  1  0  0  0
 12 15  1  6  0  0  0
 12  2  1  0  0  0  0
 12 11  1  0  0  0  0
 13 12  1  0  0  0  0
 13 11  1  0  0  0  0
 16 13  1  0  0  0  0
 17 13  1  0  0  0  0
 18 19  1  0  0  0  0
 19 20  2  0  0  0  0
 19 24  1  0  0  0  0
 20 25  1  0  0  0  0
 21 20  1  0  0  0  0
 22 21  2  0  0  0  0
 23 22  1  0  0  0  0
 23 18  2  0  0  0  0
 26 22  1  0  0  0  0
 27  1  1  0  0  0  0
 28 27  1  0  0  0  0
 29 30  1  0  0  0  0
 30 37  2  0  0  0  0
 30 31  1  0  0  0  0
 31 33  2  0  0  0  0
 32 31  1  0  0  0  0
 33 35  1  0  0  0  0
 33 34  1  0  0  0  0
 36 35  2  0  0  0  0
 37 36  1  0  0  0  0
M  END
>  <minimizedAffinity>
-5.25744295

$$$$

 OpenBabel03272508293D

 37 40  0  0  1  0  0  0  0  0999 V2000
   38.5350   25.2540   32.5560 C   0  0  2  0  0  0  0  0  0  0  0  0
   37.6040   25.6640   31.4270 C   0  0  2  0  0  0  0  0  0  0  0  0
   36.8000   26.6360   31.9510 O   0  0  0  0  0  0  0  0  0  0  0  0
   37.4070   27.2470   33.0010 C   0  0  0  0  0  0  0  0  0  0  0  0
   38.7730   26.6280   33.1890 C   0  0  1  0  0  0  0  0  0  0  0  0
   38.0390   24.6250   33.3030 H   0  0  0  0  0  0  0  0  0  0  0  0
   38.2050   26.0960   30.6090 H   0  0  0  0  0  0  0  0  0  0  0  0
   37.6160   28.3140   32.6940 H   0  0  0  0  0  0  0  0  0  0  0  0
   36.8170   27.3270   33.9240 H   0  0  0  0  0  0  0  0  0  0  0  0
   39.5610   27.1070   32.5780 H   0  0  0  0  0  0  0  0  0  0  0  0
   36.2160   23.5530   31.9860 C   0  0  1  0  0  0  0  0  0  0  0  0
   36.8260   24.4500   31.0330 C   0  0  1  0  0  0  0  0  0  0  0  0
   35.3320   24.4250   31.0810 C   0  0  0  0  0  0  0  0  0  0  0  0
   36.0050   23.7310   33.0550 H   0  0  0  0  0  0  0  0  0  0  0  0
   37.2500   23.9720   30.1040 H   0  0  0  0  0  0  0  0  0  0  0  0
   34.7780   25.2470   31.5650 H   0  0  0  0  0  0  0  0  0  0  0  0
   34.7580   23.9340   30.2680 H   0  0  0  0  0  0  0  0  0  0  0  0
   36.0480   22.0730   31.6800 C   0  0  0  0  0  0  0  0  0  0  0  0
   35.0250   21.3870   32.3320 C   0  0  0  0  0  0  0  0  0  0  0  0
   34.9320   20.0410   32.0340 C   0  0  0  0  0  0  0  0  0  0  0  0
   35.7990   19.4490   31.1560 N   0  0  0  0  0  0  0  0  0  0  0  0
   36.7840   20.1540   30.5420 C   0  0  0  0  0  0  0  0  0  0  0  0
   36.8950   21.4800   30.8180 N   0  0  0  0  0  0  0  0  0  0  0  0
   34.3380   21.8480   33.0250 H   0  0  0  0  0  0  0  0  0  0  0  0
   34.1610   19.4220   32.4950 H   0  0  0  0  0  0  0  0  0  0  0  0
   37.4460   19.6440   29.8550 H   0  0  0  0  0  0  0  0  0  0  0  0
   39.7150   24.6780   32.1300 O   0  0  0  0  0  0  0  0  0  0  0  0
   40.1860   25.3770   31.5820 H   0  0  0  0  0  0  0  0  0  0  0  0
   39.1850   26.5340   34.4890 O   0  0  0  0  0  0  0  0  0  0  0  0
   39.1620   25.4420   35.3270 C   0  0  0  0  0  0  0  0  0  0  0  0
   38.1360   25.4180   36.2310 C   0  0  0  0  0  0  0  0  0  0  0  0
   37.3800   26.2120   36.2870 H   0  0  0  0  0  0  0  0  0  0  0  0
   37.9250   24.4240   37.1590 C   0  0  0  0  0  0  0  0  0  0  0  0
   37.1130   24.4090   37.8700 H   0  0  0  0  0  0  0  0  0  0  0  0
   38.8240   23.3680   37.1760 C   0  0  0  0  0  3  0  0  0  0  0  0
   39.8570   23.4040   36.2590 C   0  0  0  0  0  3  0  0  0  0  0  0
   40.0290   24.4000   35.3620 N   0  0  0  0  0  0  0  0  0  0  0  0
  1  5  1  0  0  0  0
  1  6  1  1  0  0  0
  2  7  1  6  0  0  0
  2  3  1  0  0  0  0
  2  1  1  0  0  0  0
  3  4  1  0  0  0  0
  4  5  1  0  0  0  0
  4  9  1  0  0  0  0
  5 10  1  6  0  0  0
  5 29  1  0  0  0  0
  8  4  1  0  0  0  0
 11 14  1  1  0  0  0
 12 15  1  6  0  0  0
 12 13  1  0  0  0  0
 12  2  1  0  0  0  0
 12 11  1  0  0  0  0
 13 16  1  0  0  0  0
 13 11  1  0  0  0  0
 17 13  1  0  0  0  0
 18 11  1  0  0  0  0
 18 19  1  0  0  0  0
 19 24  1  0  0  0  0
 20 19  2  0  0  0  0
 20 25  1  0  0  0  0
 21 20  1  0  0  0  0
 22 23  1  0  0  0  0
 22 21  2  0  0  0  0
 23 18  2  0  0  0  0
 26 22  1  0  0  0  0
 27  1  1  0  0  0  0
 28 27  1  0  0  0  0
 29 30  1  0  0  0  0
 30 37  2  0  0  0  0
 30 31  1  0  0  0  0
 31 32  1  0  0  0  0
 31 33  2  0  0  0  0
 33 35  1  0  0  0  0
 33 34  1  0  0  0  0
 36 35  2  0  0  0  0
 37 36  1  0  0  0  0
M  END
>  <minimizedAffinity>
-5.23286247

$$$$

 OpenBabel03272508293D

 37 40  0  0  1  0  0  0  0  0999 V2000
   39.3690   23.8490   34.2300 C   0  0  2  0  0  0  0  0  0  0  0  0
   39.2400   24.7290   35.4630 C   0  0  2  0  0  0  0  0  0  0  0  0
   38.2440   24.1670   36.2100 O   0  0  0  0  0  0  0  0  0  0  0  0
   38.1140   22.8460   35.9230 C   0  0  0  0  0  0  0  0  0  0  0  0
   39.1470   22.4810   34.8820 C   0  0  1  0  0  0  0  0  0  0  0  0
   38.5580   24.0100   33.5110 H   0  0  0  0  0  0  0  0  0  0  0  0
   40.1840   24.6870   36.0310 H   0  0  0  0  0  0  0  0  0  0  0  0
   38.4210   22.2690   36.8440 H   0  0  0  0  0  0  0  0  0  0  0  0
   37.0990   22.4960   35.6920 H   0  0  0  0  0  0  0  0  0  0  0  0
   40.1250   22.1930   35.3130 H   0  0  0  0  0  0  0  0  0  0  0  0
   37.5170   26.5880   34.9400 C   0  0  1  0  0  0  0  0  0  0  0  0
   38.8750   26.1000   34.9900 C   0  0  1  0  0  0  0  0  0  0  0  0
   38.5100   27.1890   35.9470 C   0  0  0  0  0  0  0  0  0  0  0  0
   36.6240   26.1790   35.4430 H   0  0  0  0  0  0  0  0  0  0  0  0
   39.5570   26.4440   34.1610 H   0  0  0  0  0  0  0  0  0  0  0  0
   38.3420   26.9590   37.0120 H   0  0  0  0  0  0  0  0  0  0  0  0
   38.8770   28.2230   35.7780 H   0  0  0  0  0  0  0  0  0  0  0  0
   37.0850   27.6090   33.8980 C   0  0  0  0  0  0  0  0  0  0  0  0
   36.1010   28.5270   34.2580 C   0  0  0  0  0  0  0  0  0  0  0  0
   35.7300   29.4160   33.2680 C   0  0  0  0  0  0  0  0  0  0  0  0
   36.3050   29.3730   32.0270 N   0  0  0  0  0  0  0  0  0  0  0  0
   37.2620   28.4600   31.7160 C   0  0  0  0  0  0  0  0  0  0  0  0
   37.6440   27.5760   32.6750 N   0  0  0  0  0  0  0  0  0  0  0  0
   35.6430   28.5670   35.2350 H   0  0  0  0  0  0  0  0  0  0  0  0
   34.9680   30.1730   33.4570 H   0  0  0  0  0  0  0  0  0  0  0  0
   37.6890   28.4640   30.7220 H   0  0  0  0  0  0  0  0  0  0  0  0
   40.6010   23.9260   33.6120 O   0  0  0  0  0  0  0  0  0  0  0  0
   41.2730   23.6090   34.2880 H   0  0  0  0  0  0  0  0  0  0  0  0
   38.7430   21.5380   33.9790 O   0  0  0  0  0  0  0  0  0  0  0  0
   37.5500   21.4470   33.2980 C   0  0  0  0  0  0  0  0  0  0  0  0
   37.5960   21.8150   31.9820 C   0  0  0  0  0  0  0  0  0  0  0  0
   38.5190   22.1600   31.4970 H   0  0  0  0  0  0  0  0  0  0  0  0
   36.5220   21.8010   31.1200 C   0  0  0  0  0  0  0  0  0  0  0  0
   36.5640   22.0920   30.0820 H   0  0  0  0  0  0  0  0  0  0  0  0
   35.3030   21.3810   31.6300 C   0  0  0  0  0  3  0  0  0  0  0  0
   35.2690   21.0120   32.9620 C   0  0  0  0  0  3  0  0  0  0  0  0
   36.3470   21.0400   33.7750 N   0  0  0  0  0  0  0  0  0  0  0  0
  1  6  1  6  0  0  0
  1  5  1  0  0  0  0
  1  2  1  0  0  0  0
  2  7  1  1  0  0  0
  2  3  1  0  0  0  0
  4  3  1  0  0  0  0
  4  8  1  0  0  0  0
  5 10  1  1  0  0  0
  5  4  1  0  0  0  0
  9  4  1  0  0  0  0
 11 12  1  0  0  0  0
 11 14  1  1  0  0  0
 11 13  1  0  0  0  0
 12 15  1  6  0  0  0
 12  2  1  0  0  0  0
 12 13  1  0  0  0  0
 13 16  1  0  0  0  0
 17 13  1  0  0  0  0
 18 19  1  0  0  0  0
 18 11  1  0  0  0  0
 19 24  1  0  0  0  0
 20 25  1  0  0  0  0
 20 19  2  0  0  0  0
 21 20  1  0  0  0  0
 22 21  2  0  0  0  0
 22 23  1  0  0  0  0
 23 18  2  0  0  0  0
 26 22  1  0  0  0  0
 27  1  1  0  0  0  0
 27 28  1  0  0  0  0
 29  5  1  0  0  0  0
 30 37  1  0  0  0  0
 30 29  1  0  0  0  0
 31 30  2  0  0  0  0
 32 31  1  0  0  0  0
 33 35  2  0  0  0  0
 33 31  1  0  0  0  0
 34 33  1  0  0  0  0
 35 36  1  0  0  0  0
 36 37  2  0  0  0  0
M  END
>  <minimizedAffinity>
-5.17458057

$$$$

 OpenBabel03272508293D

 37 40  0  0  1  0  0  0  0  0999 V2000
   36.0850   27.0360   31.2170 C   0  0  2  0  0  0  0  0  0  0  0  0
   36.6260   27.8430   32.3860 C   0  0  2  0  0  0  0  0  0  0  0  0
   36.8420   26.9380   33.3860 O   0  0  0  0  0  0  0  0  0  0  0  0
   37.0280   25.6920   32.8750 C   0  0  0  0  0  0  0  0  0  0  0  0
   36.9450   25.7770   31.3690 C   0  0  1  0  0  0  0  0  0  0  0  0
   35.0390   26.7420   31.3560 H   0  0  0  0  0  0  0  0  0  0  0  0
   37.5890   28.2920   32.0920 H   0  0  0  0  0  0  0  0  0  0  0  0
   38.0990   25.4000   33.0860 H   0  0  0  0  0  0  0  0  0  0  0  0
   36.4210   24.8910   33.3160 H   0  0  0  0  0  0  0  0  0  0  0  0
   37.9120   26.0160   30.8870 H   0  0  0  0  0  0  0  0  0  0  0  0
   35.6210   29.6300   33.9650 C   0  0  1  0  0  0  0  0  0  0  0  0
   35.5770   28.8420   32.7560 C   0  0  1  0  0  0  0  0  0  0  0  0
   35.8020   30.3110   32.5990 C   0  0  0  0  0  0  0  0  0  0  0  0
   36.4820   29.8150   34.6300 H   0  0  0  0  0  0  0  0  0  0  0  0
   34.5540   28.5080   32.4180 H   0  0  0  0  0  0  0  0  0  0  0  0
   36.8080   30.6970   32.3630 H   0  0  0  0  0  0  0  0  0  0  0  0
   34.9860   30.9600   32.2180 H   0  0  0  0  0  0  0  0  0  0  0  0
   34.3440   30.0840   34.6560 C   0  0  0  0  0  0  0  0  0  0  0  0
   33.1490   29.4740   34.2790 C   0  0  0  0  0  0  0  0  0  0  0  0
   32.0190   29.9400   34.9210 C   0  0  0  0  0  0  0  0  0  0  0  0
   32.0970   30.9340   35.8590 N   0  0  0  0  0  0  0  0  0  0  0  0
   33.2830   31.5040   36.1970 C   0  0  0  0  0  0  0  0  0  0  0  0
   34.4100   31.0610   35.5790 N   0  0  0  0  0  0  0  0  0  0  0  0
   33.0810   28.6890   33.5400 H   0  0  0  0  0  0  0  0  0  0  0  0
   31.0380   29.5230   34.6930 H   0  0  0  0  0  0  0  0  0  0  0  0
   33.2960   32.2860   36.9430 H   0  0  0  0  0  0  0  0  0  0  0  0
   36.2710   27.6350   29.9870 O   0  0  0  0  0  0  0  0  0  0  0  0
   37.2650   27.7230   29.8660 H   0  0  0  0  0  0  0  0  0  0  0  0
   36.3800   24.6900   30.7640 O   0  0  0  0  0  0  0  0  0  0  0  0
   36.6530   23.3540   30.9530 C   0  0  0  0  0  0  0  0  0  0  0  0
   35.6020   22.5960   31.3890 C   0  0  0  0  0  0  0  0  0  0  0  0
   34.6060   23.0190   31.5760 H   0  0  0  0  0  0  0  0  0  0  0  0
   35.6550   21.2440   31.6420 C   0  0  0  0  0  0  0  0  0  0  0  0
   34.8230   20.6500   31.9850 H   0  0  0  0  0  0  0  0  0  0  0  0
   36.8690   20.6060   31.4370 C   0  0  0  0  0  3  0  0  0  0  0  0
   37.9250   21.3830   30.9980 C   0  0  0  0  0  3  0  0  0  0  0  0
   37.8320   22.7100   30.7610 N   0  0  0  0  0  0  0  0  0  0  0  0
  1  6  1  1  0  0  0
  1  5  1  0  0  0  0
  1  2  1  0  0  0  0
  2  7  1  6  0  0  0
  2 12  1  0  0  0  0
  2  3  1  0  0  0  0
  4  8  1  0  0  0  0
  4  9  1  0  0  0  0
  4  3  1  0  0  0  0
  5 10  1  6  0  0  0
  5  4  1  0  0  0  0
 11 14  1  1  0  0  0
 11 18  1  0  0  0  0
 12 15  1  6  0  0  0
 12 11  1  0  0  0  0
 13 12  1  0  0  0  0
 13 11  1  0  0  0  0
 16 13  1  0  0  0  0
 17 13  1  0  0  0  0
 18 23  1  0  0  0  0
 19 18  2  0  0  0  0
 19 20  1  0  0  0  0
 20 21  2  0  0  0  0
 21 22  1  0  0  0  0
 22 26  1  0  0  0  0
 23 22  2  0  0  0  0
 24 19  1  0  0  0  0
 25 20  1  0  0  0  0
 27  1  1  0  0  0  0
 28 27  1  0  0  0  0
 29 30  1  0  0  0  0
 29  5  1  0  0  0  0
 30 31  1  0  0  0  0
 31 32  1  0  0  0  0
 31 33  2  0  0  0  0
 33 34  1  0  0  0  0
 35 33  1  0  0  0  0
 36 35  2  0  0  0  0
 37 30  2  0  0  0  0
 37 36  1  0  0  0  0
M  END
>  <minimizedAffinity>
-5.15189648

$$$$

 OpenBabel03272508293D

 37 40  0  0  1  0  0  0  0  0999 V2000
   38.5940   26.9000   35.0930 C   0  0  2  0  0  0  0  0  0  0  0  0
   37.1500   26.9160   34.6170 C   0  0  2  0  0  0  0  0  0  0  0  0
   37.0450   25.8800   33.7330 O   0  0  0  0  0  0  0  0  0  0  0  0
   37.9930   24.9390   33.9800 C   0  0  0  0  0  0  0  0  0  0  0  0
   38.8100   25.3850   35.1710 C   0  0  1  0  0  0  0  0  0  0  0  0
   39.2880   27.2960   34.3430 H   0  0  0  0  0  0  0  0  0  0  0  0
   36.4900   26.7220   35.4790 H   0  0  0  0  0  0  0  0  0  0  0  0
   37.4590   24.0080   34.3330 H   0  0  0  0  0  0  0  0  0  0  0  0
   38.5920   24.6140   33.1190 H   0  0  0  0  0  0  0  0  0  0  0  0
   38.3810   25.0720   36.1410 H   0  0  0  0  0  0  0  0  0  0  0  0
   35.8540   28.4760   33.0110 C   0  0  1  0  0  0  0  0  0  0  0  0
   36.9170   28.2370   33.9580 C   0  0  1  0  0  0  0  0  0  0  0  0
   35.8140   29.1470   34.3920 C   0  0  0  0  0  0  0  0  0  0  0  0
   34.9510   27.8670   32.8270 H   0  0  0  0  0  0  0  0  0  0  0  0
   37.8880   28.7750   33.7600 H   0  0  0  0  0  0  0  0  0  0  0  0
   35.0460   28.7910   35.0990 H   0  0  0  0  0  0  0  0  0  0  0  0
   35.9890   30.2410   34.4550 H   0  0  0  0  0  0  0  0  0  0  0  0
   36.0090   29.4960   31.8930 C   0  0  0  0  0  0  0  0  0  0  0  0
   37.0620   29.3220   30.9970 C   0  0  0  0  0  0  0  0  0  0  0  0
   37.1700   30.2890   30.0160 C   0  0  0  0  0  0  0  0  0  0  0  0
   36.2890   31.3350   29.9540 N   0  0  0  0  0  0  0  0  0  0  0  0
   35.2750   31.4680   30.8490 C   0  0  0  0  0  0  0  0  0  0  0  0
   35.1480   30.5280   31.8220 N   0  0  0  0  0  0  0  0  0  0  0  0
   37.7600   28.5000   31.0410 H   0  0  0  0  0  0  0  0  0  0  0  0
   37.9630   30.2370   29.2690 H   0  0  0  0  0  0  0  0  0  0  0  0
   34.6030   32.3100   30.7600 H   0  0  0  0  0  0  0  0  0  0  0  0
   38.7880   27.5060   36.3180 O   0  0  0  0  0  0  0  0  0  0  0  0
   38.2410   26.9830   36.9790 H   0  0  0  0  0  0  0  0  0  0  0  0
   40.1330   25.0490   35.1170 O   0  0  0  0  0  0  0  0  0  0  0  0
   40.7770   23.9740   35.6860 C   0  0  0  0  0  0  0  0  0  0  0  0
   40.0360   23.2510   36.5790 C   0  0  0  0  0  0  0  0  0  0  0  0
   38.9980   23.5070   36.8280 H   0  0  0  0  0  0  0  0  0  0  0  0
   40.4830   22.1420   37.2620 C   0  0  0  0  0  0  0  0  0  0  0  0
   39.8940   21.5750   37.9650 H   0  0  0  0  0  0  0  0  0  0  0  0
   41.7850   21.7310   37.0220 C   0  0  0  0  0  3  0  0  0  0  0  0
   42.5250   22.4690   36.1180 C   0  0  0  0  0  3  0  0  0  0  0  0
   42.0490   23.5540   35.4680 N   0  0  0  0  0  0  0  0  0  0  0  0
  1  6  1  6  0  0  0
  1  5  1  0  0  0  0
  1 27  1  0  0  0  0
  2  1  1  0  0  0  0
  2  7  1  1  0  0  0
  3  4  1  0  0  0  0
  3  2  1  0  0  0  0
  4  8  1  0  0  0  0
  4  5  1  0  0  0  0
  5 10  1  1  0  0  0
  9  4  1  0  0  0  0
 11 14  1  6  0  0  0
 11 12  1  0  0  0  0
 11 13  1  0  0  0  0
 12 15  1  6  0  0  0
 12 13  1  0  0  0  0
 12  2  1  0  0  0  0
 13 17  1  0  0  0  0
 13 16  1  0  0  0  0
 18 11  1  0  0  0  0
 19 24  1  0  0  0  0
 19 18  2  0  0  0  0
 20 19  1  0  0  0  0
 21 20  2  0  0  0  0
 21 22  1  0  0  0  0
 22 23  2  0  0  0  0
 23 18  1  0  0  0  0
 25 20  1  0  0  0  0
 26 22  1  0  0  0  0
 27 28  1  0  0  0  0
 29  5  1  0  0  0  0
 29 30  1  0  0  0  0
 30 31  1  0  0  0  0
 31 32  1  0  0  0  0
 31 33  2  0  0  0  0
 33 34  1  0  0  0  0
 35 33  1  0  0  0  0
 36 35  2  0  0  0  0
 37 30  2  0  0  0  0
 37 36  1  0  0  0  0
M  END
>  <minimizedAffinity>
-5.07049751

$$$$

 OpenBabel03272508293D

 37 40  0  0  1  0  0  0  0  0999 V2000
   35.5740   29.1560   34.3750 C   0  0  2  0  0  0  0  0  0  0  0  0
   36.6800   28.3270   33.7420 C   0  0  2  0  0  0  0  0  0  0  0  0
   36.1250   27.7670   32.6270 O   0  0  0  0  0  0  0  0  0  0  0  0
   35.0730   28.5070   32.1900 C   0  0  0  0  0  0  0  0  0  0  0  0
   34.9190   29.7020   33.1020 C   0  0  1  0  0  0  0  0  0  0  0  0
   34.8300   28.5400   34.8930 H   0  0  0  0  0  0  0  0  0  0  0  0
   37.4990   28.9990   33.4380 H   0  0  0  0  0  0  0  0  0  0  0  0
   35.3630   28.9460   31.1910 H   0  0  0  0  0  0  0  0  0  0  0  0
   34.1390   27.9610   32.0010 H   0  0  0  0  0  0  0  0  0  0  0  0
   35.5340   30.5700   32.7990 H   0  0  0  0  0  0  0  0  0  0  0  0
   38.1420   26.3370   34.5160 C   0  0  1  0  0  0  0  0  0  0  0  0
   37.0830   27.2920   34.7430 C   0  0  1  0  0  0  0  0  0  0  0  0
   38.3180   27.4400   35.5710 C   0  0  0  0  0  0  0  0  0  0  0  0
   38.9410   26.3700   33.7560 H   0  0  0  0  0  0  0  0  0  0  0  0
   36.1950   26.9180   35.3290 H   0  0  0  0  0  0  0  0  0  0  0  0
   39.0470   28.2370   35.3450 H   0  0  0  0  0  0  0  0  0  0  0  0
   38.3050   27.1550   36.6440 H   0  0  0  0  0  0  0  0  0  0  0  0
   38.1050   24.9540   35.1480 C   0  0  0  0  0  0  0  0  0  0  0  0
   37.7450   24.8640   36.4920 C   0  0  0  0  0  0  0  0  0  0  0  0
   37.7500   23.5870   37.0210 C   0  0  0  0  0  0  0  0  0  0  0  0
   38.0890   22.5050   36.2550 N   0  0  0  0  0  0  0  0  0  0  0  0
   38.4350   22.6370   34.9470 C   0  0  0  0  0  0  0  0  0  0  0  0
   38.4360   23.8830   34.4040 N   0  0  0  0  0  0  0  0  0  0  0  0
   37.4770   25.7130   37.1020 H   0  0  0  0  0  0  0  0  0  0  0  0
   37.4810   23.4170   38.0640 H   0  0  0  0  0  0  0  0  0  0  0  0
   38.6950   21.7530   34.3810 H   0  0  0  0  0  0  0  0  0  0  0  0
   36.0300   30.1720   35.1900 O   0  0  0  0  0  0  0  0  0  0  0  0
   36.5720   30.7800   34.6020 H   0  0  0  0  0  0  0  0  0  0  0  0
   33.6280   30.0980   33.3160 O   0  0  0  0  0  0  0  0  0  0  0  0
   32.7590   29.7180   34.3130 C   0  0  0  0  0  0  0  0  0  0  0  0
   31.7480   28.8840   33.9230 C   0  0  0  0  0  0  0  0  0  0  0  0
   31.6330   28.5390   32.8870 H   0  0  0  0  0  0  0  0  0  0  0  0
   30.7710   28.3840   34.7550 C   0  0  0  0  0  0  0  0  0  0  0  0
   29.9750   27.7270   34.4430 H   0  0  0  0  0  0  0  0  0  0  0  0
   30.8210   28.7580   36.0900 C   0  0  0  0  0  3  0  0  0  0  0  0
   31.8480   29.6010   36.4720 C   0  0  0  0  0  3  0  0  0  0  0  0
   32.7880   30.0700   35.6230 N   0  0  0  0  0  0  0  0  0  0  0  0
  1  6  1  1  0  0  0
  1 27  1  0  0  0  0
  2  7  1  6  0  0  0
  2  1  1  0  0  0  0
  2 12  1  0  0  0  0
  3  2  1  0  0  0  0
  4  3  1  0  0  0  0
  4  5  1  0  0  0  0
  5 10  1  6  0  0  0
  5 29  1  0  0  0  0
  5  1  1  0  0  0  0
  8  4  1  0  0  0  0
  9  4  1  0  0  0  0
 11 14  1  6  0  0  0
 11 12  1  0  0  0  0
 11 18  1  0  0  0  0
 11 13  1  0  0  0  0
 12 15  1  1  0  0  0
 12 13  1  0  0  0  0
 13 17  1  0  0  0  0
 16 13  1  0  0  0  0
 18 19  1  0  0  0  0
 19 20  2  0  0  0  0
 19 24  1  0  0  0  0
 20 25  1  0  0  0  0
 21 20  1  0  0  0  0
 22 21  2  0  0  0  0
 23 22  1  0  0  0  0
 23 18  2  0  0  0  0
 26 22  1  0  0  0  0
 28 27  1  0  0  0  0
 29 30  1  0  0  0  0
 30 37  1  0  0  0  0
 31 30  2  0  0  0  0
 31 33  1  0  0  0  0
 32 31  1  0  0  0  0
 33 35  2  0  0  0  0
 34 33  1  0  0  0  0
 35 36  1  0  0  0  0
 37 36  2  0  0  0  0
M  END
>  <minimizedAffinity>
-5.04684877

$$$$

 OpenBabel03272508293D

 37 40  0  0  1  0  0  0  0  0999 V2000
   36.9780   24.6970   32.0620 C   0  0  2  0  0  0  0  0  0  0  0  0
   36.4770   26.1080   32.3210 C   0  0  2  0  0  0  0  0  0  0  0  0
   35.5500   26.3500   31.3470 O   0  0  0  0  0  0  0  0  0  0  0  0
   35.0270   25.1870   30.8800 C   0  0  0  0  0  0  0  0  0  0  0  0
   35.6600   24.0420   31.6370 C   0  0  1  0  0  0  0  0  0  0  0  0
   37.6660   24.6440   31.2110 H   0  0  0  0  0  0  0  0  0  0  0  0
   35.9800   26.1350   33.3050 H   0  0  0  0  0  0  0  0  0  0  0  0
   33.9390   25.1620   31.1830 H   0  0  0  0  0  0  0  0  0  0  0  0
   35.0230   25.0580   29.7900 H   0  0  0  0  0  0  0  0  0  0  0  0
   35.1340   23.7910   32.5780 H   0  0  0  0  0  0  0  0  0  0  0  0
   38.7000   26.8560   31.2280 C   0  0  1  0  0  0  0  0  0  0  0  0
   37.6540   27.0230   32.2090 C   0  0  1  0  0  0  0  0  0  0  0  0
   37.7460   28.0560   31.1330 C   0  0  0  0  0  0  0  0  0  0  0  0
   38.6830   26.2480   30.3070 H   0  0  0  0  0  0  0  0  0  0  0  0
   37.9780   27.4010   33.2200 H   0  0  0  0  0  0  0  0  0  0  0  0
   37.0230   28.0560   30.2990 H   0  0  0  0  0  0  0  0  0  0  0  0
   38.1400   29.0670   31.3660 H   0  0  0  0  0  0  0  0  0  0  0  0
   40.1280   27.2930   31.5160 C   0  0  0  0  0  0  0  0  0  0  0  0
   40.6000   27.1480   32.8200 C   0  0  0  0  0  0  0  0  0  0  0  0
   41.8950   27.5820   33.0310 C   0  0  0  0  0  0  0  0  0  0  0  0
   42.6380   28.1130   32.0120 N   0  0  0  0  0  0  0  0  0  0  0  0
   42.1390   28.2380   30.7550 C   0  0  0  0  0  0  0  0  0  0  0  0
   40.8680   27.8160   30.5220 N   0  0  0  0  0  0  0  0  0  0  0  0
   40.0190   26.7300   33.6280 H   0  0  0  0  0  0  0  0  0  0  0  0
   42.3520   27.5080   34.0190 H   0  0  0  0  0  0  0  0  0  0  0  0
   42.7630   28.6630   29.9810 H   0  0  0  0  0  0  0  0  0  0  0  0
   37.5180   24.0810   33.1740 O   0  0  0  0  0  0  0  0  0  0  0  0
   36.7770   24.0250   33.8500 H   0  0  0  0  0  0  0  0  0  0  0  0
   35.8610   22.9090   30.9000 O   0  0  0  0  0  0  0  0  0  0  0  0
   35.8270   21.5950   31.3060 C   0  0  0  0  0  0  0  0  0  0  0  0
   35.3590   21.3840   32.5740 C   0  0  0  0  0  0  0  0  0  0  0  0
   35.0320   22.2050   33.2270 H   0  0  0  0  0  0  0  0  0  0  0  0
   35.2410   20.1530   33.1790 C   0  0  0  0  0  0  0  0  0  0  0  0
   34.8720   19.9920   34.1790 H   0  0  0  0  0  0  0  0  0  0  0  0
   35.6280   19.0430   32.4410 C   0  0  0  0  0  3  0  0  0  0  0  0
   36.0990   19.2680   31.1610 C   0  0  0  0  0  3  0  0  0  0  0  0
   36.1990   20.4950   30.6040 N   0  0  0  0  0  0  0  0  0  0  0  0
  1  6  1  6  0  0  0
  1  2  1  0  0  0  0
  1 27  1  0  0  0  0
  2  7  1  1  0  0  0
  3  2  1  0  0  0  0
  4  8  1  0  0  0  0
  4  3  1  0  0  0  0
  4  5  1  0  0  0  0
  5  1  1  0  0  0  0
  5 10  1  1  0  0  0
  9  4  1  0  0  0  0
 11 14  1  6  0  0  0
 11 18  1  0  0  0  0
 11 12  1  0  0  0  0
 12  2  1  0  0  0  0
 12 15  1  1  0  0  0
 13 11  1  0  0  0  0
 13 17  1  0  0  0  0
 13 12  1  0  0  0  0
 16 13  1  0  0  0  0
 18 19  1  0  0  0  0
 19 20  2  0  0  0  0
 19 24  1  0  0  0  0
 20 25  1  0  0  0  0
 21 20  1  0  0  0  0
 22 21  2  0  0  0  0
 23 22  1  0  0  0  0
 23 18  2  0  0  0  0
 26 22  1  0  0  0  0
 27 28  1  0  0  0  0
 29 30  1  0  0  0  0
 29  5  1  0  0  0  0
 30 31  1  0  0  0  0
 31 33  2  0  0  0  0
 31 32  1  0  0  0  0
 33 34  1  0  0  0  0
 35 33  1  0  0  0  0
 36 35  2  0  0  0  0
 37 36  1  0  0  0  0
 37 30  2  0  0  0  0
M  END
>  <minimizedAffinity>
-5.04029274

$$$$
