
 OpenBabel03272502233D

 28 30  0  0  0  0  0  0  0  0999 V2000
   36.6630   29.7540   50.2970 C   0  0  0  0  0  0  0  0  0  0  0  0
   37.2950   30.4420   49.2480 C   0  0  0  0  0  0  0  0  0  0  0  0
   36.7560   30.2930   47.9850 C   0  0  0  0  0  0  0  0  0  0  0  0
   35.6670   29.5050   47.8350 N   0  0  0  0  0  0  0  0  0  0  0  0
   35.0770   28.8530   48.8620 C   0  0  0  0  0  0  0  0  0  0  0  0
   35.5920   28.9880   50.1020 N   0  0  0  0  0  0  0  0  0  0  0  0
   37.1550   29.9280   51.2630 H   0  0  0  0  0  0  0  0  0  0  0  0
   38.1480   31.0610   49.3540 H   0  0  0  0  0  0  0  0  0  0  0  0
   37.2970   30.9440   46.7810 C   0  0  0  0  0  0  0  0  0  0  0  0
   36.7320   30.7770   45.5360 C   0  0  0  0  0  0  0  0  0  0  0  0
   37.2370   31.3870   44.4010 C   0  0  0  0  0  0  0  0  0  0  0  0
   38.3300   32.1810   44.5120 N   0  0  0  0  0  0  0  0  0  0  0  0
   38.8660   32.3320   45.7220 C   0  0  0  0  0  0  0  0  0  0  0  0
   38.3770   31.7410   46.8250 N   0  0  0  0  0  0  0  0  0  0  0  0
   35.8580   30.1400   45.4610 H   0  0  0  0  0  0  0  0  0  0  0  0
   36.7400   31.2070   43.4700 H   0  0  0  0  0  0  0  0  0  0  0  0
   40.0710   33.1990   45.8820 C   0  0  0  0  0  0  0  0  0  0  0  0
   40.0720   33.7080   47.1580 F   0  0  0  0  0  0  0  0  0  0  0  0
   41.2370   32.4770   45.6340 F   0  0  0  0  0  0  0  0  0  0  0  0
   40.0500   34.2470   45.0140 F   0  0  0  0  0  0  0  0  0  0  0  0
   33.9140   28.0350   48.5870 C   0  0  0  0  0  0  0  0  0  0  0  0
   33.9360   26.9550   47.7600 C   0  0  0  0  0  0  0  0  0  0  0  0
   34.8620   26.6760   47.2710 H   0  0  0  0  0  0  0  0  0  0  0  0
   32.7820   26.2260   47.5510 C   0  0  0  0  0  0  0  0  0  0  0  0
   32.8020   25.3680   46.8940 H   0  0  0  0  0  0  0  0  0  0  0  0
   31.5820   26.5570   48.1620 C   0  0  0  0  0  0  0  0  0  0  0  0
   31.6260   27.6640   48.9890 C   0  0  0  0  0  0  0  0  0  0  0  0
   32.7530   28.3710   49.1890 N   0  0  0  0  0  0  0  0  0  0  0  0
  1  7  1  0  0  0  0
  2  8  1  0  0  0  0
  2  1  2  0  0  0  0
  3  2  1  0  0  0  0
  4  3  2  0  0  0  0
  4  5  1  0  0  0  0
  5  6  2  0  0  0  0
  6  1  1  0  0  0  0
  9 14  1  0  0  0  0
  9  3  1  0  0  0  0
 10  9  2  0  0  0  0
 11 12  2  0  0  0  0
 11 10  1  0  0  0  0
 12 13  1  0  0  0  0
 13 17  1  0  0  0  0
 13 14  2  0  0  0  0
 15 10  1  0  0  0  0
 16 11  1  0  0  0  0
 17 18  1  0  0  0  0
 19 17  1  0  0  0  0
 20 17  1  0  0  0  0
 21  5  1  0  0  0  0
 21 28  1  0  0  0  0
 22 21  2  0  0  0  0
 23 22  1  0  0  0  0
 24 22  1  0  0  0  0
 24 26  2  0  0  0  0
 25 24  1  0  0  0  0
 26 27  1  0  0  0  0
 27 28  2  0  0  0  0
M  END
>  <minimizedAffinity>
-6.17032671

>  <minimizedRMSD>
1.40709233

$$$$
