
 OpenBabel03262520343D

 28 29  0  0  0  0  0  0  0  0999 V2000
   37.5580   23.4080   32.2950 C   0  0  0  0  0  0  0  0  0  0  0  0
   37.6040   22.3220   32.0010 H   0  0  0  0  0  0  0  0  0  0  0  0
   38.2860   23.9240   31.6680 H   0  0  0  0  0  0  0  0  0  0  0  0
   37.9210   22.4810   34.5640 C   0  0  0  0  0  3  0  0  0  0  0  0
   38.0160   23.4610   33.7060 C   0  0  0  0  0  3  0  0  0  0  0  0
   40.0650   22.5430   37.5250 C   0  0  0  0  0  0  0  0  0  0  0  0
   39.2740   23.2350   38.4610 C   0  0  0  0  0  0  0  0  0  0  0  0
   38.0190   23.6600   38.0350 C   0  0  0  0  0  0  0  0  0  0  0  0
   37.6400   23.3800   36.7490 N   0  0  0  0  0  0  0  0  0  0  0  0
   38.4280   22.7220   35.9060 C   0  0  0  0  0  0  0  0  0  0  0  0
   39.6360   22.3070   36.2970 N   0  0  0  0  0  0  0  0  0  0  0  0
   41.0440   22.1890   37.7930 H   0  0  0  0  0  0  0  0  0  0  0  0
   39.6510   23.4170   39.4640 H   0  0  0  0  0  0  0  0  0  0  0  0
   37.3770   24.1890   38.7000 H   0  0  0  0  0  0  0  0  0  0  0  0
   36.2530   23.8870   32.1540 O   0  0  0  0  0  0  0  0  0  0  0  0
   35.0570   25.4550   30.5350 O   0  0  0  0  0  0  0  0  0  0  0  0
   36.3250   25.4200   31.3960 P   0  0  2  0  0  0  0  0  0  0  0  0
   37.7000   25.4440   30.4180 O   0  0  0  0  0  0  0  0  0  0  0  0
   37.6850   26.1750   29.7560 H   0  0  0  0  0  0  0  0  0  0  0  0
   36.3360   26.6650   32.5310 O   0  0  0  0  0  0  0  0  0  0  0  0
   37.4100   26.7970   33.3910 C   0  0  0  0  0  0  0  0  0  0  0  0
   37.0990   26.8380   34.7390 C   0  0  0  0  0  0  0  0  0  0  0  0
   36.1040   26.7770   35.1850 H   0  0  0  0  0  0  0  0  0  0  0  0
   38.0860   26.9680   35.6960 C   0  0  0  0  0  0  0  0  0  0  0  0
   37.9430   27.0090   36.7690 H   0  0  0  0  0  0  0  0  0  0  0  0
   39.4090   27.0570   35.2640 C   0  0  0  0  0  3  0  0  0  0  0  0
   39.6980   27.0160   33.9320 C   0  0  0  0  0  3  0  0  0  0  0  0
   38.7110   26.8870   33.0140 N   0  0  0  0  0  0  0  0  0  0  0  0
  1  5  1  0  0  0  0
  2  1  1  0  0  0  0
  3  1  1  0  0  0  0
  4 10  1  0  0  0  0
  5  4  2  0  0  0  0
  6 12  1  0  0  0  0
  6  7  1  0  0  0  0
  7 13  1  0  0  0  0
  8  7  2  0  0  0  0
  8 14  1  0  0  0  0
  9  8  1  0  0  0  0
 10 11  1  0  0  0  0
 10  9  2  0  0  0  0
 11  6  2  0  0  0  0
 15  1  1  0  0  0  0
 17 16  2  6  0  0  0
 17 15  1  0  0  0  0
 17 20  1  0  0  0  0
 18 17  1  0  0  0  0
 19 18  1  0  0  0  0
 20 21  1  0  0  0  0
 21 22  1  0  0  0  0
 22 23  1  0  0  0  0
 22 24  2  0  0  0  0
 24 25  1  0  0  0  0
 26 24  1  0  0  0  0
 27 26  2  0  0  0  0
 28 21  2  0  0  0  0
 28 27  1  0  0  0  0
M  END
>  <minimizedAffinity>
-5.02389431

$$$$

 OpenBabel03262520343D

 28 29  0  0  0  0  0  0  0  0999 V2000
   37.0210   24.8700   30.9510 C   0  0  0  0  0  0  0  0  0  0  0  0
   36.8090   25.0640   29.8630 H   0  0  0  0  0  0  0  0  0  0  0  0
   38.0750   25.1060   31.1030 H   0  0  0  0  0  0  0  0  0  0  0  0
   35.8160   22.8670   31.7740 C   0  0  0  0  0  3  0  0  0  0  0  0
   36.8230   23.4120   31.1440 C   0  0  0  0  0  3  0  0  0  0  0  0
   35.4010   19.4520   33.0100 C   0  0  0  0  0  0  0  0  0  0  0  0
   35.7960   18.6760   31.9050 C   0  0  0  0  0  0  0  0  0  0  0  0
   36.1940   19.3630   30.7620 C   0  0  0  0  0  0  0  0  0  0  0  0
   36.1770   20.7320   30.7870 N   0  0  0  0  0  0  0  0  0  0  0  0
   35.7950   21.4150   31.8600 C   0  0  0  0  0  0  0  0  0  0  0  0
   35.4080   20.7740   32.9660 N   0  0  0  0  0  0  0  0  0  0  0  0
   35.0820   18.9810   33.9230 H   0  0  0  0  0  0  0  0  0  0  0  0
   35.7800   17.5910   31.9670 H   0  0  0  0  0  0  0  0  0  0  0  0
   36.5030   18.8280   29.8950 H   0  0  0  0  0  0  0  0  0  0  0  0
   36.1560   25.6220   31.7490 O   0  0  0  0  0  0  0  0  0  0  0  0
   35.1870   27.9650   32.0410 O   0  0  0  0  0  0  0  0  0  0  0  0
   36.3810   27.2760   31.3720 P   0  0  2  0  0  0  0  0  0  0  0  0
   36.2880   27.4370   29.6950 O   0  0  0  0  0  0  0  0  0  0  0  0
   36.1510   28.3700   29.4070 H   0  0  0  0  0  0  0  0  0  0  0  0
   37.8450   27.8500   31.9800 O   0  0  0  0  0  0  0  0  0  0  0  0
   38.2200   27.5320   33.2720 C   0  0  0  0  0  0  0  0  0  0  0  0
   39.5240   27.0940   33.4280 C   0  0  0  0  0  0  0  0  0  0  0  0
   40.2750   26.9760   32.6450 H   0  0  0  0  0  0  0  0  0  0  0  0
   40.0170   26.7470   34.6700 C   0  0  0  0  0  0  0  0  0  0  0  0
   41.0170   26.3950   34.8940 H   0  0  0  0  0  0  0  0  0  0  0  0
   39.1600   26.8510   35.7660 C   0  0  0  0  0  3  0  0  0  0  0  0
   37.8790   27.2840   35.5950 C   0  0  0  0  0  3  0  0  0  0  0  0
   37.4210   27.6190   34.3660 N   0  0  0  0  0  0  0  0  0  0  0  0
  1  3  1  0  0  0  0
  1  5  1  0  0  0  0
  1 15  1  0  0  0  0
  2  1  1  0  0  0  0
  4 10  1  0  0  0  0
  5  4  2  0  0  0  0
  6 12  1  0  0  0  0
  7 13  1  0  0  0  0
  7  6  2  0  0  0  0
  8  9  2  0  0  0  0
  8  7  1  0  0  0  0
  9 10  1  0  0  0  0
 10 11  2  0  0  0  0
 11  6  1  0  0  0  0
 14  8  1  0  0  0  0
 17 15  1  0  0  0  0
 17 20  1  0  0  0  0
 17 16  2  1  0  0  0
 18 17  1  0  0  0  0
 19 18  1  0  0  0  0
 20 21  1  0  0  0  0
 21 22  2  0  0  0  0
 21 28  1  0  0  0  0
 22 24  1  0  0  0  0
 23 22  1  0  0  0  0
 24 25  1  0  0  0  0
 24 26  2  0  0  0  0
 27 26  1  0  0  0  0
 28 27  2  0  0  0  0
M  END
>  <minimizedAffinity>
-4.82466412

$$$$

 OpenBabel03262520343D

 28 29  0  0  0  0  0  0  0  0999 V2000
   38.1250   25.8060   32.5990 C   0  0  0  0  0  0  0  0  0  0  0  0
   38.2800   26.1800   31.5480 H   0  0  0  0  0  0  0  0  0  0  0  0
   39.1140   25.5430   32.9770 H   0  0  0  0  0  0  0  0  0  0  0  0
   37.7200   23.3690   32.7870 C   0  0  0  0  0  3  0  0  0  0  0  0
   37.3150   24.5700   32.4690 C   0  0  0  0  0  3  0  0  0  0  0  0
   35.3060   21.0770   31.2790 C   0  0  0  0  0  0  0  0  0  0  0  0
   35.0290   20.1860   32.3320 C   0  0  0  0  0  0  0  0  0  0  0  0
   35.6900   20.4080   33.5370 C   0  0  0  0  0  0  0  0  0  0  0  0
   36.5560   21.4660   33.6160 N   0  0  0  0  0  0  0  0  0  0  0  0
   36.7800   22.2770   32.5890 C   0  0  0  0  0  0  0  0  0  0  0  0
   36.1550   22.0790   31.4250 N   0  0  0  0  0  0  0  0  0  0  0  0
   34.8260   20.9580   30.3230 H   0  0  0  0  0  0  0  0  0  0  0  0
   34.3270   19.3690   32.1860 H   0  0  0  0  0  0  0  0  0  0  0  0
   35.5200   19.7660   34.3690 H   0  0  0  0  0  0  0  0  0  0  0  0
   37.4720   26.7770   33.3620 O   0  0  0  0  0  0  0  0  0  0  0  0
   37.6830   28.0690   35.5520 O   0  0  0  0  0  0  0  0  0  0  0  0
   38.1030   26.7230   34.9520 P   0  0  2  0  0  0  0  0  0  0  0  0
   39.7850   26.6310   34.8340 O   0  0  0  0  0  0  0  0  0  0  0  0
   40.2400   26.8520   35.6800 H   0  0  0  0  0  0  0  0  0  0  0  0
   37.4610   25.4310   35.8230 O   0  0  0  0  0  0  0  0  0  0  0  0
   38.3120   24.5400   36.4510 C   0  0  0  0  0  0  0  0  0  0  0  0
   38.0190   24.2620   37.7750 C   0  0  0  0  0  0  0  0  0  0  0  0
   37.1960   24.6700   38.3650 H   0  0  0  0  0  0  0  0  0  0  0  0
   38.7950   23.3870   38.5090 C   0  0  0  0  0  0  0  0  0  0  0  0
   38.6480   23.1060   39.5460 H   0  0  0  0  0  0  0  0  0  0  0  0
   39.8850   22.7900   37.8760 C   0  0  0  0  0  3  0  0  0  0  0  0
   40.1590   23.0750   36.5720 C   0  0  0  0  0  3  0  0  0  0  0  0
   39.3820   23.9360   35.8740 N   0  0  0  0  0  0  0  0  0  0  0  0
  1  3  1  0  0  0  0
  1 15  1  0  0  0  0
  2  1  1  0  0  0  0
  5  1  1  0  0  0  0
  5  4  2  0  0  0  0
  6 11  2  0  0  0  0
  6  7  1  0  0  0  0
  7  8  2  0  0  0  0
  8  9  1  0  0  0  0
  8 14  1  0  0  0  0
 10  4  1  0  0  0  0
 10  9  2  0  0  0  0
 11 10  1  0  0  0  0
 12  6  1  0  0  0  0
 13  7  1  0  0  0  0
 15 17  1  0  0  0  0
 17 16  2  1  0  0  0
 17 20  1  0  0  0  0
 18 17  1  0  0  0  0
 18 19  1  0  0  0  0
 20 21  1  0  0  0  0
 21 22  1  0  0  0  0
 22 23  1  0  0  0  0
 22 24  2  0  0  0  0
 24 25  1  0  0  0  0
 26 24  1  0  0  0  0
 27 26  2  0  0  0  0
 28 21  2  0  0  0  0
 28 27  1  0  0  0  0
M  END
>  <minimizedAffinity>
-4.76301527

$$$$

 OpenBabel03262520343D

 28 29  0  0  0  0  0  0  0  0999 V2000
   36.1630   30.4490   31.8480 C   0  0  0  0  0  0  0  0  0  0  0  0
   37.2110   30.1380   32.1160 H   0  0  0  0  0  0  0  0  0  0  0  0
   36.2620   31.2690   31.1360 H   0  0  0  0  0  0  0  0  0  0  0  0
   35.1540   30.2390   34.1010 C   0  0  0  0  0  3  0  0  0  0  0  0
   35.5670   30.9720   33.1020 C   0  0  0  0  0  3  0  0  0  0  0  0
   34.7840   32.3900   37.0330 C   0  0  0  0  0  0  0  0  0  0  0  0
   33.4380   32.1900   37.3920 C   0  0  0  0  0  0  0  0  0  0  0  0
   32.6980   31.3130   36.6040 C   0  0  0  0  0  0  0  0  0  0  0  0
   33.3220   30.7100   35.5450 N   0  0  0  0  0  0  0  0  0  0  0  0
   34.5970   30.9350   35.2500 C   0  0  0  0  0  0  0  0  0  0  0  0
   35.3220   31.7740   35.9950 N   0  0  0  0  0  0  0  0  0  0  0  0
   35.4090   33.0560   37.6030 H   0  0  0  0  0  0  0  0  0  0  0  0
   33.0200   32.7100   38.2500 H   0  0  0  0  0  0  0  0  0  0  0  0
   31.6760   31.1230   36.8280 H   0  0  0  0  0  0  0  0  0  0  0  0
   35.4510   29.3550   31.3520 O   0  0  0  0  0  0  0  0  0  0  0  0
   37.8950   28.6520   31.1390 O   0  0  0  0  0  0  0  0  0  0  0  0
   36.5110   28.0120   31.2860 P   0  0  2  0  0  0  0  0  0  0  0  0
   36.1250   27.1210   29.9050 O   0  0  0  0  0  0  0  0  0  0  0  0
   36.8340   26.4870   29.6490 H   0  0  0  0  0  0  0  0  0  0  0  0
   36.4070   27.0800   32.6860 O   0  0  0  0  0  0  0  0  0  0  0  0
   37.5170   26.9380   33.4970 C   0  0  0  0  0  0  0  0  0  0  0  0
   37.4260   27.5250   34.7480 C   0  0  0  0  0  0  0  0  0  0  0  0
   36.5770   28.0800   35.1520 H   0  0  0  0  0  0  0  0  0  0  0  0
   38.4700   27.4520   35.6480 C   0  0  0  0  0  0  0  0  0  0  0  0
   38.4940   27.8760   36.6460 H   0  0  0  0  0  0  0  0  0  0  0  0
   39.6220   26.7680   35.2610 C   0  0  0  0  0  3  0  0  0  0  0  0
   39.6950   26.1970   34.0260 C   0  0  0  0  0  3  0  0  0  0  0  0
   38.6570   26.2820   33.1610 N   0  0  0  0  0  0  0  0  0  0  0  0
  1  2  1  0  0  0  0
  1  5  1  0  0  0  0
  3  1  1  0  0  0  0
  4 10  1  0  0  0  0
  5  4  2  0  0  0  0
  6  7  1  0  0  0  0
  6 12  1  0  0  0  0
  7 13  1  0  0  0  0
  8 14  1  0  0  0  0
  8  7  2  0  0  0  0
  9  8  1  0  0  0  0
 10  9  2  0  0  0  0
 10 11  1  0  0  0  0
 11  6  2  0  0  0  0
 15  1  1  0  0  0  0
 17 16  2  6  0  0  0
 17 15  1  0  0  0  0
 17 20  1  0  0  0  0
 18 17  1  0  0  0  0
 19 18  1  0  0  0  0
 20 21  1  0  0  0  0
 21 22  1  0  0  0  0
 22 23  1  0  0  0  0
 22 24  2  0  0  0  0
 24 25  1  0  0  0  0
 26 24  1  0  0  0  0
 27 26  2  0  0  0  0
 28 21  2  0  0  0  0
 28 27  1  0  0  0  0
M  END
>  <minimizedAffinity>
-4.73988533

$$$$

 OpenBabel03262520343D

 28 29  0  0  0  0  0  0  0  0999 V2000
   38.1580   25.0470   36.3220 C   0  0  0  0  0  0  0  0  0  0  0  0
   37.3180   24.3800   36.6670 H   0  0  0  0  0  0  0  0  0  0  0  0
   38.4140   25.6780   37.1740 H   0  0  0  0  0  0  0  0  0  0  0  0
   37.5430   27.2010   35.2640 C   0  0  0  0  0  3  0  0  0  0  0  0
   37.5800   25.8960   35.2510 C   0  0  0  0  0  3  0  0  0  0  0  0
   36.6780   28.1580   31.8440 C   0  0  0  0  0  0  0  0  0  0  0  0
   35.7210   29.1700   32.0420 C   0  0  0  0  0  0  0  0  0  0  0  0
   35.4030   29.4900   33.3590 C   0  0  0  0  0  0  0  0  0  0  0  0
   36.0360   28.8080   34.3630 N   0  0  0  0  0  0  0  0  0  0  0  0
   36.9340   27.8600   34.1190 C   0  0  0  0  0  0  0  0  0  0  0  0
   37.2510   27.5390   32.8620 N   0  0  0  0  0  0  0  0  0  0  0  0
   36.9670   27.8660   30.8500 H   0  0  0  0  0  0  0  0  0  0  0  0
   35.2640   29.6630   31.1870 H   0  0  0  0  0  0  0  0  0  0  0  0
   34.6850   30.2470   33.5690 H   0  0  0  0  0  0  0  0  0  0  0  0
   39.2230   24.2730   35.8540 O   0  0  0  0  0  0  0  0  0  0  0  0
   37.3440   22.6750   36.5100 O   0  0  0  0  0  0  0  0  0  0  0  0
   38.7620   22.6260   35.9310 P   0  0  2  0  0  0  0  0  0  0  0  0
   39.8090   21.8510   37.0050 O   0  0  0  0  0  0  0  0  0  0  0  0
   39.4690   20.9760   37.3050 H   0  0  0  0  0  0  0  0  0  0  0  0
   38.7830   21.9120   34.4050 O   0  0  0  0  0  0  0  0  0  0  0  0
   37.6890   22.0500   33.5710 C   0  0  0  0  0  0  0  0  0  0  0  0
   37.6640   23.1990   32.7980 C   0  0  0  0  0  0  0  0  0  0  0  0
   38.4110   23.9950   32.7810 H   0  0  0  0  0  0  0  0  0  0  0  0
   36.6240   23.4500   31.9260 C   0  0  0  0  0  0  0  0  0  0  0  0
   36.5150   24.3160   31.2820 H   0  0  0  0  0  0  0  0  0  0  0  0
   35.5960   22.5110   31.8450 C   0  0  0  0  0  3  0  0  0  0  0  0
   35.6350   21.3860   32.6130 C   0  0  0  0  0  3  0  0  0  0  0  0
   36.6680   21.1630   33.4610 N   0  0  0  0  0  0  0  0  0  0  0  0
  1  2  1  0  0  0  0
  1  3  1  0  0  0  0
  5  4  2  0  0  0  0
  5  1  1  0  0  0  0
  6  7  2  0  0  0  0
  6 11  1  0  0  0  0
  7  8  1  0  0  0  0
  8 14  1  0  0  0  0
  8  9  2  0  0  0  0
 10  9  1  0  0  0  0
 10  4  1  0  0  0  0
 11 10  2  0  0  0  0
 12  6  1  0  0  0  0
 13  7  1  0  0  0  0
 15 17  1  0  0  0  0
 15  1  1  0  0  0  0
 17 16  2  1  0  0  0
 17 18  1  0  0  0  0
 18 19  1  0  0  0  0
 20 17  1  0  0  0  0
 21 20  1  0  0  0  0
 22 21  2  0  0  0  0
 23 22  1  0  0  0  0
 24 22  1  0  0  0  0
 25 24  1  0  0  0  0
 26 24  2  0  0  0  0
 26 27  1  0  0  0  0
 27 28  2  0  0  0  0
 28 21  1  0  0  0  0
M  END
>  <minimizedAffinity>
-4.6175127

$$$$

 OpenBabel03262520343D

 28 29  0  0  0  0  0  0  0  0999 V2000
   38.9980   23.0540   32.2860 C   0  0  0  0  0  0  0  0  0  0  0  0
   37.9050   23.1650   32.0390 H   0  0  0  0  0  0  0  0  0  0  0  0
   39.2870   22.0600   31.9450 H   0  0  0  0  0  0  0  0  0  0  0  0
   38.1280   23.5050   34.5610 C   0  0  0  0  0  3  0  0  0  0  0  0
   39.0810   23.0970   33.7670 C   0  0  0  0  0  3  0  0  0  0  0  0
   37.8290   23.9520   38.1770 C   0  0  0  0  0  0  0  0  0  0  0  0
   39.0100   23.3570   38.6580 C   0  0  0  0  0  0  0  0  0  0  0  0
   39.8760   22.8170   37.7110 C   0  0  0  0  0  0  0  0  0  0  0  0
   39.5260   22.9000   36.3900 N   0  0  0  0  0  0  0  0  0  0  0  0
   38.3970   23.4740   35.9910 C   0  0  0  0  0  0  0  0  0  0  0  0
   37.5530   23.9970   36.8850 N   0  0  0  0  0  0  0  0  0  0  0  0
   37.1190   24.3860   38.8590 H   0  0  0  0  0  0  0  0  0  0  0  0
   39.2120   23.3320   39.7260 H   0  0  0  0  0  0  0  0  0  0  0  0
   40.7840   22.3540   38.0170 H   0  0  0  0  0  0  0  0  0  0  0  0
   39.7290   24.0870   31.6940 O   0  0  0  0  0  0  0  0  0  0  0  0
   37.2570   24.5550   31.2660 O   0  0  0  0  0  0  0  0  0  0  0  0
   38.6260   25.1790   30.9730 P   0  0  2  0  0  0  0  0  0  0  0  0
   38.9240   25.1870   29.3110 O   0  0  0  0  0  0  0  0  0  0  0  0
   38.1850   25.5820   28.7920 H   0  0  0  0  0  0  0  0  0  0  0  0
   38.7600   26.7190   31.6450 O   0  0  0  0  0  0  0  0  0  0  0  0
   38.5350   26.8970   32.9970 C   0  0  0  0  0  0  0  0  0  0  0  0
   39.6620   26.8690   33.8010 C   0  0  0  0  0  0  0  0  0  0  0  0
   40.6950   26.7220   33.4790 H   0  0  0  0  0  0  0  0  0  0  0  0
   39.5680   27.0340   35.1690 C   0  0  0  0  0  0  0  0  0  0  0  0
   40.3860   27.0280   35.8790 H   0  0  0  0  0  0  0  0  0  0  0  0
   38.3010   27.2310   35.7180 C   0  0  0  0  0  3  0  0  0  0  0  0
   37.2020   27.2550   34.9120 C   0  0  0  0  0  3  0  0  0  0  0  0
   37.3220   27.0910   33.5730 N   0  0  0  0  0  0  0  0  0  0  0  0
  1  5  1  0  0  0  0
  2  1  1  0  0  0  0
  3  1  1  0  0  0  0
  4 10  1  0  0  0  0
  5  4  2  0  0  0  0
  6  7  1  0  0  0  0
  6 12  1  0  0  0  0
  7 13  1  0  0  0  0
  8 14  1  0  0  0  0
  8  7  2  0  0  0  0
  9  8  1  0  0  0  0
 10  9  2  0  0  0  0
 10 11  1  0  0  0  0
 11  6  2  0  0  0  0
 15  1  1  0  0  0  0
 17 16  2  1  0  0  0
 17 20  1  0  0  0  0
 17 15  1  0  0  0  0
 18 17  1  0  0  0  0
 19 18  1  0  0  0  0
 20 21  1  0  0  0  0
 21 28  2  0  0  0  0
 21 22  1  0  0  0  0
 22 24  2  0  0  0  0
 23 22  1  0  0  0  0
 24 26  1  0  0  0  0
 24 25  1  0  0  0  0
 27 26  2  0  0  0  0
 28 27  1  0  0  0  0
M  END
>  <minimizedAffinity>
-4.61243677

$$$$

 OpenBabel03262520343D

 28 29  0  0  0  0  0  0  0  0999 V2000
   35.7540   22.6350   31.3560 C   0  0  0  0  0  0  0  0  0  0  0  0
   36.8240   22.2880   31.2980 H   0  0  0  0  0  0  0  0  0  0  0  0
   35.3310   22.4820   30.3630 H   0  0  0  0  0  0  0  0  0  0  0  0
   36.7440   24.9000   31.1850 C   0  0  0  0  0  3  0  0  0  0  0  0
   35.8210   24.0920   31.6320 C   0  0  0  0  0  3  0  0  0  0  0  0
   36.6740   27.9900   33.1380 C   0  0  0  0  0  0  0  0  0  0  0  0
   36.4230   28.9660   32.1560 C   0  0  0  0  0  0  0  0  0  0  0  0
   36.2870   28.5230   30.8440 C   0  0  0  0  0  0  0  0  0  0  0  0
   36.4030   27.1810   30.5970 N   0  0  0  0  0  0  0  0  0  0  0  0
   36.6400   26.3010   31.5630 C   0  0  0  0  0  0  0  0  0  0  0  0
   36.7750   26.7080   32.8280 N   0  0  0  0  0  0  0  0  0  0  0  0
   36.7890   28.2690   34.1700 H   0  0  0  0  0  0  0  0  0  0  0  0
   36.3450   30.0140   32.4370 H   0  0  0  0  0  0  0  0  0  0  0  0
   36.0970   29.2170   30.0600 H   0  0  0  0  0  0  0  0  0  0  0  0
   35.0810   21.9450   32.3670 O   0  0  0  0  0  0  0  0  0  0  0  0
   36.3400   19.7510   32.0320 O   0  0  0  0  0  0  0  0  0  0  0  0
   36.1790   20.8480   33.0890 P   0  0  2  0  0  0  0  0  0  0  0  0
   35.4460   20.2260   34.4760 O   0  0  0  0  0  0  0  0  0  0  0  0
   35.8880   19.4110   34.8090 H   0  0  0  0  0  0  0  0  0  0  0  0
   37.6520   21.5930   33.4350 O   0  0  0  0  0  0  0  0  0  0  0  0
   37.7600   22.4100   34.5450 C   0  0  0  0  0  0  0  0  0  0  0  0
   38.2730   23.6750   34.3110 C   0  0  0  0  0  0  0  0  0  0  0  0
   38.5950   24.0850   33.3520 H   0  0  0  0  0  0  0  0  0  0  0  0
   38.4300   24.5830   35.3390 C   0  0  0  0  0  0  0  0  0  0  0  0
   38.8200   25.5910   35.2570 H   0  0  0  0  0  0  0  0  0  0  0  0
   38.0560   24.1880   36.6230 C   0  0  0  0  0  3  0  0  0  0  0  0
   37.5530   22.9390   36.8360 C   0  0  0  0  0  3  0  0  0  0  0  0
   37.4090   22.0670   35.8100 N   0  0  0  0  0  0  0  0  0  0  0  0
  1  5  1  0  0  0  0
  1 15  1  0  0  0  0
  2  1  1  0  0  0  0
  3  1  1  0  0  0  0
  4 10  1  0  0  0  0
  4  5  2  0  0  0  0
  6 12  1  0  0  0  0
  7 13  1  0  0  0  0
  7  6  2  0  0  0  0
  8  7  1  0  0  0  0
  9  8  2  0  0  0  0
  9 10  1  0  0  0  0
 10 11  2  0  0  0  0
 11  6  1  0  0  0  0
 14  8  1  0  0  0  0
 15 17  1  0  0  0  0
 17 16  2  6  0  0  0
 17 20  1  0  0  0  0
 17 18  1  0  0  0  0
 18 19  1  0  0  0  0
 20 21  1  0  0  0  0
 21 28  1  0  0  0  0
 22 21  2  0  0  0  0
 22 24  1  0  0  0  0
 23 22  1  0  0  0  0
 24 26  2  0  0  0  0
 25 24  1  0  0  0  0
 26 27  1  0  0  0  0
 28 27  2  0  0  0  0
M  END
>  <minimizedAffinity>
-4.60127258

$$$$

 OpenBabel03262520343D

 28 29  0  0  0  0  0  0  0  0999 V2000
   37.4460   26.8160   33.5570 C   0  0  0  0  0  0  0  0  0  0  0  0
   37.9270   26.1820   34.3550 H   0  0  0  0  0  0  0  0  0  0  0  0
   38.2640   27.2630   32.9910 H   0  0  0  0  0  0  0  0  0  0  0  0
   35.9850   28.8110   33.7190 C   0  0  0  0  0  3  0  0  0  0  0  0
   36.7200   27.8880   34.2810 C   0  0  0  0  0  3  0  0  0  0  0  0
   35.4410   31.5400   36.0890 C   0  0  0  0  0  0  0  0  0  0  0  0
   34.0410   31.5570   36.2210 C   0  0  0  0  0  0  0  0  0  0  0  0
   33.3260   30.6190   35.4810 C   0  0  0  0  0  0  0  0  0  0  0  0
   34.0240   29.7520   34.6840 N   0  0  0  0  0  0  0  0  0  0  0  0
   35.3490   29.7800   34.5980 C   0  0  0  0  0  0  0  0  0  0  0  0
   36.0520   30.6730   35.2990 N   0  0  0  0  0  0  0  0  0  0  0  0
   36.0500   32.2400   36.6340 H   0  0  0  0  0  0  0  0  0  0  0  0
   33.5630   32.2800   36.8760 H   0  0  0  0  0  0  0  0  0  0  0  0
   32.2640   30.5850   35.5410 H   0  0  0  0  0  0  0  0  0  0  0  0
   36.5850   26.0370   32.7810 O   0  0  0  0  0  0  0  0  0  0  0  0
   38.8260   25.9060   31.5690 O   0  0  0  0  0  0  0  0  0  0  0  0
   37.3310   25.7600   31.2660 P   0  0  2  0  0  0  0  0  0  0  0  0
   36.8230   26.9780   30.2140 O   0  0  0  0  0  0  0  0  0  0  0  0
   37.3890   27.0500   29.4100 H   0  0  0  0  0  0  0  0  0  0  0  0
   36.9680   24.2240   30.6750 O   0  0  0  0  0  0  0  0  0  0  0  0
   36.7360   23.1880   31.5600 C   0  0  0  0  0  0  0  0  0  0  0  0
   35.5860   22.4510   31.3330 C   0  0  0  0  0  0  0  0  0  0  0  0
   34.8540   22.6040   30.5370 H   0  0  0  0  0  0  0  0  0  0  0  0
   35.2450   21.3910   32.1490 C   0  0  0  0  0  0  0  0  0  0  0  0
   34.3710   20.7570   32.0540 H   0  0  0  0  0  0  0  0  0  0  0  0
   36.0950   21.0830   33.2120 C   0  0  0  0  0  3  0  0  0  0  0  0
   37.2230   21.8190   33.4210 C   0  0  0  0  0  3  0  0  0  0  0  0
   37.5350   22.8540   32.6050 N   0  0  0  0  0  0  0  0  0  0  0  0
  1  5  1  0  0  0  0
  1  2  1  0  0  0  0
  3  1  1  0  0  0  0
  4  5  2  0  0  0  0
  4 10  1  0  0  0  0
  6  7  1  0  0  0  0
  6 12  1  0  0  0  0
  7 13  1  0  0  0  0
  8 14  1  0  0  0  0
  8  7  2  0  0  0  0
  9  8  1  0  0  0  0
 10  9  2  0  0  0  0
 10 11  1  0  0  0  0
 11  6  2  0  0  0  0
 15  1  1  0  0  0  0
 17 16  2  1  0  0  0
 17 15  1  0  0  0  0
 18 17  1  0  0  0  0
 19 18  1  0  0  0  0
 20 17  1  0  0  0  0
 20 21  1  0  0  0  0
 21 28  1  0  0  0  0
 22 21  2  0  0  0  0
 22 24  1  0  0  0  0
 23 22  1  0  0  0  0
 24 26  2  0  0  0  0
 25 24  1  0  0  0  0
 26 27  1  0  0  0  0
 28 27  2  0  0  0  0
M  END
>  <minimizedAffinity>
-4.58326912

$$$$

 OpenBabel03262520343D

 28 29  0  0  0  0  0  0  0  0999 V2000
   35.5730   24.5520   31.1750 C   0  0  0  0  0  0  0  0  0  0  0  0
   34.4750   24.7090   31.3670 H   0  0  0  0  0  0  0  0  0  0  0  0
   35.7660   24.9440   30.1760 H   0  0  0  0  0  0  0  0  0  0  0  0
   35.2870   22.2490   32.0430 C   0  0  0  0  0  3  0  0  0  0  0  0
   35.7710   23.0810   31.1600 C   0  0  0  0  0  3  0  0  0  0  0  0
   36.4400   19.0840   30.6230 C   0  0  0  0  0  0  0  0  0  0  0  0
   36.1100   18.1580   31.6300 C   0  0  0  0  0  0  0  0  0  0  0  0
   35.4960   18.6610   32.7730 C   0  0  0  0  0  0  0  0  0  0  0  0
   35.2570   20.0080   32.8430 N   0  0  0  0  0  0  0  0  0  0  0  0
   35.5900   20.8380   31.8610 C   0  0  0  0  0  0  0  0  0  0  0  0
   36.1800   20.3730   30.7560 N   0  0  0  0  0  0  0  0  0  0  0  0
   36.9160   18.7580   29.7150 H   0  0  0  0  0  0  0  0  0  0  0  0
   36.3350   17.1030   31.4950 H   0  0  0  0  0  0  0  0  0  0  0  0
   35.2240   18.0070   33.5680 H   0  0  0  0  0  0  0  0  0  0  0  0
   36.3270   25.1680   32.1770 O   0  0  0  0  0  0  0  0  0  0  0  0
   36.0510   27.6630   32.6320 O   0  0  0  0  0  0  0  0  0  0  0  0
   36.7560   26.7350   31.6380 P   0  0  2  0  0  0  0  0  0  0  0  0
   36.1150   26.9370   30.0890 O   0  0  0  0  0  0  0  0  0  0  0  0
   36.0900   27.8810   29.8070 H   0  0  0  0  0  0  0  0  0  0  0  0
   38.4260   26.9560   31.6630 O   0  0  0  0  0  0  0  0  0  0  0  0
   39.1790   26.3700   32.6630 C   0  0  0  0  0  0  0  0  0  0  0  0
   39.3330   27.1210   33.8160 C   0  0  0  0  0  0  0  0  0  0  0  0
   38.9270   28.1150   34.0110 H   0  0  0  0  0  0  0  0  0  0  0  0
   40.0640   26.6440   34.8860 C   0  0  0  0  0  0  0  0  0  0  0  0
   40.2410   27.1540   35.8260 H   0  0  0  0  0  0  0  0  0  0  0  0
   40.6420   25.3800   34.7720 C   0  0  0  0  0  3  0  0  0  0  0  0
   40.4810   24.6540   33.6300 C   0  0  0  0  0  3  0  0  0  0  0  0
   39.7590   25.1450   32.5950 N   0  0  0  0  0  0  0  0  0  0  0  0
  1  2  1  0  0  0  0
  1 15  1  0  0  0  0
  3  1  1  0  0  0  0
  5  1  1  0  0  0  0
  5  4  2  0  0  0  0
  6 11  2  0  0  0  0
  6  7  1  0  0  0  0
  7  8  2  0  0  0  0
  8  9  1  0  0  0  0
  8 14  1  0  0  0  0
 10  4  1  0  0  0  0
 10  9  2  0  0  0  0
 11 10  1  0  0  0  0
 12  6  1  0  0  0  0
 13  7  1  0  0  0  0
 17 20  1  0  0  0  0
 17 15  1  0  0  0  0
 17 16  2  1  0  0  0
 18 17  1  0  0  0  0
 19 18  1  0  0  0  0
 20 21  1  0  0  0  0
 21 22  1  0  0  0  0
 22 23  1  0  0  0  0
 22 24  2  0  0  0  0
 24 25  1  0  0  0  0
 26 24  1  0  0  0  0
 27 26  2  0  0  0  0
 28 21  2  0  0  0  0
 28 27  1  0  0  0  0
M  END
>  <minimizedAffinity>
-4.54136562

$$$$
