
 OpenBabel03272509573D

 45 48  0  0  0  0  0  0  0  0999 V2000
   34.2090   28.8690   48.0230 C   0  0  0  0  0  0  0  0  0  0  0  0
   33.6630   29.7720   48.3540 H   0  0  0  0  0  0  0  0  0  0  0  0
   34.9650   29.2290   47.2810 H   0  0  0  0  0  0  0  0  0  0  0  0
   33.3170   27.8600   47.3820 C   0  0  0  0  0  0  0  0  0  0  0  0
   33.3360   28.0180   46.2710 H   0  0  0  0  0  0  0  0  0  0  0  0
   33.6280   26.8320   47.5980 H   0  0  0  0  0  0  0  0  0  0  0  0
   31.8880   28.0200   47.7650 C   0  0  0  0  0  0  0  0  0  0  0  0
   31.5170   27.6260   49.0400 C   0  0  0  0  0  0  0  0  0  0  0  0
   30.2280   27.7330   49.4880 C   0  0  0  0  0  0  0  0  0  0  0  0
   29.3060   28.2280   48.6760 N   0  0  0  0  0  0  0  0  0  0  0  0
   29.6640   28.6180   47.4190 C   0  0  0  0  0  0  0  0  0  0  0  0
   30.9270   28.5240   46.9550 N   0  0  0  0  0  0  0  0  0  0  0  0
   32.2590   27.2160   49.7220 H   0  0  0  0  0  0  0  0  0  0  0  0
   29.9100   27.4380   50.4660 H   0  0  0  0  0  0  0  0  0  0  0  0
   28.6160   29.1720   46.5210 C   0  0  0  0  0  0  0  0  0  0  0  0
   28.7900   30.2470   46.3000 H   0  0  0  0  0  0  0  0  0  0  0  0
   27.6590   29.1470   47.0820 H   0  0  0  0  0  0  0  0  0  0  0  0
   28.4580   28.3620   45.3030 C   0  0  0  0  0  0  0  0  0  0  0  0
   27.8840   27.1070   45.5340 C   0  0  0  0  0  0  0  0  0  0  0  0
   27.5830   26.7550   46.4970 H   0  0  0  0  0  0  0  0  0  0  0  0
   27.6990   26.2730   44.4280 C   0  0  0  0  0  0  0  0  0  0  0  0
   27.2540   25.2790   44.5520 H   0  0  0  0  0  0  0  0  0  0  0  0
   28.0550   26.6360   43.1430 C   0  0  0  0  0  3  0  0  0  0  0  0
   28.6220   27.9050   42.9940 C   0  0  0  0  0  3  0  0  0  0  0  0
   28.8030   28.7130   44.0560 N   0  0  0  0  0  0  0  0  0  0  0  0
   34.9670   28.2970   49.0680 O   0  0  0  0  0  0  0  0  0  0  0  0
   37.0550   29.9400   51.5090 C   0  0  0  0  0  0  0  0  0  0  0  0
   37.8500   30.7450   50.6650 C   0  0  0  0  0  0  0  0  0  0  0  0
   37.6070   30.6630   49.2960 C   0  0  0  0  0  0  0  0  0  0  0  0
   36.6190   29.8080   48.9060 N   0  0  0  0  0  0  0  0  0  0  0  0
   35.8810   29.0590   49.7170 C   0  0  0  0  0  0  0  0  0  0  0  0
   36.1130   29.1350   51.0460 N   0  0  0  0  0  0  0  0  0  0  0  0
   37.2830   30.0400   52.5700 H   0  0  0  0  0  0  0  0  0  0  0  0
   38.6250   31.4140   50.9900 H   0  0  0  0  0  0  0  0  0  0  0  0
   38.7690   33.3130   49.4960 F   0  0  0  0  0  0  0  0  0  0  0  0
   38.8600   32.6300   48.3540 C   0  0  0  0  0  0  0  0  0  0  0  0
   38.3170   31.4080   48.2810 C   0  0  0  0  0  0  0  0  0  0  0  0
   38.4680   30.7800   47.0430 C   0  0  0  0  0  0  0  0  0  0  0  0
   39.1240   31.3790   45.9920 C   0  0  0  0  0  0  0  0  0  0  0  0
   39.6660   32.6400   46.1180 C   0  0  0  0  0  0  0  0  0  0  0  0
   39.5220   33.2560   47.3220 C   0  0  0  0  0  0  0  0  0  0  0  0
   38.0780   29.7870   46.8420 H   0  0  0  0  0  0  0  0  0  0  0  0
   39.2300   30.8760   45.0400 H   0  0  0  0  0  0  0  0  0  0  0  0
   40.1770   33.0830   45.2680 H   0  0  0  0  0  0  0  0  0  0  0  0
   39.9420   34.2460   47.4350 H   0  0  0  0  0  0  0  0  0  0  0  0
  1  2  1  0  0  0  0
  1 26  1  0  0  0  0
  3  1  1  0  0  0  0
  4  6  1  0  0  0  0
  4  7  1  0  0  0  0
  4  1  1  0  0  0  0
  5  4  1  0  0  0  0
  7  8  1  0  0  0  0
  8  9  2  0  0  0  0
  8 13  1  0  0  0  0
  9 14  1  0  0  0  0
 10  9  1  0  0  0  0
 11 10  2  0  0  0  0
 12 11  1  0  0  0  0
 12  7  2  0  0  0  0
 15 17  1  0  0  0  0
 15 11  1  0  0  0  0
 16 15  1  0  0  0  0
 18 19  1  0  0  0  0
 18 15  1  0  0  0  0
 19 20  1  0  0  0  0
 21 22  1  0  0  0  0
 21 19  2  0  0  0  0
 23 21  1  0  0  0  0
 24 23  2  0  0  0  0
 24 25  1  0  0  0  0
 25 18  2  0  0  0  0
 26 31  1  0  0  0  0
 27 33  1  0  0  0  0
 28 34  1  0  0  0  0
 28 27  2  0  0  0  0
 29 28  1  0  0  0  0
 30 29  2  0  0  0  0
 30 31  1  0  0  0  0
 31 32  2  0  0  0  0
 32 27  1  0  0  0  0
 36 35  1  0  0  0  0
 37 36  1  0  0  0  0
 37 29  1  0  0  0  0
 38 37  2  0  0  0  0
 39 40  2  0  0  0  0
 39 38  1  0  0  0  0
 40 41  1  0  0  0  0
 41 45  1  0  0  0  0
 41 36  2  0  0  0  0
 42 38  1  0  0  0  0
 43 39  1  0  0  0  0
 44 40  1  0  0  0  0
M  END
>  <minimizedAffinity>
-6.37833881

>  <minimizedRMSD>
0.525584161

$$$$
