
 OpenBabel03272509573D

 45 48  0  0  0  0  0  0  0  0999 V2000
   34.2340   28.9100   47.9600 C   0  0  0  0  0  0  0  0  0  0  0  0
   33.6750   29.7960   48.3200 H   0  0  0  0  0  0  0  0  0  0  0  0
   34.9550   29.2990   47.1990 H   0  0  0  0  0  0  0  0  0  0  0  0
   33.3470   27.8860   47.3370 C   0  0  0  0  0  0  0  0  0  0  0  0
   33.3540   28.0340   46.2240 H   0  0  0  0  0  0  0  0  0  0  0  0
   33.6720   26.8640   47.5590 H   0  0  0  0  0  0  0  0  0  0  0  0
   31.9190   28.0340   47.7310 C   0  0  0  0  0  0  0  0  0  0  0  0
   31.5600   27.6300   49.0060 C   0  0  0  0  0  0  0  0  0  0  0  0
   30.2740   27.7250   49.4640 C   0  0  0  0  0  0  0  0  0  0  0  0
   29.3430   28.2170   48.6620 N   0  0  0  0  0  0  0  0  0  0  0  0
   29.6890   28.6170   47.4040 C   0  0  0  0  0  0  0  0  0  0  0  0
   30.9490   28.5340   46.9310 N   0  0  0  0  0  0  0  0  0  0  0  0
   32.3110   27.2220   49.6810 H   0  0  0  0  0  0  0  0  0  0  0  0
   29.9650   27.4220   50.4430 H   0  0  0  0  0  0  0  0  0  0  0  0
   28.6310   29.1680   46.5170 C   0  0  0  0  0  0  0  0  0  0  0  0
   28.7980   30.2450   46.2960 H   0  0  0  0  0  0  0  0  0  0  0  0
   27.6790   29.1380   47.0860 H   0  0  0  0  0  0  0  0  0  0  0  0
   28.4650   28.3590   45.2980 C   0  0  0  0  0  0  0  0  0  0  0  0
   27.8920   27.1050   45.5320 C   0  0  0  0  0  0  0  0  0  0  0  0
   27.5970   26.7520   46.4960 H   0  0  0  0  0  0  0  0  0  0  0  0
   27.7000   26.2720   44.4260 C   0  0  0  0  0  0  0  0  0  0  0  0
   27.2550   25.2780   44.5510 H   0  0  0  0  0  0  0  0  0  0  0  0
   28.0480   26.6360   43.1380 C   0  0  0  0  0  3  0  0  0  0  0  0
   28.6160   27.9050   42.9870 C   0  0  0  0  0  3  0  0  0  0  0  0
   28.8040   28.7120   44.0500 N   0  0  0  0  0  0  0  0  0  0  0  0
   35.0390   28.3470   48.9730 O   0  0  0  0  0  0  0  0  0  0  0  0
   37.1950   30.0390   51.3200 C   0  0  0  0  0  0  0  0  0  0  0  0
   37.9830   30.8080   50.4360 C   0  0  0  0  0  0  0  0  0  0  0  0
   37.7110   30.6860   49.0750 C   0  0  0  0  0  0  0  0  0  0  0  0
   36.7050   29.8330   48.7310 N   0  0  0  0  0  0  0  0  0  0  0  0
   35.9750   29.1180   49.5800 C   0  0  0  0  0  0  0  0  0  0  0  0
   36.2350   29.2320   50.9010 N   0  0  0  0  0  0  0  0  0  0  0  0
   37.4460   30.1690   52.3730 H   0  0  0  0  0  0  0  0  0  0  0  0
   38.7720   31.4770   50.7240 H   0  0  0  0  0  0  0  0  0  0  0  0
   38.8380   33.3590   49.1440 F   0  0  0  0  0  0  0  0  0  0  0  0
   38.9350   32.6220   48.0360 C   0  0  0  0  0  0  0  0  0  0  0  0
   38.4090   31.3920   48.0230 C   0  0  0  0  0  0  0  0  0  0  0  0
   38.5660   30.7070   46.8160 C   0  0  0  0  0  0  0  0  0  0  0  0
   39.2110   31.2630   45.7360 C   0  0  0  0  0  0  0  0  0  0  0  0
   39.7360   32.5360   45.8000 C   0  0  0  0  0  0  0  0  0  0  0  0
   39.5860   33.2070   46.9730 C   0  0  0  0  0  0  0  0  0  0  0  0
   38.1880   29.6990   46.6650 H   0  0  0  0  0  0  0  0  0  0  0  0
   39.3220   30.7160   44.8090 H   0  0  0  0  0  0  0  0  0  0  0  0
   40.2390   32.9440   44.9280 H   0  0  0  0  0  0  0  0  0  0  0  0
   39.9940   34.2070   47.0370 H   0  0  0  0  0  0  0  0  0  0  0  0
  1  2  1  0  0  0  0
  1 26  1  0  0  0  0
  3  1  1  0  0  0  0
  4  6  1  0  0  0  0
  4  7  1  0  0  0  0
  4  1  1  0  0  0  0
  5  4  1  0  0  0  0
  7  8  1  0  0  0  0
  8  9  2  0  0  0  0
  8 13  1  0  0  0  0
  9 14  1  0  0  0  0
 10  9  1  0  0  0  0
 11 10  2  0  0  0  0
 12 11  1  0  0  0  0
 12  7  2  0  0  0  0
 15 17  1  0  0  0  0
 15 11  1  0  0  0  0
 16 15  1  0  0  0  0
 18 19  1  0  0  0  0
 18 15  1  0  0  0  0
 19 20  1  0  0  0  0
 21 22  1  0  0  0  0
 21 19  2  0  0  0  0
 23 21  1  0  0  0  0
 24 23  2  0  0  0  0
 24 25  1  0  0  0  0
 25 18  2  0  0  0  0
 26 31  1  0  0  0  0
 27 33  1  0  0  0  0
 28 34  1  0  0  0  0
 28 27  2  0  0  0  0
 29 28  1  0  0  0  0
 30 29  2  0  0  0  0
 30 31  1  0  0  0  0
 31 32  2  0  0  0  0
 32 27  1  0  0  0  0
 36 35  1  0  0  0  0
 37 36  1  0  0  0  0
 37 29  1  0  0  0  0
 38 37  2  0  0  0  0
 39 40  2  0  0  0  0
 39 38  1  0  0  0  0
 40 41  1  0  0  0  0
 41 45  1  0  0  0  0
 41 36  2  0  0  0  0
 42 38  1  0  0  0  0
 43 39  1  0  0  0  0
 44 40  1  0  0  0  0
M  END
>  <minimizedAffinity>
-6.37937021

>  <minimizedRMSD>
0.479189157

$$$$
