
 OpenBabel03272509353D

 46 50  0  0  1  0  0  0  0  0999 V2000
   36.0600   30.7320   45.2940 C   0  0  1  0  0  0  0  0  0  0  0  0
   37.2720   30.9790   46.1130 C   0  0  0  0  0  0  0  0  0  0  0  0
   37.4100   29.8960   45.1620 C   0  0  2  0  0  0  0  0  0  0  0  0
   35.8090   31.2670   44.3740 H   0  0  0  0  0  0  0  0  0  0  0  0
   37.5520   32.0360   46.0390 H   0  0  0  0  0  0  0  0  0  0  0  0
   37.1510   30.6750   47.2060 H   0  0  0  0  0  0  0  0  0  0  0  0
   37.1500   28.8470   45.2160 H   0  0  0  0  0  0  0  0  0  0  0  0
   38.3290   30.2850   44.0380 C   0  0  0  0  0  0  0  0  0  0  0  0
   39.4390   30.9610   44.5310 C   0  0  0  0  0  0  0  0  0  0  0  0
   40.4640   31.3150   43.6910 C   0  0  0  0  0  0  0  0  0  0  0  0
   40.4120   31.0020   42.3250 C   0  0  0  0  0  0  0  0  0  0  0  0
   39.2970   30.3290   41.8670 C   0  0  0  0  0  0  0  0  0  0  0  0
   39.1330   29.9810   40.5560 C   0  0  0  0  0  0  0  0  0  0  0  0
   38.0150   29.3170   40.0780 C   0  0  0  0  0  0  0  0  0  0  0  0
   37.0100   28.9870   40.9730 C   0  0  0  0  0  0  0  0  0  0  0  0
   37.1760   29.3360   42.2960 C   0  0  0  0  0  0  0  0  0  0  0  0
   38.3110   30.0000   42.7270 C   0  0  0  0  0  0  0  0  0  0  0  0
   39.7760   31.3170   45.4840 H   0  0  0  0  0  0  0  0  0  0  0  0
   41.3900   31.8370   43.8920 H   0  0  0  0  0  0  0  0  0  0  0  0
   41.1440   31.2170   41.5500 H   0  0  0  0  0  0  0  0  0  0  0  0
   39.8860   30.2150   39.8170 H   0  0  0  0  0  0  0  0  0  0  0  0
   37.8940   29.0450   39.0350 H   0  0  0  0  0  0  0  0  0  0  0  0
   36.1030   28.4700   40.6930 H   0  0  0  0  0  0  0  0  0  0  0  0
   36.3700   29.0690   43.0010 H   0  0  0  0  0  0  0  0  0  0  0  0
   32.7910   28.9270   45.8410 C   0  0  0  0  0  0  0  0  0  0  0  0
   33.8240   29.6960   45.2150 C   0  0  0  0  0  0  0  0  0  0  0  0
   34.9770   29.9250   45.9110 C   0  0  0  0  0  0  0  0  0  0  0  0
   35.0570   29.3860   47.1860 N   0  0  0  0  0  0  0  0  0  0  0  0
   34.0760   28.6690   47.7500 C   0  0  0  0  0  0  0  0  0  0  0  0
   32.9350   28.4280   47.0950 N   0  0  0  0  0  0  0  0  0  0  0  0
   31.9250   28.7920   45.2350 H   0  0  0  0  0  0  0  0  0  0  0  0
   33.6920   30.0800   44.2300 H   0  0  0  0  0  0  0  0  0  0  0  0
   34.3220   28.1860   49.1400 C   0  0  0  0  0  0  0  0  0  0  0  0
   33.5360   27.4750   49.4380 H   0  0  0  0  0  0  0  0  0  0  0  0
   35.3360   27.7480   49.2010 H   0  0  0  0  0  0  0  0  0  0  0  0
   34.2590   29.3950   50.0850 C   0  0  0  0  0  0  0  0  0  0  0  0
   33.4510   30.0920   49.7300 H   0  0  0  0  0  0  0  0  0  0  0  0
   33.9350   29.0810   51.0890 H   0  0  0  0  0  0  0  0  0  0  0  0
   35.5190   30.1580   50.0470 C   0  0  0  0  0  0  0  0  0  0  0  0
   36.5670   29.3240   50.4380 C   0  0  0  0  0  0  0  0  0  0  0  0
   36.5050   28.2710   50.7340 H   0  0  0  0  0  0  0  0  0  0  0  0
   37.9090   29.7120   50.5170 C   0  0  0  0  0  0  0  0  0  0  0  0
   38.7300   29.0940   50.8140 H   0  0  0  0  0  0  0  0  0  0  0  0
   38.2370   31.0220   50.1870 C   0  0  0  0  0  0  0  0  0  0  0  0
   37.1840   31.8090   49.8080 C   0  0  0  0  0  0  0  0  0  0  0  0
   35.9250   31.3900   49.7500 N   0  0  0  0  0  0  0  0  0  0  0  0
  1  4  1  6  0  0  0
  1 27  1  0  0  0  0
  1  2  1  0  0  0  0
  2  6  1  0  0  0  0
  3  7  1  1  0  0  0
  3  1  1  0  0  0  0
  3  2  1  0  0  0  0
  5  2  1  0  0  0  0
  8  9  1  0  0  0  0
  8  3  1  0  0  0  0
  9 18  1  0  0  0  0
 10 19  1  0  0  0  0
 10  9  2  0  0  0  0
 11 10  1  0  0  0  0
 12 11  2  0  0  0  0
 12 17  1  0  0  0  0
 13 12  1  0  0  0  0
 14 13  2  0  0  0  0
 14 15  1  0  0  0  0
 15 16  2  0  0  0  0
 16 17  1  0  0  0  0
 16 24  1  0  0  0  0
 17  8  2  0  0  0  0
 20 11  1  0  0  0  0
 21 13  1  0  0  0  0
 22 14  1  0  0  0  0
 23 15  1  0  0  0  0
 25 30  1  0  0  0  0
 26 25  2  0  0  0  0
 26 27  1  0  0  0  0
 27 28  2  0  0  0  0
 28 29  1  0  0  0  0
 29 33  1  0  0  0  0
 30 29  2  0  0  0  0
 31 25  1  0  0  0  0
 32 26  1  0  0  0  0
 33 35  1  0  0  0  0
 33 34  1  0  0  0  0
 33 36  1  0  0  0  0
 36 38  1  0  0  0  0
 37 36  1  0  0  0  0
 39 36  1  0  0  0  0
 39 40  1  0  0  0  0
 40 42  2  0  0  0  0
 40 41  1  0  0  0  0
 42 43  1  0  0  0  0
 44 42  1  0  0  0  0
 45 44  2  0  0  0  0
 46 45  1  0  0  0  0
 46 39  2  0  0  0  0
M  END
>  <minimizedAffinity>
-5.58886528

>  <minimizedRMSD>
2.95763469

$$$$
