
 OpenBabel03272506383D

 36 38  0  0  1  0  0  0  0  0999 V2000
   34.1390   28.8880   49.8280 O   0  0  0  0  0  0  0  0  0  0  0  0
   34.1200   29.1630   48.6210 C   0  0  0  0  0  0  0  0  0  0  0  0
   34.9960   30.1610   48.0520 C   0  0  2  0  0  0  0  0  0  0  0  0
   34.7200   29.9800   46.5280 C   0  0  0  0  0  0  0  0  0  0  0  0
   33.3280   29.4300   46.4960 C   0  0  0  0  0  0  0  0  0  0  0  0
   33.2570   28.5510   47.6540 N   0  0  0  0  0  0  0  0  0  0  0  0
   34.7000   31.1830   48.3310 H   0  0  0  0  0  0  0  0  0  0  0  0
   34.7470   31.0040   46.1180 H   0  0  0  0  0  0  0  0  0  0  0  0
   35.4690   29.3160   46.0680 H   0  0  0  0  0  0  0  0  0  0  0  0
   33.2650   28.7560   45.5960 H   0  0  0  0  0  0  0  0  0  0  0  0
   32.5560   30.2020   46.5010 H   0  0  0  0  0  0  0  0  0  0  0  0
   32.4680   27.3300   47.7710 C   0  0  0  0  0  0  0  0  0  0  0  0
   32.4210   26.8770   46.7660 H   0  0  0  0  0  0  0  0  0  0  0  0
   32.9060   26.6510   48.5290 H   0  0  0  0  0  0  0  0  0  0  0  0
   31.1120   27.7830   48.1810 C   0  0  0  0  0  0  0  0  0  0  0  0
   30.6840   27.6720   49.4860 C   0  0  0  0  0  0  0  0  0  0  0  0
   31.4010   27.2330   50.1940 H   0  0  0  0  0  0  0  0  0  0  0  0
   29.4710   28.0450   50.0060 C   0  0  0  0  0  0  0  0  0  0  0  0
   29.2400   27.9120   51.0500 H   0  0  0  0  0  0  0  0  0  0  0  0
   28.5810   28.6010   49.0840 C   0  0  0  0  0  0  0  0  0  0  0  0
   28.9850   28.7240   47.7680 C   0  0  0  0  0  0  0  0  0  0  0  0
   30.2060   28.3260   47.3440 N   0  0  0  0  0  0  0  0  0  0  0  0
   36.3860   29.8980   48.2290 O   0  0  0  0  0  0  0  0  0  0  0  0
   37.2460   30.9900   48.3190 C   0  0  0  0  0  0  0  0  0  0  0  0
   37.4320   31.5430   49.5730 C   0  0  0  0  0  0  0  0  0  0  0  0
   38.2830   32.6320   49.6860 C   0  0  0  0  0  0  0  0  0  0  0  0
   38.8940   33.1050   48.5700 N   0  0  0  0  0  0  0  0  0  0  0  0
   38.7030   32.5550   47.3570 C   0  0  0  0  0  0  0  0  0  0  0  0
   37.8910   31.5210   47.2640 N   0  0  0  0  0  0  0  0  0  0  0  0
   40.1950   32.1160   45.5690 C   0  0  0  0  0  0  0  0  0  0  0  0
   40.4060   30.9140   45.9080 O   0  0  0  0  0  0  0  0  0  0  0  0
   39.3590   33.0790   46.2040 N   0  0  0  0  0  0  0  0  0  0  0  0
   36.9580   31.1860   50.4770 H   0  0  0  0  0  0  0  0  0  0  0  0
   38.4350   33.0730   50.6650 H   0  0  0  0  0  0  0  0  0  0  0  0
   40.8050   32.2360   44.6810 H   0  0  0  0  0  0  0  0  0  0  0  0
   39.3330   34.0080   45.7600 H   0  0  0  0  0  0  0  0  0  0  0  0
  2  1  2  0  0  0  0
  3 23  1  0  0  0  0
  3  7  1  1  0  0  0
  3  2  1  0  0  0  0
  4  3  1  0  0  0  0
  5 11  1  0  0  0  0
  5  4  1  0  0  0  0
  5  6  1  0  0  0  0
  6 12  1  0  0  0  0
  6  2  1  0  0  0  0
  8  4  1  0  0  0  0
  9  4  1  0  0  0  0
 10  5  1  0  0  0  0
 12 15  1  0  0  0  0
 12 14  1  0  0  0  0
 13 12  1  0  0  0  0
 15 16  1  0  0  0  0
 16 18  2  0  0  0  0
 16 17  1  0  0  0  0
 18 19  1  0  0  0  0
 20 18  1  0  0  0  0
 21 20  2  0  0  0  0
 22 21  1  0  0  0  0
 22 15  2  0  0  0  0
 23 24  1  0  0  0  0
 24 25  1  0  0  0  0
 25 26  2  0  0  0  0
 25 33  1  0  0  0  0
 26 34  1  0  0  0  0
 27 26  1  0  0  0  0
 28 27  2  0  0  0  0
 29 28  1  0  0  0  0
 29 24  2  0  0  0  0
 30 31  2  0  0  0  0
 30 32  1  0  0  0  0
 32 28  1  0  0  0  0
 35 30  1  0  0  0  0
 36 32  1  0  0  0  0
M  END
>  <minimizedAffinity>
-6.20824337

>  <minimizedRMSD>
1.42551994

$$$$
