
 OpenBabel03272509463D

 24 25  0  0  0  0  0  0  0  0999 V2000
   34.5090   30.0260   47.2420 C   0  0  0  0  0  0  0  0  0  0  0  0
   35.3150   29.3570   46.8760 H   0  0  0  0  0  0  0  0  0  0  0  0
   34.7910   31.0550   46.9100 H   0  0  0  0  0  0  0  0  0  0  0  0
   33.1640   29.6380   46.6700 C   0  0  0  0  0  0  0  0  0  0  0  0
   33.2810   29.6280   45.5500 H   0  0  0  0  0  0  0  0  0  0  0  0
   32.3720   30.3450   46.9210 H   0  0  0  0  0  0  0  0  0  0  0  0
   32.8830   28.2290   47.0540 C   0  0  0  0  0  0  0  0  0  0  0  0
   31.6160   28.0140   47.5730 C   0  0  0  0  0  0  0  0  0  0  0  0
   30.8690   28.7970   47.6970 H   0  0  0  0  0  0  0  0  0  0  0  0
   31.3110   26.7060   47.9470 C   0  0  0  0  0  0  0  0  0  0  0  0
   30.3060   26.5400   48.3560 H   0  0  0  0  0  0  0  0  0  0  0  0
   32.2080   25.6540   47.8180 C   0  0  0  0  0  3  0  0  0  0  0  0
   33.4650   25.9520   47.2880 C   0  0  0  0  0  3  0  0  0  0  0  0
   33.7680   27.2190   46.9230 N   0  0  0  0  0  0  0  0  0  0  0  0
   34.4460   30.0600   48.6460 O   0  0  0  0  0  0  0  0  0  0  0  0
   37.3500   29.3400   50.7000 C   0  0  0  0  0  0  0  0  0  0  0  0
   37.9800   30.5910   50.6520 C   0  0  0  0  0  0  0  0  0  0  0  0
   37.3830   31.6120   49.9230 C   0  0  0  0  0  0  0  0  0  0  0  0
   36.2040   31.3090   49.2990 N   0  0  0  0  0  0  0  0  0  0  0  0
   35.6180   30.0960   49.3610 C   0  0  0  0  0  0  0  0  0  0  0  0
   36.2120   29.1250   50.0700 N   0  0  0  0  0  0  0  0  0  0  0  0
   37.8520   28.5870   51.2770 H   0  0  0  0  0  0  0  0  0  0  0  0
   38.9210   30.8660   51.1400 H   0  0  0  0  0  0  0  0  0  0  0  0
   37.8170   32.6050   49.8450 H   0  0  0  0  0  0  0  0  0  0  0  0
  1 15  1  0  0  0  0
  2  1  1  0  0  0  0
  3  1  1  0  0  0  0
  4  6  1  0  0  0  0
  4  7  1  0  0  0  0
  4  1  1  0  0  0  0
  5  4  1  0  0  0  0
  7  8  1  0  0  0  0
  8  9  1  0  0  0  0
  8 10  2  0  0  0  0
 10 11  1  0  0  0  0
 12 10  1  0  0  0  0
 13 12  2  0  0  0  0
 14  7  2  0  0  0  0
 14 13  1  0  0  0  0
 15 20  1  0  0  0  0
 16 22  1  0  0  0  0
 17 16  1  0  0  0  0
 17 23  1  0  0  0  0
 18 17  2  0  0  0  0
 19 20  2  0  0  0  0
 19 18  1  0  0  0  0
 20 21  1  0  0  0  0
 21 16  2  0  0  0  0
 24 18  1  0  0  0  0
M  END
>  <minimizedAffinity>
-3.68646979

>  <minimizedRMSD>
2.21837664

$$$$
