
 OpenBabel03272509463D

 24 25  0  0  0  0  0  0  0  0999 V2000
   30.6400   29.0420   45.9520 C   0  0  0  0  0  0  0  0  0  0  0  0
   31.1290   28.3520   45.2330 H   0  0  0  0  0  0  0  0  0  0  0  0
   29.6950   29.3780   45.4590 H   0  0  0  0  0  0  0  0  0  0  0  0
   30.3330   28.3520   47.2630 C   0  0  0  0  0  0  0  0  0  0  0  0
   30.9100   28.9010   48.0590 H   0  0  0  0  0  0  0  0  0  0  0  0
   30.6450   27.3070   47.2800 H   0  0  0  0  0  0  0  0  0  0  0  0
   28.8980   28.5770   47.5820 C   0  0  0  0  0  0  0  0  0  0  0  0
   28.0110   27.9260   46.7400 C   0  0  0  0  0  0  0  0  0  0  0  0
   28.3160   27.2960   45.9070 H   0  0  0  0  0  0  0  0  0  0  0  0
   26.6530   28.1120   47.0050 C   0  0  0  0  0  0  0  0  0  0  0  0
   25.9540   27.5940   46.3360 H   0  0  0  0  0  0  0  0  0  0  0  0
   26.1870   28.8990   48.0470 C   0  0  0  0  0  3  0  0  0  0  0  0
   27.1450   29.5210   48.8510 C   0  0  0  0  0  3  0  0  0  0  0  0
   28.4630   29.3470   48.6000 N   0  0  0  0  0  0  0  0  0  0  0  0
   31.4060   30.1990   46.1820 O   0  0  0  0  0  0  0  0  0  0  0  0
   34.7160   30.1320   44.6960 C   0  0  0  0  0  0  0  0  0  0  0  0
   35.4900   30.0680   45.8640 C   0  0  0  0  0  0  0  0  0  0  0  0
   34.8430   30.0510   47.0930 C   0  0  0  0  0  0  0  0  0  0  0  0
   33.4760   30.0990   47.0650 N   0  0  0  0  0  0  0  0  0  0  0  0
   32.7550   30.1610   45.9280 C   0  0  0  0  0  0  0  0  0  0  0  0
   33.4000   30.1760   44.7520 N   0  0  0  0  0  0  0  0  0  0  0  0
   35.2650   30.1420   43.7750 H   0  0  0  0  0  0  0  0  0  0  0  0
   36.5820   30.0290   45.9200 H   0  0  0  0  0  0  0  0  0  0  0  0
   35.3810   30.0030   48.0360 H   0  0  0  0  0  0  0  0  0  0  0  0
  1 15  1  0  0  0  0
  1  4  1  0  0  0  0
  2  1  1  0  0  0  0
  3  1  1  0  0  0  0
  4  6  1  0  0  0  0
  4  7  1  0  0  0  0
  4  5  1  0  0  0  0
  7 14  1  0  0  0  0
  8 10  1  0  0  0  0
  8  7  2  0  0  0  0
  9  8  1  0  0  0  0
 10 12  2  0  0  0  0
 11 10  1  0  0  0  0
 12 13  1  0  0  0  0
 14 13  2  0  0  0  0
 16 21  2  0  0  0  0
 16 17  1  0  0  0  0
 17 23  1  0  0  0  0
 17 18  2  0  0  0  0
 18 24  1  0  0  0  0
 19 18  1  0  0  0  0
 20 15  1  0  0  0  0
 20 19  2  0  0  0  0
 21 20  1  0  0  0  0
 22 16  1  0  0  0  0
M  END
>  <minimizedAffinity>
-3.1012001

>  <minimizedRMSD>
5.42657518

$$$$
