
 OpenBabel03272507543D

 22 23  0  0  0  0  0  0  0  0999 V2000
   35.6140   30.5600   48.4440 C   0  0  0  0  0  0  0  0  0  0  0  0
   36.8170   31.1340   47.9420 C   0  0  0  0  0  0  0  0  0  0  0  0
   37.0910   30.9940   46.5900 C   0  0  0  0  0  0  0  0  0  0  0  0
   36.1990   30.3120   45.8070 N   0  0  0  0  0  0  0  0  0  0  0  0
   35.0600   29.7790   46.3350 C   0  0  0  0  0  0  0  0  0  0  0  0
   34.7660   29.8970   47.6330 N   0  0  0  0  0  0  0  0  0  0  0  0
   34.2900   29.1210   45.3290 N   0  0  0  0  0  0  0  0  0  0  0  0
   35.3800   30.6590   49.4990 H   0  0  0  0  0  0  0  0  0  0  0  0
   33.5750   29.6780   44.8240 H   0  0  0  0  0  0  0  0  0  0  0  0
   34.6720   28.1410   45.3480 H   0  0  0  0  0  0  0  0  0  0  0  0
   38.3120   31.5700   46.0370 C   0  0  0  0  0  0  0  0  0  0  0  0
   39.3990   30.7030   46.1310 C   0  0  0  0  0  0  0  0  0  0  0  0
   39.4060   29.6990   46.5550 H   0  0  0  0  0  0  0  0  0  0  0  0
   40.6350   31.1030   45.6500 C   0  0  0  0  0  0  0  0  0  0  0  0
   41.5590   30.5410   45.6560 H   0  0  0  0  0  0  0  0  0  0  0  0
   40.7800   32.3520   45.0830 C   0  0  0  0  0  3  0  0  0  0  0  0
   39.6810   33.1920   45.0030 C   0  0  0  0  0  3  0  0  0  0  0  0
   38.4930   32.7810   45.4780 N   0  0  0  0  0  0  0  0  0  0  0  0
   37.7130   31.8530   48.8830 C   0  0  0  0  0  0  0  0  0  0  0  0
   38.8710   31.1260   49.1320 F   0  0  0  0  0  0  0  0  0  0  0  0
   38.0620   33.0510   48.3190 F   0  0  0  0  0  0  0  0  0  0  0  0
   37.1170   32.1080   50.1040 F   0  0  0  0  0  0  0  0  0  0  0  0
  1  8  1  0  0  0  0
  2  1  1  0  0  0  0
  2 19  1  0  0  0  0
  3  2  2  0  0  0  0
  4  5  2  0  0  0  0
  4  3  1  0  0  0  0
  5  6  1  0  0  0  0
  6  1  2  0  0  0  0
  7 10  1  0  0  0  0
  7  5  1  0  0  0  0
  9  7  1  0  0  0  0
 11 12  1  0  0  0  0
 11  3  1  0  0  0  0
 12 13  1  0  0  0  0
 14 15  1  0  0  0  0
 14 12  2  0  0  0  0
 16 14  1  0  0  0  0
 17 16  2  0  0  0  0
 17 18  1  0  0  0  0
 18 11  2  0  0  0  0
 19 20  1  0  0  0  0
 19 22  1  0  0  0  0
 21 19  1  0  0  0  0
M  END
>  <minimizedAffinity>
-5.32737732

>  <minimizedRMSD>
2.44404626

$$$$
