
 OpenBabel03272502583D

 33 35  0  0  1  0  0  0  0  0999 V2000
   35.8590   29.7120   48.7220 N   0  0  0  0  0  0  0  0  0  0  0  0
   36.5190   28.8850   49.7090 C   0  0  0  0  0  0  0  0  0  0  0  0
   36.9910   29.5270   50.9310 C   0  0  0  0  0  0  0  0  0  0  0  0
   37.3570   30.9560   50.8780 C   0  0  0  0  0  0  0  0  0  0  0  0
   36.6550   31.7170   49.7840 C   0  0  0  0  0  0  0  0  0  0  0  0
   36.6720   30.8780   48.5040 C   0  0  1  0  0  0  0  0  0  0  0  0
   37.3840   28.4180   49.1870 H   0  0  0  0  0  0  0  0  0  0  0  0
   35.8660   28.0170   49.9850 H   0  0  0  0  0  0  0  0  0  0  0  0
   36.1940   29.4230   51.7190 H   0  0  0  0  0  0  0  0  0  0  0  0
   37.8460   28.9420   51.3420 H   0  0  0  0  0  0  0  0  0  0  0  0
   38.4600   31.0260   50.6500 H   0  0  0  0  0  0  0  0  0  0  0  0
   37.2380   31.4820   51.8410 H   0  0  0  0  0  0  0  0  0  0  0  0
   35.6040   31.8830   50.0660 H   0  0  0  0  0  0  0  0  0  0  0  0
   37.1750   32.6780   49.5710 H   0  0  0  0  0  0  0  0  0  0  0  0
   36.2850   31.5340   47.7180 H   0  0  0  0  0  0  0  0  0  0  0  0
   34.6220   29.4070   48.0890 C   0  0  0  0  0  0  0  0  0  0  0  0
   34.1200   30.0910   46.9800 C   0  0  0  0  0  0  0  0  0  0  0  0
   32.8990   29.6890   46.4620 C   0  0  0  0  0  0  0  0  0  0  0  0
   32.2510   28.6560   47.0500 N   0  0  0  0  0  0  0  0  0  0  0  0
   32.7720   28.0160   48.1260 C   0  0  0  0  0  0  0  0  0  0  0  0
   33.9500   28.3940   48.6380 N   0  0  0  0  0  0  0  0  0  0  0  0
   34.6930   30.8890   46.5830 H   0  0  0  0  0  0  0  0  0  0  0  0
   32.4920   30.2080   45.6010 H   0  0  0  0  0  0  0  0  0  0  0  0
   32.2060   27.1890   48.5620 H   0  0  0  0  0  0  0  0  0  0  0  0
   38.0300   30.5320   48.3170 O   0  0  0  0  0  0  0  0  0  0  0  0
   38.6380   31.0750   47.1910 C   0  0  0  0  0  0  0  0  0  0  0  0
   39.1880   32.3390   47.2480 C   0  0  0  0  0  0  0  0  0  0  0  0
   39.1140   32.8610   48.2090 H   0  0  0  0  0  0  0  0  0  0  0  0
   39.8240   33.0110   46.2170 C   0  0  0  0  0  0  0  0  0  0  0  0
   40.2170   33.9930   46.3730 H   0  0  0  0  0  0  0  0  0  0  0  0
   39.8830   32.2960   45.0350 C   0  0  0  0  0  0  0  0  0  0  0  0
   39.3430   31.0270   44.9380 C   0  0  0  0  0  0  0  0  0  0  0  0
   38.7420   30.4520   45.9980 N   0  0  0  0  0  0  0  0  0  0  0  0
  1  2  1  0  0  0  0
  2  8  1  0  0  0  0
  2  3  1  0  0  0  0
  3 10  1  0  0  0  0
  3  9  1  0  0  0  0
  4  3  1  0  0  0  0
  4 12  1  0  0  0  0
  5 13  1  0  0  0  0
  5  4  1  0  0  0  0
  6 15  1  6  0  0  0
  6  1  1  0  0  0  0
  6  5  1  0  0  0  0
  7  2  1  0  0  0  0
 11  4  1  0  0  0  0
 14  5  1  0  0  0  0
 16 21  1  0  0  0  0
 16  1  1  0  0  0  0
 17 16  2  0  0  0  0
 18 17  1  0  0  0  0
 18 19  2  0  0  0  0
 19 20  1  0  0  0  0
 20 24  1  0  0  0  0
 20 21  2  0  0  0  0
 22 17  1  0  0  0  0
 23 18  1  0  0  0  0
 25  6  1  0  0  0  0
 26 27  1  0  0  0  0
 26 25  1  0  0  0  0
 27 28  1  0  0  0  0
 29 30  1  0  0  0  0
 29 27  2  0  0  0  0
 31 29  1  0  0  0  0
 32 31  2  0  0  0  0
 32 33  1  0  0  0  0
 33 26  2  0  0  0  0
M  END
>  <minimizedAffinity>
-5.8125248

>  <minimizedRMSD>
0.32702893

$$$$
