
 OpenBabel03272506383D

 36 38  0  0  1  0  0  0  0  0999 V2000
   35.0250   28.2910   49.8690 O   0  0  0  0  0  0  0  0  0  0  0  0
   34.8200   28.7390   48.7340 C   0  0  0  0  0  0  0  0  0  0  0  0
   35.5010   29.9160   48.2440 C   0  0  2  0  0  0  0  0  0  0  0  0
   35.0500   29.9330   46.7510 C   0  0  0  0  0  0  0  0  0  0  0  0
   33.7360   29.2190   46.7820 C   0  0  0  0  0  0  0  0  0  0  0  0
   33.9120   28.1740   47.7800 N   0  0  0  0  0  0  0  0  0  0  0  0
   35.1320   30.8390   48.7190 H   0  0  0  0  0  0  0  0  0  0  0  0
   34.9110   31.0020   46.5150 H   0  0  0  0  0  0  0  0  0  0  0  0
   35.8020   29.4480   46.1080 H   0  0  0  0  0  0  0  0  0  0  0  0
   33.6310   28.6860   45.7960 H   0  0  0  0  0  0  0  0  0  0  0  0
   32.8900   29.8760   47.0010 H   0  0  0  0  0  0  0  0  0  0  0  0
   33.2830   26.8580   47.7800 C   0  0  0  0  0  0  0  0  0  0  0  0
   33.3330   26.4760   46.7470 H   0  0  0  0  0  0  0  0  0  0  0  0
   33.7770   26.1880   48.5120 H   0  0  0  0  0  0  0  0  0  0  0  0
   31.8660   27.1060   48.1560 C   0  0  0  0  0  0  0  0  0  0  0  0
   30.8280   26.6870   47.3530 C   0  0  0  0  0  0  0  0  0  0  0  0
   31.1120   26.1660   46.4280 H   0  0  0  0  0  0  0  0  0  0  0  0
   29.4830   26.8440   47.5690 C   0  0  0  0  0  0  0  0  0  0  0  0
   28.7520   26.4760   46.8690 H   0  0  0  0  0  0  0  0  0  0  0  0
   29.1510   27.5100   48.7520 C   0  0  0  0  0  3  0  0  0  0  0  0
   30.1730   27.9400   49.5770 C   0  0  0  0  0  3  0  0  0  0  0  0
   31.4770   27.7400   49.2800 N   0  0  0  0  0  0  0  0  0  0  0  0
   36.9210   29.8110   48.2210 O   0  0  0  0  0  0  0  0  0  0  0  0
   37.6600   30.9920   48.2560 C   0  0  0  0  0  0  0  0  0  0  0  0
   37.7860   31.6190   49.4830 C   0  0  0  0  0  0  0  0  0  0  0  0
   38.5150   32.7960   49.5430 C   0  0  0  0  0  0  0  0  0  0  0  0
   39.0710   33.2810   48.4030 N   0  0  0  0  0  0  0  0  0  0  0  0
   38.9400   32.6600   47.2170 C   0  0  0  0  0  0  0  0  0  0  0  0
   38.2430   31.5410   47.1750 N   0  0  0  0  0  0  0  0  0  0  0  0
   40.4680   32.3020   45.4420 C   0  0  0  0  0  0  0  0  0  0  0  0
   40.8070   31.1460   45.8340 O   0  0  0  0  0  0  0  0  0  0  0  0
   39.5350   33.1980   46.0370 N   0  0  0  0  0  0  0  0  0  0  0  0
   37.3530   31.2540   50.4060 H   0  0  0  0  0  0  0  0  0  0  0  0
   38.6200   33.2950   50.5000 H   0  0  0  0  0  0  0  0  0  0  0  0
   41.0610   32.4460   44.5460 H   0  0  0  0  0  0  0  0  0  0  0  0
   39.4080   34.0980   45.5520 H   0  0  0  0  0  0  0  0  0  0  0  0
  2  1  2  0  0  0  0
  3  7  1  1  0  0  0
  3  2  1  0  0  0  0
  4  5  1  0  0  0  0
  4  3  1  0  0  0  0
  5 11  1  0  0  0  0
  5  6  1  0  0  0  0
  6  2  1  0  0  0  0
  8  4  1  0  0  0  0
  9  4  1  0  0  0  0
 10  5  1  0  0  0  0
 12  6  1  0  0  0  0
 12 15  1  0  0  0  0
 12 14  1  0  0  0  0
 13 12  1  0  0  0  0
 15 22  1  0  0  0  0
 16 18  1  0  0  0  0
 16 15  2  0  0  0  0
 17 16  1  0  0  0  0
 18 20  2  0  0  0  0
 19 18  1  0  0  0  0
 20 21  1  0  0  0  0
 22 21  2  0  0  0  0
 23  3  1  0  0  0  0
 23 24  1  0  0  0  0
 24 25  1  0  0  0  0
 25 26  2  0  0  0  0
 25 33  1  0  0  0  0
 26 34  1  0  0  0  0
 27 26  1  0  0  0  0
 28 27  2  0  0  0  0
 29 28  1  0  0  0  0
 29 24  2  0  0  0  0
 30 31  2  0  0  0  0
 30 32  1  0  0  0  0
 32 28  1  0  0  0  0
 35 30  1  0  0  0  0
 36 32  1  0  0  0  0
M  END
>  <minimizedAffinity>
-5.98019314

>  <minimizedRMSD>
0.823182523

$$$$
