
 OpenBabel03272506403D

 36 38  0  0  1  0  0  0  0  0999 V2000
   36.5740   25.7890   32.8280 O   0  0  0  0  0  0  0  0  0  0  0  0
   37.3420   26.2000   33.7070 C   0  0  0  0  0  0  0  0  0  0  0  0
   37.4020   27.5960   34.0740 C   0  0  2  0  0  0  0  0  0  0  0  0
   38.3430   27.5470   35.3170 C   0  0  0  0  0  0  0  0  0  0  0  0
   39.1670   26.3220   35.0740 C   0  0  0  0  0  0  0  0  0  0  0  0
   38.2450   25.3790   34.4580 N   0  0  0  0  0  0  0  0  0  0  0  0
   37.8920   28.2090   33.3030 H   0  0  0  0  0  0  0  0  0  0  0  0
   38.9600   28.4580   35.2340 H   0  0  0  0  0  0  0  0  0  0  0  0
   37.7600   27.5100   36.2510 H   0  0  0  0  0  0  0  0  0  0  0  0
   39.4160   25.8910   36.0840 H   0  0  0  0  0  0  0  0  0  0  0  0
   40.0530   26.5090   34.4630 H   0  0  0  0  0  0  0  0  0  0  0  0
   38.2690   23.9260   34.5920 C   0  0  0  0  0  0  0  0  0  0  0  0
   37.2580   23.5620   34.3440 H   0  0  0  0  0  0  0  0  0  0  0  0
   39.0560   23.4870   33.9490 H   0  0  0  0  0  0  0  0  0  0  0  0
   38.5540   23.6760   36.0310 C   0  0  0  0  0  0  0  0  0  0  0  0
   37.6880   24.0960   37.0160 C   0  0  0  0  0  0  0  0  0  0  0  0
   36.7850   24.6200   36.6750 H   0  0  0  0  0  0  0  0  0  0  0  0
   37.8190   23.9370   38.3720 C   0  0  0  0  0  0  0  0  0  0  0  0
   37.0750   24.3080   39.0580 H   0  0  0  0  0  0  0  0  0  0  0  0
   38.9760   23.2660   38.7770 C   0  0  0  0  0  3  0  0  0  0  0  0
   39.8620   22.8340   37.8080 C   0  0  0  0  0  3  0  0  0  0  0  0
   39.6480   23.0370   36.4880 N   0  0  0  0  0  0  0  0  0  0  0  0
   36.1700   28.1390   34.5410 O   0  0  0  0  0  0  0  0  0  0  0  0
   35.9170   29.4850   34.2860 C   0  0  0  0  0  0  0  0  0  0  0  0
   35.7090   29.8480   32.9680 C   0  0  0  0  0  0  0  0  0  0  0  0
   35.4560   31.1830   32.6900 C   0  0  0  0  0  0  0  0  0  0  0  0
   35.4230   32.0710   33.7160 N   0  0  0  0  0  0  0  0  0  0  0  0
   35.6270   31.7020   34.9940 C   0  0  0  0  0  0  0  0  0  0  0  0
   35.8670   30.4290   35.2430 N   0  0  0  0  0  0  0  0  0  0  0  0
   34.5860   32.3670   37.0160 C   0  0  0  0  0  0  0  0  0  0  0  0
   33.7700   31.3980   37.0310 O   0  0  0  0  0  0  0  0  0  0  0  0
   35.5890   32.6620   36.0490 N   0  0  0  0  0  0  0  0  0  0  0  0
   35.7300   29.1620   32.1320 H   0  0  0  0  0  0  0  0  0  0  0  0
   35.2920   31.4780   31.6600 H   0  0  0  0  0  0  0  0  0  0  0  0
   34.3360   32.9170   37.9160 H   0  0  0  0  0  0  0  0  0  0  0  0
   36.1480   33.5080   36.2300 H   0  0  0  0  0  0  0  0  0  0  0  0
  1  2  2  0  0  0  0
  2  3  1  0  0  0  0
  2  6  1  0  0  0  0
  3  7  1  6  0  0  0
  3 23  1  0  0  0  0
  3  4  1  0  0  0  0
  4  9  1  0  0  0  0
  5  4  1  0  0  0  0
  5 10  1  0  0  0  0
  6 12  1  0  0  0  0
  6  5  1  0  0  0  0
  8  4  1  0  0  0  0
 11  5  1  0  0  0  0
 12 15  1  0  0  0  0
 13 12  1  0  0  0  0
 14 12  1  0  0  0  0
 15 22  2  0  0  0  0
 15 16  1  0  0  0  0
 16 18  2  0  0  0  0
 17 16  1  0  0  0  0
 18 20  1  0  0  0  0
 18 19  1  0  0  0  0
 21 20  2  0  0  0  0
 22 21  1  0  0  0  0
 24 23  1  0  0  0  0
 24 29  1  0  0  0  0
 25 24  2  0  0  0  0
 26 25  1  0  0  0  0
 26 27  2  0  0  0  0
 27 28  1  0  0  0  0
 28 29  2  0  0  0  0
 28 32  1  0  0  0  0
 30 31  2  0  0  0  0
 30 35  1  0  0  0  0
 32 36  1  0  0  0  0
 32 30  1  0  0  0  0
 33 25  1  0  0  0  0
 34 26  1  0  0  0  0
M  END
>  <minimizedAffinity>
-5.7350111

$$$$

 OpenBabel03272506403D

 36 38  0  0  1  0  0  0  0  0999 V2000
   36.6250   25.2430   32.5410 O   0  0  0  0  0  0  0  0  0  0  0  0
   37.5320   25.6720   33.2660 C   0  0  0  0  0  0  0  0  0  0  0  0
   37.8180   27.0850   33.3730 C   0  0  2  0  0  0  0  0  0  0  0  0
   38.8740   27.0980   34.5210 C   0  0  0  0  0  0  0  0  0  0  0  0
   39.4950   25.7400   34.4300 C   0  0  0  0  0  0  0  0  0  0  0  0
   38.3940   24.8580   34.0710 N   0  0  0  0  0  0  0  0  0  0  0  0
   38.2990   27.4830   32.4670 H   0  0  0  0  0  0  0  0  0  0  0  0
   39.5940   27.8810   34.2270 H   0  0  0  0  0  0  0  0  0  0  0  0
   38.3950   27.3020   35.4930 H   0  0  0  0  0  0  0  0  0  0  0  0
   39.7930   25.4470   35.4760 H   0  0  0  0  0  0  0  0  0  0  0  0
   40.3270   25.6900   33.7230 H   0  0  0  0  0  0  0  0  0  0  0  0
   38.2380   23.4610   34.4580 C   0  0  0  0  0  0  0  0  0  0  0  0
   37.1840   23.1910   34.2810 H   0  0  0  0  0  0  0  0  0  0  0  0
   38.9470   22.8190   33.8980 H   0  0  0  0  0  0  0  0  0  0  0  0
   38.5280   23.4290   35.9160 C   0  0  0  0  0  0  0  0  0  0  0  0
   37.7080   24.0610   36.8240 C   0  0  0  0  0  0  0  0  0  0  0  0
   36.8360   24.5830   36.4050 H   0  0  0  0  0  0  0  0  0  0  0  0
   37.8480   24.1170   38.1870 C   0  0  0  0  0  0  0  0  0  0  0  0
   37.1420   24.6440   38.8060 H   0  0  0  0  0  0  0  0  0  0  0  0
   38.9640   23.4430   38.6910 C   0  0  0  0  0  3  0  0  0  0  0  0
   39.8040   22.8000   37.8020 C   0  0  0  0  0  3  0  0  0  0  0  0
   39.5850   22.8000   36.4670 N   0  0  0  0  0  0  0  0  0  0  0  0
   36.7270   27.8750   33.8380 O   0  0  0  0  0  0  0  0  0  0  0  0
   36.1260   28.7470   32.9330 C   0  0  0  0  0  0  0  0  0  0  0  0
   36.7690   28.9400   31.7240 C   0  0  0  0  0  0  0  0  0  0  0  0
   36.1900   29.8040   30.8070 C   0  0  0  0  0  0  0  0  0  0  0  0
   35.0240   30.4180   31.1310 N   0  0  0  0  0  0  0  0  0  0  0  0
   34.4100   30.2200   32.3120 C   0  0  0  0  0  0  0  0  0  0  0  0
   34.9720   29.3950   33.1740 N   0  0  0  0  0  0  0  0  0  0  0  0
   32.1230   29.9720   32.8810 C   0  0  0  0  0  0  0  0  0  0  0  0
   32.1510   28.7060   32.8610 O   0  0  0  0  0  0  0  0  0  0  0  0
   33.1860   30.8840   32.6220 N   0  0  0  0  0  0  0  0  0  0  0  0
   37.6980   28.4630   31.4400 H   0  0  0  0  0  0  0  0  0  0  0  0
   36.6870   29.9620   29.8560 H   0  0  0  0  0  0  0  0  0  0  0  0
   31.0940   30.1940   33.1420 H   0  0  0  0  0  0  0  0  0  0  0  0
   32.9440   31.8830   32.6930 H   0  0  0  0  0  0  0  0  0  0  0  0
  1  2  2  0  0  0  0
  2  3  1  0  0  0  0
  2  6  1  0  0  0  0
  3  7  1  6  0  0  0
  3 23  1  0  0  0  0
  3  4  1  0  0  0  0
  4  9  1  0  0  0  0
  5  4  1  0  0  0  0
  5 10  1  0  0  0  0
  6  5  1  0  0  0  0
  6 12  1  0  0  0  0
  8  4  1  0  0  0  0
 11  5  1  0  0  0  0
 12 15  1  0  0  0  0
 13 12  1  0  0  0  0
 14 12  1  0  0  0  0
 15 22  2  0  0  0  0
 15 16  1  0  0  0  0
 16 18  2  0  0  0  0
 17 16  1  0  0  0  0
 18 20  1  0  0  0  0
 18 19  1  0  0  0  0
 21 20  2  0  0  0  0
 22 21  1  0  0  0  0
 24 29  1  0  0  0  0
 24 23  1  0  0  0  0
 25 24  2  0  0  0  0
 26 27  2  0  0  0  0
 26 25  1  0  0  0  0
 27 28  1  0  0  0  0
 28 32  1  0  0  0  0
 28 29  2  0  0  0  0
 30 35  1  0  0  0  0
 31 30  2  0  0  0  0
 32 36  1  0  0  0  0
 32 30  1  0  0  0  0
 33 25  1  0  0  0  0
 34 26  1  0  0  0  0
M  END
>  <minimizedAffinity>
-5.57831287

$$$$

 OpenBabel03272506403D

 36 38  0  0  1  0  0  0  0  0999 V2000
   37.1630   27.8530   35.4370 O   0  0  0  0  0  0  0  0  0  0  0  0
   36.9040   27.7350   34.2320 C   0  0  0  0  0  0  0  0  0  0  0  0
   37.5880   26.7750   33.3970 C   0  0  2  0  0  0  0  0  0  0  0  0
   36.7790   26.8910   32.0690 C   0  0  0  0  0  0  0  0  0  0  0  0
   36.2370   28.2850   32.1190 C   0  0  0  0  0  0  0  0  0  0  0  0
   35.9250   28.5040   33.5240 N   0  0  0  0  0  0  0  0  0  0  0  0
   38.6270   27.0710   33.1860 H   0  0  0  0  0  0  0  0  0  0  0  0
   37.5360   26.7910   31.2720 H   0  0  0  0  0  0  0  0  0  0  0  0
   35.9980   26.1140   32.0150 H   0  0  0  0  0  0  0  0  0  0  0  0
   35.2460   28.2690   31.5840 H   0  0  0  0  0  0  0  0  0  0  0  0
   36.9240   29.0320   31.7150 H   0  0  0  0  0  0  0  0  0  0  0  0
   34.8500   29.3350   34.0550 C   0  0  0  0  0  0  0  0  0  0  0  0
   34.0560   29.3660   33.2900 H   0  0  0  0  0  0  0  0  0  0  0  0
   34.4960   28.9420   35.0280 H   0  0  0  0  0  0  0  0  0  0  0  0
   35.4480   30.6880   34.2130 C   0  0  0  0  0  0  0  0  0  0  0  0
   35.8280   31.1630   35.4490 C   0  0  0  0  0  0  0  0  0  0  0  0
   35.6630   30.4860   36.2980 H   0  0  0  0  0  0  0  0  0  0  0  0
   36.3880   32.3800   35.7450 C   0  0  0  0  0  0  0  0  0  0  0  0
   36.6490   32.6500   36.7540 H   0  0  0  0  0  0  0  0  0  0  0  0
   36.5880   33.2180   34.6460 C   0  0  0  0  0  3  0  0  0  0  0  0
   36.2150   32.7660   33.3940 C   0  0  0  0  0  3  0  0  0  0  0  0
   35.6670   31.5450   33.1970 N   0  0  0  0  0  0  0  0  0  0  0  0
   37.4530   25.4200   33.8180 O   0  0  0  0  0  0  0  0  0  0  0  0
   38.5110   24.8520   34.5250 C   0  0  0  0  0  0  0  0  0  0  0  0
   39.7880   25.1260   34.0720 C   0  0  0  0  0  0  0  0  0  0  0  0
   40.8580   24.5710   34.7580 C   0  0  0  0  0  0  0  0  0  0  0  0
   40.6070   23.7880   35.8380 N   0  0  0  0  0  0  0  0  0  0  0  0
   39.3590   23.5310   36.2670 C   0  0  0  0  0  0  0  0  0  0  0  0
   38.3510   24.0660   35.6040 N   0  0  0  0  0  0  0  0  0  0  0  0
   38.4350   23.3820   38.4440 C   0  0  0  0  0  0  0  0  0  0  0  0
   38.0260   24.5810   38.4610 O   0  0  0  0  0  0  0  0  0  0  0  0
   39.1300   22.7010   37.4050 N   0  0  0  0  0  0  0  0  0  0  0  0
   40.0160   25.7460   33.2140 H   0  0  0  0  0  0  0  0  0  0  0  0
   41.8640   24.7800   34.4100 H   0  0  0  0  0  0  0  0  0  0  0  0
   38.1280   23.0010   39.4110 H   0  0  0  0  0  0  0  0  0  0  0  0
   39.3730   21.7190   37.5990 H   0  0  0  0  0  0  0  0  0  0  0  0
  2  1  2  0  0  0  0
  3  7  1  6  0  0  0
  3 23  1  0  0  0  0
  3  2  1  0  0  0  0
  4  5  1  0  0  0  0
  4  3  1  0  0  0  0
  5  6  1  0  0  0  0
  6 12  1  0  0  0  0
  6  2  1  0  0  0  0
  8  4  1  0  0  0  0
  9  4  1  0  0  0  0
 10  5  1  0  0  0  0
 11  5  1  0  0  0  0
 12 15  1  0  0  0  0
 12 14  1  0  0  0  0
 13 12  1  0  0  0  0
 15 16  1  0  0  0  0
 16 18  2  0  0  0  0
 16 17  1  0  0  0  0
 18 19  1  0  0  0  0
 20 18  1  0  0  0  0
 21 20  2  0  0  0  0
 22 21  1  0  0  0  0
 22 15  2  0  0  0  0
 23 24  1  0  0  0  0
 24 29  1  0  0  0  0
 25 24  2  0  0  0  0
 25 26  1  0  0  0  0
 26 27  2  0  0  0  0
 27 28  1  0  0  0  0
 28 32  1  0  0  0  0
 29 28  2  0  0  0  0
 30 31  2  0  0  0  0
 30 35  1  0  0  0  0
 32 36  1  0  0  0  0
 32 30  1  0  0  0  0
 33 25  1  0  0  0  0
 34 26  1  0  0  0  0
M  END
>  <minimizedAffinity>
-5.48706293

$$$$

 OpenBabel03272506403D

 36 38  0  0  1  0  0  0  0  0999 V2000
   36.6430   25.6640   32.7760 O   0  0  0  0  0  0  0  0  0  0  0  0
   37.4460   26.1000   33.6110 C   0  0  0  0  0  0  0  0  0  0  0  0
   37.5220   27.5060   33.9350 C   0  0  2  0  0  0  0  0  0  0  0  0
   38.5130   27.4920   35.1390 C   0  0  0  0  0  0  0  0  0  0  0  0
   39.3260   26.2590   34.8990 C   0  0  0  0  0  0  0  0  0  0  0  0
   38.3790   25.2990   34.3480 N   0  0  0  0  0  0  0  0  0  0  0  0
   37.9810   28.0960   33.1260 H   0  0  0  0  0  0  0  0  0  0  0  0
   39.1260   28.3990   35.0050 H   0  0  0  0  0  0  0  0  0  0  0  0
   37.9670   27.4820   36.0970 H   0  0  0  0  0  0  0  0  0  0  0  0
   39.6160   25.8570   35.9100 H   0  0  0  0  0  0  0  0  0  0  0  0
   40.1860   26.4260   34.2470 H   0  0  0  0  0  0  0  0  0  0  0  0
   38.4080   23.8510   34.5240 C   0  0  0  0  0  0  0  0  0  0  0  0
   37.4320   23.4650   34.1860 H   0  0  0  0  0  0  0  0  0  0  0  0
   39.2620   23.4080   33.9740 H   0  0  0  0  0  0  0  0  0  0  0  0
   38.5510   23.6430   35.9890 C   0  0  0  0  0  0  0  0  0  0  0  0
   39.6770   23.0540   36.5230 C   0  0  0  0  0  0  0  0  0  0  0  0
   40.4510   22.7530   35.8030 H   0  0  0  0  0  0  0  0  0  0  0  0
   39.9460   22.7990   37.8430 C   0  0  0  0  0  0  0  0  0  0  0  0
   40.8650   22.3300   38.1510 H   0  0  0  0  0  0  0  0  0  0  0  0
   38.9440   23.1920   38.7340 C   0  0  0  0  0  3  0  0  0  0  0  0
   37.8040   23.7850   38.2250 C   0  0  0  0  0  3  0  0  0  0  0  0
   37.6250   23.9970   36.9020 N   0  0  0  0  0  0  0  0  0  0  0  0
   36.3090   28.0640   34.4350 O   0  0  0  0  0  0  0  0  0  0  0  0
   35.8660   29.2590   33.8740 C   0  0  0  0  0  0  0  0  0  0  0  0
   35.5290   30.2770   34.7470 C   0  0  0  0  0  0  0  0  0  0  0  0
   35.0850   31.4770   34.2120 C   0  0  0  0  0  0  0  0  0  0  0  0
   35.0000   31.6010   32.8630 N   0  0  0  0  0  0  0  0  0  0  0  0
   35.3320   30.6010   32.0260 C   0  0  0  0  0  0  0  0  0  0  0  0
   35.7530   29.4660   32.5490 N   0  0  0  0  0  0  0  0  0  0  0  0
   36.4790   30.5920   29.9530 C   0  0  0  0  0  0  0  0  0  0  0  0
   37.6080   30.3290   30.4640 O   0  0  0  0  0  0  0  0  0  0  0  0
   35.2290   30.7640   30.6120 N   0  0  0  0  0  0  0  0  0  0  0  0
   35.5870   30.2050   35.8250 H   0  0  0  0  0  0  0  0  0  0  0  0
   34.8170   32.2810   34.8880 H   0  0  0  0  0  0  0  0  0  0  0  0
   36.6950   30.6550   28.8920 H   0  0  0  0  0  0  0  0  0  0  0  0
   34.4280   30.9760   30.0010 H   0  0  0  0  0  0  0  0  0  0  0  0
  1  2  2  0  0  0  0
  2  3  1  0  0  0  0
  2  6  1  0  0  0  0
  3  7  1  6  0  0  0
  3 23  1  0  0  0  0
  3  4  1  0  0  0  0
  4  9  1  0  0  0  0
  5  4  1  0  0  0  0
  5 10  1  0  0  0  0
  6 12  1  0  0  0  0
  6  5  1  0  0  0  0
  8  4  1  0  0  0  0
 11  5  1  0  0  0  0
 12 15  1  0  0  0  0
 13 12  1  0  0  0  0
 14 12  1  0  0  0  0
 15 16  2  0  0  0  0
 15 22  1  0  0  0  0
 16 18  1  0  0  0  0
 17 16  1  0  0  0  0
 18 19  1  0  0  0  0
 18 20  2  0  0  0  0
 21 20  1  0  0  0  0
 22 21  2  0  0  0  0
 24 23  1  0  0  0  0
 24 25  1  0  0  0  0
 25 33  1  0  0  0  0
 26 25  2  0  0  0  0
 26 34  1  0  0  0  0
 27 26  1  0  0  0  0
 28 29  1  0  0  0  0
 28 27  2  0  0  0  0
 29 24  2  0  0  0  0
 30 31  2  0  0  0  0
 30 32  1  0  0  0  0
 32 28  1  0  0  0  0
 35 30  1  0  0  0  0
 36 32  1  0  0  0  0
M  END
>  <minimizedAffinity>
-5.43011093

$$$$

 OpenBabel03272506403D

 36 38  0  0  1  0  0  0  0  0999 V2000
   36.4620   27.8270   34.7300 O   0  0  0  0  0  0  0  0  0  0  0  0
   36.0880   28.6140   33.8510 C   0  0  0  0  0  0  0  0  0  0  0  0
   35.2450   29.7480   34.1520 C   0  0  2  0  0  0  0  0  0  0  0  0
   35.2360   30.4960   32.7820 C   0  0  0  0  0  0  0  0  0  0  0  0
   35.4860   29.4010   31.7930 C   0  0  0  0  0  0  0  0  0  0  0  0
   36.4270   28.5140   32.4620 N   0  0  0  0  0  0  0  0  0  0  0  0
   34.2110   29.4500   34.3810 H   0  0  0  0  0  0  0  0  0  0  0  0
   34.2080   30.8850   32.6860 H   0  0  0  0  0  0  0  0  0  0  0  0
   35.9980   31.2920   32.7640 H   0  0  0  0  0  0  0  0  0  0  0  0
   36.0540   29.8600   30.9360 H   0  0  0  0  0  0  0  0  0  0  0  0
   34.5760   28.8900   31.4720 H   0  0  0  0  0  0  0  0  0  0  0  0
   37.4670   27.7120   31.8260 C   0  0  0  0  0  0  0  0  0  0  0  0
   37.6130   28.1180   30.8120 H   0  0  0  0  0  0  0  0  0  0  0  0
   38.3940   27.7220   32.4330 H   0  0  0  0  0  0  0  0  0  0  0  0
   36.8990   26.3400   31.7420 C   0  0  0  0  0  0  0  0  0  0  0  0
   35.7370   26.0860   31.0470 C   0  0  0  0  0  0  0  0  0  0  0  0
   35.2630   26.9530   30.5660 H   0  0  0  0  0  0  0  0  0  0  0  0
   35.1010   24.8820   30.8840 C   0  0  0  0  0  0  0  0  0  0  0  0
   34.1900   24.7980   30.3160 H   0  0  0  0  0  0  0  0  0  0  0  0
   35.7270   23.7990   31.5060 C   0  0  0  0  0  3  0  0  0  0  0  0
   36.8940   24.0250   32.2100 C   0  0  0  0  0  3  0  0  0  0  0  0
   37.4500   25.2530   32.3170 N   0  0  0  0  0  0  0  0  0  0  0  0
   35.8000   30.6650   35.0910 O   0  0  0  0  0  0  0  0  0  0  0  0
   34.9170   31.3920   35.8860 C   0  0  0  0  0  0  0  0  0  0  0  0
   35.3820   32.5820   36.4160 C   0  0  0  0  0  0  0  0  0  0  0  0
   34.5210   33.3230   37.2110 C   0  0  0  0  0  0  0  0  0  0  0  0
   33.2670   32.8530   37.4340 N   0  0  0  0  0  0  0  0  0  0  0  0
   32.8290   31.6940   36.9110 C   0  0  0  0  0  0  0  0  0  0  0  0
   33.6590   30.9990   36.1570 N   0  0  0  0  0  0  0  0  0  0  0  0
   30.7440   31.0700   35.9750 C   0  0  0  0  0  0  0  0  0  0  0  0
   31.1000   31.2940   34.7800 O   0  0  0  0  0  0  0  0  0  0  0  0
   31.5060   31.2270   37.1680 N   0  0  0  0  0  0  0  0  0  0  0  0
   36.3750   32.9790   36.2550 H   0  0  0  0  0  0  0  0  0  0  0  0
   34.8760   34.2580   37.6320 H   0  0  0  0  0  0  0  0  0  0  0  0
   29.7190   30.7320   35.8700 H   0  0  0  0  0  0  0  0  0  0  0  0
   31.0180   30.9880   38.0430 H   0  0  0  0  0  0  0  0  0  0  0  0
  2  3  1  0  0  0  0
  2  1  2  0  0  0  0
  3  7  1  1  0  0  0
  3 23  1  0  0  0  0
  4  3  1  0  0  0  0
  5  6  1  0  0  0  0
  5  4  1  0  0  0  0
  6  2  1  0  0  0  0
  8  4  1  0  0  0  0
  9  4  1  0  0  0  0
 10  5  1  0  0  0  0
 11  5  1  0  0  0  0
 12 14  1  0  0  0  0
 12  6  1  0  0  0  0
 13 12  1  0  0  0  0
 15 12  1  0  0  0  0
 15 22  1  0  0  0  0
 16 15  2  0  0  0  0
 17 16  1  0  0  0  0
 18 16  1  0  0  0  0
 18 20  2  0  0  0  0
 19 18  1  0  0  0  0
 20 21  1  0  0  0  0
 21 22  2  0  0  0  0
 23 24  1  0  0  0  0
 24 29  2  0  0  0  0
 24 25  1  0  0  0  0
 25 26  2  0  0  0  0
 26 27  1  0  0  0  0
 26 34  1  0  0  0  0
 28 32  1  0  0  0  0
 28 27  2  0  0  0  0
 29 28  1  0  0  0  0
 30 32  1  0  0  0  0
 31 30  2  0  0  0  0
 32 36  1  0  0  0  0
 33 25  1  0  0  0  0
 35 30  1  0  0  0  0
M  END
>  <minimizedAffinity>
-5.39061785

$$$$

 OpenBabel03272506403D

 36 38  0  0  1  0  0  0  0  0999 V2000
   38.1410   25.4690   32.2570 O   0  0  0  0  0  0  0  0  0  0  0  0
   37.0410   25.1730   31.7740 C   0  0  0  0  0  0  0  0  0  0  0  0
   36.0070   26.1620   31.5690 C   0  0  2  0  0  0  0  0  0  0  0  0
   34.9430   25.3360   30.7830 C   0  0  0  0  0  0  0  0  0  0  0  0
   35.2050   23.9310   31.2250 C   0  0  0  0  0  0  0  0  0  0  0  0
   36.6520   23.8560   31.3650 N   0  0  0  0  0  0  0  0  0  0  0  0
   35.5490   26.4880   32.5160 H   0  0  0  0  0  0  0  0  0  0  0  0
   33.9730   25.6950   31.1670 H   0  0  0  0  0  0  0  0  0  0  0  0
   35.0540   25.4860   29.6960 H   0  0  0  0  0  0  0  0  0  0  0  0
   34.9460   23.2620   30.3570 H   0  0  0  0  0  0  0  0  0  0  0  0
   34.6760   23.6590   32.1420 H   0  0  0  0  0  0  0  0  0  0  0  0
   37.4870   22.6820   31.1350 C   0  0  0  0  0  0  0  0  0  0  0  0
   37.5860   22.5630   30.0440 H   0  0  0  0  0  0  0  0  0  0  0  0
   38.4640   22.7910   31.6470 H   0  0  0  0  0  0  0  0  0  0  0  0
   36.7150   21.5420   31.6980 C   0  0  0  0  0  0  0  0  0  0  0  0
   36.4340   21.4620   33.0440 C   0  0  0  0  0  0  0  0  0  0  0  0
   36.8130   22.2850   33.6660 H   0  0  0  0  0  0  0  0  0  0  0  0
   35.7380   20.4780   33.6990 C   0  0  0  0  0  0  0  0  0  0  0  0
   35.5760   20.5160   34.7640 H   0  0  0  0  0  0  0  0  0  0  0  0
   35.2680   19.4470   32.8830 C   0  0  0  0  0  3  0  0  0  0  0  0
   35.5360   19.5030   31.5280 C   0  0  0  0  0  3  0  0  0  0  0  0
   36.2340   20.5170   30.9680 N   0  0  0  0  0  0  0  0  0  0  0  0
   36.3780   27.2370   30.7110 O   0  0  0  0  0  0  0  0  0  0  0  0
   36.2620   28.5330   31.2080 C   0  0  0  0  0  0  0  0  0  0  0  0
   36.6510   29.5640   30.3720 C   0  0  0  0  0  0  0  0  0  0  0  0
   36.5460   30.8630   30.8460 C   0  0  0  0  0  0  0  0  0  0  0  0
   36.0680   31.0670   32.1000 N   0  0  0  0  0  0  0  0  0  0  0  0
   35.6930   30.0530   32.9010 C   0  0  0  0  0  0  0  0  0  0  0  0
   35.7990   28.8230   32.4370 N   0  0  0  0  0  0  0  0  0  0  0  0
   33.8730   29.8120   34.3990 C   0  0  0  0  0  0  0  0  0  0  0  0
   33.1320   29.2170   33.5610 O   0  0  0  0  0  0  0  0  0  0  0  0
   35.1980   30.3020   34.2150 N   0  0  0  0  0  0  0  0  0  0  0  0
   37.0350   29.4300   29.3690 H   0  0  0  0  0  0  0  0  0  0  0  0
   36.8480   31.6790   30.1980 H   0  0  0  0  0  0  0  0  0  0  0  0
   33.2550   29.8600   35.2880 H   0  0  0  0  0  0  0  0  0  0  0  0
   35.6220   30.7600   35.0350 H   0  0  0  0  0  0  0  0  0  0  0  0
  2  1  2  0  0  0  0
  3  2  1  0  0  0  0
  3  7  1  1  0  0  0
  4  8  1  0  0  0  0
  4  5  1  0  0  0  0
  4  3  1  0  0  0  0
  5  6  1  0  0  0  0
  5 11  1  0  0  0  0
  6  2  1  0  0  0  0
  9  4  1  0  0  0  0
 10  5  1  0  0  0  0
 12  6  1  0  0  0  0
 12 14  1  0  0  0  0
 12 15  1  0  0  0  0
 13 12  1  0  0  0  0
 15 16  1  0  0  0  0
 16 17  1  0  0  0  0
 16 18  2  0  0  0  0
 18 19  1  0  0  0  0
 20 18  1  0  0  0  0
 21 20  2  0  0  0  0
 22 21  1  0  0  0  0
 22 15  2  0  0  0  0
 23 24  1  0  0  0  0
 23  3  1  0  0  0  0
 24 29  1  0  0  0  0
 25 26  1  0  0  0  0
 25 24  2  0  0  0  0
 26 27  2  0  0  0  0
 27 28  1  0  0  0  0
 28 32  1  0  0  0  0
 29 28  2  0  0  0  0
 30 35  1  0  0  0  0
 31 30  2  0  0  0  0
 32 30  1  0  0  0  0
 32 36  1  0  0  0  0
 33 25  1  0  0  0  0
 34 26  1  0  0  0  0
M  END
>  <minimizedAffinity>
-5.21479416

$$$$

 OpenBabel03272506403D

 36 38  0  0  1  0  0  0  0  0999 V2000
   37.0070   24.6020   32.4280 O   0  0  0  0  0  0  0  0  0  0  0  0
   37.1110   25.7180   32.9550 C   0  0  0  0  0  0  0  0  0  0  0  0
   37.8900   25.9250   34.1530 C   0  0  2  0  0  0  0  0  0  0  0  0
   37.8560   27.4800   34.2770 C   0  0  0  0  0  0  0  0  0  0  0  0
   36.5860   27.8510   33.5790 C   0  0  0  0  0  0  0  0  0  0  0  0
   36.4950   26.9160   32.4660 N   0  0  0  0  0  0  0  0  0  0  0  0
   37.4020   25.5040   35.0460 H   0  0  0  0  0  0  0  0  0  0  0  0
   37.7790   27.6710   35.3610 H   0  0  0  0  0  0  0  0  0  0  0  0
   38.7560   27.9300   33.8270 H   0  0  0  0  0  0  0  0  0  0  0  0
   36.7520   28.8630   33.1150 H   0  0  0  0  0  0  0  0  0  0  0  0
   35.7090   27.8220   34.2300 H   0  0  0  0  0  0  0  0  0  0  0  0
   35.8970   27.1750   31.1610 C   0  0  0  0  0  0  0  0  0  0  0  0
   35.9790   26.2430   30.5770 H   0  0  0  0  0  0  0  0  0  0  0  0
   34.8510   27.5240   31.2720 H   0  0  0  0  0  0  0  0  0  0  0  0
   36.7480   28.2290   30.5480 C   0  0  0  0  0  0  0  0  0  0  0  0
   38.0520   27.9750   30.1820 C   0  0  0  0  0  0  0  0  0  0  0  0
   38.4160   26.9550   30.3700 H   0  0  0  0  0  0  0  0  0  0  0  0
   38.9480   28.8420   29.6110 C   0  0  0  0  0  0  0  0  0  0  0  0
   39.9500   28.5350   29.3640 H   0  0  0  0  0  0  0  0  0  0  0  0
   38.4570   30.1300   29.3840 C   0  0  0  0  0  3  0  0  0  0  0  0
   37.1520   30.4120   29.7420 C   0  0  0  0  0  3  0  0  0  0  0  0
   36.3380   29.4890   30.3020 N   0  0  0  0  0  0  0  0  0  0  0  0
   39.2660   25.5740   34.0320 O   0  0  0  0  0  0  0  0  0  0  0  0
   39.7900   24.6770   34.9600 C   0  0  0  0  0  0  0  0  0  0  0  0
   41.1530   24.4470   34.9120 C   0  0  0  0  0  0  0  0  0  0  0  0
   41.6970   23.5570   35.8250 C   0  0  0  0  0  0  0  0  0  0  0  0
   40.8760   22.9540   36.7230 N   0  0  0  0  0  0  0  0  0  0  0  0
   39.5520   23.1890   36.7570 C   0  0  0  0  0  0  0  0  0  0  0  0
   39.0480   24.0380   35.8820 N   0  0  0  0  0  0  0  0  0  0  0  0
   38.0420   23.4580   38.5630 C   0  0  0  0  0  0  0  0  0  0  0  0
   38.1080   24.7230   38.5620 O   0  0  0  0  0  0  0  0  0  0  0  0
   38.7160   22.5370   37.7120 N   0  0  0  0  0  0  0  0  0  0  0  0
   41.8300   24.9130   34.2080 H   0  0  0  0  0  0  0  0  0  0  0  0
   42.7650   23.3690   35.7960 H   0  0  0  0  0  0  0  0  0  0  0  0
   37.3490   23.2460   39.3700 H   0  0  0  0  0  0  0  0  0  0  0  0
   38.5190   21.5410   37.8870 H   0  0  0  0  0  0  0  0  0  0  0  0
  1  2  2  0  0  0  0
  2  3  1  0  0  0  0
  3  4  1  0  0  0  0
  3  7  1  1  0  0  0
  4  8  1  0  0  0  0
  5 11  1  0  0  0  0
  5  4  1  0  0  0  0
  6  2  1  0  0  0  0
  6  5  1  0  0  0  0
  9  4  1  0  0  0  0
 10  5  1  0  0  0  0
 12 14  1  0  0  0  0
 12  6  1  0  0  0  0
 13 12  1  0  0  0  0
 15 12  1  0  0  0  0
 16 17  1  0  0  0  0
 16 15  2  0  0  0  0
 18 16  1  0  0  0  0
 19 18  1  0  0  0  0
 20 18  2  0  0  0  0
 20 21  1  0  0  0  0
 21 22  2  0  0  0  0
 22 15  1  0  0  0  0
 23  3  1  0  0  0  0
 23 24  1  0  0  0  0
 24 29  1  0  0  0  0
 25 24  2  0  0  0  0
 25 26  1  0  0  0  0
 26 27  2  0  0  0  0
 27 28  1  0  0  0  0
 28 32  1  0  0  0  0
 29 28  2  0  0  0  0
 30 35  1  0  0  0  0
 31 30  2  0  0  0  0
 32 36  1  0  0  0  0
 32 30  1  0  0  0  0
 33 25  1  0  0  0  0
 34 26  1  0  0  0  0
M  END
>  <minimizedAffinity>
-5.18604565

$$$$

 OpenBabel03272506403D

 36 38  0  0  1  0  0  0  0  0999 V2000
   39.0180   24.9470   30.7650 O   0  0  0  0  0  0  0  0  0  0  0  0
   37.8080   25.1620   30.9170 C   0  0  0  0  0  0  0  0  0  0  0  0
   36.8310   24.1000   30.8440 C   0  0  2  0  0  0  0  0  0  0  0  0
   35.5350   24.8440   31.2880 C   0  0  0  0  0  0  0  0  0  0  0  0
   35.8100   26.2660   30.9100 C   0  0  0  0  0  0  0  0  0  0  0  0
   37.2290   26.4460   31.1780 N   0  0  0  0  0  0  0  0  0  0  0  0
   36.6800   23.7430   29.8140 H   0  0  0  0  0  0  0  0  0  0  0  0
   34.7380   24.4170   30.6560 H   0  0  0  0  0  0  0  0  0  0  0  0
   35.3480   24.7010   32.3650 H   0  0  0  0  0  0  0  0  0  0  0  0
   35.2720   26.9120   31.6600 H   0  0  0  0  0  0  0  0  0  0  0  0
   35.5400   26.5000   29.8780 H   0  0  0  0  0  0  0  0  0  0  0  0
   37.8820   27.6770   31.6090 C   0  0  0  0  0  0  0  0  0  0  0  0
   38.8330   27.7510   31.0550 H   0  0  0  0  0  0  0  0  0  0  0  0
   37.2190   28.5500   31.4450 H   0  0  0  0  0  0  0  0  0  0  0  0
   38.1580   27.4820   33.0570 C   0  0  0  0  0  0  0  0  0  0  0  0
   39.4070   27.1120   33.5050 C   0  0  0  0  0  0  0  0  0  0  0  0
   40.1760   26.9720   32.7320 H   0  0  0  0  0  0  0  0  0  0  0  0
   39.8060   26.8970   34.8000 C   0  0  0  0  0  0  0  0  0  0  0  0
   40.8160   26.6080   35.0390 H   0  0  0  0  0  0  0  0  0  0  0  0
   38.8090   27.0820   35.7600 C   0  0  0  0  0  3  0  0  0  0  0  0
   37.5460   27.4540   35.3380 C   0  0  0  0  0  3  0  0  0  0  0  0
   37.2440   27.6430   34.0340 N   0  0  0  0  0  0  0  0  0  0  0  0
   37.0230   23.0530   31.7910 O   0  0  0  0  0  0  0  0  0  0  0  0
   37.2400   21.7670   31.3010 C   0  0  0  0  0  0  0  0  0  0  0  0
   38.4730   21.5110   30.7300 C   0  0  0  0  0  0  0  0  0  0  0  0
   38.7120   20.2380   30.2350 C   0  0  0  0  0  0  0  0  0  0  0  0
   37.7320   19.3040   30.3310 N   0  0  0  0  0  0  0  0  0  0  0  0
   36.5370   19.5680   30.8900 C   0  0  0  0  0  0  0  0  0  0  0  0
   36.3240   20.7830   31.3570 N   0  0  0  0  0  0  0  0  0  0  0  0
   35.1420   18.2890   32.3160 C   0  0  0  0  0  0  0  0  0  0  0  0
   35.5810   18.8130   33.3820 O   0  0  0  0  0  0  0  0  0  0  0  0
   35.5280   18.5630   30.9730 N   0  0  0  0  0  0  0  0  0  0  0  0
   39.2710   22.2370   30.6410 H   0  0  0  0  0  0  0  0  0  0  0  0
   39.6750   20.0270   29.7840 H   0  0  0  0  0  0  0  0  0  0  0  0
   34.4030   17.5810   32.6730 H   0  0  0  0  0  0  0  0  0  0  0  0
   35.0400   18.0160   30.2480 H   0  0  0  0  0  0  0  0  0  0  0  0
  1  2  2  0  0  0  0
  2  6  1  0  0  0  0
  3  7  1  6  0  0  0
  3  2  1  0  0  0  0
  3  4  1  0  0  0  0
  3 23  1  0  0  0  0
  4  9  1  0  0  0  0
  5  6  1  0  0  0  0
  5  4  1  0  0  0  0
  5 10  1  0  0  0  0
  6 12  1  0  0  0  0
  8  4  1  0  0  0  0
 11  5  1  0  0  0  0
 12 15  1  0  0  0  0
 13 12  1  0  0  0  0
 14 12  1  0  0  0  0
 15 16  2  0  0  0  0
 15 22  1  0  0  0  0
 16 18  1  0  0  0  0
 17 16  1  0  0  0  0
 18 19  1  0  0  0  0
 18 20  2  0  0  0  0
 21 20  1  0  0  0  0
 22 21  2  0  0  0  0
 24 29  1  0  0  0  0
 24 23  1  0  0  0  0
 25 24  2  0  0  0  0
 26 27  2  0  0  0  0
 26 25  1  0  0  0  0
 27 28  1  0  0  0  0
 28 32  1  0  0  0  0
 28 29  2  0  0  0  0
 30 35  1  0  0  0  0
 30 31  2  0  0  0  0
 32 30  1  0  0  0  0
 33 25  1  0  0  0  0
 34 26  1  0  0  0  0
 36 32  1  0  0  0  0
M  END
>  <minimizedAffinity>
-5.1736021

$$$$

 OpenBabel03272506403D

 36 38  0  0  1  0  0  0  0  0999 V2000
   38.1820   25.2170   33.2080 O   0  0  0  0  0  0  0  0  0  0  0  0
   37.2540   25.5510   32.4610 C   0  0  0  0  0  0  0  0  0  0  0  0
   36.6590   26.8660   32.5250 C   0  0  2  0  0  0  0  0  0  0  0  0
   35.7110   26.8350   31.2870 C   0  0  0  0  0  0  0  0  0  0  0  0
   35.4140   25.3780   31.1190 C   0  0  0  0  0  0  0  0  0  0  0  0
   36.6610   24.7100   31.4630 N   0  0  0  0  0  0  0  0  0  0  0  0
   36.0360   26.9980   33.4240 H   0  0  0  0  0  0  0  0  0  0  0  0
   34.8110   27.3850   31.6120 H   0  0  0  0  0  0  0  0  0  0  0  0
   36.1960   27.2920   30.4090 H   0  0  0  0  0  0  0  0  0  0  0  0
   35.2650   25.2010   30.0170 H   0  0  0  0  0  0  0  0  0  0  0  0
   34.5690   25.0350   31.7210 H   0  0  0  0  0  0  0  0  0  0  0  0
   37.1610   23.4610   30.9000 C   0  0  0  0  0  0  0  0  0  0  0  0
   36.7600   23.3840   29.8760 H   0  0  0  0  0  0  0  0  0  0  0  0
   38.2680   23.4320   30.9330 H   0  0  0  0  0  0  0  0  0  0  0  0
   36.5750   22.3910   31.7510 C   0  0  0  0  0  0  0  0  0  0  0  0
   35.4930   21.6510   31.3270 C   0  0  0  0  0  0  0  0  0  0  0  0
   35.0980   21.8990   30.3330 H   0  0  0  0  0  0  0  0  0  0  0  0
   34.8510   20.6410   31.9990 C   0  0  0  0  0  0  0  0  0  0  0  0
   34.0080   20.1250   31.5700 H   0  0  0  0  0  0  0  0  0  0  0  0
   35.3760   20.3470   33.2590 C   0  0  0  0  0  3  0  0  0  0  0  0
   36.4620   21.0750   33.7090 C   0  0  0  0  0  3  0  0  0  0  0  0
   37.0300   22.0570   32.9740 N   0  0  0  0  0  0  0  0  0  0  0  0
   37.5680   27.9380   32.2930 O   0  0  0  0  0  0  0  0  0  0  0  0
   37.5710   28.5230   31.0290 C   0  0  0  0  0  0  0  0  0  0  0  0
   36.9280   29.7400   30.8970 C   0  0  0  0  0  0  0  0  0  0  0  0
   36.9180   30.3410   29.6480 C   0  0  0  0  0  0  0  0  0  0  0  0
   37.5340   29.7140   28.6140 N   0  0  0  0  0  0  0  0  0  0  0  0
   38.1560   28.5300   28.7580 C   0  0  0  0  0  0  0  0  0  0  0  0
   38.1580   27.9700   29.9520 N   0  0  0  0  0  0  0  0  0  0  0  0
   40.1850   27.6920   27.8660 C   0  0  0  0  0  0  0  0  0  0  0  0
   40.8760   28.0000   28.8820 O   0  0  0  0  0  0  0  0  0  0  0  0
   38.7930   27.8960   27.6500 N   0  0  0  0  0  0  0  0  0  0  0  0
   36.4290   30.2610   31.7040 H   0  0  0  0  0  0  0  0  0  0  0  0
   36.4160   31.2960   29.5340 H   0  0  0  0  0  0  0  0  0  0  0  0
   40.9100   27.2350   27.2020 H   0  0  0  0  0  0  0  0  0  0  0  0
   38.4290   27.5680   26.7430 H   0  0  0  0  0  0  0  0  0  0  0  0
  2  3  1  0  0  0  0
  2  1  2  0  0  0  0
  3  7  1  1  0  0  0
  4  8  1  0  0  0  0
  4  3  1  0  0  0  0
  5  4  1  0  0  0  0
  5  6  1  0  0  0  0
  5 11  1  0  0  0  0
  6  2  1  0  0  0  0
  9  4  1  0  0  0  0
 10  5  1  0  0  0  0
 12 14  1  0  0  0  0
 12  6  1  0  0  0  0
 12 15  1  0  0  0  0
 13 12  1  0  0  0  0
 15 22  1  0  0  0  0
 16 15  2  0  0  0  0
 16 18  1  0  0  0  0
 17 16  1  0  0  0  0
 18 20  2  0  0  0  0
 19 18  1  0  0  0  0
 20 21  1  0  0  0  0
 22 21  2  0  0  0  0
 23  3  1  0  0  0  0
 24 23  1  0  0  0  0
 25 24  1  0  0  0  0
 25 33  1  0  0  0  0
 26 25  2  0  0  0  0
 27 28  2  0  0  0  0
 27 26  1  0  0  0  0
 28 29  1  0  0  0  0
 29 24  2  0  0  0  0
 30 31  2  0  0  0  0
 32 30  1  0  0  0  0
 32 28  1  0  0  0  0
 34 26  1  0  0  0  0
 35 30  1  0  0  0  0
 36 32  1  0  0  0  0
M  END
>  <minimizedAffinity>
-5.17157841

$$$$
