
 OpenBabel03272509463D

 24 25  0  0  0  0  0  0  0  0999 V2000
   31.5830   29.9690   44.8770 C   0  0  0  0  0  0  0  0  0  0  0  0
   31.2190   28.9210   44.8770 H   0  0  0  0  0  0  0  0  0  0  0  0
   31.8210   30.2100   43.8120 H   0  0  0  0  0  0  0  0  0  0  0  0
   30.5330   30.9210   45.4090 C   0  0  0  0  0  0  0  0  0  0  0  0
   30.9500   31.3630   46.3580 H   0  0  0  0  0  0  0  0  0  0  0  0
   29.5910   30.4270   45.6510 H   0  0  0  0  0  0  0  0  0  0  0  0
   30.4120   32.0580   44.4580 C   0  0  0  0  0  0  0  0  0  0  0  0
   31.3880   33.0310   44.5950 C   0  0  0  0  0  0  0  0  0  0  0  0
   32.1880   32.9890   45.3320 H   0  0  0  0  0  0  0  0  0  0  0  0
   31.3100   34.1170   43.7220 C   0  0  0  0  0  0  0  0  0  0  0  0
   32.0860   34.8850   43.8330 H   0  0  0  0  0  0  0  0  0  0  0  0
   30.3210   34.2410   42.7570 C   0  0  0  0  0  3  0  0  0  0  0  0
   29.3740   33.2190   42.6820 C   0  0  0  0  0  3  0  0  0  0  0  0
   29.4420   32.1630   43.5260 N   0  0  0  0  0  0  0  0  0  0  0  0
   32.7800   30.1160   45.6000 O   0  0  0  0  0  0  0  0  0  0  0  0
   34.1880   28.0160   48.2030 C   0  0  0  0  0  0  0  0  0  0  0  0
   33.8630   26.7560   47.6810 C   0  0  0  0  0  0  0  0  0  0  0  0
   33.1830   26.6890   46.4710 C   0  0  0  0  0  0  0  0  0  0  0  0
   32.8780   27.8830   45.8750 N   0  0  0  0  0  0  0  0  0  0  0  0
   33.2020   29.0820   46.3980 C   0  0  0  0  0  0  0  0  0  0  0  0
   33.8590   29.1230   47.5670 N   0  0  0  0  0  0  0  0  0  0  0  0
   34.7130   28.0110   49.1380 H   0  0  0  0  0  0  0  0  0  0  0  0
   34.0920   25.7850   48.1310 H   0  0  0  0  0  0  0  0  0  0  0  0
   32.9020   25.7460   46.0100 H   0  0  0  0  0  0  0  0  0  0  0  0
  1  4  1  0  0  0  0
  1 15  1  0  0  0  0
  2  1  1  0  0  0  0
  3  1  1  0  0  0  0
  4  6  1  0  0  0  0
  4  5  1  0  0  0  0
  7  8  1  0  0  0  0
  7  4  1  0  0  0  0
  8  9  1  0  0  0  0
 10 11  1  0  0  0  0
 10  8  2  0  0  0  0
 12 10  1  0  0  0  0
 13 12  2  0  0  0  0
 13 14  1  0  0  0  0
 14  7  2  0  0  0  0
 15 20  1  0  0  0  0
 16 22  1  0  0  0  0
 17 23  1  0  0  0  0
 17 16  1  0  0  0  0
 18 17  2  0  0  0  0
 19 20  2  0  0  0  0
 19 18  1  0  0  0  0
 20 21  1  0  0  0  0
 21 16  2  0  0  0  0
 24 18  1  0  0  0  0
M  END
>  <minimizedAffinity>
-2.30151677

>  <minimizedRMSD>
7.47457314

$$$$
