
 OpenBabel03272509243D

 23 24  0  0  0  0  0  0  0  0999 V2000
   37.9050   30.5000   47.7260 C   0  0  0  0  0  0  0  0  0  0  0  0
   38.7230   29.7400   47.5720 H   0  0  0  0  0  0  0  0  0  0  0  0
   37.1280   30.3620   46.9540 H   0  0  0  0  0  0  0  0  0  0  0  0
   37.3020   30.1500   51.4360 C   0  0  0  0  0  0  0  0  0  0  0  0
   37.9580   30.5400   50.2460 C   0  0  0  0  0  0  0  0  0  0  0  0
   37.3490   30.1720   49.0590 C   0  0  0  0  0  0  0  0  0  0  0  0
   36.1840   29.4740   49.1100 N   0  0  0  0  0  0  0  0  0  0  0  0
   35.5840   29.1170   50.2550 C   0  0  0  0  0  0  0  0  0  0  0  0
   36.1510   29.4590   51.4340 N   0  0  0  0  0  0  0  0  0  0  0  0
   37.7830   30.4390   52.3780 H   0  0  0  0  0  0  0  0  0  0  0  0
   38.8820   31.0930   50.2480 H   0  0  0  0  0  0  0  0  0  0  0  0
   34.6640   28.5660   50.1330 H   0  0  0  0  0  0  0  0  0  0  0  0
   38.4820   31.9000   47.7230 C   0  0  0  0  0  0  0  0  0  0  0  0
   37.8610   32.6240   48.2460 H   0  0  0  0  0  0  0  0  0  0  0  0
   39.4670   31.8530   48.2710 H   0  0  0  0  0  0  0  0  0  0  0  0
   38.8220   32.3280   46.3160 C   0  0  0  0  0  0  0  0  0  0  0  0
   37.9000   32.1110   45.3000 C   0  0  0  0  0  0  0  0  0  0  0  0
   36.9660   31.6330   45.5840 H   0  0  0  0  0  0  0  0  0  0  0  0
   38.2350   32.5130   44.0160 C   0  0  0  0  0  0  0  0  0  0  0  0
   37.4630   32.3110   43.2630 H   0  0  0  0  0  0  0  0  0  0  0  0
   39.4630   33.1160   43.7640 C   0  0  0  0  0  3  0  0  0  0  0  0
   40.3380   33.3080   44.8060 C   0  0  0  0  0  3  0  0  0  0  0  0
   40.0220   32.9210   46.0590 N   0  0  0  0  0  0  0  0  0  0  0  0
  1  6  1  0  0  0  0
  2  1  1  0  0  0  0
  3  1  1  0  0  0  0
  4 10  1  0  0  0  0
  5 11  1  0  0  0  0
  5  4  2  0  0  0  0
  6  7  2  0  0  0  0
  6  5  1  0  0  0  0
  7  8  1  0  0  0  0
  8  9  2  0  0  0  0
  9  4  1  0  0  0  0
 12  8  1  0  0  0  0
 13  1  1  0  0  0  0
 13 14  1  0  0  0  0
 13 15  1  0  0  0  0
 16 13  1  0  0  0  0
 17 18  1  0  0  0  0
 17 16  2  0  0  0  0
 19 17  1  0  0  0  0
 20 19  1  0  0  0  0
 21 19  2  0  0  0  0
 21 22  1  0  0  0  0
 22 23  2  0  0  0  0
 23 16  1  0  0  0  0
M  END
>  <minimizedAffinity>
-4.98599052

>  <minimizedRMSD>
1.22825325

$$$$
