
 OpenBabel03272509253D

 23 24  0  0  0  0  0  0  0  0999 V2000
   38.5320   26.9960   35.6370 C   0  0  0  0  0  0  0  0  0  0  0  0
   39.3360   26.9760   36.4260 H   0  0  0  0  0  0  0  0  0  0  0  0
   37.9140   27.9010   35.7690 H   0  0  0  0  0  0  0  0  0  0  0  0
   41.2190   27.1640   32.9910 C   0  0  0  0  0  0  0  0  0  0  0  0
   40.6580   27.0760   34.2850 C   0  0  0  0  0  0  0  0  0  0  0  0
   39.2770   27.0810   34.3590 C   0  0  0  0  0  0  0  0  0  0  0  0
   38.5600   27.1690   33.2080 N   0  0  0  0  0  0  0  0  0  0  0  0
   39.1190   27.2530   31.9920 C   0  0  0  0  0  0  0  0  0  0  0  0
   40.4670   27.2510   31.8810 N   0  0  0  0  0  0  0  0  0  0  0  0
   42.3140   27.1610   32.9290 H   0  0  0  0  0  0  0  0  0  0  0  0
   41.2620   27.0080   35.1750 H   0  0  0  0  0  0  0  0  0  0  0  0
   38.4190   27.3170   31.1740 H   0  0  0  0  0  0  0  0  0  0  0  0
   37.7130   25.7230   35.6890 C   0  0  0  0  0  0  0  0  0  0  0  0
   36.6930   25.8790   36.0320 H   0  0  0  0  0  0  0  0  0  0  0  0
   37.6500   25.3280   34.6340 H   0  0  0  0  0  0  0  0  0  0  0  0
   38.4390   24.6610   36.4760 C   0  0  0  0  0  0  0  0  0  0  0  0
   38.0460   24.3940   37.7790 C   0  0  0  0  0  0  0  0  0  0  0  0
   37.2170   24.9800   38.1680 H   0  0  0  0  0  0  0  0  0  0  0  0
   38.7300   23.4140   38.4820 C   0  0  0  0  0  0  0  0  0  0  0  0
   38.3670   23.2540   39.5060 H   0  0  0  0  0  0  0  0  0  0  0  0
   39.7790   22.7210   37.8880 C   0  0  0  0  0  3  0  0  0  0  0  0
   40.1290   23.0240   36.5930 C   0  0  0  0  0  3  0  0  0  0  0  0
   39.4700   23.9770   35.9000 N   0  0  0  0  0  0  0  0  0  0  0  0
  1 13  1  0  0  0  0
  1  3  1  0  0  0  0
  1  2  1  0  0  0  0
  4  5  1  0  0  0  0
  5  6  2  0  0  0  0
  5 11  1  0  0  0  0
  6  1  1  0  0  0  0
  7  6  1  0  0  0  0
  8  7  2  0  0  0  0
  9  8  1  0  0  0  0
  9  4  2  0  0  0  0
 10  4  1  0  0  0  0
 12  8  1  0  0  0  0
 13 14  1  0  0  0  0
 13 16  1  0  0  0  0
 15 13  1  0  0  0  0
 16 17  1  0  0  0  0
 17 18  1  0  0  0  0
 17 19  2  0  0  0  0
 19 20  1  0  0  0  0
 21 19  1  0  0  0  0
 22 21  2  0  0  0  0
 23 16  2  0  0  0  0
 23 22  1  0  0  0  0
M  END
>  <minimizedAffinity>
-4.23933697

$$$$

 OpenBabel03272509253D

 23 24  0  0  0  0  0  0  0  0999 V2000
   37.7400   25.7610   35.7370 C   0  0  0  0  0  0  0  0  0  0  0  0
   37.6490   25.2990   34.7130 H   0  0  0  0  0  0  0  0  0  0  0  0
   36.7320   25.9730   36.1330 H   0  0  0  0  0  0  0  0  0  0  0  0
   38.7130   23.3740   38.4950 C   0  0  0  0  0  0  0  0  0  0  0  0
   37.9950   24.4040   37.8460 C   0  0  0  0  0  0  0  0  0  0  0  0
   38.3870   24.7090   36.5550 C   0  0  0  0  0  0  0  0  0  0  0  0
   39.4160   24.0150   36.0020 N   0  0  0  0  0  0  0  0  0  0  0  0
   40.0810   23.0410   36.6420 C   0  0  0  0  0  0  0  0  0  0  0  0
   39.7250   22.7160   37.9050 N   0  0  0  0  0  0  0  0  0  0  0  0
   38.4050   23.1300   39.5190 H   0  0  0  0  0  0  0  0  0  0  0  0
   37.1840   24.9320   38.3200 H   0  0  0  0  0  0  0  0  0  0  0  0
   40.8740   22.5820   36.0710 H   0  0  0  0  0  0  0  0  0  0  0  0
   38.6120   26.9980   35.6790 C   0  0  0  0  0  0  0  0  0  0  0  0
   38.0770   27.9150   35.9140 H   0  0  0  0  0  0  0  0  0  0  0  0
   39.4140   26.8730   36.4630 H   0  0  0  0  0  0  0  0  0  0  0  0
   39.3420   27.0680   34.3610 C   0  0  0  0  0  0  0  0  0  0  0  0
   40.7290   27.0490   34.3520 C   0  0  0  0  0  0  0  0  0  0  0  0
   41.2220   26.9830   35.3180 H   0  0  0  0  0  0  0  0  0  0  0  0
   41.3770   27.1150   33.1280 C   0  0  0  0  0  0  0  0  0  0  0  0
   42.4730   27.0950   33.1930 H   0  0  0  0  0  0  0  0  0  0  0  0
   40.6480   27.1960   31.9470 C   0  0  0  0  0  3  0  0  0  0  0  0
   39.2740   27.2110   32.0120 C   0  0  0  0  0  3  0  0  0  0  0  0
   38.6330   27.1480   33.1980 N   0  0  0  0  0  0  0  0  0  0  0  0
  1  3  1  0  0  0  0
  1  6  1  0  0  0  0
  2  1  1  0  0  0  0
  4 10  1  0  0  0  0
  5 11  1  0  0  0  0
  5  4  2  0  0  0  0
  6  5  1  0  0  0  0
  7  6  2  0  0  0  0
  7  8  1  0  0  0  0
  8  9  2  0  0  0  0
  9  4  1  0  0  0  0
 12  8  1  0  0  0  0
 13  1  1  0  0  0  0
 13 14  1  0  0  0  0
 13 15  1  0  0  0  0
 16 13  1  0  0  0  0
 17 16  1  0  0  0  0
 17 18  1  0  0  0  0
 19 20  1  0  0  0  0
 19 17  2  0  0  0  0
 21 22  2  0  0  0  0
 21 19  1  0  0  0  0
 22 23  1  0  0  0  0
 23 16  2  0  0  0  0
M  END
>  <minimizedAffinity>
-4.20695686

$$$$

 OpenBabel03272509253D

 23 24  0  0  0  0  0  0  0  0999 V2000
   38.2440   26.0520   34.5110 C   0  0  0  0  0  0  0  0  0  0  0  0
   39.1300   26.7040   34.2680 H   0  0  0  0  0  0  0  0  0  0  0  0
   37.7750   26.4060   35.4450 H   0  0  0  0  0  0  0  0  0  0  0  0
   35.9280   27.5330   31.9230 C   0  0  0  0  0  0  0  0  0  0  0  0
   36.8020   27.4990   33.0330 C   0  0  0  0  0  0  0  0  0  0  0  0
   37.3160   26.2610   33.3750 C   0  0  0  0  0  0  0  0  0  0  0  0
   36.9560   25.1770   32.6390 N   0  0  0  0  0  0  0  0  0  0  0  0
   36.1230   25.2390   31.5890 C   0  0  0  0  0  0  0  0  0  0  0  0
   35.6010   26.4320   31.2260 N   0  0  0  0  0  0  0  0  0  0  0  0
   35.5190   28.5130   31.6500 H   0  0  0  0  0  0  0  0  0  0  0  0
   37.0640   28.3820   33.5930 H   0  0  0  0  0  0  0  0  0  0  0  0
   35.9320   24.2930   31.1050 H   0  0  0  0  0  0  0  0  0  0  0  0
   38.6660   24.5990   34.5890 C   0  0  0  0  0  0  0  0  0  0  0  0
   38.0580   23.9390   33.9750 H   0  0  0  0  0  0  0  0  0  0  0  0
   39.7210   24.5400   34.1910 H   0  0  0  0  0  0  0  0  0  0  0  0
   38.7500   24.1510   36.0270 C   0  0  0  0  0  0  0  0  0  0  0  0
   37.8570   24.6690   36.9520 C   0  0  0  0  0  0  0  0  0  0  0  0
   37.1300   25.3860   36.5800 H   0  0  0  0  0  0  0  0  0  0  0  0
   37.9550   24.2420   38.2680 C   0  0  0  0  0  0  0  0  0  0  0  0
   37.2180   24.6910   38.9470 H   0  0  0  0  0  0  0  0  0  0  0  0
   38.9250   23.3180   38.6390 C   0  0  0  0  0  3  0  0  0  0  0  0
   39.7860   22.8340   37.6820 C   0  0  0  0  0  3  0  0  0  0  0  0
   39.7000   23.2440   36.3990 N   0  0  0  0  0  0  0  0  0  0  0  0
  1 13  1  0  0  0  0
  1  3  1  0  0  0  0
  2  1  1  0  0  0  0
  4  5  1  0  0  0  0
  5  6  2  0  0  0  0
  5 11  1  0  0  0  0
  6  1  1  0  0  0  0
  7  6  1  0  0  0  0
  8  7  2  0  0  0  0
  9  8  1  0  0  0  0
  9  4  2  0  0  0  0
 10  4  1  0  0  0  0
 12  8  1  0  0  0  0
 13 16  1  0  0  0  0
 14 13  1  0  0  0  0
 15 13  1  0  0  0  0
 16 23  2  0  0  0  0
 16 17  1  0  0  0  0
 17 19  2  0  0  0  0
 18 17  1  0  0  0  0
 19 21  1  0  0  0  0
 19 20  1  0  0  0  0
 22 21  2  0  0  0  0
 23 22  1  0  0  0  0
M  END
>  <minimizedAffinity>
-4.17564154

$$$$

 OpenBabel03272509253D

 23 24  0  0  0  0  0  0  0  0999 V2000
   37.8010   26.8910   35.3220 C   0  0  0  0  0  0  0  0  0  0  0  0
   38.5970   27.6800   35.4420 H   0  0  0  0  0  0  0  0  0  0  0  0
   37.1990   26.8370   36.2450 H   0  0  0  0  0  0  0  0  0  0  0  0
   35.4590   28.8850   33.1330 C   0  0  0  0  0  0  0  0  0  0  0  0
   36.2080   28.5460   34.2830 C   0  0  0  0  0  0  0  0  0  0  0  0
   36.9620   27.3880   34.2070 C   0  0  0  0  0  0  0  0  0  0  0  0
   36.9370   26.6650   33.0570 N   0  0  0  0  0  0  0  0  0  0  0  0
   36.2160   27.0120   31.9800 C   0  0  0  0  0  0  0  0  0  0  0  0
   35.4670   28.1360   32.0180 N   0  0  0  0  0  0  0  0  0  0  0  0
   34.8590   29.8020   33.1910 H   0  0  0  0  0  0  0  0  0  0  0  0
   36.2000   29.1460   35.1770 H   0  0  0  0  0  0  0  0  0  0  0  0
   36.2990   26.3370   31.1420 H   0  0  0  0  0  0  0  0  0  0  0  0
   38.4290   25.5610   34.9600 C   0  0  0  0  0  0  0  0  0  0  0  0
   37.9040   25.0390   34.1640 H   0  0  0  0  0  0  0  0  0  0  0  0
   39.4700   25.7800   34.5820 H   0  0  0  0  0  0  0  0  0  0  0  0
   38.6160   24.7130   36.1940 C   0  0  0  0  0  0  0  0  0  0  0  0
   39.5330   23.6730   36.1690 C   0  0  0  0  0  0  0  0  0  0  0  0
   40.0780   23.5260   35.2400 H   0  0  0  0  0  0  0  0  0  0  0  0
   39.6860   22.9080   37.3150 C   0  0  0  0  0  0  0  0  0  0  0  0
   40.4280   22.1030   37.2270 H   0  0  0  0  0  0  0  0  0  0  0  0
   38.9370   23.1830   38.4530 C   0  0  0  0  0  3  0  0  0  0  0  0
   38.0400   24.2260   38.4240 C   0  0  0  0  0  3  0  0  0  0  0  0
   37.8830   24.9770   37.3140 N   0  0  0  0  0  0  0  0  0  0  0  0
  1  2  1  0  0  0  0
  1  3  1  0  0  0  0
  4 10  1  0  0  0  0
  4  5  1  0  0  0  0
  5 11  1  0  0  0  0
  6  5  2  0  0  0  0
  6  1  1  0  0  0  0
  7  6  1  0  0  0  0
  8  9  1  0  0  0  0
  8  7  2  0  0  0  0
  9  4  2  0  0  0  0
 12  8  1  0  0  0  0
 13  1  1  0  0  0  0
 13 16  1  0  0  0  0
 14 13  1  0  0  0  0
 15 13  1  0  0  0  0
 16 23  1  0  0  0  0
 17 16  2  0  0  0  0
 17 19  1  0  0  0  0
 18 17  1  0  0  0  0
 19 21  2  0  0  0  0
 20 19  1  0  0  0  0
 22 21  1  0  0  0  0
 23 22  2  0  0  0  0
M  END
>  <minimizedAffinity>
-4.12176609

$$$$

 OpenBabel03272509253D

 23 24  0  0  0  0  0  0  0  0999 V2000
   38.2870   24.0760   34.4540 C   0  0  0  0  0  0  0  0  0  0  0  0
   37.1980   24.3500   34.3610 H   0  0  0  0  0  0  0  0  0  0  0  0
   38.9070   24.9280   34.1300 H   0  0  0  0  0  0  0  0  0  0  0  0
   37.9580   24.0410   38.2150 C   0  0  0  0  0  0  0  0  0  0  0  0
   37.6390   24.3560   36.8740 C   0  0  0  0  0  0  0  0  0  0  0  0
   38.4790   23.8400   35.9040 C   0  0  0  0  0  0  0  0  0  0  0  0
   39.5360   23.0780   36.2910 N   0  0  0  0  0  0  0  0  0  0  0  0
   39.8160   22.7960   37.5720 C   0  0  0  0  0  0  0  0  0  0  0  0
   39.0160   23.2840   38.5470 N   0  0  0  0  0  0  0  0  0  0  0  0
   37.2950   24.4500   38.9870 H   0  0  0  0  0  0  0  0  0  0  0  0
   36.7910   24.9640   36.6080 H   0  0  0  0  0  0  0  0  0  0  0  0
   40.6890   22.1790   37.7210 H   0  0  0  0  0  0  0  0  0  0  0  0
   38.5800   22.8140   33.6690 C   0  0  0  0  0  0  0  0  0  0  0  0
   39.3080   22.9590   32.8750 H   0  0  0  0  0  0  0  0  0  0  0  0
   39.0240   22.0710   34.3930 H   0  0  0  0  0  0  0  0  0  0  0  0
   37.2970   22.1870   33.1800 C   0  0  0  0  0  0  0  0  0  0  0  0
   36.7820   22.5680   31.9500 C   0  0  0  0  0  0  0  0  0  0  0  0
   37.3450   23.3140   31.3960 H   0  0  0  0  0  0  0  0  0  0  0  0
   35.6020   21.9780   31.5240 C   0  0  0  0  0  0  0  0  0  0  0  0
   35.2510   22.3240   30.5430 H   0  0  0  0  0  0  0  0  0  0  0  0
   34.9610   21.0310   32.3130 C   0  0  0  0  0  3  0  0  0  0  0  0
   35.5150   20.6880   33.5250 C   0  0  0  0  0  3  0  0  0  0  0  0
   36.6620   21.2570   33.9500 N   0  0  0  0  0  0  0  0  0  0  0  0
  1  6  1  0  0  0  0
  2  1  1  0  0  0  0
  3  1  1  0  0  0  0
  4  9  1  0  0  0  0
  4 10  1  0  0  0  0
  5  4  2  0  0  0  0
  6  7  2  0  0  0  0
  6  5  1  0  0  0  0
  7  8  1  0  0  0  0
  8 12  1  0  0  0  0
  8  9  2  0  0  0  0
 11  5  1  0  0  0  0
 13 15  1  0  0  0  0
 13  1  1  0  0  0  0
 14 13  1  0  0  0  0
 16 13  1  0  0  0  0
 16 23  1  0  0  0  0
 17 16  2  0  0  0  0
 18 17  1  0  0  0  0
 19 17  1  0  0  0  0
 19 21  2  0  0  0  0
 20 19  1  0  0  0  0
 21 22  1  0  0  0  0
 22 23  2  0  0  0  0
M  END
>  <minimizedAffinity>
-4.09045935

$$$$

 OpenBabel03272509253D

 23 24  0  0  0  0  0  0  0  0999 V2000
   38.1040   25.2230   34.8820 C   0  0  0  0  0  0  0  0  0  0  0  0
   39.0210   25.1860   34.2290 H   0  0  0  0  0  0  0  0  0  0  0  0
   37.2700   24.7130   34.3700 H   0  0  0  0  0  0  0  0  0  0  0  0
   39.7660   22.8930   37.3460 C   0  0  0  0  0  0  0  0  0  0  0  0
   39.5230   23.5400   36.1120 C   0  0  0  0  0  0  0  0  0  0  0  0
   38.4890   24.4600   36.0920 C   0  0  0  0  0  0  0  0  0  0  0  0
   37.7860   24.6790   37.2350 N   0  0  0  0  0  0  0  0  0  0  0  0
   38.0380   24.0490   38.3920 C   0  0  0  0  0  0  0  0  0  0  0  0
   39.0410   23.1440   38.4480 N   0  0  0  0  0  0  0  0  0  0  0  0
   40.5840   22.1640   37.3640 H   0  0  0  0  0  0  0  0  0  0  0  0
   40.1030   23.3380   35.2280 H   0  0  0  0  0  0  0  0  0  0  0  0
   37.3940   24.3300   39.2110 H   0  0  0  0  0  0  0  0  0  0  0  0
   37.7730   26.6560   35.2430 C   0  0  0  0  0  0  0  0  0  0  0  0
   37.3180   26.7590   36.2260 H   0  0  0  0  0  0  0  0  0  0  0  0
   38.7480   27.2240   35.2700 H   0  0  0  0  0  0  0  0  0  0  0  0
   36.9580   27.3010   34.1500 C   0  0  0  0  0  0  0  0  0  0  0  0
   36.3070   28.4990   34.4050 C   0  0  0  0  0  0  0  0  0  0  0  0
   36.4240   28.9140   35.4020 H   0  0  0  0  0  0  0  0  0  0  0  0
   35.5640   29.0710   33.3840 C   0  0  0  0  0  0  0  0  0  0  0  0
   35.0760   30.0170   33.6530 H   0  0  0  0  0  0  0  0  0  0  0  0
   35.4810   28.4540   32.1410 C   0  0  0  0  0  3  0  0  0  0  0  0
   36.1460   27.2670   31.9400 C   0  0  0  0  0  3  0  0  0  0  0  0
   36.8710   26.7010   32.9270 N   0  0  0  0  0  0  0  0  0  0  0  0
  1 13  1  0  0  0  0
  1  6  1  0  0  0  0
  2  1  1  0  0  0  0
  3  1  1  0  0  0  0
  4 10  1  0  0  0  0
  4  9  1  0  0  0  0
  5  4  2  0  0  0  0
  6  5  1  0  0  0  0
  6  7  2  0  0  0  0
  7  8  1  0  0  0  0
  8  9  2  0  0  0  0
  8 12  1  0  0  0  0
 11  5  1  0  0  0  0
 13 15  1  0  0  0  0
 13 14  1  0  0  0  0
 16 17  1  0  0  0  0
 16 13  1  0  0  0  0
 17 18  1  0  0  0  0
 19 20  1  0  0  0  0
 19 17  2  0  0  0  0
 21 19  1  0  0  0  0
 22 21  2  0  0  0  0
 22 23  1  0  0  0  0
 23 16  2  0  0  0  0
M  END
>  <minimizedAffinity>
-4.08949852

$$$$

 OpenBabel03272509253D

 23 24  0  0  0  0  0  0  0  0999 V2000
   38.6080   24.6740   34.6550 C   0  0  0  0  0  0  0  0  0  0  0  0
   39.2550   23.9430   34.0920 H   0  0  0  0  0  0  0  0  0  0  0  0
   37.5690   24.5980   34.2910 H   0  0  0  0  0  0  0  0  0  0  0  0
   38.0130   24.1220   38.3420 C   0  0  0  0  0  0  0  0  0  0  0  0
   37.8140   24.6540   37.0480 C   0  0  0  0  0  0  0  0  0  0  0  0
   38.6790   24.2140   36.0620 C   0  0  0  0  0  0  0  0  0  0  0  0
   39.6460   23.3180   36.3910 N   0  0  0  0  0  0  0  0  0  0  0  0
   39.8120   22.8300   37.6290 C   0  0  0  0  0  0  0  0  0  0  0  0
   38.9850   23.2370   38.6180 N   0  0  0  0  0  0  0  0  0  0  0  0
   37.3290   24.4690   39.1260 H   0  0  0  0  0  0  0  0  0  0  0  0
   37.0350   25.3650   36.8270 H   0  0  0  0  0  0  0  0  0  0  0  0
   40.6230   22.1260   37.7340 H   0  0  0  0  0  0  0  0  0  0  0  0
   39.1650   26.0760   34.5270 C   0  0  0  0  0  0  0  0  0  0  0  0
   39.6060   26.4510   35.4470 H   0  0  0  0  0  0  0  0  0  0  0  0
   39.9910   26.0340   33.7590 H   0  0  0  0  0  0  0  0  0  0  0  0
   38.1260   27.0070   33.9540 C   0  0  0  0  0  0  0  0  0  0  0  0
   37.1830   27.5730   34.7980 C   0  0  0  0  0  0  0  0  0  0  0  0
   37.2490   27.3080   35.8500 H   0  0  0  0  0  0  0  0  0  0  0  0
   36.2380   28.4250   34.2470 C   0  0  0  0  0  0  0  0  0  0  0  0
   35.5230   28.8380   34.9710 H   0  0  0  0  0  0  0  0  0  0  0  0
   36.2430   28.6980   32.8840 C   0  0  0  0  0  3  0  0  0  0  0  0
   37.2010   28.1100   32.0900 C   0  0  0  0  0  3  0  0  0  0  0  0
   38.1250   27.2790   32.6170 N   0  0  0  0  0  0  0  0  0  0  0  0
  1  6  1  0  0  0  0
  2  1  1  0  0  0  0
  3  1  1  0  0  0  0
  4  9  1  0  0  0  0
  4 10  1  0  0  0  0
  5  4  2  0  0  0  0
  6  7  2  0  0  0  0
  6  5  1  0  0  0  0
  7  8  1  0  0  0  0
  8 12  1  0  0  0  0
  8  9  2  0  0  0  0
 11  5  1  0  0  0  0
 13  1  1  0  0  0  0
 13 14  1  0  0  0  0
 15 13  1  0  0  0  0
 16 13  1  0  0  0  0
 16 17  1  0  0  0  0
 17 18  1  0  0  0  0
 19 17  2  0  0  0  0
 19 20  1  0  0  0  0
 21 19  1  0  0  0  0
 22 23  1  0  0  0  0
 22 21  2  0  0  0  0
 23 16  2  0  0  0  0
M  END
>  <minimizedAffinity>
-4.06984997

$$$$

 OpenBabel03272509253D

 23 24  0  0  0  0  0  0  0  0999 V2000
   38.2860   23.4490   34.2890 C   0  0  0  0  0  0  0  0  0  0  0  0
   39.1640   22.9390   33.8010 H   0  0  0  0  0  0  0  0  0  0  0  0
   37.3660   22.8800   34.0710 H   0  0  0  0  0  0  0  0  0  0  0  0
   39.8380   22.7570   37.6610 C   0  0  0  0  0  0  0  0  0  0  0  0
   39.6950   22.7350   36.2550 C   0  0  0  0  0  0  0  0  0  0  0  0
   38.5840   23.3800   35.7390 C   0  0  0  0  0  0  0  0  0  0  0  0
   37.7190   23.9810   36.5970 N   0  0  0  0  0  0  0  0  0  0  0  0
   37.8800   23.9860   37.9280 C   0  0  0  0  0  0  0  0  0  0  0  0
   38.9540   23.3660   38.4680 N   0  0  0  0  0  0  0  0  0  0  0  0
   40.7170   22.2460   38.0730 H   0  0  0  0  0  0  0  0  0  0  0  0
   40.4030   22.2460   35.6070 H   0  0  0  0  0  0  0  0  0  0  0  0
   37.1090   24.5050   38.4770 H   0  0  0  0  0  0  0  0  0  0  0  0
   38.1960   24.8900   33.8350 C   0  0  0  0  0  0  0  0  0  0  0  0
   38.0780   25.5950   34.6550 H   0  0  0  0  0  0  0  0  0  0  0  0
   39.1730   25.1370   33.3260 H   0  0  0  0  0  0  0  0  0  0  0  0
   37.1360   25.0440   32.7730 C   0  0  0  0  0  0  0  0  0  0  0  0
   36.6350   23.9130   32.1460 C   0  0  0  0  0  0  0  0  0  0  0  0
   37.0440   22.9580   32.4640 H   0  0  0  0  0  0  0  0  0  0  0  0
   35.6620   24.0820   31.1730 C   0  0  0  0  0  0  0  0  0  0  0  0
   35.3090   23.1460   30.7180 H   0  0  0  0  0  0  0  0  0  0  0  0
   35.2060   25.3530   30.8420 C   0  0  0  0  0  3  0  0  0  0  0  0
   35.7370   26.4410   31.4940 C   0  0  0  0  0  3  0  0  0  0  0  0
   36.6850   26.2890   32.4430 N   0  0  0  0  0  0  0  0  0  0  0  0
  1  6  1  0  0  0  0
  2  1  1  0  0  0  0
  3  1  1  0  0  0  0
  4 10  1  0  0  0  0
  4  9  1  0  0  0  0
  5  4  2  0  0  0  0
  6  5  1  0  0  0  0
  6  7  2  0  0  0  0
  7  8  1  0  0  0  0
  8  9  2  0  0  0  0
  8 12  1  0  0  0  0
 11  5  1  0  0  0  0
 13  1  1  0  0  0  0
 13 14  1  0  0  0  0
 15 13  1  0  0  0  0
 16 13  1  0  0  0  0
 17 18  1  0  0  0  0
 17 16  2  0  0  0  0
 19 17  1  0  0  0  0
 20 19  1  0  0  0  0
 21 19  2  0  0  0  0
 21 22  1  0  0  0  0
 22 23  2  0  0  0  0
 23 16  1  0  0  0  0
M  END
>  <minimizedAffinity>
-4.05832911

$$$$

 OpenBabel03272509253D

 23 24  0  0  0  0  0  0  0  0999 V2000
   37.6890   25.6210   35.5080 C   0  0  0  0  0  0  0  0  0  0  0  0
   36.6500   25.2010   35.3890 H   0  0  0  0  0  0  0  0  0  0  0  0
   37.6330   26.5940   36.0240 H   0  0  0  0  0  0  0  0  0  0  0  0
   38.7540   23.3860   38.3580 C   0  0  0  0  0  0  0  0  0  0  0  0
   37.9870   24.3500   37.6640 C   0  0  0  0  0  0  0  0  0  0  0  0
   38.3830   24.6370   36.3700 C   0  0  0  0  0  0  0  0  0  0  0  0
   39.4620   23.9890   35.8570 N   0  0  0  0  0  0  0  0  0  0  0  0
   40.1720   23.0780   36.5390 C   0  0  0  0  0  0  0  0  0  0  0  0
   39.8140   22.7720   37.8070 N   0  0  0  0  0  0  0  0  0  0  0  0
   38.4420   23.1570   39.3840 H   0  0  0  0  0  0  0  0  0  0  0  0
   37.1370   24.8420   38.1070 H   0  0  0  0  0  0  0  0  0  0  0  0
   41.0010   22.6500   35.9970 H   0  0  0  0  0  0  0  0  0  0  0  0
   38.3730   25.7190   34.1600 C   0  0  0  0  0  0  0  0  0  0  0  0
   38.8820   26.6670   34.0020 H   0  0  0  0  0  0  0  0  0  0  0  0
   39.1610   24.9120   34.1300 H   0  0  0  0  0  0  0  0  0  0  0  0
   37.4060   25.3820   33.0520 C   0  0  0  0  0  0  0  0  0  0  0  0
   37.2690   24.0620   32.6500 C   0  0  0  0  0  0  0  0  0  0  0  0
   37.8800   23.3280   33.1690 H   0  0  0  0  0  0  0  0  0  0  0  0
   36.3750   23.7780   31.6290 C   0  0  0  0  0  0  0  0  0  0  0  0
   36.3150   22.7150   31.3620 H   0  0  0  0  0  0  0  0  0  0  0  0
   35.6400   24.7950   31.0310 C   0  0  0  0  0  3  0  0  0  0  0  0
   35.8140   26.0880   31.4680 C   0  0  0  0  0  3  0  0  0  0  0  0
   36.6820   26.3760   32.4600 N   0  0  0  0  0  0  0  0  0  0  0  0
  1  3  1  0  0  0  0
  1  6  1  0  0  0  0
  2  1  1  0  0  0  0
  4 10  1  0  0  0  0
  5 11  1  0  0  0  0
  5  4  2  0  0  0  0
  6  5  1  0  0  0  0
  7  6  2  0  0  0  0
  7  8  1  0  0  0  0
  8  9  2  0  0  0  0
  9  4  1  0  0  0  0
 12  8  1  0  0  0  0
 13  1  1  0  0  0  0
 14 13  1  0  0  0  0
 15 13  1  0  0  0  0
 16 13  1  0  0  0  0
 17 16  1  0  0  0  0
 17 18  1  0  0  0  0
 19 17  2  0  0  0  0
 20 19  1  0  0  0  0
 21 22  2  0  0  0  0
 21 19  1  0  0  0  0
 22 23  1  0  0  0  0
 23 16  2  0  0  0  0
M  END
>  <minimizedAffinity>
-4.03984356

$$$$
