
 OpenBabel03272509243D

 23 24  0  0  0  0  0  0  0  0999 V2000
   37.6200   30.4260   47.7750 C   0  0  0  0  0  0  0  0  0  0  0  0
   38.1200   29.4760   47.4310 H   0  0  0  0  0  0  0  0  0  0  0  0
   36.7580   30.6430   47.1210 H   0  0  0  0  0  0  0  0  0  0  0  0
   37.2580   30.0710   51.5160 C   0  0  0  0  0  0  0  0  0  0  0  0
   37.8480   30.4410   50.2860 C   0  0  0  0  0  0  0  0  0  0  0  0
   37.1430   30.1110   49.1420 C   0  0  0  0  0  0  0  0  0  0  0  0
   35.9530   29.4660   49.2690 N   0  0  0  0  0  0  0  0  0  0  0  0
   35.4180   29.1260   50.4510 C   0  0  0  0  0  0  0  0  0  0  0  0
   36.0790   29.4330   51.5900 N   0  0  0  0  0  0  0  0  0  0  0  0
   37.8150   30.3300   52.4250 H   0  0  0  0  0  0  0  0  0  0  0  0
   38.7940   30.9520   50.2270 H   0  0  0  0  0  0  0  0  0  0  0  0
   34.4680   28.6180   50.3900 H   0  0  0  0  0  0  0  0  0  0  0  0
   38.6200   31.5620   47.8120 C   0  0  0  0  0  0  0  0  0  0  0  0
   38.2050   32.4900   48.1990 H   0  0  0  0  0  0  0  0  0  0  0  0
   39.4460   31.2520   48.5150 H   0  0  0  0  0  0  0  0  0  0  0  0
   39.2760   31.7320   46.4640 C   0  0  0  0  0  0  0  0  0  0  0  0
   39.3730   30.6390   45.6150 C   0  0  0  0  0  0  0  0  0  0  0  0
   38.9610   29.7010   45.9780 H   0  0  0  0  0  0  0  0  0  0  0  0
   39.9800   30.8200   44.3810 C   0  0  0  0  0  0  0  0  0  0  0  0
   40.0230   29.9160   43.7600 H   0  0  0  0  0  0  0  0  0  0  0  0
   40.4740   32.0670   44.0150 C   0  0  0  0  0  3  0  0  0  0  0  0
   40.3530   33.1170   44.8930 C   0  0  0  0  0  3  0  0  0  0  0  0
   39.7630   32.9520   46.0960 N   0  0  0  0  0  0  0  0  0  0  0  0
  1 13  1  0  0  0  0
  1  6  1  0  0  0  0
  2  1  1  0  0  0  0
  3  1  1  0  0  0  0
  4  9  1  0  0  0  0
  4 10  1  0  0  0  0
  5  4  2  0  0  0  0
  6  7  2  0  0  0  0
  6  5  1  0  0  0  0
  7  8  1  0  0  0  0
  8  9  2  0  0  0  0
 11  5  1  0  0  0  0
 12  8  1  0  0  0  0
 13 14  1  0  0  0  0
 13 15  1  0  0  0  0
 16 13  1  0  0  0  0
 17 18  1  0  0  0  0
 17 16  2  0  0  0  0
 19 17  1  0  0  0  0
 20 19  1  0  0  0  0
 21 19  2  0  0  0  0
 21 22  1  0  0  0  0
 22 23  2  0  0  0  0
 23 16  1  0  0  0  0
M  END
>  <minimizedAffinity>
-4.89548349

>  <minimizedRMSD>
1.52782226

$$$$
