
 OpenBabel03272510043D

 36 38  0  0  0  0  0  0  0  0999 V2000
   36.0570   30.5100   45.4880 C   0  0  0  0  0  0  0  0  0  0  0  0
   35.6880   30.3450   46.8030 C   0  0  0  0  0  0  0  0  0  0  0  0
   34.4020   29.9240   47.0990 C   0  0  0  0  0  0  0  0  0  0  0  0
   33.4570   29.6570   46.1280 C   0  0  0  0  0  0  0  0  0  0  0  0
   33.7990   29.8160   44.8090 C   0  0  0  0  0  0  0  0  0  0  0  0
   35.0760   30.2330   44.5370 C   0  0  0  0  0  0  0  0  0  0  0  0
   34.1320   29.7990   48.1550 H   0  0  0  0  0  0  0  0  0  0  0  0
   32.4850   29.3330   46.4720 H   0  0  0  0  0  0  0  0  0  0  0  0
   33.0360   29.5990   44.0780 H   0  0  0  0  0  0  0  0  0  0  0  0
   35.2260   30.3250   43.4560 H   0  0  0  0  0  0  0  0  0  0  0  0
   38.3900   31.9120   48.7410 C   0  0  0  0  0  0  0  0  0  0  0  0
   37.4850   31.6260   47.7250 C   0  0  0  0  0  0  0  0  0  0  0  0
   36.5910   30.6220   47.8680 C   0  0  0  0  0  0  0  0  0  0  0  0
   36.6150   29.9220   49.0420 N   0  0  0  0  0  0  0  0  0  0  0  0
   37.4820   30.1960   50.0250 C   0  0  0  0  0  0  0  0  0  0  0  0
   38.3630   31.1880   49.8660 N   0  0  0  0  0  0  0  0  0  0  0  0
   39.1560   32.6620   48.7880 H   0  0  0  0  0  0  0  0  0  0  0  0
   37.6940   32.3560   46.9810 H   0  0  0  0  0  0  0  0  0  0  0  0
   37.3560   29.3990   51.2750 C   0  0  0  0  0  0  0  0  0  0  0  0
   37.6610   30.1490   52.3990 F   0  0  0  0  0  0  0  0  0  0  0  0
   35.9590   29.0810   51.4740 F   0  0  0  0  0  0  0  0  0  0  0  0
   37.9430   28.2240   51.3040 F   0  0  0  0  0  0  0  0  0  0  0  0
   37.6430   30.9830   44.9970 S   0  0  0  0  0  0  0  0  0  0  0  0
   37.7520   32.4610   44.9570 O   0  0  0  0  0  0  0  0  0  0  0  0
   37.4720   30.7770   43.5140 O   0  0  0  0  0  0  0  0  0  0  0  0
   39.0430   30.0490   44.8760 C   0  0  0  0  0  0  0  0  0  0  0  0
   39.8570   30.6580   45.3350 H   0  0  0  0  0  0  0  0  0  0  0  0
   38.9350   29.2280   45.6580 H   0  0  0  0  0  0  0  0  0  0  0  0
   39.6110   29.4020   43.7310 C   0  0  0  0  0  0  0  0  0  0  0  0
   40.5860   30.0470   42.9890 C   0  0  0  0  0  0  0  0  0  0  0  0
   40.8980   31.0520   43.3100 H   0  0  0  0  0  0  0  0  0  0  0  0
   41.2240   29.5440   41.8590 C   0  0  0  0  0  0  0  0  0  0  0  0
   41.9730   30.1450   41.3620 H   0  0  0  0  0  0  0  0  0  0  0  0
   40.8130   28.2700   41.4710 C   0  0  0  0  0  3  0  0  0  0  0  0
   39.8430   27.6090   42.1960 C   0  0  0  0  0  3  0  0  0  0  0  0
   39.2720   28.1630   43.2800 N   0  0  0  0  0  0  0  0  0  0  0  0
  1  2  1  0  0  0  0
  2  3  2  0  0  0  0
  2 13  1  0  0  0  0
  3  7  1  0  0  0  0
  4  8  1  0  0  0  0
  4  3  1  0  0  0  0
  5  4  2  0  0  0  0
  6  5  1  0  0  0  0
  6  1  2  0  0  0  0
  9  5  1  0  0  0  0
 10  6  1  0  0  0  0
 11 17  1  0  0  0  0
 11 16  1  0  0  0  0
 12 13  1  0  0  0  0
 12 11  2  0  0  0  0
 13 14  2  0  0  0  0
 14 15  1  0  0  0  0
 15 19  1  0  0  0  0
 16 15  2  0  0  0  0
 18 12  1  0  0  0  0
 19 22  1  0  0  0  0
 19 21  1  0  0  0  0
 19 20  1  0  0  0  0
 23  1  1  0  0  0  0
 24 23  2  0  0  0  0
 25 23  2  0  0  0  0
 26 23  1  0  0  0  0
 26 27  1  0  0  0  0
 26 28  1  0  0  0  0
 29 26  1  0  0  0  0
 30 31  1  0  0  0  0
 30 29  2  0  0  0  0
 32 30  1  0  0  0  0
 33 32  1  0  0  0  0
 34 32  2  0  0  0  0
 34 35  1  0  0  0  0
 35 36  2  0  0  0  0
 36 29  1  0  0  0  0
M  END
>  <minimizedAffinity>
-6.34341526

>  <minimizedRMSD>
2.44298697

$$$$
