
 OpenBabel03272509243D

 23 24  0  0  0  0  0  0  0  0999 V2000
   37.9760   30.5390   47.7130 C   0  0  0  0  0  0  0  0  0  0  0  0
   38.9200   29.9270   47.6510 H   0  0  0  0  0  0  0  0  0  0  0  0
   37.2820   30.2210   46.9160 H   0  0  0  0  0  0  0  0  0  0  0  0
   37.3120   30.1890   51.4130 C   0  0  0  0  0  0  0  0  0  0  0  0
   37.9750   30.5980   50.2330 C   0  0  0  0  0  0  0  0  0  0  0  0
   37.4070   30.1970   49.0370 C   0  0  0  0  0  0  0  0  0  0  0  0
   36.2710   29.4520   49.0690 N   0  0  0  0  0  0  0  0  0  0  0  0
   35.6630   29.0780   50.2040 C   0  0  0  0  0  0  0  0  0  0  0  0
   36.1900   29.4510   51.3930 N   0  0  0  0  0  0  0  0  0  0  0  0
   37.7600   30.5040   52.3630 H   0  0  0  0  0  0  0  0  0  0  0  0
   38.8750   31.1890   50.2500 H   0  0  0  0  0  0  0  0  0  0  0  0
   34.7690   28.4880   50.0680 H   0  0  0  0  0  0  0  0  0  0  0  0
   38.3020   32.0160   47.6420 C   0  0  0  0  0  0  0  0  0  0  0  0
   37.5110   32.6510   48.0340 H   0  0  0  0  0  0  0  0  0  0  0  0
   39.2110   32.1850   48.2880 H   0  0  0  0  0  0  0  0  0  0  0  0
   38.7210   32.3980   46.2440 C   0  0  0  0  0  0  0  0  0  0  0  0
   39.9910   32.9170   46.0350 C   0  0  0  0  0  0  0  0  0  0  0  0
   40.6250   33.0210   46.9110 H   0  0  0  0  0  0  0  0  0  0  0  0
   40.3520   33.2610   44.7410 C   0  0  0  0  0  0  0  0  0  0  0  0
   41.3690   33.6640   44.6470 H   0  0  0  0  0  0  0  0  0  0  0  0
   39.4610   33.0850   43.6890 C   0  0  0  0  0  0  0  0  0  0  0  0
   38.2140   32.5660   43.9510 C   0  0  0  0  0  0  0  0  0  0  0  0
   37.8520   32.2290   45.2060 N   0  0  0  0  0  0  0  0  0  0  0  0
  1  6  1  0  0  0  0
  2  1  1  0  0  0  0
  3  1  1  0  0  0  0
  4 10  1  0  0  0  0
  5 11  1  0  0  0  0
  5  4  2  0  0  0  0
  6  7  2  0  0  0  0
  6  5  1  0  0  0  0
  7  8  1  0  0  0  0
  8  9  2  0  0  0  0
  9  4  1  0  0  0  0
 12  8  1  0  0  0  0
 13  1  1  0  0  0  0
 13 14  1  0  0  0  0
 13 15  1  0  0  0  0
 16 13  1  0  0  0  0
 17 16  1  0  0  0  0
 17 18  1  0  0  0  0
 19 17  2  0  0  0  0
 20 19  1  0  0  0  0
 21 22  2  0  0  0  0
 21 19  1  0  0  0  0
 22 23  1  0  0  0  0
 23 16  2  0  0  0  0
M  END
>  <minimizedAffinity>
-5.22407103

>  <minimizedRMSD>
1.26036012

$$$$
