
 OpenBabel03272507593D

 31 33  0  0  0  0  0  0  0  0999 V2000
   39.8030   24.6840   34.8810 C   0  0  0  0  0  0  0  0  0  0  0  0
   40.3890   25.9320   35.0330 C   0  0  0  0  0  0  0  0  0  0  0  0
   39.8790   27.0130   34.3260 C   0  0  0  0  0  0  0  0  0  0  0  0
   38.8010   26.8510   33.4790 C   0  0  0  0  0  0  0  0  0  0  0  0
   38.2500   25.5990   33.3570 C   0  0  0  0  0  0  0  0  0  0  0  0
   38.7610   24.5770   34.0490 N   0  0  0  0  0  0  0  0  0  0  0  0
   41.2280   26.2130   35.6510 H   0  0  0  0  0  0  0  0  0  0  0  0
   40.2720   28.0150   34.3840 H   0  0  0  0  0  0  0  0  0  0  0  0
   38.3740   27.6530   32.9140 H   0  0  0  0  0  0  0  0  0  0  0  0
   40.4560   22.1600   37.5770 C   0  0  0  0  0  0  0  0  0  0  0  0
   39.7940   23.1680   36.8140 C   0  0  0  0  0  0  0  0  0  0  0  0
   40.4450   23.6600   35.6820 C   0  0  0  0  0  0  0  0  0  0  0  0
   41.6680   23.1560   35.3670 N   0  0  0  0  0  0  0  0  0  0  0  0
   42.2590   22.1910   36.1310 C   0  0  0  0  0  0  0  0  0  0  0  0
   41.6630   21.6980   37.2220 N   0  0  0  0  0  0  0  0  0  0  0  0
   43.5300   21.8250   35.6040 N   0  0  0  0  0  0  0  0  0  0  0  0
   39.9640   21.7650   38.4620 H   0  0  0  0  0  0  0  0  0  0  0  0
   44.2640   22.5320   35.4310 H   0  0  0  0  0  0  0  0  0  0  0  0
   43.7880   20.8230   35.3640 H   0  0  0  0  0  0  0  0  0  0  0  0
   38.4610   23.6360   37.2590 C   0  0  0  0  0  0  0  0  0  0  0  0
   37.4570   23.1520   36.4270 F   0  0  0  0  0  0  0  0  0  0  0  0
   38.2270   23.1720   38.5220 F   0  0  0  0  0  0  0  0  0  0  0  0
   38.3530   25.0110   37.2870 F   0  0  0  0  0  0  0  0  0  0  0  0
   37.1090   25.3790   32.4740 C   0  0  0  0  0  0  0  0  0  0  0  0
   36.7290   24.0960   32.1350 C   0  0  0  0  0  0  0  0  0  0  0  0
   37.2410   23.2150   32.4950 H   0  0  0  0  0  0  0  0  0  0  0  0
   35.6450   24.0330   31.3010 C   0  0  0  0  0  0  0  0  0  0  0  0
   35.2570   23.0590   30.9670 H   0  0  0  0  0  0  0  0  0  0  0  0
   34.9340   25.0980   30.7950 C   0  0  0  0  0  3  0  0  0  0  0  0
   35.3820   26.3590   31.1830 C   0  0  0  0  0  3  0  0  0  0  0  0
   36.4460   26.4530   32.0030 N   0  0  0  0  0  0  0  0  0  0  0  0
  1  2  1  0  0  0  0
  1 12  1  0  0  0  0
  2  7  1  0  0  0  0
  3  8  1  0  0  0  0
  3  2  2  0  0  0  0
  4  3  1  0  0  0  0
  5  4  2  0  0  0  0
  5  6  1  0  0  0  0
  6  1  2  0  0  0  0
  9  4  1  0  0  0  0
 10 17  1  0  0  0  0
 11 20  1  0  0  0  0
 11 10  2  0  0  0  0
 12 11  1  0  0  0  0
 13 12  2  0  0  0  0
 13 14  1  0  0  0  0
 14 15  2  0  0  0  0
 15 10  1  0  0  0  0
 16 14  1  0  0  0  0
 18 16  1  0  0  0  0
 19 16  1  0  0  0  0
 20 23  1  0  0  0  0
 20 22  1  0  0  0  0
 21 20  1  0  0  0  0
 24  5  1  0  0  0  0
 25 24  1  0  0  0  0
 25 26  1  0  0  0  0
 27 25  2  0  0  0  0
 28 27  1  0  0  0  0
 29 30  2  0  0  0  0
 29 27  1  0  0  0  0
 30 31  1  0  0  0  0
 31 24  2  0  0  0  0
M  END
>  <minimizedAffinity>
-5.99801826

$$$$

 OpenBabel03272507593D

 31 33  0  0  0  0  0  0  0  0999 V2000
   38.5950   24.2470   35.5140 C   0  0  0  0  0  0  0  0  0  0  0  0
   37.7960   24.0900   36.6370 C   0  0  0  0  0  0  0  0  0  0  0  0
   38.2840   23.3770   37.7230 C   0  0  0  0  0  0  0  0  0  0  0  0
   39.5510   22.8280   37.6910 C   0  0  0  0  0  0  0  0  0  0  0  0
   40.3090   23.0060   36.5590 C   0  0  0  0  0  0  0  0  0  0  0  0
   39.8140   23.6970   35.5280 N   0  0  0  0  0  0  0  0  0  0  0  0
   36.7950   24.4560   36.8110 H   0  0  0  0  0  0  0  0  0  0  0  0
   37.7330   23.2060   38.6340 H   0  0  0  0  0  0  0  0  0  0  0  0
   39.9700   22.2710   38.5020 H   0  0  0  0  0  0  0  0  0  0  0  0
   37.2720   27.1240   33.5050 C   0  0  0  0  0  0  0  0  0  0  0  0
   37.9170   26.4050   34.5550 C   0  0  0  0  0  0  0  0  0  0  0  0
   37.9480   25.0130   34.4660 C   0  0  0  0  0  0  0  0  0  0  0  0
   37.3660   24.4190   33.3900 N   0  0  0  0  0  0  0  0  0  0  0  0
   36.7610   25.1530   32.4110 C   0  0  0  0  0  0  0  0  0  0  0  0
   36.7140   26.4890   32.4650 N   0  0  0  0  0  0  0  0  0  0  0  0
   36.2270   24.3130   31.3940 N   0  0  0  0  0  0  0  0  0  0  0  0
   37.2380   28.2090   33.5570 H   0  0  0  0  0  0  0  0  0  0  0  0
   35.5660   23.5510   31.6180 H   0  0  0  0  0  0  0  0  0  0  0  0
   36.4750   24.4220   30.3670 H   0  0  0  0  0  0  0  0  0  0  0  0
   38.5150   27.1660   35.6760 C   0  0  0  0  0  0  0  0  0  0  0  0
   38.1530   26.6190   36.9020 F   0  0  0  0  0  0  0  0  0  0  0  0
   39.8760   27.1130   35.5720 F   0  0  0  0  0  0  0  0  0  0  0  0
   38.1420   28.4950   35.6870 F   0  0  0  0  0  0  0  0  0  0  0  0
   41.6540   22.4450   36.4780 C   0  0  0  0  0  0  0  0  0  0  0  0
   42.7110   23.2310   36.0660 C   0  0  0  0  0  0  0  0  0  0  0  0
   42.6020   24.2700   35.7900 H   0  0  0  0  0  0  0  0  0  0  0  0
   43.9160   22.5800   36.0350 C   0  0  0  0  0  0  0  0  0  0  0  0
   44.8260   23.1120   35.7210 H   0  0  0  0  0  0  0  0  0  0  0  0
   44.1490   21.2650   36.3670 C   0  0  0  0  0  3  0  0  0  0  0  0
   43.0300   20.5400   36.7720 C   0  0  0  0  0  3  0  0  0  0  0  0
   41.8310   21.1530   36.8130 N   0  0  0  0  0  0  0  0  0  0  0  0
  1  6  2  0  0  0  0
  1  2  1  0  0  0  0
  2  7  1  0  0  0  0
  2  3  2  0  0  0  0
  3  8  1  0  0  0  0
  4  3  1  0  0  0  0
  4  9  1  0  0  0  0
  5  4  2  0  0  0  0
  6  5  1  0  0  0  0
 10 17  1  0  0  0  0
 10 11  1  0  0  0  0
 11 20  1  0  0  0  0
 12 11  2  0  0  0  0
 12  1  1  0  0  0  0
 13 12  1  0  0  0  0
 14 15  1  0  0  0  0
 14 13  2  0  0  0  0
 15 10  2  0  0  0  0
 16 18  1  0  0  0  0
 16 14  1  0  0  0  0
 19 16  1  0  0  0  0
 20 23  1  0  0  0  0
 20 21  1  0  0  0  0
 22 20  1  0  0  0  0
 24  5  1  0  0  0  0
 24 31  1  0  0  0  0
 25 24  2  0  0  0  0
 26 25  1  0  0  0  0
 27 25  1  0  0  0  0
 27 29  2  0  0  0  0
 28 27  1  0  0  0  0
 29 30  1  0  0  0  0
 30 31  2  0  0  0  0
M  END
>  <minimizedAffinity>
-5.8774004

$$$$

 OpenBabel03272507593D

 31 33  0  0  0  0  0  0  0  0999 V2000
   37.6520   22.6970   32.4180 C   0  0  0  0  0  0  0  0  0  0  0  0
   37.4580   23.9310   31.8160 C   0  0  0  0  0  0  0  0  0  0  0  0
   37.5810   25.0860   32.5760 C   0  0  0  0  0  0  0  0  0  0  0  0
   37.8940   25.0110   33.9190 C   0  0  0  0  0  0  0  0  0  0  0  0
   38.0780   23.7700   34.4770 C   0  0  0  0  0  0  0  0  0  0  0  0
   37.9520   22.6750   33.7210 N   0  0  0  0  0  0  0  0  0  0  0  0
   37.2110   24.1490   30.7870 H   0  0  0  0  0  0  0  0  0  0  0  0
   37.4480   26.0830   32.1900 H   0  0  0  0  0  0  0  0  0  0  0  0
   38.0000   25.8720   34.5440 H   0  0  0  0  0  0  0  0  0  0  0  0
   36.1800   19.7700   30.5930 C   0  0  0  0  0  0  0  0  0  0  0  0
   36.3030   20.8530   31.5130 C   0  0  0  0  0  0  0  0  0  0  0  0
   37.4890   21.5890   31.4980 C   0  0  0  0  0  0  0  0  0  0  0  0
   38.4580   21.2370   30.6110 N   0  0  0  0  0  0  0  0  0  0  0  0
   38.2910   20.1910   29.7500 C   0  0  0  0  0  0  0  0  0  0  0  0
   37.1670   19.4650   29.7390 N   0  0  0  0  0  0  0  0  0  0  0  0
   39.4360   20.0160   28.9240 N   0  0  0  0  0  0  0  0  0  0  0  0
   35.2630   19.1860   30.5910 H   0  0  0  0  0  0  0  0  0  0  0  0
   40.3790   19.8940   29.3300 H   0  0  0  0  0  0  0  0  0  0  0  0
   39.3860   20.0030   27.8620 H   0  0  0  0  0  0  0  0  0  0  0  0
   35.1760   21.1380   32.4310 C   0  0  0  0  0  0  0  0  0  0  0  0
   34.7620   22.4620   32.3190 F   0  0  0  0  0  0  0  0  0  0  0  0
   34.1220   20.3340   32.1020 F   0  0  0  0  0  0  0  0  0  0  0  0
   35.4870   20.9100   33.7560 F   0  0  0  0  0  0  0  0  0  0  0  0
   38.4100   23.6410   35.8920 C   0  0  0  0  0  0  0  0  0  0  0  0
   37.6360   24.2670   36.8480 C   0  0  0  0  0  0  0  0  0  0  0  0
   36.7690   24.8660   36.6050 H   0  0  0  0  0  0  0  0  0  0  0  0
   38.0580   24.0640   38.1350 C   0  0  0  0  0  0  0  0  0  0  0  0
   37.5140   24.5170   38.9760 H   0  0  0  0  0  0  0  0  0  0  0  0
   39.1450   23.3190   38.5350 C   0  0  0  0  0  3  0  0  0  0  0  0
   39.8740   22.7210   37.5100 C   0  0  0  0  0  3  0  0  0  0  0  0
   39.4830   22.9020   36.2340 N   0  0  0  0  0  0  0  0  0  0  0  0
  1  6  1  0  0  0  0
  2  1  2  0  0  0  0
  2  3  1  0  0  0  0
  3  4  2  0  0  0  0
  4  5  1  0  0  0  0
  4  9  1  0  0  0  0
  5 24  1  0  0  0  0
  6  5  2  0  0  0  0
  7  2  1  0  0  0  0
  8  3  1  0  0  0  0
 10 11  1  0  0  0  0
 11 20  1  0  0  0  0
 12 11  2  0  0  0  0
 12  1  1  0  0  0  0
 13 12  1  0  0  0  0
 14 13  2  0  0  0  0
 15 14  1  0  0  0  0
 15 10  2  0  0  0  0
 16 18  1  0  0  0  0
 16 14  1  0  0  0  0
 17 10  1  0  0  0  0
 19 16  1  0  0  0  0
 20 23  1  0  0  0  0
 21 20  1  0  0  0  0
 22 20  1  0  0  0  0
 24 31  2  0  0  0  0
 24 25  1  0  0  0  0
 25 27  2  0  0  0  0
 26 25  1  0  0  0  0
 27 29  1  0  0  0  0
 27 28  1  0  0  0  0
 30 29  2  0  0  0  0
 31 30  1  0  0  0  0
M  END
>  <minimizedAffinity>
-5.74300671

$$$$

 OpenBabel03272507593D

 31 33  0  0  0  0  0  0  0  0999 V2000
   36.6500   27.6590   32.8120 C   0  0  0  0  0  0  0  0  0  0  0  0
   36.9480   28.2850   31.6110 C   0  0  0  0  0  0  0  0  0  0  0  0
   36.6360   29.6270   31.4490 C   0  0  0  0  0  0  0  0  0  0  0  0
   36.0350   30.3370   32.4700 C   0  0  0  0  0  0  0  0  0  0  0  0
   35.7570   29.6790   33.6440 C   0  0  0  0  0  0  0  0  0  0  0  0
   36.0690   28.3860   33.7720 N   0  0  0  0  0  0  0  0  0  0  0  0
   37.4110   27.8680   30.7290 H   0  0  0  0  0  0  0  0  0  0  0  0
   36.8310   30.1910   30.5510 H   0  0  0  0  0  0  0  0  0  0  0  0
   35.7760   31.3710   32.3920 H   0  0  0  0  0  0  0  0  0  0  0  0
   38.5170   24.4870   33.5350 C   0  0  0  0  0  0  0  0  0  0  0  0
   38.1700   25.8710   33.5420 C   0  0  0  0  0  0  0  0  0  0  0  0
   37.0350   26.2610   32.8290 C   0  0  0  0  0  0  0  0  0  0  0  0
   36.3240   25.3070   32.1710 N   0  0  0  0  0  0  0  0  0  0  0  0
   36.6980   23.9940   32.1960 C   0  0  0  0  0  0  0  0  0  0  0  0
   37.7790   23.5870   32.8690 N   0  0  0  0  0  0  0  0  0  0  0  0
   35.8030   23.1900   31.4370 N   0  0  0  0  0  0  0  0  0  0  0  0
   39.3970   24.1650   34.0850 H   0  0  0  0  0  0  0  0  0  0  0  0
   35.5970   23.4010   30.4460 H   0  0  0  0  0  0  0  0  0  0  0  0
   35.3050   22.3420   31.8410 H   0  0  0  0  0  0  0  0  0  0  0  0
   39.0250   26.8150   34.2970 C   0  0  0  0  0  0  0  0  0  0  0  0
   40.0230   26.1400   34.9930 F   0  0  0  0  0  0  0  0  0  0  0  0
   39.6250   27.6710   33.4180 F   0  0  0  0  0  0  0  0  0  0  0  0
   38.3190   27.5710   35.2100 F   0  0  0  0  0  0  0  0  0  0  0  0
   35.1240   30.3870   34.7520 C   0  0  0  0  0  0  0  0  0  0  0  0
   35.8740   31.1990   35.5780 C   0  0  0  0  0  0  0  0  0  0  0  0
   36.9370   31.3490   35.4510 H   0  0  0  0  0  0  0  0  0  0  0  0
   35.1560   31.8020   36.5760 C   0  0  0  0  0  0  0  0  0  0  0  0
   35.6550   32.4710   37.2930 H   0  0  0  0  0  0  0  0  0  0  0  0
   33.8060   31.6700   36.8130 C   0  0  0  0  0  3  0  0  0  0  0  0
   33.1210   30.8320   35.9350 C   0  0  0  0  0  3  0  0  0  0  0  0
   33.8000   30.2250   34.9430 N   0  0  0  0  0  0  0  0  0  0  0  0
  1 12  1  0  0  0  0
  1  6  1  0  0  0  0
  2  1  2  0  0  0  0
  3  2  1  0  0  0  0
  3  4  2  0  0  0  0
  4  5  1  0  0  0  0
  5  6  2  0  0  0  0
  5 24  1  0  0  0  0
  7  2  1  0  0  0  0
  8  3  1  0  0  0  0
  9  4  1  0  0  0  0
 10 11  1  0  0  0  0
 10 17  1  0  0  0  0
 11 20  1  0  0  0  0
 12 11  2  0  0  0  0
 13 14  2  0  0  0  0
 13 12  1  0  0  0  0
 14 15  1  0  0  0  0
 15 10  2  0  0  0  0
 16 19  1  0  0  0  0
 16 14  1  0  0  0  0
 18 16  1  0  0  0  0
 20 21  1  0  0  0  0
 20 23  1  0  0  0  0
 22 20  1  0  0  0  0
 24 31  2  0  0  0  0
 24 25  1  0  0  0  0
 25 27  2  0  0  0  0
 26 25  1  0  0  0  0
 27 29  1  0  0  0  0
 27 28  1  0  0  0  0
 30 29  2  0  0  0  0
 31 30  1  0  0  0  0
M  END
>  <minimizedAffinity>
-5.69182205

$$$$

 OpenBabel03272507593D

 31 33  0  0  0  0  0  0  0  0999 V2000
   34.6350   29.6870   34.4640 C   0  0  0  0  0  0  0  0  0  0  0  0
   34.1440   29.7540   33.1680 C   0  0  0  0  0  0  0  0  0  0  0  0
   34.8070   29.0780   32.1540 C   0  0  0  0  0  0  0  0  0  0  0  0
   35.9450   28.3450   32.4260 C   0  0  0  0  0  0  0  0  0  0  0  0
   36.3980   28.3030   33.7220 C   0  0  0  0  0  0  0  0  0  0  0  0
   35.7400   28.9640   34.6790 N   0  0  0  0  0  0  0  0  0  0  0  0
   33.2760   30.2810   32.8020 H   0  0  0  0  0  0  0  0  0  0  0  0
   34.4960   29.0770   31.1210 H   0  0  0  0  0  0  0  0  0  0  0  0
   36.4890   27.8080   31.6790 H   0  0  0  0  0  0  0  0  0  0  0  0
   33.5400   32.3300   36.8870 C   0  0  0  0  0  0  0  0  0  0  0  0
   34.3550   31.6140   35.9610 C   0  0  0  0  0  0  0  0  0  0  0  0
   33.8370   30.4420   35.4090 C   0  0  0  0  0  0  0  0  0  0  0  0
   32.5900   30.0460   35.7810 N   0  0  0  0  0  0  0  0  0  0  0  0
   31.8490   30.7680   36.6730 C   0  0  0  0  0  0  0  0  0  0  0  0
   32.3160   31.8960   37.2200 N   0  0  0  0  0  0  0  0  0  0  0  0
   30.5850   30.1580   36.9040 N   0  0  0  0  0  0  0  0  0  0  0  0
   33.9270   33.2460   37.3270 H   0  0  0  0  0  0  0  0  0  0  0  0
   30.5100   29.1740   37.2130 H   0  0  0  0  0  0  0  0  0  0  0  0
   29.6640   30.6720   36.7730 H   0  0  0  0  0  0  0  0  0  0  0  0
   35.6980   32.1470   35.6350 C   0  0  0  0  0  0  0  0  0  0  0  0
   35.8550   32.3040   34.2620 F   0  0  0  0  0  0  0  0  0  0  0  0
   35.8430   33.3720   36.2220 F   0  0  0  0  0  0  0  0  0  0  0  0
   36.7230   31.3390   36.0820 F   0  0  0  0  0  0  0  0  0  0  0  0
   37.5960   27.5410   34.0590 C   0  0  0  0  0  0  0  0  0  0  0  0
   38.0490   27.4970   35.3620 C   0  0  0  0  0  0  0  0  0  0  0  0
   37.5550   28.0100   36.1760 H   0  0  0  0  0  0  0  0  0  0  0  0
   39.1810   26.7470   35.5390 C   0  0  0  0  0  0  0  0  0  0  0  0
   39.6290   26.6450   36.5380 H   0  0  0  0  0  0  0  0  0  0  0  0
   39.8740   26.0630   34.5660 C   0  0  0  0  0  3  0  0  0  0  0  0
   39.3520   26.1570   33.2770 C   0  0  0  0  0  3  0  0  0  0  0  0
   38.2390   26.8880   33.0720 N   0  0  0  0  0  0  0  0  0  0  0  0
  1  6  1  0  0  0  0
  1 12  1  0  0  0  0
  2  1  2  0  0  0  0
  3  4  2  0  0  0  0
  3  2  1  0  0  0  0
  4  5  1  0  0  0  0
  5 24  1  0  0  0  0
  5  6  2  0  0  0  0
  7  2  1  0  0  0  0
  8  3  1  0  0  0  0
  9  4  1  0  0  0  0
 10 15  1  0  0  0  0
 10 17  1  0  0  0  0
 11 10  2  0  0  0  0
 12 13  2  0  0  0  0
 12 11  1  0  0  0  0
 13 14  1  0  0  0  0
 14 16  1  0  0  0  0
 14 15  2  0  0  0  0
 16 18  1  0  0  0  0
 19 16  1  0  0  0  0
 20 11  1  0  0  0  0
 20 23  1  0  0  0  0
 20 22  1  0  0  0  0
 21 20  1  0  0  0  0
 24 25  1  0  0  0  0
 25 27  2  0  0  0  0
 25 26  1  0  0  0  0
 27 28  1  0  0  0  0
 29 27  1  0  0  0  0
 30 29  2  0  0  0  0
 31 30  1  0  0  0  0
 31 24  2  0  0  0  0
M  END
>  <minimizedAffinity>
-5.62124729

$$$$

 OpenBabel03272507593D

 31 33  0  0  0  0  0  0  0  0999 V2000
   37.3380   24.9010   32.6240 C   0  0  0  0  0  0  0  0  0  0  0  0
   36.4850   25.7030   31.8800 C   0  0  0  0  0  0  0  0  0  0  0  0
   35.4500   25.1150   31.1670 C   0  0  0  0  0  0  0  0  0  0  0  0
   35.2670   23.7470   31.1940 C   0  0  0  0  0  0  0  0  0  0  0  0
   36.1340   22.9890   31.9430 C   0  0  0  0  0  0  0  0  0  0  0  0
   37.1220   23.5810   32.6200 N   0  0  0  0  0  0  0  0  0  0  0  0
   36.5000   26.7760   31.7610 H   0  0  0  0  0  0  0  0  0  0  0  0
   34.7420   25.6620   30.5640 H   0  0  0  0  0  0  0  0  0  0  0  0
   34.4850   23.2500   30.6610 H   0  0  0  0  0  0  0  0  0  0  0  0
   40.6300   26.4890   33.4650 C   0  0  0  0  0  0  0  0  0  0  0  0
   39.6460   25.7350   32.7600 C   0  0  0  0  0  0  0  0  0  0  0  0
   38.3660   25.6580   33.3120 C   0  0  0  0  0  0  0  0  0  0  0  0
   38.1270   26.3020   34.4860 N   0  0  0  0  0  0  0  0  0  0  0  0
   39.1050   27.0120   35.1210 C   0  0  0  0  0  0  0  0  0  0  0  0
   40.3410   27.1060   34.6200 N   0  0  0  0  0  0  0  0  0  0  0  0
   38.6180   27.5930   36.3250 N   0  0  0  0  0  0  0  0  0  0  0  0
   41.6320   26.5600   33.0500 H   0  0  0  0  0  0  0  0  0  0  0  0
   38.1700   27.0180   37.0580 H   0  0  0  0  0  0  0  0  0  0  0  0
   38.6860   28.6330   36.5320 H   0  0  0  0  0  0  0  0  0  0  0  0
   40.0280   25.0780   31.4890 C   0  0  0  0  0  0  0  0  0  0  0  0
   39.2670   25.5580   30.4280 F   0  0  0  0  0  0  0  0  0  0  0  0
   41.3410   25.3490   31.2270 F   0  0  0  0  0  0  0  0  0  0  0  0
   39.8770   23.7070   31.5230 F   0  0  0  0  0  0  0  0  0  0  0  0
   35.9800   21.5390   32.0030 C   0  0  0  0  0  0  0  0  0  0  0  0
   35.5560   20.9330   33.1680 C   0  0  0  0  0  0  0  0  0  0  0  0
   35.3210   21.4830   34.0690 H   0  0  0  0  0  0  0  0  0  0  0  0
   35.4550   19.5690   33.0870 C   0  0  0  0  0  0  0  0  0  0  0  0
   35.1250   18.9840   33.9590 H   0  0  0  0  0  0  0  0  0  0  0  0
   35.7310   18.7880   31.9880 C   0  0  0  0  0  3  0  0  0  0  0  0
   36.1540   19.4760   30.8530 C   0  0  0  0  0  3  0  0  0  0  0  0
   36.2630   20.8180   30.9010 N   0  0  0  0  0  0  0  0  0  0  0  0
  1 12  1  0  0  0  0
  2  1  2  0  0  0  0
  3  4  2  0  0  0  0
  3  2  1  0  0  0  0
  4  5  1  0  0  0  0
  5 24  1  0  0  0  0
  5  6  2  0  0  0  0
  6  1  1  0  0  0  0
  7  2  1  0  0  0  0
  8  3  1  0  0  0  0
  9  4  1  0  0  0  0
 10 15  1  0  0  0  0
 11 12  1  0  0  0  0
 11 10  2  0  0  0  0
 12 13  2  0  0  0  0
 13 14  1  0  0  0  0
 14 16  1  0  0  0  0
 15 14  2  0  0  0  0
 16 19  1  0  0  0  0
 16 18  1  0  0  0  0
 17 10  1  0  0  0  0
 20 23  1  0  0  0  0
 20 11  1  0  0  0  0
 21 20  1  0  0  0  0
 22 20  1  0  0  0  0
 24 25  1  0  0  0  0
 25 26  1  0  0  0  0
 27 25  2  0  0  0  0
 27 28  1  0  0  0  0
 29 27  1  0  0  0  0
 30 31  1  0  0  0  0
 30 29  2  0  0  0  0
 31 24  2  0  0  0  0
M  END
>  <minimizedAffinity>
-5.60658407

$$$$

 OpenBabel03272507593D

 31 33  0  0  0  0  0  0  0  0999 V2000
   37.7050   25.4080   32.3410 C   0  0  0  0  0  0  0  0  0  0  0  0
   36.7730   26.3240   31.8760 C   0  0  0  0  0  0  0  0  0  0  0  0
   35.5910   25.8650   31.3120 C   0  0  0  0  0  0  0  0  0  0  0  0
   35.3400   24.5110   31.2120 C   0  0  0  0  0  0  0  0  0  0  0  0
   36.2890   23.6370   31.6840 C   0  0  0  0  0  0  0  0  0  0  0  0
   37.4180   24.1070   32.2220 N   0  0  0  0  0  0  0  0  0  0  0  0
   36.8250   27.4030   31.8840 H   0  0  0  0  0  0  0  0  0  0  0  0
   34.8140   26.5060   30.9270 H   0  0  0  0  0  0  0  0  0  0  0  0
   34.4450   24.1110   30.7860 H   0  0  0  0  0  0  0  0  0  0  0  0
   40.1610   26.8190   34.7980 C   0  0  0  0  0  0  0  0  0  0  0  0
   38.9860   26.1940   34.2840 C   0  0  0  0  0  0  0  0  0  0  0  0
   38.8840   26.0380   32.9010 C   0  0  0  0  0  0  0  0  0  0  0  0
   39.9040   26.4870   32.1210 N   0  0  0  0  0  0  0  0  0  0  0  0
   41.0090   27.0780   32.6630 C   0  0  0  0  0  0  0  0  0  0  0  0
   41.1390   27.2430   33.9830 N   0  0  0  0  0  0  0  0  0  0  0  0
   41.9340   27.4620   31.6520 N   0  0  0  0  0  0  0  0  0  0  0  0
   40.2580   26.9490   35.8720 H   0  0  0  0  0  0  0  0  0  0  0  0
   41.6500   28.0710   30.8660 H   0  0  0  0  0  0  0  0  0  0  0  0
   42.9490   27.1500   31.6500 H   0  0  0  0  0  0  0  0  0  0  0  0
   37.9440   25.7480   35.2360 C   0  0  0  0  0  0  0  0  0  0  0  0
   37.7600   24.3700   35.1680 F   0  0  0  0  0  0  0  0  0  0  0  0
   38.3390   26.0610   36.5060 F   0  0  0  0  0  0  0  0  0  0  0  0
   36.7190   26.3430   35.0150 F   0  0  0  0  0  0  0  0  0  0  0  0
   36.0690   22.1970   31.6010 C   0  0  0  0  0  0  0  0  0  0  0  0
   35.0250   21.6120   32.2890 C   0  0  0  0  0  0  0  0  0  0  0  0
   34.3380   22.1730   32.9060 H   0  0  0  0  0  0  0  0  0  0  0  0
   34.9330   20.2560   32.1240 C   0  0  0  0  0  0  0  0  0  0  0  0
   34.1370   19.6870   32.6280 H   0  0  0  0  0  0  0  0  0  0  0  0
   35.7600   19.4620   31.3610 C   0  0  0  0  0  3  0  0  0  0  0  0
   36.7890   20.1290   30.6990 C   0  0  0  0  0  3  0  0  0  0  0  0
   36.9060   21.4630   30.8420 N   0  0  0  0  0  0  0  0  0  0  0  0
  1 12  1  0  0  0  0
  2  7  1  0  0  0  0
  2  1  2  0  0  0  0
  3  2  1  0  0  0  0
  4  3  2  0  0  0  0
  4  5  1  0  0  0  0
  5  6  2  0  0  0  0
  6  1  1  0  0  0  0
  8  3  1  0  0  0  0
  9  4  1  0  0  0  0
 10 17  1  0  0  0  0
 11 10  1  0  0  0  0
 11 20  1  0  0  0  0
 12 11  2  0  0  0  0
 13 14  2  0  0  0  0
 13 12  1  0  0  0  0
 14 15  1  0  0  0  0
 15 10  2  0  0  0  0
 16 14  1  0  0  0  0
 18 16  1  0  0  0  0
 19 16  1  0  0  0  0
 20 22  1  0  0  0  0
 21 20  1  0  0  0  0
 23 20  1  0  0  0  0
 24  5  1  0  0  0  0
 24 25  1  0  0  0  0
 25 26  1  0  0  0  0
 27 25  2  0  0  0  0
 27 28  1  0  0  0  0
 29 27  1  0  0  0  0
 30 31  1  0  0  0  0
 30 29  2  0  0  0  0
 31 24  2  0  0  0  0
M  END
>  <minimizedAffinity>
-5.57346249

$$$$

 OpenBabel03272507593D

 31 33  0  0  0  0  0  0  0  0999 V2000
   39.5790   26.7350   33.2030 C   0  0  0  0  0  0  0  0  0  0  0  0
   40.7160   27.5140   33.0490 C   0  0  0  0  0  0  0  0  0  0  0  0
   41.8770   27.1620   33.7220 C   0  0  0  0  0  0  0  0  0  0  0  0
   41.9050   26.0480   34.5390 C   0  0  0  0  0  0  0  0  0  0  0  0
   40.7580   25.3040   34.6640 C   0  0  0  0  0  0  0  0  0  0  0  0
   39.6540   25.6660   34.0040 N   0  0  0  0  0  0  0  0  0  0  0  0
   40.8480   28.4040   32.4530 H   0  0  0  0  0  0  0  0  0  0  0  0
   42.8040   27.7090   33.6600 H   0  0  0  0  0  0  0  0  0  0  0  0
   42.7750   25.7380   35.0760 H   0  0  0  0  0  0  0  0  0  0  0  0
   36.1890   28.0750   32.3190 C   0  0  0  0  0  0  0  0  0  0  0  0
   37.2780   27.5940   33.1050 C   0  0  0  0  0  0  0  0  0  0  0  0
   38.4500   27.2280   32.4390 C   0  0  0  0  0  0  0  0  0  0  0  0
   38.4900   27.3500   31.0850 N   0  0  0  0  0  0  0  0  0  0  0  0
   37.4190   27.8170   30.3790 C   0  0  0  0  0  0  0  0  0  0  0  0
   36.2830   28.1760   30.9860 N   0  0  0  0  0  0  0  0  0  0  0  0
   37.7000   27.8530   28.9840 N   0  0  0  0  0  0  0  0  0  0  0  0
   35.2690   28.3640   32.8210 H   0  0  0  0  0  0  0  0  0  0  0  0
   38.0210   27.0110   28.4780 H   0  0  0  0  0  0  0  0  0  0  0  0
   37.5960   28.7330   28.3980 H   0  0  0  0  0  0  0  0  0  0  0  0
   37.1130   27.5070   34.5740 C   0  0  0  0  0  0  0  0  0  0  0  0
   36.0140   28.2480   34.9980 F   0  0  0  0  0  0  0  0  0  0  0  0
   36.9040   26.2020   34.9200 F   0  0  0  0  0  0  0  0  0  0  0  0
   38.2140   27.9600   35.2700 F   0  0  0  0  0  0  0  0  0  0  0  0
   40.7390   24.1180   35.5140 C   0  0  0  0  0  0  0  0  0  0  0  0
   41.8860   23.3730   35.6940 C   0  0  0  0  0  0  0  0  0  0  0  0
   42.8300   23.6210   35.2290 H   0  0  0  0  0  0  0  0  0  0  0  0
   41.7290   22.2880   36.5150 C   0  0  0  0  0  0  0  0  0  0  0  0
   42.5810   21.6240   36.7270 H   0  0  0  0  0  0  0  0  0  0  0  0
   40.5710   21.8970   37.1480 C   0  0  0  0  0  3  0  0  0  0  0  0
   39.4580   22.7010   36.9140 C   0  0  0  0  0  3  0  0  0  0  0  0
   39.5810   23.7750   36.1120 N   0  0  0  0  0  0  0  0  0  0  0  0
  1  6  1  0  0  0  0
  2  1  2  0  0  0  0
  2  3  1  0  0  0  0
  3  4  2  0  0  0  0
  4  5  1  0  0  0  0
  4  9  1  0  0  0  0
  5 24  1  0  0  0  0
  6  5  2  0  0  0  0
  7  2  1  0  0  0  0
  8  3  1  0  0  0  0
 10 17  1  0  0  0  0
 10 11  1  0  0  0  0
 11 20  1  0  0  0  0
 12 11  2  0  0  0  0
 12  1  1  0  0  0  0
 13 12  1  0  0  0  0
 14 15  1  0  0  0  0
 14 13  2  0  0  0  0
 15 10  2  0  0  0  0
 16 14  1  0  0  0  0
 18 16  1  0  0  0  0
 19 16  1  0  0  0  0
 20 22  1  0  0  0  0
 20 21  1  0  0  0  0
 20 23  1  0  0  0  0
 24 25  2  0  0  0  0
 24 31  1  0  0  0  0
 25 27  1  0  0  0  0
 26 25  1  0  0  0  0
 27 28  1  0  0  0  0
 27 29  2  0  0  0  0
 30 29  1  0  0  0  0
 31 30  2  0  0  0  0
M  END
>  <minimizedAffinity>
-5.55850983

$$$$

 OpenBabel03272507593D

 31 33  0  0  0  0  0  0  0  0999 V2000
   38.7950   24.6950   34.6760 C   0  0  0  0  0  0  0  0  0  0  0  0
   37.9150   25.0190   35.6980 C   0  0  0  0  0  0  0  0  0  0  0  0
   38.0320   24.3810   36.9250 C   0  0  0  0  0  0  0  0  0  0  0  0
   39.0150   23.4320   37.1310 C   0  0  0  0  0  0  0  0  0  0  0  0
   39.8660   23.1410   36.0930 C   0  0  0  0  0  0  0  0  0  0  0  0
   39.7300   23.7700   34.9230 N   0  0  0  0  0  0  0  0  0  0  0  0
   37.1030   25.7310   35.6890 H   0  0  0  0  0  0  0  0  0  0  0  0
   37.3920   24.5710   37.7710 H   0  0  0  0  0  0  0  0  0  0  0  0
   39.1440   22.9150   38.0580 H   0  0  0  0  0  0  0  0  0  0  0  0
   39.1250   27.2020   31.9070 C   0  0  0  0  0  0  0  0  0  0  0  0
   39.4010   26.4900   33.1110 C   0  0  0  0  0  0  0  0  0  0  0  0
   38.5460   25.4430   33.4590 C   0  0  0  0  0  0  0  0  0  0  0  0
   37.5010   25.1590   32.6370 N   0  0  0  0  0  0  0  0  0  0  0  0
   37.2790   25.8730   31.4940 C   0  0  0  0  0  0  0  0  0  0  0  0
   38.0790   26.8810   31.1310 N   0  0  0  0  0  0  0  0  0  0  0  0
   36.1310   25.3930   30.8030 N   0  0  0  0  0  0  0  0  0  0  0  0
   39.7800   28.0210   31.6200 H   0  0  0  0  0  0  0  0  0  0  0  0
   35.2120   25.3240   31.2700 H   0  0  0  0  0  0  0  0  0  0  0  0
   36.1570   25.0840   29.7870 H   0  0  0  0  0  0  0  0  0  0  0  0
   40.5720   26.8930   33.9240 C   0  0  0  0  0  0  0  0  0  0  0  0
   41.2200   27.9880   33.3600 F   0  0  0  0  0  0  0  0  0  0  0  0
   40.1440   27.2500   35.1710 F   0  0  0  0  0  0  0  0  0  0  0  0
   41.5040   25.8860   34.0670 F   0  0  0  0  0  0  0  0  0  0  0  0
   40.9210   22.1460   36.2640 C   0  0  0  0  0  0  0  0  0  0  0  0
   41.2300   21.6690   37.5210 C   0  0  0  0  0  0  0  0  0  0  0  0
   40.7230   21.9980   38.4180 H   0  0  0  0  0  0  0  0  0  0  0  0
   42.2370   20.7410   37.5390 C   0  0  0  0  0  0  0  0  0  0  0  0
   42.5650   20.2950   38.4890 H   0  0  0  0  0  0  0  0  0  0  0  0
   42.9350   20.2660   36.4520 C   0  0  0  0  0  3  0  0  0  0  0  0
   42.5630   20.7970   35.2190 C   0  0  0  0  0  3  0  0  0  0  0  0
   41.5760   21.7110   35.1690 N   0  0  0  0  0  0  0  0  0  0  0  0
  1  6  2  0  0  0  0
  1  2  1  0  0  0  0
  2  3  2  0  0  0  0
  3  4  1  0  0  0  0
  3  8  1  0  0  0  0
  4  9  1  0  0  0  0
  5 24  1  0  0  0  0
  5  4  2  0  0  0  0
  6  5  1  0  0  0  0
  7  2  1  0  0  0  0
 10 11  1  0  0  0  0
 11 12  2  0  0  0  0
 11 20  1  0  0  0  0
 12  1  1  0  0  0  0
 13 12  1  0  0  0  0
 14 13  2  0  0  0  0
 15 14  1  0  0  0  0
 15 10  2  0  0  0  0
 16 18  1  0  0  0  0
 16 14  1  0  0  0  0
 17 10  1  0  0  0  0
 19 16  1  0  0  0  0
 20 23  1  0  0  0  0
 20 22  1  0  0  0  0
 21 20  1  0  0  0  0
 24 25  1  0  0  0  0
 25 27  2  0  0  0  0
 25 26  1  0  0  0  0
 27 28  1  0  0  0  0
 29 27  1  0  0  0  0
 30 29  2  0  0  0  0
 31 30  1  0  0  0  0
 31 24  2  0  0  0  0
M  END
>  <minimizedAffinity>
-5.52233553

$$$$
