
 OpenBabel03272510043D

 36 38  0  0  0  0  0  0  0  0999 V2000
   36.0690   30.5160   45.5020 C   0  0  0  0  0  0  0  0  0  0  0  0
   35.6930   30.3600   46.8160 C   0  0  0  0  0  0  0  0  0  0  0  0
   34.4010   29.9510   47.1070 C   0  0  0  0  0  0  0  0  0  0  0  0
   33.4580   29.6900   46.1330 C   0  0  0  0  0  0  0  0  0  0  0  0
   33.8080   29.8400   44.8150 C   0  0  0  0  0  0  0  0  0  0  0  0
   35.0910   30.2440   44.5470 C   0  0  0  0  0  0  0  0  0  0  0  0
   34.1250   29.8330   48.1620 H   0  0  0  0  0  0  0  0  0  0  0  0
   32.4820   29.3760   46.4730 H   0  0  0  0  0  0  0  0  0  0  0  0
   33.0470   29.6270   44.0810 H   0  0  0  0  0  0  0  0  0  0  0  0
   35.2470   30.3310   43.4660 H   0  0  0  0  0  0  0  0  0  0  0  0
   38.3890   31.9190   48.7670 C   0  0  0  0  0  0  0  0  0  0  0  0
   37.4870   31.6370   47.7470 C   0  0  0  0  0  0  0  0  0  0  0  0
   36.5920   30.6330   47.8840 C   0  0  0  0  0  0  0  0  0  0  0  0
   36.6140   29.9280   49.0560 N   0  0  0  0  0  0  0  0  0  0  0  0
   37.4780   30.1980   50.0420 C   0  0  0  0  0  0  0  0  0  0  0  0
   38.3600   31.1910   49.8890 N   0  0  0  0  0  0  0  0  0  0  0  0
   39.1550   32.6690   48.8180 H   0  0  0  0  0  0  0  0  0  0  0  0
   37.6980   32.3700   47.0070 H   0  0  0  0  0  0  0  0  0  0  0  0
   37.3490   29.3960   51.2880 C   0  0  0  0  0  0  0  0  0  0  0  0
   37.6490   30.1430   52.4160 F   0  0  0  0  0  0  0  0  0  0  0  0
   35.9520   29.0750   51.4810 F   0  0  0  0  0  0  0  0  0  0  0  0
   37.9380   28.2230   51.3160 F   0  0  0  0  0  0  0  0  0  0  0  0
   37.6620   30.9730   45.0170 S   0  0  0  0  0  0  0  0  0  0  0  0
   37.7910   32.4490   44.9930 O   0  0  0  0  0  0  0  0  0  0  0  0
   37.4890   30.7860   43.5320 O   0  0  0  0  0  0  0  0  0  0  0  0
   39.0490   30.0210   44.8870 C   0  0  0  0  0  0  0  0  0  0  0  0
   39.8470   30.5660   45.4430 H   0  0  0  0  0  0  0  0  0  0  0  0
   38.8820   29.1350   45.5830 H   0  0  0  0  0  0  0  0  0  0  0  0
   39.6680   29.4670   43.7190 C   0  0  0  0  0  0  0  0  0  0  0  0
   39.2890   28.2150   43.2670 C   0  0  0  0  0  0  0  0  0  0  0  0
   38.5110   27.6760   43.8300 H   0  0  0  0  0  0  0  0  0  0  0  0
   39.8000   27.5540   42.1530 C   0  0  0  0  0  0  0  0  0  0  0  0
   39.4230   26.5740   41.9000 H   0  0  0  0  0  0  0  0  0  0  0  0
   40.7830   28.2550   41.4570 C   0  0  0  0  0  3  0  0  0  0  0  0
   41.1760   29.5050   41.8890 C   0  0  0  0  0  3  0  0  0  0  0  0
   40.6320   30.0790   42.9780 N   0  0  0  0  0  0  0  0  0  0  0  0
  1  2  1  0  0  0  0
  2  3  2  0  0  0  0
  2 13  1  0  0  0  0
  3  7  1  0  0  0  0
  4  8  1  0  0  0  0
  4  3  1  0  0  0  0
  5  4  2  0  0  0  0
  6  5  1  0  0  0  0
  6  1  2  0  0  0  0
  9  5  1  0  0  0  0
 10  6  1  0  0  0  0
 11 17  1  0  0  0  0
 11 16  1  0  0  0  0
 12 13  1  0  0  0  0
 12 11  2  0  0  0  0
 13 14  2  0  0  0  0
 14 15  1  0  0  0  0
 15 19  1  0  0  0  0
 16 15  2  0  0  0  0
 18 12  1  0  0  0  0
 19 22  1  0  0  0  0
 19 21  1  0  0  0  0
 19 20  1  0  0  0  0
 23  1  1  0  0  0  0
 24 23  2  0  0  0  0
 25 23  2  0  0  0  0
 26 23  1  0  0  0  0
 26 27  1  0  0  0  0
 26 28  1  0  0  0  0
 29 26  1  0  0  0  0
 30 29  1  0  0  0  0
 30 31  1  0  0  0  0
 32 30  2  0  0  0  0
 33 32  1  0  0  0  0
 34 35  2  0  0  0  0
 34 32  1  0  0  0  0
 35 36  1  0  0  0  0
 36 29  2  0  0  0  0
M  END
>  <minimizedAffinity>
-6.32103491

>  <minimizedRMSD>
2.44821143

$$$$
